REF_CHEMBL554__W_7USX_LOCAL_COMPLETE__e8__s20260927
     RDKit          3D

 67 71  0  0  0  0  0  0  0  0999 V2000
  134.3590  181.8730  166.1580 C   0  0  0  0  0  0  0  0  0  0  0  0
  134.9080  180.2720  166.7050 S   0  0  0  0  0  0  0  0  0  0  0  0
  136.3620  180.2310  166.7240 O   0  0  0  0  0  0  0  0  0  0  0  0
  134.1530  179.8680  167.8700 O   0  0  0  0  0  0  0  0  0  0  0  0
  134.4560  179.1650  165.3970 C   0  0  0  0  0  0  0  0  0  0  0  0
  133.2910  178.3050  165.8670 C   0  0  0  0  0  0  0  0  0  0  0  0
  132.0000  179.0800  165.8660 N   0  0  0  0  0  0  0  0  0  0  0  0
  131.0560  178.7440  164.7540 C   0  0  0  0  0  0  0  0  0  0  0  0
  131.2510  179.6280  163.5810 C   0  0  0  0  0  0  0  0  0  0  0  0
  131.1030  179.4590  162.2230 C   0  0  0  0  0  0  0  0  0  0  0  0
  131.4230  180.7080  161.6320 C   0  0  0  0  0  0  0  0  0  0  0  0
  131.7580  181.5660  162.6610 C   0  0  0  0  0  0  0  0  0  0  0  0
  132.1560  182.9670  162.7340 C   0  0  0  0  0  0  0  0  0  0  0  0
  133.4990  183.3390  162.8050 C   0  0  0  0  0  0  0  0  0  0  0  0
  133.8590  184.6880  162.9030 C   0  0  0  0  0  0  0  0  0  0  0  0
  132.9140  185.7030  162.9310 C   0  0  0  0  0  0  0  0  0  0  0  0
  133.3380  186.9610  163.0540 N   0  0  0  0  0  0  0  0  0  0  0  0
  132.3970  187.9090  163.0960 C   0  0  0  0  0  0  0  0  0  0  0  0
  131.0800  187.7120  163.0170 N   0  0  0  0  0  0  0  0  0  0  0  0
  130.6600  186.4440  162.8680 C   0  0  0  0  0  0  0  0  0  0  0  0
  129.2740  186.1980  162.7380 N   0  0  0  0  0  0  0  0  0  0  0  0
  128.1720  186.9140  163.2420 C   0  0  0  0  0  0  0  0  0  0  0  0
  128.1080  187.3820  164.5600 C   0  0  0  0  0  0  0  0  0  0  0  0
  126.9760  188.0510  165.0380 C   0  0  0  0  0  0  0  0  0  0  0  0
  125.8890  188.2640  164.1940 C   0  0  0  0  0  0  0  0  0  0  0  0
  124.7770  188.8810  164.7000 O   0  0  0  0  0  0  0  0  0  0  0  0
  124.1830  188.0770  165.7260 C   0  0  0  0  0  0  0  0  0  0  0  0
  122.9580  187.4140  165.1490 C   0  0  0  0  0  0  0  0  0  0  0  0
  122.8800  186.0130  165.0750 C   0  0  0  0  0  0  0  0  0  0  0  0
  121.7460  185.3890  164.5500 C   0  0  0  0  0  0  0  0  0  0  0  0
  120.6770  186.1590  164.0980 C   0  0  0  0  0  0  0  0  0  0  0  0
  120.7490  187.5440  164.1780 C   0  0  0  0  0  0  0  0  0  0  0  0
  119.7180  188.2840  163.7490 F   0  0  0  0  0  0  0  0  0  0  0  0
  121.8730  188.1770  164.6990 C   0  0  0  0  0  0  0  0  0  0  0  0
  125.9170  187.7730  162.8880 C   0  0  0  0  0  0  0  0  0  0  0  0
  124.5710  187.9650  161.8250 Cl  0  0  0  0  0  0  0  0  0  0  0  0
  127.0510  187.1050  162.4170 C   0  0  0  0  0  0  0  0  0  0  0  0
  131.5590  185.3590  162.8360 C   0  0  0  0  0  0  0  0  0  0  0  0
  131.1940  183.9860  162.7420 C   0  0  0  0  0  0  0  0  0  0  0  0
  131.6510  180.9040  163.8540 O   0  0  0  0  0  0  0  0  0  0  0  0
  134.1424  182.5047  167.0321 H   0  0  0  0  0  0  0  0  0  0  0  0
  135.1471  182.3435  165.5518 H   0  0  0  0  0  0  0  0  0  0  0  0
  133.4480  181.7609  165.5518 H   0  0  0  0  0  0  0  0  0  0  0  0
  134.1558  179.7426  164.5103 H   0  0  0  0  0  0  0  0  0  0  0  0
  135.3118  178.5259  165.1340 H   0  0  0  0  0  0  0  0  0  0  0  0
  133.1900  177.4407  165.1941 H   0  0  0  0  0  0  0  0  0  0  0  0
  133.4966  177.9766  166.8965 H   0  0  0  0  0  0  0  0  0  0  0  0
  132.1990  180.1020  165.8210 H   0  0  0  0  0  0  0  0  0  0  0  0
  131.4830  178.9260  166.7420 H   0  0  0  0  0  0  0  0  0  0  0  0
  131.2249  177.7015  164.4463 H   0  0  0  0  0  0  0  0  0  0  0  0
  130.0293  178.8860  165.1223 H   0  0  0  0  0  0  0  0  0  0  0  0
  130.7979  178.5400  161.7011 H   0  0  0  0  0  0  0  0  0  0  0  0
  131.4073  180.9476  160.5585 H   0  0  0  0  0  0  0  0  0  0  0  0
  134.2811  182.5658  162.7838 H   0  0  0  0  0  0  0  0  0  0  0  0
  134.9254  184.9517  162.9596 H   0  0  0  0  0  0  0  0  0  0  0  0
  132.7403  188.9483  163.2059 H   0  0  0  0  0  0  0  0  0  0  0  0
  129.0620  185.6020  161.9490 H   0  0  0  0  0  0  0  0  0  0  0  0
  128.9637  187.2207  165.2322 H   0  0  0  0  0  0  0  0  0  0  0  0
  126.9447  188.4079  166.0780 H   0  0  0  0  0  0  0  0  0  0  0  0
  124.8984  187.3117  166.0614 H   0  0  0  0  0  0  0  0  0  0  0  0
  123.9085  188.7012  166.5891 H   0  0  0  0  0  0  0  0  0  0  0  0
  123.7207  185.4013  165.4342 H   0  0  0  0  0  0  0  0  0  0  0  0
  121.6973  184.2915  164.4936 H   0  0  0  0  0  0  0  0  0  0  0  0
  119.7822  185.6739  163.6807 H   0  0  0  0  0  0  0  0  0  0  0  0
  121.9096  189.2748  164.7575 H   0  0  0  0  0  0  0  0  0  0  0  0
  127.0659  186.7233  161.3854 H   0  0  0  0  0  0  0  0  0  0  0  0
  130.1293  183.7181  162.6739 H   0  0  0  0  0  0  0  0  0  0  0  0
  1  2  1  0
  2  3  2  0
  2  4  2  0
  2  5  1  0
  5  6  1  0
  6  7  1  0
  7  8  1  0
  8  9  1  0
  9 10  2  0
 10 11  1  0
 11 12  2  0
 12 13  1  0
 13 14  2  0
 14 15  1  0
 15 16  2  0
 16 17  1  0
 17 18  2  0
 18 19  1  0
 19 20  2  0
 20 21  1  0
 21 22  1  0
 22 23  2  0
 23 24  1  0
 24 25  2  0
 25 26  1  0
 26 27  1  0
 27 28  1  0
 28 29  2  0
 29 30  1  0
 30 31  2  0
 31 32  1  0
 32 33  1  0
 32 34  2  0
 25 35  1  0
 35 36  1  0
 35 37  2  0
 20 38  1  0
 38 39  2  0
 12 40  1  0
 40  9  1  0
 39 13  1  0
 38 16  1  0
 37 22  1  0
 34 28  1  0
  1 41  1  0
  1 42  1  0
  1 43  1  0
  5 44  1  0
  5 45  1  0
  6 46  1  0
  6 47  1  0
  7 48  1  0
  7 49  1  0
  8 50  1  0
  8 51  1  0
 10 52  1  0
 11 53  1  0
 14 54  1  0
 15 55  1  0
 18 56  1  0
 21 57  1  0
 23 58  1  0
 24 59  1  0
 27 60  1  0
 27 61  1  0
 29 62  1  0
 30 63  1  0
 31 64  1  0
 34 65  1  0
 37 66  1  0
 39 67  1  0
M  CHG  1   7   1
M  END
>  <meeko>  (1) 
{"is_sidechain": [false], "free_energy": -8.822, "intermolecular_energy": -14.495, "internal_energy": -2.101}

$$$$
REF_CHEMBL554__W_7USX_LOCAL_COMPLETE__e8__s20260927
     RDKit          3D

 67 71  0  0  0  0  0  0  0  0999 V2000
  135.2790  181.0960  163.6460 C   0  0  0  0  0  0  0  0  0  0  0  0
  135.3740  182.7180  164.3710 S   0  0  0  0  0  0  0  0  0  0  0  0
  136.7520  183.1850  164.3500 O   0  0  0  0  0  0  0  0  0  0  0  0
  134.3150  183.5510  163.8470 O   0  0  0  0  0  0  0  0  0  0  0  0
  135.0230  182.4690  166.0900 C   0  0  0  0  0  0  0  0  0  0  0  0
  135.2690  181.0060  166.4310 C   0  0  0  0  0  0  0  0  0  0  0  0
  134.7370  180.6620  167.7970 N   0  0  0  0  0  0  0  0  0  0  0  0
  133.3170  180.1900  167.8280 C   0  0  0  0  0  0  0  0  0  0  0  0
  132.9640  179.4310  166.6060 C   0  0  0  0  0  0  0  0  0  0  0  0
  132.9770  178.0950  166.2740 C   0  0  0  0  0  0  0  0  0  0  0  0
  132.4890  178.0120  164.9460 C   0  0  0  0  0  0  0  0  0  0  0  0
  132.2140  179.3030  164.5370 C   0  0  0  0  0  0  0  0  0  0  0  0
  131.6810  179.8960  163.3160 C   0  0  0  0  0  0  0  0  0  0  0  0
  131.0840  179.1120  162.3270 C   0  0  0  0  0  0  0  0  0  0  0  0
  130.6040  179.6970  161.1500 C   0  0  0  0  0  0  0  0  0  0  0  0
  130.6940  181.0600  160.9150 C   0  0  0  0  0  0  0  0  0  0  0  0
  130.2380  181.5350  159.7550 N   0  0  0  0  0  0  0  0  0  0  0  0
  130.3590  182.8510  159.5570 C   0  0  0  0  0  0  0  0  0  0  0  0
  130.8850  183.7290  160.4140 N   0  0  0  0  0  0  0  0  0  0  0  0
  131.3200  183.2480  161.5910 C   0  0  0  0  0  0  0  0  0  0  0  0
  131.8440  184.1530  162.5420 N   0  0  0  0  0  0  0  0  0  0  0  0
  131.3920  185.4270  162.9300 C   0  0  0  0  0  0  0  0  0  0  0  0
  130.0790  185.6730  163.3500 C   0  0  0  0  0  0  0  0  0  0  0  0
  129.6550  186.9630  163.6860 C   0  0  0  0  0  0  0  0  0  0  0  0
  130.5480  188.0290  163.6070 C   0  0  0  0  0  0  0  0  0  0  0  0
  130.0940  189.2870  163.8980 O   0  0  0  0  0  0  0  0  0  0  0  0
  129.2600  189.2600  165.0630 C   0  0  0  0  0  0  0  0  0  0  0  0
  130.1520  189.2890  166.2770 C   0  0  0  0  0  0  0  0  0  0  0  0
  131.3280  190.0580  166.2730 C   0  0  0  0  0  0  0  0  0  0  0  0
  132.1580  190.0980  167.3970 C   0  0  0  0  0  0  0  0  0  0  0  0
  131.8180  189.3730  168.5370 C   0  0  0  0  0  0  0  0  0  0  0  0
  130.6510  188.6190  168.5450 C   0  0  0  0  0  0  0  0  0  0  0  0
  130.3210  187.9260  169.6440 F   0  0  0  0  0  0  0  0  0  0  0  0
  129.8170  188.5710  167.4330 C   0  0  0  0  0  0  0  0  0  0  0  0
  131.8500  187.8120  163.1560 C   0  0  0  0  0  0  0  0  0  0  0  0
  132.9740  189.1120  162.9890 Cl  0  0  0  0  0  0  0  0  0  0  0  0
  132.2680  186.5200  162.8220 C   0  0  0  0  0  0  0  0  0  0  0  0
  131.2670  181.8740  161.9010 C   0  0  0  0  0  0  0  0  0  0  0  0
  131.7600  181.2770  163.0960 C   0  0  0  0  0  0  0  0  0  0  0  0
  132.5030  180.1700  165.5550 O   0  0  0  0  0  0  0  0  0  0  0  0
  135.2347  180.3398  164.4437 H   0  0  0  0  0  0  0  0  0  0  0  0
  134.3752  181.0252  163.0230 H   0  0  0  0  0  0  0  0  0  0  0  0
  136.1684  180.9202  163.0230 H   0  0  0  0  0  0  0  0  0  0  0  0
  135.6812  183.1067  166.6984 H   0  0  0  0  0  0  0  0  0  0  0  0
  133.9760  182.7322  166.3009 H   0  0  0  0  0  0  0  0  0  0  0  0
  134.7674  180.3750  165.6825 H   0  0  0  0  0  0  0  0  0  0  0  0
  136.3545  180.8282  166.4280 H   0  0  0  0  0  0  0  0  0  0  0  0
  134.8150  181.4880  168.4260 H   0  0  0  0  0  0  0  0  0  0  0  0
  135.3010  179.9170  168.2290 H   0  0  0  0  0  0  0  0  0  0  0  0
  133.1767  179.5399  168.7042 H   0  0  0  0  0  0  0  0  0  0  0  0
  132.6637  181.0733  167.8832 H   0  0  0  0  0  0  0  0  0  0  0  0
  133.3012  177.2594  166.9117 H   0  0  0  0  0  0  0  0  0  0  0  0
  132.3547  177.0948  164.3538 H   0  0  0  0  0  0  0  0  0  0  0  0
  130.9902  178.0259  162.4742 H   0  0  0  0  0  0  0  0  0  0  0  0
  130.1404  179.0546  160.3868 H   0  0  0  0  0  0  0  0  0  0  0  0
  129.9911  183.2475  158.5992 H   0  0  0  0  0  0  0  0  0  0  0  0
  132.4430  183.6960  163.2180 H   0  0  0  0  0  0  0  0  0  0  0  0
  129.3679  184.8364  163.4170 H   0  0  0  0  0  0  0  0  0  0  0  0
  128.6186  187.1352  164.0119 H   0  0  0  0  0  0  0  0  0  0  0  0
  128.5961  190.1371  165.0669 H   0  0  0  0  0  0  0  0  0  0  0  0
  128.6397  188.3516  165.0671 H   0  0  0  0  0  0  0  0  0  0  0  0
  131.5983  190.6345  165.3760 H   0  0  0  0  0  0  0  0  0  0  0  0
  133.0780  190.7009  167.3814 H   0  0  0  0  0  0  0  0  0  0  0  0
  132.4683  189.3973  169.4238 H   0  0  0  0  0  0  0  0  0  0  0  0
  128.8959  187.9704  167.4608 H   0  0  0  0  0  0  0  0  0  0  0  0
  133.2973  186.3572  162.4697 H   0  0  0  0  0  0  0  0  0  0  0  0
  132.2147  181.9170  163.8664 H   0  0  0  0  0  0  0  0  0  0  0  0
  1  2  1  0
  2  3  2  0
  2  4  2  0
  2  5  1  0
  5  6  1  0
  6  7  1  0
  7  8  1  0
  8  9  1  0
  9 10  2  0
 10 11  1  0
 11 12  2  0
 12 13  1  0
 13 14  2  0
 14 15  1  0
 15 16  2  0
 16 17  1  0
 17 18  2  0
 18 19  1  0
 19 20  2  0
 20 21  1  0
 21 22  1  0
 22 23  2  0
 23 24  1  0
 24 25  2  0
 25 26  1  0
 26 27  1  0
 27 28  1  0
 28 29  2  0
 29 30  1  0
 30 31  2  0
 31 32  1  0
 32 33  1  0
 32 34  2  0
 25 35  1  0
 35 36  1  0
 35 37  2  0
 20 38  1  0
 38 39  2  0
 12 40  1  0
 40  9  1  0
 39 13  1  0
 38 16  1  0
 37 22  1  0
 34 28  1  0
  1 41  1  0
  1 42  1  0
  1 43  1  0
  5 44  1  0
  5 45  1  0
  6 46  1  0
  6 47  1  0
  7 48  1  0
  7 49  1  0
  8 50  1  0
  8 51  1  0
 10 52  1  0
 11 53  1  0
 14 54  1  0
 15 55  1  0
 18 56  1  0
 21 57  1  0
 23 58  1  0
 24 59  1  0
 27 60  1  0
 27 61  1  0
 29 62  1  0
 30 63  1  0
 31 64  1  0
 34 65  1  0
 37 66  1  0
 39 67  1  0
M  CHG  1   7   1
M  END
>  <meeko>  (2) 
{"is_sidechain": [false], "free_energy": -8.456, "intermolecular_energy": -13.775, "internal_energy": -2.221}

$$$$
REF_CHEMBL554__W_7USX_LOCAL_COMPLETE__e8__s20260927
     RDKit          3D

 67 71  0  0  0  0  0  0  0  0999 V2000
  135.3680  180.9470  163.5720 C   0  0  0  0  0  0  0  0  0  0  0  0
  135.5020  182.7050  163.8050 S   0  0  0  0  0  0  0  0  0  0  0  0
  136.9010  183.0770  163.9450 O   0  0  0  0  0  0  0  0  0  0  0  0
  134.6570  183.3910  162.8520 O   0  0  0  0  0  0  0  0  0  0  0  0
  134.8070  183.0050  165.4070 C   0  0  0  0  0  0  0  0  0  0  0  0
  135.1840  181.8500  166.3260 C   0  0  0  0  0  0  0  0  0  0  0  0
  134.1040  181.5770  167.3390 N   0  0  0  0  0  0  0  0  0  0  0  0
  133.9300  180.1380  167.7130 C   0  0  0  0  0  0  0  0  0  0  0  0
  133.1740  179.3900  166.6820 C   0  0  0  0  0  0  0  0  0  0  0  0
  132.6920  178.1030  166.5960 C   0  0  0  0  0  0  0  0  0  0  0  0
  132.0230  178.0140  165.3490 C   0  0  0  0  0  0  0  0  0  0  0  0
  132.1410  179.2480  164.7390 C   0  0  0  0  0  0  0  0  0  0  0  0
  131.6700  179.8140  163.4810 C   0  0  0  0  0  0  0  0  0  0  0  0
  131.2030  179.0010  162.4470 C   0  0  0  0  0  0  0  0  0  0  0  0
  130.7820  179.5630  161.2360 C   0  0  0  0  0  0  0  0  0  0  0  0
  130.8070  180.9310  161.0100 C   0  0  0  0  0  0  0  0  0  0  0  0
  130.4150  181.3830  159.8180 N   0  0  0  0  0  0  0  0  0  0  0  0
  130.4710  182.7060  159.6310 C   0  0  0  0  0  0  0  0  0  0  0  0
  130.8720  183.6090  160.5290 N   0  0  0  0  0  0  0  0  0  0  0  0
  131.2420  183.1480  161.7360 C   0  0  0  0  0  0  0  0  0  0  0  0
  131.6320  184.0780  162.7270 N   0  0  0  0  0  0  0  0  0  0  0  0
  131.0540  185.3050  163.1010 C   0  0  0  0  0  0  0  0  0  0  0  0
  129.6740  185.4770  163.2670 C   0  0  0  0  0  0  0  0  0  0  0  0
  129.1330  186.7240  163.5960 C   0  0  0  0  0  0  0  0  0  0  0  0
  129.9740  187.8210  163.7660 C   0  0  0  0  0  0  0  0  0  0  0  0
  129.4140  189.0390  164.0430 O   0  0  0  0  0  0  0  0  0  0  0  0
  128.2390  188.8770  164.8460 C   0  0  0  0  0  0  0  0  0  0  0  0
  127.0430  189.2400  164.0030 C   0  0  0  0  0  0  0  0  0  0  0  0
  127.0660  190.3950  163.2030 C   0  0  0  0  0  0  0  0  0  0  0  0
  125.9660  190.7360  162.4110 C   0  0  0  0  0  0  0  0  0  0  0  0
  124.8350  189.9240  162.4090 C   0  0  0  0  0  0  0  0  0  0  0  0
  124.8140  188.7770  163.1930 C   0  0  0  0  0  0  0  0  0  0  0  0
  123.7280  187.9930  163.1860 F   0  0  0  0  0  0  0  0  0  0  0  0
  125.9030  188.4280  163.9850 C   0  0  0  0  0  0  0  0  0  0  0  0
  131.3480  187.6810  163.5680 C   0  0  0  0  0  0  0  0  0  0  0  0
  132.4210  189.0250  163.7140 Cl  0  0  0  0  0  0  0  0  0  0  0  0
  131.8820  186.4310  163.2400 C   0  0  0  0  0  0  0  0  0  0  0  0
  131.2480  181.7720  162.0390 C   0  0  0  0  0  0  0  0  0  0  0  0
  131.6810  181.1990  163.2690 C   0  0  0  0  0  0  0  0  0  0  0  0
  132.8440  180.0910  165.5560 O   0  0  0  0  0  0  0  0  0  0  0  0
  135.3300  180.4491  164.5521 H   0  0  0  0  0  0  0  0  0  0  0  0
  134.4500  180.7205  163.0099 H   0  0  0  0  0  0  0  0  0  0  0  0
  136.2411  180.5840  163.0099 H   0  0  0  0  0  0  0  0  0  0  0  0
  135.2053  183.9465  165.8131 H   0  0  0  0  0  0  0  0  0  0  0  0
  133.7123  183.0832  165.3324 H   0  0  0  0  0  0  0  0  0  0  0  0
  135.3414  180.9465  165.7187 H   0  0  0  0  0  0  0  0  0  0  0  0
  136.1028  182.1234  166.8656 H   0  0  0  0  0  0  0  0  0  0  0  0
  133.1900  181.9310  166.9870 H   0  0  0  0  0  0  0  0  0  0  0  0
  134.2910  182.0840  168.2150 H   0  0  0  0  0  0  0  0  0  0  0  0
  134.9223  179.6781  167.8308 H   0  0  0  0  0  0  0  0  0  0  0  0
  133.3607  180.0952  168.6532 H   0  0  0  0  0  0  0  0  0  0  0  0
  132.8035  177.3045  167.3443 H   0  0  0  0  0  0  0  0  0  0  0  0
  131.5079  177.1304  164.9442 H   0  0  0  0  0  0  0  0  0  0  0  0
  131.1655  177.9103  162.5848 H   0  0  0  0  0  0  0  0  0  0  0  0
  130.4197  178.8982  160.4380 H   0  0  0  0  0  0  0  0  0  0  0  0
  130.1579  183.0851  158.6470 H   0  0  0  0  0  0  0  0  0  0  0  0
  132.2250  183.6610  163.4320 H   0  0  0  0  0  0  0  0  0  0  0  0
  129.0031  184.6152  163.1362 H   0  0  0  0  0  0  0  0  0  0  0  0
  128.0460  186.8381  163.7202 H   0  0  0  0  0  0  0  0  0  0  0  0
  128.1566  187.8322  165.1800 H   0  0  0  0  0  0  0  0  0  0  0  0
  128.2911  189.5250  165.7334 H   0  0  0  0  0  0  0  0  0  0  0  0
  127.9589  191.0374  163.2000 H   0  0  0  0  0  0  0  0  0  0  0  0
  125.9938  191.6439  161.7906 H   0  0  0  0  0  0  0  0  0  0  0  0
  123.9642  190.1886  161.7911 H   0  0  0  0  0  0  0  0  0  0  0  0
  125.8683  187.5145  164.5968 H   0  0  0  0  0  0  0  0  0  0  0  0
  132.9667  186.3280  163.0886 H   0  0  0  0  0  0  0  0  0  0  0  0
  132.0333  181.8612  164.0736 H   0  0  0  0  0  0  0  0  0  0  0  0
  1  2  1  0
  2  3  2  0
  2  4  2  0
  2  5  1  0
  5  6  1  0
  6  7  1  0
  7  8  1  0
  8  9  1  0
  9 10  2  0
 10 11  1  0
 11 12  2  0
 12 13  1  0
 13 14  2  0
 14 15  1  0
 15 16  2  0
 16 17  1  0
 17 18  2  0
 18 19  1  0
 19 20  2  0
 20 21  1  0
 21 22  1  0
 22 23  2  0
 23 24  1  0
 24 25  2  0
 25 26  1  0
 26 27  1  0
 27 28  1  0
 28 29  2  0
 29 30  1  0
 30 31  2  0
 31 32  1  0
 32 33  1  0
 32 34  2  0
 25 35  1  0
 35 36  1  0
 35 37  2  0
 20 38  1  0
 38 39  2  0
 12 40  1  0
 40  9  1  0
 39 13  1  0
 38 16  1  0
 37 22  1  0
 34 28  1  0
  1 41  1  0
  1 42  1  0
  1 43  1  0
  5 44  1  0
  5 45  1  0
  6 46  1  0
  6 47  1  0
  7 48  1  0
  7 49  1  0
  8 50  1  0
  8 51  1  0
 10 52  1  0
 11 53  1  0
 14 54  1  0
 15 55  1  0
 18 56  1  0
 21 57  1  0
 23 58  1  0
 24 59  1  0
 27 60  1  0
 27 61  1  0
 29 62  1  0
 30 63  1  0
 31 64  1  0
 34 65  1  0
 37 66  1  0
 39 67  1  0
M  CHG  1   7   1
M  END
>  <meeko>  (3) 
{"is_sidechain": [false], "free_energy": -8.032, "intermolecular_energy": -13.36, "internal_energy": -1.938}

$$$$
REF_CHEMBL554__W_7USX_LOCAL_COMPLETE__e8__s20260927
     RDKit          3D

 67 71  0  0  0  0  0  0  0  0999 V2000
  124.0680  167.0370  168.0670 C   0  0  0  0  0  0  0  0  0  0  0  0
  123.0100  166.6220  169.4350 S   0  0  0  0  0  0  0  0  0  0  0  0
  121.6240  166.5870  168.9920 O   0  0  0  0  0  0  0  0  0  0  0  0
  123.5700  165.5060  170.1650 O   0  0  0  0  0  0  0  0  0  0  0  0
  123.0890  168.0260  170.5120 C   0  0  0  0  0  0  0  0  0  0  0  0
  121.8130  168.8400  170.3470 C   0  0  0  0  0  0  0  0  0  0  0  0
  121.8490  169.6710  169.0910 N   0  0  0  0  0  0  0  0  0  0  0  0
  120.5110  170.0760  168.5560 C   0  0  0  0  0  0  0  0  0  0  0  0
  120.4520  169.9630  167.0810 C   0  0  0  0  0  0  0  0  0  0  0  0
  120.3140  170.8740  166.0580 C   0  0  0  0  0  0  0  0  0  0  0  0
  120.3590  170.1270  164.8540 C   0  0  0  0  0  0  0  0  0  0  0  0
  120.5120  168.8000  165.2080 C   0  0  0  0  0  0  0  0  0  0  0  0
  120.6440  167.5530  164.4650 C   0  0  0  0  0  0  0  0  0  0  0  0
  119.9240  167.3260  163.2910 C   0  0  0  0  0  0  0  0  0  0  0  0
  120.0430  166.1110  162.6080 C   0  0  0  0  0  0  0  0  0  0  0  0
  120.8720  165.0930  163.0540 C   0  0  0  0  0  0  0  0  0  0  0  0
  120.9080  163.9550  162.3600 N   0  0  0  0  0  0  0  0  0  0  0  0
  121.7040  162.9900  162.8320 C   0  0  0  0  0  0  0  0  0  0  0  0
  122.4680  163.0660  163.9240 N   0  0  0  0  0  0  0  0  0  0  0  0
  122.4460  164.2250  164.6050 C   0  0  0  0  0  0  0  0  0  0  0  0
  123.2740  164.3600  165.7430 N   0  0  0  0  0  0  0  0  0  0  0  0
  123.2830  163.6390  166.9510 C   0  0  0  0  0  0  0  0  0  0  0  0
  124.4510  163.1000  167.5060 C   0  0  0  0  0  0  0  0  0  0  0  0
  124.4140  162.3500  168.6870 C   0  0  0  0  0  0  0  0  0  0  0  0
  123.1990  162.1330  169.3310 C   0  0  0  0  0  0  0  0  0  0  0  0
  123.1860  161.3580  170.4600 O   0  0  0  0  0  0  0  0  0  0  0  0
  123.7710  162.0670  171.5590 C   0  0  0  0  0  0  0  0  0  0  0  0
  122.6630  162.4800  172.4930 C   0  0  0  0  0  0  0  0  0  0  0  0
  121.6250  161.5840  172.7990 C   0  0  0  0  0  0  0  0  0  0  0  0
  120.5960  161.9550  173.6690 C   0  0  0  0  0  0  0  0  0  0  0  0
  120.5980  163.2230  174.2450 C   0  0  0  0  0  0  0  0  0  0  0  0
  121.6280  164.1070  173.9500 C   0  0  0  0  0  0  0  0  0  0  0  0
  121.6330  165.3250  174.5090 F   0  0  0  0  0  0  0  0  0  0  0  0
  122.6570  163.7490  173.0850 C   0  0  0  0  0  0  0  0  0  0  0  0
  122.0190  162.6280  168.7760 C   0  0  0  0  0  0  0  0  0  0  0  0
  120.4850  162.3350  169.5100 Cl  0  0  0  0  0  0  0  0  0  0  0  0
  122.0630  163.3770  167.5960 C   0  0  0  0  0  0  0  0  0  0  0  0
  121.6260  165.3030  164.2160 C   0  0  0  0  0  0  0  0  0  0  0  0
  121.4990  166.5380  164.9140 C   0  0  0  0  0  0  0  0  0  0  0  0
  120.5700  168.7010  166.5720 O   0  0  0  0  0  0  0  0  0  0  0  0
  125.0288  167.4139  168.4477 H   0  0  0  0  0  0  0  0  0  0  0  0
  124.2428  166.1408  167.4536 H   0  0  0  0  0  0  0  0  0  0  0  0
  123.5868  167.8130  167.4536 H   0  0  0  0  0  0  0  0  0  0  0  0
  123.1802  167.6880  171.5548 H   0  0  0  0  0  0  0  0  0  0  0  0
  123.9632  168.6439  170.2589 H   0  0  0  0  0  0  0  0  0  0  0  0
  120.9547  168.1538  170.2975 H   0  0  0  0  0  0  0  0  0  0  0  0
  121.7216  169.5183  171.2081 H   0  0  0  0  0  0  0  0  0  0  0  0
  122.3540  169.1560  168.3400 H   0  0  0  0  0  0  0  0  0  0  0  0
  122.3760  170.5410  169.2470 H   0  0  0  0  0  0  0  0  0  0  0  0
  119.7403  169.4249  168.9942 H   0  0  0  0  0  0  0  0  0  0  0  0
  120.3391  171.1285  168.8256 H   0  0  0  0  0  0  0  0  0  0  0  0
  120.1931  171.9630  166.1554 H   0  0  0  0  0  0  0  0  0  0  0  0
  120.2860  170.5276  163.8321 H   0  0  0  0  0  0  0  0  0  0  0  0
  119.2576  168.1088  162.8997 H   0  0  0  0  0  0  0  0  0  0  0  0
  119.4602  165.9583  161.6876 H   0  0  0  0  0  0  0  0  0  0  0  0
  121.7319  162.0459  162.2682 H   0  0  0  0  0  0  0  0  0  0  0  0
  124.1390  164.8400  165.5340 H   0  0  0  0  0  0  0  0  0  0  0  0
  125.4151  163.2694  167.0042 H   0  0  0  0  0  0  0  0  0  0  0  0
  125.3422  161.9332  169.1051 H   0  0  0  0  0  0  0  0  0  0  0  0
  124.4808  161.4143  172.0883 H   0  0  0  0  0  0  0  0  0  0  0  0
  124.3131  162.9526  171.1958 H   0  0  0  0  0  0  0  0  0  0  0  0
  121.6221  160.5802  172.3492 H   0  0  0  0  0  0  0  0  0  0  0  0
  119.7861  161.2468  173.8984 H   0  0  0  0  0  0  0  0  0  0  0  0
  119.7898  163.5223  174.9286 H   0  0  0  0  0  0  0  0  0  0  0  0
  123.4653  164.4622  172.8662 H   0  0  0  0  0  0  0  0  0  0  0  0
  121.1284  163.7668  167.1665 H   0  0  0  0  0  0  0  0  0  0  0  0
  122.0874  166.6991  165.8293 H   0  0  0  0  0  0  0  0  0  0  0  0
  1  2  1  0
  2  3  2  0
  2  4  2  0
  2  5  1  0
  5  6  1  0
  6  7  1  0
  7  8  1  0
  8  9  1  0
  9 10  2  0
 10 11  1  0
 11 12  2  0
 12 13  1  0
 13 14  2  0
 14 15  1  0
 15 16  2  0
 16 17  1  0
 17 18  2  0
 18 19  1  0
 19 20  2  0
 20 21  1  0
 21 22  1  0
 22 23  2  0
 23 24  1  0
 24 25  2  0
 25 26  1  0
 26 27  1  0
 27 28  1  0
 28 29  2  0
 29 30  1  0
 30 31  2  0
 31 32  1  0
 32 33  1  0
 32 34  2  0
 25 35  1  0
 35 36  1  0
 35 37  2  0
 20 38  1  0
 38 39  2  0
 12 40  1  0
 40  9  1  0
 39 13  1  0
 38 16  1  0
 37 22  1  0
 34 28  1  0
  1 41  1  0
  1 42  1  0
  1 43  1  0
  5 44  1  0
  5 45  1  0
  6 46  1  0
  6 47  1  0
  7 48  1  0
  7 49  1  0
  8 50  1  0
  8 51  1  0
 10 52  1  0
 11 53  1  0
 14 54  1  0
 15 55  1  0
 18 56  1  0
 21 57  1  0
 23 58  1  0
 24 59  1  0
 27 60  1  0
 27 61  1  0
 29 62  1  0
 30 63  1  0
 31 64  1  0
 34 65  1  0
 37 66  1  0
 39 67  1  0
M  CHG  1   7   1
M  END
>  <meeko>  (4) 
{"is_sidechain": [false], "free_energy": -7.813, "intermolecular_energy": -11.615, "internal_energy": -3.323}

$$$$
REF_CHEMBL554__W_7USX_LOCAL_COMPLETE__e8__s20260927
     RDKit          3D

 67 71  0  0  0  0  0  0  0  0999 V2000
  121.1570  176.4260  179.3990 C   0  0  0  0  0  0  0  0  0  0  0  0
  122.6580  175.9810  178.5550 S   0  0  0  0  0  0  0  0  0  0  0  0
  122.5890  174.5910  178.1290 O   0  0  0  0  0  0  0  0  0  0  0  0
  123.0120  177.0150  177.6080 O   0  0  0  0  0  0  0  0  0  0  0  0
  123.9070  175.9920  179.8110 C   0  0  0  0  0  0  0  0  0  0  0  0
  124.2760  174.5530  180.1450 C   0  0  0  0  0  0  0  0  0  0  0  0
  123.2100  173.8900  180.9770 N   0  0  0  0  0  0  0  0  0  0  0  0
  123.0160  174.4690  182.3430 C   0  0  0  0  0  0  0  0  0  0  0  0
  122.6520  173.4310  183.3340 C   0  0  0  0  0  0  0  0  0  0  0  0
  122.6210  173.3910  184.7100 C   0  0  0  0  0  0  0  0  0  0  0  0
  122.1490  172.1010  185.0580 C   0  0  0  0  0  0  0  0  0  0  0  0
  121.9280  171.4200  183.8770 C   0  0  0  0  0  0  0  0  0  0  0  0
  121.4350  170.0890  183.5410 C   0  0  0  0  0  0  0  0  0  0  0  0
  120.1210  169.8860  183.1150 C   0  0  0  0  0  0  0  0  0  0  0  0
  119.6590  168.5980  182.8250 C   0  0  0  0  0  0  0  0  0  0  0  0
  120.4710  167.4800  182.9430 C   0  0  0  0  0  0  0  0  0  0  0  0
  119.9460  166.2840  182.6740 N   0  0  0  0  0  0  0  0  0  0  0  0
  120.7540  165.2290  182.8180 C   0  0  0  0  0  0  0  0  0  0  0  0
  122.0340  165.2650  183.1950 N   0  0  0  0  0  0  0  0  0  0  0  0
  122.5640  166.4760  183.4400 C   0  0  0  0  0  0  0  0  0  0  0  0
  123.9280  166.5590  183.8000 N   0  0  0  0  0  0  0  0  0  0  0  0
  125.0780  166.1250  183.1150 C   0  0  0  0  0  0  0  0  0  0  0  0
  125.5140  166.7050  181.9170 C   0  0  0  0  0  0  0  0  0  0  0  0
  126.6370  166.2160  181.2420 C   0  0  0  0  0  0  0  0  0  0  0  0
  127.3430  165.1350  181.7630 C   0  0  0  0  0  0  0  0  0  0  0  0
  128.4120  164.6480  181.0580 O   0  0  0  0  0  0  0  0  0  0  0  0
  127.9610  163.8460  179.9600 C   0  0  0  0  0  0  0  0  0  0  0  0
  128.7640  164.2270  178.7430 C   0  0  0  0  0  0  0  0  0  0  0  0
  128.8040  163.3750  177.6270 C   0  0  0  0  0  0  0  0  0  0  0  0
  129.5390  163.7220  176.4900 C   0  0  0  0  0  0  0  0  0  0  0  0
  130.2370  164.9270  176.4570 C   0  0  0  0  0  0  0  0  0  0  0  0
  130.1920  165.7750  177.5570 C   0  0  0  0  0  0  0  0  0  0  0  0
  130.8590  166.9360  177.5230 F   0  0  0  0  0  0  0  0  0  0  0  0
  129.4640  165.4390  178.6940 C   0  0  0  0  0  0  0  0  0  0  0  0
  126.9040  164.5180  182.9350 C   0  0  0  0  0  0  0  0  0  0  0  0
  127.7150  163.1410  183.5870 Cl  0  0  0  0  0  0  0  0  0  0  0  0
  125.7810  165.0120  183.6050 C   0  0  0  0  0  0  0  0  0  0  0  0
  121.8010  167.6570  183.3460 C   0  0  0  0  0  0  0  0  0  0  0  0
  122.2690  168.9680  183.6460 C   0  0  0  0  0  0  0  0  0  0  0  0
  122.2350  172.2350  182.8220 O   0  0  0  0  0  0  0  0  0  0  0  0
  121.3194  176.3778  180.4859 H   0  0  0  0  0  0  0  0  0  0  0  0
  120.8669  177.4488  179.1166 H   0  0  0  0  0  0  0  0  0  0  0  0
  120.3563  175.7266  179.1166 H   0  0  0  0  0  0  0  0  0  0  0  0
  124.7958  176.5265  179.4445 H   0  0  0  0  0  0  0  0  0  0  0  0
  123.5297  176.5006  180.7104 H   0  0  0  0  0  0  0  0  0  0  0  0
  124.4011  173.9893  179.2087 H   0  0  0  0  0  0  0  0  0  0  0  0
  125.2111  174.5615  180.7242 H   0  0  0  0  0  0  0  0  0  0  0  0
  123.4230  172.8770  181.0840 H   0  0  0  0  0  0  0  0  0  0  0  0
  122.2960  173.9440  180.5060 H   0  0  0  0  0  0  0  0  0  0  0  0
  123.9516  174.9522  182.6610 H   0  0  0  0  0  0  0  0  0  0  0  0
  122.1925  175.1965  182.2920 H   0  0  0  0  0  0  0  0  0  0  0  0
  122.9056  174.1985  185.4006 H   0  0  0  0  0  0  0  0  0  0  0  0
  121.9890  171.7152  186.0756 H   0  0  0  0  0  0  0  0  0  0  0  0
  119.4436  170.7459  183.0066 H   0  0  0  0  0  0  0  0  0  0  0  0
  118.6185  168.4678  182.4928 H   0  0  0  0  0  0  0  0  0  0  0  0
  120.3241  164.2389  182.6061 H   0  0  0  0  0  0  0  0  0  0  0  0
  124.0990  167.2730  184.4960 H   0  0  0  0  0  0  0  0  0  0  0  0
  124.9631  167.5607  181.4995 H   0  0  0  0  0  0  0  0  0  0  0  0
  126.9619  166.6845  180.3013 H   0  0  0  0  0  0  0  0  0  0  0  0
  128.1129  162.7808  180.1888 H   0  0  0  0  0  0  0  0  0  0  0  0
  126.8893  164.0152  179.7786 H   0  0  0  0  0  0  0  0  0  0  0  0
  128.2509  162.4244  177.6481 H   0  0  0  0  0  0  0  0  0  0  0  0
  129.5662  163.0452  175.6233 H   0  0  0  0  0  0  0  0  0  0  0  0
  130.8197  165.2054  175.5665 H   0  0  0  0  0  0  0  0  0  0  0  0
  129.4383  166.1247  179.5537 H   0  0  0  0  0  0  0  0  0  0  0  0
  125.4427  164.5218  184.5298 H   0  0  0  0  0  0  0  0  0  0  0  0
  123.3118  169.1041  183.9684 H   0  0  0  0  0  0  0  0  0  0  0  0
  1  2  1  0
  2  3  2  0
  2  4  2  0
  2  5  1  0
  5  6  1  0
  6  7  1  0
  7  8  1  0
  8  9  1  0
  9 10  2  0
 10 11  1  0
 11 12  2  0
 12 13  1  0
 13 14  2  0
 14 15  1  0
 15 16  2  0
 16 17  1  0
 17 18  2  0
 18 19  1  0
 19 20  2  0
 20 21  1  0
 21 22  1  0
 22 23  2  0
 23 24  1  0
 24 25  2  0
 25 26  1  0
 26 27  1  0
 27 28  1  0
 28 29  2  0
 29 30  1  0
 30 31  2  0
 31 32  1  0
 32 33  1  0
 32 34  2  0
 25 35  1  0
 35 36  1  0
 35 37  2  0
 20 38  1  0
 38 39  2  0
 12 40  1  0
 40  9  1  0
 39 13  1  0
 38 16  1  0
 37 22  1  0
 34 28  1  0
  1 41  1  0
  1 42  1  0
  1 43  1  0
  5 44  1  0
  5 45  1  0
  6 46  1  0
  6 47  1  0
  7 48  1  0
  7 49  1  0
  8 50  1  0
  8 51  1  0
 10 52  1  0
 11 53  1  0
 14 54  1  0
 15 55  1  0
 18 56  1  0
 21 57  1  0
 23 58  1  0
 24 59  1  0
 27 60  1  0
 27 61  1  0
 29 62  1  0
 30 63  1  0
 31 64  1  0
 34 65  1  0
 37 66  1  0
 39 67  1  0
M  CHG  1   7   1
M  END
>  <meeko>  (5) 
{"is_sidechain": [false], "free_energy": -7.127, "intermolecular_energy": -11.995, "internal_energy": -1.816}

$$$$
REF_CHEMBL554__W_7USX_LOCAL_COMPLETE__e8__s20260927
     RDKit          3D

 67 71  0  0  0  0  0  0  0  0999 V2000
  125.0740  165.6510  181.3850 C   0  0  0  0  0  0  0  0  0  0  0  0
  126.5590  165.9030  182.3320 S   0  0  0  0  0  0  0  0  0  0  0  0
  127.5710  166.5370  181.5010 O   0  0  0  0  0  0  0  0  0  0  0  0
  126.2260  166.4590  183.6250 O   0  0  0  0  0  0  0  0  0  0  0  0
  127.1920  164.2750  182.6270 C   0  0  0  0  0  0  0  0  0  0  0  0
  126.0380  163.3690  183.0340 C   0  0  0  0  0  0  0  0  0  0  0  0
  125.4900  163.7490  184.3850 N   0  0  0  0  0  0  0  0  0  0  0  0
  124.2110  163.0720  184.7670 C   0  0  0  0  0  0  0  0  0  0  0  0
  123.0270  163.8660  184.3650 C   0  0  0  0  0  0  0  0  0  0  0  0
  121.7200  163.5510  184.0690 C   0  0  0  0  0  0  0  0  0  0  0  0
  121.0730  164.7790  183.7820 C   0  0  0  0  0  0  0  0  0  0  0  0
  122.0220  165.7750  183.9090 C   0  0  0  0  0  0  0  0  0  0  0  0
  122.0030  167.2260  183.7730 C   0  0  0  0  0  0  0  0  0  0  0  0
  121.9940  168.0620  184.8910 C   0  0  0  0  0  0  0  0  0  0  0  0
  121.9480  169.4520  184.7390 C   0  0  0  0  0  0  0  0  0  0  0  0
  121.9130  170.0560  183.4910 C   0  0  0  0  0  0  0  0  0  0  0  0
  121.8420  171.3860  183.4320 N   0  0  0  0  0  0  0  0  0  0  0  0
  121.7910  171.9310  182.2120 C   0  0  0  0  0  0  0  0  0  0  0  0
  121.8140  171.2670  181.0550 N   0  0  0  0  0  0  0  0  0  0  0  0
  121.9110  169.9280  181.1200 C   0  0  0  0  0  0  0  0  0  0  0  0
  121.9820  169.1920  179.9150 N   0  0  0  0  0  0  0  0  0  0  0  0
  123.0770  168.5600  179.2990 C   0  0  0  0  0  0  0  0  0  0  0  0
  124.4050  168.9330  179.5400 C   0  0  0  0  0  0  0  0  0  0  0  0
  125.4660  168.3100  178.8740 C   0  0  0  0  0  0  0  0  0  0  0  0
  125.2070  167.2970  177.9540 C   0  0  0  0  0  0  0  0  0  0  0  0
  126.2600  166.7350  177.2840 O   0  0  0  0  0  0  0  0  0  0  0  0
  126.8740  165.7160  178.0820 C   0  0  0  0  0  0  0  0  0  0  0  0
  128.2620  165.4750  177.5460 C   0  0  0  0  0  0  0  0  0  0  0  0
  128.4900  164.4580  176.6040 C   0  0  0  0  0  0  0  0  0  0  0  0
  129.7720  164.2320  176.0950 C   0  0  0  0  0  0  0  0  0  0  0  0
  130.8360  165.0230  176.5190 C   0  0  0  0  0  0  0  0  0  0  0  0
  130.6110  166.0350  177.4450 C   0  0  0  0  0  0  0  0  0  0  0  0
  131.6340  166.7990  177.8480 F   0  0  0  0  0  0  0  0  0  0  0  0
  129.3390  166.2690  177.9580 C   0  0  0  0  0  0  0  0  0  0  0  0
  123.8900  166.9360  177.6710 C   0  0  0  0  0  0  0  0  0  0  0  0
  123.5190  165.7260  176.4970 Cl  0  0  0  0  0  0  0  0  0  0  0  0
  122.8340  167.5630  178.3400 C   0  0  0  0  0  0  0  0  0  0  0  0
  121.9470  169.2420  182.3510 C   0  0  0  0  0  0  0  0  0  0  0  0
  121.9880  167.8280  182.5070 C   0  0  0  0  0  0  0  0  0  0  0  0
  123.2180  165.2150  184.2680 O   0  0  0  0  0  0  0  0  0  0  0  0
  124.2237  165.5067  182.0678 H   0  0  0  0  0  0  0  0  0  0  0  0
  124.8898  166.5307  180.7508 H   0  0  0  0  0  0  0  0  0  0  0  0
  125.1903  164.7598  180.7508 H   0  0  0  0  0  0  0  0  0  0  0  0
  127.6606  163.8883  181.7100 H   0  0  0  0  0  0  0  0  0  0  0  0
  127.9453  164.3052  183.4280 H   0  0  0  0  0  0  0  0  0  0  0  0
  125.2359  163.4533  182.2860 H   0  0  0  0  0  0  0  0  0  0  0  0
  126.4124  162.3362  183.0906 H   0  0  0  0  0  0  0  0  0  0  0  0
  125.3350  164.7770  184.4280 H   0  0  0  0  0  0  0  0  0  0  0  0
  126.1690  163.5280  185.1260 H   0  0  0  0  0  0  0  0  0  0  0  0
  124.1661  162.0905  184.2724 H   0  0  0  0  0  0  0  0  0  0  0  0
  124.1948  162.9643  185.8616 H   0  0  0  0  0  0  0  0  0  0  0  0
  121.2685  162.5480  184.0575 H   0  0  0  0  0  0  0  0  0  0  0  0
  120.0157  164.9135  183.5098 H   0  0  0  0  0  0  0  0  0  0  0  0
  122.0233  167.6242  185.8997 H   0  0  0  0  0  0  0  0  0  0  0  0
  121.9393  170.0860  185.6379 H   0  0  0  0  0  0  0  0  0  0  0  0
  121.7239  173.0276  182.1573 H   0  0  0  0  0  0  0  0  0  0  0  0
  121.0780  168.8450  179.6240 H   0  0  0  0  0  0  0  0  0  0  0  0
  124.6180  169.7309  180.2666 H   0  0  0  0  0  0  0  0  0  0  0  0
  126.5020  168.6194  179.0765 H   0  0  0  0  0  0  0  0  0  0  0  0
  126.9310  166.0465  179.1296 H   0  0  0  0  0  0  0  0  0  0  0  0
  126.2824  164.7896  178.0388 H   0  0  0  0  0  0  0  0  0  0  0  0
  127.6511  163.8332  176.2636 H   0  0  0  0  0  0  0  0  0  0  0  0
  129.9398  163.4304  175.3606 H   0  0  0  0  0  0  0  0  0  0  0  0
  131.8477  164.8485  176.1241 H   0  0  0  0  0  0  0  0  0  0  0  0
  129.1797  167.0773  178.6868 H   0  0  0  0  0  0  0  0  0  0  0  0
  121.7982  167.2712  178.1119 H   0  0  0  0  0  0  0  0  0  0  0  0
  122.0085  167.1907  181.6107 H   0  0  0  0  0  0  0  0  0  0  0  0
  1  2  1  0
  2  3  2  0
  2  4  2  0
  2  5  1  0
  5  6  1  0
  6  7  1  0
  7  8  1  0
  8  9  1  0
  9 10  2  0
 10 11  1  0
 11 12  2  0
 12 13  1  0
 13 14  2  0
 14 15  1  0
 15 16  2  0
 16 17  1  0
 17 18  2  0
 18 19  1  0
 19 20  2  0
 20 21  1  0
 21 22  1  0
 22 23  2  0
 23 24  1  0
 24 25  2  0
 25 26  1  0
 26 27  1  0
 27 28  1  0
 28 29  2  0
 29 30  1  0
 30 31  2  0
 31 32  1  0
 32 33  1  0
 32 34  2  0
 25 35  1  0
 35 36  1  0
 35 37  2  0
 20 38  1  0
 38 39  2  0
 12 40  1  0
 40  9  1  0
 39 13  1  0
 38 16  1  0
 37 22  1  0
 34 28  1  0
  1 41  1  0
  1 42  1  0
  1 43  1  0
  5 44  1  0
  5 45  1  0
  6 46  1  0
  6 47  1  0
  7 48  1  0
  7 49  1  0
  8 50  1  0
  8 51  1  0
 10 52  1  0
 11 53  1  0
 14 54  1  0
 15 55  1  0
 18 56  1  0
 21 57  1  0
 23 58  1  0
 24 59  1  0
 27 60  1  0
 27 61  1  0
 29 62  1  0
 30 63  1  0
 31 64  1  0
 34 65  1  0
 37 66  1  0
 39 67  1  0
M  CHG  1   7   1
M  END
>  <meeko>  (6) 
{"is_sidechain": [false], "free_energy": -7.109, "intermolecular_energy": -10.865, "internal_energy": -2.916}

$$$$
REF_CHEMBL554__W_7USX_LOCAL_COMPLETE__e8__s20260927
     RDKit          3D

 67 71  0  0  0  0  0  0  0  0999 V2000
  131.3640  186.0050  181.8230 C   0  0  0  0  0  0  0  0  0  0  0  0
  130.1310  184.9900  181.0410 S   0  0  0  0  0  0  0  0  0  0  0  0
  130.7010  183.6930  180.7080 O   0  0  0  0  0  0  0  0  0  0  0  0
  128.8890  185.0720  181.7780 O   0  0  0  0  0  0  0  0  0  0  0  0
  129.8410  185.7560  179.4690 C   0  0  0  0  0  0  0  0  0  0  0  0
  128.5200  185.2430  178.9140 C   0  0  0  0  0  0  0  0  0  0  0  0
  128.3130  183.7870  179.2390 N   0  0  0  0  0  0  0  0  0  0  0  0
  126.8890  183.3770  179.4500 C   0  0  0  0  0  0  0  0  0  0  0  0
  126.3910  182.5300  178.3420 C   0  0  0  0  0  0  0  0  0  0  0  0
  125.4300  181.5490  178.2470 C   0  0  0  0  0  0  0  0  0  0  0  0
  125.4130  181.1410  176.8900 C   0  0  0  0  0  0  0  0  0  0  0  0
  126.3710  181.8890  176.2330 C   0  0  0  0  0  0  0  0  0  0  0  0
  126.8330  181.9710  174.8520 C   0  0  0  0  0  0  0  0  0  0  0  0
  126.9900  180.8270  174.0680 C   0  0  0  0  0  0  0  0  0  0  0  0
  127.4610  180.9250  172.7540 C   0  0  0  0  0  0  0  0  0  0  0  0
  127.7880  182.1440  172.1780 C   0  0  0  0  0  0  0  0  0  0  0  0
  128.2570  182.1480  170.9290 N   0  0  0  0  0  0  0  0  0  0  0  0
  128.5790  183.3390  170.4140 C   0  0  0  0  0  0  0  0  0  0  0  0
  128.4650  184.5170  171.0300 N   0  0  0  0  0  0  0  0  0  0  0  0
  127.9680  184.5080  172.2790 C   0  0  0  0  0  0  0  0  0  0  0  0
  127.7920  185.7400  172.9490 N   0  0  0  0  0  0  0  0  0  0  0  0
  128.7010  186.5030  173.7050 C   0  0  0  0  0  0  0  0  0  0  0  0
  129.0110  186.2140  175.0400 C   0  0  0  0  0  0  0  0  0  0  0  0
  129.8870  187.0220  175.7730 C   0  0  0  0  0  0  0  0  0  0  0  0
  130.4690  188.1340  175.1720 C   0  0  0  0  0  0  0  0  0  0  0  0
  131.2870  188.9330  175.9250 O   0  0  0  0  0  0  0  0  0  0  0  0
  131.2680  188.5150  177.2960 C   0  0  0  0  0  0  0  0  0  0  0  0
  132.6950  188.3800  177.7620 C   0  0  0  0  0  0  0  0  0  0  0  0
  133.7250  189.0690  177.0990 C   0  0  0  0  0  0  0  0  0  0  0  0
  135.0500  188.9570  177.5280 C   0  0  0  0  0  0  0  0  0  0  0  0
  135.3580  188.1590  178.6280 C   0  0  0  0  0  0  0  0  0  0  0  0
  134.3400  187.4840  179.2900 C   0  0  0  0  0  0  0  0  0  0  0  0
  134.6360  186.7210  180.3510 F   0  0  0  0  0  0  0  0  0  0  0  0
  133.0170  187.5880  178.8710 C   0  0  0  0  0  0  0  0  0  0  0  0
  130.1450  188.4620  173.8550 C   0  0  0  0  0  0  0  0  0  0  0  0
  130.8000  189.8640  173.0890 Cl  0  0  0  0  0  0  0  0  0  0  0  0
  129.2700  187.6510  173.1280 C   0  0  0  0  0  0  0  0  0  0  0  0
  127.6180  183.3100  172.9340 C   0  0  0  0  0  0  0  0  0  0  0  0
  127.1430  183.2090  174.2720 C   0  0  0  0  0  0  0  0  0  0  0  0
  126.9680  182.7400  177.1230 O   0  0  0  0  0  0  0  0  0  0  0  0
  131.2661  185.9244  182.9157 H   0  0  0  0  0  0  0  0  0  0  0  0
  132.3651  185.6658  181.5185 H   0  0  0  0  0  0  0  0  0  0  0  0
  131.2235  187.0526  181.5185 H   0  0  0  0  0  0  0  0  0  0  0  0
  129.7918  186.8479  179.5925 H   0  0  0  0  0  0  0  0  0  0  0  0
  130.6595  185.5119  178.7758 H   0  0  0  0  0  0  0  0  0  0  0  0
  127.6973  185.8274  179.3518 H   0  0  0  0  0  0  0  0  0  0  0  0
  128.5394  185.3530  177.8197 H   0  0  0  0  0  0  0  0  0  0  0  0
  128.8510  183.5350  180.0950 H   0  0  0  0  0  0  0  0  0  0  0  0
  128.6790  183.1910  178.4840 H   0  0  0  0  0  0  0  0  0  0  0  0
  126.8169  182.8114  180.3907 H   0  0  0  0  0  0  0  0  0  0  0  0
  126.2729  184.2875  179.4881 H   0  0  0  0  0  0  0  0  0  0  0  0
  124.8012  181.1597  179.0613 H   0  0  0  0  0  0  0  0  0  0  0  0
  124.7613  180.3749  176.4446 H   0  0  0  0  0  0  0  0  0  0  0  0
  126.7415  179.8405  174.4864 H   0  0  0  0  0  0  0  0  0  0  0  0
  127.5756  180.0068  172.1592 H   0  0  0  0  0  0  0  0  0  0  0  0
  128.9744  183.3486  169.3876 H   0  0  0  0  0  0  0  0  0  0  0  0
  127.0020  186.2620  172.5930 H   0  0  0  0  0  0  0  0  0  0  0  0
  128.5571  185.3351  175.5212 H   0  0  0  0  0  0  0  0  0  0  0  0
  130.1150  186.7790  176.8213 H   0  0  0  0  0  0  0  0  0  0  0  0
  130.7450  189.2649  177.9076 H   0  0  0  0  0  0  0  0  0  0  0  0
  130.7413  187.5544  177.3952 H   0  0  0  0  0  0  0  0  0  0  0  0
  133.4854  189.7034  176.2329 H   0  0  0  0  0  0  0  0  0  0  0  0
  135.8483  189.4976  176.9985 H   0  0  0  0  0  0  0  0  0  0  0  0
  136.3993  188.0642  178.9697 H   0  0  0  0  0  0  0  0  0  0  0  0
  132.2247  187.0484  179.4106 H   0  0  0  0  0  0  0  0  0  0  0  0
  129.0230  187.9149  172.0891 H   0  0  0  0  0  0  0  0  0  0  0  0
  127.0159  184.1260  174.8662 H   0  0  0  0  0  0  0  0  0  0  0  0
  1  2  1  0
  2  3  2  0
  2  4  2  0
  2  5  1  0
  5  6  1  0
  6  7  1  0
  7  8  1  0
  8  9  1  0
  9 10  2  0
 10 11  1  0
 11 12  2  0
 12 13  1  0
 13 14  2  0
 14 15  1  0
 15 16  2  0
 16 17  1  0
 17 18  2  0
 18 19  1  0
 19 20  2  0
 20 21  1  0
 21 22  1  0
 22 23  2  0
 23 24  1  0
 24 25  2  0
 25 26  1  0
 26 27  1  0
 27 28  1  0
 28 29  2  0
 29 30  1  0
 30 31  2  0
 31 32  1  0
 32 33  1  0
 32 34  2  0
 25 35  1  0
 35 36  1  0
 35 37  2  0
 20 38  1  0
 38 39  2  0
 12 40  1  0
 40  9  1  0
 39 13  1  0
 38 16  1  0
 37 22  1  0
 34 28  1  0
  1 41  1  0
  1 42  1  0
  1 43  1  0
  5 44  1  0
  5 45  1  0
  6 46  1  0
  6 47  1  0
  7 48  1  0
  7 49  1  0
  8 50  1  0
  8 51  1  0
 10 52  1  0
 11 53  1  0
 14 54  1  0
 15 55  1  0
 18 56  1  0
 21 57  1  0
 23 58  1  0
 24 59  1  0
 27 60  1  0
 27 61  1  0
 29 62  1  0
 30 63  1  0
 31 64  1  0
 34 65  1  0
 37 66  1  0
 39 67  1  0
M  CHG  1   7   1
M  END
>  <meeko>  (7) 
{"is_sidechain": [false], "free_energy": -6.948, "intermolecular_energy": -10.795, "internal_energy": -2.721}

$$$$
REF_CHEMBL554__W_7USX_LOCAL_COMPLETE__e8__s20260927
     RDKit          3D

 67 71  0  0  0  0  0  0  0  0999 V2000
  125.7850  164.7190  180.2710 C   0  0  0  0  0  0  0  0  0  0  0  0
  127.4680  165.1580  180.6410 S   0  0  0  0  0  0  0  0  0  0  0  0
  128.2460  165.2060  179.4120 O   0  0  0  0  0  0  0  0  0  0  0  0
  127.4910  166.2740  181.5610 O   0  0  0  0  0  0  0  0  0  0  0  0
  128.1200  163.7630  181.5180 C   0  0  0  0  0  0  0  0  0  0  0  0
  126.9590  162.9140  182.0160 C   0  0  0  0  0  0  0  0  0  0  0  0
  127.0280  162.7070  183.5060 N   0  0  0  0  0  0  0  0  0  0  0  0
  125.8040  163.1190  184.2640 C   0  0  0  0  0  0  0  0  0  0  0  0
  125.6280  164.5890  184.2670 C   0  0  0  0  0  0  0  0  0  0  0  0
  126.4040  165.6440  184.6940 C   0  0  0  0  0  0  0  0  0  0  0  0
  125.6750  166.8200  184.3870 C   0  0  0  0  0  0  0  0  0  0  0  0
  124.4910  166.4190  183.7990 C   0  0  0  0  0  0  0  0  0  0  0  0
  123.3380  167.1180  183.2450 C   0  0  0  0  0  0  0  0  0  0  0  0
  122.0930  167.0820  183.8760 C   0  0  0  0  0  0  0  0  0  0  0  0
  120.9910  167.7360  183.3140 C   0  0  0  0  0  0  0  0  0  0  0  0
  121.0830  168.4430  182.1240 C   0  0  0  0  0  0  0  0  0  0  0  0
  119.9790  169.0150  181.6420 N   0  0  0  0  0  0  0  0  0  0  0  0
  120.1020  169.6710  180.4830 C   0  0  0  0  0  0  0  0  0  0  0  0
  121.2250  169.8120  179.7760 N   0  0  0  0  0  0  0  0  0  0  0  0
  122.3390  169.2540  180.2810 C   0  0  0  0  0  0  0  0  0  0  0  0
  123.5570  169.4180  179.5830 N   0  0  0  0  0  0  0  0  0  0  0  0
  124.1910  168.5760  178.6510 C   0  0  0  0  0  0  0  0  0  0  0  0
  125.5320  168.1870  178.7650 C   0  0  0  0  0  0  0  0  0  0  0  0
  126.1400  167.3850  177.7940 C   0  0  0  0  0  0  0  0  0  0  0  0
  125.4070  166.9570  176.6900 C   0  0  0  0  0  0  0  0  0  0  0  0
  126.0390  166.2110  175.7320 O   0  0  0  0  0  0  0  0  0  0  0  0
  125.7140  164.8240  175.8850 C   0  0  0  0  0  0  0  0  0  0  0  0
  126.9630  164.0950  176.3100 C   0  0  0  0  0  0  0  0  0  0  0  0
  126.8710  162.9170  177.0700 C   0  0  0  0  0  0  0  0  0  0  0  0
  128.0230  162.2300  177.4620 C   0  0  0  0  0  0  0  0  0  0  0  0
  129.2770  162.7110  177.0930 C   0  0  0  0  0  0  0  0  0  0  0  0
  129.3700  163.8710  176.3340 C   0  0  0  0  0  0  0  0  0  0  0  0
  130.5760  164.3310  175.9750 F   0  0  0  0  0  0  0  0  0  0  0  0
  128.2300  164.5640  175.9390 C   0  0  0  0  0  0  0  0  0  0  0  0
  124.0810  167.3640  176.5370 C   0  0  0  0  0  0  0  0  0  0  0  0
  123.1510  166.9040  175.1570 Cl  0  0  0  0  0  0  0  0  0  0  0  0
  123.4790  168.1650  177.5120 C   0  0  0  0  0  0  0  0  0  0  0  0
  122.3250  168.5170  181.4820 C   0  0  0  0  0  0  0  0  0  0  0  0
  123.4440  167.8460  182.0520 C   0  0  0  0  0  0  0  0  0  0  0  0
  124.4640  165.0530  183.7240 O   0  0  0  0  0  0  0  0  0  0  0  0
  125.2292  164.5740  181.2091 H   0  0  0  0  0  0  0  0  0  0  0  0
  125.3157  165.5248  179.6875 H   0  0  0  0  0  0  0  0  0  0  0  0
  125.7691  163.7866  179.6875 H   0  0  0  0  0  0  0  0  0  0  0  0
  128.7535  163.1660  180.8455 H   0  0  0  0  0  0  0  0  0  0  0  0
  128.7264  164.1054  182.3695 H   0  0  0  0  0  0  0  0  0  0  0  0
  126.0140  163.4197  181.7685 H   0  0  0  0  0  0  0  0  0  0  0  0
  127.0154  161.9302  181.5272 H   0  0  0  0  0  0  0  0  0  0  0  0
  127.8400  163.2270  183.8990 H   0  0  0  0  0  0  0  0  0  0  0  0
  127.1860  161.7140  183.7270 H   0  0  0  0  0  0  0  0  0  0  0  0
  124.9228  162.6558  183.7962 H   0  0  0  0  0  0  0  0  0  0  0  0
  125.9191  162.7863  185.3062 H   0  0  0  0  0  0  0  0  0  0  0  0
  127.3909  165.5855  185.1762 H   0  0  0  0  0  0  0  0  0  0  0  0
  125.9918  167.8555  184.5802 H   0  0  0  0  0  0  0  0  0  0  0  0
  121.9775  166.5348  184.8232 H   0  0  0  0  0  0  0  0  0  0  0  0
  120.0217  167.6880  183.8318 H   0  0  0  0  0  0  0  0  0  0  0  0
  119.1933  170.1375  180.0747 H   0  0  0  0  0  0  0  0  0  0  0  0
  123.8490  170.3850  179.5420 H   0  0  0  0  0  0  0  0  0  0  0  0
  126.1179  168.5187  179.6349 H   0  0  0  0  0  0  0  0  0  0  0  0
  127.1950  167.0929  177.9021 H   0  0  0  0  0  0  0  0  0  0  0  0
  124.9342  164.7061  176.6518 H   0  0  0  0  0  0  0  0  0  0  0  0
  125.3372  164.4138  174.9365 H   0  0  0  0  0  0  0  0  0  0  0  0
  125.8822  162.5316  177.3594 H   0  0  0  0  0  0  0  0  0  0  0  0
  127.9396  161.3111  178.0609 H   0  0  0  0  0  0  0  0  0  0  0  0
  130.1876  162.1760  177.4005 H   0  0  0  0  0  0  0  0  0  0  0  0
  128.3234  165.4792  175.3360 H   0  0  0  0  0  0  0  0  0  0  0  0
  122.4321  168.4780  177.3853 H   0  0  0  0  0  0  0  0  0  0  0  0
  124.4174  167.9004  181.5426 H   0  0  0  0  0  0  0  0  0  0  0  0
  1  2  1  0
  2  3  2  0
  2  4  2  0
  2  5  1  0
  5  6  1  0
  6  7  1  0
  7  8  1  0
  8  9  1  0
  9 10  2  0
 10 11  1  0
 11 12  2  0
 12 13  1  0
 13 14  2  0
 14 15  1  0
 15 16  2  0
 16 17  1  0
 17 18  2  0
 18 19  1  0
 19 20  2  0
 20 21  1  0
 21 22  1  0
 22 23  2  0
 23 24  1  0
 24 25  2  0
 25 26  1  0
 26 27  1  0
 27 28  1  0
 28 29  2  0
 29 30  1  0
 30 31  2  0
 31 32  1  0
 32 33  1  0
 32 34  2  0
 25 35  1  0
 35 36  1  0
 35 37  2  0
 20 38  1  0
 38 39  2  0
 12 40  1  0
 40  9  1  0
 39 13  1  0
 38 16  1  0
 37 22  1  0
 34 28  1  0
  1 41  1  0
  1 42  1  0
  1 43  1  0
  5 44  1  0
  5 45  1  0
  6 46  1  0
  6 47  1  0
  7 48  1  0
  7 49  1  0
  8 50  1  0
  8 51  1  0
 10 52  1  0
 11 53  1  0
 14 54  1  0
 15 55  1  0
 18 56  1  0
 21 57  1  0
 23 58  1  0
 24 59  1  0
 27 60  1  0
 27 61  1  0
 29 62  1  0
 30 63  1  0
 31 64  1  0
 34 65  1  0
 37 66  1  0
 39 67  1  0
M  CHG  1   7   1
M  END
>  <meeko>  (8) 
{"is_sidechain": [false], "free_energy": -6.869, "intermolecular_energy": -10.454, "internal_energy": -2.934}

$$$$
REF_CHEMBL554__W_7USX_LOCAL_COMPLETE__e8__s20260927
     RDKit          3D

 67 71  0  0  0  0  0  0  0  0999 V2000
  129.4370  165.2460  177.2090 C   0  0  0  0  0  0  0  0  0  0  0  0
  128.8800  165.3310  178.8950 S   0  0  0  0  0  0  0  0  0  0  0  0
  130.0020  165.6420  179.7680 O   0  0  0  0  0  0  0  0  0  0  0  0
  127.6630  166.1080  178.9700 O   0  0  0  0  0  0  0  0  0  0  0  0
  128.4480  163.6660  179.3160 C   0  0  0  0  0  0  0  0  0  0  0  0
  127.4030  163.6980  180.4230 C   0  0  0  0  0  0  0  0  0  0  0  0
  127.9770  164.2380  181.7060 N   0  0  0  0  0  0  0  0  0  0  0  0
  127.1570  163.9760  182.9310 C   0  0  0  0  0  0  0  0  0  0  0  0
  126.4770  165.2020  183.4100 C   0  0  0  0  0  0  0  0  0  0  0  0
  126.8130  166.1940  184.3040 C   0  0  0  0  0  0  0  0  0  0  0  0
  125.7340  167.1140  184.2980 C   0  0  0  0  0  0  0  0  0  0  0  0
  124.7960  166.6290  183.4080 C   0  0  0  0  0  0  0  0  0  0  0  0
  123.4990  167.0970  182.9350 C   0  0  0  0  0  0  0  0  0  0  0  0
  122.3340  166.8840  183.6740 C   0  0  0  0  0  0  0  0  0  0  0  0
  121.0950  167.3170  183.1890 C   0  0  0  0  0  0  0  0  0  0  0  0
  120.9670  167.9700  181.9720 C   0  0  0  0  0  0  0  0  0  0  0  0
  119.7470  168.3260  181.5690 N   0  0  0  0  0  0  0  0  0  0  0  0
  119.6620  168.9360  180.3830 C   0  0  0  0  0  0  0  0  0  0  0  0
  120.6830  169.2280  179.5750 N   0  0  0  0  0  0  0  0  0  0  0  0
  121.9130  168.8890  179.9990 C   0  0  0  0  0  0  0  0  0  0  0  0
  123.0250  169.2200  179.1910 N   0  0  0  0  0  0  0  0  0  0  0  0
  123.3240  168.8590  177.8640 C   0  0  0  0  0  0  0  0  0  0  0  0
  122.6370  169.3800  176.7610 C   0  0  0  0  0  0  0  0  0  0  0  0
  122.9330  168.9630  175.4590 C   0  0  0  0  0  0  0  0  0  0  0  0
  123.9310  168.0160  175.2450 C   0  0  0  0  0  0  0  0  0  0  0  0
  124.1700  167.5930  173.9650 O   0  0  0  0  0  0  0  0  0  0  0  0
  122.9490  167.1790  173.3400 C   0  0  0  0  0  0  0  0  0  0  0  0
  122.8310  167.9000  172.0210 C   0  0  0  0  0  0  0  0  0  0  0  0
  121.9980  169.0250  171.9020 C   0  0  0  0  0  0  0  0  0  0  0  0
  121.8880  169.7050  170.6860 C   0  0  0  0  0  0  0  0  0  0  0  0
  122.6130  169.2690  169.5790 C   0  0  0  0  0  0  0  0  0  0  0  0
  123.4430  168.1620  169.6980 C   0  0  0  0  0  0  0  0  0  0  0  0
  124.1450  167.7460  168.6350 F   0  0  0  0  0  0  0  0  0  0  0  0
  123.5610  167.4770  170.9030 C   0  0  0  0  0  0  0  0  0  0  0  0
  124.6020  167.4570  176.3320 C   0  0  0  0  0  0  0  0  0  0  0  0
  125.8070  166.2390  176.1180 Cl  0  0  0  0  0  0  0  0  0  0  0  0
  124.3010  167.8780  177.6310 C   0  0  0  0  0  0  0  0  0  0  0  0
  122.1230  168.2190  181.2210 C   0  0  0  0  0  0  0  0  0  0  0  0
  123.3830  167.7740  181.7130 C   0  0  0  0  0  0  0  0  0  0  0  0
  125.2520  165.4590  182.8630 O   0  0  0  0  0  0  0  0  0  0  0  0
  130.5242  165.0801  177.1900 H   0  0  0  0  0  0  0  0  0  0  0  0
  128.9302  164.4148  176.6969 H   0  0  0  0  0  0  0  0  0  0  0  0
  129.2012  166.1905  176.6969 H   0  0  0  0  0  0  0  0  0  0  0  0
  128.0361  163.1558  178.4328 H   0  0  0  0  0  0  0  0  0  0  0  0
  129.3407  163.1223  179.6588 H   0  0  0  0  0  0  0  0  0  0  0  0
  126.5669  164.3393  180.1073 H   0  0  0  0  0  0  0  0  0  0  0  0
  127.0593  162.6689  180.6040 H   0  0  0  0  0  0  0  0  0  0  0  0
  128.1170  165.2670  181.6270 H   0  0  0  0  0  0  0  0  0  0  0  0
  128.9060  163.8330  181.8870 H   0  0  0  0  0  0  0  0  0  0  0  0
  126.3972  163.2163  182.6952 H   0  0  0  0  0  0  0  0  0  0  0  0
  127.8319  163.6263  183.7261 H   0  0  0  0  0  0  0  0  0  0  0  0
  127.7336  166.2596  184.9026 H   0  0  0  0  0  0  0  0  0  0  0  0
  125.6585  168.0382  184.8897 H   0  0  0  0  0  0  0  0  0  0  0  0
  122.3905  166.3715  184.6457 H   0  0  0  0  0  0  0  0  0  0  0  0
  120.1936  167.1337  183.7922 H   0  0  0  0  0  0  0  0  0  0  0  0
  118.6570  169.2242  180.0411 H   0  0  0  0  0  0  0  0  0  0  0  0
  123.5070  170.0450  179.5200 H   0  0  0  0  0  0  0  0  0  0  0  0
  121.8497  170.1314  176.9212 H   0  0  0  0  0  0  0  0  0  0  0  0
  122.3787  169.3822  174.6063 H   0  0  0  0  0  0  0  0  0  0  0  0
  122.9664  166.0922  173.1708 H   0  0  0  0  0  0  0  0  0  0  0  0
  122.0903  167.4191  173.9841 H   0  0  0  0  0  0  0  0  0  0  0  0
  121.4266  169.3741  172.7747 H   0  0  0  0  0  0  0  0  0  0  0  0
  121.2303  170.5828  170.6031 H   0  0  0  0  0  0  0  0  0  0  0  0
  122.5286  169.7976  168.6180 H   0  0  0  0  0  0  0  0  0  0  0  0
  124.2266  166.6044  170.9777 H   0  0  0  0  0  0  0  0  0  0  0  0
  124.8374  167.4342  178.4826 H   0  0  0  0  0  0  0  0  0  0  0  0
  124.2886  167.9664  181.1189 H   0  0  0  0  0  0  0  0  0  0  0  0
  1  2  1  0
  2  3  2  0
  2  4  2  0
  2  5  1  0
  5  6  1  0
  6  7  1  0
  7  8  1  0
  8  9  1  0
  9 10  2  0
 10 11  1  0
 11 12  2  0
 12 13  1  0
 13 14  2  0
 14 15  1  0
 15 16  2  0
 16 17  1  0
 17 18  2  0
 18 19  1  0
 19 20  2  0
 20 21  1  0
 21 22  1  0
 22 23  2  0
 23 24  1  0
 24 25  2  0
 25 26  1  0
 26 27  1  0
 27 28  1  0
 28 29  2  0
 29 30  1  0
 30 31  2  0
 31 32  1  0
 32 33  1  0
 32 34  2  0
 25 35  1  0
 35 36  1  0
 35 37  2  0
 20 38  1  0
 38 39  2  0
 12 40  1  0
 40  9  1  0
 39 13  1  0
 38 16  1  0
 37 22  1  0
 34 28  1  0
  1 41  1  0
  1 42  1  0
  1 43  1  0
  5 44  1  0
  5 45  1  0
  6 46  1  0
  6 47  1  0
  7 48  1  0
  7 49  1  0
  8 50  1  0
  8 51  1  0
 10 52  1  0
 11 53  1  0
 14 54  1  0
 15 55  1  0
 18 56  1  0
 21 57  1  0
 23 58  1  0
 24 59  1  0
 27 60  1  0
 27 61  1  0
 29 62  1  0
 30 63  1  0
 31 64  1  0
 34 65  1  0
 37 66  1  0
 39 67  1  0
M  CHG  1   7   1
M  END
>  <meeko>  (9) 
{"is_sidechain": [false], "free_energy": -6.824, "intermolecular_energy": -11.143, "internal_energy": -2.172}

$$$$
