ZINC24739924
     RDKit          2D

 26 28  0  0  0  0  0  0  0  0999 V2000
   -1.2990    3.7752    0.0000 C   0  0  0  0  0  0  0  0  0  0  0  0
   -0.4715    2.5241    0.0000 N   0  0  0  0  0  0  0  0  0  0  0  0
   -1.1412    1.1820    0.0000 C   0  0  0  0  0  0  0  0  0  0  0  0
   -2.6384    1.0909    0.0000 C   0  0  0  0  0  0  0  0  0  0  0  0
   -3.4659    2.3420    0.0000 C   0  0  0  0  0  0  0  0  0  0  0  0
   -4.9632    2.2509    0.0000 C   0  0  0  0  0  0  0  0  0  0  0  0
   -5.6329    0.9087    0.0000 C   0  0  0  0  0  0  0  0  0  0  0  0
   -4.8054   -0.3424    0.0000 C   0  0  0  0  0  0  0  0  0  0  0  0
   -3.3082   -0.2513    0.0000 C   0  0  0  0  0  0  0  0  0  0  0  0
   -2.4806   -1.5024    0.0000 O   0  0  0  0  0  0  0  0  0  0  0  0
   -3.1504   -2.8446    0.0000 C   0  0  0  0  0  0  0  0  0  0  0  0
   -3.8201   -4.1868    0.0000 F   0  0  0  0  0  0  0  0  0  0  0  0
   -1.8082   -3.5143    0.0000 F   0  0  0  0  0  0  0  0  0  0  0  0
   -4.4926   -2.1749    0.0000 F   0  0  0  0  0  0  0  0  0  0  0  0
    1.0258    2.6152    0.0000 C   0  0  0  0  0  0  0  0  0  0  0  0
    1.8533    1.3641    0.0000 N   0  0  0  0  0  0  0  0  0  0  0  0
    1.1835    0.0220    0.0000 N   0  0  0  0  0  0  0  0  0  0  0  0
    2.0110   -1.2291    0.0000 N   0  0  0  0  0  0  0  0  0  0  0  0
    3.5083   -1.1381    0.0000 C   0  0  0  0  0  0  0  0  0  0  0  0
    4.3358   -2.3892    0.0000 C   0  0  0  0  0  0  0  0  0  0  0  0
    5.8330   -2.2981    0.0000 C   0  0  0  0  0  0  0  0  0  0  0  0
    6.5027   -0.9559    0.0000 C   0  0  0  0  0  0  0  0  0  0  0  0
    5.6752    0.2952    0.0000 C   0  0  0  0  0  0  0  0  0  0  0  0
    4.1780    0.2041    0.0000 C   0  0  0  0  0  0  0  0  0  0  0  0
    3.3505    1.4552    0.0000 C   0  0  0  0  0  0  0  0  0  0  0  0
    4.0202    2.7974    0.0000 O   0  0  0  0  0  0  0  0  0  0  0  0
  1  2  1  0
  2  3  1  0
  3  4  1  0
  4  5  2  0
  5  6  1  0
  6  7  2  0
  7  8  1  0
  8  9  2  0
  9 10  1  0
 10 11  1  0
 11 12  1  0
 11 13  1  0
 11 14  1  0
  2 15  1  0
 15 16  1  0
 16 17  1  0
 17 18  2  0
 18 19  1  0
 19 20  2  0
 20 21  1  0
 21 22  2  0
 22 23  1  0
 23 24  2  0
 24 25  1  0
 25 26  2  0
  9  4  1  0
 25 16  1  0
 24 19  1  0
M  END
>  <paper_id>  (1) 
ZINC24739924

>  <database_id>  (1) 
ZINC000024739924

>  <status>  (1) 
EXACT_DATABASE_ID_AND_RECOMPUTED_INCHIKEY_MATCH

>  <smiles>  (1) 
CN(Cc1ccccc1OC(F)(F)F)Cn1nnc2ccccc2c1=O

>  <canonical_isomeric_smiles>  (1) 
CN(Cc1ccccc1OC(F)(F)F)Cn1nnc2ccccc2c1=O

>  <inchikey>  (1) 
FNELXQNHUFREHZ-UHFFFAOYSA-N

>  <formula>  (1) 
C17H15F3N4O2

>  <source_response_sha256>  (1) 
0108c8f4a6e3340088f6450746177a7b56857abd216bc356b2bdbeb29d23241c

>  <source_endpoint>  (1) 
https://cartblanche22.docking.org/substances.json

>  <source_result_url>  (1) 
https://cartblanche22.docking.org/search/result/e6b57f52-d6bf-4048-89c9-dc67b58ee28a

>  <molecular_scope>  (1) 
database_identity_not_article_salt_or_batch_equivalence

>  <coordinate_scope>  (1) 
2D primary-identity depiction; not docking-prepared

$$$$
ZINC58438263
     RDKit          2D

 32 35  0  0  0  0  0  0  0  0999 V2000
   -7.4301   -2.3767    0.0000 C   0  0  0  0  0  0  0  0  0  0  0  0
   -6.7844   -1.0228    0.0000 C   0  0  0  0  0  0  0  0  0  0  0  0
   -7.6340    0.2134    0.0000 C   0  0  0  0  0  0  0  0  0  0  0  0
   -6.9883    1.5673    0.0000 C   0  0  0  0  0  0  0  0  0  0  0  0
   -5.4929    1.6850    0.0000 C   0  0  0  0  0  0  0  0  0  0  0  0
   -4.6433    0.4489    0.0000 C   0  0  0  0  0  0  0  0  0  0  0  0
   -3.1479    0.5666    0.0000 O   0  0  0  0  0  0  0  0  0  0  0  0
   -2.5022    1.9205    0.0000 C   0  0  0  0  0  0  0  0  0  0  0  0
   -1.0068    2.0382    0.0000 C   0  0  0  0  0  0  0  0  0  0  0  0
   -0.3611    3.3921    0.0000 N   0  0  0  0  0  0  0  0  0  0  0  0
   -1.2107    4.6283    0.0000 C   0  0  0  0  0  0  0  0  0  0  0  0
    1.1343    3.5098    0.0000 C   0  0  0  0  0  0  0  0  0  0  0  0
    1.9839    2.2737    0.0000 N   0  0  0  0  0  0  0  0  0  0  0  0
    1.3382    0.9198    0.0000 N   0  0  0  0  0  0  0  0  0  0  0  0
    2.1878   -0.3164    0.0000 C   0  0  0  0  0  0  0  0  0  0  0  0
    1.5421   -1.6703    0.0000 C   0  0  0  0  0  0  0  0  0  0  0  0
    0.0467   -1.7880    0.0000 C   0  0  0  0  0  0  0  0  0  0  0  0
   -0.5990   -3.1419    0.0000 C   0  0  0  0  0  0  0  0  0  0  0  0
   -2.0944   -3.2596    0.0000 C   0  0  0  0  0  0  0  0  0  0  0  0
    0.2506   -4.3781    0.0000 C   0  0  0  0  0  0  0  0  0  0  0  0
    1.7460   -4.2604    0.0000 C   0  0  0  0  0  0  0  0  0  0  0  0
    2.3917   -2.9065    0.0000 C   0  0  0  0  0  0  0  0  0  0  0  0
    3.8871   -2.7887    0.0000 C   0  0  0  0  0  0  0  0  0  0  0  0
    3.6832   -0.1987    0.0000 C   0  0  0  0  0  0  0  0  0  0  0  0
    4.5328   -1.4348    0.0000 C   0  0  0  0  0  0  0  0  0  0  0  0
    6.0282   -1.3171    0.0000 C   0  0  0  0  0  0  0  0  0  0  0  0
    6.6740    0.0368    0.0000 C   0  0  0  0  0  0  0  0  0  0  0  0
    5.8243    1.2729    0.0000 C   0  0  0  0  0  0  0  0  0  0  0  0
    4.3289    1.1552    0.0000 C   0  0  0  0  0  0  0  0  0  0  0  0
    3.4793    2.3914    0.0000 C   0  0  0  0  0  0  0  0  0  0  0  0
    4.1250    3.7453    0.0000 O   0  0  0  0  0  0  0  0  0  0  0  0
   -5.2890   -0.9050    0.0000 C   0  0  0  0  0  0  0  0  0  0  0  0
  1  2  1  0
  2  3  2  0
  3  4  1  0
  4  5  2  0
  5  6  1  0
  6  7  1  0
  7  8  1  0
  8  9  1  0
  9 10  1  0
 10 11  1  0
 10 12  1  0
 12 13  1  0
 13 14  1  0
 14 15  2  0
 15 16  1  0
 16 17  2  0
 17 18  1  0
 18 19  1  0
 18 20  2  0
 20 21  1  0
 21 22  2  0
 22 23  1  0
 15 24  1  0
 24 25  2  0
 25 26  1  0
 26 27  2  0
 27 28  1  0
 28 29  2  0
 29 30  1  0
 30 31  2  0
  6 32  2  0
 32  2  1  0
 30 13  1  0
 22 16  1  0
 29 24  1  0
M  END
>  <paper_id>  (2) 
ZINC58438263

>  <database_id>  (2) 
ZINC000058438263

>  <status>  (2) 
EXACT_DATABASE_ID_AND_RECOMPUTED_INCHIKEY_MATCH

>  <smiles>  (2) 
Cc1cccc(OCCN(C)Cn2nc(-c3cc(C)ccc3C)c3ccccc3c2=O)c1

>  <canonical_isomeric_smiles>  (2) 
Cc1cccc(OCCN(C)Cn2nc(-c3cc(C)ccc3C)c3ccccc3c2=O)c1

>  <inchikey>  (2) 
XRYFBNVEQXAODN-UHFFFAOYSA-N

>  <formula>  (2) 
C27H29N3O2

>  <source_response_sha256>  (2) 
0108c8f4a6e3340088f6450746177a7b56857abd216bc356b2bdbeb29d23241c

>  <source_endpoint>  (2) 
https://cartblanche22.docking.org/substances.json

>  <source_result_url>  (2) 
https://cartblanche22.docking.org/search/result/e6b57f52-d6bf-4048-89c9-dc67b58ee28a

>  <molecular_scope>  (2) 
database_identity_not_article_salt_or_batch_equivalence

>  <coordinate_scope>  (2) 
2D primary-identity depiction; not docking-prepared

$$$$
ZINC12986242
     RDKit          2D

 29 32  0  0  0  0  0  0  0  0999 V2000
    6.4669    2.6285    0.0000 C   0  0  0  0  0  0  0  0  0  0  0  0
    5.1927    1.8369    0.0000 O   0  0  0  0  0  0  0  0  0  0  0  0
    5.2412    0.3377    0.0000 C   0  0  0  0  0  0  0  0  0  0  0  0
    6.5638   -0.3699    0.0000 C   0  0  0  0  0  0  0  0  0  0  0  0
    6.6123   -1.8691    0.0000 C   0  0  0  0  0  0  0  0  0  0  0  0
    5.3382   -2.6607    0.0000 C   0  0  0  0  0  0  0  0  0  0  0  0
    5.3867   -4.1599    0.0000 Cl  0  0  0  0  0  0  0  0  0  0  0  0
    4.0156   -1.9531    0.0000 C   0  0  0  0  0  0  0  0  0  0  0  0
    3.9671   -0.4539    0.0000 C   0  0  0  0  0  0  0  0  0  0  0  0
    2.6445    0.2537    0.0000 C   0  0  0  0  0  0  0  0  0  0  0  0
    2.5960    1.7529    0.0000 N   0  0  0  0  0  0  0  0  0  0  0  0
    3.8701    2.5445    0.0000 C   0  0  0  0  0  0  0  0  0  0  0  0
    1.2734    2.4605    0.0000 C   0  0  0  0  0  0  0  0  0  0  0  0
   -0.0007    1.6689    0.0000 C   0  0  0  0  0  0  0  0  0  0  0  0
    0.0478    0.1697    0.0000 N   0  0  0  0  0  0  0  0  0  0  0  0
   -1.2263   -0.6219    0.0000 C   0  0  0  0  0  0  0  0  0  0  0  0
   -1.4906   -2.0984    0.0000 S   0  0  0  0  0  0  0  0  0  0  0  0
   -2.9765   -2.3033    0.0000 C   0  0  0  0  0  0  0  0  0  0  0  0
   -3.6306   -0.9535    0.0000 C   0  0  0  0  0  0  0  0  0  0  0  0
   -5.1071   -0.6892    0.0000 C   0  0  0  0  0  0  0  0  0  0  0  0
   -5.6165    0.7217    0.0000 C   0  0  0  0  0  0  0  0  0  0  0  0
   -7.0931    0.9859    0.0000 C   0  0  0  0  0  0  0  0  0  0  0  0
   -8.0602   -0.1606    0.0000 C   0  0  0  0  0  0  0  0  0  0  0  0
   -7.5508   -1.5715    0.0000 C   0  0  0  0  0  0  0  0  0  0  0  0
   -6.0743   -1.8358    0.0000 C   0  0  0  0  0  0  0  0  0  0  0  0
   -2.5489    0.0857    0.0000 C   0  0  0  0  0  0  0  0  0  0  0  0
   -2.5974    1.5850    0.0000 C   0  0  0  0  0  0  0  0  0  0  0  0
   -3.9200    2.2926    0.0000 O   0  0  0  0  0  0  0  0  0  0  0  0
   -1.3233    2.3766    0.0000 N   0  0  0  0  0  0  0  0  0  0  0  0
  1  2  1  0
  2  3  1  0
  3  4  2  0
  4  5  1  0
  5  6  2  0
  6  7  1  0
  6  8  1  0
  8  9  2  0
  9 10  1  0
 10 11  1  0
 11 12  1  0
 11 13  1  0
 13 14  1  0
 14 15  2  0
 15 16  1  0
 16 17  1  0
 17 18  1  0
 18 19  2  0
 19 20  1  0
 20 21  2  0
 21 22  1  0
 22 23  2  0
 23 24  1  0
 24 25  2  0
 19 26  1  0
 26 27  1  0
 27 28  2  0
 27 29  1  0
  9  3  1  0
 29 14  1  0
 26 16  2  0
 25 20  1  0
M  END
>  <paper_id>  (3) 
ZINC12986242

>  <database_id>  (3) 
ZINC000012986242

>  <status>  (3) 
EXACT_DATABASE_ID_AND_RECOMPUTED_INCHIKEY_MATCH

>  <smiles>  (3) 
COc1ccc(Cl)cc1CN(C)Cc1nc2scc(-c3ccccc3)c2c(=O)[nH]1

>  <canonical_isomeric_smiles>  (3) 
COc1ccc(Cl)cc1CN(C)Cc1nc2scc(-c3ccccc3)c2c(=O)[nH]1

>  <inchikey>  (3) 
UXASLFCISHUCQI-UHFFFAOYSA-N

>  <formula>  (3) 
C22H20ClN3O2S

>  <source_response_sha256>  (3) 
0108c8f4a6e3340088f6450746177a7b56857abd216bc356b2bdbeb29d23241c

>  <source_endpoint>  (3) 
https://cartblanche22.docking.org/substances.json

>  <source_result_url>  (3) 
https://cartblanche22.docking.org/search/result/e6b57f52-d6bf-4048-89c9-dc67b58ee28a

>  <molecular_scope>  (3) 
database_identity_not_article_salt_or_batch_equivalence

>  <coordinate_scope>  (3) 
2D primary-identity depiction; not docking-prepared

$$$$
