REF_DENATONIUM_GTOP12433__W_7USX_LOCAL_COMPLETE__e8__s20260927
     RDKit          3D

 53 54  0  0  0  0  0  0  0  0999 V2000
  129.8440  187.6760  160.7800 C   0  0  0  0  0  0  0  0  0  0  0  0
  130.8330  186.5880  161.1630 C   0  0  0  0  0  0  0  0  0  0  0  0
  131.0800  186.4760  162.6890 N   0  0  0  0  0  0  0  0  0  0  0  0
  130.2880  187.5240  163.4930 C   0  0  0  0  0  0  0  0  0  0  0  0
  131.1260  188.3480  164.4570 C   0  0  0  0  0  0  0  0  0  0  0  0
  130.6230  185.0610  163.2230 C   0  0  0  0  0  0  0  0  0  0  0  0
  131.4980  183.8490  162.8620 C   0  0  0  0  0  0  0  0  0  0  0  0
  131.5940  183.4620  161.7020 O   0  0  0  0  0  0  0  0  0  0  0  0
  132.0820  183.2550  163.9690 N   0  0  0  0  0  0  0  0  0  0  0  0
  132.9910  182.1640  163.9710 C   0  0  0  0  0  0  0  0  0  0  0  0
  132.6010  180.8070  163.9430 C   0  0  0  0  0  0  0  0  0  0  0  0
  131.1870  180.3190  163.7750 C   0  0  0  0  0  0  0  0  0  0  0  0
  133.5900  179.8070  164.0130 C   0  0  0  0  0  0  0  0  0  0  0  0
  134.9420  180.1280  164.0390 C   0  0  0  0  0  0  0  0  0  0  0  0
  135.3320  181.4590  163.9880 C   0  0  0  0  0  0  0  0  0  0  0  0
  134.3740  182.4860  163.9510 C   0  0  0  0  0  0  0  0  0  0  0  0
  134.8800  183.9060  163.9280 C   0  0  0  0  0  0  0  0  0  0  0  0
  132.6260  186.6450  162.8950 C   0  0  0  0  0  0  0  0  0  0  0  0
  133.3870  187.4190  161.8460 C   0  0  0  0  0  0  0  0  0  0  0  0
  133.9070  186.7600  160.7210 C   0  0  0  0  0  0  0  0  0  0  0  0
  134.6270  187.4590  159.7500 C   0  0  0  0  0  0  0  0  0  0  0  0
  134.8230  188.8300  159.8830 C   0  0  0  0  0  0  0  0  0  0  0  0
  134.2900  189.5060  160.9770 C   0  0  0  0  0  0  0  0  0  0  0  0
  133.5700  188.8070  161.9500 C   0  0  0  0  0  0  0  0  0  0  0  0
  129.4295  188.1320  161.6912 H   0  0  0  0  0  0  0  0  0  0  0  0
  130.3578  188.4460  160.1858 H   0  0  0  0  0  0  0  0  0  0  0  0
  129.0286  187.2377  160.1858 H   0  0  0  0  0  0  0  0  0  0  0  0
  130.4446  185.6239  160.8029 H   0  0  0  0  0  0  0  0  0  0  0  0
  131.7956  186.8531  160.7013 H   0  0  0  0  0  0  0  0  0  0  0  0
  129.8084  188.2118  162.7811 H   0  0  0  0  0  0  0  0  0  0  0  0
  129.5659  186.9655  164.1067 H   0  0  0  0  0  0  0  0  0  0  0  0
  130.8592  188.0856  165.4914 H   0  0  0  0  0  0  0  0  0  0  0  0
  132.1924  188.1369  164.2886 H   0  0  0  0  0  0  0  0  0  0  0  0
  130.9329  189.4178  164.2886 H   0  0  0  0  0  0  0  0  0  0  0  0
  130.5802  185.1212  164.3205 H   0  0  0  0  0  0  0  0  0  0  0  0
  129.6613  184.8706  162.7242 H   0  0  0  0  0  0  0  0  0  0  0  0
  131.7070  183.4890  164.8790 H   0  0  0  0  0  0  0  0  0  0  0  0
  130.7331  180.1624  164.7647 H   0  0  0  0  0  0  0  0  0  0  0  0
  130.6043  181.0680  163.2188 H   0  0  0  0  0  0  0  0  0  0  0  0
  131.1903  179.3700  163.2188 H   0  0  0  0  0  0  0  0  0  0  0  0
  133.2863  178.7503  164.0478 H   0  0  0  0  0  0  0  0  0  0  0  0
  135.6986  179.3318  164.0996 H   0  0  0  0  0  0  0  0  0  0  0  0
  136.4023  181.7125  163.9764 H   0  0  0  0  0  0  0  0  0  0  0  0
  135.0084  184.2663  164.9594 H   0  0  0  0  0  0  0  0  0  0  0  0
  135.8464  183.9424  163.4039 H   0  0  0  0  0  0  0  0  0  0  0  0
  134.1544  184.5454  163.4039 H   0  0  0  0  0  0  0  0  0  0  0  0
  132.7765  187.1573  163.8567 H   0  0  0  0  0  0  0  0  0  0  0  0
  133.0302  185.6235  162.8387 H   0  0  0  0  0  0  0  0  0  0  0  0
  133.7451  185.6784  160.6027 H   0  0  0  0  0  0  0  0  0  0  0  0
  135.0390  186.9260  158.8804 H   0  0  0  0  0  0  0  0  0  0  0  0
  135.3989  189.3796  159.1239 H   0  0  0  0  0  0  0  0  0  0  0  0
  134.4357  190.5918  161.0759 H   0  0  0  0  0  0  0  0  0  0  0  0
  133.1425  189.3499  162.8058 H   0  0  0  0  0  0  0  0  0  0  0  0
  1  2  1  0
  2  3  1  0
  3  4  1  0
  4  5  1  0
  3  6  1  0
  6  7  1  0
  7  8  2  0
  7  9  1  0
  9 10  1  0
 10 11  2  0
 11 12  1  0
 11 13  1  0
 13 14  2  0
 14 15  1  0
 15 16  2  0
 16 17  1  0
  3 18  1  0
 18 19  1  0
 19 20  2  0
 20 21  1  0
 21 22  2  0
 22 23  1  0
 23 24  2  0
 16 10  1  0
 24 19  1  0
  1 25  1  0
  1 26  1  0
  1 27  1  0
  2 28  1  0
  2 29  1  0
  4 30  1  0
  4 31  1  0
  5 32  1  0
  5 33  1  0
  5 34  1  0
  6 35  1  0
  6 36  1  0
  9 37  1  0
 12 38  1  0
 12 39  1  0
 12 40  1  0
 13 41  1  0
 14 42  1  0
 15 43  1  0
 17 44  1  0
 17 45  1  0
 17 46  1  0
 18 47  1  0
 18 48  1  0
 20 49  1  0
 21 50  1  0
 22 51  1  0
 23 52  1  0
 24 53  1  0
M  CHG  1   3   1
M  END
>  <meeko>  (1) 
{"is_sidechain": [false], "free_energy": -6.806, "intermolecular_energy": -9.591, "internal_energy": -0.749}

$$$$
REF_DENATONIUM_GTOP12433__W_7USX_LOCAL_COMPLETE__e8__s20260927
     RDKit          3D

 53 54  0  0  0  0  0  0  0  0999 V2000
  132.3900  188.8070  163.9370 C   0  0  0  0  0  0  0  0  0  0  0  0
  132.1680  188.8480  162.4340 C   0  0  0  0  0  0  0  0  0  0  0  0
  132.8840  187.7090  161.6650 N   0  0  0  0  0  0  0  0  0  0  0  0
  133.9020  188.2390  160.6380 C   0  0  0  0  0  0  0  0  0  0  0  0
  134.3850  189.6580  160.9000 C   0  0  0  0  0  0  0  0  0  0  0  0
  133.6910  186.7880  162.6630 C   0  0  0  0  0  0  0  0  0  0  0  0
  133.7330  185.2810  162.3620 C   0  0  0  0  0  0  0  0  0  0  0  0
  134.3030  184.8500  161.3650 O   0  0  0  0  0  0  0  0  0  0  0  0
  133.0310  184.5250  163.2880 N   0  0  0  0  0  0  0  0  0  0  0  0
  132.9300  183.1090  163.3320 C   0  0  0  0  0  0  0  0  0  0  0  0
  131.9600  182.3620  162.6290 C   0  0  0  0  0  0  0  0  0  0  0  0
  130.9840  182.9330  161.6360 C   0  0  0  0  0  0  0  0  0  0  0  0
  131.9130  180.9650  162.7990 C   0  0  0  0  0  0  0  0  0  0  0  0
  132.8460  180.3020  163.5880 C   0  0  0  0  0  0  0  0  0  0  0  0
  133.8490  181.0250  164.2190 C   0  0  0  0  0  0  0  0  0  0  0  0
  133.9070  182.4230  164.1000 C   0  0  0  0  0  0  0  0  0  0  0  0
  135.0090  183.1370  164.8420 C   0  0  0  0  0  0  0  0  0  0  0  0
  131.7530  186.8730  160.9710 C   0  0  0  0  0  0  0  0  0  0  0  0
  130.3430  187.0560  161.4770 C   0  0  0  0  0  0  0  0  0  0  0  0
  129.4420  187.8750  160.7760 C   0  0  0  0  0  0  0  0  0  0  0  0
  128.1390  188.0670  161.2390 C   0  0  0  0  0  0  0  0  0  0  0  0
  127.7120  187.4290  162.4000 C   0  0  0  0  0  0  0  0  0  0  0  0
  128.5820  186.5900  163.0920 C   0  0  0  0  0  0  0  0  0  0  0  0
  129.8870  186.3980  162.6300 C   0  0  0  0  0  0  0  0  0  0  0  0
  131.4350  188.9834  164.4536 H   0  0  0  0  0  0  0  0  0  0  0  0
  132.7847  187.8208  164.2226 H   0  0  0  0  0  0  0  0  0  0  0  0
  133.1109  189.5872  164.2226 H   0  0  0  0  0  0  0  0  0  0  0  0
  131.0878  188.7714  162.2407 H   0  0  0  0  0  0  0  0  0  0  0  0
  132.5940  189.7957  162.0729 H   0  0  0  0  0  0  0  0  0  0  0  0
  134.7765  187.5718  160.6459 H   0  0  0  0  0  0  0  0  0  0  0  0
  133.3843  188.2598  159.6677 H   0  0  0  0  0  0  0  0  0  0  0  0
  134.4438  189.8309  161.9847 H   0  0  0  0  0  0  0  0  0  0  0  0
  135.3804  189.7950  160.4523 H   0  0  0  0  0  0  0  0  0  0  0  0
  133.6799  190.3739  160.4523 H   0  0  0  0  0  0  0  0  0  0  0  0
  134.7296  187.1499  162.6786 H   0  0  0  0  0  0  0  0  0  0  0  0
  133.1503  186.8681  163.6176 H   0  0  0  0  0  0  0  0  0  0  0  0
  132.3810  185.0100  163.8930 H   0  0  0  0  0  0  0  0  0  0  0  0
  130.1555  183.4177  162.1733 H   0  0  0  0  0  0  0  0  0  0  0  0
  131.4951  183.6746  161.0044 H   0  0  0  0  0  0  0  0  0  0  0  0
  130.5880  182.1241  161.0044 H   0  0  0  0  0  0  0  0  0  0  0  0
  131.1226  180.3870  162.2977 H   0  0  0  0  0  0  0  0  0  0  0  0
  132.7897  179.2104  163.7116 H   0  0  0  0  0  0  0  0  0  0  0  0
  134.6059  180.4976  164.8182 H   0  0  0  0  0  0  0  0  0  0  0  0
  134.8487  183.0331  165.9253 H   0  0  0  0  0  0  0  0  0  0  0  0
  135.9794  182.6955  164.5709 H   0  0  0  0  0  0  0  0  0  0  0  0
  135.0026  184.2031  164.5709 H   0  0  0  0  0  0  0  0  0  0  0  0
  131.7568  187.1359  159.9029 H   0  0  0  0  0  0  0  0  0  0  0  0
  131.9990  185.8251  161.1976 H   0  0  0  0  0  0  0  0  0  0  0  0
  129.7676  188.3716  159.8500 H   0  0  0  0  0  0  0  0  0  0  0  0
  127.4499  188.7225  160.6863 H   0  0  0  0  0  0  0  0  0  0  0  0
  126.6885  187.5873  162.7706 H   0  0  0  0  0  0  0  0  0  0  0  0
  128.2414  186.0775  164.0038 H   0  0  0  0  0  0  0  0  0  0  0  0
  130.5639  185.7241  163.1757 H   0  0  0  0  0  0  0  0  0  0  0  0
  1  2  1  0
  2  3  1  0
  3  4  1  0
  4  5  1  0
  3  6  1  0
  6  7  1  0
  7  8  2  0
  7  9  1  0
  9 10  1  0
 10 11  2  0
 11 12  1  0
 11 13  1  0
 13 14  2  0
 14 15  1  0
 15 16  2  0
 16 17  1  0
  3 18  1  0
 18 19  1  0
 19 20  2  0
 20 21  1  0
 21 22  2  0
 22 23  1  0
 23 24  2  0
 16 10  1  0
 24 19  1  0
  1 25  1  0
  1 26  1  0
  1 27  1  0
  2 28  1  0
  2 29  1  0
  4 30  1  0
  4 31  1  0
  5 32  1  0
  5 33  1  0
  5 34  1  0
  6 35  1  0
  6 36  1  0
  9 37  1  0
 12 38  1  0
 12 39  1  0
 12 40  1  0
 13 41  1  0
 14 42  1  0
 15 43  1  0
 17 44  1  0
 17 45  1  0
 17 46  1  0
 18 47  1  0
 18 48  1  0
 20 49  1  0
 21 50  1  0
 22 51  1  0
 23 52  1  0
 24 53  1  0
M  CHG  1   3   1
M  END
>  <meeko>  (2) 
{"is_sidechain": [false], "free_energy": -6.647, "intermolecular_energy": -9.113, "internal_energy": -1.004}

$$$$
REF_DENATONIUM_GTOP12433__W_7USX_LOCAL_COMPLETE__e8__s20260927
     RDKit          3D

 53 54  0  0  0  0  0  0  0  0999 V2000
  121.4960  164.5290  169.5640 C   0  0  0  0  0  0  0  0  0  0  0  0
  122.8940  165.1190  169.4790 C   0  0  0  0  0  0  0  0  0  0  0  0
  122.9370  166.6570  169.6610 N   0  0  0  0  0  0  0  0  0  0  0  0
  123.6430  167.0770  170.9640 C   0  0  0  0  0  0  0  0  0  0  0  0
  122.9180  166.6690  172.2370 C   0  0  0  0  0  0  0  0  0  0  0  0
  123.7370  167.3340  168.4790 C   0  0  0  0  0  0  0  0  0  0  0  0
  123.9290  166.5160  167.1910 C   0  0  0  0  0  0  0  0  0  0  0  0
  125.0340  166.0870  166.8720 O   0  0  0  0  0  0  0  0  0  0  0  0
  122.7630  166.3850  166.4550 N   0  0  0  0  0  0  0  0  0  0  0  0
  122.5890  165.6400  165.2580 C   0  0  0  0  0  0  0  0  0  0  0  0
  122.7070  164.2360  165.1760 C   0  0  0  0  0  0  0  0  0  0  0  0
  122.9000  163.3160  166.3500 C   0  0  0  0  0  0  0  0  0  0  0  0
  122.5780  163.6090  163.9210 C   0  0  0  0  0  0  0  0  0  0  0  0
  122.2670  164.3360  162.7780 C   0  0  0  0  0  0  0  0  0  0  0  0
  122.0740  165.7070  162.8700 C   0  0  0  0  0  0  0  0  0  0  0  0
  122.2270  166.3730  164.0970 C   0  0  0  0  0  0  0  0  0  0  0  0
  122.0300  167.8680  164.1050 C   0  0  0  0  0  0  0  0  0  0  0  0
  121.4460  167.1410  169.6360 C   0  0  0  0  0  0  0  0  0  0  0  0
  121.1670  168.5050  169.0510 C   0  0  0  0  0  0  0  0  0  0  0  0
  121.5420  169.6630  169.7530 C   0  0  0  0  0  0  0  0  0  0  0  0
  121.2770  170.9320  169.2330 C   0  0  0  0  0  0  0  0  0  0  0  0
  120.6490  171.0610  167.9980 C   0  0  0  0  0  0  0  0  0  0  0  0
  120.2970  169.9240  167.2750 C   0  0  0  0  0  0  0  0  0  0  0  0
  120.5600  168.6540  167.7950 C   0  0  0  0  0  0  0  0  0  0  0  0
  121.2122  164.4092  170.6200 H   0  0  0  0  0  0  0  0  0  0  0  0
  120.7828  165.2029  169.0668 H   0  0  0  0  0  0  0  0  0  0  0  0
  121.4812  163.5479  169.0668 H   0  0  0  0  0  0  0  0  0  0  0  0
  123.5124  164.6597  170.2642 H   0  0  0  0  0  0  0  0  0  0  0  0
  123.2702  164.9059  168.4675 H   0  0  0  0  0  0  0  0  0  0  0  0
  124.6424  166.6176  170.9761 H   0  0  0  0  0  0  0  0  0  0  0  0
  123.6734  168.1766  170.9615 H   0  0  0  0  0  0  0  0  0  0  0  0
  123.4998  166.9964  173.1113 H   0  0  0  0  0  0  0  0  0  0  0  0
  121.9244  167.1405  172.2603 H   0  0  0  0  0  0  0  0  0  0  0  0
  122.8054  165.5750  172.2603 H   0  0  0  0  0  0  0  0  0  0  0  0
  123.2041  168.2570  168.2067 H   0  0  0  0  0  0  0  0  0  0  0  0
  124.7535  167.4765  168.8744 H   0  0  0  0  0  0  0  0  0  0  0  0
  121.9970  167.0100  166.6740 H   0  0  0  0  0  0  0  0  0  0  0  0
  122.7808  163.8840  167.2844 H   0  0  0  0  0  0  0  0  0  0  0  0
  122.1512  162.5111  166.3121 H   0  0  0  0  0  0  0  0  0  0  0  0
  123.9092  162.8799  166.3121 H   0  0  0  0  0  0  0  0  0  0  0  0
  122.7265  162.5218  163.8442 H   0  0  0  0  0  0  0  0  0  0  0  0
  122.1745  163.8278  161.8068 H   0  0  0  0  0  0  0  0  0  0  0  0
  121.7980  166.2787  161.9717 H   0  0  0  0  0  0  0  0  0  0  0  0
  121.9828  168.2261  165.1440 H   0  0  0  0  0  0  0  0  0  0  0  0
  122.8722  168.3516  163.5884 H   0  0  0  0  0  0  0  0  0  0  0  0
  121.0913  168.1169  163.5884 H   0  0  0  0  0  0  0  0  0  0  0  0
  120.8710  166.4076  169.0516 H   0  0  0  0  0  0  0  0  0  0  0  0
  121.1604  167.2257  170.6949 H   0  0  0  0  0  0  0  0  0  0  0  0
  122.0504  169.5690  170.7239 H   0  0  0  0  0  0  0  0  0  0  0  0
  121.5648  171.8296  169.7999 H   0  0  0  0  0  0  0  0  0  0  0  0
  120.4308  172.0602  167.5931 H   0  0  0  0  0  0  0  0  0  0  0  0
  119.8113  170.0258  166.2933 H   0  0  0  0  0  0  0  0  0  0  0  0
  120.2881  167.7611  167.2130 H   0  0  0  0  0  0  0  0  0  0  0  0
  1  2  1  0
  2  3  1  0
  3  4  1  0
  4  5  1  0
  3  6  1  0
  6  7  1  0
  7  8  2  0
  7  9  1  0
  9 10  1  0
 10 11  2  0
 11 12  1  0
 11 13  1  0
 13 14  2  0
 14 15  1  0
 15 16  2  0
 16 17  1  0
  3 18  1  0
 18 19  1  0
 19 20  2  0
 20 21  1  0
 21 22  2  0
 22 23  1  0
 23 24  2  0
 16 10  1  0
 24 19  1  0
  1 25  1  0
  1 26  1  0
  1 27  1  0
  2 28  1  0
  2 29  1  0
  4 30  1  0
  4 31  1  0
  5 32  1  0
  5 33  1  0
  5 34  1  0
  6 35  1  0
  6 36  1  0
  9 37  1  0
 12 38  1  0
 12 39  1  0
 12 40  1  0
 13 41  1  0
 14 42  1  0
 15 43  1  0
 17 44  1  0
 17 45  1  0
 17 46  1  0
 18 47  1  0
 18 48  1  0
 20 49  1  0
 21 50  1  0
 22 51  1  0
 23 52  1  0
 24 53  1  0
M  CHG  1   3   1
M  END
>  <meeko>  (3) 
{"is_sidechain": [false], "free_energy": -6.574, "intermolecular_energy": -9.0, "internal_energy": -1.013}

$$$$
REF_DENATONIUM_GTOP12433__W_7USX_LOCAL_COMPLETE__e8__s20260927
     RDKit          3D

 53 54  0  0  0  0  0  0  0  0999 V2000
  122.9370  166.3100  170.3150 C   0  0  0  0  0  0  0  0  0  0  0  0
  123.7300  166.0000  169.0550 C   0  0  0  0  0  0  0  0  0  0  0  0
  123.3240  164.6690  168.3740 N   0  0  0  0  0  0  0  0  0  0  0  0
  122.6460  163.6890  169.3490 C   0  0  0  0  0  0  0  0  0  0  0  0
  121.2740  163.2050  168.9080 C   0  0  0  0  0  0  0  0  0  0  0  0
  122.2860  164.9350  167.2120 C   0  0  0  0  0  0  0  0  0  0  0  0
  122.2870  166.3300  166.5630 C   0  0  0  0  0  0  0  0  0  0  0  0
  123.2480  166.7230  165.9110 O   0  0  0  0  0  0  0  0  0  0  0  0
  121.1440  167.0600  166.8490 N   0  0  0  0  0  0  0  0  0  0  0  0
  120.8100  168.3480  166.3540 C   0  0  0  0  0  0  0  0  0  0  0  0
  120.4850  168.6180  165.0070 C   0  0  0  0  0  0  0  0  0  0  0  0
  120.3150  167.5770  163.9340 C   0  0  0  0  0  0  0  0  0  0  0  0
  120.2320  169.9470  164.6150 C   0  0  0  0  0  0  0  0  0  0  0  0
  120.2280  170.9850  165.5400 C   0  0  0  0  0  0  0  0  0  0  0  0
  120.4710  170.7110  166.8790 C   0  0  0  0  0  0  0  0  0  0  0  0
  120.7600  169.4030  167.3020 C   0  0  0  0  0  0  0  0  0  0  0  0
  121.0420  169.1960  168.7690 C   0  0  0  0  0  0  0  0  0  0  0  0
  124.6420  164.0650  167.7770 C   0  0  0  0  0  0  0  0  0  0  0  0
  124.6310  162.6010  167.4080 C   0  0  0  0  0  0  0  0  0  0  0  0
  125.4190  161.6860  168.1270 C   0  0  0  0  0  0  0  0  0  0  0  0
  125.4310  160.3320  167.7880 C   0  0  0  0  0  0  0  0  0  0  0  0
  124.6450  159.8700  166.7370 C   0  0  0  0  0  0  0  0  0  0  0  0
  123.8370  160.7570  166.0320 C   0  0  0  0  0  0  0  0  0  0  0  0
  123.8230  162.1130  166.3690 C   0  0  0  0  0  0  0  0  0  0  0  0
  123.5461  166.0719  171.1995 H   0  0  0  0  0  0  0  0  0  0  0  0
  122.6726  167.3777  170.3285 H   0  0  0  0  0  0  0  0  0  0  0  0
  122.0186  165.7047  170.3285 H   0  0  0  0  0  0  0  0  0  0  0  0
  123.5747  166.8187  168.3370 H   0  0  0  0  0  0  0  0  0  0  0  0
  124.7833  165.8986  169.3554 H   0  0  0  0  0  0  0  0  0  0  0  0
  123.2992  162.8113  169.4628 H   0  0  0  0  0  0  0  0  0  0  0  0
  122.4950  164.2393  170.2894 H   0  0  0  0  0  0  0  0  0  0  0  0
  120.6594  162.9882  169.7941 H   0  0  0  0  0  0  0  0  0  0  0  0
  120.7862  163.9853  168.3054 H   0  0  0  0  0  0  0  0  0  0  0  0
  121.3837  162.2913  168.3054 H   0  0  0  0  0  0  0  0  0  0  0  0
  122.4867  164.2018  166.4170 H   0  0  0  0  0  0  0  0  0  0  0  0
  121.3002  164.8507  167.6927 H   0  0  0  0  0  0  0  0  0  0  0  0
  120.5640  166.7420  167.6150 H   0  0  0  0  0  0  0  0  0  0  0  0
  120.1544  166.5934  164.3996 H   0  0  0  0  0  0  0  0  0  0  0  0
  119.4468  167.8330  163.3090 H   0  0  0  0  0  0  0  0  0  0  0  0
  121.2196  167.5435  163.3090 H   0  0  0  0  0  0  0  0  0  0  0  0
  120.0336  170.1681  163.5559 H   0  0  0  0  0  0  0  0  0  0  0  0
  120.0335  172.0170  165.2128 H   0  0  0  0  0  0  0  0  0  0  0  0
  120.4369  171.5265  167.6164 H   0  0  0  0  0  0  0  0  0  0  0  0
  120.2973  169.7426  169.3662 H   0  0  0  0  0  0  0  0  0  0  0  0
  120.9857  168.1232  169.0054 H   0  0  0  0  0  0  0  0  0  0  0  0
  122.0486  169.5712  169.0054 H   0  0  0  0  0  0  0  0  0  0  0  0
  124.8821  164.6330  166.8661 H   0  0  0  0  0  0  0  0  0  0  0  0
  125.3805  164.1449  168.5883 H   0  0  0  0  0  0  0  0  0  0  0  0
  126.0338  162.0412  168.9672 H   0  0  0  0  0  0  0  0  0  0  0  0
  126.0623  159.6297  168.3522 H   0  0  0  0  0  0  0  0  0  0  0  0
  124.6622  158.8047  166.4636 H   0  0  0  0  0  0  0  0  0  0  0  0
  123.2080  160.3899  165.2077 H   0  0  0  0  0  0  0  0  0  0  0  0
  123.1722  162.8051  165.8145 H   0  0  0  0  0  0  0  0  0  0  0  0
  1  2  1  0
  2  3  1  0
  3  4  1  0
  4  5  1  0
  3  6  1  0
  6  7  1  0
  7  8  2  0
  7  9  1  0
  9 10  1  0
 10 11  2  0
 11 12  1  0
 11 13  1  0
 13 14  2  0
 14 15  1  0
 15 16  2  0
 16 17  1  0
  3 18  1  0
 18 19  1  0
 19 20  2  0
 20 21  1  0
 21 22  2  0
 22 23  1  0
 23 24  2  0
 16 10  1  0
 24 19  1  0
  1 25  1  0
  1 26  1  0
  1 27  1  0
  2 28  1  0
  2 29  1  0
  4 30  1  0
  4 31  1  0
  5 32  1  0
  5 33  1  0
  5 34  1  0
  6 35  1  0
  6 36  1  0
  9 37  1  0
 12 38  1  0
 12 39  1  0
 12 40  1  0
 13 41  1  0
 14 42  1  0
 15 43  1  0
 17 44  1  0
 17 45  1  0
 17 46  1  0
 18 47  1  0
 18 48  1  0
 20 49  1  0
 21 50  1  0
 22 51  1  0
 23 52  1  0
 24 53  1  0
M  CHG  1   3   1
M  END
>  <meeko>  (4) 
{"is_sidechain": [false], "free_energy": -6.566, "intermolecular_energy": -9.183, "internal_energy": -0.819}

$$$$
REF_DENATONIUM_GTOP12433__W_7USX_LOCAL_COMPLETE__e8__s20260927
     RDKit          3D

 53 54  0  0  0  0  0  0  0  0999 V2000
  119.7230  165.2110  162.4330 C   0  0  0  0  0  0  0  0  0  0  0  0
  121.1670  165.5880  162.1410 C   0  0  0  0  0  0  0  0  0  0  0  0
  122.1970  164.5340  162.6170 N   0  0  0  0  0  0  0  0  0  0  0  0
  122.9650  163.8880  161.4480 C   0  0  0  0  0  0  0  0  0  0  0  0
  123.8530  164.8460  160.6700 C   0  0  0  0  0  0  0  0  0  0  0  0
  123.2820  165.2010  163.5520 C   0  0  0  0  0  0  0  0  0  0  0  0
  122.8900  166.4980  164.2800 C   0  0  0  0  0  0  0  0  0  0  0  0
  123.3260  167.5850  163.9160 O   0  0  0  0  0  0  0  0  0  0  0  0
  122.0710  166.2770  165.3760 N   0  0  0  0  0  0  0  0  0  0  0  0
  121.4850  167.2620  166.2150 C   0  0  0  0  0  0  0  0  0  0  0  0
  120.5050  168.1840  165.7880 C   0  0  0  0  0  0  0  0  0  0  0  0
  119.8450  168.1780  164.4360 C   0  0  0  0  0  0  0  0  0  0  0  0
  120.0420  169.1600  166.6920 C   0  0  0  0  0  0  0  0  0  0  0  0
  120.4770  169.1880  168.0110 C   0  0  0  0  0  0  0  0  0  0  0  0
  121.3830  168.2340  168.4550 C   0  0  0  0  0  0  0  0  0  0  0  0
  121.8930  167.2660  167.5750 C   0  0  0  0  0  0  0  0  0  0  0  0
  122.8960  166.2860  168.1290 C   0  0  0  0  0  0  0  0  0  0  0  0
  121.3850  163.4650  163.4290 C   0  0  0  0  0  0  0  0  0  0  0  0
  122.1710  162.4150  164.1760 C   0  0  0  0  0  0  0  0  0  0  0  0
  122.7950  162.7340  165.3940 C   0  0  0  0  0  0  0  0  0  0  0  0
  123.5380  161.7780  166.0890 C   0  0  0  0  0  0  0  0  0  0  0  0
  123.6550  160.4870  165.5860 C   0  0  0  0  0  0  0  0  0  0  0  0
  123.0210  160.1450  164.3950 C   0  0  0  0  0  0  0  0  0  0  0  0
  122.2770  161.1000  163.6970 C   0  0  0  0  0  0  0  0  0  0  0  0
  119.5675  165.1704  163.5212 H   0  0  0  0  0  0  0  0  0  0  0  0
  119.0516  165.9640  161.9945 H   0  0  0  0  0  0  0  0  0  0  0  0
  119.5054  164.2259  161.9945 H   0  0  0  0  0  0  0  0  0  0  0  0
  121.2790  165.7161  161.0542 H   0  0  0  0  0  0  0  0  0  0  0  0
  121.3752  166.5135  162.6979 H   0  0  0  0  0  0  0  0  0  0  0  0
  123.5986  163.0861  161.8548 H   0  0  0  0  0  0  0  0  0  0  0  0
  122.2066  163.5208  160.7409 H   0  0  0  0  0  0  0  0  0  0  0  0
  124.4279  165.4662  161.3734 H   0  0  0  0  0  0  0  0  0  0  0  0
  124.5455  164.2719  160.0369 H   0  0  0  0  0  0  0  0  0  0  0  0
  123.2281  165.4930  160.0369 H   0  0  0  0  0  0  0  0  0  0  0  0
  123.5551  164.4618  164.3195 H   0  0  0  0  0  0  0  0  0  0  0  0
  124.0954  165.4954  162.8725 H   0  0  0  0  0  0  0  0  0  0  0  0
  122.0130  165.3320  165.7350 H   0  0  0  0  0  0  0  0  0  0  0  0
  118.7522  168.1680  164.5615 H   0  0  0  0  0  0  0  0  0  0  0  0
  120.1419  169.0789  163.8790 H   0  0  0  0  0  0  0  0  0  0  0  0
  120.1583  167.2827  163.8790 H   0  0  0  0  0  0  0  0  0  0  0  0
  119.3211  169.9156  166.3464 H   0  0  0  0  0  0  0  0  0  0  0  0
  120.1059  169.9614  168.6996 H   0  0  0  0  0  0  0  0  0  0  0  0
  121.7045  168.2366  169.5070 H   0  0  0  0  0  0  0  0  0  0  0  0
  122.8674  166.3140  169.2283 H   0  0  0  0  0  0  0  0  0  0  0  0
  122.6485  165.2721  167.7814 H   0  0  0  0  0  0  0  0  0  0  0  0
  123.9039  166.5569  167.7814 H   0  0  0  0  0  0  0  0  0  0  0  0
  120.7732  164.0056  164.1662 H   0  0  0  0  0  0  0  0  0  0  0  0
  120.8195  162.9053  162.6695 H   0  0  0  0  0  0  0  0  0  0  0  0
  122.6968  163.7496  165.8049 H   0  0  0  0  0  0  0  0  0  0  0  0
  124.0311  162.0462  167.0350 H   0  0  0  0  0  0  0  0  0  0  0  0
  124.2482  159.7365  166.1289 H   0  0  0  0  0  0  0  0  0  0  0  0
  123.1058  159.1209  164.0024 H   0  0  0  0  0  0  0  0  0  0  0  0
  121.7693  160.8183  162.7627 H   0  0  0  0  0  0  0  0  0  0  0  0
  1  2  1  0
  2  3  1  0
  3  4  1  0
  4  5  1  0
  3  6  1  0
  6  7  1  0
  7  8  2  0
  7  9  1  0
  9 10  1  0
 10 11  2  0
 11 12  1  0
 11 13  1  0
 13 14  2  0
 14 15  1  0
 15 16  2  0
 16 17  1  0
  3 18  1  0
 18 19  1  0
 19 20  2  0
 20 21  1  0
 21 22  2  0
 22 23  1  0
 23 24  2  0
 16 10  1  0
 24 19  1  0
  1 25  1  0
  1 26  1  0
  1 27  1  0
  2 28  1  0
  2 29  1  0
  4 30  1  0
  4 31  1  0
  5 32  1  0
  5 33  1  0
  5 34  1  0
  6 35  1  0
  6 36  1  0
  9 37  1  0
 12 38  1  0
 12 39  1  0
 12 40  1  0
 13 41  1  0
 14 42  1  0
 15 43  1  0
 17 44  1  0
 17 45  1  0
 17 46  1  0
 18 47  1  0
 18 48  1  0
 20 49  1  0
 21 50  1  0
 22 51  1  0
 23 52  1  0
 24 53  1  0
M  CHG  1   3   1
M  END
>  <meeko>  (5) 
{"is_sidechain": [false], "free_energy": -6.549, "intermolecular_energy": -9.262, "internal_energy": -0.716}

$$$$
REF_DENATONIUM_GTOP12433__W_7USX_LOCAL_COMPLETE__e8__s20260927
     RDKit          3D

 53 54  0  0  0  0  0  0  0  0999 V2000
  133.1090  188.3830  162.5870 C   0  0  0  0  0  0  0  0  0  0  0  0
  132.8030  187.2270  161.6480 C   0  0  0  0  0  0  0  0  0  0  0  0
  131.9900  186.0850  162.3080 N   0  0  0  0  0  0  0  0  0  0  0  0
  131.2780  185.1930  161.2730 C   0  0  0  0  0  0  0  0  0  0  0  0
  131.6080  185.5180  159.8240 C   0  0  0  0  0  0  0  0  0  0  0  0
  132.9410  185.1350  163.1390 C   0  0  0  0  0  0  0  0  0  0  0  0
  132.4170  183.7300  163.4830 C   0  0  0  0  0  0  0  0  0  0  0  0
  131.3650  183.5790  164.0940 O   0  0  0  0  0  0  0  0  0  0  0  0
  133.2770  182.7200  163.0810 N   0  0  0  0  0  0  0  0  0  0  0  0
  133.0590  181.3210  163.1900 C   0  0  0  0  0  0  0  0  0  0  0  0
  132.0510  180.6210  162.4920 C   0  0  0  0  0  0  0  0  0  0  0  0
  131.1550  181.2170  161.4400 C   0  0  0  0  0  0  0  0  0  0  0  0
  131.8850  179.2420  162.7280 C   0  0  0  0  0  0  0  0  0  0  0  0
  132.7360  178.5470  163.5790 C   0  0  0  0  0  0  0  0  0  0  0  0
  133.7760  179.2180  164.2060 C   0  0  0  0  0  0  0  0  0  0  0  0
  133.9530  180.5990  164.0220 C   0  0  0  0  0  0  0  0  0  0  0  0
  135.0880  181.2570  164.7650 C   0  0  0  0  0  0  0  0  0  0  0  0
  130.9630  186.7780  163.2690 C   0  0  0  0  0  0  0  0  0  0  0  0
  129.5730  187.0310  162.7370 C   0  0  0  0  0  0  0  0  0  0  0  0
  128.4750  186.3370  163.2720 C   0  0  0  0  0  0  0  0  0  0  0  0
  127.1860  186.5480  162.7800 C   0  0  0  0  0  0  0  0  0  0  0  0
  126.9730  187.4660  161.7570 C   0  0  0  0  0  0  0  0  0  0  0  0
  128.0450  188.1840  161.2340 C   0  0  0  0  0  0  0  0  0  0  0  0
  129.3360  187.9740  161.7240 C   0  0  0  0  0  0  0  0  0  0  0  0
  133.0189  188.0426  163.6291 H   0  0  0  0  0  0  0  0  0  0  0  0
  134.1330  188.7415  162.4056 H   0  0  0  0  0  0  0  0  0  0  0  0
  132.3965  189.2012  162.4056 H   0  0  0  0  0  0  0  0  0  0  0  0
  132.2265  187.6156  160.7956 H   0  0  0  0  0  0  0  0  0  0  0  0
  133.7686  186.7980  161.3419 H   0  0  0  0  0  0  0  0  0  0  0  0
  131.5654  184.1486  161.4645 H   0  0  0  0  0  0  0  0  0  0  0  0
  130.1997  185.3728  161.3953 H   0  0  0  0  0  0  0  0  0  0  0  0
  132.3914  186.2895  159.7905 H   0  0  0  0  0  0  0  0  0  0  0  0
  131.9659  184.6099  159.3169 H   0  0  0  0  0  0  0  0  0  0  0  0
  130.7054  185.8897  159.3169 H   0  0  0  0  0  0  0  0  0  0  0  0
  133.8679  185.0084  162.5603 H   0  0  0  0  0  0  0  0  0  0  0  0
  133.0581  185.6363  164.1111 H   0  0  0  0  0  0  0  0  0  0  0  0
  134.2270  182.9790  162.8450 H   0  0  0  0  0  0  0  0  0  0  0  0
  130.3331  181.7637  161.9253 H   0  0  0  0  0  0  0  0  0  0  0  0
  131.7359  181.9093  160.8129 H   0  0  0  0  0  0  0  0  0  0  0  0
  130.7411  180.4136  160.8129 H   0  0  0  0  0  0  0  0  0  0  0  0
  131.0653  178.7046  162.2286 H   0  0  0  0  0  0  0  0  0  0  0  0
  132.5859  177.4715  163.7544 H   0  0  0  0  0  0  0  0  0  0  0  0
  134.4695  178.6623  164.8543 H   0  0  0  0  0  0  0  0  0  0  0  0
  134.9219  181.1607  165.8481 H   0  0  0  0  0  0  0  0  0  0  0  0
  136.0356  180.7682  164.4945 H   0  0  0  0  0  0  0  0  0  0  0  0
  135.1346  182.3222  164.4945 H   0  0  0  0  0  0  0  0  0  0  0  0
  130.8639  186.1410  164.1603 H   0  0  0  0  0  0  0  0  0  0  0  0
  131.3804  187.7793  163.4508 H   0  0  0  0  0  0  0  0  0  0  0  0
  128.6332  185.6180  164.0893 H   0  0  0  0  0  0  0  0  0  0  0  0
  126.3382  185.9880  163.2015 H   0  0  0  0  0  0  0  0  0  0  0  0
  125.9588  187.6245  161.3617 H   0  0  0  0  0  0  0  0  0  0  0  0
  127.8749  188.9184  160.4330 H   0  0  0  0  0  0  0  0  0  0  0  0
  130.1756  188.5532  161.3121 H   0  0  0  0  0  0  0  0  0  0  0  0
  1  2  1  0
  2  3  1  0
  3  4  1  0
  4  5  1  0
  3  6  1  0
  6  7  1  0
  7  8  2  0
  7  9  1  0
  9 10  1  0
 10 11  2  0
 11 12  1  0
 11 13  1  0
 13 14  2  0
 14 15  1  0
 15 16  2  0
 16 17  1  0
  3 18  1  0
 18 19  1  0
 19 20  2  0
 20 21  1  0
 21 22  2  0
 22 23  1  0
 23 24  2  0
 16 10  1  0
 24 19  1  0
  1 25  1  0
  1 26  1  0
  1 27  1  0
  2 28  1  0
  2 29  1  0
  4 30  1  0
  4 31  1  0
  5 32  1  0
  5 33  1  0
  5 34  1  0
  6 35  1  0
  6 36  1  0
  9 37  1  0
 12 38  1  0
 12 39  1  0
 12 40  1  0
 13 41  1  0
 14 42  1  0
 15 43  1  0
 17 44  1  0
 17 45  1  0
 17 46  1  0
 18 47  1  0
 18 48  1  0
 20 49  1  0
 21 50  1  0
 22 51  1  0
 23 52  1  0
 24 53  1  0
M  CHG  1   3   1
M  END
>  <meeko>  (6) 
{"is_sidechain": [false], "free_energy": -6.431, "intermolecular_energy": -9.008, "internal_energy": -0.805}

$$$$
REF_DENATONIUM_GTOP12433__W_7USX_LOCAL_COMPLETE__e8__s20260927
     RDKit          3D

 53 54  0  0  0  0  0  0  0  0999 V2000
  123.1880  165.2250  171.3250 C   0  0  0  0  0  0  0  0  0  0  0  0
  122.4660  165.9860  170.2240 C   0  0  0  0  0  0  0  0  0  0  0  0
  123.1470  165.8760  168.8370 N   0  0  0  0  0  0  0  0  0  0  0  0
  124.0250  167.0990  168.5120 C   0  0  0  0  0  0  0  0  0  0  0  0
  123.6780  168.3540  169.2980 C   0  0  0  0  0  0  0  0  0  0  0  0
  124.0980  164.6150  168.7850 C   0  0  0  0  0  0  0  0  0  0  0  0
  123.5130  163.3070  168.2270 C   0  0  0  0  0  0  0  0  0  0  0  0
  122.6200  162.7100  168.8190 O   0  0  0  0  0  0  0  0  0  0  0  0
  124.1350  162.8900  167.0600 N   0  0  0  0  0  0  0  0  0  0  0  0
  123.7900  161.7650  166.2650 C   0  0  0  0  0  0  0  0  0  0  0  0
  122.9410  161.8230  165.1390 C   0  0  0  0  0  0  0  0  0  0  0  0
  122.3890  163.0870  164.5370 C   0  0  0  0  0  0  0  0  0  0  0  0
  122.6160  160.6300  164.4630 C   0  0  0  0  0  0  0  0  0  0  0  0
  123.1680  159.4120  164.8410 C   0  0  0  0  0  0  0  0  0  0  0  0
  124.0630  159.3640  165.9000 C   0  0  0  0  0  0  0  0  0  0  0  0
  124.3860  160.5270  166.6190 C   0  0  0  0  0  0  0  0  0  0  0  0
  125.3430  160.3840  167.7760 C   0  0  0  0  0  0  0  0  0  0  0  0
  121.9890  165.7090  167.7930 C   0  0  0  0  0  0  0  0  0  0  0  0
  122.1170  166.4550  166.4870 C   0  0  0  0  0  0  0  0  0  0  0  0
  121.1900  167.4550  166.1520 C   0  0  0  0  0  0  0  0  0  0  0  0
  121.2860  168.1430  164.9400 C   0  0  0  0  0  0  0  0  0  0  0  0
  122.3180  167.8520  164.0550 C   0  0  0  0  0  0  0  0  0  0  0  0
  123.2630  166.8830  164.3830 C   0  0  0  0  0  0  0  0  0  0  0  0
  123.1680  166.1930  165.5940 C   0  0  0  0  0  0  0  0  0  0  0  0
  122.8453  165.5862  172.3058 H   0  0  0  0  0  0  0  0  0  0  0  0
  122.9689  164.1510  171.2328 H   0  0  0  0  0  0  0  0  0  0  0  0
  124.2720  165.3873  171.2328 H   0  0  0  0  0  0  0  0  0  0  0  0
  121.4437  165.5885  170.1408 H   0  0  0  0  0  0  0  0  0  0  0  0
  122.4831  167.0492  170.5056 H   0  0  0  0  0  0  0  0  0  0  0  0
  125.0714  166.8373  168.7278 H   0  0  0  0  0  0  0  0  0  0  0  0
  123.8495  167.3362  167.4523 H   0  0  0  0  0  0  0  0  0  0  0  0
  123.7372  168.1400  170.3754 H   0  0  0  0  0  0  0  0  0  0  0  0
  124.3886  169.1542  169.0436 H   0  0  0  0  0  0  0  0  0  0  0  0
  122.6573  168.6755  169.0436 H   0  0  0  0  0  0  0  0  0  0  0  0
  124.9641  164.8810  168.1612 H   0  0  0  0  0  0  0  0  0  0  0  0
  124.3267  164.3930  169.8378 H   0  0  0  0  0  0  0  0  0  0  0  0
  125.0270  163.3090  166.8300 H   0  0  0  0  0  0  0  0  0  0  0  0
  122.0885  163.7752  165.3408 H   0  0  0  0  0  0  0  0  0  0  0  0
  123.1606  163.5643  163.9151 H   0  0  0  0  0  0  0  0  0  0  0  0
  121.5144  162.8454  163.9151 H   0  0  0  0  0  0  0  0  0  0  0  0
  121.9112  160.6636  163.6191 H   0  0  0  0  0  0  0  0  0  0  0  0
  122.8969  158.4912  164.3037 H   0  0  0  0  0  0  0  0  0  0  0  0
  124.5245  158.4054  166.1796 H   0  0  0  0  0  0  0  0  0  0  0  0
  124.7888  160.4668  168.7226 H   0  0  0  0  0  0  0  0  0  0  0  0
  125.8363  159.4022  167.7246 H   0  0  0  0  0  0  0  0  0  0  0  0
  126.1018  161.1787  167.7246 H   0  0  0  0  0  0  0  0  0  0  0  0
  121.9117  164.6379  167.5547 H   0  0  0  0  0  0  0  0  0  0  0  0
  121.1056  166.1466  168.2810 H   0  0  0  0  0  0  0  0  0  0  0  0
  120.3781  167.6997  166.8526 H   0  0  0  0  0  0  0  0  0  0  0  0
  120.5449  168.9152  164.6858 H   0  0  0  0  0  0  0  0  0  0  0  0
  122.3881  168.3868  163.0963 H   0  0  0  0  0  0  0  0  0  0  0  0
  124.0856  166.6606  163.6874 H   0  0  0  0  0  0  0  0  0  0  0  0
  123.9245  165.4367  165.8504 H   0  0  0  0  0  0  0  0  0  0  0  0
  1  2  1  0
  2  3  1  0
  3  4  1  0
  4  5  1  0
  3  6  1  0
  6  7  1  0
  7  8  2  0
  7  9  1  0
  9 10  1  0
 10 11  2  0
 11 12  1  0
 11 13  1  0
 13 14  2  0
 14 15  1  0
 15 16  2  0
 16 17  1  0
  3 18  1  0
 18 19  1  0
 19 20  2  0
 20 21  1  0
 21 22  2  0
 22 23  1  0
 23 24  2  0
 16 10  1  0
 24 19  1  0
  1 25  1  0
  1 26  1  0
  1 27  1  0
  2 28  1  0
  2 29  1  0
  4 30  1  0
  4 31  1  0
  5 32  1  0
  5 33  1  0
  5 34  1  0
  6 35  1  0
  6 36  1  0
  9 37  1  0
 12 38  1  0
 12 39  1  0
 12 40  1  0
 13 41  1  0
 14 42  1  0
 15 43  1  0
 17 44  1  0
 17 45  1  0
 17 46  1  0
 18 47  1  0
 18 48  1  0
 20 49  1  0
 21 50  1  0
 22 51  1  0
 23 52  1  0
 24 53  1  0
M  CHG  1   3   1
M  END
>  <meeko>  (7) 
{"is_sidechain": [false], "free_energy": -6.414, "intermolecular_energy": -8.872, "internal_energy": -0.916}

$$$$
REF_DENATONIUM_GTOP12433__W_7USX_LOCAL_COMPLETE__e8__s20260927
     RDKit          3D

 53 54  0  0  0  0  0  0  0  0999 V2000
  125.3110  162.9500  167.7640 C   0  0  0  0  0  0  0  0  0  0  0  0
  124.6020  164.2940  167.7280 C   0  0  0  0  0  0  0  0  0  0  0  0
  123.3070  164.3420  168.5770 N   0  0  0  0  0  0  0  0  0  0  0  0
  122.9810  162.9870  169.2330 C   0  0  0  0  0  0  0  0  0  0  0  0
  123.1920  162.9450  170.7380 C   0  0  0  0  0  0  0  0  0  0  0  0
  123.4550  165.3850  169.7550 C   0  0  0  0  0  0  0  0  0  0  0  0
  123.2340  166.8700  169.4200 C   0  0  0  0  0  0  0  0  0  0  0  0
  124.0710  167.5070  168.7880 O   0  0  0  0  0  0  0  0  0  0  0  0
  122.0570  167.3740  169.9490 N   0  0  0  0  0  0  0  0  0  0  0  0
  121.5320  168.6820  169.7680 C   0  0  0  0  0  0  0  0  0  0  0  0
  120.9320  169.1360  168.5740 C   0  0  0  0  0  0  0  0  0  0  0  0
  120.6380  168.2760  167.3740 C   0  0  0  0  0  0  0  0  0  0  0  0
  120.5050  170.4750  168.4860 C   0  0  0  0  0  0  0  0  0  0  0  0
  120.6000  171.3360  169.5730 C   0  0  0  0  0  0  0  0  0  0  0  0
  121.1190  170.8710  170.7730 C   0  0  0  0  0  0  0  0  0  0  0  0
  121.5860  169.5510  170.8890 C   0  0  0  0  0  0  0  0  0  0  0  0
  122.1630  169.1340  172.2180 C   0  0  0  0  0  0  0  0  0  0  0  0
  122.1640  164.7990  167.6070 C   0  0  0  0  0  0  0  0  0  0  0  0
  122.5130  164.9590  166.1470 C   0  0  0  0  0  0  0  0  0  0  0  0
  122.9250  166.2080  165.6530 C   0  0  0  0  0  0  0  0  0  0  0  0
  123.2360  166.3760  164.3020 C   0  0  0  0  0  0  0  0  0  0  0  0
  123.1560  165.2960  163.4300 C   0  0  0  0  0  0  0  0  0  0  0  0
  122.7770  164.0440  163.9070 C   0  0  0  0  0  0  0  0  0  0  0  0
  122.4650  163.8740  165.2580 C   0  0  0  0  0  0  0  0  0  0  0  0
  125.4706  162.6475  168.8095 H   0  0  0  0  0  0  0  0  0  0  0  0
  124.6934  162.1959  167.2543 H   0  0  0  0  0  0  0  0  0  0  0  0
  126.2822  163.0340  167.2543 H   0  0  0  0  0  0  0  0  0  0  0  0
  125.2935  165.0609  168.1070 H   0  0  0  0  0  0  0  0  0  0  0  0
  124.3065  164.4719  166.6835 H   0  0  0  0  0  0  0  0  0  0  0  0
  121.9263  162.7514  169.0278 H   0  0  0  0  0  0  0  0  0  0  0  0
  123.6789  162.2553  168.8000 H   0  0  0  0  0  0  0  0  0  0  0  0
  122.2360  163.1353  171.2477 H   0  0  0  0  0  0  0  0  0  0  0  0
  123.5710  161.9538  171.0276 H   0  0  0  0  0  0  0  0  0  0  0  0
  123.9217  163.7156  171.0276 H   0  0  0  0  0  0  0  0  0  0  0  0
  122.7263  165.1104  170.5319 H   0  0  0  0  0  0  0  0  0  0  0  0
  124.5108  165.3196  170.0565 H   0  0  0  0  0  0  0  0  0  0  0  0
  121.6010  166.8370  170.6750 H   0  0  0  0  0  0  0  0  0  0  0  0
  120.2990  167.2842  167.7079 H   0  0  0  0  0  0  0  0  0  0  0  0
  119.8502  168.7482  166.7686 H   0  0  0  0  0  0  0  0  0  0  0  0
  121.5500  168.1671  166.7686 H   0  0  0  0  0  0  0  0  0  0  0  0
  120.0881  170.8469  167.5384 H   0  0  0  0  0  0  0  0  0  0  0  0
  120.2657  172.3800  169.4825 H   0  0  0  0  0  0  0  0  0  0  0  0
  121.1653  171.5430  171.6426 H   0  0  0  0  0  0  0  0  0  0  0  0
  121.5624  169.5681  173.0309 H   0  0  0  0  0  0  0  0  0  0  0  0
  122.1477  168.0369  172.2964 H   0  0  0  0  0  0  0  0  0  0  0  0
  123.1999  169.4928  172.2964 H   0  0  0  0  0  0  0  0  0  0  0  0
  121.3575  164.0539  167.6735 H   0  0  0  0  0  0  0  0  0  0  0  0
  121.8973  165.8114  167.9445 H   0  0  0  0  0  0  0  0  0  0  0  0
  123.0036  167.0643  166.3390 H   0  0  0  0  0  0  0  0  0  0  0  0
  123.5444  167.3633  163.9275 H   0  0  0  0  0  0  0  0  0  0  0  0
  123.3919  165.4306  162.3641 H   0  0  0  0  0  0  0  0  0  0  0  0
  122.7232  163.1874  163.2190 H   0  0  0  0  0  0  0  0  0  0  0  0
  122.1786  162.8789  165.6291 H   0  0  0  0  0  0  0  0  0  0  0  0
  1  2  1  0
  2  3  1  0
  3  4  1  0
  4  5  1  0
  3  6  1  0
  6  7  1  0
  7  8  2  0
  7  9  1  0
  9 10  1  0
 10 11  2  0
 11 12  1  0
 11 13  1  0
 13 14  2  0
 14 15  1  0
 15 16  2  0
 16 17  1  0
  3 18  1  0
 18 19  1  0
 19 20  2  0
 20 21  1  0
 21 22  2  0
 22 23  1  0
 23 24  2  0
 16 10  1  0
 24 19  1  0
  1 25  1  0
  1 26  1  0
  1 27  1  0
  2 28  1  0
  2 29  1  0
  4 30  1  0
  4 31  1  0
  5 32  1  0
  5 33  1  0
  5 34  1  0
  6 35  1  0
  6 36  1  0
  9 37  1  0
 12 38  1  0
 12 39  1  0
 12 40  1  0
 13 41  1  0
 14 42  1  0
 15 43  1  0
 17 44  1  0
 17 45  1  0
 17 46  1  0
 18 47  1  0
 18 48  1  0
 20 49  1  0
 21 50  1  0
 22 51  1  0
 23 52  1  0
 24 53  1  0
M  CHG  1   3   1
M  END
>  <meeko>  (8) 
{"is_sidechain": [false], "free_energy": -6.378, "intermolecular_energy": -8.851, "internal_energy": -0.887}

$$$$
REF_DENATONIUM_GTOP12433__W_7USX_LOCAL_COMPLETE__e8__s20260927
     RDKit          3D

 53 54  0  0  0  0  0  0  0  0999 V2000
  134.0740  185.9110  162.7650 C   0  0  0  0  0  0  0  0  0  0  0  0
  132.6310  185.6830  163.1830 C   0  0  0  0  0  0  0  0  0  0  0  0
  131.6740  185.3950  161.9980 N   0  0  0  0  0  0  0  0  0  0  0  0
  132.3260  185.6780  160.6320 C   0  0  0  0  0  0  0  0  0  0  0  0
  131.6040  186.7190  159.7900 C   0  0  0  0  0  0  0  0  0  0  0  0
  131.2490  183.8730  161.9850 C   0  0  0  0  0  0  0  0  0  0  0  0
  131.7320  182.9910  163.1490 C   0  0  0  0  0  0  0  0  0  0  0  0
  131.1890  183.0390  164.2470 O   0  0  0  0  0  0  0  0  0  0  0  0
  132.8370  182.2210  162.8210 N   0  0  0  0  0  0  0  0  0  0  0  0
  133.4810  181.2600  163.6450 C   0  0  0  0  0  0  0  0  0  0  0  0
  134.5590  181.5520  164.5080 C   0  0  0  0  0  0  0  0  0  0  0  0
  135.0950  182.9310  164.7850 C   0  0  0  0  0  0  0  0  0  0  0  0
  135.1630  180.5050  165.2310 C   0  0  0  0  0  0  0  0  0  0  0  0
  134.6750  179.2060  165.1640 C   0  0  0  0  0  0  0  0  0  0  0  0
  133.5670  178.9290  164.3750 C   0  0  0  0  0  0  0  0  0  0  0  0
  132.9580  179.9410  163.6140 C   0  0  0  0  0  0  0  0  0  0  0  0
  131.7780  179.5510  162.7600 C   0  0  0  0  0  0  0  0  0  0  0  0
  130.4110  186.2950  162.2280 C   0  0  0  0  0  0  0  0  0  0  0  0
  130.5110  187.3810  163.2720 C   0  0  0  0  0  0  0  0  0  0  0  0
  131.4010  188.4530  163.0920 C   0  0  0  0  0  0  0  0  0  0  0  0
  131.5160  189.4570  164.0550 C   0  0  0  0  0  0  0  0  0  0  0  0
  130.7320  189.4130  165.2040 C   0  0  0  0  0  0  0  0  0  0  0  0
  129.8240  188.3730  165.3850 C   0  0  0  0  0  0  0  0  0  0  0  0
  129.7080  187.3670  164.4230 C   0  0  0  0  0  0  0  0  0  0  0  0
  134.7040  186.0105  163.6612 H   0  0  0  0  0  0  0  0  0  0  0  0
  134.4215  185.0566  162.1656 H   0  0  0  0  0  0  0  0  0  0  0  0
  134.1411  186.8309  162.1656 H   0  0  0  0  0  0  0  0  0  0  0  0
  132.6005  184.8244  163.8699 H   0  0  0  0  0  0  0  0  0  0  0  0
  132.2839  186.6134  163.6561 H   0  0  0  0  0  0  0  0  0  0  0  0
  133.3527  186.0312  160.8083 H   0  0  0  0  0  0  0  0  0  0  0  0
  132.2855  184.7358  160.0657 H   0  0  0  0  0  0  0  0  0  0  0  0
  131.1028  187.4416  160.4508 H   0  0  0  0  0  0  0  0  0  0  0  0
  132.3316  187.2459  159.1552 H   0  0  0  0  0  0  0  0  0  0  0  0
  130.8555  186.2222  159.1552 H   0  0  0  0  0  0  0  0  0  0  0  0
  130.1496  183.8379  161.9792 H   0  0  0  0  0  0  0  0  0  0  0  0
  131.7378  183.4531  161.0935 H   0  0  0  0  0  0  0  0  0  0  0  0
  133.3560  182.4750  161.9900 H   0  0  0  0  0  0  0  0  0  0  0  0
  135.1564  183.0890  165.8719 H   0  0  0  0  0  0  0  0  0  0  0  0
  136.0973  183.0305  164.3428 H   0  0  0  0  0  0  0  0  0  0  0  0
  134.4230  183.6813  164.3428 H   0  0  0  0  0  0  0  0  0  0  0  0
  136.0385  180.7201  165.8613 H   0  0  0  0  0  0  0  0  0  0  0  0
  135.1639  178.4015  165.7330 H   0  0  0  0  0  0  0  0  0  0  0  0
  133.1617  177.9068  164.3453 H   0  0  0  0  0  0  0  0  0  0  0  0
  130.9334  179.2718  163.4071 H   0  0  0  0  0  0  0  0  0  0  0  0
  131.4881  180.4011  162.1250 H   0  0  0  0  0  0  0  0  0  0  0  0
  132.0518  178.6955  162.1250 H   0  0  0  0  0  0  0  0  0  0  0  0
  130.1727  186.7798  161.2698 H   0  0  0  0  0  0  0  0  0  0  0  0
  129.6424  185.6075  162.6108 H   0  0  0  0  0  0  0  0  0  0  0  0
  132.0150  188.5018  162.1806 H   0  0  0  0  0  0  0  0  0  0  0  0
  132.2266  190.2833  163.9056 H   0  0  0  0  0  0  0  0  0  0  0  0
  130.8295  190.1985  165.9679 H   0  0  0  0  0  0  0  0  0  0  0  0
  129.1964  188.3436  166.2879 H   0  0  0  0  0  0  0  0  0  0  0  0
  128.9799  186.5555  164.5690 H   0  0  0  0  0  0  0  0  0  0  0  0
  1  2  1  0
  2  3  1  0
  3  4  1  0
  4  5  1  0
  3  6  1  0
  6  7  1  0
  7  8  2  0
  7  9  1  0
  9 10  1  0
 10 11  2  0
 11 12  1  0
 11 13  1  0
 13 14  2  0
 14 15  1  0
 15 16  2  0
 16 17  1  0
  3 18  1  0
 18 19  1  0
 19 20  2  0
 20 21  1  0
 21 22  2  0
 22 23  1  0
 23 24  2  0
 16 10  1  0
 24 19  1  0
  1 25  1  0
  1 26  1  0
  1 27  1  0
  2 28  1  0
  2 29  1  0
  4 30  1  0
  4 31  1  0
  5 32  1  0
  5 33  1  0
  5 34  1  0
  6 35  1  0
  6 36  1  0
  9 37  1  0
 12 38  1  0
 12 39  1  0
 12 40  1  0
 13 41  1  0
 14 42  1  0
 15 43  1  0
 17 44  1  0
 17 45  1  0
 17 46  1  0
 18 47  1  0
 18 48  1  0
 20 49  1  0
 21 50  1  0
 22 51  1  0
 23 52  1  0
 24 53  1  0
M  CHG  1   3   1
M  END
>  <meeko>  (9) 
{"is_sidechain": [false], "free_energy": -6.354, "intermolecular_energy": -9.098, "internal_energy": -0.606}

$$$$
