
     RDKit          3D

 65 70  0  0  0  0  0  0  0  0999 V2000
    1.8313   -0.7973   -0.9674 O   0  0  0  0  0  0  0  0  0  0  0  0
    2.4041   -0.0734   -0.1637 C   0  0  0  0  0  0  0  0  0  0  0  0
    3.7145   -0.2374    0.2636 N   0  0  0  0  0  0  0  0  0  0  0  0
    4.6563   -1.1922   -0.1769 C   0  0  0  0  0  0  0  0  0  0  0  0
    4.4194   -2.1146   -1.1988 C   0  0  0  0  0  0  0  0  0  0  0  0
    5.4066   -3.0335   -1.5724 C   0  0  0  0  0  0  0  0  0  0  0  0
    6.6445   -3.0307   -0.9349 C   0  0  0  0  0  0  0  0  0  0  0  0
    6.8991   -2.0972    0.0658 C   0  0  0  0  0  0  0  0  0  0  0  0
    8.1293   -2.1595    0.6813 O   0  0  0  0  0  0  0  0  0  0  0  0
    8.7971   -0.9716    0.8755 C   0  0  0  0  0  0  0  0  0  0  0  0
    9.3736   -0.7660    2.1292 C   0  0  0  0  0  0  0  0  0  0  0  0
   10.0897    0.4045    2.3814 C   0  0  0  0  0  0  0  0  0  0  0  0
   10.2411    1.3596    1.3753 C   0  0  0  0  0  0  0  0  0  0  0  0
    9.6841    1.1424    0.1143 C   0  0  0  0  0  0  0  0  0  0  0  0
    8.9674   -0.0276   -0.1407 C   0  0  0  0  0  0  0  0  0  0  0  0
    5.9049   -1.1942    0.4590 C   0  0  0  0  0  0  0  0  0  0  0  0
    1.8360    1.0380    0.4460 N   0  0  0  0  0  0  0  0  0  0  0  0
    0.4950    1.4724    0.3670 C   0  0  0  0  0  0  0  0  0  0  0  0
    0.1894    2.7089    0.9472 C   0  0  0  0  0  0  0  0  0  0  0  0
   -1.1139    3.2047    0.9156 C   0  0  0  0  0  0  0  0  0  0  0  0
   -2.1243    2.4669    0.3004 C   0  0  0  0  0  0  0  0  0  0  0  0
   -1.8472    1.2268   -0.2917 C   0  0  0  0  0  0  0  0  0  0  0  0
   -2.9456    0.4559   -0.9276 C   0  0  0  0  0  0  0  0  0  0  0  0
   -2.7123   -0.2387   -2.0617 C   0  0  0  0  0  0  0  0  0  0  0  0
   -3.7575   -0.9327   -2.6304 N   0  0  0  0  0  0  0  0  0  0  0  0
   -3.8456   -1.7165   -3.7480 C   0  0  0  0  0  0  0  0  0  0  0  0
   -5.1606   -2.1318   -3.7910 C   0  0  0  0  0  0  0  0  0  0  0  0
   -5.8801   -1.6237   -2.7347 N   0  0  0  0  0  0  0  0  0  0  0  0
   -4.9996   -0.9102   -2.0623 C   0  0  0  0  0  0  0  0  0  0  0  0
   -5.2092   -0.1414   -0.8488 C   0  0  0  0  0  0  0  0  0  0  0  0
   -6.4480   -0.0996   -0.2592 N   0  0  0  0  0  0  0  0  0  0  0  0
   -6.7414    0.6117    0.9534 C   0  0  0  0  0  0  0  0  0  0  0  0
   -8.1965    0.4364    1.3019 C   0  0  0  0  0  0  0  0  0  0  0  0
   -8.6162   -0.6276    2.1059 C   0  0  0  0  0  0  0  0  0  0  0  0
   -9.9686   -0.7613    2.3774 C   0  0  0  0  0  0  0  0  0  0  0  0
  -10.9161    0.0758    1.9042 N   0  0  0  0  0  0  0  0  0  0  0  0
  -10.4930    1.0875    1.1170 C   0  0  0  0  0  0  0  0  0  0  0  0
   -9.1643    1.3050    0.7885 C   0  0  0  0  0  0  0  0  0  0  0  0
   -4.1994    0.5155   -0.3230 N   0  0  0  0  0  0  0  0  0  0  0  0
   -0.5299    0.7350   -0.2342 C   0  0  0  0  0  0  0  0  0  0  0  0
    4.0205    0.3633    1.0126 H   0  0  0  0  0  0  0  0  0  0  0  0
    3.4716   -2.1513   -1.7268 H   0  0  0  0  0  0  0  0  0  0  0  0
    5.2019   -3.7526   -2.3617 H   0  0  0  0  0  0  0  0  0  0  0  0
    7.4082   -3.7485   -1.2208 H   0  0  0  0  0  0  0  0  0  0  0  0
    9.2632   -1.5156    2.9079 H   0  0  0  0  0  0  0  0  0  0  0  0
   10.5356    0.5685    3.3590 H   0  0  0  0  0  0  0  0  0  0  0  0
   10.8039    2.2691    1.5707 H   0  0  0  0  0  0  0  0  0  0  0  0
    9.8165    1.8799   -0.6732 H   0  0  0  0  0  0  0  0  0  0  0  0
    8.5551   -0.1994   -1.1311 H   0  0  0  0  0  0  0  0  0  0  0  0
    6.1125   -0.5002    1.2682 H   0  0  0  0  0  0  0  0  0  0  0  0
    2.4649    1.6468    0.9450 H   0  0  0  0  0  0  0  0  0  0  0  0
    0.9586    3.3055    1.4300 H   0  0  0  0  0  0  0  0  0  0  0  0
   -1.3450    4.1648    1.3695 H   0  0  0  0  0  0  0  0  0  0  0  0
   -3.1378    2.8634    0.2836 H   0  0  0  0  0  0  0  0  0  0  0  0
   -1.7564   -0.2873   -2.5668 H   0  0  0  0  0  0  0  0  0  0  0  0
   -2.9996   -1.9076   -4.3920 H   0  0  0  0  0  0  0  0  0  0  0  0
   -5.6271   -2.7715   -4.5297 H   0  0  0  0  0  0  0  0  0  0  0  0
   -7.1867   -0.6316   -0.7090 H   0  0  0  0  0  0  0  0  0  0  0  0
   -6.5181    1.6794    0.8383 H   0  0  0  0  0  0  0  0  0  0  0  0
   -6.1182    0.2427    1.7770 H   0  0  0  0  0  0  0  0  0  0  0  0
   -7.9071   -1.3426    2.5108 H   0  0  0  0  0  0  0  0  0  0  0  0
  -10.3367   -1.5723    2.9993 H   0  0  0  0  0  0  0  0  0  0  0  0
  -11.2762    1.7397    0.7412 H   0  0  0  0  0  0  0  0  0  0  0  0
   -8.8926    2.1327    0.1413 H   0  0  0  0  0  0  0  0  0  0  0  0
   -0.3251   -0.2480   -0.6457 H   0  0  0  0  0  0  0  0  0  0  0  0
  1  2  2  0
  2  3  1  0
  3  4  1  0
  4  5  2  0
  5  6  1  0
  6  7  2  0
  7  8  1  0
  8  9  1  0
  9 10  1  0
 10 11  2  0
 11 12  1  0
 12 13  2  0
 13 14  1  0
 14 15  2  0
  8 16  2  0
  2 17  1  0
 17 18  1  0
 18 19  2  0
 19 20  1  0
 20 21  2  0
 21 22  1  0
 22 23  1  0
 23 24  2  0
 24 25  1  0
 25 26  1  0
 26 27  2  0
 27 28  1  0
 28 29  2  0
 29 30  1  0
 30 31  1  0
 31 32  1  0
 32 33  1  0
 33 34  2  0
 34 35  1  0
 35 36  2  0
 36 37  1  0
 37 38  2  0
 30 39  2  0
 22 40  2  0
 16  4  1  0
 40 18  1  0
 15 10  1  0
 39 23  1  0
 29 25  1  0
 38 33  1  0
  3 41  1  0
  5 42  1  0
  6 43  1  0
  7 44  1  0
 11 45  1  0
 12 46  1  0
 13 47  1  0
 14 48  1  0
 15 49  1  0
 16 50  1  0
 17 51  1  0
 19 52  1  0
 20 53  1  0
 21 54  1  0
 24 55  1  0
 26 56  1  0
 27 57  1  0
 31 58  1  0
 32 59  1  0
 32 60  1  0
 34 61  1  0
 35 62  1  0
 37 63  1  0
 38 64  1  0
 40 65  1  0
M  END
$$$$
