LIB_QQWZHMYUROBWLF__M_PUB_ALL__e8__s20260927
     RDKit          3D

 60 64  0  0  0  0  0  0  0  0999 V2000
    4.6520  -13.0120   -1.7880 C   0  0  0  0  0  0  0  0  0  0  0  0
    5.2450  -13.3370   -3.1340 C   0  0  0  0  0  0  0  0  0  0  0  0
    4.4520  -13.1370   -4.2790 C   0  0  0  0  0  0  0  0  0  0  0  0
    4.9380  -13.4480   -5.5480 C   0  0  0  0  0  0  0  0  0  0  0  0
    6.2280  -13.9600   -5.6890 C   0  0  0  0  0  0  0  0  0  0  0  0
    6.7190  -14.3150   -7.0520 C   0  0  0  0  0  0  0  0  0  0  0  0
    7.0360  -15.4780   -7.2720 O   0  0  0  0  0  0  0  0  0  0  0  0
    6.8000  -13.2510   -7.9340 N   0  0  0  0  0  0  0  0  0  0  0  0
    7.1730  -13.2870   -9.2930 C   0  0  0  0  0  0  0  0  0  0  0  0
    6.3080  -13.6270  -10.3340 C   0  0  0  0  0  0  0  0  0  0  0  0
    6.7590  -13.6350  -11.6560 C   0  0  0  0  0  0  0  0  0  0  0  0
    8.0780  -13.2970  -11.9530 C   0  0  0  0  0  0  0  0  0  0  0  0
    8.9610  -12.9400  -10.9260 C   0  0  0  0  0  0  0  0  0  0  0  0
   10.3950  -12.5910  -11.2310 C   0  0  0  0  0  0  0  0  0  0  0  0
   10.7960  -13.0130  -12.4650 F   0  0  0  0  0  0  0  0  0  0  0  0
   11.2820  -13.1330  -10.3500 F   0  0  0  0  0  0  0  0  0  0  0  0
   10.6180  -11.2480  -11.2070 F   0  0  0  0  0  0  0  0  0  0  0  0
    8.4990  -12.9470   -9.5980 C   0  0  0  0  0  0  0  0  0  0  0  0
    7.0350  -14.1200   -4.5560 C   0  0  0  0  0  0  0  0  0  0  0  0
    6.5630  -13.8320   -3.2660 C   0  0  0  0  0  0  0  0  0  0  0  0
    7.3520  -14.0690   -2.1200 N   0  0  0  0  0  0  0  0  0  0  0  0
    8.4660  -13.4070   -1.7080 C   0  0  0  0  0  0  0  0  0  0  0  0
    9.5740  -13.1680   -2.3800 N   0  0  0  0  0  0  0  0  0  0  0  0
   10.4310  -12.5730   -1.5000 C   0  0  0  0  0  0  0  0  0  0  0  0
   11.7650  -12.1810   -1.7000 C   0  0  0  0  0  0  0  0  0  0  0  0
   12.4890  -11.6670   -0.6190 C   0  0  0  0  0  0  0  0  0  0  0  0
   11.9020  -11.5610    0.6400 C   0  0  0  0  0  0  0  0  0  0  0  0
   10.5700  -11.9360    0.8530 C   0  0  0  0  0  0  0  0  0  0  0  0
    9.8380  -12.4000   -0.2540 C   0  0  0  0  0  0  0  0  0  0  0  0
    8.5300  -12.8350   -0.4320 N   0  0  0  0  0  0  0  0  0  0  0  0
    7.4570  -12.8000    0.5120 C   0  0  0  0  0  0  0  0  0  0  0  0
    7.1370  -13.9960    1.0720 N   0  0  0  0  0  0  0  0  0  0  0  0
    6.2140  -13.9690    2.0370 C   0  0  0  0  0  0  0  0  0  0  0  0
    5.5730  -12.8840    2.4710 N   0  0  0  0  0  0  0  0  0  0  0  0
    5.8570  -11.7300    1.8560 C   0  0  0  0  0  0  0  0  0  0  0  0
    5.1080  -10.6530    2.2850 N   0  0  0  0  0  0  0  0  0  0  0  0
    6.7710  -11.6250    0.8130 C   0  0  0  0  0  0  0  0  0  0  0  0
    6.8700  -10.3420    0.0390 C   0  0  0  0  0  0  0  0  0  0  0  0
    5.3203  -13.3783   -0.9948 H   0  0  0  0  0  0  0  0  0  0  0  0
    4.5330  -11.9226   -1.6931 H   0  0  0  0  0  0  0  0  0  0  0  0
    3.6697  -13.4978   -1.6931 H   0  0  0  0  0  0  0  0  0  0  0  0
    3.4357  -12.7301   -4.1714 H   0  0  0  0  0  0  0  0  0  0  0  0
    4.3067  -13.2903   -6.4349 H   0  0  0  0  0  0  0  0  0  0  0  0
    6.5920  -12.3320   -7.5620 H   0  0  0  0  0  0  0  0  0  0  0  0
    5.2634  -13.8906  -10.1119 H   0  0  0  0  0  0  0  0  0  0  0  0
    6.0690  -13.9097  -12.4674 H   0  0  0  0  0  0  0  0  0  0  0  0
    8.4264  -13.3106  -12.9963 H   0  0  0  0  0  0  0  0  0  0  0  0
    9.1896  -12.6812   -8.7841 H   0  0  0  0  0  0  0  0  0  0  0  0
    8.0666  -14.4811   -4.6803 H   0  0  0  0  0  0  0  0  0  0  0  0
    7.0670  -14.8740   -1.5660 H   0  0  0  0  0  0  0  0  0  0  0  0
   12.2329  -12.2767   -2.6909 H   0  0  0  0  0  0  0  0  0  0  0  0
   13.5304  -11.3439   -0.7643 H   0  0  0  0  0  0  0  0  0  0  0  0
   12.4958  -11.1757    1.4820 H   0  0  0  0  0  0  0  0  0  0  0  0
   10.1124  -11.8699    1.8511 H   0  0  0  0  0  0  0  0  0  0  0  0
    5.9606  -14.9264    2.5157 H   0  0  0  0  0  0  0  0  0  0  0  0
    4.5110  -10.8770    3.0730 H   0  0  0  0  0  0  0  0  0  0  0  0
    5.5160   -9.7310    2.2710 H   0  0  0  0  0  0  0  0  0  0  0  0
    6.9353   -9.4958    0.7387 H   0  0  0  0  0  0  0  0  0  0  0  0
    7.7691  -10.3643   -0.5944 H   0  0  0  0  0  0  0  0  0  0  0  0
    5.9781  -10.2261   -0.5944 H   0  0  0  0  0  0  0  0  0  0  0  0
  1  2  1  0
  2  3  2  0
  3  4  1  0
  4  5  2  0
  5  6  1  0
  6  7  2  0
  6  8  1  0
  8  9  1  0
  9 10  2  0
 10 11  1  0
 11 12  2  0
 12 13  1  0
 13 14  1  0
 14 15  1  0
 14 16  1  0
 14 17  1  0
 13 18  2  0
  5 19  1  0
 19 20  2  0
 20 21  1  0
 21 22  1  0
 22 23  2  0
 23 24  1  0
 24 25  2  0
 25 26  1  0
 26 27  2  0
 27 28  1  0
 28 29  2  0
 29 30  1  0
 30 31  1  0
 31 32  2  0
 32 33  1  0
 33 34  2  0
 34 35  1  0
 35 36  1  0
 35 37  2  0
 37 38  1  0
 20  2  1  0
 30 22  1  0
 37 31  1  0
 18  9  1  0
 29 24  1  0
  1 39  1  0
  1 40  1  0
  1 41  1  0
  3 42  1  0
  4 43  1  0
  8 44  1  0
 10 45  1  0
 11 46  1  0
 12 47  1  0
 18 48  1  0
 19 49  1  0
 21 50  1  0
 25 51  1  0
 26 52  1  0
 27 53  1  0
 28 54  1  0
 33 55  1  0
 36 56  1  0
 36 57  1  0
 38 58  1  0
 38 59  1  0
 38 60  1  0
M  END
>  <meeko>  (1) 
{"is_sidechain": [false], "free_energy": -9.302, "intermolecular_energy": -12.837, "internal_energy": -1.977}

$$$$
LIB_QQWZHMYUROBWLF__M_PUB_ALL__e8__s20260927
     RDKit          3D

 60 64  0  0  0  0  0  0  0  0999 V2000
    6.9050  -14.4900   -5.1160 C   0  0  0  0  0  0  0  0  0  0  0  0
    5.8540  -13.7120   -4.3680 C   0  0  0  0  0  0  0  0  0  0  0  0
    4.7920  -13.1490   -5.1000 C   0  0  0  0  0  0  0  0  0  0  0  0
    3.8060  -12.3960   -4.4650 C   0  0  0  0  0  0  0  0  0  0  0  0
    3.8680  -12.1980   -3.0850 C   0  0  0  0  0  0  0  0  0  0  0  0
    2.8210  -11.3630   -2.4280 C   0  0  0  0  0  0  0  0  0  0  0  0
    2.5100  -10.3000   -2.9520 O   0  0  0  0  0  0  0  0  0  0  0  0
    2.3270  -11.8790   -1.2430 N   0  0  0  0  0  0  0  0  0  0  0  0
    1.3030  -11.3480   -0.4330 C   0  0  0  0  0  0  0  0  0  0  0  0
    0.7010  -10.1080   -0.6460 C   0  0  0  0  0  0  0  0  0  0  0  0
   -0.3110   -9.6560    0.2040 C   0  0  0  0  0  0  0  0  0  0  0  0
   -0.7370  -10.4420    1.2730 C   0  0  0  0  0  0  0  0  0  0  0  0
   -0.1560  -11.6970    1.4990 C   0  0  0  0  0  0  0  0  0  0  0  0
   -0.5940  -12.5490    2.6610 C   0  0  0  0  0  0  0  0  0  0  0  0
   -1.7360  -13.2510    2.4080 F   0  0  0  0  0  0  0  0  0  0  0  0
   -0.8460  -11.8310    3.7920 F   0  0  0  0  0  0  0  0  0  0  0  0
    0.3420  -13.4750    3.0080 F   0  0  0  0  0  0  0  0  0  0  0  0
    0.8700  -12.1350    0.6430 C   0  0  0  0  0  0  0  0  0  0  0  0
    4.9000  -12.7920   -2.3470 C   0  0  0  0  0  0  0  0  0  0  0  0
    5.9140  -13.5410   -2.9650 C   0  0  0  0  0  0  0  0  0  0  0  0
    6.9940  -14.0720   -2.2290 N   0  0  0  0  0  0  0  0  0  0  0  0
    8.1620  -13.4680   -1.8870 C   0  0  0  0  0  0  0  0  0  0  0  0
    9.2300  -13.2630   -2.6330 N   0  0  0  0  0  0  0  0  0  0  0  0
   10.1730  -12.7240   -1.8070 C   0  0  0  0  0  0  0  0  0  0  0  0
   11.5050  -12.3860   -2.0960 C   0  0  0  0  0  0  0  0  0  0  0  0
   12.3270  -11.9280   -1.0610 C   0  0  0  0  0  0  0  0  0  0  0  0
   11.8380  -11.8230    0.2390 C   0  0  0  0  0  0  0  0  0  0  0  0
   10.5090  -12.1450    0.5410 C   0  0  0  0  0  0  0  0  0  0  0  0
    9.6790  -12.5530   -0.5180 C   0  0  0  0  0  0  0  0  0  0  0  0
    8.3430  -12.9260   -0.6090 N   0  0  0  0  0  0  0  0  0  0  0  0
    7.3430  -12.8660    0.4120 C   0  0  0  0  0  0  0  0  0  0  0  0
    7.0620  -14.0480    1.0190 N   0  0  0  0  0  0  0  0  0  0  0  0
    6.2130  -13.9950    2.0500 C   0  0  0  0  0  0  0  0  0  0  0  0
    5.6090  -12.8980    2.5060 N   0  0  0  0  0  0  0  0  0  0  0  0
    5.8510  -11.7580    1.8460 C   0  0  0  0  0  0  0  0  0  0  0  0
    5.1390  -10.6690    2.3060 N   0  0  0  0  0  0  0  0  0  0  0  0
    6.6860  -11.6810    0.7360 C   0  0  0  0  0  0  0  0  0  0  0  0
    6.7320  -10.4160   -0.0720 C   0  0  0  0  0  0  0  0  0  0  0  0
    7.5747  -14.9857   -4.3978 H   0  0  0  0  0  0  0  0  0  0  0  0
    6.4195  -15.2481   -5.7482 H   0  0  0  0  0  0  0  0  0  0  0  0
    7.4882  -13.8043   -5.7482 H   0  0  0  0  0  0  0  0  0  0  0  0
    4.7395  -13.3053   -6.1876 H   0  0  0  0  0  0  0  0  0  0  0  0
    2.9824  -11.9596   -5.0491 H   0  0  0  0  0  0  0  0  0  0  0  0
    2.7630  -12.7260   -0.8960 H   0  0  0  0  0  0  0  0  0  0  0  0
    1.0256   -9.4813   -1.4897 H   0  0  0  0  0  0  0  0  0  0  0  0
   -0.7744   -8.6739    0.0286 H   0  0  0  0  0  0  0  0  0  0  0  0
   -1.5310  -10.0765    1.9408 H   0  0  0  0  0  0  0  0  0  0  0  0
    1.3413  -13.1129    0.8210 H   0  0  0  0  0  0  0  0  0  0  0  0
    4.9163  -12.6683   -1.2541 H   0  0  0  0  0  0  0  0  0  0  0  0
    6.8920  -15.0520   -1.9700 H   0  0  0  0  0  0  0  0  0  0  0  0
   11.8957  -12.4799   -3.1200 H   0  0  0  0  0  0  0  0  0  0  0  0
   13.3689  -11.6482   -1.2757 H   0  0  0  0  0  0  0  0  0  0  0  0
   12.5073  -11.4813    1.0423 H   0  0  0  0  0  0  0  0  0  0  0  0
   10.1277  -12.0810    1.5708 H   0  0  0  0  0  0  0  0  0  0  0  0
    5.9934  -14.9403    2.5678 H   0  0  0  0  0  0  0  0  0  0  0  0
    5.3460  -10.4410    3.2710 H   0  0  0  0  0  0  0  0  0  0  0  0
    4.9650   -9.8950    1.6820 H   0  0  0  0  0  0  0  0  0  0  0  0
    6.7635   -9.5495    0.6049 H   0  0  0  0  0  0  0  0  0  0  0  0
    7.6306  -10.4186   -0.7064 H   0  0  0  0  0  0  0  0  0  0  0  0
    5.8355  -10.3533   -0.7064 H   0  0  0  0  0  0  0  0  0  0  0  0
  1  2  1  0
  2  3  2  0
  3  4  1  0
  4  5  2  0
  5  6  1  0
  6  7  2  0
  6  8  1  0
  8  9  1  0
  9 10  2  0
 10 11  1  0
 11 12  2  0
 12 13  1  0
 13 14  1  0
 14 15  1  0
 14 16  1  0
 14 17  1  0
 13 18  2  0
  5 19  1  0
 19 20  2  0
 20 21  1  0
 21 22  1  0
 22 23  2  0
 23 24  1  0
 24 25  2  0
 25 26  1  0
 26 27  2  0
 27 28  1  0
 28 29  2  0
 29 30  1  0
 30 31  1  0
 31 32  2  0
 32 33  1  0
 33 34  2  0
 34 35  1  0
 35 36  1  0
 35 37  2  0
 37 38  1  0
 20  2  1  0
 30 22  1  0
 37 31  1  0
 18  9  1  0
 29 24  1  0
  1 39  1  0
  1 40  1  0
  1 41  1  0
  3 42  1  0
  4 43  1  0
  8 44  1  0
 10 45  1  0
 11 46  1  0
 12 47  1  0
 18 48  1  0
 19 49  1  0
 21 50  1  0
 25 51  1  0
 26 52  1  0
 27 53  1  0
 28 54  1  0
 33 55  1  0
 36 56  1  0
 36 57  1  0
 38 58  1  0
 38 59  1  0
 38 60  1  0
M  END
>  <meeko>  (2) 
{"is_sidechain": [false], "free_energy": -9.208, "intermolecular_energy": -12.692, "internal_energy": -1.993}

$$$$
LIB_QQWZHMYUROBWLF__M_PUB_ALL__e8__s20260927
     RDKit          3D

 60 64  0  0  0  0  0  0  0  0999 V2000
    5.9520  -12.4760   -5.0690 C   0  0  0  0  0  0  0  0  0  0  0  0
    5.0590  -12.4310   -3.8570 C   0  0  0  0  0  0  0  0  0  0  0  0
    3.8650  -11.6900   -3.9330 C   0  0  0  0  0  0  0  0  0  0  0  0
    3.0150  -11.5900   -2.8330 C   0  0  0  0  0  0  0  0  0  0  0  0
    3.3460  -12.2350   -1.6420 C   0  0  0  0  0  0  0  0  0  0  0  0
    2.4380  -12.0910   -0.4660 C   0  0  0  0  0  0  0  0  0  0  0  0
    2.9220  -11.7390    0.6030 O   0  0  0  0  0  0  0  0  0  0  0  0
    1.1160  -12.4180   -0.7110 N   0  0  0  0  0  0  0  0  0  0  0  0
    0.0280  -12.3290    0.1810 C   0  0  0  0  0  0  0  0  0  0  0  0
   -0.7350  -13.4200    0.5960 C   0  0  0  0  0  0  0  0  0  0  0  0
   -1.7970  -13.2450    1.4860 C   0  0  0  0  0  0  0  0  0  0  0  0
   -2.1050  -11.9770    1.9750 C   0  0  0  0  0  0  0  0  0  0  0  0
   -1.3450  -10.8680    1.5810 C   0  0  0  0  0  0  0  0  0  0  0  0
   -1.6780   -9.4890    2.0890 C   0  0  0  0  0  0  0  0  0  0  0  0
   -0.5900   -8.6700    2.1640 F   0  0  0  0  0  0  0  0  0  0  0  0
   -2.2250   -9.4910    3.3370 F   0  0  0  0  0  0  0  0  0  0  0  0
   -2.5740   -8.8450    1.2900 F   0  0  0  0  0  0  0  0  0  0  0  0
   -0.2860  -11.0560    0.6770 C   0  0  0  0  0  0  0  0  0  0  0  0
    4.5110  -13.0090   -1.5750 C   0  0  0  0  0  0  0  0  0  0  0  0
    5.3930  -13.1110   -2.6620 C   0  0  0  0  0  0  0  0  0  0  0  0
    6.6050  -13.8270   -2.5660 N   0  0  0  0  0  0  0  0  0  0  0  0
    7.8520  -13.3490   -2.3160 C   0  0  0  0  0  0  0  0  0  0  0  0
    8.8530  -13.1860   -3.1590 N   0  0  0  0  0  0  0  0  0  0  0  0
    9.9210  -12.7850   -2.4070 C   0  0  0  0  0  0  0  0  0  0  0  0
   11.2420  -12.5430   -2.8160 C   0  0  0  0  0  0  0  0  0  0  0  0
   12.2020  -12.2260   -1.8500 C   0  0  0  0  0  0  0  0  0  0  0  0
   11.8580  -12.1680   -0.5010 C   0  0  0  0  0  0  0  0  0  0  0  0
   10.5430  -12.3960   -0.0780 C   0  0  0  0  0  0  0  0  0  0  0  0
    9.5770  -12.6590   -1.0650 C   0  0  0  0  0  0  0  0  0  0  0  0
    8.2100  -12.9120   -1.0350 N   0  0  0  0  0  0  0  0  0  0  0  0
    7.3280  -12.8360    0.0880 C   0  0  0  0  0  0  0  0  0  0  0  0
    7.1030  -14.0110    0.7300 N   0  0  0  0  0  0  0  0  0  0  0  0
    6.3730  -13.9440    1.8470 C   0  0  0  0  0  0  0  0  0  0  0  0
    5.8320  -12.8380    2.3580 N   0  0  0  0  0  0  0  0  0  0  0  0
    6.0110  -11.7050    1.6690 C   0  0  0  0  0  0  0  0  0  0  0  0
    5.3630  -10.6060    2.1950 N   0  0  0  0  0  0  0  0  0  0  0  0
    6.7210  -11.6420    0.4730 C   0  0  0  0  0  0  0  0  0  0  0  0
    6.6900  -10.3830   -0.3430 C   0  0  0  0  0  0  0  0  0  0  0  0
    7.0029  -12.5290   -4.7484 H   0  0  0  0  0  0  0  0  0  0  0  0
    5.7074  -13.3630   -5.6719 H   0  0  0  0  0  0  0  0  0  0  0  0
    5.7979  -11.5689   -5.6719 H   0  0  0  0  0  0  0  0  0  0  0  0
    3.5992  -11.1833   -4.8725 H   0  0  0  0  0  0  0  0  0  0  0  0
    2.0865  -11.0044   -2.9042 H   0  0  0  0  0  0  0  0  0  0  0  0
    0.8990  -12.7870   -1.6290 H   0  0  0  0  0  0  0  0  0  0  0  0
   -0.4986  -14.4262    0.2195 H   0  0  0  0  0  0  0  0  0  0  0  0
   -2.3937  -14.1131    1.8028 H   0  0  0  0  0  0  0  0  0  0  0  0
   -2.9463  -11.8466    2.6716 H   0  0  0  0  0  0  0  0  0  0  0  0
    0.3075  -10.1885    0.3526 H   0  0  0  0  0  0  0  0  0  0  0  0
    4.7410  -13.5513   -0.6460 H   0  0  0  0  0  0  0  0  0  0  0  0
    6.5270  -14.8240   -2.7610 H   0  0  0  0  0  0  0  0  0  0  0  0
   11.5174  -12.6018   -3.8793 H   0  0  0  0  0  0  0  0  0  0  0  0
   13.2379  -12.0206   -2.1578 H   0  0  0  0  0  0  0  0  0  0  0  0
   12.6334  -11.9390    0.2449 H   0  0  0  0  0  0  0  0  0  0  0  0
   10.2752  -12.3703    0.9886 H   0  0  0  0  0  0  0  0  0  0  0  0
    6.2035  -14.8839    2.3928 H   0  0  0  0  0  0  0  0  0  0  0  0
    4.3560  -10.6560    2.0950 H   0  0  0  0  0  0  0  0  0  0  0  0
    5.7160  -10.1840    3.0410 H   0  0  0  0  0  0  0  0  0  0  0  0
    6.6685   -9.5116    0.3280 H   0  0  0  0  0  0  0  0  0  0  0  0
    7.5872  -10.3351   -0.9776 H   0  0  0  0  0  0  0  0  0  0  0  0
    5.7915  -10.3794   -0.9776 H   0  0  0  0  0  0  0  0  0  0  0  0
  1  2  1  0
  2  3  2  0
  3  4  1  0
  4  5  2  0
  5  6  1  0
  6  7  2  0
  6  8  1  0
  8  9  1  0
  9 10  2  0
 10 11  1  0
 11 12  2  0
 12 13  1  0
 13 14  1  0
 14 15  1  0
 14 16  1  0
 14 17  1  0
 13 18  2  0
  5 19  1  0
 19 20  2  0
 20 21  1  0
 21 22  1  0
 22 23  2  0
 23 24  1  0
 24 25  2  0
 25 26  1  0
 26 27  2  0
 27 28  1  0
 28 29  2  0
 29 30  1  0
 30 31  1  0
 31 32  2  0
 32 33  1  0
 33 34  2  0
 34 35  1  0
 35 36  1  0
 35 37  2  0
 37 38  1  0
 20  2  1  0
 30 22  1  0
 37 31  1  0
 18  9  1  0
 29 24  1  0
  1 39  1  0
  1 40  1  0
  1 41  1  0
  3 42  1  0
  4 43  1  0
  8 44  1  0
 10 45  1  0
 11 46  1  0
 12 47  1  0
 18 48  1  0
 19 49  1  0
 21 50  1  0
 25 51  1  0
 26 52  1  0
 27 53  1  0
 28 54  1  0
 33 55  1  0
 36 56  1  0
 36 57  1  0
 38 58  1  0
 38 59  1  0
 38 60  1  0
M  END
>  <meeko>  (3) 
{"is_sidechain": [false], "free_energy": -8.974, "intermolecular_energy": -12.372, "internal_energy": -1.989}

$$$$
LIB_QQWZHMYUROBWLF__M_PUB_ALL__e8__s20260927
     RDKit          3D

 60 64  0  0  0  0  0  0  0  0999 V2000
    5.0900  -18.2910   -0.6940 C   0  0  0  0  0  0  0  0  0  0  0  0
    6.3420  -17.4630   -0.8330 C   0  0  0  0  0  0  0  0  0  0  0  0
    7.5640  -18.1300   -1.0340 C   0  0  0  0  0  0  0  0  0  0  0  0
    8.7580  -17.4170   -1.1410 C   0  0  0  0  0  0  0  0  0  0  0  0
    8.7420  -16.0250   -1.0520 C   0  0  0  0  0  0  0  0  0  0  0  0
   10.0330  -15.2820   -1.1390 C   0  0  0  0  0  0  0  0  0  0  0  0
   11.0170  -15.8720   -1.5700 O   0  0  0  0  0  0  0  0  0  0  0  0
    9.9860  -13.9800   -0.6730 N   0  0  0  0  0  0  0  0  0  0  0  0
   11.0230  -13.0260   -0.6770 C   0  0  0  0  0  0  0  0  0  0  0  0
   11.2650  -12.1280    0.3630 C   0  0  0  0  0  0  0  0  0  0  0  0
   12.3180  -11.2140    0.2790 C   0  0  0  0  0  0  0  0  0  0  0  0
   13.1440  -11.1920   -0.8430 C   0  0  0  0  0  0  0  0  0  0  0  0
   12.9270  -12.0920   -1.8940 C   0  0  0  0  0  0  0  0  0  0  0  0
   13.8020  -12.0660   -3.1210 C   0  0  0  0  0  0  0  0  0  0  0  0
   14.9410  -11.3360   -2.9490 F   0  0  0  0  0  0  0  0  0  0  0  0
   13.1840  -11.5330   -4.2130 F   0  0  0  0  0  0  0  0  0  0  0  0
   14.2110  -13.3100   -3.4930 F   0  0  0  0  0  0  0  0  0  0  0  0
   11.8580  -12.9990   -1.8030 C   0  0  0  0  0  0  0  0  0  0  0  0
    7.5220  -15.3560   -0.8950 C   0  0  0  0  0  0  0  0  0  0  0  0
    6.3100  -16.0510   -0.7670 C   0  0  0  0  0  0  0  0  0  0  0  0
    5.0920  -15.3770   -0.5300 N   0  0  0  0  0  0  0  0  0  0  0  0
    4.3470  -14.6460   -1.4000 C   0  0  0  0  0  0  0  0  0  0  0  0
    3.5220  -15.0740   -2.3340 N   0  0  0  0  0  0  0  0  0  0  0  0
    3.1050  -13.9630   -3.0110 C   0  0  0  0  0  0  0  0  0  0  0  0
    2.2730  -13.8810   -4.1380 C   0  0  0  0  0  0  0  0  0  0  0  0
    2.0500  -12.6320   -4.7260 C   0  0  0  0  0  0  0  0  0  0  0  0
    2.6580  -11.4880   -4.2130 C   0  0  0  0  0  0  0  0  0  0  0  0
    3.4820  -11.5510   -3.0820 C   0  0  0  0  0  0  0  0  0  0  0  0
    3.6530  -12.8050   -2.4690 C   0  0  0  0  0  0  0  0  0  0  0  0
    4.3600  -13.2460   -1.3560 N   0  0  0  0  0  0  0  0  0  0  0  0
    5.0520  -12.4570   -0.3860 C   0  0  0  0  0  0  0  0  0  0  0  0
    4.3900  -12.2630    0.7840 N   0  0  0  0  0  0  0  0  0  0  0  0
    5.0620  -11.6230    1.7450 C   0  0  0  0  0  0  0  0  0  0  0  0
    6.3020  -11.1440    1.6420 N   0  0  0  0  0  0  0  0  0  0  0  0
    6.9070  -11.2880    0.4560 C   0  0  0  0  0  0  0  0  0  0  0  0
    8.1540  -10.7040    0.3750 N   0  0  0  0  0  0  0  0  0  0  0  0
    6.3060  -11.9030   -0.6380 C   0  0  0  0  0  0  0  0  0  0  0  0
    6.9650  -11.8310   -1.9850 C   0  0  0  0  0  0  0  0  0  0  0  0
    4.8652  -18.4396    0.3725 H   0  0  0  0  0  0  0  0  0  0  0  0
    4.2501  -17.7696   -1.1765 H   0  0  0  0  0  0  0  0  0  0  0  0
    5.2410  -19.2679   -1.1765 H   0  0  0  0  0  0  0  0  0  0  0  0
    7.5782  -19.2274   -1.1077 H   0  0  0  0  0  0  0  0  0  0  0  0
    9.7079  -17.9499   -1.2949 H   0  0  0  0  0  0  0  0  0  0  0  0
    9.1140  -13.6760   -0.2550 H   0  0  0  0  0  0  0  0  0  0  0  0
   10.6220  -12.1398    1.2554 H   0  0  0  0  0  0  0  0  0  0  0  0
   12.4961  -10.5076    1.1032 H   0  0  0  0  0  0  0  0  0  0  0  0
   13.9683  -10.4662   -0.9034 H   0  0  0  0  0  0  0  0  0  0  0  0
   11.6728  -13.7004   -2.6298 H   0  0  0  0  0  0  0  0  0  0  0  0
    7.5136  -14.2563   -0.8714 H   0  0  0  0  0  0  0  0  0  0  0  0
    4.7680  -15.4100    0.4360 H   0  0  0  0  0  0  0  0  0  0  0  0
    1.8035  -14.7853   -4.5525 H   0  0  0  0  0  0  0  0  0  0  0  0
    1.3887  -12.5519   -5.6014 H   0  0  0  0  0  0  0  0  0  0  0  0
    2.4880  -10.5188   -4.7046 H   0  0  0  0  0  0  0  0  0  0  0  0
    3.9776  -10.6517   -2.6874 H   0  0  0  0  0  0  0  0  0  0  0  0
    4.5468  -11.4785    2.7061 H   0  0  0  0  0  0  0  0  0  0  0  0
    8.9080  -11.3820    0.3790 H   0  0  0  0  0  0  0  0  0  0  0  0
    8.2800   -9.8870   -0.2020 H   0  0  0  0  0  0  0  0  0  0  0  0
    8.0510  -11.7124   -1.8560 H   0  0  0  0  0  0  0  0  0  0  0  0
    6.7610  -12.7568   -2.5430 H   0  0  0  0  0  0  0  0  0  0  0  0
    6.5659  -10.9711   -2.5430 H   0  0  0  0  0  0  0  0  0  0  0  0
  1  2  1  0
  2  3  2  0
  3  4  1  0
  4  5  2  0
  5  6  1  0
  6  7  2  0
  6  8  1  0
  8  9  1  0
  9 10  2  0
 10 11  1  0
 11 12  2  0
 12 13  1  0
 13 14  1  0
 14 15  1  0
 14 16  1  0
 14 17  1  0
 13 18  2  0
  5 19  1  0
 19 20  2  0
 20 21  1  0
 21 22  1  0
 22 23  2  0
 23 24  1  0
 24 25  2  0
 25 26  1  0
 26 27  2  0
 27 28  1  0
 28 29  2  0
 29 30  1  0
 30 31  1  0
 31 32  2  0
 32 33  1  0
 33 34  2  0
 34 35  1  0
 35 36  1  0
 35 37  2  0
 37 38  1  0
 20  2  1  0
 30 22  1  0
 37 31  1  0
 18  9  1  0
 29 24  1  0
  1 39  1  0
  1 40  1  0
  1 41  1  0
  3 42  1  0
  4 43  1  0
  8 44  1  0
 10 45  1  0
 11 46  1  0
 12 47  1  0
 18 48  1  0
 19 49  1  0
 21 50  1  0
 25 51  1  0
 26 52  1  0
 27 53  1  0
 28 54  1  0
 33 55  1  0
 36 56  1  0
 36 57  1  0
 38 58  1  0
 38 59  1  0
 38 60  1  0
M  END
>  <meeko>  (4) 
{"is_sidechain": [false], "free_energy": -8.957, "intermolecular_energy": -12.304, "internal_energy": -2.034}

$$$$
LIB_QQWZHMYUROBWLF__M_PUB_ALL__e8__s20260927
     RDKit          3D

 60 64  0  0  0  0  0  0  0  0999 V2000
    5.2470  -12.2210   -5.5740 C   0  0  0  0  0  0  0  0  0  0  0  0
    4.4920  -12.1090   -4.2760 C   0  0  0  0  0  0  0  0  0  0  0  0
    3.3360  -11.3060   -4.2420 C   0  0  0  0  0  0  0  0  0  0  0  0
    2.6140  -11.1430   -3.0610 C   0  0  0  0  0  0  0  0  0  0  0  0
    3.0360  -11.7850   -1.8980 C   0  0  0  0  0  0  0  0  0  0  0  0
    2.2670  -11.5730   -0.6370 C   0  0  0  0  0  0  0  0  0  0  0  0
    2.7660  -11.9440    0.4190 O   0  0  0  0  0  0  0  0  0  0  0  0
    1.0200  -10.9970   -0.8080 N   0  0  0  0  0  0  0  0  0  0  0  0
    0.0970  -10.6280    0.1920 C   0  0  0  0  0  0  0  0  0  0  0  0
    0.1970   -9.4680    0.9600 C   0  0  0  0  0  0  0  0  0  0  0  0
   -0.7640   -9.1760    1.9310 C   0  0  0  0  0  0  0  0  0  0  0  0
   -1.8380  -10.0380    2.1400 C   0  0  0  0  0  0  0  0  0  0  0  0
   -1.9660  -11.2030    1.3720 C   0  0  0  0  0  0  0  0  0  0  0  0
   -3.1140  -12.1520    1.6010 C   0  0  0  0  0  0  0  0  0  0  0  0
   -4.2090  -11.8590    0.8430 F   0  0  0  0  0  0  0  0  0  0  0  0
   -3.5520  -12.1680    2.8910 F   0  0  0  0  0  0  0  0  0  0  0  0
   -2.7890  -13.4400    1.3010 F   0  0  0  0  0  0  0  0  0  0  0  0
   -0.9870  -11.4910    0.4060 C   0  0  0  0  0  0  0  0  0  0  0  0
    4.1610  -12.6180   -1.9370 C   0  0  0  0  0  0  0  0  0  0  0  0
    4.9150  -12.7860   -3.1080 C   0  0  0  0  0  0  0  0  0  0  0  0
    6.0920  -13.5640   -3.1250 N   0  0  0  0  0  0  0  0  0  0  0  0
    7.3580  -13.1890   -2.8020 C   0  0  0  0  0  0  0  0  0  0  0  0
    8.3120  -12.7500   -3.5990 N   0  0  0  0  0  0  0  0  0  0  0  0
    9.4260  -12.6170   -2.8200 C   0  0  0  0  0  0  0  0  0  0  0  0
   10.7250  -12.2460   -3.2000 C   0  0  0  0  0  0  0  0  0  0  0  0
   11.7430  -12.2630   -2.2410 C   0  0  0  0  0  0  0  0  0  0  0  0
   11.4760  -12.6590   -0.9320 C   0  0  0  0  0  0  0  0  0  0  0  0
   10.1830  -13.0210   -0.5340 C   0  0  0  0  0  0  0  0  0  0  0  0
    9.1600  -12.9460   -1.4950 C   0  0  0  0  0  0  0  0  0  0  0  0
    7.7930  -13.2010   -1.4710 N   0  0  0  0  0  0  0  0  0  0  0  0
    6.9770  -13.5080   -0.3380 C   0  0  0  0  0  0  0  0  0  0  0  0
    6.6750  -14.8220   -0.1790 N   0  0  0  0  0  0  0  0  0  0  0  0
    6.0070  -15.1440    0.9330 C   0  0  0  0  0  0  0  0  0  0  0  0
    5.5970  -14.2900    1.8710 N   0  0  0  0  0  0  0  0  0  0  0  0
    5.8480  -12.9930    1.6550 C   0  0  0  0  0  0  0  0  0  0  0  0
    5.3320  -12.1430    2.6120 N   0  0  0  0  0  0  0  0  0  0  0  0
    6.5030  -12.5190    0.5220 C   0  0  0  0  0  0  0  0  0  0  0  0
    6.5500  -11.0430    0.2550 C   0  0  0  0  0  0  0  0  0  0  0  0
    6.3152  -12.3795   -5.3644 H   0  0  0  0  0  0  0  0  0  0  0  0
    4.8569  -13.0711   -6.1529 H   0  0  0  0  0  0  0  0  0  0  0  0
    5.1205  -11.2943   -6.1529 H   0  0  0  0  0  0  0  0  0  0  0  0
    2.9984  -10.8009   -5.1590 H   0  0  0  0  0  0  0  0  0  0  0  0
    1.7145  -10.5100   -3.0468 H   0  0  0  0  0  0  0  0  0  0  0  0
    0.7170  -10.8390   -1.7620 H   0  0  0  0  0  0  0  0  0  0  0  0
    1.0387   -8.7781    0.8000 H   0  0  0  0  0  0  0  0  0  0  0  0
   -0.6720   -8.2604    2.5337 H   0  0  0  0  0  0  0  0  0  0  0  0
   -2.5877   -9.8035    2.9100 H   0  0  0  0  0  0  0  0  0  0  0  0
   -1.0726  -12.4097   -0.1928 H   0  0  0  0  0  0  0  0  0  0  0  0
    4.4615  -13.1549   -1.0252 H   0  0  0  0  0  0  0  0  0  0  0  0
    5.9700  -14.5130   -3.4730 H   0  0  0  0  0  0  0  0  0  0  0  0
   10.9394  -11.9463   -4.2365 H   0  0  0  0  0  0  0  0  0  0  0  0
   12.7627  -11.9613   -2.5224 H   0  0  0  0  0  0  0  0  0  0  0  0
   12.2952  -12.6878   -0.1984 H   0  0  0  0  0  0  0  0  0  0  0  0
    9.9754  -13.3523    0.4942 H   0  0  0  0  0  0  0  0  0  0  0  0
    5.7750  -16.2080    1.0879 H   0  0  0  0  0  0  0  0  0  0  0  0
    5.6020  -11.1770    2.4690 H   0  0  0  0  0  0  0  0  0  0  0  0
    4.4030  -12.3080    2.9690 H   0  0  0  0  0  0  0  0  0  0  0  0
    6.5674  -10.4979    1.2103 H   0  0  0  0  0  0  0  0  0  0  0  0
    7.4562  -10.8032   -0.3205 H   0  0  0  0  0  0  0  0  0  0  0  0
    5.6609  -10.7460   -0.3205 H   0  0  0  0  0  0  0  0  0  0  0  0
  1  2  1  0
  2  3  2  0
  3  4  1  0
  4  5  2  0
  5  6  1  0
  6  7  2  0
  6  8  1  0
  8  9  1  0
  9 10  2  0
 10 11  1  0
 11 12  2  0
 12 13  1  0
 13 14  1  0
 14 15  1  0
 14 16  1  0
 14 17  1  0
 13 18  2  0
  5 19  1  0
 19 20  2  0
 20 21  1  0
 21 22  1  0
 22 23  2  0
 23 24  1  0
 24 25  2  0
 25 26  1  0
 26 27  2  0
 27 28  1  0
 28 29  2  0
 29 30  1  0
 30 31  1  0
 31 32  2  0
 32 33  1  0
 33 34  2  0
 34 35  1  0
 35 36  1  0
 35 37  2  0
 37 38  1  0
 20  2  1  0
 30 22  1  0
 37 31  1  0
 18  9  1  0
 29 24  1  0
  1 39  1  0
  1 40  1  0
  1 41  1  0
  3 42  1  0
  4 43  1  0
  8 44  1  0
 10 45  1  0
 11 46  1  0
 12 47  1  0
 18 48  1  0
 19 49  1  0
 21 50  1  0
 25 51  1  0
 26 52  1  0
 27 53  1  0
 28 54  1  0
 33 55  1  0
 36 56  1  0
 36 57  1  0
 38 58  1  0
 38 59  1  0
 38 60  1  0
M  END
>  <meeko>  (5) 
{"is_sidechain": [false], "free_energy": -8.861, "intermolecular_energy": -12.0, "internal_energy": -2.205}

$$$$
LIB_QQWZHMYUROBWLF__M_PUB_ALL__e8__s20260927
     RDKit          3D

 60 64  0  0  0  0  0  0  0  0999 V2000
    6.5930  -11.3340   -0.4210 C   0  0  0  0  0  0  0  0  0  0  0  0
    6.5240  -11.8620   -1.8300 C   0  0  0  0  0  0  0  0  0  0  0  0
    5.4740  -11.4230   -2.6580 C   0  0  0  0  0  0  0  0  0  0  0  0
    5.3440  -11.9010   -3.9610 C   0  0  0  0  0  0  0  0  0  0  0  0
    6.2670  -12.8220   -4.4550 C   0  0  0  0  0  0  0  0  0  0  0  0
    6.0930  -13.3440   -5.8420 C   0  0  0  0  0  0  0  0  0  0  0  0
    5.0100  -13.1860   -6.3920 O   0  0  0  0  0  0  0  0  0  0  0  0
    7.1960  -14.0030   -6.3560 N   0  0  0  0  0  0  0  0  0  0  0  0
    7.3480  -14.5510   -7.6460 C   0  0  0  0  0  0  0  0  0  0  0  0
    7.6620  -15.8860   -7.8970 C   0  0  0  0  0  0  0  0  0  0  0  0
    7.7920  -16.3490   -9.2090 C   0  0  0  0  0  0  0  0  0  0  0  0
    7.6030  -15.4830  -10.2840 C   0  0  0  0  0  0  0  0  0  0  0  0
    7.2750  -14.1400  -10.0560 C   0  0  0  0  0  0  0  0  0  0  0  0
    7.0860  -13.1880  -11.2090 C   0  0  0  0  0  0  0  0  0  0  0  0
    5.8840  -13.3400  -11.8350 F   0  0  0  0  0  0  0  0  0  0  0  0
    8.0290  -13.3260  -12.1820 F   0  0  0  0  0  0  0  0  0  0  0  0
    7.1400  -11.8840  -10.8190 F   0  0  0  0  0  0  0  0  0  0  0  0
    7.1580  -13.6840   -8.7310 C   0  0  0  0  0  0  0  0  0  0  0  0
    7.3370  -13.2290   -3.6490 C   0  0  0  0  0  0  0  0  0  0  0  0
    7.4810  -12.7770   -2.3280 C   0  0  0  0  0  0  0  0  0  0  0  0
    8.5160  -13.2500   -1.4930 N   0  0  0  0  0  0  0  0  0  0  0  0
    9.0910  -14.4810   -1.4740 C   0  0  0  0  0  0  0  0  0  0  0  0
    8.5110  -15.6560   -1.3370 N   0  0  0  0  0  0  0  0  0  0  0  0
    9.5200  -16.5730   -1.2690 C   0  0  0  0  0  0  0  0  0  0  0  0
    9.4370  -17.9580   -1.0560 C   0  0  0  0  0  0  0  0  0  0  0  0
   10.6180  -18.6960   -0.9300 C   0  0  0  0  0  0  0  0  0  0  0  0
   11.8580  -18.0660   -0.9980 C   0  0  0  0  0  0  0  0  0  0  0  0
   11.9590  -16.6870   -1.2210 C   0  0  0  0  0  0  0  0  0  0  0  0
   10.7650  -15.9660   -1.4000 C   0  0  0  0  0  0  0  0  0  0  0  0
   10.4720  -14.6300   -1.6490 N   0  0  0  0  0  0  0  0  0  0  0  0
   11.3870  -13.5710   -1.9440 C   0  0  0  0  0  0  0  0  0  0  0  0
   11.5340  -13.2820   -3.2630 N   0  0  0  0  0  0  0  0  0  0  0  0
   12.2970  -12.2250   -3.5540 C   0  0  0  0  0  0  0  0  0  0  0  0
   12.9370  -11.4580   -2.6710 N   0  0  0  0  0  0  0  0  0  0  0  0
   12.8300  -11.8060   -1.3820 C   0  0  0  0  0  0  0  0  0  0  0  0
   13.5760  -11.0330   -0.5170 N   0  0  0  0  0  0  0  0  0  0  0  0
   12.0960  -12.9060   -0.9460 C   0  0  0  0  0  0  0  0  0  0  0  0
   12.2050  -13.3510    0.4830 C   0  0  0  0  0  0  0  0  0  0  0  0
    6.4841  -12.1674    0.2886 H   0  0  0  0  0  0  0  0  0  0  0  0
    7.5632  -10.8409   -0.2613 H   0  0  0  0  0  0  0  0  0  0  0  0
    5.7821  -10.6081   -0.2613 H   0  0  0  0  0  0  0  0  0  0  0  0
    4.7468  -10.6935   -2.2721 H   0  0  0  0  0  0  0  0  0  0  0  0
    4.5166  -11.5530   -4.5969 H   0  0  0  0  0  0  0  0  0  0  0  0
    7.9830  -14.1340   -5.7310 H   0  0  0  0  0  0  0  0  0  0  0  0
    7.8085  -16.5799   -7.0561 H   0  0  0  0  0  0  0  0  0  0  0  0
    8.0450  -17.4034   -9.3942 H   0  0  0  0  0  0  0  0  0  0  0  0
    7.7115  -15.8544  -11.3137 H   0  0  0  0  0  0  0  0  0  0  0  0
    6.9131  -12.6283   -8.5426 H   0  0  0  0  0  0  0  0  0  0  0  0
    8.0850  -13.9217   -4.0622 H   0  0  0  0  0  0  0  0  0  0  0  0
    8.8280  -12.5870   -0.7850 H   0  0  0  0  0  0  0  0  0  0  0  0
    8.4580  -18.4551   -0.9892 H   0  0  0  0  0  0  0  0  0  0  0  0
   10.5671  -19.7839   -0.7758 H   0  0  0  0  0  0  0  0  0  0  0  0
   12.7743  -18.6619   -0.8744 H   0  0  0  0  0  0  0  0  0  0  0  0
   12.9376  -16.1857   -1.2549 H   0  0  0  0  0  0  0  0  0  0  0  0
   12.4071  -11.9641   -4.6169 H   0  0  0  0  0  0  0  0  0  0  0  0
   13.9320  -11.5570    0.2740 H   0  0  0  0  0  0  0  0  0  0  0  0
   14.1730  -10.3100   -0.8900 H   0  0  0  0  0  0  0  0  0  0  0  0
   11.9967  -12.5005    1.1488 H   0  0  0  0  0  0  0  0  0  0  0  0
   11.4768  -14.1530    0.6738 H   0  0  0  0  0  0  0  0  0  0  0  0
   13.2215  -13.7257    0.6738 H   0  0  0  0  0  0  0  0  0  0  0  0
  1  2  1  0
  2  3  2  0
  3  4  1  0
  4  5  2  0
  5  6  1  0
  6  7  2  0
  6  8  1  0
  8  9  1  0
  9 10  2  0
 10 11  1  0
 11 12  2  0
 12 13  1  0
 13 14  1  0
 14 15  1  0
 14 16  1  0
 14 17  1  0
 13 18  2  0
  5 19  1  0
 19 20  2  0
 20 21  1  0
 21 22  1  0
 22 23  2  0
 23 24  1  0
 24 25  2  0
 25 26  1  0
 26 27  2  0
 27 28  1  0
 28 29  2  0
 29 30  1  0
 30 31  1  0
 31 32  2  0
 32 33  1  0
 33 34  2  0
 34 35  1  0
 35 36  1  0
 35 37  2  0
 37 38  1  0
 20  2  1  0
 30 22  1  0
 37 31  1  0
 18  9  1  0
 29 24  1  0
  1 39  1  0
  1 40  1  0
  1 41  1  0
  3 42  1  0
  4 43  1  0
  8 44  1  0
 10 45  1  0
 11 46  1  0
 12 47  1  0
 18 48  1  0
 19 49  1  0
 21 50  1  0
 25 51  1  0
 26 52  1  0
 27 53  1  0
 28 54  1  0
 33 55  1  0
 36 56  1  0
 36 57  1  0
 38 58  1  0
 38 59  1  0
 38 60  1  0
M  END
>  <meeko>  (6) 
{"is_sidechain": [false], "free_energy": -8.823, "intermolecular_energy": -12.443, "internal_energy": -1.711}

$$$$
LIB_QQWZHMYUROBWLF__M_PUB_ALL__e8__s20260927
     RDKit          3D

 60 64  0  0  0  0  0  0  0  0999 V2000
    1.8050  -13.2890   -3.4240 C   0  0  0  0  0  0  0  0  0  0  0  0
    3.0990  -12.7800   -2.8450 C   0  0  0  0  0  0  0  0  0  0  0  0
    4.1320  -12.4220   -3.7310 C   0  0  0  0  0  0  0  0  0  0  0  0
    5.3610  -11.9720   -3.2500 C   0  0  0  0  0  0  0  0  0  0  0  0
    5.5710  -11.8700   -1.8760 C   0  0  0  0  0  0  0  0  0  0  0  0
    6.9030  -11.4150   -1.3810 C   0  0  0  0  0  0  0  0  0  0  0  0
    7.0550  -10.2260   -1.1260 O   0  0  0  0  0  0  0  0  0  0  0  0
    7.8620  -12.4100   -1.2970 N   0  0  0  0  0  0  0  0  0  0  0  0
    9.1820  -12.2960   -0.8180 C   0  0  0  0  0  0  0  0  0  0  0  0
    9.5160  -12.1510    0.5290 C   0  0  0  0  0  0  0  0  0  0  0  0
   10.8530  -12.0470    0.9200 C   0  0  0  0  0  0  0  0  0  0  0  0
   11.8710  -12.0920   -0.0300 C   0  0  0  0  0  0  0  0  0  0  0  0
   11.5600  -12.2490   -1.3870 C   0  0  0  0  0  0  0  0  0  0  0  0
   12.6510  -12.2810   -2.4270 C   0  0  0  0  0  0  0  0  0  0  0  0
   13.7500  -11.5580   -2.0700 F   0  0  0  0  0  0  0  0  0  0  0  0
   12.2590  -11.7860   -3.6340 F   0  0  0  0  0  0  0  0  0  0  0  0
   13.0990  -13.5440   -2.6690 F   0  0  0  0  0  0  0  0  0  0  0  0
   10.2100  -12.3420   -1.7690 C   0  0  0  0  0  0  0  0  0  0  0  0
    4.5310  -12.1840   -0.9920 C   0  0  0  0  0  0  0  0  0  0  0  0
    3.2910  -12.6560   -1.4490 C   0  0  0  0  0  0  0  0  0  0  0  0
    2.2720  -13.0460   -0.5530 N   0  0  0  0  0  0  0  0  0  0  0  0
    1.3620  -12.2640    0.0840 C   0  0  0  0  0  0  0  0  0  0  0  0
    1.1840  -10.9620   -0.0180 N   0  0  0  0  0  0  0  0  0  0  0  0
    0.2280  -10.6360    0.9010 C   0  0  0  0  0  0  0  0  0  0  0  0
   -0.2720   -9.3680    1.2380 C   0  0  0  0  0  0  0  0  0  0  0  0
   -1.1920   -9.2590    2.2850 C   0  0  0  0  0  0  0  0  0  0  0  0
   -1.5950  -10.3880    2.9950 C   0  0  0  0  0  0  0  0  0  0  0  0
   -1.1150  -11.6610    2.6640 C   0  0  0  0  0  0  0  0  0  0  0  0
   -0.2320  -11.7630    1.5750 C   0  0  0  0  0  0  0  0  0  0  0  0
    0.4210  -12.8230    0.9580 N   0  0  0  0  0  0  0  0  0  0  0  0
    0.2540  -14.2220    1.2050 C   0  0  0  0  0  0  0  0  0  0  0  0
    1.1740  -14.7780    2.0360 N   0  0  0  0  0  0  0  0  0  0  0  0
    0.9720  -16.0560    2.3690 C   0  0  0  0  0  0  0  0  0  0  0  0
   -0.0290  -16.8250    1.9390 N   0  0  0  0  0  0  0  0  0  0  0  0
   -0.8820  -16.2720    1.0690 C   0  0  0  0  0  0  0  0  0  0  0  0
   -1.8500  -17.1320    0.5910 N   0  0  0  0  0  0  0  0  0  0  0  0
   -0.7660  -14.9620    0.6110 C   0  0  0  0  0  0  0  0  0  0  0  0
   -1.6310  -14.4930   -0.5220 C   0  0  0  0  0  0  0  0  0  0  0  0
    1.1190  -13.5588   -2.6075 H   0  0  0  0  0  0  0  0  0  0  0  0
    1.3467  -12.5041   -4.0437 H   0  0  0  0  0  0  0  0  0  0  0  0
    2.0043  -14.1758   -4.0437 H   0  0  0  0  0  0  0  0  0  0  0  0
    3.9680  -12.4981   -4.8160 H   0  0  0  0  0  0  0  0  0  0  0  0
    6.1620  -11.6985   -3.9526 H   0  0  0  0  0  0  0  0  0  0  0  0
    7.6000  -13.3270   -1.6410 H   0  0  0  0  0  0  0  0  0  0  0  0
    8.7208  -12.1184    1.2884 H   0  0  0  0  0  0  0  0  0  0  0  0
   11.1036  -11.9288    1.9845 H   0  0  0  0  0  0  0  0  0  0  0  0
   12.9210  -12.0041    0.2859 H   0  0  0  0  0  0  0  0  0  0  0  0
    9.9563  -12.4529   -2.8336 H   0  0  0  0  0  0  0  0  0  0  0  0
    4.6904  -12.0573    0.0890 H   0  0  0  0  0  0  0  0  0  0  0  0
    2.2620  -14.0390   -0.3270 H   0  0  0  0  0  0  0  0  0  0  0  0
    0.0551   -8.4741    0.6867 H   0  0  0  0  0  0  0  0  0  0  0  0
   -1.6013   -8.2731    2.5506 H   0  0  0  0  0  0  0  0  0  0  0  0
   -2.3025  -10.2774    3.8300 H   0  0  0  0  0  0  0  0  0  0  0  0
   -1.4183  -12.5502    3.2361 H   0  0  0  0  0  0  0  0  0  0  0  0
    1.6956  -16.5145    3.0591 H   0  0  0  0  0  0  0  0  0  0  0  0
   -1.6410  -18.1050    0.7810 H   0  0  0  0  0  0  0  0  0  0  0  0
   -2.8190  -16.8570    0.6350 H   0  0  0  0  0  0  0  0  0  0  0  0
   -2.5307  -14.0052   -0.1188 H   0  0  0  0  0  0  0  0  0  0  0  0
   -1.0701  -13.7755   -1.1389 H   0  0  0  0  0  0  0  0  0  0  0  0
   -1.9263  -15.3546   -1.1389 H   0  0  0  0  0  0  0  0  0  0  0  0
  1  2  1  0
  2  3  2  0
  3  4  1  0
  4  5  2  0
  5  6  1  0
  6  7  2  0
  6  8  1  0
  8  9  1  0
  9 10  2  0
 10 11  1  0
 11 12  2  0
 12 13  1  0
 13 14  1  0
 14 15  1  0
 14 16  1  0
 14 17  1  0
 13 18  2  0
  5 19  1  0
 19 20  2  0
 20 21  1  0
 21 22  1  0
 22 23  2  0
 23 24  1  0
 24 25  2  0
 25 26  1  0
 26 27  2  0
 27 28  1  0
 28 29  2  0
 29 30  1  0
 30 31  1  0
 31 32  2  0
 32 33  1  0
 33 34  2  0
 34 35  1  0
 35 36  1  0
 35 37  2  0
 37 38  1  0
 20  2  1  0
 30 22  1  0
 37 31  1  0
 18  9  1  0
 29 24  1  0
  1 39  1  0
  1 40  1  0
  1 41  1  0
  3 42  1  0
  4 43  1  0
  8 44  1  0
 10 45  1  0
 11 46  1  0
 12 47  1  0
 18 48  1  0
 19 49  1  0
 21 50  1  0
 25 51  1  0
 26 52  1  0
 27 53  1  0
 28 54  1  0
 33 55  1  0
 36 56  1  0
 36 57  1  0
 38 58  1  0
 38 59  1  0
 38 60  1  0
M  END
>  <meeko>  (7) 
{"is_sidechain": [false], "free_energy": -8.765, "intermolecular_energy": -12.312, "internal_energy": -1.761}

$$$$
LIB_QQWZHMYUROBWLF__M_PUB_ALL__e8__s20260927
     RDKit          3D

 60 64  0  0  0  0  0  0  0  0999 V2000
    5.4000  -18.4960    0.7400 C   0  0  0  0  0  0  0  0  0  0  0  0
    4.1830  -17.6830    1.1020 C   0  0  0  0  0  0  0  0  0  0  0  0
    3.2670  -18.2260    2.0210 C   0  0  0  0  0  0  0  0  0  0  0  0
    2.1100  -17.5310    2.3700 C   0  0  0  0  0  0  0  0  0  0  0  0
    1.8560  -16.2810    1.8070 C   0  0  0  0  0  0  0  0  0  0  0  0
    0.5980  -15.5670    2.1700 C   0  0  0  0  0  0  0  0  0  0  0  0
   -0.2580  -16.1790    2.7990 O   0  0  0  0  0  0  0  0  0  0  0  0
    0.5160  -14.2640    1.7100 N   0  0  0  0  0  0  0  0  0  0  0  0
   -0.5170  -13.3330    1.9400 C   0  0  0  0  0  0  0  0  0  0  0  0
   -0.6050  -12.5270    3.0750 C   0  0  0  0  0  0  0  0  0  0  0  0
   -1.6620  -11.6260    3.2240 C   0  0  0  0  0  0  0  0  0  0  0  0
   -2.6390  -11.5180    2.2370 C   0  0  0  0  0  0  0  0  0  0  0  0
   -2.5650  -12.3080    1.0830 C   0  0  0  0  0  0  0  0  0  0  0  0
   -3.6260  -12.2140    0.0160 C   0  0  0  0  0  0  0  0  0  0  0  0
   -3.5870  -13.2520   -0.8680 F   0  0  0  0  0  0  0  0  0  0  0  0
   -3.5320  -11.0830   -0.7390 F   0  0  0  0  0  0  0  0  0  0  0  0
   -4.8850  -12.2130    0.5350 F   0  0  0  0  0  0  0  0  0  0  0  0
   -1.5020  -13.2190    0.9500 C   0  0  0  0  0  0  0  0  0  0  0  0
    2.7870  -15.7190    0.9240 C   0  0  0  0  0  0  0  0  0  0  0  0
    3.9510  -16.4050    0.5420 C   0  0  0  0  0  0  0  0  0  0  0  0
    4.8470  -15.8700   -0.4070 N   0  0  0  0  0  0  0  0  0  0  0  0
    4.5750  -15.0610   -1.4650 C   0  0  0  0  0  0  0  0  0  0  0  0
    3.9630  -15.3640   -2.5930 N   0  0  0  0  0  0  0  0  0  0  0  0
    4.0350  -14.2470   -3.3750 C   0  0  0  0  0  0  0  0  0  0  0  0
    3.5950  -14.0690   -4.6960 C   0  0  0  0  0  0  0  0  0  0  0  0
    3.8560  -12.8550   -5.3400 C   0  0  0  0  0  0  0  0  0  0  0  0
    4.5560  -11.8430   -4.6860 C   0  0  0  0  0  0  0  0  0  0  0  0
    4.9920  -12.0000   -3.3650 C   0  0  0  0  0  0  0  0  0  0  0  0
    4.6750  -13.2050   -2.7130 C   0  0  0  0  0  0  0  0  0  0  0  0
    4.9150  -13.7040   -1.4370 N   0  0  0  0  0  0  0  0  0  0  0  0
    5.4810  -13.0170   -0.3180 C   0  0  0  0  0  0  0  0  0  0  0  0
    6.7940  -13.2740   -0.0820 N   0  0  0  0  0  0  0  0  0  0  0  0
    7.3710  -12.5600    0.8880 C   0  0  0  0  0  0  0  0  0  0  0  0
    6.7650  -11.6490    1.6500 N   0  0  0  0  0  0  0  0  0  0  0  0
    5.4560  -11.4640    1.4430 C   0  0  0  0  0  0  0  0  0  0  0  0
    4.8590  -10.5720    2.3100 N   0  0  0  0  0  0  0  0  0  0  0  0
    4.7260  -12.1670    0.4890 C   0  0  0  0  0  0  0  0  0  0  0  0
    3.2300  -12.0580    0.4690 C   0  0  0  0  0  0  0  0  0  0  0  0
    5.9030  -18.8320    1.6587 H   0  0  0  0  0  0  0  0  0  0  0  0
    5.0935  -19.3714    0.1486 H   0  0  0  0  0  0  0  0  0  0  0  0
    6.0914  -17.8777    0.1486 H   0  0  0  0  0  0  0  0  0  0  0  0
    3.4659  -19.2105    2.4695 H   0  0  0  0  0  0  0  0  0  0  0  0
    1.3996  -17.9675    3.0874 H   0  0  0  0  0  0  0  0  0  0  0  0
    1.2720  -13.9410    1.1170 H   0  0  0  0  0  0  0  0  0  0  0  0
    0.1636  -12.6014    3.8584 H   0  0  0  0  0  0  0  0  0  0  0  0
   -1.7232  -10.9985    4.1254 H   0  0  0  0  0  0  0  0  0  0  0  0
   -3.4712  -10.8100    2.3644 H   0  0  0  0  0  0  0  0  0  0  0  0
   -1.4427  -13.8531    0.0531 H   0  0  0  0  0  0  0  0  0  0  0  0
    2.6012  -14.7133    0.5190 H   0  0  0  0  0  0  0  0  0  0  0  0
    5.8120  -16.1780   -0.3030 H   0  0  0  0  0  0  0  0  0  0  0  0
    3.0531  -14.8721   -5.2169 H   0  0  0  0  0  0  0  0  0  0  0  0
    3.5059  -12.6979   -6.3709 H   0  0  0  0  0  0  0  0  0  0  0  0
    4.7698  -10.9039   -5.2173 H   0  0  0  0  0  0  0  0  0  0  0  0
    5.5620  -11.2092   -2.8553 H   0  0  0  0  0  0  0  0  0  0  0  0
    8.4401  -12.7392    1.0747 H   0  0  0  0  0  0  0  0  0  0  0  0
    5.0160   -9.6050    2.0510 H   0  0  0  0  0  0  0  0  0  0  0  0
    3.9590  -10.7970    2.7070 H   0  0  0  0  0  0  0  0  0  0  0  0
    2.8505  -12.0304    1.5011 H   0  0  0  0  0  0  0  0  0  0  0  0
    2.9365  -11.1361   -0.0544 H   0  0  0  0  0  0  0  0  0  0  0  0
    2.8060  -12.9276   -0.0544 H   0  0  0  0  0  0  0  0  0  0  0  0
  1  2  1  0
  2  3  2  0
  3  4  1  0
  4  5  2  0
  5  6  1  0
  6  7  2  0
  6  8  1  0
  8  9  1  0
  9 10  2  0
 10 11  1  0
 11 12  2  0
 12 13  1  0
 13 14  1  0
 14 15  1  0
 14 16  1  0
 14 17  1  0
 13 18  2  0
  5 19  1  0
 19 20  2  0
 20 21  1  0
 21 22  1  0
 22 23  2  0
 23 24  1  0
 24 25  2  0
 25 26  1  0
 26 27  2  0
 27 28  1  0
 28 29  2  0
 29 30  1  0
 30 31  1  0
 31 32  2  0
 32 33  1  0
 33 34  2  0
 34 35  1  0
 35 36  1  0
 35 37  2  0
 37 38  1  0
 20  2  1  0
 30 22  1  0
 37 31  1  0
 18  9  1  0
 29 24  1  0
  1 39  1  0
  1 40  1  0
  1 41  1  0
  3 42  1  0
  4 43  1  0
  8 44  1  0
 10 45  1  0
 11 46  1  0
 12 47  1  0
 18 48  1  0
 19 49  1  0
 21 50  1  0
 25 51  1  0
 26 52  1  0
 27 53  1  0
 28 54  1  0
 33 55  1  0
 36 56  1  0
 36 57  1  0
 38 58  1  0
 38 59  1  0
 38 60  1  0
M  END
>  <meeko>  (8) 
{"is_sidechain": [false], "free_energy": -8.744, "intermolecular_energy": -11.615, "internal_energy": -2.429}

$$$$
LIB_QQWZHMYUROBWLF__M_PUB_ALL__e8__s20260927
     RDKit          3D

 60 64  0  0  0  0  0  0  0  0999 V2000
   10.5920  -11.8750    1.2260 C   0  0  0  0  0  0  0  0  0  0  0  0
   11.3080  -12.1990   -0.0590 C   0  0  0  0  0  0  0  0  0  0  0  0
   12.4310  -11.4290   -0.4110 C   0  0  0  0  0  0  0  0  0  0  0  0
   13.1150  -11.6650   -1.6030 C   0  0  0  0  0  0  0  0  0  0  0  0
   12.6860  -12.6810   -2.4570 C   0  0  0  0  0  0  0  0  0  0  0  0
   13.4130  -12.8990   -3.7410 C   0  0  0  0  0  0  0  0  0  0  0  0
   14.4730  -12.3090   -3.9180 O   0  0  0  0  0  0  0  0  0  0  0  0
   12.7730  -13.7390   -4.6350 N   0  0  0  0  0  0  0  0  0  0  0  0
   13.2370  -14.1720   -5.8940 C   0  0  0  0  0  0  0  0  0  0  0  0
   14.3280  -15.0210   -6.0760 C   0  0  0  0  0  0  0  0  0  0  0  0
   14.7210  -15.4050   -7.3600 C   0  0  0  0  0  0  0  0  0  0  0  0
   14.0230  -14.9470   -8.4760 C   0  0  0  0  0  0  0  0  0  0  0  0
   12.9170  -14.1030   -8.3170 C   0  0  0  0  0  0  0  0  0  0  0  0
   12.1650  -13.5860   -9.5170 C   0  0  0  0  0  0  0  0  0  0  0  0
   12.3060  -14.3800  -10.6170 F   0  0  0  0  0  0  0  0  0  0  0  0
   12.5610  -12.3420   -9.9070 F   0  0  0  0  0  0  0  0  0  0  0  0
   10.8250  -13.4980   -9.2910 F   0  0  0  0  0  0  0  0  0  0  0  0
   12.5380  -13.7160   -7.0200 C   0  0  0  0  0  0  0  0  0  0  0  0
   11.5950  -13.4780   -2.0900 C   0  0  0  0  0  0  0  0  0  0  0  0
   10.8780  -13.2490   -0.9050 C   0  0  0  0  0  0  0  0  0  0  0  0
    9.7310  -14.0030   -0.5760 N   0  0  0  0  0  0  0  0  0  0  0  0
    8.7090  -14.3830   -1.3870 C   0  0  0  0  0  0  0  0  0  0  0  0
    8.7260  -15.2530   -2.3770 N   0  0  0  0  0  0  0  0  0  0  0  0
    7.4870  -15.2010   -2.9500 C   0  0  0  0  0  0  0  0  0  0  0  0
    7.0130  -15.8820   -4.0820 C   0  0  0  0  0  0  0  0  0  0  0  0
    5.7240  -15.6050   -4.5480 C   0  0  0  0  0  0  0  0  0  0  0  0
    4.9280  -14.6560   -3.9100 C   0  0  0  0  0  0  0  0  0  0  0  0
    5.3820  -13.9760   -2.7730 C   0  0  0  0  0  0  0  0  0  0  0  0
    6.6590  -14.3040   -2.2830 C   0  0  0  0  0  0  0  0  0  0  0  0
    7.4190  -13.8690   -1.2040 N   0  0  0  0  0  0  0  0  0  0  0  0
    7.0210  -12.9950   -0.1450 C   0  0  0  0  0  0  0  0  0  0  0  0
    7.3730  -11.6920   -0.3030 N   0  0  0  0  0  0  0  0  0  0  0  0
    6.9150  -10.8400    0.6180 C   0  0  0  0  0  0  0  0  0  0  0  0
    6.1750  -11.1630    1.6780 N   0  0  0  0  0  0  0  0  0  0  0  0
    5.9000  -12.4630    1.8480 C   0  0  0  0  0  0  0  0  0  0  0  0
    5.2020  -12.7540    3.0020 N   0  0  0  0  0  0  0  0  0  0  0  0
    6.3450  -13.4570    0.9830 C   0  0  0  0  0  0  0  0  0  0  0  0
    6.1780  -14.9000    1.3610 C   0  0  0  0  0  0  0  0  0  0  0  0
   11.2238  -12.1609    2.0799 H   0  0  0  0  0  0  0  0  0  0  0  0
   10.3850  -10.7955    1.2683 H   0  0  0  0  0  0  0  0  0  0  0  0
    9.6444  -12.4320    1.2683 H   0  0  0  0  0  0  0  0  0  0  0  0
   12.7743  -10.6301    0.2628 H   0  0  0  0  0  0  0  0  0  0  0  0
   13.9892  -11.0525   -1.8687 H   0  0  0  0  0  0  0  0  0  0  0  0
   11.8510  -14.0680   -4.3720 H   0  0  0  0  0  0  0  0  0  0  0  0
   14.8834  -15.3912   -5.2016 H   0  0  0  0  0  0  0  0  0  0  0  0
   15.5857  -16.0722   -7.4911 H   0  0  0  0  0  0  0  0  0  0  0  0
   14.3418  -15.2493   -9.4845 H   0  0  0  0  0  0  0  0  0  0  0  0
   11.6778  -13.0435   -6.8864 H   0  0  0  0  0  0  0  0  0  0  0  0
   11.2915  -14.3058   -2.7478 H   0  0  0  0  0  0  0  0  0  0  0  0
    9.6490  -14.2440    0.4100 H   0  0  0  0  0  0  0  0  0  0  0  0
    7.6454  -16.6219   -4.5945 H   0  0  0  0  0  0  0  0  0  0  0  0
    5.3350  -16.1412   -5.4262 H   0  0  0  0  0  0  0  0  0  0  0  0
    3.9255  -14.4371   -4.3063 H   0  0  0  0  0  0  0  0  0  0  0  0
    4.7619  -13.2124   -2.2806 H   0  0  0  0  0  0  0  0  0  0  0  0
    7.1713   -9.7779    0.4902 H   0  0  0  0  0  0  0  0  0  0  0  0
    4.7790  -11.9350    3.4250 H   0  0  0  0  0  0  0  0  0  0  0  0
    4.6810  -13.6160    3.0600 H   0  0  0  0  0  0  0  0  0  0  0  0
    6.1672  -14.9931    2.4570 H   0  0  0  0  0  0  0  0  0  0  0  0
    5.2300  -15.2790    0.9515 H   0  0  0  0  0  0  0  0  0  0  0  0
    7.0144  -15.4855    0.9515 H   0  0  0  0  0  0  0  0  0  0  0  0
  1  2  1  0
  2  3  2  0
  3  4  1  0
  4  5  2  0
  5  6  1  0
  6  7  2  0
  6  8  1  0
  8  9  1  0
  9 10  2  0
 10 11  1  0
 11 12  2  0
 12 13  1  0
 13 14  1  0
 14 15  1  0
 14 16  1  0
 14 17  1  0
 13 18  2  0
  5 19  1  0
 19 20  2  0
 20 21  1  0
 21 22  1  0
 22 23  2  0
 23 24  1  0
 24 25  2  0
 25 26  1  0
 26 27  2  0
 27 28  1  0
 28 29  2  0
 29 30  1  0
 30 31  1  0
 31 32  2  0
 32 33  1  0
 33 34  2  0
 34 35  1  0
 35 36  1  0
 35 37  2  0
 37 38  1  0
 20  2  1  0
 30 22  1  0
 37 31  1  0
 18  9  1  0
 29 24  1  0
  1 39  1  0
  1 40  1  0
  1 41  1  0
  3 42  1  0
  4 43  1  0
  8 44  1  0
 10 45  1  0
 11 46  1  0
 12 47  1  0
 18 48  1  0
 19 49  1  0
 21 50  1  0
 25 51  1  0
 26 52  1  0
 27 53  1  0
 28 54  1  0
 33 55  1  0
 36 56  1  0
 36 57  1  0
 38 58  1  0
 38 59  1  0
 38 60  1  0
M  END
>  <meeko>  (9) 
{"is_sidechain": [false], "free_energy": -8.705, "intermolecular_energy": -12.016, "internal_energy": -1.974}

$$$$
