LIB_IELVEPMRFQCOKL__M_PUB_ALL__e8__s20260927
     RDKit          3D

 90 95  0  0  0  0  0  0  0  0999 V2000
   -4.6000  -13.7530    2.7030 C   0  0  0  0  0  0  0  0  0  0  0  0
   -3.2930  -13.1670    2.2750 C   0  0  0  0  0  0  0  0  0  0  0  0
   -2.5330  -13.5270    1.2210 C   0  0  0  0  0  0  0  0  0  0  0  0
   -2.8630  -14.5860    0.2120 C   0  0  0  0  0  0  0  0  0  0  0  0
   -1.2530  -12.7710    1.0330 C   0  0  0  0  0  0  0  0  0  0  0  0
   -1.1610  -11.5550    1.0280 O   0  0  0  0  0  0  0  0  0  0  0  0
   -0.2340  -13.6550    0.9120 O   0  0  0  0  0  0  0  0  0  0  0  0
    0.9610  -13.4080    1.6990 C   0  0  2  0  0  0  0  0  0  0  0  0
    2.0380  -12.8660    0.7430 C   0  0  2  0  0  0  0  0  0  0  0  0
    1.6290  -11.7270   -0.0500 O   0  0  0  0  0  0  0  0  0  0  0  0
    2.0820  -11.9320   -1.4210 C   0  0  0  0  0  0  0  0  0  0  0  0
    3.0860  -13.1020   -1.3830 C   0  0  2  0  0  0  0  0  0  0  0  0
    4.4720  -12.5120   -1.0470 C   0  0  0  0  0  0  0  0  0  0  0  0
    3.1930  -14.0000   -2.6350 C   0  0  2  0  0  0  0  0  0  0  0  0
    1.8730  -14.2170   -3.1770 O   0  0  0  0  0  0  0  0  0  0  0  0
    1.6840  -13.8930   -4.4830 C   0  0  0  0  0  0  0  0  0  0  0  0
    2.8380  -13.0730   -4.9750 C   0  0  0  0  0  0  0  0  0  0  0  0
    0.7190  -14.2120   -5.1640 O   0  0  0  0  0  0  0  0  0  0  0  0
    3.8440  -15.3670   -2.2630 C   0  0  0  0  0  0  0  0  0  0  0  0
    3.1900  -16.1060   -1.0610 C   0  0  2  0  0  0  0  0  0  0  0  0
    1.9290  -16.6180   -1.4980 O   0  0  0  0  0  0  0  0  0  0  0  0
    3.0000  -15.2090    0.2200 C   0  0  1  0  0  0  0  0  0  0  0  0
    4.3850  -15.0200    0.8820 C   0  0  0  0  0  0  0  0  0  0  0  0
    2.3930  -13.9010   -0.2900 C   0  0  1  0  0  0  0  0  0  0  0  0
    1.9090  -15.7940    1.2400 C   0  0  1  0  0  0  0  0  0  0  0  0
    2.2540  -17.2300    1.7410 C   0  0  0  0  0  0  0  0  0  0  0  0
    1.4590  -17.7950    2.9270 C   0  0  2  0  0  0  0  0  0  0  0  0
    1.9380  -19.1430    3.0820 O   0  0  0  0  0  0  0  0  0  0  0  0
    2.8940  -19.5050    2.1000 C   0  0  0  0  0  0  0  0  0  0  0  0
    0.0520  -17.7990    2.7560 O   0  0  0  0  0  0  0  0  0  0  0  0
   -0.5660  -16.5440    2.5070 C   0  0  1  0  0  0  0  0  0  0  0  0
   -1.9360  -16.5100    3.1880 C   0  0  0  0  0  0  0  0  0  0  0  0
   -1.7390  -15.7380    4.5010 C   0  0  1  0  0  0  0  0  0  0  0  0
   -1.5810  -16.5830    5.7250 C   0  0  0  0  0  0  0  0  0  0  0  0
   -0.5080  -16.9870    6.4050 C   0  0  0  0  0  0  0  0  0  0  0  0
   -0.8800  -17.8630    7.5270 C   0  0  0  0  0  0  0  0  0  0  0  0
   -2.2960  -17.9690    7.4330 O   0  0  0  0  0  0  0  0  0  0  0  0
   -2.7300  -17.2430    6.3640 C   0  0  0  0  0  0  0  0  0  0  0  0
   -3.8880  -17.1680    5.9970 O   0  0  0  0  0  0  0  0  0  0  0  0
   -0.5050  -14.9090    4.1920 C   0  0  0  0  0  0  0  0  0  0  0  0
   -0.2550  -13.7060    5.0470 C   0  0  0  0  0  0  0  0  0  0  0  0
    0.1580  -15.3560    3.1020 C   0  0  0  0  0  0  0  0  0  0  0  0
    1.4000  -14.7780    2.3750 C   0  0  2  0  0  0  0  0  0  0  0  0
    2.5300  -14.5290    3.4080 C   0  0  0  0  0  0  0  0  0  0  0  0
   -4.6496  -13.7753    3.8017 H   0  0  0  0  0  0  0  0  0  0  0  0
   -5.4235  -13.1379    2.3111 H   0  0  0  0  0  0  0  0  0  0  0  0
   -4.6886  -14.7770    2.3111 H   0  0  0  0  0  0  0  0  0  0  0  0
   -2.9051  -12.3442    2.8935 H   0  0  0  0  0  0  0  0  0  0  0  0
   -3.1513  -15.5112    0.7324 H   0  0  0  0  0  0  0  0  0  0  0  0
   -3.6974  -14.2446   -0.4183 H   0  0  0  0  0  0  0  0  0  0  0  0
   -1.9824  -14.7790   -0.4183 H   0  0  0  0  0  0  0  0  0  0  0  0
    0.7950  -12.6713    2.4988 H   0  0  0  0  0  0  0  0  0  0  0  0
    2.8604  -12.5875    1.4184 H   0  0  0  0  0  0  0  0  0  0  0  0
    1.2295  -12.1843   -2.0687 H   0  0  0  0  0  0  0  0  0  0  0  0
    2.5489  -11.0216   -1.8248 H   0  0  0  0  0  0  0  0  0  0  0  0
    4.5935  -12.4603    0.0450 H   0  0  0  0  0  0  0  0  0  0  0  0
    5.2569  -13.1540   -1.4733 H   0  0  0  0  0  0  0  0  0  0  0  0
    4.5534  -11.5012   -1.4733 H   0  0  0  0  0  0  0  0  0  0  0  0
    3.8244  -13.5030   -3.3862 H   0  0  0  0  0  0  0  0  0  0  0  0
    3.3979  -12.6752   -4.1158 H   0  0  0  0  0  0  0  0  0  0  0  0
    3.5018  -13.7031   -5.5852 H   0  0  0  0  0  0  0  0  0  0  0  0
    2.4613  -12.2389   -5.5852 H   0  0  0  0  0  0  0  0  0  0  0  0
    3.7805  -16.0248   -3.1424 H   0  0  0  0  0  0  0  0  0  0  0  0
    4.8762  -15.1407   -1.9575 H   0  0  0  0  0  0  0  0  0  0  0  0
    3.8725  -16.9106   -0.7498 H   0  0  0  0  0  0  0  0  0  0  0  0
    1.2520  -16.3050   -0.8730 H   0  0  0  0  0  0  0  0  0  0  0  0
    4.2735  -15.0352    1.9762 H   0  0  0  0  0  0  0  0  0  0  0  0
    5.0547  -15.8351    0.5703 H   0  0  0  0  0  0  0  0  0  0  0  0
    4.8118  -14.0553    0.5703 H   0  0  0  0  0  0  0  0  0  0  0  0
    1.5167  -14.4097   -0.7182 H   0  0  0  0  0  0  0  0  0  0  0  0
    1.0008  -15.9129    0.6308 H   0  0  0  0  0  0  0  0  0  0  0  0
    2.1066  -17.9154    0.8934 H   0  0  0  0  0  0  0  0  0  0  0  0
    3.2841  -17.1471    2.1180 H   0  0  0  0  0  0  0  0  0  0  0  0
    1.6182  -17.1544    3.8070 H   0  0  0  0  0  0  0  0  0  0  0  0
    3.8132  -19.8531    2.5939 H   0  0  0  0  0  0  0  0  0  0  0  0
    2.4873  -20.3114    1.4720 H   0  0  0  0  0  0  0  0  0  0  0  0
    3.1234  -18.6315    1.4720 H   0  0  0  0  0  0  0  0  0  0  0  0
   -0.5857  -16.4619    1.4102 H   0  0  0  0  0  0  0  0  0  0  0  0
   -2.6678  -15.9950    2.5483 H   0  0  0  0  0  0  0  0  0  0  0  0
   -2.3192  -17.5246    3.3716 H   0  0  0  0  0  0  0  0  0  0  0  0
   -2.6288  -15.1505    4.7714 H   0  0  0  0  0  0  0  0  0  0  0  0
    0.5253  -16.7014    6.1584 H   0  0  0  0  0  0  0  0  0  0  0  0
   -0.4072  -18.8509    7.4240 H   0  0  0  0  0  0  0  0  0  0  0  0
   -0.5509  -17.4657    8.4986 H   0  0  0  0  0  0  0  0  0  0  0  0
   -0.3143  -13.9913    6.1077 H   0  0  0  0  0  0  0  0  0  0  0  0
    0.7459  -13.3041    4.8308 H   0  0  0  0  0  0  0  0  0  0  0  0
   -1.0129  -12.9386    4.8308 H   0  0  0  0  0  0  0  0  0  0  0  0
    2.1226  -14.6188    4.4258 H   0  0  0  0  0  0  0  0  0  0  0  0
    3.3276  -15.2729    3.2654 H   0  0  0  0  0  0  0  0  0  0  0  0
    2.9411  -13.5187    3.2654 H   0  0  0  0  0  0  0  0  0  0  0  0
  1  2  1  0
  2  3  2  0
  3  4  1  0
  3  5  1  0
  5  6  2  0
  5  7  1  0
  7  8  1  0
  8  9  1  0
  9 10  1  0
 10 11  1  0
 11 12  1  0
 12 13  1  1
 12 14  1  0
 14 15  1  0
 15 16  1  0
 16 17  1  0
 16 18  2  0
 14 19  1  0
 19 20  1  0
 20 21  1  0
 20 22  1  0
 22 23  1  1
 22 24  1  0
 22 25  1  0
 25 26  1  0
 26 27  1  0
 27 28  1  0
 28 29  1  0
 27 30  1  0
 30 31  1  0
 31 32  1  0
 32 33  1  0
 33 34  1  0
 34 35  2  0
 35 36  1  0
 36 37  1  0
 37 38  1  0
 38 39  2  0
 33 40  1  0
 40 41  1  0
 40 42  2  0
 42 43  1  0
 43 44  1  1
 43  8  1  0
 24  9  1  0
 43 25  1  0
 24 12  1  0
 42 31  1  0
 38 34  1  0
  1 45  1  0
  1 46  1  0
  1 47  1  0
  2 48  1  0
  4 49  1  0
  4 50  1  0
  4 51  1  0
  8 52  1  1
  9 53  1  1
 11 54  1  0
 11 55  1  0
 13 56  1  0
 13 57  1  0
 13 58  1  0
 14 59  1  6
 17 60  1  0
 17 61  1  0
 17 62  1  0
 19 63  1  0
 19 64  1  0
 20 65  1  1
 21 66  1  0
 23 67  1  0
 23 68  1  0
 23 69  1  0
 24 70  1  6
 25 71  1  6
 26 72  1  0
 26 73  1  0
 27 74  1  1
 29 75  1  0
 29 76  1  0
 29 77  1  0
 31 78  1  6
 32 79  1  0
 32 80  1  0
 33 81  1  1
 35 82  1  0
 36 83  1  0
 36 84  1  0
 41 85  1  0
 41 86  1  0
 41 87  1  0
 44 88  1  0
 44 89  1  0
 44 90  1  0
M  END
>  <meeko>  (1) 
{"is_sidechain": [false], "free_energy": -6.907, "intermolecular_energy": -11.55, "internal_energy": -1.791}

$$$$
LIB_IELVEPMRFQCOKL__M_PUB_ALL__e8__s20260927
     RDKit          3D

 90 95  0  0  0  0  0  0  0  0999 V2000
    4.9710  -18.5010    1.2860 C   0  0  0  0  0  0  0  0  0  0  0  0
    5.3850  -17.0850    1.0500 C   0  0  0  0  0  0  0  0  0  0  0  0
    6.3160  -16.6290    0.1890 C   0  0  0  0  0  0  0  0  0  0  0  0
    7.1230  -17.4600   -0.7630 C   0  0  0  0  0  0  0  0  0  0  0  0
    6.5380  -15.1480    0.1680 C   0  0  0  0  0  0  0  0  0  0  0  0
    7.0940  -14.5180    1.0530 O   0  0  0  0  0  0  0  0  0  0  0  0
    6.0630  -14.6480   -0.9970 O   0  0  0  0  0  0  0  0  0  0  0  0
    6.1510  -13.2120   -1.1940 C   0  0  2  0  0  0  0  0  0  0  0  0
    4.7200  -12.6490   -1.1220 C   0  0  2  0  0  0  0  0  0  0  0  0
    3.9800  -13.0200    0.0650 O   0  0  0  0  0  0  0  0  0  0  0  0
    2.6290  -13.4020   -0.3340 C   0  0  0  0  0  0  0  0  0  0  0  0
    2.4530  -12.9360   -1.7930 C   0  0  2  0  0  0  0  0  0  0  0  0
    1.9910  -11.4640   -1.7550 C   0  0  0  0  0  0  0  0  0  0  0  0
    1.5080  -13.7540   -2.7010 C   0  0  2  0  0  0  0  0  0  0  0  0
    1.6830  -15.1600   -2.4220 O   0  0  0  0  0  0  0  0  0  0  0  0
    0.8490  -15.7130   -1.5020 C   0  0  0  0  0  0  0  0  0  0  0  0
   -0.5440  -15.2000   -1.7060 C   0  0  0  0  0  0  0  0  0  0  0  0
    1.1760  -16.5060   -0.6310 O   0  0  0  0  0  0  0  0  0  0  0  0
    1.8210  -13.4690   -4.2010 C   0  0  0  0  0  0  0  0  0  0  0  0
    3.3140  -13.6280   -4.6070 C   0  0  2  0  0  0  0  0  0  0  0  0
    3.6150  -15.0250   -4.6220 O   0  0  0  0  0  0  0  0  0  0  0  0
    4.3210  -12.8620   -3.6680 C   0  0  1  0  0  0  0  0  0  0  0  0
    4.2280  -11.3530   -3.9930 C   0  0  0  0  0  0  0  0  0  0  0  0
    3.8810  -13.2000   -2.2430 C   0  0  1  0  0  0  0  0  0  0  0  0
    5.8220  -13.4180   -3.7730 C   0  0  1  0  0  0  0  0  0  0  0  0
    6.3890  -13.3410   -5.2420 C   0  0  0  0  0  0  0  0  0  0  0  0
    7.3130  -14.4660   -5.7330 C   0  0  2  0  0  0  0  0  0  0  0  0
    6.4820  -15.6410   -5.7540 O   0  0  0  0  0  0  0  0  0  0  0  0
    6.7150  -16.4610   -6.8870 C   0  0  0  0  0  0  0  0  0  0  0  0
    8.4540  -14.6970   -4.9250 O   0  0  0  0  0  0  0  0  0  0  0  0
    8.2210  -14.9860   -3.5540 C   0  0  1  0  0  0  0  0  0  0  0  0
    9.4090  -15.7680   -2.9900 C   0  0  0  0  0  0  0  0  0  0  0  0
   10.2790  -14.7430   -2.2480 C   0  0  1  0  0  0  0  0  0  0  0  0
   11.4650  -14.2380   -3.0050 C   0  0  0  0  0  0  0  0  0  0  0  0
   11.6070  -13.2690   -3.9100 C   0  0  0  0  0  0  0  0  0  0  0  0
   12.9890  -13.1950   -4.4070 C   0  0  0  0  0  0  0  0  0  0  0  0
   13.6630  -14.2460   -3.7250 O   0  0  0  0  0  0  0  0  0  0  0  0
   12.7810  -14.8910   -2.9110 C   0  0  0  0  0  0  0  0  0  0  0  0
   13.0450  -15.8610   -2.2250 O   0  0  0  0  0  0  0  0  0  0  0  0
    9.2710  -13.6520   -1.9310 C   0  0  0  0  0  0  0  0  0  0  0  0
    9.6200  -12.6920   -0.8360 C   0  0  0  0  0  0  0  0  0  0  0  0
    8.1380  -13.7690   -2.6590 C   0  0  0  0  0  0  0  0  0  0  0  0
    6.8240  -12.9460   -2.6090 C   0  0  2  0  0  0  0  0  0  0  0  0
    7.1540  -11.4400   -2.7720 C   0  0  0  0  0  0  0  0  0  0  0  0
    4.9154  -18.6913    2.3680 H   0  0  0  0  0  0  0  0  0  0  0  0
    3.9844  -18.6751    0.8319 H   0  0  0  0  0  0  0  0  0  0  0  0
    5.7085  -19.1792    0.8319 H   0  0  0  0  0  0  0  0  0  0  0  0
    4.8676  -16.3230    1.6514 H   0  0  0  0  0  0  0  0  0  0  0  0
    7.7791  -18.1356   -0.1946 H   0  0  0  0  0  0  0  0  0  0  0  0
    6.4467  -18.0527   -1.3964 H   0  0  0  0  0  0  0  0  0  0  0  0
    7.7353  -16.8013   -1.3964 H   0  0  0  0  0  0  0  0  0  0  0  0
    6.7652  -12.7180   -0.4268 H   0  0  0  0  0  0  0  0  0  0  0  0
    4.8736  -11.5602   -1.1534 H   0  0  0  0  0  0  0  0  0  0  0  0
    2.5075  -14.4932   -0.2667 H   0  0  0  0  0  0  0  0  0  0  0  0
    1.8761  -12.9423    0.3231 H   0  0  0  0  0  0  0  0  0  0  0  0
    1.8889  -11.1386   -0.7092 H   0  0  0  0  0  0  0  0  0  0  0  0
    2.7343  -10.8331   -2.2644 H   0  0  0  0  0  0  0  0  0  0  0  0
    1.0205  -11.3710   -2.2644 H   0  0  0  0  0  0  0  0  0  0  0  0
    0.4668  -13.4626   -2.4987 H   0  0  0  0  0  0  0  0  0  0  0  0
   -1.0174  -15.0257   -0.7285 H   0  0  0  0  0  0  0  0  0  0  0  0
   -0.5082  -14.2561   -2.2696 H   0  0  0  0  0  0  0  0  0  0  0  0
   -1.1290  -15.9417   -2.2696 H   0  0  0  0  0  0  0  0  0  0  0  0
    1.2263  -14.1649   -4.8110 H   0  0  0  0  0  0  0  0  0  0  0  0
    1.5693  -12.4116   -4.3701 H   0  0  0  0  0  0  0  0  0  0  0  0
    3.4432  -13.1717   -5.5995 H   0  0  0  0  0  0  0  0  0  0  0  0
    4.4280  -15.1440   -5.1430 H   0  0  0  0  0  0  0  0  0  0  0  0
    4.1925  -10.7777   -3.0561 H   0  0  0  0  0  0  0  0  0  0  0  0
    5.1091  -11.0487   -4.5770 H   0  0  0  0  0  0  0  0  0  0  0  0
    3.3162  -11.1592   -4.5770 H   0  0  0  0  0  0  0  0  0  0  0  0
    4.0145  -14.2808   -2.3980 H   0  0  0  0  0  0  0  0  0  0  0  0
    5.7478  -14.4929   -3.5517 H   0  0  0  0  0  0  0  0  0  0  0  0
    5.5249  -13.3109   -5.9220 H   0  0  0  0  0  0  0  0  0  0  0  0
    7.0326  -12.4489   -5.2349 H   0  0  0  0  0  0  0  0  0  0  0  0
    7.7310  -14.1895   -6.7122 H   0  0  0  0  0  0  0  0  0  0  0  0
    7.0018  -17.4702   -6.5565 H   0  0  0  0  0  0  0  0  0  0  0  0
    5.7981  -16.5200   -7.4918 H   0  0  0  0  0  0  0  0  0  0  0  0
    7.5259  -16.0290   -7.4918 H   0  0  0  0  0  0  0  0  0  0  0  0
    7.2616  -15.5241   -3.5485 H   0  0  0  0  0  0  0  0  0  0  0  0
    9.0590  -16.5459   -2.2954 H   0  0  0  0  0  0  0  0  0  0  0  0
    9.9738  -16.2723   -3.7879 H   0  0  0  0  0  0  0  0  0  0  0  0
   10.7716  -15.1812   -1.3675 H   0  0  0  0  0  0  0  0  0  0  0  0
   10.7929  -12.6083   -4.2428 H   0  0  0  0  0  0  0  0  0  0  0  0
   13.0210  -13.3527   -5.4952 H   0  0  0  0  0  0  0  0  0  0  0  0
   13.4494  -12.2125   -4.2259 H   0  0  0  0  0  0  0  0  0  0  0  0
    9.4464  -13.1697    0.1395 H   0  0  0  0  0  0  0  0  0  0  0  0
   10.6791  -12.4074   -0.9216 H   0  0  0  0  0  0  0  0  0  0  0  0
    8.9909  -11.7937   -0.9216 H   0  0  0  0  0  0  0  0  0  0  0  0
    7.2554  -10.9773   -1.7792 H   0  0  0  0  0  0  0  0  0  0  0  0
    8.0977  -11.3293   -3.3262 H   0  0  0  0  0  0  0  0  0  0  0  0
    6.3430  -10.9448   -3.3262 H   0  0  0  0  0  0  0  0  0  0  0  0
  1  2  1  0
  2  3  2  0
  3  4  1  0
  3  5  1  0
  5  6  2  0
  5  7  1  0
  7  8  1  0
  8  9  1  0
  9 10  1  0
 10 11  1  0
 11 12  1  0
 12 13  1  1
 12 14  1  0
 14 15  1  0
 15 16  1  0
 16 17  1  0
 16 18  2  0
 14 19  1  0
 19 20  1  0
 20 21  1  0
 20 22  1  0
 22 23  1  1
 22 24  1  0
 22 25  1  0
 25 26  1  0
 26 27  1  0
 27 28  1  0
 28 29  1  0
 27 30  1  0
 30 31  1  0
 31 32  1  0
 32 33  1  0
 33 34  1  0
 34 35  2  0
 35 36  1  0
 36 37  1  0
 37 38  1  0
 38 39  2  0
 33 40  1  0
 40 41  1  0
 40 42  2  0
 42 43  1  0
 43 44  1  6
 43  8  1  0
 24  9  1  0
 43 25  1  0
 24 12  1  0
 42 31  1  0
 38 34  1  0
  1 45  1  0
  1 46  1  0
  1 47  1  0
  2 48  1  0
  4 49  1  0
  4 50  1  0
  4 51  1  0
  8 52  1  1
  9 53  1  6
 11 54  1  0
 11 55  1  0
 13 56  1  0
 13 57  1  0
 13 58  1  0
 14 59  1  1
 17 60  1  0
 17 61  1  0
 17 62  1  0
 19 63  1  0
 19 64  1  0
 20 65  1  6
 21 66  1  0
 23 67  1  0
 23 68  1  0
 23 69  1  0
 24 70  1  6
 25 71  1  1
 26 72  1  0
 26 73  1  0
 27 74  1  6
 29 75  1  0
 29 76  1  0
 29 77  1  0
 31 78  1  6
 32 79  1  0
 32 80  1  0
 33 81  1  1
 35 82  1  0
 36 83  1  0
 36 84  1  0
 41 85  1  0
 41 86  1  0
 41 87  1  0
 44 88  1  0
 44 89  1  0
 44 90  1  0
M  END
>  <meeko>  (2) 
{"is_sidechain": [false], "free_energy": -6.571, "intermolecular_energy": -11.492, "internal_energy": -1.287}

$$$$
LIB_IELVEPMRFQCOKL__M_PUB_ALL__e8__s20260927
     RDKit          3D

 90 95  0  0  0  0  0  0  0  0999 V2000
    5.1080  -12.4780   -6.9690 C   0  0  0  0  0  0  0  0  0  0  0  0
    5.2210  -13.6270   -6.0200 C   0  0  0  0  0  0  0  0  0  0  0  0
    6.0460  -14.6890   -6.1020 C   0  0  0  0  0  0  0  0  0  0  0  0
    7.0750  -14.9290   -7.1660 C   0  0  0  0  0  0  0  0  0  0  0  0
    5.9370  -15.7060   -5.0070 C   0  0  0  0  0  0  0  0  0  0  0  0
    5.7770  -16.9020   -5.1860 O   0  0  0  0  0  0  0  0  0  0  0  0
    6.0870  -15.0850   -3.8130 O   0  0  0  0  0  0  0  0  0  0  0  0
    6.3820  -15.9150   -2.6600 C   0  0  2  0  0  0  0  0  0  0  0  0
    5.1760  -15.8260   -1.7080 C   0  0  2  0  0  0  0  0  0  0  0  0
    3.8980  -16.1250   -2.3170 O   0  0  0  0  0  0  0  0  0  0  0  0
    2.9280  -15.1320   -1.8640 C   0  0  0  0  0  0  0  0  0  0  0  0
    3.5780  -14.3900   -0.6800 C   0  0  2  0  0  0  0  0  0  0  0  0
    3.2870  -15.2080    0.5950 C   0  0  0  0  0  0  0  0  0  0  0  0
    3.1830  -12.9140   -0.4510 C   0  0  2  0  0  0  0  0  0  0  0  0
    3.0700  -12.2500   -1.7290 O   0  0  0  0  0  0  0  0  0  0  0  0
    2.1440  -11.2620   -1.8290 C   0  0  0  0  0  0  0  0  0  0  0  0
    2.3110  -10.5390   -3.1310 C   0  0  0  0  0  0  0  0  0  0  0  0
    1.2990  -10.9890   -0.9880 O   0  0  0  0  0  0  0  0  0  0  0  0
    4.2560  -12.1980    0.4240 C   0  0  0  0  0  0  0  0  0  0  0  0
    5.7220  -12.3470   -0.0730 C   0  0  2  0  0  0  0  0  0  0  0  0
    5.8700  -11.5350   -1.2400 O   0  0  0  0  0  0  0  0  0  0  0  0
    6.1500  -13.8310   -0.3810 C   0  0  1  0  0  0  0  0  0  0  0  0
    6.3640  -14.5590    0.9660 C   0  0  0  0  0  0  0  0  0  0  0  0
    5.0040  -14.4170   -1.2080 C   0  0  1  0  0  0  0  0  0  0  0  0
    7.4330  -13.9270   -1.3390 C   0  0  1  0  0  0  0  0  0  0  0  0
    8.6710  -13.1710   -0.7460 C   0  0  0  0  0  0  0  0  0  0  0  0
   10.0650  -13.5210   -1.2870 C   0  0  2  0  0  0  0  0  0  0  0  0
   10.9690  -12.6800   -0.5480 O   0  0  0  0  0  0  0  0  0  0  0  0
   11.9450  -13.4160    0.1690 C   0  0  0  0  0  0  0  0  0  0  0  0
   10.2360  -13.3090   -2.6780 O   0  0  0  0  0  0  0  0  0  0  0  0
    9.2730  -13.9010   -3.5390 C   0  0  1  0  0  0  0  0  0  0  0  0
    9.9090  -14.1680   -4.9050 C   0  0  0  0  0  0  0  0  0  0  0  0
   10.2920  -15.6550   -4.9130 C   0  0  1  0  0  0  0  0  0  0  0  0
   11.7270  -15.9510   -4.6170 C   0  0  0  0  0  0  0  0  0  0  0  0
   12.4060  -16.0530   -3.4750 C   0  0  0  0  0  0  0  0  0  0  0  0
   13.8330  -16.3110   -3.7170 C   0  0  0  0  0  0  0  0  0  0  0  0
   13.9500  -16.3240   -5.1350 O   0  0  0  0  0  0  0  0  0  0  0  0
   12.7270  -16.0900   -5.6880 C   0  0  0  0  0  0  0  0  0  0  0  0
   12.5060  -16.0010   -6.8820 O   0  0  0  0  0  0  0  0  0  0  0  0
    9.3440  -16.2250   -3.8730 C   0  0  0  0  0  0  0  0  0  0  0  0
    9.0950  -17.7010   -3.9060 C   0  0  0  0  0  0  0  0  0  0  0  0
    8.7890  -15.2650   -3.0990 C   0  0  0  0  0  0  0  0  0  0  0  0
    7.7140  -15.3710   -1.9850 C   0  0  2  0  0  0  0  0  0  0  0  0
    8.2030  -16.3550   -0.8910 C   0  0  0  0  0  0  0  0  0  0  0  0
    5.0158  -11.5407   -6.4007 H   0  0  0  0  0  0  0  0  0  0  0  0
    6.0063  -12.4359   -7.6024 H   0  0  0  0  0  0  0  0  0  0  0  0
    4.2187  -12.6117   -7.6024 H   0  0  0  0  0  0  0  0  0  0  0  0
    4.5493  -13.6027   -5.1492 H   0  0  0  0  0  0  0  0  0  0  0  0
    8.0433  -15.1548   -6.6954 H   0  0  0  0  0  0  0  0  0  0  0  0
    6.7643  -15.7788   -7.7916 H   0  0  0  0  0  0  0  0  0  0  0  0
    7.1723  -14.0294   -7.7916 H   0  0  0  0  0  0  0  0  0  0  0  0
    6.5433  -16.9692   -2.9296 H   0  0  0  0  0  0  0  0  0  0  0  0
    5.4117  -16.5660   -0.9290 H   0  0  0  0  0  0  0  0  0  0  0  0
    2.7006  -14.4256   -2.6759 H   0  0  0  0  0  0  0  0  0  0  0  0
    1.9834  -15.6086   -1.5631 H   0  0  0  0  0  0  0  0  0  0  0  0
    3.5051  -14.5948    1.4818 H   0  0  0  0  0  0  0  0  0  0  0  0
    2.2280  -15.5052    0.6062 H   0  0  0  0  0  0  0  0  0  0  0  0
    3.9204  -16.1073    0.6062 H   0  0  0  0  0  0  0  0  0  0  0  0
    2.2176  -12.8735    0.0747 H   0  0  0  0  0  0  0  0  0  0  0  0
    2.5546   -9.4842   -2.9360 H   0  0  0  0  0  0  0  0  0  0  0  0
    3.1256  -11.0032   -3.7063 H   0  0  0  0  0  0  0  0  0  0  0  0
    1.3754  -10.5989   -3.7063 H   0  0  0  0  0  0  0  0  0  0  0  0
    4.0130  -11.1255    0.4507 H   0  0  0  0  0  0  0  0  0  0  0  0
    4.2175  -12.6818    1.4112 H   0  0  0  0  0  0  0  0  0  0  0  0
    6.3878  -12.0203    0.7394 H   0  0  0  0  0  0  0  0  0  0  0  0
    5.4660  -10.6700   -1.0490 H   0  0  0  0  0  0  0  0  0  0  0  0
    6.1599  -13.8648    1.7945 H   0  0  0  0  0  0  0  0  0  0  0  0
    5.6805  -15.4184    1.0310 H   0  0  0  0  0  0  0  0  0  0  0  0
    7.4039  -14.9118    1.0310 H   0  0  0  0  0  0  0  0  0  0  0  0
    5.1094  -13.6571   -1.9963 H   0  0  0  0  0  0  0  0  0  0  0  0
    7.1718  -13.3629   -2.2465 H   0  0  0  0  0  0  0  0  0  0  0  0
    8.5127  -12.0971   -0.9239 H   0  0  0  0  0  0  0  0  0  0  0  0
    8.7019  -13.4851    0.3078 H   0  0  0  0  0  0  0  0  0  0  0  0
   10.2430  -14.5988   -1.1576 H   0  0  0  0  0  0  0  0  0  0  0  0
   11.7786  -13.2905    1.2491 H   0  0  0  0  0  0  0  0  0  0  0  0
   11.8662  -14.4815   -0.0928 H   0  0  0  0  0  0  0  0  0  0  0  0
   12.9478  -13.0473   -0.0928 H   0  0  0  0  0  0  0  0  0  0  0  0
    8.4360  -13.1872   -3.5435 H   0  0  0  0  0  0  0  0  0  0  0  0
    9.1896  -13.9547   -5.7093 H   0  0  0  0  0  0  0  0  0  0  0  0
   10.7865  -13.5261   -5.0721 H   0  0  0  0  0  0  0  0  0  0  0  0
   10.1949  -16.1002   -5.9142 H   0  0  0  0  0  0  0  0  0  0  0  0
   11.9553  -15.9563   -2.4763 H   0  0  0  0  0  0  0  0  0  0  0  0
   14.4529  -15.5134   -3.2817 H   0  0  0  0  0  0  0  0  0  0  0  0
   14.1752  -17.2500   -3.2575 H   0  0  0  0  0  0  0  0  0  0  0  0
    9.0302  -18.0850   -2.8772 H   0  0  0  0  0  0  0  0  0  0  0  0
    8.1503  -17.9018   -4.4325 H   0  0  0  0  0  0  0  0  0  0  0  0
    9.9216  -18.2006   -4.4325 H   0  0  0  0  0  0  0  0  0  0  0  0
    7.9930  -15.9324    0.1026 H   0  0  0  0  0  0  0  0  0  0  0  0
    7.6772  -17.3150   -0.9998 H   0  0  0  0  0  0  0  0  0  0  0  0
    9.2858  -16.5156   -0.9998 H   0  0  0  0  0  0  0  0  0  0  0  0
  1  2  1  0
  2  3  2  0
  3  4  1  0
  3  5  1  0
  5  6  2  0
  5  7  1  0
  7  8  1  0
  8  9  1  0
  9 10  1  0
 10 11  1  0
 11 12  1  0
 12 13  1  1
 12 14  1  0
 14 15  1  0
 15 16  1  0
 16 17  1  0
 16 18  2  0
 14 19  1  0
 19 20  1  0
 20 21  1  0
 20 22  1  0
 22 23  1  1
 22 24  1  0
 22 25  1  0
 25 26  1  0
 26 27  1  0
 27 28  1  0
 28 29  1  0
 27 30  1  0
 30 31  1  0
 31 32  1  0
 32 33  1  0
 33 34  1  0
 34 35  2  0
 35 36  1  0
 36 37  1  0
 37 38  1  0
 38 39  2  0
 33 40  1  0
 40 41  1  0
 40 42  2  0
 42 43  1  0
 43 44  1  1
 43  8  1  0
 24  9  1  0
 43 25  1  0
 24 12  1  0
 42 31  1  0
 38 34  1  0
  1 45  1  0
  1 46  1  0
  1 47  1  0
  2 48  1  0
  4 49  1  0
  4 50  1  0
  4 51  1  0
  8 52  1  6
  9 53  1  1
 11 54  1  0
 11 55  1  0
 13 56  1  0
 13 57  1  0
 13 58  1  0
 14 59  1  1
 17 60  1  0
 17 61  1  0
 17 62  1  0
 19 63  1  0
 19 64  1  0
 20 65  1  1
 21 66  1  0
 23 67  1  0
 23 68  1  0
 23 69  1  0
 24 70  1  6
 25 71  1  6
 26 72  1  0
 26 73  1  0
 27 74  1  6
 29 75  1  0
 29 76  1  0
 29 77  1  0
 31 78  1  6
 32 79  1  0
 32 80  1  0
 33 81  1  6
 35 82  1  0
 36 83  1  0
 36 84  1  0
 41 85  1  0
 41 86  1  0
 41 87  1  0
 44 88  1  0
 44 89  1  0
 44 90  1  0
M  END
>  <meeko>  (3) 
{"is_sidechain": [false], "free_energy": -6.44, "intermolecular_energy": -10.924, "internal_energy": -1.638}

$$$$
LIB_IELVEPMRFQCOKL__M_PUB_ALL__e8__s20260927
     RDKit          3D

 90 95  0  0  0  0  0  0  0  0999 V2000
    1.1010  -14.0890   -5.1200 C   0  0  0  0  0  0  0  0  0  0  0  0
    1.4960  -13.5010   -3.8040 C   0  0  0  0  0  0  0  0  0  0  0  0
    2.2970  -12.4400   -3.5800 C   0  0  0  0  0  0  0  0  0  0  0  0
    2.9430  -11.5830   -4.6280 C   0  0  0  0  0  0  0  0  0  0  0  0
    2.5340  -12.0730   -2.1480 C   0  0  0  0  0  0  0  0  0  0  0  0
    1.9970  -11.1410   -1.5730 O   0  0  0  0  0  0  0  0  0  0  0  0
    3.3980  -12.9630   -1.6030 O   0  0  0  0  0  0  0  0  0  0  0  0
    3.6570  -12.8560   -0.1780 C   0  0  2  0  0  0  0  0  0  0  0  0
    5.1300  -12.4450   -0.0070 C   0  0  2  0  0  0  0  0  0  0  0  0
    5.5220  -11.2670   -0.7500 O   0  0  0  0  0  0  0  0  0  0  0  0
    6.8140  -11.5260   -1.3780 C   0  0  0  0  0  0  0  0  0  0  0  0
    7.3730  -12.8040   -0.7240 C   0  0  2  0  0  0  0  0  0  0  0  0
    8.1190  -12.3800    0.5580 C   0  0  0  0  0  0  0  0  0  0  0  0
    8.2860  -13.7110   -1.5800 C   0  0  2  0  0  0  0  0  0  0  0  0
    7.7660  -13.7720   -2.9250 O   0  0  0  0  0  0  0  0  0  0  0  0
    8.6730  -13.7500   -3.9370 C   0  0  0  0  0  0  0  0  0  0  0  0
    9.9340  -13.0850   -3.4740 C   0  0  0  0  0  0  0  0  0  0  0  0
    8.4970  -14.1980   -5.0610 O   0  0  0  0  0  0  0  0  0  0  0  0
    8.3470  -15.1440   -0.9700 C   0  0  0  0  0  0  0  0  0  0  0  0
    6.9660  -15.8000   -0.6830 C   0  0  2  0  0  0  0  0  0  0  0  0
    6.3860  -16.1610   -1.9390 O   0  0  0  0  0  0  0  0  0  0  0  0
    5.9760  -14.8850    0.1330 C   0  0  1  0  0  0  0  0  0  0  0  0
    6.4500  -14.8590    1.6040 C   0  0  0  0  0  0  0  0  0  0  0  0
    6.0410  -13.5150   -0.5450 C   0  0  1  0  0  0  0  0  0  0  0  0
    4.4440  -15.3380   -0.0090 C   0  0  1  0  0  0  0  0  0  0  0  0
    4.2150  -16.8130    0.4510 C   0  0  0  0  0  0  0  0  0  0  0  0
    2.7780  -17.2700    0.7420 C   0  0  2  0  0  0  0  0  0  0  0  0
    2.9000  -18.6560    1.1090 O   0  0  0  0  0  0  0  0  0  0  0  0
    4.0480  -19.2740    0.5540 C   0  0  0  0  0  0  0  0  0  0  0  0
    1.8770  -17.1350   -0.3440 O   0  0  0  0  0  0  0  0  0  0  0  0
    1.7730  -15.8470   -0.9340 C   0  0  1  0  0  0  0  0  0  0  0  0
    0.3610  -15.6570   -1.4920 C   0  0  0  0  0  0  0  0  0  0  0  0
   -0.4040  -14.8360   -0.4440 C   0  0  1  0  0  0  0  0  0  0  0  0
   -1.2870  -15.6230    0.4690 C   0  0  0  0  0  0  0  0  0  0  0  0
   -1.0540  -16.6660    1.2650 C   0  0  0  0  0  0  0  0  0  0  0  0
   -2.2840  -17.1210    1.9320 C   0  0  0  0  0  0  0  0  0  0  0  0
   -3.2950  -16.2560    1.4270 O   0  0  0  0  0  0  0  0  0  0  0  0
   -2.7370  -15.3800    0.5460 C   0  0  0  0  0  0  0  0  0  0  0  0
   -3.3500  -14.5380   -0.0850 O   0  0  0  0  0  0  0  0  0  0  0  0
    0.7270  -14.1350    0.2870 C   0  0  0  0  0  0  0  0  0  0  0  0
    0.3790  -12.9130    1.0800 C   0  0  0  0  0  0  0  0  0  0  0  0
    1.9310  -14.6960    0.0360 C   0  0  0  0  0  0  0  0  0  0  0  0
    3.3530  -14.2680    0.4870 C   0  0  2  0  0  0  0  0  0  0  0  0
    3.3880  -14.1520    2.0320 C   0  0  0  0  0  0  0  0  0  0  0  0
    0.4949  -14.9913   -4.9513 H   0  0  0  0  0  0  0  0  0  0  0  0
    0.5132  -13.3534   -5.6886 H   0  0  0  0  0  0  0  0  0  0  0  0
    2.0042  -14.3551   -5.6886 H   0  0  0  0  0  0  0  0  0  0  0  0
    1.0836  -13.9931   -2.9108 H   0  0  0  0  0  0  0  0  0  0  0  0
    3.5371  -10.7949   -4.1422 H   0  0  0  0  0  0  0  0  0  0  0  0
    3.6000  -12.2034   -5.2552 H   0  0  0  0  0  0  0  0  0  0  0  0
    2.1656  -11.1222   -5.2552 H   0  0  0  0  0  0  0  0  0  0  0  0
    3.0206  -12.1039    0.3113 H   0  0  0  0  0  0  0  0  0  0  0  0
    5.2191  -12.2644    1.0744 H   0  0  0  0  0  0  0  0  0  0  0  0
    6.6864  -11.6779   -2.4600 H   0  0  0  0  0  0  0  0  0  0  0  0
    7.4997  -10.6771   -1.2396 H   0  0  0  0  0  0  0  0  0  0  0  0
    7.5470  -12.7051    1.4396 H   0  0  0  0  0  0  0  0  0  0  0  0
    9.1148  -12.8471    0.5743 H   0  0  0  0  0  0  0  0  0  0  0  0
    8.2272  -11.2855    0.5743 H   0  0  0  0  0  0  0  0  0  0  0  0
    9.3033  -13.2928   -1.5948 H   0  0  0  0  0  0  0  0  0  0  0  0
    9.9591  -13.0718   -2.3744 H   0  0  0  0  0  0  0  0  0  0  0  0
   10.8031  -13.6421   -3.8539 H   0  0  0  0  0  0  0  0  0  0  0  0
    9.9652  -12.0532   -3.8539 H   0  0  0  0  0  0  0  0  0  0  0  0
    8.8915  -15.7907   -1.6738 H   0  0  0  0  0  0  0  0  0  0  0  0
    8.8446  -15.0400    0.0055 H   0  0  0  0  0  0  0  0  0  0  0  0
    7.1373  -16.6789   -0.0441 H   0  0  0  0  0  0  0  0  0  0  0  0
    5.4360  -15.9540   -1.8930 H   0  0  0  0  0  0  0  0  0  0  0  0
    5.5770  -14.9069    2.2715 H   0  0  0  0  0  0  0  0  0  0  0  0
    7.1044  -15.7226    1.7937 H   0  0  0  0  0  0  0  0  0  0  0  0
    7.0060  -13.9290    1.7937 H   0  0  0  0  0  0  0  0  0  0  0  0
    5.7167  -13.9177   -1.5159 H   0  0  0  0  0  0  0  0  0  0  0  0
    4.2416  -15.3444   -1.0902 H   0  0  0  0  0  0  0  0  0  0  0  0
    4.6105  -17.4662   -0.3408 H   0  0  0  0  0  0  0  0  0  0  0  0
    4.7223  -16.8755    1.4250 H   0  0  0  0  0  0  0  0  0  0  0  0
    2.3469  -16.6310    1.5268 H   0  0  0  0  0  0  0  0  0  0  0  0
    4.7027  -19.6265    1.3646 H   0  0  0  0  0  0  0  0  0  0  0  0
    3.7405  -20.1285   -0.0667 H   0  0  0  0  0  0  0  0  0  0  0  0
    4.5920  -18.5468   -0.0667 H   0  0  0  0  0  0  0  0  0  0  0  0
    2.5791  -15.8232   -1.6821 H   0  0  0  0  0  0  0  0  0  0  0  0
    0.3982  -15.1152   -2.4486 H   0  0  0  0  0  0  0  0  0  0  0  0
   -0.1294  -16.6231   -1.6820 H   0  0  0  0  0  0  0  0  0  0  0  0
   -1.1389  -14.1603   -0.9059 H   0  0  0  0  0  0  0  0  0  0  0  0
   -0.0660  -17.1287    1.4058 H   0  0  0  0  0  0  0  0  0  0  0  0
   -2.5025  -18.1681    1.6755 H   0  0  0  0  0  0  0  0  0  0  0  0
   -2.2071  -17.0843    3.0287 H   0  0  0  0  0  0  0  0  0  0  0  0
    0.4442  -13.1419    2.1539 H   0  0  0  0  0  0  0  0  0  0  0  0
    1.0824  -12.1038    0.8342 H   0  0  0  0  0  0  0  0  0  0  0  0
   -0.6452  -12.5958    0.8342 H   0  0  0  0  0  0  0  0  0  0  0  0
    3.0976  -15.1144    2.4786 H   0  0  0  0  0  0  0  0  0  0  0  0
    4.4055  -13.8891    2.3570 H   0  0  0  0  0  0  0  0  0  0  0  0
    2.6858  -13.3702    2.3570 H   0  0  0  0  0  0  0  0  0  0  0  0
  1  2  1  0
  2  3  2  0
  3  4  1  0
  3  5  1  0
  5  6  2  0
  5  7  1  0
  7  8  1  0
  8  9  1  0
  9 10  1  0
 10 11  1  0
 11 12  1  0
 12 13  1  1
 12 14  1  0
 14 15  1  0
 15 16  1  0
 16 17  1  0
 16 18  2  0
 14 19  1  0
 19 20  1  0
 20 21  1  0
 20 22  1  0
 22 23  1  1
 22 24  1  0
 22 25  1  0
 25 26  1  0
 26 27  1  0
 27 28  1  0
 28 29  1  0
 27 30  1  0
 30 31  1  0
 31 32  1  0
 32 33  1  0
 33 34  1  0
 34 35  2  0
 35 36  1  0
 36 37  1  0
 37 38  1  0
 38 39  2  0
 33 40  1  0
 40 41  1  0
 40 42  2  0
 42 43  1  0
 43 44  1  1
 43  8  1  0
 24  9  1  0
 43 25  1  0
 24 12  1  0
 42 31  1  0
 38 34  1  0
  1 45  1  0
  1 46  1  0
  1 47  1  0
  2 48  1  0
  4 49  1  0
  4 50  1  0
  4 51  1  0
  8 52  1  1
  9 53  1  1
 11 54  1  0
 11 55  1  0
 13 56  1  0
 13 57  1  0
 13 58  1  0
 14 59  1  6
 17 60  1  0
 17 61  1  0
 17 62  1  0
 19 63  1  0
 19 64  1  0
 20 65  1  1
 21 66  1  0
 23 67  1  0
 23 68  1  0
 23 69  1  0
 24 70  1  6
 25 71  1  6
 26 72  1  0
 26 73  1  0
 27 74  1  1
 29 75  1  0
 29 76  1  0
 29 77  1  0
 31 78  1  6
 32 79  1  0
 32 80  1  0
 33 81  1  6
 35 82  1  0
 36 83  1  0
 36 84  1  0
 41 85  1  0
 41 86  1  0
 41 87  1  0
 44 88  1  0
 44 89  1  0
 44 90  1  0
M  END
>  <meeko>  (4) 
{"is_sidechain": [false], "free_energy": -6.36, "intermolecular_energy": -10.914, "internal_energy": -1.513}

$$$$
LIB_IELVEPMRFQCOKL__M_PUB_ALL__e8__s20260927
     RDKit          3D

 90 95  0  0  0  0  0  0  0  0999 V2000
   13.7890  -11.8470   -3.2350 C   0  0  0  0  0  0  0  0  0  0  0  0
   12.6280  -12.3620   -2.4480 C   0  0  0  0  0  0  0  0  0  0  0  0
   12.3020  -12.0760   -1.1710 C   0  0  0  0  0  0  0  0  0  0  0  0
   13.0290  -11.1280   -0.2640 C   0  0  0  0  0  0  0  0  0  0  0  0
   11.0810  -12.7500   -0.6260 C   0  0  0  0  0  0  0  0  0  0  0  0
   10.6500  -12.5950    0.5050 O   0  0  0  0  0  0  0  0  0  0  0  0
   10.5270  -13.5120   -1.5990 O   0  0  0  0  0  0  0  0  0  0  0  0
    9.9940  -14.8060   -1.2130 C   0  0  2  0  0  0  0  0  0  0  0  0
   11.0070  -15.8740   -1.6620 C   0  0  2  0  0  0  0  0  0  0  0  0
   12.3630  -15.6540   -1.2070 O   0  0  0  0  0  0  0  0  0  0  0  0
   13.2700  -15.9060   -2.3220 C   0  0  0  0  0  0  0  0  0  0  0  0
   12.4430  -16.6170   -3.4110 C   0  0  2  0  0  0  0  0  0  0  0  0
   12.4630  -18.1280   -3.0950 C   0  0  0  0  0  0  0  0  0  0  0  0
   12.8450  -16.3890   -4.8850 C   0  0  2  0  0  0  0  0  0  0  0  0
   13.2150  -15.0060   -5.0670 O   0  0  0  0  0  0  0  0  0  0  0  0
   13.5880  -14.6280   -6.3170 C   0  0  0  0  0  0  0  0  0  0  0  0
   14.9260  -15.2170   -6.6480 C   0  0  0  0  0  0  0  0  0  0  0  0
   12.9410  -13.9110   -7.0680 O   0  0  0  0  0  0  0  0  0  0  0  0
   11.6580  -16.7480   -5.8290 C   0  0  0  0  0  0  0  0  0  0  0  0
   10.3030  -16.0710   -5.4760 C   0  0  2  0  0  0  0  0  0  0  0  0
   10.4020  -14.6880   -5.8270 O   0  0  0  0  0  0  0  0  0  0  0  0
    9.8830  -16.2220   -3.9650 C   0  0  1  0  0  0  0  0  0  0  0  0
    9.3980  -17.6730   -3.7450 C   0  0  0  0  0  0  0  0  0  0  0  0
   11.1380  -15.8780   -3.1610 C   0  0  1  0  0  0  0  0  0  0  0  0
    8.7950  -15.1370   -3.5050 C   0  0  1  0  0  0  0  0  0  0  0  0
    7.5020  -15.1930   -4.3740 C   0  0  0  0  0  0  0  0  0  0  0  0
    6.2120  -14.5630   -3.8270 C   0  0  2  0  0  0  0  0  0  0  0  0
    5.2310  -14.7840   -4.8550 O   0  0  0  0  0  0  0  0  0  0  0  0
    5.6230  -15.7770   -5.7880 C   0  0  0  0  0  0  0  0  0  0  0  0
    6.3020  -13.1790   -3.5330 O   0  0  0  0  0  0  0  0  0  0  0  0
    7.3860  -12.7670   -2.7130 C   0  0  1  0  0  0  0  0  0  0  0  0
    7.0040  -11.4840   -1.9730 C   0  0  0  0  0  0  0  0  0  0  0  0
    6.5800  -11.9170   -0.5620 C   0  0  1  0  0  0  0  0  0  0  0  0
    5.1060  -12.0270   -0.3390 C   0  0  0  0  0  0  0  0  0  0  0  0
    4.0950  -12.3340   -1.1520 C   0  0  0  0  0  0  0  0  0  0  0  0
    2.8020  -12.2540   -0.4570 C   0  0  0  0  0  0  0  0  0  0  0  0
    3.1380  -11.8350    0.8600 O   0  0  0  0  0  0  0  0  0  0  0  0
    4.4880  -11.6720    0.9480 C   0  0  0  0  0  0  0  0  0  0  0  0
    5.0810  -11.2810    1.9370 O   0  0  0  0  0  0  0  0  0  0  0  0
    7.3010  -13.2460   -0.4160 C   0  0  0  0  0  0  0  0  0  0  0  0
    7.5030  -13.7680    0.9730 C   0  0  0  0  0  0  0  0  0  0  0  0
    7.7360  -13.7310   -1.6000 C   0  0  0  0  0  0  0  0  0  0  0  0
    8.5830  -14.9910   -1.9190 C   0  0  2  0  0  0  0  0  0  0  0  0
    7.8640  -16.2470   -1.3630 C   0  0  0  0  0  0  0  0  0  0  0  0
   14.5732  -11.4991   -2.5466 H   0  0  0  0  0  0  0  0  0  0  0  0
   14.1884  -12.6524   -3.8689 H   0  0  0  0  0  0  0  0  0  0  0  0
   13.4601  -11.0104   -3.8689 H   0  0  0  0  0  0  0  0  0  0  0  0
   11.9583  -13.0585   -2.9737 H   0  0  0  0  0  0  0  0  0  0  0  0
   12.8251  -11.3939    0.7837 H   0  0  0  0  0  0  0  0  0  0  0  0
   14.1102  -11.1940   -0.4553 H   0  0  0  0  0  0  0  0  0  0  0  0
   12.6848  -10.1009   -0.4553 H   0  0  0  0  0  0  0  0  0  0  0  0
    9.8453  -14.8937   -0.1266 H   0  0  0  0  0  0  0  0  0  0  0  0
   10.6040  -16.8030   -1.2324 H   0  0  0  0  0  0  0  0  0  0  0  0
   13.6695  -14.9567   -2.7082 H   0  0  0  0  0  0  0  0  0  0  0  0
   14.1242  -16.5232   -2.0066 H   0  0  0  0  0  0  0  0  0  0  0  0
   12.4649  -18.2746   -2.0048 H   0  0  0  0  0  0  0  0  0  0  0  0
   11.5711  -18.6049   -3.5275 H   0  0  0  0  0  0  0  0  0  0  0  0
   13.3672  -18.5811   -3.5275 H   0  0  0  0  0  0  0  0  0  0  0  0
   13.6990  -17.0365   -5.1331 H   0  0  0  0  0  0  0  0  0  0  0  0
   15.4629  -15.4534   -5.7175 H   0  0  0  0  0  0  0  0  0  0  0  0
   14.7866  -16.1370   -7.2347 H   0  0  0  0  0  0  0  0  0  0  0  0
   15.5104  -14.4929   -7.2347 H   0  0  0  0  0  0  0  0  0  0  0  0
   11.9328  -16.4471   -6.8507 H   0  0  0  0  0  0  0  0  0  0  0  0
   11.4964  -17.8304   -5.7181 H   0  0  0  0  0  0  0  0  0  0  0  0
    9.5132  -16.5818   -6.0464 H   0  0  0  0  0  0  0  0  0  0  0  0
   10.7560  -14.2140   -5.0540 H   0  0  0  0  0  0  0  0  0  0  0  0
    9.3297  -17.8772   -2.6663 H   0  0  0  0  0  0  0  0  0  0  0  0
    8.4077  -17.8025   -4.2061 H   0  0  0  0  0  0  0  0  0  0  0  0
   10.1114  -18.3719   -4.2061 H   0  0  0  0  0  0  0  0  0  0  0  0
   11.2080  -14.8703   -3.5966 H   0  0  0  0  0  0  0  0  0  0  0  0
    9.2412  -14.1571   -3.7302 H   0  0  0  0  0  0  0  0  0  0  0  0
    7.7298  -14.6885   -5.3246 H   0  0  0  0  0  0  0  0  0  0  0  0
    7.2685  -16.2663   -4.4326 H   0  0  0  0  0  0  0  0  0  0  0  0
    5.9645  -15.0249   -2.8599 H   0  0  0  0  0  0  0  0  0  0  0  0
    5.9750  -16.6686   -5.2484 H   0  0  0  0  0  0  0  0  0  0  0  0
    4.7637  -16.0462   -6.4197 H   0  0  0  0  0  0  0  0  0  0  0  0
    6.4345  -15.3866   -6.4197 H   0  0  0  0  0  0  0  0  0  0  0  0
    8.2329  -12.6714   -3.4084 H   0  0  0  0  0  0  0  0  0  0  0  0
    7.8658  -10.8025   -1.9205 H   0  0  0  0  0  0  0  0  0  0  0  0
    6.1941  -10.9479   -2.4894 H   0  0  0  0  0  0  0  0  0  0  0  0
    6.8451  -11.1661    0.1968 H   0  0  0  0  0  0  0  0  0  0  0  0
    4.2134  -12.6121   -2.2096 H   0  0  0  0  0  0  0  0  0  0  0  0
    2.1426  -11.5201   -0.9434 H   0  0  0  0  0  0  0  0  0  0  0  0
    2.2580  -13.2100   -0.4686 H   0  0  0  0  0  0  0  0  0  0  0  0
    7.2053  -12.9987    1.7007 H   0  0  0  0  0  0  0  0  0  0  0  0
    6.8884  -14.6685    1.1193 H   0  0  0  0  0  0  0  0  0  0  0  0
    8.5637  -14.0202    1.1193 H   0  0  0  0  0  0  0  0  0  0  0  0
    7.8787  -16.2213   -0.2634 H   0  0  0  0  0  0  0  0  0  0  0  0
    6.8221  -16.2592   -1.7156 H   0  0  0  0  0  0  0  0  0  0  0  0
    8.3810  -17.1516   -1.7156 H   0  0  0  0  0  0  0  0  0  0  0  0
  1  2  1  0
  2  3  2  0
  3  4  1  0
  3  5  1  0
  5  6  2  0
  5  7  1  0
  7  8  1  0
  8  9  1  0
  9 10  1  0
 10 11  1  0
 11 12  1  0
 12 13  1  1
 12 14  1  0
 14 15  1  0
 15 16  1  0
 16 17  1  0
 16 18  2  0
 14 19  1  0
 19 20  1  0
 20 21  1  0
 20 22  1  0
 22 23  1  6
 22 24  1  0
 22 25  1  0
 25 26  1  0
 26 27  1  0
 27 28  1  0
 28 29  1  0
 27 30  1  0
 30 31  1  0
 31 32  1  0
 32 33  1  0
 33 34  1  0
 34 35  2  0
 35 36  1  0
 36 37  1  0
 37 38  1  0
 38 39  2  0
 33 40  1  0
 40 41  1  0
 40 42  2  0
 42 43  1  0
 43 44  1  1
 43  8  1  0
 24  9  1  0
 43 25  1  0
 24 12  1  0
 42 31  1  0
 38 34  1  0
  1 45  1  0
  1 46  1  0
  1 47  1  0
  2 48  1  0
  4 49  1  0
  4 50  1  0
  4 51  1  0
  8 52  1  1
  9 53  1  1
 11 54  1  0
 11 55  1  0
 13 56  1  0
 13 57  1  0
 13 58  1  0
 14 59  1  6
 17 60  1  0
 17 61  1  0
 17 62  1  0
 19 63  1  0
 19 64  1  0
 20 65  1  6
 21 66  1  0
 23 67  1  0
 23 68  1  0
 23 69  1  0
 24 70  1  6
 25 71  1  6
 26 72  1  0
 26 73  1  0
 27 74  1  1
 29 75  1  0
 29 76  1  0
 29 77  1  0
 31 78  1  6
 32 79  1  0
 32 80  1  0
 33 81  1  1
 35 82  1  0
 36 83  1  0
 36 84  1  0
 41 85  1  0
 41 86  1  0
 41 87  1  0
 44 88  1  0
 44 89  1  0
 44 90  1  0
M  END
>  <meeko>  (5) 
{"is_sidechain": [false], "free_energy": -6.337, "intermolecular_energy": -10.839, "internal_energy": -1.549}

$$$$
LIB_IELVEPMRFQCOKL__M_PUB_ALL__e8__s20260927
     RDKit          3D

 90 95  0  0  0  0  0  0  0  0999 V2000
   12.3160  -12.9060    0.5380 C   0  0  0  0  0  0  0  0  0  0  0  0
   11.2620  -12.6580   -0.4930 C   0  0  0  0  0  0  0  0  0  0  0  0
   11.4270  -12.4990   -1.8210 C   0  0  0  0  0  0  0  0  0  0  0  0
   12.7250  -12.5800   -2.5670 C   0  0  0  0  0  0  0  0  0  0  0  0
   10.1860  -12.2480   -2.6220 C   0  0  0  0  0  0  0  0  0  0  0  0
   10.1370  -11.5550   -3.6250 O   0  0  0  0  0  0  0  0  0  0  0  0
    9.1610  -12.9430   -2.0750 O   0  0  0  0  0  0  0  0  0  0  0  0
    8.1650  -13.4880   -2.9800 C   0  0  2  0  0  0  0  0  0  0  0  0
    6.8470  -12.7350   -2.7210 C   0  0  2  0  0  0  0  0  0  0  0  0
    6.9490  -11.2930   -2.7840 O   0  0  0  0  0  0  0  0  0  0  0  0
    6.2100  -10.7290   -1.6590 C   0  0  0  0  0  0  0  0  0  0  0  0
    5.3590  -11.8740   -1.0730 C   0  0  2  0  0  0  0  0  0  0  0  0
    4.0400  -11.9260   -1.8720 C   0  0  0  0  0  0  0  0  0  0  0  0
    5.0490  -11.8380    0.4410 C   0  0  2  0  0  0  0  0  0  0  0  0
    6.2210  -11.3890    1.1540 O   0  0  0  0  0  0  0  0  0  0  0  0
    6.1720  -10.1430    1.6940 C   0  0  0  0  0  0  0  0  0  0  0  0
    7.3740   -9.3570    1.2660 C   0  0  0  0  0  0  0  0  0  0  0  0
    5.2890   -9.7170    2.4240 O   0  0  0  0  0  0  0  0  0  0  0  0
    4.6370  -13.2570    0.9390 C   0  0  0  0  0  0  0  0  0  0  0  0
    5.6210  -14.4010    0.5650 C   0  0  2  0  0  0  0  0  0  0  0  0
    6.7880  -14.2560    1.3770 O   0  0  0  0  0  0  0  0  0  0  0  0
    6.0180  -14.4370   -0.9590 C   0  0  1  0  0  0  0  0  0  0  0  0
    4.8150  -14.9940   -1.7550 C   0  0  0  0  0  0  0  0  0  0  0  0
    6.3610  -12.9900   -1.3200 C   0  0  1  0  0  0  0  0  0  0  0  0
    7.3680  -15.2580   -1.2370 C   0  0  1  0  0  0  0  0  0  0  0  0
    7.2770  -16.7380   -0.7340 C   0  0  0  0  0  0  0  0  0  0  0  0
    8.2900  -17.7570   -1.2750 C   0  0  2  0  0  0  0  0  0  0  0  0
    7.9530  -18.9930   -0.6220 O   0  0  0  0  0  0  0  0  0  0  0  0
    6.5720  -19.1000   -0.3220 C   0  0  0  0  0  0  0  0  0  0  0  0
    9.6490  -17.4360   -1.0310 O   0  0  0  0  0  0  0  0  0  0  0  0
   10.0870  -16.1490   -1.4450 C   0  0  1  0  0  0  0  0  0  0  0  0
   11.5800  -16.2040   -1.7770 C   0  0  0  0  0  0  0  0  0  0  0  0
   11.6710  -16.3240   -3.3050 C   0  0  1  0  0  0  0  0  0  0  0  0
   11.8970  -17.7060   -3.8290 C   0  0  0  0  0  0  0  0  0  0  0  0
   11.0600  -18.6670   -4.2170 C   0  0  0  0  0  0  0  0  0  0  0  0
   11.7840  -19.8870   -4.6080 C   0  0  0  0  0  0  0  0  0  0  0  0
   13.1520  -19.5670   -4.3850 O   0  0  0  0  0  0  0  0  0  0  0  0
   13.2440  -18.2960   -3.9040 C   0  0  0  0  0  0  0  0  0  0  0  0
   14.2800  -17.7460   -3.5780 O   0  0  0  0  0  0  0  0  0  0  0  0
   10.3420  -15.7360   -3.7420 C   0  0  0  0  0  0  0  0  0  0  0  0
   10.2320  -15.2670   -5.1600 C   0  0  0  0  0  0  0  0  0  0  0  0
    9.4550  -15.6500   -2.7250 C   0  0  0  0  0  0  0  0  0  0  0  0
    8.0280  -15.0440   -2.6860 C   0  0  2  0  0  0  0  0  0  0  0  0
    7.1520  -15.7200   -3.7720 C   0  0  0  0  0  0  0  0  0  0  0  0
   11.8783  -12.8030    1.5419 H   0  0  0  0  0  0  0  0  0  0  0  0
   12.7168  -13.9230    0.4153 H   0  0  0  0  0  0  0  0  0  0  0  0
   13.1283  -12.1745    0.4153 H   0  0  0  0  0  0  0  0  0  0  0  0
   10.2278  -12.5981   -0.1232 H   0  0  0  0  0  0  0  0  0  0  0  0
   13.5575  -12.6319   -1.8498 H   0  0  0  0  0  0  0  0  0  0  0  0
   12.7290  -13.4801   -3.1992 H   0  0  0  0  0  0  0  0  0  0  0  0
   12.8409  -11.6873   -3.1992 H   0  0  0  0  0  0  0  0  0  0  0  0
    8.4423  -13.3639   -4.0372 H   0  0  0  0  0  0  0  0  0  0  0  0
    6.1819  -13.1077   -3.5139 H   0  0  0  0  0  0  0  0  0  0  0  0
    6.9080  -10.3476   -0.8992 H   0  0  0  0  0  0  0  0  0  0  0  0
    5.5772   -9.8889   -1.9810 H   0  0  0  0  0  0  0  0  0  0  0  0
    3.1900  -11.9595   -1.1746 H   0  0  0  0  0  0  0  0  0  0  0  0
    3.9595  -11.0303   -2.5055 H   0  0  0  0  0  0  0  0  0  0  0  0
    4.0302  -12.8252   -2.5055 H   0  0  0  0  0  0  0  0  0  0  0  0
    4.2153  -11.1447    0.6260 H   0  0  0  0  0  0  0  0  0  0  0  0
    7.9160   -9.0026    2.1552 H   0  0  0  0  0  0  0  0  0  0  0  0
    8.0357   -9.9974    0.6643 H   0  0  0  0  0  0  0  0  0  0  0  0
    7.0526   -8.4940    0.6643 H   0  0  0  0  0  0  0  0  0  0  0  0
    4.5560  -13.2227    2.0355 H   0  0  0  0  0  0  0  0  0  0  0  0
    3.6880  -13.4937    0.4356 H   0  0  0  0  0  0  0  0  0  0  0  0
    5.1096  -15.3569    0.7512 H   0  0  0  0  0  0  0  0  0  0  0  0
    7.2050  -15.1320    1.4520 H   0  0  0  0  0  0  0  0  0  0  0  0
    4.0453  -15.3504   -1.0546 H   0  0  0  0  0  0  0  0  0  0  0  0
    4.3946  -14.1989   -2.3883 H   0  0  0  0  0  0  0  0  0  0  0  0
    5.1493  -15.8289   -2.3883 H   0  0  0  0  0  0  0  0  0  0  0  0
    7.1571  -12.9305   -0.5632 H   0  0  0  0  0  0  0  0  0  0  0  0
    8.1322  -14.7886   -0.6001 H   0  0  0  0  0  0  0  0  0  0  0  0
    7.3895  -16.7171    0.3600 H   0  0  0  0  0  0  0  0  0  0  0  0
    6.3075  -17.0932   -1.1134 H   0  0  0  0  0  0  0  0  0  0  0  0
    8.2177  -17.7913   -2.3721 H   0  0  0  0  0  0  0  0  0  0  0  0
    6.4336  -19.1107    0.7692 H   0  0  0  0  0  0  0  0  0  0  0  0
    6.0359  -18.2407   -0.7512 H   0  0  0  0  0  0  0  0  0  0  0  0
    6.1747  -20.0316   -0.7512 H   0  0  0  0  0  0  0  0  0  0  0  0
    9.8170  -15.4869   -0.6091 H   0  0  0  0  0  0  0  0  0  0  0  0
   12.0813  -15.2864   -1.4354 H   0  0  0  0  0  0  0  0  0  0  0  0
   12.0725  -17.0509   -1.2768 H   0  0  0  0  0  0  0  0  0  0  0  0
   12.5547  -15.8069   -3.7072 H   0  0  0  0  0  0  0  0  0  0  0  0
    9.9653  -18.5618   -4.2420 H   0  0  0  0  0  0  0  0  0  0  0  0
   11.4762  -20.7399   -3.9852 H   0  0  0  0  0  0  0  0  0  0  0  0
   11.5840  -20.1804   -5.6491 H   0  0  0  0  0  0  0  0  0  0  0  0
    9.9808  -14.1961   -5.1736 H   0  0  0  0  0  0  0  0  0  0  0  0
   11.1916  -15.4251   -5.6740 H   0  0  0  0  0  0  0  0  0  0  0  0
    9.4428  -15.8353   -5.6740 H   0  0  0  0  0  0  0  0  0  0  0  0
    6.3697  -16.3237   -3.2887 H   0  0  0  0  0  0  0  0  0  0  0  0
    6.6837  -14.9469   -4.3989 H   0  0  0  0  0  0  0  0  0  0  0  0
    7.7811  -16.3690   -4.3989 H   0  0  0  0  0  0  0  0  0  0  0  0
  1  2  1  0
  2  3  2  0
  3  4  1  0
  3  5  1  0
  5  6  2  0
  5  7  1  0
  7  8  1  0
  8  9  1  0
  9 10  1  0
 10 11  1  0
 11 12  1  0
 12 13  1  6
 12 14  1  0
 14 15  1  0
 15 16  1  0
 16 17  1  0
 16 18  2  0
 14 19  1  0
 19 20  1  0
 20 21  1  0
 20 22  1  0
 22 23  1  6
 22 24  1  0
 22 25  1  0
 25 26  1  0
 26 27  1  0
 27 28  1  0
 28 29  1  0
 27 30  1  0
 30 31  1  0
 31 32  1  0
 32 33  1  0
 33 34  1  0
 34 35  2  0
 35 36  1  0
 36 37  1  0
 37 38  1  0
 38 39  2  0
 33 40  1  0
 40 41  1  0
 40 42  2  0
 42 43  1  0
 43 44  1  6
 43  8  1  0
 24  9  1  0
 43 25  1  0
 24 12  1  0
 42 31  1  0
 38 34  1  0
  1 45  1  0
  1 46  1  0
  1 47  1  0
  2 48  1  0
  4 49  1  0
  4 50  1  0
  4 51  1  0
  8 52  1  6
  9 53  1  6
 11 54  1  0
 11 55  1  0
 13 56  1  0
 13 57  1  0
 13 58  1  0
 14 59  1  6
 17 60  1  0
 17 61  1  0
 17 62  1  0
 19 63  1  0
 19 64  1  0
 20 65  1  1
 21 66  1  0
 23 67  1  0
 23 68  1  0
 23 69  1  0
 24 70  1  1
 25 71  1  1
 26 72  1  0
 26 73  1  0
 27 74  1  6
 29 75  1  0
 29 76  1  0
 29 77  1  0
 31 78  1  1
 32 79  1  0
 32 80  1  0
 33 81  1  6
 35 82  1  0
 36 83  1  0
 36 84  1  0
 41 85  1  0
 41 86  1  0
 41 87  1  0
 44 88  1  0
 44 89  1  0
 44 90  1  0
M  END
>  <meeko>  (6) 
{"is_sidechain": [false], "free_energy": -6.317, "intermolecular_energy": -10.61, "internal_energy": -1.745}

$$$$
LIB_IELVEPMRFQCOKL__M_PUB_ALL__e8__s20260927
     RDKit          3D

 90 95  0  0  0  0  0  0  0  0999 V2000
    0.9530  -14.0070   -4.6730 C   0  0  0  0  0  0  0  0  0  0  0  0
    2.3650  -13.6740   -4.3150 C   0  0  0  0  0  0  0  0  0  0  0  0
    2.8060  -12.6470   -3.5620 C   0  0  0  0  0  0  0  0  0  0  0  0
    1.9530  -11.6220   -2.8770 C   0  0  0  0  0  0  0  0  0  0  0  0
    4.2890  -12.5460   -3.3730 C   0  0  0  0  0  0  0  0  0  0  0  0
    4.9100  -11.4980   -3.3140 O   0  0  0  0  0  0  0  0  0  0  0  0
    4.8020  -13.7920   -3.2410 O   0  0  0  0  0  0  0  0  0  0  0  0
    5.7860  -14.0020   -2.1940 C   0  0  2  0  0  0  0  0  0  0  0  0
    7.1540  -14.1760   -2.8770 C   0  0  2  0  0  0  0  0  0  0  0  0
    7.5120  -13.1170   -3.7970 O   0  0  0  0  0  0  0  0  0  0  0  0
    8.0680  -13.7230   -5.0030 C   0  0  0  0  0  0  0  0  0  0  0  0
    8.3490  -15.2000   -4.6650 C   0  0  2  0  0  0  0  0  0  0  0  0
    9.7510  -15.2690   -4.0240 C   0  0  0  0  0  0  0  0  0  0  0  0
    8.2500  -16.2320   -5.8110 C   0  0  2  0  0  0  0  0  0  0  0  0
    7.1250  -15.8990   -6.6530 O   0  0  0  0  0  0  0  0  0  0  0  0
    7.2720  -16.1100   -7.9870 C   0  0  0  0  0  0  0  0  0  0  0  0
    7.6950  -14.8390   -8.6590 C   0  0  0  0  0  0  0  0  0  0  0  0
    7.0850  -17.1710   -8.5650 O   0  0  0  0  0  0  0  0  0  0  0  0
    8.0690  -17.6670   -5.2290 C   0  0  0  0  0  0  0  0  0  0  0  0
    6.9180  -17.8210   -4.1950 C   0  0  2  0  0  0  0  0  0  0  0  0
    5.6810  -17.7570   -4.9070 O   0  0  0  0  0  0  0  0  0  0  0  0
    6.9420  -16.7480   -3.0410 C   0  0  1  0  0  0  0  0  0  0  0  0
    8.0830  -17.1160   -2.0660 C   0  0  0  0  0  0  0  0  0  0  0  0
    7.1580  -15.4060   -3.7440 C   0  0  1  0  0  0  0  0  0  0  0  0
    5.5280  -16.5960   -2.2980 C   0  0  1  0  0  0  0  0  0  0  0  0
    5.0310  -17.9550   -1.6820 C   0  0  0  0  0  0  0  0  0  0  0  0
    3.9570  -17.9100   -0.5850 C   0  0  2  0  0  0  0  0  0  0  0  0
    3.7290  -19.2870   -0.2370 O   0  0  0  0  0  0  0  0  0  0  0  0
    2.7770  -19.4430    0.8010 C   0  0  0  0  0  0  0  0  0  0  0  0
    2.7370  -17.3000   -0.9690 O   0  0  0  0  0  0  0  0  0  0  0  0
    2.8220  -16.0080   -1.5520 C   0  0  1  0  0  0  0  0  0  0  0  0
    1.5190  -15.2470   -1.2940 C   0  0  0  0  0  0  0  0  0  0  0  0
    1.7960  -14.3240   -0.0980 C   0  0  1  0  0  0  0  0  0  0  0  0
    1.3140  -14.8260    1.2250 C   0  0  0  0  0  0  0  0  0  0  0  0
    1.3640  -16.0260    1.8030 C   0  0  0  0  0  0  0  0  0  0  0  0
    0.6920  -16.0220    3.1110 C   0  0  0  0  0  0  0  0  0  0  0  0
    0.2020  -14.6940    3.2490 O   0  0  0  0  0  0  0  0  0  0  0  0
    0.5350  -13.9760    2.1390 C   0  0  0  0  0  0  0  0  0  0  0  0
    0.2230  -12.8160    1.9390 O   0  0  0  0  0  0  0  0  0  0  0  0
    3.3050  -14.1780   -0.1610 C   0  0  0  0  0  0  0  0  0  0  0  0
    3.9130  -13.0120    0.5550 C   0  0  0  0  0  0  0  0  0  0  0  0
    3.8820  -15.1130   -0.9490 C   0  0  0  0  0  0  0  0  0  0  0  0
    5.3640  -15.2950   -1.3700 C   0  0  2  0  0  0  0  0  0  0  0  0
    6.2460  -15.4340   -0.1030 C   0  0  0  0  0  0  0  0  0  0  0  0
    0.3647  -14.1457   -3.7540 H   0  0  0  0  0  0  0  0  0  0  0  0
    0.5213  -13.1860   -5.2643 H   0  0  0  0  0  0  0  0  0  0  0  0
    0.9336  -14.9344   -5.2643 H   0  0  0  0  0  0  0  0  0  0  0  0
    3.1373  -14.3481   -4.7140 H   0  0  0  0  0  0  0  0  0  0  0  0
    2.0475  -11.7355   -1.7870 H   0  0  0  0  0  0  0  0  0  0  0  0
    2.2832  -10.6147   -3.1707 H   0  0  0  0  0  0  0  0  0  0  0  0
    0.9024  -11.7637   -3.1707 H   0  0  0  0  0  0  0  0  0  0  0  0
    5.8445  -13.1557   -1.4937 H   0  0  0  0  0  0  0  0  0  0  0  0
    7.8574  -14.2059   -2.0318 H   0  0  0  0  0  0  0  0  0  0  0  0
    7.3459  -13.6537   -5.8299 H   0  0  0  0  0  0  0  0  0  0  0  0
    8.9867  -13.2069   -5.3186 H   0  0  0  0  0  0  0  0  0  0  0  0
    9.6539  -15.2642   -2.9283 H   0  0  0  0  0  0  0  0  0  0  0  0
   10.2551  -16.1930   -4.3434 H   0  0  0  0  0  0  0  0  0  0  0  0
   10.3434  -14.3989   -4.3434 H   0  0  0  0  0  0  0  0  0  0  0  0
    9.1763  -16.2075   -6.4038 H   0  0  0  0  0  0  0  0  0  0  0  0
    7.9453  -14.0868   -7.8964 H   0  0  0  0  0  0  0  0  0  0  0  0
    8.5773  -15.0323   -9.2869 H   0  0  0  0  0  0  0  0  0  0  0  0
    6.8729  -14.4650   -9.2869 H   0  0  0  0  0  0  0  0  0  0  0  0
    7.8680  -18.3512   -6.0665 H   0  0  0  0  0  0  0  0  0  0  0  0
    8.9987  -17.8967   -4.6878 H   0  0  0  0  0  0  0  0  0  0  0  0
    7.0475  -18.7891   -3.6890 H   0  0  0  0  0  0  0  0  0  0  0  0
    5.0520  -18.3490   -4.4560 H   0  0  0  0  0  0  0  0  0  0  0  0
    7.7310  -17.0025   -1.0301 H   0  0  0  0  0  0  0  0  0  0  0  0
    8.3894  -18.1585   -2.2370 H   0  0  0  0  0  0  0  0  0  0  0  0
    8.9408  -16.4490   -2.2370 H   0  0  0  0  0  0  0  0  0  0  0  0
    6.2490  -15.5139   -4.3540 H   0  0  0  0  0  0  0  0  0  0  0  0
    4.8025  -16.3626   -3.0912 H   0  0  0  0  0  0  0  0  0  0  0  0
    4.6268  -18.5581   -2.5083 H   0  0  0  0  0  0  0  0  0  0  0  0
    5.9182  -18.3628   -1.1754 H   0  0  0  0  0  0  0  0  0  0  0  0
    4.3157  -17.2871    0.2477 H   0  0  0  0  0  0  0  0  0  0  0  0
    3.2803  -19.3605    1.7756 H   0  0  0  0  0  0  0  0  0  0  0  0
    2.0106  -18.6585    0.7166 H   0  0  0  0  0  0  0  0  0  0  0  0
    2.3011  -20.4311    0.7166 H   0  0  0  0  0  0  0  0  0  0  0  0
    3.0497  -16.2017   -2.6106 H   0  0  0  0  0  0  0  0  0  0  0  0
    1.2415  -14.6540   -2.1779 H   0  0  0  0  0  0  0  0  0  0  0  0
    0.6856  -15.9346   -1.0871 H   0  0  0  0  0  0  0  0  0  0  0  0
    1.2418  -13.3766   -0.1711 H   0  0  0  0  0  0  0  0  0  0  0  0
    1.8471  -16.9082    1.3577 H   0  0  0  0  0  0  0  0  0  0  0  0
   -0.1356  -16.7465    3.1264 H   0  0  0  0  0  0  0  0  0  0  0  0
    1.3663  -16.3090    3.9313 H   0  0  0  0  0  0  0  0  0  0  0  0
    3.8326  -13.1662    1.6412 H   0  0  0  0  0  0  0  0  0  0  0  0
    4.9729  -12.9219    0.2749 H   0  0  0  0  0  0  0  0  0  0  0  0
    3.3802  -12.0913    0.2749 H   0  0  0  0  0  0  0  0  0  0  0  0
    5.6172  -15.3349    0.7941 H   0  0  0  0  0  0  0  0  0  0  0  0
    6.7335  -16.4201   -0.1020 H   0  0  0  0  0  0  0  0  0  0  0  0
    7.0132  -14.6457   -0.1020 H   0  0  0  0  0  0  0  0  0  0  0  0
  1  2  1  0
  2  3  2  0
  3  4  1  0
  3  5  1  0
  5  6  2  0
  5  7  1  0
  7  8  1  0
  8  9  1  0
  9 10  1  0
 10 11  1  0
 11 12  1  0
 12 13  1  1
 12 14  1  0
 14 15  1  0
 15 16  1  0
 16 17  1  0
 16 18  2  0
 14 19  1  0
 19 20  1  0
 20 21  1  0
 20 22  1  0
 22 23  1  1
 22 24  1  0
 22 25  1  0
 25 26  1  0
 26 27  1  0
 27 28  1  0
 28 29  1  0
 27 30  1  0
 30 31  1  0
 31 32  1  0
 32 33  1  0
 33 34  1  0
 34 35  2  0
 35 36  1  0
 36 37  1  0
 37 38  1  0
 38 39  2  0
 33 40  1  0
 40 41  1  0
 40 42  2  0
 42 43  1  0
 43 44  1  1
 43  8  1  0
 24  9  1  0
 43 25  1  0
 24 12  1  0
 42 31  1  0
 38 34  1  0
  1 45  1  0
  1 46  1  0
  1 47  1  0
  2 48  1  0
  4 49  1  0
  4 50  1  0
  4 51  1  0
  8 52  1  1
  9 53  1  1
 11 54  1  0
 11 55  1  0
 13 56  1  0
 13 57  1  0
 13 58  1  0
 14 59  1  6
 17 60  1  0
 17 61  1  0
 17 62  1  0
 19 63  1  0
 19 64  1  0
 20 65  1  1
 21 66  1  0
 23 67  1  0
 23 68  1  0
 23 69  1  0
 24 70  1  6
 25 71  1  6
 26 72  1  0
 26 73  1  0
 27 74  1  1
 29 75  1  0
 29 76  1  0
 29 77  1  0
 31 78  1  6
 32 79  1  0
 32 80  1  0
 33 81  1  6
 35 82  1  0
 36 83  1  0
 36 84  1  0
 41 85  1  0
 41 86  1  0
 41 87  1  0
 44 88  1  0
 44 89  1  0
 44 90  1  0
M  END
>  <meeko>  (7) 
{"is_sidechain": [false], "free_energy": -6.294, "intermolecular_energy": -10.352, "internal_energy": -1.965}

$$$$
LIB_IELVEPMRFQCOKL__M_PUB_ALL__e8__s20260927
     RDKit          3D

 90 95  0  0  0  0  0  0  0  0999 V2000
    5.2410  -18.6620   -0.3030 C   0  0  0  0  0  0  0  0  0  0  0  0
    5.6550  -17.5410   -1.2010 C   0  0  0  0  0  0  0  0  0  0  0  0
    6.1040  -16.3210   -0.8460 C   0  0  0  0  0  0  0  0  0  0  0  0
    6.3250  -15.8330    0.5550 C   0  0  0  0  0  0  0  0  0  0  0  0
    6.4380  -15.3810   -1.9630 C   0  0  0  0  0  0  0  0  0  0  0  0
    5.6270  -14.9290   -2.7540 O   0  0  0  0  0  0  0  0  0  0  0  0
    7.7610  -15.0960   -1.9180 O   0  0  0  0  0  0  0  0  0  0  0  0
    8.2740  -14.1460   -2.8890 C   0  0  2  0  0  0  0  0  0  0  0  0
    9.1110  -14.9370   -3.9090 C   0  0  2  0  0  0  0  0  0  0  0  0
    8.4280  -16.0620   -4.5130 O   0  0  0  0  0  0  0  0  0  0  0  0
    9.3430  -17.1980   -4.5360 C   0  0  0  0  0  0  0  0  0  0  0  0
   10.7460  -16.6420   -4.2200 C   0  0  2  0  0  0  0  0  0  0  0  0
   11.3620  -16.1600   -5.5490 C   0  0  0  0  0  0  0  0  0  0  0  0
   11.7420  -17.5710   -3.4910 C   0  0  2  0  0  0  0  0  0  0  0  0
   11.0350  -18.3270   -2.4840 O   0  0  0  0  0  0  0  0  0  0  0  0
   11.4380  -19.6080   -2.2820 C   0  0  0  0  0  0  0  0  0  0  0  0
   10.7700  -20.5130   -3.2730 C   0  0  0  0  0  0  0  0  0  0  0  0
   12.2220  -19.9810   -1.4210 O   0  0  0  0  0  0  0  0  0  0  0  0
   12.8740  -16.7320   -2.8260 C   0  0  0  0  0  0  0  0  0  0  0  0
   12.3880  -15.5640   -1.9220 C   0  0  2  0  0  0  0  0  0  0  0  0
   11.8560  -16.1320   -0.7230 O   0  0  0  0  0  0  0  0  0  0  0  0
   11.3200  -14.6250   -2.6020 C   0  0  1  0  0  0  0  0  0  0  0  0
   12.0510  -13.7350   -3.6330 C   0  0  0  0  0  0  0  0  0  0  0  0
   10.2990  -15.5710   -3.2370 C   0  0  1  0  0  0  0  0  0  0  0  0
   10.4760  -13.7660   -1.5420 C   0  0  1  0  0  0  0  0  0  0  0  0
   11.3720  -12.8600   -0.6440 C   0  0  0  0  0  0  0  0  0  0  0  0
   10.6890  -11.7770    0.2030 C   0  0  2  0  0  0  0  0  0  0  0  0
   11.7520  -11.1840    0.9700 O   0  0  0  0  0  0  0  0  0  0  0  0
   12.7080  -10.5180    0.1620 C   0  0  0  0  0  0  0  0  0  0  0  0
    9.6740  -12.2510    1.0720 O   0  0  0  0  0  0  0  0  0  0  0  0
    8.5880  -12.9430    0.4710 C   0  0  1  0  0  0  0  0  0  0  0  0
    7.2990  -12.6230    1.2310 C   0  0  0  0  0  0  0  0  0  0  0  0
    6.5820  -11.5390    0.4140 C   0  0  1  0  0  0  0  0  0  0  0  0
    6.7630  -10.1390    0.9050 C   0  0  0  0  0  0  0  0  0  0  0  0
    7.6630   -9.1970    0.6220 C   0  0  0  0  0  0  0  0  0  0  0  0
    7.4420   -7.9820    1.4220 C   0  0  0  0  0  0  0  0  0  0  0  0
    6.3250   -8.3030    2.2430 O   0  0  0  0  0  0  0  0  0  0  0  0
    5.9220   -9.5770    1.9740 C   0  0  0  0  0  0  0  0  0  0  0  0
    5.0140  -10.1560    2.5430 O   0  0  0  0  0  0  0  0  0  0  0  0
    7.1630  -11.7590   -0.9720 C   0  0  0  0  0  0  0  0  0  0  0  0
    6.3990  -11.2030   -2.1330 C   0  0  0  0  0  0  0  0  0  0  0  0
    8.2800  -12.5200   -0.9480 C   0  0  0  0  0  0  0  0  0  0  0  0
    9.1470  -13.0670   -2.1130 C   0  0  2  0  0  0  0  0  0  0  0  0
    9.5270  -11.9020   -3.0620 C   0  0  0  0  0  0  0  0  0  0  0  0
    5.3553  -18.3525    0.7464 H   0  0  0  0  0  0  0  0  0  0  0  0
    4.1890  -18.9180   -0.4973 H   0  0  0  0  0  0  0  0  0  0  0  0
    5.8741  -19.5404   -0.4973 H   0  0  0  0  0  0  0  0  0  0  0  0
    5.5847  -17.7353   -2.2814 H   0  0  0  0  0  0  0  0  0  0  0  0
    5.9794  -16.5961    1.2679 H   0  0  0  0  0  0  0  0  0  0  0  0
    7.3970  -15.6430    0.7123 H   0  0  0  0  0  0  0  0  0  0  0  0
    5.7607  -14.9020    0.7123 H   0  0  0  0  0  0  0  0  0  0  0  0
    7.4725  -13.6153   -3.4238 H   0  0  0  0  0  0  0  0  0  0  0  0
    9.3602  -14.1841   -4.6712 H   0  0  0  0  0  0  0  0  0  0  0  0
    9.0484  -17.9377   -3.7771 H   0  0  0  0  0  0  0  0  0  0  0  0
    9.3270  -17.6997   -5.5148 H   0  0  0  0  0  0  0  0  0  0  0  0
   12.2124  -15.4946   -5.3390 H   0  0  0  0  0  0  0  0  0  0  0  0
   11.7100  -17.0281   -6.1280 H   0  0  0  0  0  0  0  0  0  0  0  0
   10.6030  -15.6134   -6.1280 H   0  0  0  0  0  0  0  0  0  0  0  0
   12.1971  -18.2588   -4.2189 H   0  0  0  0  0  0  0  0  0  0  0  0
   10.1995  -21.2859   -2.7372 H   0  0  0  0  0  0  0  0  0  0  0  0
   10.0876  -19.9252   -3.9045 H   0  0  0  0  0  0  0  0  0  0  0  0
   11.5328  -20.9919   -3.9045 H   0  0  0  0  0  0  0  0  0  0  0  0
   13.4822  -17.4097   -2.2089 H   0  0  0  0  0  0  0  0  0  0  0  0
   13.4343  -16.2672   -3.6506 H   0  0  0  0  0  0  0  0  0  0  0  0
   13.2527  -14.9155   -1.7179 H   0  0  0  0  0  0  0  0  0  0  0  0
   11.2760  -16.8700   -0.9810 H   0  0  0  0  0  0  0  0  0  0  0  0
   12.6634  -12.9894   -3.1048 H   0  0  0  0  0  0  0  0  0  0  0  0
   12.6989  -14.3612   -4.2639 H   0  0  0  0  0  0  0  0  0  0  0  0
   11.3108  -13.2211   -4.2639 H   0  0  0  0  0  0  0  0  0  0  0  0
   10.0552  -16.0468   -2.2756 H   0  0  0  0  0  0  0  0  0  0  0  0
   10.0503  -14.5142   -0.8572 H   0  0  0  0  0  0  0  0  0  0  0  0
   11.9149  -13.5210    0.0476 H   0  0  0  0  0  0  0  0  0  0  0  0
   11.9927  -12.2976   -1.3571 H   0  0  0  0  0  0  0  0  0  0  0  0
   10.1654  -11.0746   -0.4622 H   0  0  0  0  0  0  0  0  0  0  0  0
   13.4402  -10.0079    0.8053 H   0  0  0  0  0  0  0  0  0  0  0  0
   13.2262  -11.2516   -0.4731 H   0  0  0  0  0  0  0  0  0  0  0  0
   12.1994   -9.7777   -0.4731 H   0  0  0  0  0  0  0  0  0  0  0  0
    8.8932  -13.9996    0.4912 H   0  0  0  0  0  0  0  0  0  0  0  0
    6.6690  -13.5213    1.3096 H   0  0  0  0  0  0  0  0  0  0  0  0
    7.5102  -12.2811    2.2550 H   0  0  0  0  0  0  0  0  0  0  0  0
    5.4878  -11.6356    0.4724 H   0  0  0  0  0  0  0  0  0  0  0  0
    8.4696   -9.3135   -0.1168 H   0  0  0  0  0  0  0  0  0  0  0  0
    8.3252   -7.7537    2.0367 H   0  0  0  0  0  0  0  0  0  0  0  0
    7.2650   -7.0933    0.7984 H   0  0  0  0  0  0  0  0  0  0  0  0
    5.5615  -10.5935   -1.7627 H   0  0  0  0  0  0  0  0  0  0  0  0
    7.0655  -10.5773   -2.7447 H   0  0  0  0  0  0  0  0  0  0  0  0
    6.0086  -12.0297   -2.7447 H   0  0  0  0  0  0  0  0  0  0  0  0
    9.8138  -11.0227   -2.4665 H   0  0  0  0  0  0  0  0  0  0  0  0
   10.3723  -12.2068   -3.6965 H   0  0  0  0  0  0  0  0  0  0  0  0
    8.6646  -11.6497   -3.6965 H   0  0  0  0  0  0  0  0  0  0  0  0
  1  2  1  0
  2  3  2  0
  3  4  1  0
  3  5  1  0
  5  6  2  0
  5  7  1  0
  7  8  1  0
  8  9  1  0
  9 10  1  0
 10 11  1  0
 11 12  1  0
 12 13  1  6
 12 14  1  0
 14 15  1  0
 15 16  1  0
 16 17  1  0
 16 18  2  0
 14 19  1  0
 19 20  1  0
 20 21  1  0
 20 22  1  0
 22 23  1  6
 22 24  1  0
 22 25  1  0
 25 26  1  0
 26 27  1  0
 27 28  1  0
 28 29  1  0
 27 30  1  0
 30 31  1  0
 31 32  1  0
 32 33  1  0
 33 34  1  0
 34 35  2  0
 35 36  1  0
 36 37  1  0
 37 38  1  0
 38 39  2  0
 33 40  1  0
 40 41  1  0
 40 42  2  0
 42 43  1  0
 43 44  1  6
 43  8  1  0
 24  9  1  0
 43 25  1  0
 24 12  1  0
 42 31  1  0
 38 34  1  0
  1 45  1  0
  1 46  1  0
  1 47  1  0
  2 48  1  0
  4 49  1  0
  4 50  1  0
  4 51  1  0
  8 52  1  6
  9 53  1  6
 11 54  1  0
 11 55  1  0
 13 56  1  0
 13 57  1  0
 13 58  1  0
 14 59  1  6
 17 60  1  0
 17 61  1  0
 17 62  1  0
 19 63  1  0
 19 64  1  0
 20 65  1  1
 21 66  1  0
 23 67  1  0
 23 68  1  0
 23 69  1  0
 24 70  1  1
 25 71  1  1
 26 72  1  0
 26 73  1  0
 27 74  1  6
 29 75  1  0
 29 76  1  0
 29 77  1  0
 31 78  1  6
 32 79  1  0
 32 80  1  0
 33 81  1  6
 35 82  1  0
 36 83  1  0
 36 84  1  0
 41 85  1  0
 41 86  1  0
 41 87  1  0
 44 88  1  0
 44 89  1  0
 44 90  1  0
M  END
>  <meeko>  (8) 
{"is_sidechain": [false], "free_energy": -6.262, "intermolecular_energy": -10.924, "internal_energy": -1.338}

$$$$
LIB_IELVEPMRFQCOKL__M_PUB_ALL__e8__s20260927
     RDKit          3D

 90 95  0  0  0  0  0  0  0  0999 V2000
    4.8330  -12.3920   -6.8960 C   0  0  0  0  0  0  0  0  0  0  0  0
    5.3860  -12.4750   -5.5100 C   0  0  0  0  0  0  0  0  0  0  0  0
    4.9110  -11.8870   -4.3930 C   0  0  0  0  0  0  0  0  0  0  0  0
    3.6770  -11.0400   -4.2970 C   0  0  0  0  0  0  0  0  0  0  0  0
    5.6780  -12.1340   -3.1310 C   0  0  0  0  0  0  0  0  0  0  0  0
    6.1150  -11.2570   -2.4040 O   0  0  0  0  0  0  0  0  0  0  0  0
    5.7630  -13.4690   -2.9210 O   0  0  0  0  0  0  0  0  0  0  0  0
    6.2380  -13.9120   -1.6220 C   0  0  2  0  0  0  0  0  0  0  0  0
    7.5160  -14.7360   -1.8570 C   0  0  2  0  0  0  0  0  0  0  0  0
    8.5330  -14.0700   -2.6410 O   0  0  0  0  0  0  0  0  0  0  0  0
    9.0630  -15.0210   -3.6130 C   0  0  0  0  0  0  0  0  0  0  0  0
    8.5650  -16.4140   -3.1820 C   0  0  2  0  0  0  0  0  0  0  0  0
    9.5670  -16.9640   -2.1460 C   0  0  0  0  0  0  0  0  0  0  0  0
    8.3290  -17.4680   -4.2870 C   0  0  2  0  0  0  0  0  0  0  0  0
    7.7340  -16.8260   -5.4350 O   0  0  0  0  0  0  0  0  0  0  0  0
    7.7020  -17.5390   -6.5910 C   0  0  0  0  0  0  0  0  0  0  0  0
    6.5230  -17.1180   -7.4150 C   0  0  0  0  0  0  0  0  0  0  0  0
    8.5050  -18.4010   -6.9190 O   0  0  0  0  0  0  0  0  0  0  0  0
    7.3890  -18.5960   -3.7650 C   0  0  0  0  0  0  0  0  0  0  0  0
    6.0590  -18.1050   -3.1250 C   0  0  2  0  0  0  0  0  0  0  0  0
    5.2140  -17.6390   -4.1790 O   0  0  0  0  0  0  0  0  0  0  0  0
    6.2460  -16.9810   -2.0360 C   0  0  1  0  0  0  0  0  0  0  0  0
    6.8050  -17.6430   -0.7550 C   0  0  0  0  0  0  0  0  0  0  0  0
    7.2080  -15.9700   -2.6610 C   0  0  1  0  0  0  0  0  0  0  0  0
    4.9030  -16.1490   -1.7580 C   0  0  1  0  0  0  0  0  0  0  0  0
    3.7210  -17.0570   -1.2820 C   0  0  0  0  0  0  0  0  0  0  0  0
    2.4940  -16.3830   -0.6510 C   0  0  2  0  0  0  0  0  0  0  0  0
    1.5820  -17.4620   -0.3790 O   0  0  0  0  0  0  0  0  0  0  0  0
    0.2280  -17.0420   -0.3370 C   0  0  0  0  0  0  0  0  0  0  0  0
    1.8620  -15.4110   -1.4660 O   0  0  0  0  0  0  0  0  0  0  0  0
    2.6740  -14.3430   -1.9350 C   0  0  1  0  0  0  0  0  0  0  0  0
    1.8240  -13.0760   -2.0590 C   0  0  0  0  0  0  0  0  0  0  0  0
    2.1070  -12.2500   -0.7960 C   0  0  1  0  0  0  0  0  0  0  0  0
    1.0860  -12.3650    0.2890 C   0  0  0  0  0  0  0  0  0  0  0  0
    0.4500  -13.4110    0.8170 C   0  0  0  0  0  0  0  0  0  0  0  0
   -0.5180  -12.9920    1.8430 C   0  0  0  0  0  0  0  0  0  0  0  0
   -0.4190  -11.5730    1.8570 O   0  0  0  0  0  0  0  0  0  0  0  0
    0.5010  -11.1780    0.9330 C   0  0  0  0  0  0  0  0  0  0  0  0
    0.7820  -10.0210    0.6790 O   0  0  0  0  0  0  0  0  0  0  0  0
    3.4710  -12.7730   -0.3820 C   0  0  0  0  0  0  0  0  0  0  0  0
    4.2840  -11.9170    0.5390 C   0  0  0  0  0  0  0  0  0  0  0  0
    3.7860  -13.9370   -0.9940 C   0  0  0  0  0  0  0  0  0  0  0  0
    5.0890  -14.7770   -0.9440 C   0  0  2  0  0  0  0  0  0  0  0  0
    5.4480  -15.0810    0.5330 C   0  0  0  0  0  0  0  0  0  0  0  0
    3.7462  -12.2289   -6.8480 H   0  0  0  0  0  0  0  0  0  0  0  0
    5.3062  -11.5548   -7.4301 H   0  0  0  0  0  0  0  0  0  0  0  0
    5.0396  -13.3312   -7.4301 H   0  0  0  0  0  0  0  0  0  0  0  0
    6.2896  -13.0899   -5.3859 H   0  0  0  0  0  0  0  0  0  0  0  0
    3.4300  -10.8705   -3.2386 H   0  0  0  0  0  0  0  0  0  0  0  0
    3.8562  -10.0736   -4.7910 H   0  0  0  0  0  0  0  0  0  0  0  0
    2.8397  -11.5546   -4.7910 H   0  0  0  0  0  0  0  0  0  0  0  0
    6.4751  -13.0738   -0.9503 H   0  0  0  0  0  0  0  0  0  0  0  0
    7.8825  -14.9300   -0.8381 H   0  0  0  0  0  0  0  0  0  0  0  0
    8.6926  -14.7804   -4.6204 H   0  0  0  0  0  0  0  0  0  0  0  0
   10.1619  -14.9848   -3.6451 H   0  0  0  0  0  0  0  0  0  0  0  0
    9.1946  -16.7596   -1.1313 H   0  0  0  0  0  0  0  0  0  0  0  0
    9.6783  -18.0496   -2.2840 H   0  0  0  0  0  0  0  0  0  0  0  0
   10.5426  -16.4750   -2.2840 H   0  0  0  0  0  0  0  0  0  0  0  0
    9.2917  -17.9177   -4.5714 H   0  0  0  0  0  0  0  0  0  0  0  0
    5.6976  -16.8233   -6.7503 H   0  0  0  0  0  0  0  0  0  0  0  0
    6.8051  -16.2650   -8.0497 H   0  0  0  0  0  0  0  0  0  0  0  0
    6.2010  -17.9567   -8.0497 H   0  0  0  0  0  0  0  0  0  0  0  0
    7.1377  -19.2496   -4.6133 H   0  0  0  0  0  0  0  0  0  0  0  0
    7.9423  -19.1090   -2.9646 H   0  0  0  0  0  0  0  0  0  0  0  0
    5.6105  -18.9537   -2.5877 H   0  0  0  0  0  0  0  0  0  0  0  0
    5.5690  -17.9870   -5.0150 H   0  0  0  0  0  0  0  0  0  0  0  0
    6.3833  -17.1436    0.1298 H   0  0  0  0  0  0  0  0  0  0  0  0
    6.5284  -18.7076   -0.7418 H   0  0  0  0  0  0  0  0  0  0  0  0
    7.9009  -17.5487   -0.7418 H   0  0  0  0  0  0  0  0  0  0  0  0
    6.5414  -15.7805   -3.5152 H   0  0  0  0  0  0  0  0  0  0  0  0
    4.5973  -15.7704   -2.7445 H   0  0  0  0  0  0  0  0  0  0  0  0
    3.3686  -17.6194   -2.1592 H   0  0  0  0  0  0  0  0  0  0  0  0
    4.1508  -17.6569   -0.4663 H   0  0  0  0  0  0  0  0  0  0  0  0
    2.8081  -15.8203    0.2405 H   0  0  0  0  0  0  0  0  0  0  0  0
   -0.0927  -16.9425    0.7105 H   0  0  0  0  0  0  0  0  0  0  0  0
    0.1294  -16.0710   -0.8445 H   0  0  0  0  0  0  0  0  0  0  0  0
   -0.4028  -17.7867   -0.8445 H   0  0  0  0  0  0  0  0  0  0  0  0
    3.0979  -14.7165   -2.8788 H   0  0  0  0  0  0  0  0  0  0  0  0
    2.1106  -12.5101   -2.9577 H   0  0  0  0  0  0  0  0  0  0  0  0
    0.7546  -13.3162   -2.1516 H   0  0  0  0  0  0  0  0  0  0  0  0
    2.0723  -11.1686   -0.9946 H   0  0  0  0  0  0  0  0  0  0  0  0
    0.6267  -14.4560    0.5226 H   0  0  0  0  0  0  0  0  0  0  0  0
   -1.5357  -13.3095    1.5720 H   0  0  0  0  0  0  0  0  0  0  0  0
   -0.3097  -13.4387    2.8264 H   0  0  0  0  0  0  0  0  0  0  0  0
    4.0438  -12.1699    1.5822 H   0  0  0  0  0  0  0  0  0  0  0  0
    5.3540  -12.0946    0.3557 H   0  0  0  0  0  0  0  0  0  0  0  0
    4.0515  -10.8576    0.3557 H   0  0  0  0  0  0  0  0  0  0  0  0
    4.7788  -14.5143    1.1971 H   0  0  0  0  0  0  0  0  0  0  0  0
    5.3296  -16.1576    0.7250 H   0  0  0  0  0  0  0  0  0  0  0  0
    6.4904  -14.7868    0.7250 H   0  0  0  0  0  0  0  0  0  0  0  0
  1  2  1  0
  2  3  2  0
  3  4  1  0
  3  5  1  0
  5  6  2  0
  5  7  1  0
  7  8  1  0
  8  9  1  0
  9 10  1  0
 10 11  1  0
 11 12  1  0
 12 13  1  1
 12 14  1  0
 14 15  1  0
 15 16  1  0
 16 17  1  0
 16 18  2  0
 14 19  1  0
 19 20  1  0
 20 21  1  0
 20 22  1  0
 22 23  1  1
 22 24  1  0
 22 25  1  0
 25 26  1  0
 26 27  1  0
 27 28  1  0
 28 29  1  0
 27 30  1  0
 30 31  1  0
 31 32  1  0
 32 33  1  0
 33 34  1  0
 34 35  2  0
 35 36  1  0
 36 37  1  0
 37 38  1  0
 38 39  2  0
 33 40  1  0
 40 41  1  0
 40 42  2  0
 42 43  1  0
 43 44  1  1
 43  8  1  0
 24  9  1  0
 43 25  1  0
 24 12  1  0
 42 31  1  0
 38 34  1  0
  1 45  1  0
  1 46  1  0
  1 47  1  0
  2 48  1  0
  4 49  1  0
  4 50  1  0
  4 51  1  0
  8 52  1  1
  9 53  1  1
 11 54  1  0
 11 55  1  0
 13 56  1  0
 13 57  1  0
 13 58  1  0
 14 59  1  6
 17 60  1  0
 17 61  1  0
 17 62  1  0
 19 63  1  0
 19 64  1  0
 20 65  1  1
 21 66  1  0
 23 67  1  0
 23 68  1  0
 23 69  1  0
 24 70  1  6
 25 71  1  6
 26 72  1  0
 26 73  1  0
 27 74  1  1
 29 75  1  0
 29 76  1  0
 29 77  1  0
 31 78  1  6
 32 79  1  0
 32 80  1  0
 33 81  1  6
 35 82  1  0
 36 83  1  0
 36 84  1  0
 41 85  1  0
 41 86  1  0
 41 87  1  0
 44 88  1  0
 44 89  1  0
 44 90  1  0
M  END
>  <meeko>  (9) 
{"is_sidechain": [false], "free_energy": -6.138, "intermolecular_energy": -10.54, "internal_energy": -1.516}

$$$$
