LIB_USMBHFKKSFYTRW__M_PUB_ALL__e8__s20260927
     RDKit          3D

 75 79  0  0  0  0  0  0  0  0999 V2000
    7.1000  -14.5630  -10.3030 N   0  0  0  0  0  0  0  0  0  0  0  0
    7.2210  -15.3750   -9.2130 C   0  0  0  0  0  0  0  0  0  0  0  0
    7.4620  -16.5690   -9.3400 O   0  0  0  0  0  0  0  0  0  0  0  0
    7.0280  -14.7700   -7.8680 C   0  0  0  0  0  0  0  0  0  0  0  0
    7.8440  -15.2160   -6.8240 C   0  0  0  0  0  0  0  0  0  0  0  0
    7.7670  -14.6820   -5.5200 C   0  0  0  0  0  0  0  0  0  0  0  0
    8.9320  -15.2760   -4.3110 S   0  0  0  0  0  0  0  0  0  0  0  0
    9.9370  -16.0230   -5.0330 O   0  0  0  0  0  0  0  0  0  0  0  0
    8.1870  -15.8480   -3.2140 O   0  0  0  0  0  0  0  0  0  0  0  0
    9.7210  -13.9200   -3.7250 N   0  0  0  0  0  0  0  0  0  0  0  0
   11.1560  -13.7980   -3.9900 C   0  0  0  0  0  0  0  0  0  0  0  0
   11.8120  -12.9100   -2.9590 C   0  0  0  0  0  0  0  0  0  0  0  0
   11.2470  -12.7660   -1.6820 C   0  0  0  0  0  0  0  0  0  0  0  0
   11.8710  -11.9680   -0.7190 C   0  0  0  0  0  0  0  0  0  0  0  0
   13.0650  -11.3190   -1.0230 C   0  0  0  0  0  0  0  0  0  0  0  0
   13.8330  -10.3400    0.1650 Cl  0  0  0  0  0  0  0  0  0  0  0  0
   13.6430  -11.4620   -2.2820 C   0  0  0  0  0  0  0  0  0  0  0  0
   13.0200  -12.2580   -3.2470 C   0  0  0  0  0  0  0  0  0  0  0  0
    6.7740  -13.6960   -5.2920 C   0  0  0  0  0  0  0  0  0  0  0  0
    5.9710  -13.2370   -6.3430 C   0  0  0  0  0  0  0  0  0  0  0  0
    6.0980  -13.7600   -7.6380 C   0  0  0  0  0  0  0  0  0  0  0  0
    5.1140  -12.2560   -5.9410 N   0  0  0  0  0  0  0  0  0  0  0  0
    5.3230  -12.1000   -4.6590 C   0  0  0  0  0  0  0  0  0  0  0  0
    4.6670  -11.2570   -3.8420 N   0  0  0  0  0  0  0  0  0  0  0  0
    3.2400  -11.0720   -3.9910 C   0  0  0  0  0  0  0  0  0  0  0  0
    2.5070  -11.8480   -2.9230 C   0  0  0  0  0  0  0  0  0  0  0  0
    2.1410  -11.1820   -1.7370 C   0  0  0  0  0  0  0  0  0  0  0  0
    1.4470  -11.8450   -0.7250 C   0  0  0  0  0  0  0  0  0  0  0  0
    1.0960  -13.1830   -0.8820 C   0  0  0  0  0  0  0  0  0  0  0  0
    1.4360  -13.8540   -2.0570 C   0  0  0  0  0  0  0  0  0  0  0  0
    2.1320  -13.1910   -3.0750 C   0  0  0  0  0  0  0  0  0  0  0  0
    2.4890  -14.0890   -4.5070 Cl  0  0  0  0  0  0  0  0  0  0  0  0
    6.3100  -12.9620   -4.2070 N   0  0  0  0  0  0  0  0  0  0  0  0
    6.7820  -13.0010   -2.8330 C   0  0  0  0  0  0  0  0  0  0  0  0
    5.8080  -12.4100   -1.7780 C   0  0  1  0  0  0  0  0  0  0  0  0
    5.3690  -13.5690   -0.8580 C   0  0  0  0  0  0  0  0  0  0  0  0
    4.6160  -13.1570    0.4040 C   0  0  0  0  0  0  0  0  0  0  0  0
    5.3200  -12.1980    1.3520 C   0  0  0  0  0  0  0  0  0  0  0  0
    6.8390  -12.3040    1.3520 C   0  0  0  0  0  0  0  0  0  0  0  0
    7.4530  -11.6240    0.1150 C   0  0  0  0  0  0  0  0  0  0  0  0
    6.4710  -11.2520   -1.0010 C   0  0  1  0  0  0  0  0  0  0  0  0
    7.0830  -10.3400   -1.9180 O   0  0  0  0  0  0  0  0  0  0  0  0
    6.8330  -13.5910  -10.2670 H   0  0  0  0  0  0  0  0  0  0  0  0
    7.2290  -14.9870  -11.2130 H   0  0  0  0  0  0  0  0  0  0  0  0
    8.5739  -16.0136   -7.0268 H   0  0  0  0  0  0  0  0  0  0  0  0
    9.1610  -13.0720   -3.8010 H   0  0  0  0  0  0  0  0  0  0  0  0
   11.6168  -14.7962   -3.9535 H   0  0  0  0  0  0  0  0  0  0  0  0
   11.2967  -13.3509   -4.9851 H   0  0  0  0  0  0  0  0  0  0  0  0
   10.3079  -13.2841   -1.4379 H   0  0  0  0  0  0  0  0  0  0  0  0
   11.4196  -11.8528    0.2775 H   0  0  0  0  0  0  0  0  0  0  0  0
   14.5877  -10.9496   -2.5163 H   0  0  0  0  0  0  0  0  0  0  0  0
   13.4802  -12.3740   -4.2393 H   0  0  0  0  0  0  0  0  0  0  0  0
    5.4729  -13.3783   -8.4587 H   0  0  0  0  0  0  0  0  0  0  0  0
    5.0950  -10.8100   -3.0290 H   0  0  0  0  0  0  0  0  0  0  0  0
    2.9988  -10.0030   -3.8955 H   0  0  0  0  0  0  0  0  0  0  0  0
    2.9290  -11.4363   -4.9812 H   0  0  0  0  0  0  0  0  0  0  0  0
    2.4067  -10.1225   -1.6069 H   0  0  0  0  0  0  0  0  0  0  0  0
    1.1769  -11.3104    0.1976 H   0  0  0  0  0  0  0  0  0  0  0  0
    0.5529  -13.7089   -0.0830 H   0  0  0  0  0  0  0  0  0  0  0  0
    1.1556  -14.9100   -2.1844 H   0  0  0  0  0  0  0  0  0  0  0  0
    6.9717  -14.0518   -2.5689 H   0  0  0  0  0  0  0  0  0  0  0  0
    7.6817  -12.3688   -2.8032 H   0  0  0  0  0  0  0  0  0  0  0  0
    4.9215  -11.9720   -2.2599 H   0  0  0  0  0  0  0  0  0  0  0  0
    4.7154  -14.2351   -1.4404 H   0  0  0  0  0  0  0  0  0  0  0  0
    6.2968  -14.0488   -0.5130 H   0  0  0  0  0  0  0  0  0  0  0  0
    3.6767  -12.6798    0.0879 H   0  0  0  0  0  0  0  0  0  0  0  0
    4.4963  -14.0871    0.9790 H   0  0  0  0  0  0  0  0  0  0  0  0
    5.0481  -11.1714    1.0652 H   0  0  0  0  0  0  0  0  0  0  0  0
    4.9898  -12.4657    2.3666 H   0  0  0  0  0  0  0  0  0  0  0  0
    7.2310  -11.8186    2.2580 H   0  0  0  0  0  0  0  0  0  0  0  0
    7.1102  -13.3698    1.3296 H   0  0  0  0  0  0  0  0  0  0  0  0
    7.9488  -10.7007    0.4493 H   0  0  0  0  0  0  0  0  0  0  0  0
    8.1357  -12.3662   -0.3245 H   0  0  0  0  0  0  0  0  0  0  0  0
    5.6352  -10.7874   -0.4573 H   0  0  0  0  0  0  0  0  0  0  0  0
    7.6180   -9.7050   -1.4110 H   0  0  0  0  0  0  0  0  0  0  0  0
  1  2  1  0
  2  3  2  0
  2  4  1  0
  4  5  2  0
  5  6  1  0
  6  7  1  0
  7  8  2  0
  7  9  2  0
  7 10  1  0
 10 11  1  0
 11 12  1  0
 12 13  2  0
 13 14  1  0
 14 15  2  0
 15 16  1  0
 15 17  1  0
 17 18  2  0
  6 19  2  0
 19 20  1  0
 20 21  2  0
 20 22  1  0
 22 23  2  0
 23 24  1  0
 24 25  1  0
 25 26  1  0
 26 27  2  0
 27 28  1  0
 28 29  2  0
 29 30  1  0
 30 31  2  0
 31 32  1  0
 23 33  1  0
 33 34  1  0
 34 35  1  0
 35 36  1  0
 36 37  1  0
 37 38  1  0
 38 39  1  0
 39 40  1  0
 40 41  1  0
 41 42  1  0
 21  4  1  0
 31 26  1  0
 41 35  1  0
 18 12  1  0
 33 19  1  0
  1 43  1  0
  1 44  1  0
  5 45  1  0
 10 46  1  0
 11 47  1  0
 11 48  1  0
 13 49  1  0
 14 50  1  0
 17 51  1  0
 18 52  1  0
 21 53  1  0
 24 54  1  0
 25 55  1  0
 25 56  1  0
 27 57  1  0
 28 58  1  0
 29 59  1  0
 30 60  1  0
 34 61  1  0
 34 62  1  0
 35 63  1  6
 36 64  1  0
 36 65  1  0
 37 66  1  0
 37 67  1  0
 38 68  1  0
 38 69  1  0
 39 70  1  0
 39 71  1  0
 40 72  1  0
 40 73  1  0
 41 74  1  1
 42 75  1  0
M  END
>  <meeko>  (1) 
{"is_sidechain": [false], "free_energy": -7.051, "intermolecular_energy": -13.852, "internal_energy": -1.481}

$$$$
LIB_USMBHFKKSFYTRW__M_PUB_ALL__e8__s20260927
     RDKit          3D

 75 79  0  0  0  0  0  0  0  0999 V2000
   -3.1290  -10.3510   -0.3590 N   0  0  0  0  0  0  0  0  0  0  0  0
   -3.9400  -11.4240   -0.1320 C   0  0  0  0  0  0  0  0  0  0  0  0
   -5.0770  -11.4630   -0.5890 O   0  0  0  0  0  0  0  0  0  0  0  0
   -3.4130  -12.5320    0.7080 C   0  0  0  0  0  0  0  0  0  0  0  0
   -2.1020  -12.9610    0.4820 C   0  0  0  0  0  0  0  0  0  0  0  0
   -1.4930  -13.9780    1.2490 C   0  0  0  0  0  0  0  0  0  0  0  0
    0.2150  -14.3570    0.9150 S   0  0  0  0  0  0  0  0  0  0  0  0
    0.2930  -15.7870    0.7220 O   0  0  0  0  0  0  0  0  0  0  0  0
    1.0260  -13.6650    1.8890 O   0  0  0  0  0  0  0  0  0  0  0  0
    0.5530  -13.6870   -0.5820 N   0  0  0  0  0  0  0  0  0  0  0  0
    1.1750  -12.3620   -0.6110 C   0  0  0  0  0  0  0  0  0  0  0  0
    1.8840  -12.1390   -1.9260 C   0  0  0  0  0  0  0  0  0  0  0  0
    2.0660  -13.2010   -2.8260 C   0  0  0  0  0  0  0  0  0  0  0  0
    2.6950  -12.9870   -4.0550 C   0  0  0  0  0  0  0  0  0  0  0  0
    3.1360  -11.7090   -4.3960 C   0  0  0  0  0  0  0  0  0  0  0  0
    3.9070  -11.4480   -5.9110 Cl  0  0  0  0  0  0  0  0  0  0  0  0
    2.9510  -10.6440   -3.5190 C   0  0  0  0  0  0  0  0  0  0  0  0
    2.3240  -10.8570   -2.2890 C   0  0  0  0  0  0  0  0  0  0  0  0
   -2.2970  -14.5980    2.2390 C   0  0  0  0  0  0  0  0  0  0  0  0
   -3.6030  -14.1540    2.4770 C   0  0  0  0  0  0  0  0  0  0  0  0
   -4.1670  -13.1130    1.7240 C   0  0  0  0  0  0  0  0  0  0  0  0
   -4.1960  -14.8360    3.4970 N   0  0  0  0  0  0  0  0  0  0  0  0
   -3.3210  -15.7230    3.8930 C   0  0  0  0  0  0  0  0  0  0  0  0
   -3.4980  -16.6410    4.8600 N   0  0  0  0  0  0  0  0  0  0  0  0
   -4.8370  -17.0100    5.2680 C   0  0  0  0  0  0  0  0  0  0  0  0
   -5.3000  -16.1050    6.3850 C   0  0  0  0  0  0  0  0  0  0  0  0
   -4.5430  -16.0580    7.5720 C   0  0  0  0  0  0  0  0  0  0  0  0
   -4.9130  -15.2260    8.6290 C   0  0  0  0  0  0  0  0  0  0  0  0
   -6.0410  -14.4190    8.5160 C   0  0  0  0  0  0  0  0  0  0  0  0
   -6.7940  -14.4400    7.3420 C   0  0  0  0  0  0  0  0  0  0  0  0
   -6.4240  -15.2730    6.2790 C   0  0  0  0  0  0  0  0  0  0  0  0
   -7.3960  -15.2180    4.8520 Cl  0  0  0  0  0  0  0  0  0  0  0  0
   -2.1530  -15.6360    3.1520 N   0  0  0  0  0  0  0  0  0  0  0  0
   -0.9860  -16.4710    3.3800 C   0  0  0  0  0  0  0  0  0  0  0  0
    0.1210  -15.8380    4.2660 C   0  0  1  0  0  0  0  0  0  0  0  0
   -0.3990  -15.8340    5.7190 C   0  0  0  0  0  0  0  0  0  0  0  0
   -0.4440  -17.1950    6.4060 C   0  0  0  0  0  0  0  0  0  0  0  0
    0.8660  -17.9610    6.5200 C   0  0  0  0  0  0  0  0  0  0  0  0
    1.1590  -18.8960    5.3540 C   0  0  0  0  0  0  0  0  0  0  0  0
    1.3840  -18.1320    4.0330 C   0  0  0  0  0  0  0  0  0  0  0  0
    1.4550  -16.6030    4.1140 C   0  0  1  0  0  0  0  0  0  0  0  0
    2.1910  -16.0800    3.0050 O   0  0  0  0  0  0  0  0  0  0  0  0
   -2.2140  -10.2280    0.0470 H   0  0  0  0  0  0  0  0  0  0  0  0
   -3.5010   -9.6020   -0.9290 H   0  0  0  0  0  0  0  0  0  0  0  0
   -1.5224  -12.4880   -0.3245 H   0  0  0  0  0  0  0  0  0  0  0  0
    0.8900  -14.3740   -1.2560 H   0  0  0  0  0  0  0  0  0  0  0  0
    0.3975  -11.5943   -0.4842 H   0  0  0  0  0  0  0  0  0  0  0  0
    1.9098  -12.2960    0.2050 H   0  0  0  0  0  0  0  0  0  0  0  0
    1.7111  -14.2081   -2.5618 H   0  0  0  0  0  0  0  0  0  0  0  0
    2.8420  -13.8250   -4.7522 H   0  0  0  0  0  0  0  0  0  0  0  0
    3.2978   -9.6369   -3.7939 H   0  0  0  0  0  0  0  0  0  0  0  0
    2.1740  -10.0131   -1.5996 H   0  0  0  0  0  0  0  0  0  0  0  0
   -5.1882  -12.7617    1.9330 H   0  0  0  0  0  0  0  0  0  0  0  0
   -2.7380  -17.1940    5.2610 H   0  0  0  0  0  0  0  0  0  0  0  0
   -5.5199  -16.9112    4.4113 H   0  0  0  0  0  0  0  0  0  0  0  0
   -4.8344  -18.0514    5.6222 H   0  0  0  0  0  0  0  0  0  0  0  0
   -3.6458  -16.6873    7.6670 H   0  0  0  0  0  0  0  0  0  0  0  0
   -4.3135  -15.2079    9.5511 H   0  0  0  0  0  0  0  0  0  0  0  0
   -6.3380  -13.7663    9.3502 H   0  0  0  0  0  0  0  0  0  0  0  0
   -7.6831  -13.7988    7.2508 H   0  0  0  0  0  0  0  0  0  0  0  0
   -1.3218  -17.3985    3.8669 H   0  0  0  0  0  0  0  0  0  0  0  0
   -0.5296  -16.6316    2.3921 H   0  0  0  0  0  0  0  0  0  0  0  0
    0.3351  -14.8053    3.9533 H   0  0  0  0  0  0  0  0  0  0  0  0
    0.2556  -15.1774    6.3110 H   0  0  0  0  0  0  0  0  0  0  0  0
   -1.4422  -15.4895    5.6646 H   0  0  0  0  0  0  0  0  0  0  0  0
   -0.8254  -17.0383    7.4258 H   0  0  0  0  0  0  0  0  0  0  0  0
   -1.0807  -17.8174    5.7600 H   0  0  0  0  0  0  0  0  0  0  0  0
    1.6855  -17.2304    6.5879 H   0  0  0  0  0  0  0  0  0  0  0  0
    0.7781  -18.5963    7.4137 H   0  0  0  0  0  0  0  0  0  0  0  0
    2.0640  -19.4769    5.5852 H   0  0  0  0  0  0  0  0  0  0  0  0
    0.2850  -19.5503    5.2196 H   0  0  0  0  0  0  0  0  0  0  0  0
    2.3329  -18.4855    3.6033 H   0  0  0  0  0  0  0  0  0  0  0  0
    0.4912  -18.3436    3.4263 H   0  0  0  0  0  0  0  0  0  0  0  0
    1.9715  -16.4242    5.0686 H   0  0  0  0  0  0  0  0  0  0  0  0
    2.2640  -16.7730    2.3270 H   0  0  0  0  0  0  0  0  0  0  0  0
  1  2  1  0
  2  3  2  0
  2  4  1  0
  4  5  2  0
  5  6  1  0
  6  7  1  0
  7  8  2  0
  7  9  2  0
  7 10  1  0
 10 11  1  0
 11 12  1  0
 12 13  2  0
 13 14  1  0
 14 15  2  0
 15 16  1  0
 15 17  1  0
 17 18  2  0
  6 19  2  0
 19 20  1  0
 20 21  2  0
 20 22  1  0
 22 23  2  0
 23 24  1  0
 24 25  1  0
 25 26  1  0
 26 27  2  0
 27 28  1  0
 28 29  2  0
 29 30  1  0
 30 31  2  0
 31 32  1  0
 23 33  1  0
 33 34  1  0
 34 35  1  0
 35 36  1  0
 36 37  1  0
 37 38  1  0
 38 39  1  0
 39 40  1  0
 40 41  1  0
 41 42  1  0
 21  4  1  0
 31 26  1  0
 41 35  1  0
 18 12  1  0
 33 19  1  0
  1 43  1  0
  1 44  1  0
  5 45  1  0
 10 46  1  0
 11 47  1  0
 11 48  1  0
 13 49  1  0
 14 50  1  0
 17 51  1  0
 18 52  1  0
 21 53  1  0
 24 54  1  0
 25 55  1  0
 25 56  1  0
 27 57  1  0
 28 58  1  0
 29 59  1  0
 30 60  1  0
 34 61  1  0
 34 62  1  0
 35 63  1  6
 36 64  1  0
 36 65  1  0
 37 66  1  0
 37 67  1  0
 38 68  1  0
 38 69  1  0
 39 70  1  0
 39 71  1  0
 40 72  1  0
 40 73  1  0
 41 74  1  1
 42 75  1  0
M  END
>  <meeko>  (2) 
{"is_sidechain": [false], "free_energy": -6.909, "intermolecular_energy": -13.602, "internal_energy": -1.453}

$$$$
LIB_USMBHFKKSFYTRW__M_PUB_ALL__e8__s20260927
     RDKit          3D

 75 79  0  0  0  0  0  0  0  0999 V2000
   -2.0990  -10.2190    3.2170 N   0  0  0  0  0  0  0  0  0  0  0  0
   -1.2810   -9.9560    2.1580 C   0  0  0  0  0  0  0  0  0  0  0  0
   -1.2340   -8.8370    1.6610 O   0  0  0  0  0  0  0  0  0  0  0  0
   -0.4680  -11.0740    1.6090 C   0  0  0  0  0  0  0  0  0  0  0  0
   -0.4130  -12.2650    2.3380 C   0  0  0  0  0  0  0  0  0  0  0  0
    0.2980  -13.3980    1.8870 C   0  0  0  0  0  0  0  0  0  0  0  0
    0.2040  -14.8810    2.8700 S   0  0  0  0  0  0  0  0  0  0  0  0
   -0.5530  -14.5470    4.0550 O   0  0  0  0  0  0  0  0  0  0  0  0
    1.5260  -15.4590    2.9370 O   0  0  0  0  0  0  0  0  0  0  0  0
   -0.7620  -15.9440    2.0100 N   0  0  0  0  0  0  0  0  0  0  0  0
   -2.2060  -15.8980    2.2480 C   0  0  0  0  0  0  0  0  0  0  0  0
   -2.8240  -14.7210    1.5310 C   0  0  0  0  0  0  0  0  0  0  0  0
   -3.6490  -13.8200    2.2230 C   0  0  0  0  0  0  0  0  0  0  0  0
   -4.1960  -12.7150    1.5670 C   0  0  0  0  0  0  0  0  0  0  0  0
   -3.9150  -12.4990    0.2190 C   0  0  0  0  0  0  0  0  0  0  0  0
   -4.5870  -11.1350   -0.5860 Cl  0  0  0  0  0  0  0  0  0  0  0  0
   -3.0880  -13.3770   -0.4770 C   0  0  0  0  0  0  0  0  0  0  0  0
   -2.5420  -14.4840    0.1770 C   0  0  0  0  0  0  0  0  0  0  0  0
    1.0130  -13.2600    0.6710 C   0  0  0  0  0  0  0  0  0  0  0  0
    0.9410  -12.0730   -0.0670 C   0  0  0  0  0  0  0  0  0  0  0  0
    0.1940  -10.9770    0.3880 C   0  0  0  0  0  0  0  0  0  0  0  0
    1.6520  -12.1490   -1.2280 N   0  0  0  0  0  0  0  0  0  0  0  0
    2.2020  -13.3360   -1.2350 C   0  0  0  0  0  0  0  0  0  0  0  0
    3.0230  -13.8270   -2.1800 N   0  0  0  0  0  0  0  0  0  0  0  0
    4.3240  -13.2280   -2.3880 C   0  0  0  0  0  0  0  0  0  0  0  0
    4.5950  -13.0910   -3.8670 C   0  0  0  0  0  0  0  0  0  0  0  0
    5.2550  -14.1440   -4.5310 C   0  0  0  0  0  0  0  0  0  0  0  0
    5.5140  -14.0800   -5.9010 C   0  0  0  0  0  0  0  0  0  0  0  0
    5.1110  -12.9680   -6.6340 C   0  0  0  0  0  0  0  0  0  0  0  0
    4.4430  -11.9230   -5.9960 C   0  0  0  0  0  0  0  0  0  0  0  0
    4.1800  -11.9850   -4.6220 C   0  0  0  0  0  0  0  0  0  0  0  0
    3.3240  -10.6600   -3.9170 Cl  0  0  0  0  0  0  0  0  0  0  0  0
    1.8620  -14.0490   -0.0970 N   0  0  0  0  0  0  0  0  0  0  0  0
    2.2970  -15.4110    0.1650 C   0  0  0  0  0  0  0  0  0  0  0  0
    2.0320  -16.4240   -0.9820 C   0  0  1  0  0  0  0  0  0  0  0  0
    3.4010  -16.8140   -1.5780 C   0  0  0  0  0  0  0  0  0  0  0  0
    4.2730  -17.7030   -0.6970 C   0  0  0  0  0  0  0  0  0  0  0  0
    3.7120  -19.0630   -0.3090 C   0  0  0  0  0  0  0  0  0  0  0  0
    2.9130  -19.0740    0.9880 C   0  0  0  0  0  0  0  0  0  0  0  0
    1.6280  -18.2110    0.9040 C   0  0  0  0  0  0  0  0  0  0  0  0
    1.2390  -17.6460   -0.4660 C   0  0  1  0  0  0  0  0  0  0  0  0
   -0.1640  -17.3670   -0.5080 O   0  0  0  0  0  0  0  0  0  0  0  0
   -2.2350  -11.1330    3.6240 H   0  0  0  0  0  0  0  0  0  0  0  0
   -2.6500   -9.4520    3.5790 H   0  0  0  0  0  0  0  0  0  0  0  0
   -0.9439  -12.3217    3.2997 H   0  0  0  0  0  0  0  0  0  0  0  0
   -0.4530  -16.0690    1.0470 H   0  0  0  0  0  0  0  0  0  0  0  0
   -2.6634  -16.8276    1.8784 H   0  0  0  0  0  0  0  0  0  0  0  0
   -2.3849  -15.7901    3.3280 H   0  0  0  0  0  0  0  0  0  0  0  0
   -3.8659  -13.9855    3.2886 H   0  0  0  0  0  0  0  0  0  0  0  0
   -4.8472  -12.0166    2.1130 H   0  0  0  0  0  0  0  0  0  0  0  0
   -2.8652  -13.1992   -1.5394 H   0  0  0  0  0  0  0  0  0  0  0  0
   -1.8863  -15.1748   -0.3733 H   0  0  0  0  0  0  0  0  0  0  0  0
    0.1320  -10.0558   -0.2099 H   0  0  0  0  0  0  0  0  0  0  0  0
    2.8370  -14.6870   -2.7000 H   0  0  0  0  0  0  0  0  0  0  0  0
    4.3469  -12.2332   -1.9191 H   0  0  0  0  0  0  0  0  0  0  0  0
    5.0949  -13.8694   -1.9360 H   0  0  0  0  0  0  0  0  0  0  0  0
    5.5710  -15.0301   -3.9609 H   0  0  0  0  0  0  0  0  0  0  0  0
    6.0367  -14.9086   -6.4012 H   0  0  0  0  0  0  0  0  0  0  0  0
    5.3185  -12.9133   -7.7129 H   0  0  0  0  0  0  0  0  0  0  0  0
    4.1209  -11.0452   -6.5754 H   0  0  0  0  0  0  0  0  0  0  0  0
    3.3799  -15.3909    0.3574 H   0  0  0  0  0  0  0  0  0  0  0  0
    1.7037  -15.7604    1.0228 H   0  0  0  0  0  0  0  0  0  0  0  0
    1.4076  -15.9755   -1.7687 H   0  0  0  0  0  0  0  0  0  0  0  0
    3.2195  -17.3473   -2.5228 H   0  0  0  0  0  0  0  0  0  0  0  0
    3.9563  -15.8722   -1.6992 H   0  0  0  0  0  0  0  0  0  0  0  0
    5.2176  -17.8757   -1.2335 H   0  0  0  0  0  0  0  0  0  0  0  0
    4.3686  -17.1549    0.2519 H   0  0  0  0  0  0  0  0  0  0  0  0
    3.0534  -19.4064   -1.1204 H   0  0  0  0  0  0  0  0  0  0  0  0
    4.5776  -19.7221   -0.1469 H   0  0  0  0  0  0  0  0  0  0  0  0
    2.6265  -20.1112    1.2165 H   0  0  0  0  0  0  0  0  0  0  0  0
    3.5506  -18.6463    1.7757 H   0  0  0  0  0  0  0  0  0  0  0  0
    0.7907  -18.8334    1.2527 H   0  0  0  0  0  0  0  0  0  0  0  0
    1.8467  -17.3253    1.5186 H   0  0  0  0  0  0  0  0  0  0  0  0
    1.5179  -18.4525   -1.1601 H   0  0  0  0  0  0  0  0  0  0  0  0
   -0.6170  -17.9640    0.1110 H   0  0  0  0  0  0  0  0  0  0  0  0
  1  2  1  0
  2  3  2  0
  2  4  1  0
  4  5  2  0
  5  6  1  0
  6  7  1  0
  7  8  2  0
  7  9  2  0
  7 10  1  0
 10 11  1  0
 11 12  1  0
 12 13  2  0
 13 14  1  0
 14 15  2  0
 15 16  1  0
 15 17  1  0
 17 18  2  0
  6 19  2  0
 19 20  1  0
 20 21  2  0
 20 22  1  0
 22 23  2  0
 23 24  1  0
 24 25  1  0
 25 26  1  0
 26 27  2  0
 27 28  1  0
 28 29  2  0
 29 30  1  0
 30 31  2  0
 31 32  1  0
 23 33  1  0
 33 34  1  0
 34 35  1  0
 35 36  1  0
 36 37  1  0
 37 38  1  0
 38 39  1  0
 39 40  1  0
 40 41  1  0
 41 42  1  0
 21  4  1  0
 31 26  1  0
 41 35  1  0
 18 12  1  0
 33 19  1  0
  1 43  1  0
  1 44  1  0
  5 45  1  0
 10 46  1  0
 11 47  1  0
 11 48  1  0
 13 49  1  0
 14 50  1  0
 17 51  1  0
 18 52  1  0
 21 53  1  0
 24 54  1  0
 25 55  1  0
 25 56  1  0
 27 57  1  0
 28 58  1  0
 29 59  1  0
 30 60  1  0
 34 61  1  0
 34 62  1  0
 35 63  1  6
 36 64  1  0
 36 65  1  0
 37 66  1  0
 37 67  1  0
 38 68  1  0
 38 69  1  0
 39 70  1  0
 39 71  1  0
 40 72  1  0
 40 73  1  0
 41 74  1  6
 42 75  1  0
M  END
>  <meeko>  (3) 
{"is_sidechain": [false], "free_energy": -6.842, "intermolecular_energy": -12.999, "internal_energy": -1.924}

$$$$
LIB_USMBHFKKSFYTRW__M_PUB_ALL__e8__s20260927
     RDKit          3D

 75 79  0  0  0  0  0  0  0  0999 V2000
    3.3170   -9.9650   -4.0050 N   0  0  0  0  0  0  0  0  0  0  0  0
    3.1000  -11.3110   -3.9840 C   0  0  0  0  0  0  0  0  0  0  0  0
    3.3430  -12.0040   -4.9650 O   0  0  0  0  0  0  0  0  0  0  0  0
    2.5350  -11.9080   -2.7450 C   0  0  0  0  0  0  0  0  0  0  0  0
    2.7470  -13.2710   -2.5160 C   0  0  0  0  0  0  0  0  0  0  0  0
    2.2850  -13.9260   -1.3540 C   0  0  0  0  0  0  0  0  0  0  0  0
    2.7090  -15.6430   -1.1470 S   0  0  0  0  0  0  0  0  0  0  0  0
    3.7350  -15.9390   -2.1210 O   0  0  0  0  0  0  0  0  0  0  0  0
    1.4820  -16.4010   -1.0660 O   0  0  0  0  0  0  0  0  0  0  0  0
    3.4650  -15.7560    0.3430 N   0  0  0  0  0  0  0  0  0  0  0  0
    4.9280  -15.7270    0.3690 C   0  0  0  0  0  0  0  0  0  0  0  0
    5.4260  -14.3190    0.5940 C   0  0  0  0  0  0  0  0  0  0  0  0
    5.9460  -13.5700   -0.4730 C   0  0  0  0  0  0  0  0  0  0  0  0
    6.3790  -12.2570   -0.2710 C   0  0  0  0  0  0  0  0  0  0  0  0
    6.2870  -11.6830    0.9950 C   0  0  0  0  0  0  0  0  0  0  0  0
    6.8170  -10.0650    1.2410 Cl  0  0  0  0  0  0  0  0  0  0  0  0
    5.7620  -12.4100    2.0610 C   0  0  0  0  0  0  0  0  0  0  0  0
    5.3310  -13.7240    1.8610 C   0  0  0  0  0  0  0  0  0  0  0  0
    1.5360  -13.1450   -0.4370 C   0  0  0  0  0  0  0  0  0  0  0  0
    1.3420  -11.7770   -0.6580 C   0  0  0  0  0  0  0  0  0  0  0  0
    1.8470  -11.1460   -1.8040 C   0  0  0  0  0  0  0  0  0  0  0  0
    0.6440  -11.1900    0.3540 N   0  0  0  0  0  0  0  0  0  0  0  0
    0.3590  -12.1490    1.1970 C   0  0  0  0  0  0  0  0  0  0  0  0
   -0.3550  -12.0270    2.3310 N   0  0  0  0  0  0  0  0  0  0  0  0
   -1.3220  -10.9590    2.4630 C   0  0  0  0  0  0  0  0  0  0  0  0
   -2.4170  -11.1280    1.4360 C   0  0  0  0  0  0  0  0  0  0  0  0
   -2.4170  -10.2880    0.3060 C   0  0  0  0  0  0  0  0  0  0  0  0
   -3.3930  -10.4130   -0.6830 C   0  0  0  0  0  0  0  0  0  0  0  0
   -4.3810  -11.3860   -0.5670 C   0  0  0  0  0  0  0  0  0  0  0  0
   -4.3870  -12.2380    0.5380 C   0  0  0  0  0  0  0  0  0  0  0  0
   -3.4090  -12.1160    1.5320 C   0  0  0  0  0  0  0  0  0  0  0  0
   -3.4740  -13.2280    2.8520 Cl  0  0  0  0  0  0  0  0  0  0  0  0
    0.8620  -13.3630    0.7590 N   0  0  0  0  0  0  0  0  0  0  0  0
    0.7310  -14.6080    1.4980 C   0  0  0  0  0  0  0  0  0  0  0  0
   -0.7220  -15.0090    1.8710 C   0  0  1  0  0  0  0  0  0  0  0  0
   -1.1340  -16.1660    0.9370 C   0  0  0  0  0  0  0  0  0  0  0  0
   -2.5420  -16.7140    1.1510 C   0  0  0  0  0  0  0  0  0  0  0  0
   -2.9200  -17.1280    2.5660 C   0  0  0  0  0  0  0  0  0  0  0  0
   -1.8110  -17.8280    3.3400 C   0  0  0  0  0  0  0  0  0  0  0  0
   -0.6640  -16.8660    3.7300 C   0  0  0  0  0  0  0  0  0  0  0  0
   -0.8230  -15.3870    3.3660 C   0  0  1  0  0  0  0  0  0  0  0  0
    0.0820  -14.5860    4.1310 O   0  0  0  0  0  0  0  0  0  0  0  0
    3.0710   -9.3320   -3.2580 H   0  0  0  0  0  0  0  0  0  0  0  0
    3.6980   -9.5690   -4.8550 H   0  0  0  0  0  0  0  0  0  0  0  0
    3.2947  -13.8552   -3.2701 H   0  0  0  0  0  0  0  0  0  0  0  0
    2.9760  -15.2410    1.0740 H   0  0  0  0  0  0  0  0  0  0  0  0
    5.2883  -16.3727    1.1834 H   0  0  0  0  0  0  0  0  0  0  0  0
    5.3079  -16.0881   -0.5981 H   0  0  0  0  0  0  0  0  0  0  0  0
    6.0131  -14.0195   -1.4747 H   0  0  0  0  0  0  0  0  0  0  0  0
    6.7918  -11.6776   -1.1100 H   0  0  0  0  0  0  0  0  0  0  0  0
    5.6869  -11.9508    3.0577 H   0  0  0  0  0  0  0  0  0  0  0  0
    4.9142  -14.2961    2.7030 H   0  0  0  0  0  0  0  0  0  0  0  0
    1.7020  -10.0664   -1.9572 H   0  0  0  0  0  0  0  0  0  0  0  0
   -0.3450  -12.7190    3.0820 H   0  0  0  0  0  0  0  0  0  0  0  0
   -1.7603  -10.9862    3.4715 H   0  0  0  0  0  0  0  0  0  0  0  0
   -0.8200   -9.9936    2.3021 H   0  0  0  0  0  0  0  0  0  0  0  0
   -1.6353   -9.5212    0.2014 H   0  0  0  0  0  0  0  0  0  0  0  0
   -3.3815   -9.7422   -1.5547 H   0  0  0  0  0  0  0  0  0  0  0  0
   -5.1542  -11.4831   -1.3433 H   0  0  0  0  0  0  0  0  0  0  0  0
   -5.1651  -13.0103    0.6286 H   0  0  0  0  0  0  0  0  0  0  0  0
    1.1590  -15.4142    0.8841 H   0  0  0  0  0  0  0  0  0  0  0  0
    1.2577  -14.4526    2.4511 H   0  0  0  0  0  0  0  0  0  0  0  0
   -1.4136  -14.1651    1.7313 H   0  0  0  0  0  0  0  0  0  0  0  0
   -1.0647  -15.8054   -0.0999 H   0  0  0  0  0  0  0  0  0  0  0  0
   -0.4492  -16.9962    1.1647 H   0  0  0  0  0  0  0  0  0  0  0  0
   -3.2517  -15.9360    0.8332 H   0  0  0  0  0  0  0  0  0  0  0  0
   -2.5762  -17.6442    0.5649 H   0  0  0  0  0  0  0  0  0  0  0  0
   -3.2086  -16.2240    3.1223 H   0  0  0  0  0  0  0  0  0  0  0  0
   -3.7394  -17.8555    2.4693 H   0  0  0  0  0  0  0  0  0  0  0  0
   -2.2384  -18.2581    4.2578 H   0  0  0  0  0  0  0  0  0  0  0  0
   -1.3879  -18.6065    2.6882 H   0  0  0  0  0  0  0  0  0  0  0  0
   -0.5423  -16.9248    4.8217 H   0  0  0  0  0  0  0  0  0  0  0  0
    0.1991  -17.2073    3.1395 H   0  0  0  0  0  0  0  0  0  0  0  0
   -1.8721  -15.1762    3.6210 H   0  0  0  0  0  0  0  0  0  0  0  0
    0.7720  -14.2450    3.5370 H   0  0  0  0  0  0  0  0  0  0  0  0
  1  2  1  0
  2  3  2  0
  2  4  1  0
  4  5  2  0
  5  6  1  0
  6  7  1  0
  7  8  2  0
  7  9  2  0
  7 10  1  0
 10 11  1  0
 11 12  1  0
 12 13  2  0
 13 14  1  0
 14 15  2  0
 15 16  1  0
 15 17  1  0
 17 18  2  0
  6 19  2  0
 19 20  1  0
 20 21  2  0
 20 22  1  0
 22 23  2  0
 23 24  1  0
 24 25  1  0
 25 26  1  0
 26 27  2  0
 27 28  1  0
 28 29  2  0
 29 30  1  0
 30 31  2  0
 31 32  1  0
 23 33  1  0
 33 34  1  0
 34 35  1  0
 35 36  1  0
 36 37  1  0
 37 38  1  0
 38 39  1  0
 39 40  1  0
 40 41  1  0
 41 42  1  0
 21  4  1  0
 31 26  1  0
 41 35  1  0
 18 12  1  0
 33 19  1  0
  1 43  1  0
  1 44  1  0
  5 45  1  0
 10 46  1  0
 11 47  1  0
 11 48  1  0
 13 49  1  0
 14 50  1  0
 17 51  1  0
 18 52  1  0
 21 53  1  0
 24 54  1  0
 25 55  1  0
 25 56  1  0
 27 57  1  0
 28 58  1  0
 29 59  1  0
 30 60  1  0
 34 61  1  0
 34 62  1  0
 35 63  1  1
 36 64  1  0
 36 65  1  0
 37 66  1  0
 37 67  1  0
 38 68  1  0
 38 69  1  0
 39 70  1  0
 39 71  1  0
 40 72  1  0
 40 73  1  0
 41 74  1  1
 42 75  1  0
M  END
>  <meeko>  (4) 
{"is_sidechain": [false], "free_energy": -6.761, "intermolecular_energy": -13.132, "internal_energy": -1.632}

$$$$
LIB_USMBHFKKSFYTRW__M_PUB_ALL__e8__s20260927
     RDKit          3D

 75 79  0  0  0  0  0  0  0  0999 V2000
   -1.1770  -10.2100    3.4440 N   0  0  0  0  0  0  0  0  0  0  0  0
   -0.9460   -9.8800    2.1400 C   0  0  0  0  0  0  0  0  0  0  0  0
   -1.3850   -8.8380    1.6670 O   0  0  0  0  0  0  0  0  0  0  0  0
   -0.1690  -10.8340    1.3060 C   0  0  0  0  0  0  0  0  0  0  0  0
   -0.0210  -12.1440    1.7720 C   0  0  0  0  0  0  0  0  0  0  0  0
    0.6650  -13.1370    1.0400 C   0  0  0  0  0  0  0  0  0  0  0  0
    0.6940  -14.7880    1.7090 S   0  0  0  0  0  0  0  0  0  0  0  0
    1.9010  -14.8970    2.4960 O   0  0  0  0  0  0  0  0  0  0  0  0
    0.3850  -15.7090    0.6410 O   0  0  0  0  0  0  0  0  0  0  0  0
   -0.5640  -14.8620    2.8110 N   0  0  0  0  0  0  0  0  0  0  0  0
   -1.8490  -15.3850    2.3450 C   0  0  0  0  0  0  0  0  0  0  0  0
   -2.6290  -14.3100    1.6250 C   0  0  0  0  0  0  0  0  0  0  0  0
   -3.2300  -13.2640    2.3450 C   0  0  0  0  0  0  0  0  0  0  0  0
   -3.9260  -12.2540    1.6760 C   0  0  0  0  0  0  0  0  0  0  0  0
   -4.0170  -12.2780    0.2860 C   0  0  0  0  0  0  0  0  0  0  0  0
   -4.8720  -11.0310   -0.5350 Cl  0  0  0  0  0  0  0  0  0  0  0  0
   -3.4170  -13.3020   -0.4420 C   0  0  0  0  0  0  0  0  0  0  0  0
   -2.7230  -14.3140    0.2260 C   0  0  0  0  0  0  0  0  0  0  0  0
    1.2580  -12.7320   -0.1830 C   0  0  0  0  0  0  0  0  0  0  0  0
    1.0920  -11.4260   -0.6570 C   0  0  0  0  0  0  0  0  0  0  0  0
    0.3710  -10.4720    0.0750 C   0  0  0  0  0  0  0  0  0  0  0  0
    1.6890  -11.2420   -1.8680 N   0  0  0  0  0  0  0  0  0  0  0  0
    2.2580  -12.3820   -2.1640 C   0  0  0  0  0  0  0  0  0  0  0  0
    2.9940  -12.6450   -3.2590 N   0  0  0  0  0  0  0  0  0  0  0  0
    4.2070  -11.8950   -3.5100 C   0  0  0  0  0  0  0  0  0  0  0  0
    4.9710  -12.5230   -4.6510 C   0  0  0  0  0  0  0  0  0  0  0  0
    4.4450  -12.4190   -5.9530 C   0  0  0  0  0  0  0  0  0  0  0  0
    5.1190  -12.9630   -7.0470 C   0  0  0  0  0  0  0  0  0  0  0  0
    6.3340  -13.6150   -6.8610 C   0  0  0  0  0  0  0  0  0  0  0  0
    6.8790  -13.7140   -5.5810 C   0  0  0  0  0  0  0  0  0  0  0  0
    6.2060  -13.1680   -4.4810 C   0  0  0  0  0  0  0  0  0  0  0  0
    6.9630  -13.3130   -2.9350 Cl  0  0  0  0  0  0  0  0  0  0  0  0
    2.0430  -13.3210   -1.1670 N   0  0  0  0  0  0  0  0  0  0  0  0
    2.5270  -14.6890   -1.2260 C   0  0  0  0  0  0  0  0  0  0  0  0
    4.0700  -14.8520   -1.1570 C   0  0  1  0  0  0  0  0  0  0  0  0
    4.4100  -15.4250    0.2350 C   0  0  0  0  0  0  0  0  0  0  0  0
    5.8950  -15.6430    0.5110 C   0  0  0  0  0  0  0  0  0  0  0  0
    6.7100  -16.3360   -0.5710 C   0  0  0  0  0  0  0  0  0  0  0  0
    6.0560  -17.5770   -1.1620 C   0  0  0  0  0  0  0  0  0  0  0  0
    4.8010  -17.2300   -2.0060 C   0  0  0  0  0  0  0  0  0  0  0  0
    4.5830  -15.7440   -2.3090 C   0  0  1  0  0  0  0  0  0  0  0  0
    3.7410  -15.5890   -3.4550 O   0  0  0  0  0  0  0  0  0  0  0  0
   -0.9050  -11.0830    3.8710 H   0  0  0  0  0  0  0  0  0  0  0  0
   -1.7110   -9.5540    4.0000 H   0  0  0  0  0  0  0  0  0  0  0  0
   -0.4559  -12.4110    2.7465 H   0  0  0  0  0  0  0  0  0  0  0  0
   -0.2580  -15.1430    3.7420 H   0  0  0  0  0  0  0  0  0  0  0  0
   -1.6700  -16.2244    1.6570 H   0  0  0  0  0  0  0  0  0  0  0  0
   -2.4310  -15.7244    3.2146 H   0  0  0  0  0  0  0  0  0  0  0  0
   -3.1521  -13.2400    3.4420 H   0  0  0  0  0  0  0  0  0  0  0  0
   -4.4011  -11.4416    2.2455 H   0  0  0  0  0  0  0  0  0  0  0  0
   -3.4891  -13.3142   -1.5396 H   0  0  0  0  0  0  0  0  0  0  0  0
   -2.2464  -15.1206   -0.3504 H   0  0  0  0  0  0  0  0  0  0  0  0
    0.2342   -9.4535   -0.3172 H   0  0  0  0  0  0  0  0  0  0  0  0
    2.8150  -13.4320   -3.8860 H   0  0  0  0  0  0  0  0  0  0  0  0
    3.9477  -10.8584   -3.7711 H   0  0  0  0  0  0  0  0  0  0  0  0
    4.8330  -11.9044   -2.6056 H   0  0  0  0  0  0  0  0  0  0  0  0
    3.4876  -11.9007   -6.1102 H   0  0  0  0  0  0  0  0  0  0  0  0
    4.6899  -12.8764   -8.0561 H   0  0  0  0  0  0  0  0  0  0  0  0
    6.8632  -14.0511   -7.7211 H   0  0  0  0  0  0  0  0  0  0  0  0
    7.8427  -14.2237   -5.4347 H   0  0  0  0  0  0  0  0  0  0  0  0
    2.0891  -15.2409   -0.3812 H   0  0  0  0  0  0  0  0  0  0  0  0
    2.2245  -15.0759   -2.2103 H   0  0  0  0  0  0  0  0  0  0  0  0
    4.5761  -13.8838   -1.2852 H   0  0  0  0  0  0  0  0  0  0  0  0
    4.0234  -14.7272    0.9924 H   0  0  0  0  0  0  0  0  0  0  0  0
    3.9464  -16.4218    0.2727 H   0  0  0  0  0  0  0  0  0  0  0  0
    6.3476  -14.6555    0.6845 H   0  0  0  0  0  0  0  0  0  0  0  0
    5.9255  -16.3283    1.3709 H   0  0  0  0  0  0  0  0  0  0  0  0
    6.8797  -15.6169   -1.3859 H   0  0  0  0  0  0  0  0  0  0  0  0
    7.6407  -16.6733   -0.0914 H   0  0  0  0  0  0  0  0  0  0  0  0
    6.7857  -18.0899   -1.8058 H   0  0  0  0  0  0  0  0  0  0  0  0
    5.7366  -18.2206   -0.3291 H   0  0  0  0  0  0  0  0  0  0  0  0
    4.8845  -17.7602   -2.9662 H   0  0  0  0  0  0  0  0  0  0  0  0
    3.9394  -17.5367   -1.3947 H   0  0  0  0  0  0  0  0  0  0  0  0
    5.6014  -15.3724   -2.4953 H   0  0  0  0  0  0  0  0  0  0  0  0
    3.2130  -16.3980   -3.5630 H   0  0  0  0  0  0  0  0  0  0  0  0
  1  2  1  0
  2  3  2  0
  2  4  1  0
  4  5  2  0
  5  6  1  0
  6  7  1  0
  7  8  2  0
  7  9  2  0
  7 10  1  0
 10 11  1  0
 11 12  1  0
 12 13  2  0
 13 14  1  0
 14 15  2  0
 15 16  1  0
 15 17  1  0
 17 18  2  0
  6 19  2  0
 19 20  1  0
 20 21  2  0
 20 22  1  0
 22 23  2  0
 23 24  1  0
 24 25  1  0
 25 26  1  0
 26 27  2  0
 27 28  1  0
 28 29  2  0
 29 30  1  0
 30 31  2  0
 31 32  1  0
 23 33  1  0
 33 34  1  0
 34 35  1  0
 35 36  1  0
 36 37  1  0
 37 38  1  0
 38 39  1  0
 39 40  1  0
 40 41  1  0
 41 42  1  0
 21  4  1  0
 31 26  1  0
 41 35  1  0
 18 12  1  0
 33 19  1  0
  1 43  1  0
  1 44  1  0
  5 45  1  0
 10 46  1  0
 11 47  1  0
 11 48  1  0
 13 49  1  0
 14 50  1  0
 17 51  1  0
 18 52  1  0
 21 53  1  0
 24 54  1  0
 25 55  1  0
 25 56  1  0
 27 57  1  0
 28 58  1  0
 29 59  1  0
 30 60  1  0
 34 61  1  0
 34 62  1  0
 35 63  1  6
 36 64  1  0
 36 65  1  0
 37 66  1  0
 37 67  1  0
 38 68  1  0
 38 69  1  0
 39 70  1  0
 39 71  1  0
 40 72  1  0
 40 73  1  0
 41 74  1  6
 42 75  1  0
M  END
>  <meeko>  (5) 
{"is_sidechain": [false], "free_energy": -6.758, "intermolecular_energy": -12.365, "internal_energy": -2.392}

$$$$
LIB_USMBHFKKSFYTRW__M_PUB_ALL__e8__s20260927
     RDKit          3D

 75 79  0  0  0  0  0  0  0  0999 V2000
    5.0180  -12.9210    3.1020 N   0  0  0  0  0  0  0  0  0  0  0  0
    4.5660  -13.7530    2.1200 C   0  0  0  0  0  0  0  0  0  0  0  0
    3.5800  -14.4580    2.2960 O   0  0  0  0  0  0  0  0  0  0  0  0
    5.3220  -13.7960    0.8400 C   0  0  0  0  0  0  0  0  0  0  0  0
    4.6220  -13.5490   -0.3450 C   0  0  0  0  0  0  0  0  0  0  0  0
    5.2510  -13.5290   -1.6080 C   0  0  0  0  0  0  0  0  0  0  0  0
    4.2560  -13.1070   -3.0230 S   0  0  0  0  0  0  0  0  0  0  0  0
    4.1440  -14.3050   -3.8250 O   0  0  0  0  0  0  0  0  0  0  0  0
    4.7480  -11.8610   -3.5630 O   0  0  0  0  0  0  0  0  0  0  0  0
    2.7140  -12.8210   -2.4350 N   0  0  0  0  0  0  0  0  0  0  0  0
    2.2800  -11.4290   -2.3090 C   0  0  0  0  0  0  0  0  0  0  0  0
    1.4390  -11.2460   -1.0670 C   0  0  0  0  0  0  0  0  0  0  0  0
    0.7070  -10.0640   -0.8720 C   0  0  0  0  0  0  0  0  0  0  0  0
   -0.0940   -9.9080    0.2620 C   0  0  0  0  0  0  0  0  0  0  0  0
   -0.1750  -10.9340    1.2010 C   0  0  0  0  0  0  0  0  0  0  0  0
   -1.1650  -10.7410    2.5950 Cl  0  0  0  0  0  0  0  0  0  0  0  0
    0.5360  -12.1170    1.0140 C   0  0  0  0  0  0  0  0  0  0  0  0
    1.3390  -12.2730   -0.1180 C   0  0  0  0  0  0  0  0  0  0  0  0
    6.6370  -13.8290   -1.6350 C   0  0  0  0  0  0  0  0  0  0  0  0
    7.3400  -14.0560   -0.4460 C   0  0  0  0  0  0  0  0  0  0  0  0
    6.6940  -14.0300    0.7990 C   0  0  0  0  0  0  0  0  0  0  0  0
    8.6660  -14.2760   -0.6710 N   0  0  0  0  0  0  0  0  0  0  0  0
    8.8230  -14.2300   -1.9680 C   0  0  0  0  0  0  0  0  0  0  0  0
    9.9710  -14.4310   -2.6400 N   0  0  0  0  0  0  0  0  0  0  0  0
   11.1880  -14.7270   -1.9150 C   0  0  0  0  0  0  0  0  0  0  0  0
   11.9000  -13.4440   -1.5610 C   0  0  0  0  0  0  0  0  0  0  0  0
   11.8690  -13.0030   -0.2230 C   0  0  0  0  0  0  0  0  0  0  0  0
   12.5250  -11.8340    0.1650 C   0  0  0  0  0  0  0  0  0  0  0  0
   13.2320  -11.0890   -0.7750 C   0  0  0  0  0  0  0  0  0  0  0  0
   13.2870  -11.5190   -2.1000 C   0  0  0  0  0  0  0  0  0  0  0  0
   12.6310  -12.6920   -2.4930 C   0  0  0  0  0  0  0  0  0  0  0  0
   12.7720  -13.1650   -4.1480 Cl  0  0  0  0  0  0  0  0  0  0  0  0
    7.6190  -13.9780   -2.6070 N   0  0  0  0  0  0  0  0  0  0  0  0
    7.4800  -13.8400   -4.0470 C   0  0  0  0  0  0  0  0  0  0  0  0
    7.7620  -15.1270   -4.8680 C   0  0  1  0  0  0  0  0  0  0  0  0
    6.4030  -15.6600   -5.3700 C   0  0  0  0  0  0  0  0  0  0  0  0
    6.4660  -16.9260   -6.2190 C   0  0  0  0  0  0  0  0  0  0  0  0
    7.4160  -16.9200   -7.4090 C   0  0  0  0  0  0  0  0  0  0  0  0
    7.4580  -15.6080   -8.1810 C   0  0  0  0  0  0  0  0  0  0  0  0
    8.1570  -14.4670   -7.3820 C   0  0  0  0  0  0  0  0  0  0  0  0
    8.7510  -14.8420   -6.0200 C   0  0  1  0  0  0  0  0  0  0  0  0
    9.7070  -13.8600   -5.6070 O   0  0  0  0  0  0  0  0  0  0  0  0
    5.8620  -12.3710    3.0450 H   0  0  0  0  0  0  0  0  0  0  0  0
    4.4980  -12.9040    3.9710 H   0  0  0  0  0  0  0  0  0  0  0  0
    3.5392  -13.3631   -0.2906 H   0  0  0  0  0  0  0  0  0  0  0  0
    2.0280  -13.4920   -2.7790 H   0  0  0  0  0  0  0  0  0  0  0  0
    3.1648  -10.7785   -2.2459 H   0  0  0  0  0  0  0  0  0  0  0  0
    1.6759  -11.1642   -3.1893 H   0  0  0  0  0  0  0  0  0  0  0  0
    0.7645   -9.2561   -1.6163 H   0  0  0  0  0  0  0  0  0  0  0  0
   -0.6597   -8.9768    0.4132 H   0  0  0  0  0  0  0  0  0  0  0  0
    0.4653  -12.9261    1.7558 H   0  0  0  0  0  0  0  0  0  0  0  0
    1.8974  -13.2091   -0.2661 H   0  0  0  0  0  0  0  0  0  0  0  0
    7.2618  -14.1917    1.7272 H   0  0  0  0  0  0  0  0  0  0  0  0
   10.0260  -14.5010   -3.6580 H   0  0  0  0  0  0  0  0  0  0  0  0
   10.9396  -15.2727   -0.9928 H   0  0  0  0  0  0  0  0  0  0  0  0
   11.8449  -15.3434   -2.5463 H   0  0  0  0  0  0  0  0  0  0  0  0
   11.3189  -13.5896    0.5276 H   0  0  0  0  0  0  0  0  0  0  0  0
   12.4835  -11.5014    1.2127 H   0  0  0  0  0  0  0  0  0  0  0  0
   13.7455  -10.1642   -0.4732 H   0  0  0  0  0  0  0  0  0  0  0  0
   13.8495  -10.9329   -2.8417 H   0  0  0  0  0  0  0  0  0  0  0  0
    6.4491  -13.5205   -4.2597 H   0  0  0  0  0  0  0  0  0  0  0  0
    8.2413  -13.1090   -4.3570 H   0  0  0  0  0  0  0  0  0  0  0  0
    8.2462  -15.8941   -4.2458 H   0  0  0  0  0  0  0  0  0  0  0  0
    5.7769  -15.8725   -4.4909 H   0  0  0  0  0  0  0  0  0  0  0  0
    5.9957  -14.8768   -6.0263 H   0  0  0  0  0  0  0  0  0  0  0  0
    6.7680  -17.7524   -5.5588 H   0  0  0  0  0  0  0  0  0  0  0  0
    5.4622  -17.0226   -6.6584 H   0  0  0  0  0  0  0  0  0  0  0  0
    8.4299  -17.1331   -7.0395 H   0  0  0  0  0  0  0  0  0  0  0  0
    7.0426  -17.6816   -8.1094 H   0  0  0  0  0  0  0  0  0  0  0  0
    8.0077  -15.7688   -9.1201 H   0  0  0  0  0  0  0  0  0  0  0  0
    6.4196  -15.2971   -8.3681 H   0  0  0  0  0  0  0  0  0  0  0  0
    8.9746  -14.0764   -8.0057 H   0  0  0  0  0  0  0  0  0  0  0  0
    7.3607  -13.7415   -7.1593 H   0  0  0  0  0  0  0  0  0  0  0  0
    9.2217  -15.8179   -6.2103 H   0  0  0  0  0  0  0  0  0  0  0  0
   10.5980  -14.2370   -5.7000 H   0  0  0  0  0  0  0  0  0  0  0  0
  1  2  1  0
  2  3  2  0
  2  4  1  0
  4  5  2  0
  5  6  1  0
  6  7  1  0
  7  8  2  0
  7  9  2  0
  7 10  1  0
 10 11  1  0
 11 12  1  0
 12 13  2  0
 13 14  1  0
 14 15  2  0
 15 16  1  0
 15 17  1  0
 17 18  2  0
  6 19  2  0
 19 20  1  0
 20 21  2  0
 20 22  1  0
 22 23  2  0
 23 24  1  0
 24 25  1  0
 25 26  1  0
 26 27  2  0
 27 28  1  0
 28 29  2  0
 29 30  1  0
 30 31  2  0
 31 32  1  0
 23 33  1  0
 33 34  1  0
 34 35  1  0
 35 36  1  0
 36 37  1  0
 37 38  1  0
 38 39  1  0
 39 40  1  0
 40 41  1  0
 41 42  1  0
 21  4  1  0
 31 26  1  0
 41 35  1  0
 18 12  1  0
 33 19  1  0
  1 43  1  0
  1 44  1  0
  5 45  1  0
 10 46  1  0
 11 47  1  0
 11 48  1  0
 13 49  1  0
 14 50  1  0
 17 51  1  0
 18 52  1  0
 21 53  1  0
 24 54  1  0
 25 55  1  0
 25 56  1  0
 27 57  1  0
 28 58  1  0
 29 59  1  0
 30 60  1  0
 34 61  1  0
 34 62  1  0
 35 63  1  1
 36 64  1  0
 36 65  1  0
 37 66  1  0
 37 67  1  0
 38 68  1  0
 38 69  1  0
 39 70  1  0
 39 71  1  0
 40 72  1  0
 40 73  1  0
 41 74  1  6
 42 75  1  0
M  END
>  <meeko>  (6) 
{"is_sidechain": [false], "free_energy": -6.744, "intermolecular_energy": -13.209, "internal_energy": -1.522}

$$$$
LIB_USMBHFKKSFYTRW__M_PUB_ALL__e8__s20260927
     RDKit          3D

 75 79  0  0  0  0  0  0  0  0999 V2000
    2.9710   -9.9660   -4.0390 N   0  0  0  0  0  0  0  0  0  0  0  0
    3.0380  -11.2960   -3.7400 C   0  0  0  0  0  0  0  0  0  0  0  0
    3.6070  -12.0820   -4.4880 O   0  0  0  0  0  0  0  0  0  0  0  0
    2.3770  -11.7650   -2.4940 C   0  0  0  0  0  0  0  0  0  0  0  0
    2.3880  -13.1370   -2.2210 C   0  0  0  0  0  0  0  0  0  0  0  0
    1.8220  -13.6810   -1.0480 C   0  0  0  0  0  0  0  0  0  0  0  0
    1.9920  -15.4340   -0.7830 S   0  0  0  0  0  0  0  0  0  0  0  0
    0.6710  -16.0050   -0.9120 O   0  0  0  0  0  0  0  0  0  0  0  0
    2.8060  -15.6330    0.3940 O   0  0  0  0  0  0  0  0  0  0  0  0
    2.8580  -16.0180   -2.0920 N   0  0  0  0  0  0  0  0  0  0  0  0
    4.1170  -16.7140   -1.8210 C   0  0  0  0  0  0  0  0  0  0  0  0
    5.2660  -15.7350   -1.7780 C   0  0  0  0  0  0  0  0  0  0  0  0
    5.4700  -14.8300   -2.8320 C   0  0  0  0  0  0  0  0  0  0  0  0
    6.5150  -13.9040   -2.7770 C   0  0  0  0  0  0  0  0  0  0  0  0
    7.3550  -13.8710   -1.6660 C   0  0  0  0  0  0  0  0  0  0  0  0
    8.6390  -12.7280   -1.6000 Cl  0  0  0  0  0  0  0  0  0  0  0  0
    7.1580  -14.7550   -0.6080 C   0  0  0  0  0  0  0  0  0  0  0  0
    6.1150  -15.6820   -0.6620 C   0  0  0  0  0  0  0  0  0  0  0  0
    1.1810  -12.7730   -0.1680 C   0  0  0  0  0  0  0  0  0  0  0  0
    1.1880  -11.3990   -0.4330 C   0  0  0  0  0  0  0  0  0  0  0  0
    1.7930  -10.8830   -1.5890 C   0  0  0  0  0  0  0  0  0  0  0  0
    0.5680  -10.6850    0.5490 N   0  0  0  0  0  0  0  0  0  0  0  0
    0.1370  -11.5660    1.4150 C   0  0  0  0  0  0  0  0  0  0  0  0
   -0.5660  -11.3080    2.5320 N   0  0  0  0  0  0  0  0  0  0  0  0
   -1.8310  -10.6080    2.4420 C   0  0  0  0  0  0  0  0  0  0  0  0
   -2.8930  -11.5370    1.9030 C   0  0  0  0  0  0  0  0  0  0  0  0
   -3.4750  -12.4740    2.7790 C   0  0  0  0  0  0  0  0  0  0  0  0
   -4.4750  -13.3440    2.3410 C   0  0  0  0  0  0  0  0  0  0  0  0
   -4.9170  -13.2870    1.0230 C   0  0  0  0  0  0  0  0  0  0  0  0
   -4.3640  -12.3540    0.1460 C   0  0  0  0  0  0  0  0  0  0  0  0
   -3.3610  -11.4800    0.5820 C   0  0  0  0  0  0  0  0  0  0  0  0
   -2.7490  -10.3390   -0.5610 Cl  0  0  0  0  0  0  0  0  0  0  0  0
    0.4670  -12.8540    1.0220 N   0  0  0  0  0  0  0  0  0  0  0  0
    0.1490  -14.0420    1.7950 C   0  0  0  0  0  0  0  0  0  0  0  0
    0.5230  -13.9750    3.3010 C   0  0  1  0  0  0  0  0  0  0  0  0
   -0.7260  -14.3950    4.1050 C   0  0  0  0  0  0  0  0  0  0  0  0
   -1.0360  -15.8880    4.1050 C   0  0  0  0  0  0  0  0  0  0  0  0
   -0.1310  -16.7870    4.9350 C   0  0  0  0  0  0  0  0  0  0  0  0
    1.0710  -17.3440    4.1850 C   0  0  0  0  0  0  0  0  0  0  0  0
    1.6800  -16.3320    3.1850 C   0  0  0  0  0  0  0  0  0  0  0  0
    1.7510  -14.8610    3.6050 C   0  0  1  0  0  0  0  0  0  0  0  0
    2.9330  -14.2500    3.0760 O   0  0  0  0  0  0  0  0  0  0  0  0
    2.4580   -9.2830   -3.5020 H   0  0  0  0  0  0  0  0  0  0  0  0
    3.4210   -9.6600   -4.8920 H   0  0  0  0  0  0  0  0  0  0  0  0
    2.8554  -13.8175   -2.9479 H   0  0  0  0  0  0  0  0  0  0  0  0
    2.2600  -16.4050   -2.8210 H   0  0  0  0  0  0  0  0  0  0  0  0
    4.0442  -17.2290   -0.8517 H   0  0  0  0  0  0  0  0  0  0  0  0
    4.3006  -17.4417   -2.6252 H   0  0  0  0  0  0  0  0  0  0  0  0
    4.8030  -14.8501   -3.7065 H   0  0  0  0  0  0  0  0  0  0  0  0
    6.6741  -13.2025   -3.6092 H   0  0  0  0  0  0  0  0  0  0  0  0
    7.8224  -14.7231    0.2681 H   0  0  0  0  0  0  0  0  0  0  0  0
    5.9577  -16.3760    0.1768 H   0  0  0  0  0  0  0  0  0  0  0  0
    1.8057   -9.7993   -1.7771 H   0  0  0  0  0  0  0  0  0  0  0  0
   -0.3220  -11.6770    3.4520 H   0  0  0  0  0  0  0  0  0  0  0  0
   -2.1261  -10.2572    3.4419 H   0  0  0  0  0  0  0  0  0  0  0  0
   -1.7228   -9.7483    1.7644 H   0  0  0  0  0  0  0  0  0  0  0  0
   -3.1363  -12.5209    3.8245 H   0  0  0  0  0  0  0  0  0  0  0  0
   -4.9132  -14.0741    3.0374 H   0  0  0  0  0  0  0  0  0  0  0  0
   -5.7003  -13.9757    0.6736 H   0  0  0  0  0  0  0  0  0  0  0  0
   -4.7180  -12.3046   -0.8943 H   0  0  0  0  0  0  0  0  0  0  0  0
   -0.9348  -14.2149    1.7216 H   0  0  0  0  0  0  0  0  0  0  0  0
    0.7554  -14.8540    1.3673 H   0  0  0  0  0  0  0  0  0  0  0  0
    0.8155  -12.9548    3.5902 H   0  0  0  0  0  0  0  0  0  0  0  0
   -0.5791  -14.0795    5.1485 H   0  0  0  0  0  0  0  0  0  0  0  0
   -1.5804  -13.9095    3.6107 H   0  0  0  0  0  0  0  0  0  0  0  0
   -2.0619  -16.0128    4.4819 H   0  0  0  0  0  0  0  0  0  0  0  0
   -0.8783  -16.2100    3.0651 H   0  0  0  0  0  0  0  0  0  0  0  0
    0.2391  -16.2042    5.7914 H   0  0  0  0  0  0  0  0  0  0  0  0
   -0.7407  -17.6528    5.2327 H   0  0  0  0  0  0  0  0  0  0  0  0
    1.8435  -17.6218    4.9172 H   0  0  0  0  0  0  0  0  0  0  0  0
    0.7245  -18.2123    3.6054 H   0  0  0  0  0  0  0  0  0  0  0  0
    2.7076  -16.6612    2.9713 H   0  0  0  0  0  0  0  0  0  0  0  0
    0.9885  -16.3406    2.3296 H   0  0  0  0  0  0  0  0  0  0  0  0
    1.7719  -14.9131    4.7036 H   0  0  0  0  0  0  0  0  0  0  0  0
    3.5700  -14.9500    2.8530 H   0  0  0  0  0  0  0  0  0  0  0  0
  1  2  1  0
  2  3  2  0
  2  4  1  0
  4  5  2  0
  5  6  1  0
  6  7  1  0
  7  8  2  0
  7  9  2  0
  7 10  1  0
 10 11  1  0
 11 12  1  0
 12 13  2  0
 13 14  1  0
 14 15  2  0
 15 16  1  0
 15 17  1  0
 17 18  2  0
  6 19  2  0
 19 20  1  0
 20 21  2  0
 20 22  1  0
 22 23  2  0
 23 24  1  0
 24 25  1  0
 25 26  1  0
 26 27  2  0
 27 28  1  0
 28 29  2  0
 29 30  1  0
 30 31  2  0
 31 32  1  0
 23 33  1  0
 33 34  1  0
 34 35  1  0
 35 36  1  0
 36 37  1  0
 37 38  1  0
 38 39  1  0
 39 40  1  0
 40 41  1  0
 41 42  1  0
 21  4  1  0
 31 26  1  0
 41 35  1  0
 18 12  1  0
 33 19  1  0
  1 43  1  0
  1 44  1  0
  5 45  1  0
 10 46  1  0
 11 47  1  0
 11 48  1  0
 13 49  1  0
 14 50  1  0
 17 51  1  0
 18 52  1  0
 21 53  1  0
 24 54  1  0
 25 55  1  0
 25 56  1  0
 27 57  1  0
 28 58  1  0
 29 59  1  0
 30 60  1  0
 34 61  1  0
 34 62  1  0
 35 63  1  1
 36 64  1  0
 36 65  1  0
 37 66  1  0
 37 67  1  0
 38 68  1  0
 38 69  1  0
 39 70  1  0
 39 71  1  0
 40 72  1  0
 40 73  1  0
 41 74  1  1
 42 75  1  0
M  END
>  <meeko>  (7) 
{"is_sidechain": [false], "free_energy": -6.715, "intermolecular_energy": -12.559, "internal_energy": -2.113}

$$$$
LIB_USMBHFKKSFYTRW__M_PUB_ALL__e8__s20260927
     RDKit          3D

 75 79  0  0  0  0  0  0  0  0999 V2000
   -3.2150  -10.6270   -0.3000 N   0  0  0  0  0  0  0  0  0  0  0  0
   -4.1700  -11.5870   -0.1300 C   0  0  0  0  0  0  0  0  0  0  0  0
   -5.2930  -11.4490   -0.6020 O   0  0  0  0  0  0  0  0  0  0  0  0
   -3.8150  -12.7910    0.6670 C   0  0  0  0  0  0  0  0  0  0  0  0
   -2.8190  -13.6370    0.1700 C   0  0  0  0  0  0  0  0  0  0  0  0
   -2.3810  -14.7840    0.8660 C   0  0  0  0  0  0  0  0  0  0  0  0
   -1.0390  -15.7190    0.1620 S   0  0  0  0  0  0  0  0  0  0  0  0
   -0.8050  -15.1800   -1.1580 O   0  0  0  0  0  0  0  0  0  0  0  0
   -1.3010  -17.1210    0.3880 O   0  0  0  0  0  0  0  0  0  0  0  0
    0.3210  -15.3170    1.0540 N   0  0  0  0  0  0  0  0  0  0  0  0
    1.0610  -14.1160    0.6640 C   0  0  0  0  0  0  0  0  0  0  0  0
    0.4240  -12.8830    1.2610 C   0  0  0  0  0  0  0  0  0  0  0  0
    0.4600  -11.6600    0.5730 C   0  0  0  0  0  0  0  0  0  0  0  0
   -0.1560  -10.5270    1.1120 C   0  0  0  0  0  0  0  0  0  0  0  0
   -0.8190  -10.6130    2.3350 C   0  0  0  0  0  0  0  0  0  0  0  0
   -1.5790   -9.2180    2.9940 Cl  0  0  0  0  0  0  0  0  0  0  0  0
   -0.8730  -11.8230    3.0220 C   0  0  0  0  0  0  0  0  0  0  0  0
   -0.2560  -12.9550    2.4860 C   0  0  0  0  0  0  0  0  0  0  0  0
   -3.0420  -15.0810    2.0850 C   0  0  0  0  0  0  0  0  0  0  0  0
   -4.0250  -14.2220    2.5910 C   0  0  0  0  0  0  0  0  0  0  0  0
   -4.4110  -13.0670    1.8950 C   0  0  0  0  0  0  0  0  0  0  0  0
   -4.5060  -14.6470    3.7930 N   0  0  0  0  0  0  0  0  0  0  0  0
   -3.8830  -15.7680    4.0530 C   0  0  0  0  0  0  0  0  0  0  0  0
   -4.0750  -16.5560    5.1260 N   0  0  0  0  0  0  0  0  0  0  0  0
   -5.4020  -16.7030    5.6850 C   0  0  0  0  0  0  0  0  0  0  0  0
   -5.6090  -15.6930    6.7890 C   0  0  0  0  0  0  0  0  0  0  0  0
   -6.5600  -14.6720    6.5990 C   0  0  0  0  0  0  0  0  0  0  0  0
   -6.8050  -13.7240    7.5930 C   0  0  0  0  0  0  0  0  0  0  0  0
   -6.1120  -13.7840    8.7980 C   0  0  0  0  0  0  0  0  0  0  0  0
   -5.1790  -14.7980    9.0100 C   0  0  0  0  0  0  0  0  0  0  0  0
   -4.9300  -15.7520    8.0160 C   0  0  0  0  0  0  0  0  0  0  0  0
   -3.7780  -16.9880    8.3710 Cl  0  0  0  0  0  0  0  0  0  0  0  0
   -2.9930  -16.0900    3.0400 N   0  0  0  0  0  0  0  0  0  0  0  0
   -2.1350  -17.2620    3.0600 C   0  0  0  0  0  0  0  0  0  0  0  0
   -0.7630  -17.0700    3.7600 C   0  0  1  0  0  0  0  0  0  0  0  0
   -0.7300  -15.6320    4.3220 C   0  0  0  0  0  0  0  0  0  0  0  0
    0.5540  -15.2370    5.0430 C   0  0  0  0  0  0  0  0  0  0  0  0
    0.6230  -15.5050    6.5400 C   0  0  0  0  0  0  0  0  0  0  0  0
    0.5560  -16.9760    6.9250 C   0  0  0  0  0  0  0  0  0  0  0  0
   -0.6660  -17.6900    6.3130 C   0  0  0  0  0  0  0  0  0  0  0  0
   -0.5460  -18.1400    4.8530 C   0  0  1  0  0  0  0  0  0  0  0  0
   -1.3970  -19.2640    4.6080 O   0  0  0  0  0  0  0  0  0  0  0  0
   -2.2990  -10.6490    0.1220 H   0  0  0  0  0  0  0  0  0  0  0  0
   -3.4700   -9.8100   -0.8410 H   0  0  0  0  0  0  0  0  0  0  0  0
   -2.3592  -13.3995   -0.8006 H   0  0  0  0  0  0  0  0  0  0  0  0
    0.2040  -15.4880    2.0520 H   0  0  0  0  0  0  0  0  0  0  0  0
    2.0976  -14.1974    1.0228 H   0  0  0  0  0  0  0  0  0  0  0  0
    1.0442  -14.0289   -0.4324 H   0  0  0  0  0  0  0  0  0  0  0  0
    0.9761  -11.5929   -0.3961 H   0  0  0  0  0  0  0  0  0  0  0  0
   -0.1176   -9.5694    0.5721 H   0  0  0  0  0  0  0  0  0  0  0  0
   -1.4007  -11.8869    3.9850 H   0  0  0  0  0  0  0  0  0  0  0  0
   -0.3034  -13.9108    3.0284 H   0  0  0  0  0  0  0  0  0  0  0  0
   -5.1716  -12.3906    2.3121 H   0  0  0  0  0  0  0  0  0  0  0  0
   -3.3530  -17.1620    5.5190 H   0  0  0  0  0  0  0  0  0  0  0  0
   -6.1505  -16.5394    4.8958 H   0  0  0  0  0  0  0  0  0  0  0  0
   -5.5116  -17.7172    6.0965 H   0  0  0  0  0  0  0  0  0  0  0  0
   -7.1182  -14.6210    5.6525 H   0  0  0  0  0  0  0  0  0  0  0  0
   -7.5462  -12.9290    7.4239 H   0  0  0  0  0  0  0  0  0  0  0  0
   -6.2996  -13.0341    9.5806 H   0  0  0  0  0  0  0  0  0  0  0  0
   -4.6348  -14.8489    9.9646 H   0  0  0  0  0  0  0  0  0  0  0  0
   -2.6726  -18.0674    3.5818 H   0  0  0  0  0  0  0  0  0  0  0  0
   -1.9094  -17.4908    2.0080 H   0  0  0  0  0  0  0  0  0  0  0  0
    0.0653  -17.2018    3.0483 H   0  0  0  0  0  0  0  0  0  0  0  0
   -0.8743  -14.9367    3.4819 H   0  0  0  0  0  0  0  0  0  0  0  0
   -1.5270  -15.5858    5.0787 H   0  0  0  0  0  0  0  0  0  0  0  0
    1.3813  -15.7865    4.5701 H   0  0  0  0  0  0  0  0  0  0  0  0
    0.6064  -14.1423    4.9486 H   0  0  0  0  0  0  0  0  0  0  0  0
    1.5706  -15.0943    6.9186 H   0  0  0  0  0  0  0  0  0  0  0  0
   -0.2629  -15.0265    6.9831 H   0  0  0  0  0  0  0  0  0  0  0  0
    1.4702  -17.4754    6.5717 H   0  0  0  0  0  0  0  0  0  0  0  0
    0.4629  -17.0317    8.0196 H   0  0  0  0  0  0  0  0  0  0  0  0
   -0.8674  -18.5843    6.9210 H   0  0  0  0  0  0  0  0  0  0  0  0
   -1.4691  -16.9384    6.3166 H   0  0  0  0  0  0  0  0  0  0  0  0
    0.5178  -18.4025    4.7562 H   0  0  0  0  0  0  0  0  0  0  0  0
   -1.0660  -20.0200    5.1220 H   0  0  0  0  0  0  0  0  0  0  0  0
  1  2  1  0
  2  3  2  0
  2  4  1  0
  4  5  2  0
  5  6  1  0
  6  7  1  0
  7  8  2  0
  7  9  2  0
  7 10  1  0
 10 11  1  0
 11 12  1  0
 12 13  2  0
 13 14  1  0
 14 15  2  0
 15 16  1  0
 15 17  1  0
 17 18  2  0
  6 19  2  0
 19 20  1  0
 20 21  2  0
 20 22  1  0
 22 23  2  0
 23 24  1  0
 24 25  1  0
 25 26  1  0
 26 27  2  0
 27 28  1  0
 28 29  2  0
 29 30  1  0
 30 31  2  0
 31 32  1  0
 23 33  1  0
 33 34  1  0
 34 35  1  0
 35 36  1  0
 36 37  1  0
 37 38  1  0
 38 39  1  0
 39 40  1  0
 40 41  1  0
 41 42  1  0
 21  4  1  0
 31 26  1  0
 41 35  1  0
 18 12  1  0
 33 19  1  0
  1 43  1  0
  1 44  1  0
  5 45  1  0
 10 46  1  0
 11 47  1  0
 11 48  1  0
 13 49  1  0
 14 50  1  0
 17 51  1  0
 18 52  1  0
 21 53  1  0
 24 54  1  0
 25 55  1  0
 25 56  1  0
 27 57  1  0
 28 58  1  0
 29 59  1  0
 30 60  1  0
 34 61  1  0
 34 62  1  0
 35 63  1  6
 36 64  1  0
 36 65  1  0
 37 66  1  0
 37 67  1  0
 38 68  1  0
 38 69  1  0
 39 70  1  0
 39 71  1  0
 40 72  1  0
 40 73  1  0
 41 74  1  1
 42 75  1  0
M  END
>  <meeko>  (8) 
{"is_sidechain": [false], "free_energy": -6.607, "intermolecular_energy": -13.341, "internal_energy": -1.121}

$$$$
LIB_USMBHFKKSFYTRW__M_PUB_ALL__e8__s20260927
     RDKit          3D

 75 79  0  0  0  0  0  0  0  0999 V2000
   -0.7730  -10.2690    2.4500 N   0  0  0  0  0  0  0  0  0  0  0  0
   -0.0160  -10.0880    1.3290 C   0  0  0  0  0  0  0  0  0  0  0  0
    0.2030   -8.9650    0.8910 O   0  0  0  0  0  0  0  0  0  0  0  0
    0.5120  -11.2960    0.6420 C   0  0  0  0  0  0  0  0  0  0  0  0
    0.4510  -12.5170    1.3210 C   0  0  0  0  0  0  0  0  0  0  0  0
    0.8900  -13.7290    0.7440 C   0  0  0  0  0  0  0  0  0  0  0  0
    0.6660  -15.2240    1.6860 S   0  0  0  0  0  0  0  0  0  0  0  0
    1.9000  -15.4540    2.4020 O   0  0  0  0  0  0  0  0  0  0  0  0
    0.0820  -16.2180    0.8160 O   0  0  0  0  0  0  0  0  0  0  0  0
   -0.4690  -14.8620    2.8630 N   0  0  0  0  0  0  0  0  0  0  0  0
   -1.8610  -15.2360    2.6060 C   0  0  0  0  0  0  0  0  0  0  0  0
   -2.5580  -14.1650    1.8010 C   0  0  0  0  0  0  0  0  0  0  0  0
   -2.7490  -14.3240    0.4200 C   0  0  0  0  0  0  0  0  0  0  0  0
   -3.4200  -13.3460   -0.3190 C   0  0  0  0  0  0  0  0  0  0  0  0
   -3.9120  -12.2100    0.3200 C   0  0  0  0  0  0  0  0  0  0  0  0
   -4.7410  -11.0090   -0.5910 Cl  0  0  0  0  0  0  0  0  0  0  0  0
   -3.7410  -12.0440    1.6920 C   0  0  0  0  0  0  0  0  0  0  0  0
   -3.0680  -13.0200    2.4310 C   0  0  0  0  0  0  0  0  0  0  0  0
    1.4570  -13.6480   -0.5530 C   0  0  0  0  0  0  0  0  0  0  0  0
    1.4980  -12.4290   -1.2390 C   0  0  0  0  0  0  0  0  0  0  0  0
    1.0180  -11.2480   -0.6540 C   0  0  0  0  0  0  0  0  0  0  0  0
    2.0300  -12.5620   -2.4870 N   0  0  0  0  0  0  0  0  0  0  0  0
    2.3590  -13.8230   -2.6040 C   0  0  0  0  0  0  0  0  0  0  0  0
    2.9530  -14.3960   -3.6660 N   0  0  0  0  0  0  0  0  0  0  0  0
    3.7660  -13.5950   -4.5560 C   0  0  0  0  0  0  0  0  0  0  0  0
    4.9050  -14.4250   -5.0980 C   0  0  0  0  0  0  0  0  0  0  0  0
    5.2440  -15.6200   -4.4320 C   0  0  0  0  0  0  0  0  0  0  0  0
    6.2740  -16.4360   -4.8990 C   0  0  0  0  0  0  0  0  0  0  0  0
    6.9800  -16.0790   -6.0440 C   0  0  0  0  0  0  0  0  0  0  0  0
    6.6480  -14.9080   -6.7250 C   0  0  0  0  0  0  0  0  0  0  0  0
    5.6140  -14.0870   -6.2600 C   0  0  0  0  0  0  0  0  0  0  0  0
    5.2510  -12.6700   -7.1780 Cl  0  0  0  0  0  0  0  0  0  0  0  0
    2.0490  -14.5280   -1.4520 N   0  0  0  0  0  0  0  0  0  0  0  0
    2.2690  -15.9560   -1.2930 C   0  0  0  0  0  0  0  0  0  0  0  0
    3.7530  -16.4090   -1.3540 C   0  0  1  0  0  0  0  0  0  0  0  0
    4.5350  -15.5630   -0.3260 C   0  0  0  0  0  0  0  0  0  0  0  0
    6.0540  -15.6860   -0.3940 C   0  0  0  0  0  0  0  0  0  0  0  0
    6.6270  -17.0420   -0.7810 C   0  0  0  0  0  0  0  0  0  0  0  0
    6.1950  -18.1930    0.1170 C   0  0  0  0  0  0  0  0  0  0  0  0
    4.6630  -18.3650    0.1480 C   0  0  0  0  0  0  0  0  0  0  0  0
    3.8780  -17.9260   -1.0920 C   0  0  1  0  0  0  0  0  0  0  0  0
    2.5790  -18.5280   -1.0960 O   0  0  0  0  0  0  0  0  0  0  0  0
   -1.0480  -11.1670    2.8180 H   0  0  0  0  0  0  0  0  0  0  0  0
   -1.1310   -9.4390    2.9060 H   0  0  0  0  0  0  0  0  0  0  0  0
    0.0457  -12.5341    2.3434 H   0  0  0  0  0  0  0  0  0  0  0  0
   -0.1170  -15.0040    3.8090 H   0  0  0  0  0  0  0  0  0  0  0  0
   -1.8837  -16.1822    2.0455 H   0  0  0  0  0  0  0  0  0  0  0  0
   -2.3811  -15.3519    3.5683 H   0  0  0  0  0  0  0  0  0  0  0  0
   -2.3681  -15.2244   -0.0842 H   0  0  0  0  0  0  0  0  0  0  0  0
   -3.5594  -13.4728   -1.4027 H   0  0  0  0  0  0  0  0  0  0  0  0
   -4.1347  -11.1470    2.1924 H   0  0  0  0  0  0  0  0  0  0  0  0
   -2.9370  -12.8897    3.5154 H   0  0  0  0  0  0  0  0  0  0  0  0
    1.0410  -10.2993   -1.2103 H   0  0  0  0  0  0  0  0  0  0  0  0
    2.9650  -15.4040   -3.8320 H   0  0  0  0  0  0  0  0  0  0  0  0
    3.1469  -13.2356   -5.3912 H   0  0  0  0  0  0  0  0  0  0  0  0
    4.1746  -12.7380   -4.0005 H   0  0  0  0  0  0  0  0  0  0  0  0
    4.6874  -15.9136   -3.5298 H   0  0  0  0  0  0  0  0  0  0  0  0
    6.5284  -17.3619   -4.3623 H   0  0  0  0  0  0  0  0  0  0  0  0
    7.7969  -16.7180   -6.4105 H   0  0  0  0  0  0  0  0  0  0  0  0
    7.2021  -14.6279   -7.6330 H   0  0  0  0  0  0  0  0  0  0  0  0
    1.8619  -16.2560   -0.3161 H   0  0  0  0  0  0  0  0  0  0  0  0
    1.7683  -16.4380   -2.1456 H   0  0  0  0  0  0  0  0  0  0  0  0
    4.1751  -16.2456   -2.3566 H   0  0  0  0  0  0  0  0  0  0  0  0
    4.2730  -14.5068   -0.4868 H   0  0  0  0  0  0  0  0  0  0  0  0
    4.2450  -15.9461    0.6635 H   0  0  0  0  0  0  0  0  0  0  0  0
    6.4124  -14.9529   -1.1317 H   0  0  0  0  0  0  0  0  0  0  0  0
    6.3978  -15.5175    0.6372 H   0  0  0  0  0  0  0  0  0  0  0  0
    6.3061  -17.2694   -1.8083 H   0  0  0  0  0  0  0  0  0  0  0  0
    7.7191  -16.9595   -0.6780 H   0  0  0  0  0  0  0  0  0  0  0  0
    6.6483  -19.1230   -0.2566 H   0  0  0  0  0  0  0  0  0  0  0  0
    6.5299  -17.9669    1.1401 H   0  0  0  0  0  0  0  0  0  0  0  0
    4.4543  -19.4329    0.3094 H   0  0  0  0  0  0  0  0  0  0  0  0
    4.3212  -17.6932    0.9491 H   0  0  0  0  0  0  0  0  0  0  0  0
    4.5000  -18.2857   -1.9249 H   0  0  0  0  0  0  0  0  0  0  0  0
    2.0330  -18.0800   -1.7650 H   0  0  0  0  0  0  0  0  0  0  0  0
  1  2  1  0
  2  3  2  0
  2  4  1  0
  4  5  2  0
  5  6  1  0
  6  7  1  0
  7  8  2  0
  7  9  2  0
  7 10  1  0
 10 11  1  0
 11 12  1  0
 12 13  2  0
 13 14  1  0
 14 15  2  0
 15 16  1  0
 15 17  1  0
 17 18  2  0
  6 19  2  0
 19 20  1  0
 20 21  2  0
 20 22  1  0
 22 23  2  0
 23 24  1  0
 24 25  1  0
 25 26  1  0
 26 27  2  0
 27 28  1  0
 28 29  2  0
 29 30  1  0
 30 31  2  0
 31 32  1  0
 23 33  1  0
 33 34  1  0
 34 35  1  0
 35 36  1  0
 36 37  1  0
 37 38  1  0
 38 39  1  0
 39 40  1  0
 40 41  1  0
 41 42  1  0
 21  4  1  0
 31 26  1  0
 41 35  1  0
 18 12  1  0
 33 19  1  0
  1 43  1  0
  1 44  1  0
  5 45  1  0
 10 46  1  0
 11 47  1  0
 11 48  1  0
 13 49  1  0
 14 50  1  0
 17 51  1  0
 18 52  1  0
 21 53  1  0
 24 54  1  0
 25 55  1  0
 25 56  1  0
 27 57  1  0
 28 58  1  0
 29 59  1  0
 30 60  1  0
 34 61  1  0
 34 62  1  0
 35 63  1  6
 36 64  1  0
 36 65  1  0
 37 66  1  0
 37 67  1  0
 38 68  1  0
 38 69  1  0
 39 70  1  0
 39 71  1  0
 40 72  1  0
 40 73  1  0
 41 74  1  6
 42 75  1  0
M  END
>  <meeko>  (9) 
{"is_sidechain": [false], "free_energy": -6.549, "intermolecular_energy": -12.502, "internal_energy": -1.844}

$$$$
