LIB_YHHSKXWUHAVBMR__M_PUB_ALL__e8__s20260927
     RDKit          3D

 62 67  0  0  0  0  0  0  0  0999 V2000
   -1.5100   -8.7590    4.2270 C   0  0  0  0  0  0  0  0  0  0  0  0
   -1.2690   -8.7480    2.8260 O   0  0  0  0  0  0  0  0  0  0  0  0
   -1.9120   -9.7080    2.0920 C   0  0  0  0  0  0  0  0  0  0  0  0
   -2.1670   -9.6590    0.7220 C   0  0  0  0  0  0  0  0  0  0  0  0
   -2.8360  -10.7140    0.0920 C   0  0  0  0  0  0  0  0  0  0  0  0
   -3.2600  -11.8340    0.8240 C   0  0  0  0  0  0  0  0  0  0  0  0
   -3.9830  -12.9660    0.1310 C   0  0  0  0  0  0  0  0  0  0  0  0
   -3.2200  -14.1940    0.1550 N   0  0  0  0  0  0  0  0  0  0  0  0
   -3.8370  -15.4330    0.1560 N   0  0  0  0  0  0  0  0  0  0  0  0
   -2.7810  -16.2840    0.2330 C   0  0  0  0  0  0  0  0  0  0  0  0
   -1.5810  -15.5940    0.3030 C   0  0  0  0  0  0  0  0  0  0  0  0
   -0.1570  -15.7590    0.4140 N   0  0  0  0  0  0  0  0  0  0  0  0
    0.3300  -14.4420    0.4280 C   0  0  0  0  0  0  0  0  0  0  0  0
    1.8980  -14.1140    0.5300 C   0  0  0  0  0  0  0  0  0  0  0  0
    2.7600  -15.2110    0.6540 C   0  0  0  0  0  0  0  0  0  0  0  0
    4.1400  -15.0330    0.7490 C   0  0  0  0  0  0  0  0  0  0  0  0
    4.6920  -13.7480    0.7220 C   0  0  0  0  0  0  0  0  0  0  0  0
    6.0980  -13.6600    0.8240 N   0  0  0  0  0  0  0  0  0  0  0  0
    7.0090  -13.2680   -0.1480 C   0  0  0  0  0  0  0  0  0  0  0  0
    6.7200  -12.9290   -1.2870 O   0  0  0  0  0  0  0  0  0  0  0  0
    8.2930  -13.3170    0.3630 N   0  0  0  0  0  0  0  0  0  0  0  0
    9.4640  -13.0090   -0.2820 C   0  0  0  0  0  0  0  0  0  0  0  0
   10.3110  -12.1610    0.2520 N   0  0  0  0  0  0  0  0  0  0  0  0
   11.4100  -12.0140   -0.5820 C   0  0  0  0  0  0  0  0  0  0  0  0
   12.5270  -11.1910   -0.3420 C   0  0  0  0  0  0  0  0  0  0  0  0
   13.5690  -11.1410   -1.2760 C   0  0  0  0  0  0  0  0  0  0  0  0
   13.5130  -11.8890   -2.4540 C   0  0  0  0  0  0  0  0  0  0  0  0
   14.6540  -11.8490   -3.4300 C   0  0  0  0  0  0  0  0  0  0  0  0
   12.4120  -12.7260   -2.6990 C   0  0  0  0  0  0  0  0  0  0  0  0
   11.3730  -12.7670   -1.7550 C   0  0  0  0  0  0  0  0  0  0  0  0
    9.9120  -13.6740   -1.7810 S   0  0  0  0  0  0  0  0  0  0  0  0
    3.8360  -12.6520    0.5980 C   0  0  0  0  0  0  0  0  0  0  0  0
    2.4350  -12.8150    0.5010 C   0  0  0  0  0  0  0  0  0  0  0  0
    1.5790  -11.5860    0.3710 C   0  0  0  0  0  0  0  0  0  0  0  0
   -0.6840  -13.4870    0.3430 N   0  0  0  0  0  0  0  0  0  0  0  0
   -1.8790  -14.2950    0.2600 C   0  0  0  0  0  0  0  0  0  0  0  0
   -3.0060  -11.8740    2.1990 C   0  0  0  0  0  0  0  0  0  0  0  0
   -2.3340  -10.8210    2.8240 C   0  0  0  0  0  0  0  0  0  0  0  0
   -0.5512   -8.7152    4.7643 H   0  0  0  0  0  0  0  0  0  0  0  0
   -2.1236   -7.8879    4.5004 H   0  0  0  0  0  0  0  0  0  0  0  0
   -2.0417   -9.6823    4.5004 H   0  0  0  0  0  0  0  0  0  0  0  0
   -1.8411   -8.7880    0.1346 H   0  0  0  0  0  0  0  0  0  0  0  0
   -3.0319  -10.6651   -0.9893 H   0  0  0  0  0  0  0  0  0  0  0  0
   -4.9444  -13.1358    0.6378 H   0  0  0  0  0  0  0  0  0  0  0  0
   -4.1314  -12.6798   -0.9207 H   0  0  0  0  0  0  0  0  0  0  0  0
   -2.8672  -17.3806    0.2390 H   0  0  0  0  0  0  0  0  0  0  0  0
    2.3422  -16.2283    0.6768 H   0  0  0  0  0  0  0  0  0  0  0  0
    4.7986  -15.9087    0.8458 H   0  0  0  0  0  0  0  0  0  0  0  0
    6.4710  -13.9200    1.7230 H   0  0  0  0  0  0  0  0  0  0  0  0
    8.4370  -13.6040    1.3150 H   0  0  0  0  0  0  0  0  0  0  0  0
   12.5809  -10.5888    0.5770 H   0  0  0  0  0  0  0  0  0  0  0  0
   14.4438  -10.5038   -1.0792 H   0  0  0  0  0  0  0  0  0  0  0  0
   15.6060  -11.8156   -2.8799 H   0  0  0  0  0  0  0  0  0  0  0  0
   14.6273  -12.7486   -4.0624 H   0  0  0  0  0  0  0  0  0  0  0  0
   14.5643  -10.9534   -4.0624 H   0  0  0  0  0  0  0  0  0  0  0  0
   12.3645  -13.3373   -3.6122 H   0  0  0  0  0  0  0  0  0  0  0  0
    4.2616  -11.6379    0.5752 H   0  0  0  0  0  0  0  0  0  0  0  0
    1.3190  -11.2127    1.3725 H   0  0  0  0  0  0  0  0  0  0  0  0
    2.1328  -10.8097   -0.1773 H   0  0  0  0  0  0  0  0  0  0  0  0
    0.6589  -11.8364   -0.1773 H   0  0  0  0  0  0  0  0  0  0  0  0
   -3.3373  -12.7396    2.7914 H   0  0  0  0  0  0  0  0  0  0  0  0
   -2.1347  -10.8684    3.9048 H   0  0  0  0  0  0  0  0  0  0  0  0
  1  2  1  0
  2  3  1  0
  3  4  2  0
  4  5  1  0
  5  6  2  0
  6  7  1  0
  7  8  1  0
  8  9  1  0
  9 10  2  0
 10 11  1  0
 11 12  1  0
 12 13  1  0
 13 14  1  0
 14 15  2  0
 15 16  1  0
 16 17  2  0
 17 18  1  0
 18 19  1  0
 19 20  2  0
 19 21  1  0
 21 22  1  0
 22 23  2  0
 23 24  1  0
 24 25  2  0
 25 26  1  0
 26 27  2  0
 27 28  1  0
 27 29  1  0
 29 30  2  0
 30 31  1  0
 17 32  1  0
 32 33  2  0
 33 34  1  0
 13 35  2  0
 35 36  1  0
  6 37  1  0
 37 38  2  0
 38  3  1  0
 36  8  1  0
 36 11  2  0
 33 14  1  0
 31 22  1  0
 30 24  1  0
  1 39  1  0
  1 40  1  0
  1 41  1  0
  4 42  1  0
  5 43  1  0
  7 44  1  0
  7 45  1  0
 10 46  1  0
 15 47  1  0
 16 48  1  0
 18 49  1  0
 21 50  1  0
 25 51  1  0
 26 52  1  0
 28 53  1  0
 28 54  1  0
 28 55  1  0
 29 56  1  0
 32 57  1  0
 34 58  1  0
 34 59  1  0
 34 60  1  0
 37 61  1  0
 38 62  1  0
M  CHG  1  12  -1
M  END
>  <meeko>  (1) 
{"is_sidechain": [false], "free_energy": -9.582, "intermolecular_energy": -12.943, "internal_energy": -0.05}

$$$$
LIB_YHHSKXWUHAVBMR__M_PUB_ALL__e8__s20260927
     RDKit          3D

 62 67  0  0  0  0  0  0  0  0999 V2000
   13.1870  -19.0370   -3.1020 C   0  0  0  0  0  0  0  0  0  0  0  0
   14.0750  -18.0920   -3.6890 O   0  0  0  0  0  0  0  0  0  0  0  0
   13.6420  -16.7940   -3.7230 C   0  0  0  0  0  0  0  0  0  0  0  0
   13.8560  -15.8860   -4.7590 C   0  0  0  0  0  0  0  0  0  0  0  0
   13.3560  -14.5830   -4.6670 C   0  0  0  0  0  0  0  0  0  0  0  0
   12.6350  -14.1680   -3.5370 C   0  0  0  0  0  0  0  0  0  0  0  0
   12.1020  -12.7570   -3.4500 C   0  0  0  0  0  0  0  0  0  0  0  0
   12.0060  -12.2940   -2.0840 N   0  0  0  0  0  0  0  0  0  0  0  0
   13.1070  -11.8010   -1.4040 N   0  0  0  0  0  0  0  0  0  0  0  0
   12.5950  -11.5390   -0.1740 C   0  0  0  0  0  0  0  0  0  0  0  0
   11.2540  -11.8820   -0.1000 C   0  0  0  0  0  0  0  0  0  0  0  0
   10.1180  -11.9250    0.7790 N   0  0  0  0  0  0  0  0  0  0  0  0
    9.0980  -12.4620   -0.0220 C   0  0  0  0  0  0  0  0  0  0  0  0
    7.6100  -12.6930    0.5330 C   0  0  0  0  0  0  0  0  0  0  0  0
    7.1470  -14.0160    0.5520 C   0  0  0  0  0  0  0  0  0  0  0  0
    5.8680  -14.3230    1.0160 C   0  0  0  0  0  0  0  0  0  0  0  0
    5.0200  -13.3110    1.4750 C   0  0  0  0  0  0  0  0  0  0  0  0
    3.7430  -13.7110    1.9270 N   0  0  0  0  0  0  0  0  0  0  0  0
    2.4990  -13.2600    1.5050 C   0  0  0  0  0  0  0  0  0  0  0  0
    2.3150  -12.4100    0.6450 O   0  0  0  0  0  0  0  0  0  0  0  0
    1.4990  -13.9140    2.2010 N   0  0  0  0  0  0  0  0  0  0  0  0
    0.1440  -13.7460    2.0750 C   0  0  0  0  0  0  0  0  0  0  0  0
   -0.4960  -14.2640    1.0530 N   0  0  0  0  0  0  0  0  0  0  0  0
   -1.8460  -13.9610    1.1460 C   0  0  0  0  0  0  0  0  0  0  0  0
   -2.8470  -14.3490    0.2350 C   0  0  0  0  0  0  0  0  0  0  0  0
   -4.1760  -13.9700    0.4560 C   0  0  0  0  0  0  0  0  0  0  0  0
   -4.5260  -13.1980    1.5670 C   0  0  0  0  0  0  0  0  0  0  0  0
   -5.9620  -12.8260    1.8070 C   0  0  0  0  0  0  0  0  0  0  0  0
   -3.5410  -12.8160    2.4920 C   0  0  0  0  0  0  0  0  0  0  0  0
   -2.2110  -13.2020    2.2580 C   0  0  0  0  0  0  0  0  0  0  0  0
   -0.8030  -12.8820    3.1920 S   0  0  0  0  0  0  0  0  0  0  0  0
    5.4770  -11.9920    1.4590 C   0  0  0  0  0  0  0  0  0  0  0  0
    6.7700  -11.6630    0.9910 C   0  0  0  0  0  0  0  0  0  0  0  0
    7.1900  -10.2190    1.0040 C   0  0  0  0  0  0  0  0  0  0  0  0
    9.5240  -12.7590   -1.3180 N   0  0  0  0  0  0  0  0  0  0  0  0
   10.9120  -12.3570   -1.2980 C   0  0  0  0  0  0  0  0  0  0  0  0
   12.4290  -15.0820   -2.4970 C   0  0  0  0  0  0  0  0  0  0  0  0
   12.9260  -16.3840   -2.5950 C   0  0  0  0  0  0  0  0  0  0  0  0
   13.2511  -18.9688   -2.0060 H   0  0  0  0  0  0  0  0  0  0  0  0
   12.1573  -18.8212   -3.4232 H   0  0  0  0  0  0  0  0  0  0  0  0
   13.4663  -20.0513   -3.4232 H   0  0  0  0  0  0  0  0  0  0  0  0
   14.4198  -16.1953   -5.6515 H   0  0  0  0  0  0  0  0  0  0  0  0
   13.5301  -13.8749   -5.4906 H   0  0  0  0  0  0  0  0  0  0  0  0
   12.7770  -12.0883   -4.0043 H   0  0  0  0  0  0  0  0  0  0  0  0
   11.0901  -12.7506   -3.8812 H   0  0  0  0  0  0  0  0  0  0  0  0
   13.1714  -11.1090    0.6584 H   0  0  0  0  0  0  0  0  0  0  0  0
    7.8024  -14.8244    0.1955 H   0  0  0  0  0  0  0  0  0  0  0  0
    5.5245  -15.3680    1.0208 H   0  0  0  0  0  0  0  0  0  0  0  0
    3.7530  -14.4130    2.6490 H   0  0  0  0  0  0  0  0  0  0  0  0
    1.7440  -14.6030    2.8890 H   0  0  0  0  0  0  0  0  0  0  0  0
   -2.5849  -14.9490   -0.6489 H   0  0  0  0  0  0  0  0  0  0  0  0
   -4.9552  -14.2839   -0.2541 H   0  0  0  0  0  0  0  0  0  0  0  0
   -6.1520  -12.7768    2.8893 H   0  0  0  0  0  0  0  0  0  0  0  0
   -6.1673  -11.8450    1.3537 H   0  0  0  0  0  0  0  0  0  0  0  0
   -6.6178  -13.5839    1.3537 H   0  0  0  0  0  0  0  0  0  0  0  0
   -3.8057  -12.2263    3.3820 H   0  0  0  0  0  0  0  0  0  0  0  0
    4.8158  -11.1900    1.8189 H   0  0  0  0  0  0  0  0  0  0  0  0
    7.2899   -9.8755    2.0442 H   0  0  0  0  0  0  0  0  0  0  0  0
    8.1561  -10.1135    0.4886 H   0  0  0  0  0  0  0  0  0  0  0  0
    6.4312   -9.6118    0.4886 H   0  0  0  0  0  0  0  0  0  0  0  0
   11.8735  -14.7739   -1.5989 H   0  0  0  0  0  0  0  0  0  0  0  0
   12.7516  -17.0952   -1.7742 H   0  0  0  0  0  0  0  0  0  0  0  0
  1  2  1  0
  2  3  1  0
  3  4  2  0
  4  5  1  0
  5  6  2  0
  6  7  1  0
  7  8  1  0
  8  9  1  0
  9 10  2  0
 10 11  1  0
 11 12  1  0
 12 13  1  0
 13 14  1  0
 14 15  2  0
 15 16  1  0
 16 17  2  0
 17 18  1  0
 18 19  1  0
 19 20  2  0
 19 21  1  0
 21 22  1  0
 22 23  2  0
 23 24  1  0
 24 25  2  0
 25 26  1  0
 26 27  2  0
 27 28  1  0
 27 29  1  0
 29 30  2  0
 30 31  1  0
 17 32  1  0
 32 33  2  0
 33 34  1  0
 13 35  2  0
 35 36  1  0
  6 37  1  0
 37 38  2  0
 38  3  1  0
 36  8  1  0
 36 11  2  0
 33 14  1  0
 31 22  1  0
 30 24  1  0
  1 39  1  0
  1 40  1  0
  1 41  1  0
  4 42  1  0
  5 43  1  0
  7 44  1  0
  7 45  1  0
 10 46  1  0
 15 47  1  0
 16 48  1  0
 18 49  1  0
 21 50  1  0
 25 51  1  0
 26 52  1  0
 28 53  1  0
 28 54  1  0
 28 55  1  0
 29 56  1  0
 32 57  1  0
 34 58  1  0
 34 59  1  0
 34 60  1  0
 37 61  1  0
 38 62  1  0
M  CHG  1  12  -1
M  END
>  <meeko>  (2) 
{"is_sidechain": [false], "free_energy": -9.396, "intermolecular_energy": -12.099, "internal_energy": -0.643}

$$$$
LIB_YHHSKXWUHAVBMR__M_PUB_ALL__e8__s20260927
     RDKit          3D

 62 67  0  0  0  0  0  0  0  0999 V2000
    4.3230  -12.4170   -0.4840 C   0  0  0  0  0  0  0  0  0  0  0  0
    3.1730  -12.4460   -1.3210 O   0  0  0  0  0  0  0  0  0  0  0  0
    2.0610  -11.8030   -0.8470 C   0  0  0  0  0  0  0  0  0  0  0  0
    1.4550  -10.6850   -1.4180 C   0  0  0  0  0  0  0  0  0  0  0  0
    0.3160  -10.1240   -0.8300 C   0  0  0  0  0  0  0  0  0  0  0  0
   -0.2330  -10.6730    0.3380 C   0  0  0  0  0  0  0  0  0  0  0  0
   -1.4620  -10.0560    0.9630 C   0  0  0  0  0  0  0  0  0  0  0  0
   -2.6770  -10.7190    0.5440 N   0  0  0  0  0  0  0  0  0  0  0  0
   -3.3390  -10.3570   -0.6170 N   0  0  0  0  0  0  0  0  0  0  0  0
   -4.4240  -11.1730   -0.6000 C   0  0  0  0  0  0  0  0  0  0  0  0
   -4.4360  -11.9750    0.5310 C   0  0  0  0  0  0  0  0  0  0  0  0
   -5.1840  -12.9890    1.2220 N   0  0  0  0  0  0  0  0  0  0  0  0
   -4.4220  -13.2360    2.3750 C   0  0  0  0  0  0  0  0  0  0  0  0
   -4.8620  -14.3240    3.4710 C   0  0  0  0  0  0  0  0  0  0  0  0
   -6.0680  -14.0830    4.1420 C   0  0  0  0  0  0  0  0  0  0  0  0
   -6.5390  -14.9680    5.1120 C   0  0  0  0  0  0  0  0  0  0  0  0
   -5.8130  -16.1180    5.4330 C   0  0  0  0  0  0  0  0  0  0  0  0
   -6.3630  -16.9580    6.4270 N   0  0  0  0  0  0  0  0  0  0  0  0
   -6.6210  -16.6630    7.7580 C   0  0  0  0  0  0  0  0  0  0  0  0
   -6.3980  -15.5870    8.2960 O   0  0  0  0  0  0  0  0  0  0  0  0
   -7.1670  -17.7660    8.3890 N   0  0  0  0  0  0  0  0  0  0  0  0
   -7.5550  -17.8740    9.7000 C   0  0  0  0  0  0  0  0  0  0  0  0
   -8.7860  -18.2170   10.0010 N   0  0  0  0  0  0  0  0  0  0  0  0
   -8.9330  -18.2580   11.3800 C   0  0  0  0  0  0  0  0  0  0  0  0
  -10.1110  -18.5910   12.0770 C   0  0  0  0  0  0  0  0  0  0  0  0
  -10.1150  -18.5930   13.4770 C   0  0  0  0  0  0  0  0  0  0  0  0
   -8.9660  -18.2560   14.1980 C   0  0  0  0  0  0  0  0  0  0  0  0
   -8.9790  -18.2940   15.6990 C   0  0  0  0  0  0  0  0  0  0  0  0
   -7.7810  -17.9380   13.5160 C   0  0  0  0  0  0  0  0  0  0  0  0
   -7.7890  -17.9390   12.1110 C   0  0  0  0  0  0  0  0  0  0  0  0
   -6.5140  -17.5870   11.0140 S   0  0  0  0  0  0  0  0  0  0  0  0
   -4.6100  -16.3620    4.7670 C   0  0  0  0  0  0  0  0  0  0  0  0
   -4.1180  -15.4750    3.7810 C   0  0  0  0  0  0  0  0  0  0  0  0
   -2.8150  -15.8060    3.1080 C   0  0  0  0  0  0  0  0  0  0  0  0
   -3.2720  -12.4470    2.4470 N   0  0  0  0  0  0  0  0  0  0  0  0
   -3.3430  -11.6680    1.2310 C   0  0  0  0  0  0  0  0  0  0  0  0
    0.3840  -11.7920    0.9100 C   0  0  0  0  0  0  0  0  0  0  0  0
    1.5180  -12.3520    0.3180 C   0  0  0  0  0  0  0  0  0  0  0  0
    4.0094  -12.4249    0.5703 H   0  0  0  0  0  0  0  0  0  0  0  0
    4.9470  -13.2997   -0.6876 H   0  0  0  0  0  0  0  0  0  0  0  0
    4.9017  -11.5040   -0.6876 H   0  0  0  0  0  0  0  0  0  0  0  0
    1.8736  -10.2424   -2.3339 H   0  0  0  0  0  0  0  0  0  0  0  0
   -0.1544   -9.2420   -1.2892 H   0  0  0  0  0  0  0  0  0  0  0  0
   -1.3777  -10.1285    2.0574 H   0  0  0  0  0  0  0  0  0  0  0  0
   -1.5183   -9.0074    0.6355 H   0  0  0  0  0  0  0  0  0  0  0  0
   -5.1954  -11.1951   -1.3838 H   0  0  0  0  0  0  0  0  0  0  0  0
   -6.6521  -13.1827    3.9004 H   0  0  0  0  0  0  0  0  0  0  0  0
   -7.4880  -14.7592    5.6275 H   0  0  0  0  0  0  0  0  0  0  0  0
   -6.5890  -17.8880    6.1120 H   0  0  0  0  0  0  0  0  0  0  0  0
   -7.3190  -18.6100    7.8670 H   0  0  0  0  0  0  0  0  0  0  0  0
  -11.0255  -18.8488   11.5226 H   0  0  0  0  0  0  0  0  0  0  0  0
  -11.0346  -18.8634   14.0167 H   0  0  0  0  0  0  0  0  0  0  0  0
   -8.6466  -17.3224   16.0933 H   0  0  0  0  0  0  0  0  0  0  0  0
   -9.9998  -18.5030   16.0517 H   0  0  0  0  0  0  0  0  0  0  0  0
   -8.3002  -19.0845   16.0517 H   0  0  0  0  0  0  0  0  0  0  0  0
   -6.8635  -17.6927   14.0710 H   0  0  0  0  0  0  0  0  0  0  0  0
   -4.0319  -17.2644    5.0148 H   0  0  0  0  0  0  0  0  0  0  0  0
   -2.0473  -16.0010    3.8712 H   0  0  0  0  0  0  0  0  0  0  0  0
   -2.9433  -16.7001    2.4802 H   0  0  0  0  0  0  0  0  0  0  0  0
   -2.5011  -14.9591    2.4802 H   0  0  0  0  0  0  0  0  0  0  0  0
   -0.0266  -12.2324    1.8306 H   0  0  0  0  0  0  0  0  0  0  0  0
    1.9893  -13.2353    0.7737 H   0  0  0  0  0  0  0  0  0  0  0  0
  1  2  1  0
  2  3  1  0
  3  4  2  0
  4  5  1  0
  5  6  2  0
  6  7  1  0
  7  8  1  0
  8  9  1  0
  9 10  2  0
 10 11  1  0
 11 12  1  0
 12 13  1  0
 13 14  1  0
 14 15  2  0
 15 16  1  0
 16 17  2  0
 17 18  1  0
 18 19  1  0
 19 20  2  0
 19 21  1  0
 21 22  1  0
 22 23  2  0
 23 24  1  0
 24 25  2  0
 25 26  1  0
 26 27  2  0
 27 28  1  0
 27 29  1  0
 29 30  2  0
 30 31  1  0
 17 32  1  0
 32 33  2  0
 33 34  1  0
 13 35  2  0
 35 36  1  0
  6 37  1  0
 37 38  2  0
 38  3  1  0
 36  8  1  0
 36 11  2  0
 33 14  1  0
 31 22  1  0
 30 24  1  0
  1 39  1  0
  1 40  1  0
  1 41  1  0
  4 42  1  0
  5 43  1  0
  7 44  1  0
  7 45  1  0
 10 46  1  0
 15 47  1  0
 16 48  1  0
 18 49  1  0
 21 50  1  0
 25 51  1  0
 26 52  1  0
 28 53  1  0
 28 54  1  0
 28 55  1  0
 29 56  1  0
 32 57  1  0
 34 58  1  0
 34 59  1  0
 34 60  1  0
 37 61  1  0
 38 62  1  0
M  CHG  1  12  -1
M  END
>  <meeko>  (3) 
{"is_sidechain": [false], "free_energy": -9.252, "intermolecular_energy": -11.832, "internal_energy": -0.717}

$$$$
LIB_YHHSKXWUHAVBMR__M_PUB_ALL__e8__s20260927
     RDKit          3D

 62 67  0  0  0  0  0  0  0  0999 V2000
   -2.6450  -18.1750    2.7440 C   0  0  0  0  0  0  0  0  0  0  0  0
   -2.1340  -17.4160    1.6550 O   0  0  0  0  0  0  0  0  0  0  0  0
   -2.4500  -16.0830    1.6440 C   0  0  0  0  0  0  0  0  0  0  0  0
   -2.4840  -15.2400    2.7540 C   0  0  0  0  0  0  0  0  0  0  0  0
   -2.8230  -13.8910    2.6020 C   0  0  0  0  0  0  0  0  0  0  0  0
   -3.1340  -13.3660    1.3390 C   0  0  0  0  0  0  0  0  0  0  0  0
   -3.5000  -11.9080    1.1900 C   0  0  0  0  0  0  0  0  0  0  0  0
   -2.3820  -11.0350    1.4670 N   0  0  0  0  0  0  0  0  0  0  0  0
   -2.4690  -10.0140    2.3980 N   0  0  0  0  0  0  0  0  0  0  0  0
   -1.2470   -9.4290    2.3040 C   0  0  0  0  0  0  0  0  0  0  0  0
   -0.4630  -10.0480    1.3430 C   0  0  0  0  0  0  0  0  0  0  0  0
    0.8210  -10.0100    0.6970 N   0  0  0  0  0  0  0  0  0  0  0  0
    0.7600  -11.0660   -0.2260 C   0  0  0  0  0  0  0  0  0  0  0  0
    1.9920  -11.4280   -1.1900 C   0  0  0  0  0  0  0  0  0  0  0  0
    1.9510  -10.8940   -2.4840 C   0  0  0  0  0  0  0  0  0  0  0  0
    2.9730  -11.1480   -3.3990 C   0  0  0  0  0  0  0  0  0  0  0  0
    4.0640  -11.9450   -3.0380 C   0  0  0  0  0  0  0  0  0  0  0  0
    5.0520  -12.1510   -4.0250 N   0  0  0  0  0  0  0  0  0  0  0  0
    5.3410  -13.3150   -4.7250 C   0  0  0  0  0  0  0  0  0  0  0  0
    4.7620  -14.3830   -4.5830 O   0  0  0  0  0  0  0  0  0  0  0  0
    6.3830  -13.0890   -5.6070 N   0  0  0  0  0  0  0  0  0  0  0  0
    6.9590  -13.9860   -6.4700 C   0  0  0  0  0  0  0  0  0  0  0  0
    6.7040  -13.9260   -7.7560 N   0  0  0  0  0  0  0  0  0  0  0  0
    7.3980  -14.9290   -8.4150 C   0  0  0  0  0  0  0  0  0  0  0  0
    7.3780  -15.1770   -9.8020 C   0  0  0  0  0  0  0  0  0  0  0  0
    8.1320  -16.2300  -10.3320 C   0  0  0  0  0  0  0  0  0  0  0  0
    8.8990  -17.0520   -9.5030 C   0  0  0  0  0  0  0  0  0  0  0  0
    9.7280  -18.1570  -10.0920 C   0  0  0  0  0  0  0  0  0  0  0  0
    8.9410  -16.8070   -8.1210 C   0  0  0  0  0  0  0  0  0  0  0  0
    8.1800  -15.7480   -7.6000 C   0  0  0  0  0  0  0  0  0  0  0  0
    8.0220  -15.2170   -5.9730 S   0  0  0  0  0  0  0  0  0  0  0  0
    4.1080  -12.4790   -1.7480 C   0  0  0  0  0  0  0  0  0  0  0  0
    3.0810  -12.2310   -0.8090 C   0  0  0  0  0  0  0  0  0  0  0  0
    3.2000  -12.8410    0.5600 C   0  0  0  0  0  0  0  0  0  0  0  0
   -0.4620  -11.7400   -0.2000 N   0  0  0  0  0  0  0  0  0  0  0  0
   -1.1930  -11.0390    0.8300 C   0  0  0  0  0  0  0  0  0  0  0  0
   -3.1040  -14.2190    0.2300 C   0  0  0  0  0  0  0  0  0  0  0  0
   -2.7600  -15.5650    0.3840 C   0  0  0  0  0  0  0  0  0  0  0  0
   -2.3333  -17.7120    3.6919 H   0  0  0  0  0  0  0  0  0  0  0  0
   -3.7435  -18.1984    2.6912 H   0  0  0  0  0  0  0  0  0  0  0  0
   -2.2534  -19.2016    2.6912 H   0  0  0  0  0  0  0  0  0  0  0  0
   -2.2438  -15.6364    3.7516 H   0  0  0  0  0  0  0  0  0  0  0  0
   -2.8459  -13.2340    3.4840 H   0  0  0  0  0  0  0  0  0  0  0  0
   -3.8407  -11.7315    0.1591 H   0  0  0  0  0  0  0  0  0  0  0  0
   -4.2938  -11.6824    1.9173 H   0  0  0  0  0  0  0  0  0  0  0  0
   -0.9209   -8.5729    2.9130 H   0  0  0  0  0  0  0  0  0  0  0  0
    1.1000  -10.2647   -2.7835 H   0  0  0  0  0  0  0  0  0  0  0  0
    2.9204  -10.7188   -4.4105 H   0  0  0  0  0  0  0  0  0  0  0  0
    5.6110  -11.3400   -4.2360 H   0  0  0  0  0  0  0  0  0  0  0  0
    6.7970  -12.1760   -5.6590 H   0  0  0  0  0  0  0  0  0  0  0  0
    6.7712  -14.5444  -10.4665 H   0  0  0  0  0  0  0  0  0  0  0  0
    8.1205  -16.4130  -11.4166 H   0  0  0  0  0  0  0  0  0  0  0  0
   10.1745  -18.7522   -9.2818 H   0  0  0  0  0  0  0  0  0  0  0  0
    9.0899  -18.8031  -10.7128 H   0  0  0  0  0  0  0  0  0  0  0  0
   10.5268  -17.7251  -10.7128 H   0  0  0  0  0  0  0  0  0  0  0  0
    9.5581  -17.4325   -7.4593 H   0  0  0  0  0  0  0  0  0  0  0  0
    4.9622  -13.1075   -1.4559 H   0  0  0  0  0  0  0  0  0  0  0  0
    3.0482  -12.0629    1.3226 H   0  0  0  0  0  0  0  0  0  0  0  0
    2.4379  -13.6252    0.6795 H   0  0  0  0  0  0  0  0  0  0  0  0
    4.2010  -13.2812    0.6795 H   0  0  0  0  0  0  0  0  0  0  0  0
   -3.3524  -13.8283   -0.7678 H   0  0  0  0  0  0  0  0  0  0  0  0
   -2.7331  -16.2237   -0.4966 H   0  0  0  0  0  0  0  0  0  0  0  0
  1  2  1  0
  2  3  1  0
  3  4  2  0
  4  5  1  0
  5  6  2  0
  6  7  1  0
  7  8  1  0
  8  9  1  0
  9 10  2  0
 10 11  1  0
 11 12  1  0
 12 13  1  0
 13 14  1  0
 14 15  2  0
 15 16  1  0
 16 17  2  0
 17 18  1  0
 18 19  1  0
 19 20  2  0
 19 21  1  0
 21 22  1  0
 22 23  2  0
 23 24  1  0
 24 25  2  0
 25 26  1  0
 26 27  2  0
 27 28  1  0
 27 29  1  0
 29 30  2  0
 30 31  1  0
 17 32  1  0
 32 33  2  0
 33 34  1  0
 13 35  2  0
 35 36  1  0
  6 37  1  0
 37 38  2  0
 38  3  1  0
 36  8  1  0
 36 11  2  0
 33 14  1  0
 31 22  1  0
 30 24  1  0
  1 39  1  0
  1 40  1  0
  1 41  1  0
  4 42  1  0
  5 43  1  0
  7 44  1  0
  7 45  1  0
 10 46  1  0
 15 47  1  0
 16 48  1  0
 18 49  1  0
 21 50  1  0
 25 51  1  0
 26 52  1  0
 28 53  1  0
 28 54  1  0
 28 55  1  0
 29 56  1  0
 32 57  1  0
 34 58  1  0
 34 59  1  0
 34 60  1  0
 37 61  1  0
 38 62  1  0
M  CHG  1  12  -1
M  END
>  <meeko>  (4) 
{"is_sidechain": [false], "free_energy": -9.243, "intermolecular_energy": -11.457, "internal_energy": -1.078}

$$$$
LIB_YHHSKXWUHAVBMR__M_PUB_ALL__e8__s20260927
     RDKit          3D

 62 67  0  0  0  0  0  0  0  0999 V2000
    1.1990  -17.5600    7.5870 C   0  0  0  0  0  0  0  0  0  0  0  0
    1.0250  -16.1850    7.2660 O   0  0  0  0  0  0  0  0  0  0  0  0
    0.3130  -15.9140    6.1280 C   0  0  0  0  0  0  0  0  0  0  0  0
    0.3360  -14.7170    5.4130 C   0  0  0  0  0  0  0  0  0  0  0  0
   -0.4430  -14.5710    4.2600 C   0  0  0  0  0  0  0  0  0  0  0  0
   -1.2570  -15.6200    3.8060 C   0  0  0  0  0  0  0  0  0  0  0  0
   -2.0940  -15.4480    2.5610 C   0  0  0  0  0  0  0  0  0  0  0  0
   -3.2230  -14.5710    2.7800 N   0  0  0  0  0  0  0  0  0  0  0  0
   -3.2300  -13.2670    2.3160 N   0  0  0  0  0  0  0  0  0  0  0  0
   -4.4210  -12.8020    2.7730 C   0  0  0  0  0  0  0  0  0  0  0  0
   -5.0940  -13.7690    3.5040 C   0  0  0  0  0  0  0  0  0  0  0  0
   -6.2890  -14.0240    4.2620 N   0  0  0  0  0  0  0  0  0  0  0  0
   -6.1360  -15.3530    4.6870 C   0  0  0  0  0  0  0  0  0  0  0  0
   -7.2480  -16.0980    5.5730 C   0  0  0  0  0  0  0  0  0  0  0  0
   -7.9600  -17.1290    4.9450 C   0  0  0  0  0  0  0  0  0  0  0  0
   -8.9470  -17.8390    5.6280 C   0  0  0  0  0  0  0  0  0  0  0  0
   -9.2450  -17.5350    6.9600 C   0  0  0  0  0  0  0  0  0  0  0  0
  -10.2580  -18.3030    7.5750 N   0  0  0  0  0  0  0  0  0  0  0  0
  -10.1730  -19.5940    8.0800 C   0  0  0  0  0  0  0  0  0  0  0  0
   -9.1680  -20.2910    8.0640 O   0  0  0  0  0  0  0  0  0  0  0  0
  -11.3950  -19.9770    8.6030 N   0  0  0  0  0  0  0  0  0  0  0  0
  -11.7170  -21.1750    9.1880 C   0  0  0  0  0  0  0  0  0  0  0  0
  -11.7380  -22.2770    8.4740 N   0  0  0  0  0  0  0  0  0  0  0  0
  -12.0890  -23.3480    9.2810 C   0  0  0  0  0  0  0  0  0  0  0  0
  -12.2110  -24.6900    8.8710 C   0  0  0  0  0  0  0  0  0  0  0  0
  -12.5740  -25.6720    9.8000 C   0  0  0  0  0  0  0  0  0  0  0  0
  -12.8300  -25.3400   11.1320 C   0  0  0  0  0  0  0  0  0  0  0  0
  -13.1870  -26.4110   12.1220 C   0  0  0  0  0  0  0  0  0  0  0  0
  -12.6970  -24.0090   11.5590 C   0  0  0  0  0  0  0  0  0  0  0  0
  -12.3330  -23.0320   10.6180 C   0  0  0  0  0  0  0  0  0  0  0  0
  -12.1040  -21.3420   10.8350 S   0  0  0  0  0  0  0  0  0  0  0  0
   -8.5380  -16.5080    7.5890 C   0  0  0  0  0  0  0  0  0  0  0  0
   -7.5340  -15.7780    6.9110 C   0  0  0  0  0  0  0  0  0  0  0  0
   -6.8170  -14.6870    7.6560 C   0  0  0  0  0  0  0  0  0  0  0  0
   -4.9390  -15.9270    4.2560 N   0  0  0  0  0  0  0  0  0  0  0  0
   -4.3250  -14.8590    3.5010 C   0  0  0  0  0  0  0  0  0  0  0  0
   -1.2800  -16.8160    4.5320 C   0  0  0  0  0  0  0  0  0  0  0  0
   -0.4970  -16.9600    5.6800 C   0  0  0  0  0  0  0  0  0  0  0  0
    1.2145  -17.6822    8.6801 H   0  0  0  0  0  0  0  0  0  0  0  0
    0.3675  -18.1432    7.1646 H   0  0  0  0  0  0  0  0  0  0  0  0
    2.1496  -17.9177    7.1646 H   0  0  0  0  0  0  0  0  0  0  0  0
    0.9684  -13.8851    5.7565 H   0  0  0  0  0  0  0  0  0  0  0  0
   -0.4171  -13.6229    3.7029 H   0  0  0  0  0  0  0  0  0  0  0  0
   -1.4637  -15.0227    1.7661 H   0  0  0  0  0  0  0  0  0  0  0  0
   -2.4838  -16.4364    2.2762 H   0  0  0  0  0  0  0  0  0  0  0  0
   -4.8032  -11.7874    2.5870 H   0  0  0  0  0  0  0  0  0  0  0  0
   -7.7370  -17.3819    3.8979 H   0  0  0  0  0  0  0  0  0  0  0  0
   -9.4948  -18.6436    5.1155 H   0  0  0  0  0  0  0  0  0  0  0  0
  -11.1510  -17.8420    7.6460 H   0  0  0  0  0  0  0  0  0  0  0  0
  -12.1680  -19.3360    8.5760 H   0  0  0  0  0  0  0  0  0  0  0  0
  -12.0214  -24.9657    7.8231 H   0  0  0  0  0  0  0  0  0  0  0  0
  -12.6588  -26.7199    9.4763 H   0  0  0  0  0  0  0  0  0  0  0  0
  -13.0579  -26.0238   13.1435 H   0  0  0  0  0  0  0  0  0  0  0  0
  -14.2343  -26.7129   11.9739 H   0  0  0  0  0  0  0  0  0  0  0  0
  -12.5302  -27.2809   11.9739 H   0  0  0  0  0  0  0  0  0  0  0  0
  -12.8744  -23.7368   12.6099 H   0  0  0  0  0  0  0  0  0  0  0  0
   -8.7673  -16.2610    8.6361 H   0  0  0  0  0  0  0  0  0  0  0  0
   -6.9244  -14.8504    8.7385 H   0  0  0  0  0  0  0  0  0  0  0  0
   -5.7504  -14.6994    7.3874 H   0  0  0  0  0  0  0  0  0  0  0  0
   -7.2515  -13.7128    7.3874 H   0  0  0  0  0  0  0  0  0  0  0  0
   -1.9179  -17.6472    4.1971 H   0  0  0  0  0  0  0  0  0  0  0  0
   -0.5186  -17.9080    6.2375 H   0  0  0  0  0  0  0  0  0  0  0  0
  1  2  1  0
  2  3  1  0
  3  4  2  0
  4  5  1  0
  5  6  2  0
  6  7  1  0
  7  8  1  0
  8  9  1  0
  9 10  2  0
 10 11  1  0
 11 12  1  0
 12 13  1  0
 13 14  1  0
 14 15  2  0
 15 16  1  0
 16 17  2  0
 17 18  1  0
 18 19  1  0
 19 20  2  0
 19 21  1  0
 21 22  1  0
 22 23  2  0
 23 24  1  0
 24 25  2  0
 25 26  1  0
 26 27  2  0
 27 28  1  0
 27 29  1  0
 29 30  2  0
 30 31  1  0
 17 32  1  0
 32 33  2  0
 33 34  1  0
 13 35  2  0
 35 36  1  0
  6 37  1  0
 37 38  2  0
 38  3  1  0
 36  8  1  0
 36 11  2  0
 33 14  1  0
 31 22  1  0
 30 24  1  0
  1 39  1  0
  1 40  1  0
  1 41  1  0
  4 42  1  0
  5 43  1  0
  7 44  1  0
  7 45  1  0
 10 46  1  0
 15 47  1  0
 16 48  1  0
 18 49  1  0
 21 50  1  0
 25 51  1  0
 26 52  1  0
 28 53  1  0
 28 54  1  0
 28 55  1  0
 29 56  1  0
 32 57  1  0
 34 58  1  0
 34 59  1  0
 34 60  1  0
 37 61  1  0
 38 62  1  0
M  CHG  1  12  -1
M  END
>  <meeko>  (5) 
{"is_sidechain": [false], "free_energy": -9.105, "intermolecular_energy": -11.331, "internal_energy": -1.018}

$$$$
LIB_YHHSKXWUHAVBMR__M_PUB_ALL__e8__s20260927
     RDKit          3D

 62 67  0  0  0  0  0  0  0  0999 V2000
   15.5860  -14.8760  -10.4870 C   0  0  0  0  0  0  0  0  0  0  0  0
   14.3110  -14.3780  -10.1000 O   0  0  0  0  0  0  0  0  0  0  0  0
   13.9750  -14.5340   -8.7820 C   0  0  0  0  0  0  0  0  0  0  0  0
   12.7650  -14.1640   -8.1950 C   0  0  0  0  0  0  0  0  0  0  0  0
   12.5490  -14.3810   -6.8310 C   0  0  0  0  0  0  0  0  0  0  0  0
   13.5390  -14.9720   -6.0320 C   0  0  0  0  0  0  0  0  0  0  0  0
   13.2930  -15.2000   -4.5580 C   0  0  0  0  0  0  0  0  0  0  0  0
   13.1940  -13.9580   -3.8250 N   0  0  0  0  0  0  0  0  0  0  0  0
   14.2890  -13.1290   -3.6480 N   0  0  0  0  0  0  0  0  0  0  0  0
   13.7780  -12.1320   -2.8800 C   0  0  0  0  0  0  0  0  0  0  0  0
   12.4430  -12.3570   -2.5820 C   0  0  0  0  0  0  0  0  0  0  0  0
   11.3110  -11.8270   -1.8720 N   0  0  0  0  0  0  0  0  0  0  0  0
   10.2970  -12.7680   -2.1120 C   0  0  0  0  0  0  0  0  0  0  0  0
    8.8150  -12.5960   -1.5200 C   0  0  0  0  0  0  0  0  0  0  0  0
    8.6030  -13.0690   -0.2180 C   0  0  0  0  0  0  0  0  0  0  0  0
    7.3510  -12.9660    0.3880 C   0  0  0  0  0  0  0  0  0  0  0  0
    6.2790  -12.3850   -0.2960 C   0  0  0  0  0  0  0  0  0  0  0  0
    5.0480  -12.3210    0.3930 N   0  0  0  0  0  0  0  0  0  0  0  0
    3.7650  -12.2760   -0.1380 C   0  0  0  0  0  0  0  0  0  0  0  0
    3.4980  -12.2810   -1.3310 O   0  0  0  0  0  0  0  0  0  0  0  0
    2.8340  -12.2250    0.8830 N   0  0  0  0  0  0  0  0  0  0  0  0
    1.4680  -12.1680    0.7690 C   0  0  0  0  0  0  0  0  0  0  0  0
    0.8670  -11.0170    0.5790 N   0  0  0  0  0  0  0  0  0  0  0  0
   -0.5030  -11.2150    0.4970 C   0  0  0  0  0  0  0  0  0  0  0  0
   -1.4740  -10.2160    0.2920 C   0  0  0  0  0  0  0  0  0  0  0  0
   -2.8290  -10.5630    0.2290 C   0  0  0  0  0  0  0  0  0  0  0  0
   -3.2370  -11.8910    0.3780 C   0  0  0  0  0  0  0  0  0  0  0  0
   -4.6910  -12.2500    0.2760 C   0  0  0  0  0  0  0  0  0  0  0  0
   -2.2790  -12.9000    0.5670 C   0  0  0  0  0  0  0  0  0  0  0  0
   -0.9220  -12.5390    0.6290 C   0  0  0  0  0  0  0  0  0  0  0  0
    0.4610  -13.5340    0.8580 S   0  0  0  0  0  0  0  0  0  0  0  0
    6.4860  -11.9120   -1.5940 C   0  0  0  0  0  0  0  0  0  0  0  0
    7.7490  -12.0090   -2.2230 C   0  0  0  0  0  0  0  0  0  0  0  0
    7.8930  -11.4770   -3.6220 C   0  0  0  0  0  0  0  0  0  0  0  0
   10.7230  -13.8350   -2.9060 N   0  0  0  0  0  0  0  0  0  0  0  0
   12.1040  -13.5030   -3.1740 C   0  0  0  0  0  0  0  0  0  0  0  0
   14.7540  -15.3350   -6.6240 C   0  0  0  0  0  0  0  0  0  0  0  0
   14.9650  -15.1210   -7.9890 C   0  0  0  0  0  0  0  0  0  0  0  0
   16.1775  -15.1070   -9.5888 H   0  0  0  0  0  0  0  0  0  0  0  0
   15.4565  -15.7896  -11.0857 H   0  0  0  0  0  0  0  0  0  0  0  0
   16.1100  -14.1164  -11.0857 H   0  0  0  0  0  0  0  0  0  0  0  0
   11.9780  -13.6998   -8.8075 H   0  0  0  0  0  0  0  0  0  0  0  0
   11.5910  -14.0847   -6.3787 H   0  0  0  0  0  0  0  0  0  0  0  0
   12.3533  -15.7589   -4.4375 H   0  0  0  0  0  0  0  0  0  0  0  0
   14.1472  -15.7640   -4.1552 H   0  0  0  0  0  0  0  0  0  0  0  0
   14.3507  -11.2573   -2.5380 H   0  0  0  0  0  0  0  0  0  0  0  0
    9.4362  -13.5282    0.3341 H   0  0  0  0  0  0  0  0  0  0  0  0
    7.2061  -13.3443    1.4107 H   0  0  0  0  0  0  0  0  0  0  0  0
    5.1280  -12.3060    1.3970 H   0  0  0  0  0  0  0  0  0  0  0  0
    3.1450  -12.2290    1.8380 H   0  0  0  0  0  0  0  0  0  0  0  0
   -1.1686   -9.1650    0.1816 H   0  0  0  0  0  0  0  0  0  0  0  0
   -3.5824   -9.7796    0.0599 H   0  0  0  0  0  0  0  0  0  0  0  0
   -5.1146  -12.3546    1.2858 H   0  0  0  0  0  0  0  0  0  0  0  0
   -5.2272  -11.4573   -0.2663 H   0  0  0  0  0  0  0  0  0  0  0  0
   -4.7967  -13.2012   -0.2663 H   0  0  0  0  0  0  0  0  0  0  0  0
   -2.5845  -13.9522    0.6646 H   0  0  0  0  0  0  0  0  0  0  0  0
    5.6477  -11.4537   -2.1392 H   0  0  0  0  0  0  0  0  0  0  0  0
    8.1802  -10.4159   -3.5830 H   0  0  0  0  0  0  0  0  0  0  0  0
    8.6690  -12.0476   -4.1532 H   0  0  0  0  0  0  0  0  0  0  0  0
    6.9351  -11.5783   -4.1532 H   0  0  0  0  0  0  0  0  0  0  0  0
   15.5465  -15.7908   -6.0123 H   0  0  0  0  0  0  0  0  0  0  0  0
   15.9212  -15.4180   -8.4444 H   0  0  0  0  0  0  0  0  0  0  0  0
  1  2  1  0
  2  3  1  0
  3  4  2  0
  4  5  1  0
  5  6  2  0
  6  7  1  0
  7  8  1  0
  8  9  1  0
  9 10  2  0
 10 11  1  0
 11 12  1  0
 12 13  1  0
 13 14  1  0
 14 15  2  0
 15 16  1  0
 16 17  2  0
 17 18  1  0
 18 19  1  0
 19 20  2  0
 19 21  1  0
 21 22  1  0
 22 23  2  0
 23 24  1  0
 24 25  2  0
 25 26  1  0
 26 27  2  0
 27 28  1  0
 27 29  1  0
 29 30  2  0
 30 31  1  0
 17 32  1  0
 32 33  2  0
 33 34  1  0
 13 35  2  0
 35 36  1  0
  6 37  1  0
 37 38  2  0
 38  3  1  0
 36  8  1  0
 36 11  2  0
 33 14  1  0
 31 22  1  0
 30 24  1  0
  1 39  1  0
  1 40  1  0
  1 41  1  0
  4 42  1  0
  5 43  1  0
  7 44  1  0
  7 45  1  0
 10 46  1  0
 15 47  1  0
 16 48  1  0
 18 49  1  0
 21 50  1  0
 25 51  1  0
 26 52  1  0
 28 53  1  0
 28 54  1  0
 28 55  1  0
 29 56  1  0
 32 57  1  0
 34 58  1  0
 34 59  1  0
 34 60  1  0
 37 61  1  0
 38 62  1  0
M  CHG  1  12  -1
M  END
>  <meeko>  (6) 
{"is_sidechain": [false], "free_energy": -9.059, "intermolecular_energy": -11.606, "internal_energy": -0.68}

$$$$
LIB_YHHSKXWUHAVBMR__M_PUB_ALL__e8__s20260927
     RDKit          3D

 62 67  0  0  0  0  0  0  0  0999 V2000
    1.2050  -17.7630    4.9140 C   0  0  0  0  0  0  0  0  0  0  0  0
    1.5110  -16.3990    5.1780 O   0  0  0  0  0  0  0  0  0  0  0  0
    0.7260  -15.4690    4.5520 C   0  0  0  0  0  0  0  0  0  0  0  0
    0.4310  -14.1920    5.0260 C   0  0  0  0  0  0  0  0  0  0  0  0
   -0.3880  -13.3360    4.2830 C   0  0  0  0  0  0  0  0  0  0  0  0
   -0.9250  -13.7450    3.0530 C   0  0  0  0  0  0  0  0  0  0  0  0
   -1.8090  -12.8110    2.2600 C   0  0  0  0  0  0  0  0  0  0  0  0
   -1.0590  -11.7330    1.6560 N   0  0  0  0  0  0  0  0  0  0  0  0
   -1.3020  -10.4090    1.9780 N   0  0  0  0  0  0  0  0  0  0  0  0
   -0.4370   -9.7490    1.1660 C   0  0  0  0  0  0  0  0  0  0  0  0
    0.2790  -10.6280    0.3680 C   0  0  0  0  0  0  0  0  0  0  0  0
    1.2750  -10.7030   -0.6660 N   0  0  0  0  0  0  0  0  0  0  0  0
    1.3990  -12.0800   -0.9080 C   0  0  0  0  0  0  0  0  0  0  0  0
    2.4230  -12.6660   -1.9970 C   0  0  0  0  0  0  0  0  0  0  0  0
    1.8660  -13.1140   -3.2020 C   0  0  0  0  0  0  0  0  0  0  0  0
    2.6710  -13.6400   -4.2130 C   0  0  0  0  0  0  0  0  0  0  0  0
    4.0550  -13.7290   -4.0420 C   0  0  0  0  0  0  0  0  0  0  0  0
    4.7930  -14.2740   -5.1160 N   0  0  0  0  0  0  0  0  0  0  0  0
    5.6040  -13.6120   -6.0280 C   0  0  0  0  0  0  0  0  0  0  0  0
    5.8060  -12.4060   -6.0420 O   0  0  0  0  0  0  0  0  0  0  0  0
    6.1480  -14.5180   -6.9200 N   0  0  0  0  0  0  0  0  0  0  0  0
    6.9950  -14.2570   -7.9670 C   0  0  0  0  0  0  0  0  0  0  0  0
    6.5300  -13.7410   -9.0810 N   0  0  0  0  0  0  0  0  0  0  0  0
    7.5700  -13.5710   -9.9830 C   0  0  0  0  0  0  0  0  0  0  0  0
    7.4600  -13.0390  -11.2830 C   0  0  0  0  0  0  0  0  0  0  0  0
    8.6000  -12.9240  -12.0880 C   0  0  0  0  0  0  0  0  0  0  0  0
    9.8500  -13.3410  -11.6240 C   0  0  0  0  0  0  0  0  0  0  0  0
   11.0680  -13.1810  -12.4880 C   0  0  0  0  0  0  0  0  0  0  0  0
    9.9770  -13.8580  -10.3240 C   0  0  0  0  0  0  0  0  0  0  0  0
    8.8260  -13.9690   -9.5270 C   0  0  0  0  0  0  0  0  0  0  0  0
    8.6660  -14.5640   -7.9220 S   0  0  0  0  0  0  0  0  0  0  0  0
    4.6140  -13.2840   -2.8420 C   0  0  0  0  0  0  0  0  0  0  0  0
    3.8130  -12.7490   -1.8070 C   0  0  0  0  0  0  0  0  0  0  0  0
    4.4890  -12.2900   -0.5440 C   0  0  0  0  0  0  0  0  0  0  0  0
    0.5520  -12.8510   -0.1100 N   0  0  0  0  0  0  0  0  0  0  0  0
   -0.1310  -11.8570    0.6850 C   0  0  0  0  0  0  0  0  0  0  0  0
   -0.6310  -15.0310    2.5840 C   0  0  0  0  0  0  0  0  0  0  0  0
    0.1920  -15.8810    3.3280 C   0  0  0  0  0  0  0  0  0  0  0  0
    1.0840  -18.3023    5.8650 H   0  0  0  0  0  0  0  0  0  0  0  0
    0.2708  -17.8241    4.3364 H   0  0  0  0  0  0  0  0  0  0  0  0
    2.0236  -18.2173    4.3364 H   0  0  0  0  0  0  0  0  0  0  0  0
    0.8441  -13.8561    5.9885 H   0  0  0  0  0  0  0  0  0  0  0  0
   -0.6138  -12.3304    4.6673 H   0  0  0  0  0  0  0  0  0  0  0  0
   -2.3079  -13.3847    1.4650 H   0  0  0  0  0  0  0  0  0  0  0  0
   -2.5402  -12.3681    2.9522 H   0  0  0  0  0  0  0  0  0  0  0  0
   -0.3192   -8.6555    1.1440 H   0  0  0  0  0  0  0  0  0  0  0  0
    0.7783  -13.0501   -3.3532 H   0  0  0  0  0  0  0  0  0  0  0  0
    2.2130  -13.9870   -5.1510 H   0  0  0  0  0  0  0  0  0  0  0  0
    4.7070  -15.2730   -5.2200 H   0  0  0  0  0  0  0  0  0  0  0  0
    5.9280  -15.4940   -6.8300 H   0  0  0  0  0  0  0  0  0  0  0  0
    6.4807  -12.7147  -11.6648 H   0  0  0  0  0  0  0  0  0  0  0  0
    8.5101  -12.4998  -13.0989 H   0  0  0  0  0  0  0  0  0  0  0  0
   11.9569  -13.0642  -11.8506 H   0  0  0  0  0  0  0  0  0  0  0  0
   11.1866  -14.0713  -13.1231 H   0  0  0  0  0  0  0  0  0  0  0  0
   10.9526  -12.2903  -13.1231 H   0  0  0  0  0  0  0  0  0  0  0  0
   10.9587  -14.1698   -9.9379 H   0  0  0  0  0  0  0  0  0  0  0  0
    5.7026  -13.3513   -2.6988 H   0  0  0  0  0  0  0  0  0  0  0  0
    3.9334  -12.6673    0.3272 H   0  0  0  0  0  0  0  0  0  0  0  0
    5.5185  -12.6766   -0.5178 H   0  0  0  0  0  0  0  0  0  0  0  0
    4.5094  -11.1905   -0.5178 H   0  0  0  0  0  0  0  0  0  0  0  0
   -1.0494  -15.3737    1.6262 H   0  0  0  0  0  0  0  0  0  0  0  0
    0.4222  -16.8864    2.9456 H   0  0  0  0  0  0  0  0  0  0  0  0
  1  2  1  0
  2  3  1  0
  3  4  2  0
  4  5  1  0
  5  6  2  0
  6  7  1  0
  7  8  1  0
  8  9  1  0
  9 10  2  0
 10 11  1  0
 11 12  1  0
 12 13  1  0
 13 14  1  0
 14 15  2  0
 15 16  1  0
 16 17  2  0
 17 18  1  0
 18 19  1  0
 19 20  2  0
 19 21  1  0
 21 22  1  0
 22 23  2  0
 23 24  1  0
 24 25  2  0
 25 26  1  0
 26 27  2  0
 27 28  1  0
 27 29  1  0
 29 30  2  0
 30 31  1  0
 17 32  1  0
 32 33  2  0
 33 34  1  0
 13 35  2  0
 35 36  1  0
  6 37  1  0
 37 38  2  0
 38  3  1  0
 36  8  1  0
 36 11  2  0
 33 14  1  0
 31 22  1  0
 30 24  1  0
  1 39  1  0
  1 40  1  0
  1 41  1  0
  4 42  1  0
  5 43  1  0
  7 44  1  0
  7 45  1  0
 10 46  1  0
 15 47  1  0
 16 48  1  0
 18 49  1  0
 21 50  1  0
 25 51  1  0
 26 52  1  0
 28 53  1  0
 28 54  1  0
 28 55  1  0
 29 56  1  0
 32 57  1  0
 34 58  1  0
 34 59  1  0
 34 60  1  0
 37 61  1  0
 38 62  1  0
M  CHG  1  12  -1
M  END
>  <meeko>  (7) 
{"is_sidechain": [false], "free_energy": -9.044, "intermolecular_energy": -11.178, "internal_energy": -1.089}

$$$$
LIB_YHHSKXWUHAVBMR__M_PUB_ALL__e8__s20260927
     RDKit          3D

 62 67  0  0  0  0  0  0  0  0999 V2000
    1.9610  -15.0170   -2.4580 C   0  0  0  0  0  0  0  0  0  0  0  0
    0.5480  -14.8680   -2.3860 O   0  0  0  0  0  0  0  0  0  0  0  0
   -0.0030  -14.9080   -1.1340 C   0  0  0  0  0  0  0  0  0  0  0  0
    0.5080  -14.2890    0.0070 C   0  0  0  0  0  0  0  0  0  0  0  0
   -0.1580  -14.4090    1.2310 C   0  0  0  0  0  0  0  0  0  0  0  0
   -1.3450  -15.1500    1.3330 C   0  0  0  0  0  0  0  0  0  0  0  0
   -2.0530  -15.2730    2.6620 C   0  0  0  0  0  0  0  0  0  0  0  0
   -3.2380  -14.4470    2.7260 N   0  0  0  0  0  0  0  0  0  0  0  0
   -3.2980  -13.2120    2.1030 N   0  0  0  0  0  0  0  0  0  0  0  0
   -4.5330  -12.7700    2.4520 C   0  0  0  0  0  0  0  0  0  0  0  0
   -5.1840  -13.6800    3.2700 C   0  0  0  0  0  0  0  0  0  0  0  0
   -6.3970  -13.9150    4.0050 N   0  0  0  0  0  0  0  0  0  0  0  0
   -6.1890  -15.1700    4.5980 C   0  0  0  0  0  0  0  0  0  0  0  0
   -7.2980  -15.8690    5.5250 C   0  0  0  0  0  0  0  0  0  0  0  0
   -8.1050  -16.8370    4.9120 C   0  0  0  0  0  0  0  0  0  0  0  0
   -9.0970  -17.5040    5.6310 C   0  0  0  0  0  0  0  0  0  0  0  0
   -9.3050  -17.2180    6.9830 C   0  0  0  0  0  0  0  0  0  0  0  0
  -10.3310  -17.9390    7.6330 N   0  0  0  0  0  0  0  0  0  0  0  0
  -10.2900  -19.2340    8.1330 C   0  0  0  0  0  0  0  0  0  0  0  0
   -9.3200  -19.9780    8.0790 O   0  0  0  0  0  0  0  0  0  0  0  0
  -11.5080  -19.5610    8.7000 N   0  0  0  0  0  0  0  0  0  0  0  0
  -11.8660  -20.7440    9.2940 C   0  0  0  0  0  0  0  0  0  0  0  0
  -12.5970  -21.6180    8.6430 N   0  0  0  0  0  0  0  0  0  0  0  0
  -12.8260  -22.7240    9.4470 C   0  0  0  0  0  0  0  0  0  0  0  0
  -13.5650  -23.8680    9.0900 C   0  0  0  0  0  0  0  0  0  0  0  0
  -13.7140  -24.9160   10.0080 C   0  0  0  0  0  0  0  0  0  0  0  0
  -13.1480  -24.8390   11.2820 C   0  0  0  0  0  0  0  0  0  0  0  0
  -13.2900  -25.9850   12.2430 C   0  0  0  0  0  0  0  0  0  0  0  0
  -12.3940  -23.7110   11.6460 C   0  0  0  0  0  0  0  0  0  0  0  0
  -12.2520  -22.6670   10.7170 C   0  0  0  0  0  0  0  0  0  0  0  0
  -11.4100  -21.1760   10.8740 S   0  0  0  0  0  0  0  0  0  0  0  0
   -8.5030  -16.2540    7.5980 C   0  0  0  0  0  0  0  0  0  0  0  0
   -7.4930  -15.5690    6.8840 C   0  0  0  0  0  0  0  0  0  0  0  0
   -6.6700  -14.5440    7.6150 C   0  0  0  0  0  0  0  0  0  0  0  0
   -4.9420  -15.7170    4.2900 N   0  0  0  0  0  0  0  0  0  0  0  0
   -4.3550  -14.7130    3.4320 C   0  0  0  0  0  0  0  0  0  0  0  0
   -1.8490  -15.7750    0.1860 C   0  0  0  0  0  0  0  0  0  0  0  0
   -1.1830  -15.6490   -1.0360 C   0  0  0  0  0  0  0  0  0  0  0  0
    2.3774  -15.0609   -1.4408 H   0  0  0  0  0  0  0  0  0  0  0  0
    2.2049  -15.9458   -2.9944 H   0  0  0  0  0  0  0  0  0  0  0  0
    2.3933  -14.1595   -2.9944 H   0  0  0  0  0  0  0  0  0  0  0  0
    1.4378  -13.7046   -0.0562 H   0  0  0  0  0  0  0  0  0  0  0  0
    0.2537  -13.9166    2.1243 H   0  0  0  0  0  0  0  0  0  0  0  0
   -2.3441  -16.3230    2.8129 H   0  0  0  0  0  0  0  0  0  0  0  0
   -1.3610  -14.9337    3.4469 H   0  0  0  0  0  0  0  0  0  0  0  0
   -4.9627  -11.8111    2.1268 H   0  0  0  0  0  0  0  0  0  0  0  0
   -7.9540  -17.0742    3.8486 H   0  0  0  0  0  0  0  0  0  0  0  0
   -9.7197  -18.2601    5.1304 H   0  0  0  0  0  0  0  0  0  0  0  0
  -11.1970  -17.4360    7.7380 H   0  0  0  0  0  0  0  0  0  0  0  0
  -12.2500  -18.8830    8.7020 H   0  0  0  0  0  0  0  0  0  0  0  0
  -14.0242  -23.9389    8.0930 H   0  0  0  0  0  0  0  0  0  0  0  0
  -14.2846  -25.8116    9.7211 H   0  0  0  0  0  0  0  0  0  0  0  0
  -13.2431  -25.6063   13.2747 H   0  0  0  0  0  0  0  0  0  0  0  0
  -14.2568  -26.4834   12.0790 H   0  0  0  0  0  0  0  0  0  0  0  0
  -12.4741  -26.7043   12.0790 H   0  0  0  0  0  0  0  0  0  0  0  0
  -11.9242  -23.6466   12.6386 H   0  0  0  0  0  0  0  0  0  0  0  0
   -8.6607  -16.0225    8.6617 H   0  0  0  0  0  0  0  0  0  0  0  0
   -6.7849  -14.6872    8.6996 H   0  0  0  0  0  0  0  0  0  0  0  0
   -5.6113  -14.6599    7.3400 H   0  0  0  0  0  0  0  0  0  0  0  0
   -7.0119  -13.5353    7.3400 H   0  0  0  0  0  0  0  0  0  0  0  0
   -2.7735  -16.3680    0.2471 H   0  0  0  0  0  0  0  0  0  0  0  0
   -1.5929  -16.1392   -1.9314 H   0  0  0  0  0  0  0  0  0  0  0  0
  1  2  1  0
  2  3  1  0
  3  4  2  0
  4  5  1  0
  5  6  2  0
  6  7  1  0
  7  8  1  0
  8  9  1  0
  9 10  2  0
 10 11  1  0
 11 12  1  0
 12 13  1  0
 13 14  1  0
 14 15  2  0
 15 16  1  0
 16 17  2  0
 17 18  1  0
 18 19  1  0
 19 20  2  0
 19 21  1  0
 21 22  1  0
 22 23  2  0
 23 24  1  0
 24 25  2  0
 25 26  1  0
 26 27  2  0
 27 28  1  0
 27 29  1  0
 29 30  2  0
 30 31  1  0
 17 32  1  0
 32 33  2  0
 33 34  1  0
 13 35  2  0
 35 36  1  0
  6 37  1  0
 37 38  2  0
 38  3  1  0
 36  8  1  0
 36 11  2  0
 33 14  1  0
 31 22  1  0
 30 24  1  0
  1 39  1  0
  1 40  1  0
  1 41  1  0
  4 42  1  0
  5 43  1  0
  7 44  1  0
  7 45  1  0
 10 46  1  0
 15 47  1  0
 16 48  1  0
 18 49  1  0
 21 50  1  0
 25 51  1  0
 26 52  1  0
 28 53  1  0
 28 54  1  0
 28 55  1  0
 29 56  1  0
 32 57  1  0
 34 58  1  0
 34 59  1  0
 34 60  1  0
 37 61  1  0
 38 62  1  0
M  CHG  1  12  -1
M  END
>  <meeko>  (8) 
{"is_sidechain": [false], "free_energy": -8.886, "intermolecular_energy": -11.216, "internal_energy": -0.837}

$$$$
LIB_YHHSKXWUHAVBMR__M_PUB_ALL__e8__s20260927
     RDKit          3D

 62 67  0  0  0  0  0  0  0  0999 V2000
   12.3760  -18.3080   -4.5880 C   0  0  0  0  0  0  0  0  0  0  0  0
   13.0810  -17.3600   -5.3800 O   0  0  0  0  0  0  0  0  0  0  0  0
   13.0160  -16.0560   -4.9660 C   0  0  0  0  0  0  0  0  0  0  0  0
   12.5440  -14.9800   -5.7160 C   0  0  0  0  0  0  0  0  0  0  0  0
   12.5310  -13.6930   -5.1700 C   0  0  0  0  0  0  0  0  0  0  0  0
   12.9900  -13.4620   -3.8650 C   0  0  0  0  0  0  0  0  0  0  0  0
   12.9720  -12.0660   -3.2870 C   0  0  0  0  0  0  0  0  0  0  0  0
   12.4170  -12.0360   -1.9520 N   0  0  0  0  0  0  0  0  0  0  0  0
   13.2020  -11.7680   -0.8440 N   0  0  0  0  0  0  0  0  0  0  0  0
   12.3160  -11.8890    0.1770 C   0  0  0  0  0  0  0  0  0  0  0  0
   11.0570  -12.2400   -0.2860 C   0  0  0  0  0  0  0  0  0  0  0  0
    9.7150  -12.5460    0.1300 N   0  0  0  0  0  0  0  0  0  0  0  0
    9.0480  -12.8200   -1.0740 C   0  0  0  0  0  0  0  0  0  0  0  0
    7.4910  -13.2080   -1.1180 C   0  0  0  0  0  0  0  0  0  0  0  0
    6.5830  -12.1440   -1.1970 C   0  0  0  0  0  0  0  0  0  0  0  0
    5.2080  -12.3760   -1.2400 C   0  0  0  0  0  0  0  0  0  0  0  0
    4.7080  -13.6810   -1.2070 C   0  0  0  0  0  0  0  0  0  0  0  0
    3.3040  -13.8240   -1.2550 N   0  0  0  0  0  0  0  0  0  0  0  0
    2.3720  -13.5050   -0.2770 C   0  0  0  0  0  0  0  0  0  0  0  0
    2.6370  -13.0360    0.8210 O   0  0  0  0  0  0  0  0  0  0  0  0
    1.0970  -13.7960   -0.7270 N   0  0  0  0  0  0  0  0  0  0  0  0
   -0.0870  -13.6260   -0.0560 C   0  0  0  0  0  0  0  0  0  0  0  0
   -0.3000  -12.5390    0.6480 N   0  0  0  0  0  0  0  0  0  0  0  0
   -1.5580  -12.5990    1.2280 C   0  0  0  0  0  0  0  0  0  0  0  0
   -2.1390  -11.6140    2.0500 C   0  0  0  0  0  0  0  0  0  0  0  0
   -3.4250  -11.8090    2.5690 C   0  0  0  0  0  0  0  0  0  0  0  0
   -4.1400  -12.9770    2.2930 C   0  0  0  0  0  0  0  0  0  0  0  0
   -5.5310  -13.1560    2.8310 C   0  0  0  0  0  0  0  0  0  0  0  0
   -3.5800  -13.9610    1.4620 C   0  0  0  0  0  0  0  0  0  0  0  0
   -2.2890  -13.7540    0.9480 C   0  0  0  0  0  0  0  0  0  0  0  0
   -1.3480  -14.7670   -0.0740 S   0  0  0  0  0  0  0  0  0  0  0  0
    5.6100  -14.7450   -1.1280 C   0  0  0  0  0  0  0  0  0  0  0  0
    7.0070  -14.5270   -1.0830 C   0  0  0  0  0  0  0  0  0  0  0  0
    7.9140  -15.7230   -0.9990 C   0  0  0  0  0  0  0  0  0  0  0  0
    9.8780  -12.7120   -2.1920 N   0  0  0  0  0  0  0  0  0  0  0  0
   11.1470  -12.3330   -1.6130 C   0  0  0  0  0  0  0  0  0  0  0  0
   13.4690  -14.5450   -3.1190 C   0  0  0  0  0  0  0  0  0  0  0  0
   13.4760  -15.8300   -3.6660 C   0  0  0  0  0  0  0  0  0  0  0  0
   12.5389  -18.0890   -3.5224 H   0  0  0  0  0  0  0  0  0  0  0  0
   11.3012  -18.2481   -4.8145 H   0  0  0  0  0  0  0  0  0  0  0  0
   12.7426  -19.3201   -4.8145 H   0  0  0  0  0  0  0  0  0  0  0  0
   12.1804  -15.1441   -6.7411 H   0  0  0  0  0  0  0  0  0  0  0  0
   12.1563  -12.8515   -5.7712 H   0  0  0  0  0  0  0  0  0  0  0  0
   14.0029  -11.6839   -3.2510 H   0  0  0  0  0  0  0  0  0  0  0  0
   12.3364  -11.4411   -3.9317 H   0  0  0  0  0  0  0  0  0  0  0  0
   12.5649  -11.7290    1.2365 H   0  0  0  0  0  0  0  0  0  0  0  0
    6.9596  -11.1109   -1.2255 H   0  0  0  0  0  0  0  0  0  0  0  0
    4.5124  -11.5260   -1.3003 H   0  0  0  0  0  0  0  0  0  0  0  0
    2.9500  -14.2100   -2.1160 H   0  0  0  0  0  0  0  0  0  0  0  0
    0.9720  -14.1760   -1.6480 H   0  0  0  0  0  0  0  0  0  0  0  0
   -1.5839  -10.6936    2.2838 H   0  0  0  0  0  0  0  0  0  0  0  0
   -3.8782  -11.0322    3.2024 H   0  0  0  0  0  0  0  0  0  0  0  0
   -5.5021  -13.1523    3.9306 H   0  0  0  0  0  0  0  0  0  0  0  0
   -6.1694  -12.3326    2.4782 H   0  0  0  0  0  0  0  0  0  0  0  0
   -5.9401  -14.1142    2.4782 H   0  0  0  0  0  0  0  0  0  0  0  0
   -4.1409  -14.8754    1.2185 H   0  0  0  0  0  0  0  0  0  0  0  0
    5.2253  -15.7752   -1.1002 H   0  0  0  0  0  0  0  0  0  0  0  0
    8.1002  -15.9685    0.0570 H   0  0  0  0  0  0  0  0  0  0  0  0
    7.4371  -16.5805   -1.4962 H   0  0  0  0  0  0  0  0  0  0  0  0
    8.8684  -15.4951   -1.4962 H   0  0  0  0  0  0  0  0  0  0  0  0
   13.8418  -14.3833   -2.0968 H   0  0  0  0  0  0  0  0  0  0  0  0
   13.8479  -16.6740   -3.0665 H   0  0  0  0  0  0  0  0  0  0  0  0
  1  2  1  0
  2  3  1  0
  3  4  2  0
  4  5  1  0
  5  6  2  0
  6  7  1  0
  7  8  1  0
  8  9  1  0
  9 10  2  0
 10 11  1  0
 11 12  1  0
 12 13  1  0
 13 14  1  0
 14 15  2  0
 15 16  1  0
 16 17  2  0
 17 18  1  0
 18 19  1  0
 19 20  2  0
 19 21  1  0
 21 22  1  0
 22 23  2  0
 23 24  1  0
 24 25  2  0
 25 26  1  0
 26 27  2  0
 27 28  1  0
 27 29  1  0
 29 30  2  0
 30 31  1  0
 17 32  1  0
 32 33  2  0
 33 34  1  0
 13 35  2  0
 35 36  1  0
  6 37  1  0
 37 38  2  0
 38  3  1  0
 36  8  1  0
 36 11  2  0
 33 14  1  0
 31 22  1  0
 30 24  1  0
  1 39  1  0
  1 40  1  0
  1 41  1  0
  4 42  1  0
  5 43  1  0
  7 44  1  0
  7 45  1  0
 10 46  1  0
 15 47  1  0
 16 48  1  0
 18 49  1  0
 21 50  1  0
 25 51  1  0
 26 52  1  0
 28 53  1  0
 28 54  1  0
 28 55  1  0
 29 56  1  0
 32 57  1  0
 34 58  1  0
 34 59  1  0
 34 60  1  0
 37 61  1  0
 38 62  1  0
M  CHG  1  12  -1
M  END
>  <meeko>  (9) 
{"is_sidechain": [false], "free_energy": -8.754, "intermolecular_energy": -11.083, "internal_energy": -0.793}

$$$$
