LIB_GGEALBVZDVXUND__M_PUB_ALL__e8__s20260927
     RDKit          3D

 68 73  0  0  0  0  0  0  0  0999 V2000
    0.1280  -16.1960    6.4170 C   0  0  0  0  0  0  0  0  0  0  0  0
    0.3660  -15.7970    4.9850 C   0  0  0  0  0  0  0  0  0  0  0  0
    1.4690  -14.9750    4.7010 C   0  0  0  0  0  0  0  0  0  0  0  0
    1.7520  -14.5720    3.3950 C   0  0  0  0  0  0  0  0  0  0  0  0
    0.9350  -14.9810    2.3500 C   0  0  0  0  0  0  0  0  0  0  0  0
    1.1440  -14.6330    0.9980 N   0  0  0  0  0  0  0  0  0  0  0  0
    0.9620  -13.3960    0.4100 C   0  0  0  0  0  0  0  0  0  0  0  0
    0.5040  -12.3880    0.9340 O   0  0  0  0  0  0  0  0  0  0  0  0
    1.3380  -13.3270   -1.0320 C   0  0  0  0  0  0  0  0  0  0  0  0
    1.0490  -14.4240   -1.8510 C   0  0  0  0  0  0  0  0  0  0  0  0
    1.3770  -14.3960   -3.2060 C   0  0  0  0  0  0  0  0  0  0  0  0
    1.9900  -13.2670   -3.7520 C   0  0  0  0  0  0  0  0  0  0  0  0
    2.2790  -12.1510   -2.9490 C   0  0  0  0  0  0  0  0  0  0  0  0
    2.9050  -10.9160   -3.5480 C   0  0  0  0  0  0  0  0  0  0  0  0
    4.1550  -10.6810   -3.0660 F   0  0  0  0  0  0  0  0  0  0  0  0
    2.1890   -9.7810   -3.3110 F   0  0  0  0  0  0  0  0  0  0  0  0
    3.0320  -10.9950   -4.9030 F   0  0  0  0  0  0  0  0  0  0  0  0
    1.9370  -12.1860   -1.5860 C   0  0  0  0  0  0  0  0  0  0  0  0
   -0.1670  -15.8030    2.6320 C   0  0  0  0  0  0  0  0  0  0  0  0
   -0.4790  -16.2250    3.9360 C   0  0  0  0  0  0  0  0  0  0  0  0
   -1.5840  -17.0610    4.2190 N   0  0  0  0  0  0  0  0  0  0  0  0
   -2.8240  -16.7420    4.6750 C   0  0  0  0  0  0  0  0  0  0  0  0
   -3.4080  -17.1210    5.7920 N   0  0  0  0  0  0  0  0  0  0  0  0
   -4.6110  -16.4840    5.8340 C   0  0  0  0  0  0  0  0  0  0  0  0
   -5.5790  -16.5220    6.8500 C   0  0  0  0  0  0  0  0  0  0  0  0
   -6.7220  -15.7260    6.7310 C   0  0  0  0  0  0  0  0  0  0  0  0
   -6.8870  -14.8930    5.6280 C   0  0  0  0  0  0  0  0  0  0  0  0
   -5.9330  -14.8500    4.6030 C   0  0  0  0  0  0  0  0  0  0  0  0
   -4.8100  -15.6930    4.7060 C   0  0  0  0  0  0  0  0  0  0  0  0
   -3.6900  -15.9390    3.9100 N   0  0  0  0  0  0  0  0  0  0  0  0
   -3.4310  -15.4840    2.5730 C   0  0  0  0  0  0  0  0  0  0  0  0
   -3.3900  -14.1300    2.2870 C   0  0  0  0  0  0  0  0  0  0  0  0
   -3.1310  -13.7420    0.9810 C   0  0  0  0  0  0  0  0  0  0  0  0
   -3.0900  -12.3970    0.6240 N   0  0  0  0  0  0  0  0  0  0  0  0
   -4.1280  -11.8580   -0.2710 C   0  0  0  0  0  0  0  0  0  0  0  0
   -3.7320  -10.4610   -0.7750 C   0  0  0  0  0  0  0  0  0  0  0  0
   -3.4330   -9.5710    0.3080 O   0  0  0  0  0  0  0  0  0  0  0  0
   -2.3300  -10.0840    1.0700 C   0  0  0  0  0  0  0  0  0  0  0  0
   -2.6500  -11.4590    1.6750 C   0  0  0  0  0  0  0  0  0  0  0  0
   -2.9640  -14.6680    0.0230 N   0  0  0  0  0  0  0  0  0  0  0  0
   -3.0500  -15.9540    0.3740 C   0  0  0  0  0  0  0  0  0  0  0  0
   -3.2870  -16.4190    1.6060 N   0  0  0  0  0  0  0  0  0  0  0  0
    0.5754  -15.4460    7.0858 H   0  0  0  0  0  0  0  0  0  0  0  0
   -0.9540  -16.2567    6.6057 H   0  0  0  0  0  0  0  0  0  0  0  0
    0.5887  -17.1769    6.6057 H   0  0  0  0  0  0  0  0  0  0  0  0
    2.1212  -14.6431    5.5223 H   0  0  0  0  0  0  0  0  0  0  0  0
    2.6225  -13.9303    3.1939 H   0  0  0  0  0  0  0  0  0  0  0  0
    1.4240  -15.4000    0.4000 H   0  0  0  0  0  0  0  0  0  0  0  0
    0.5609  -15.3125   -1.4241 H   0  0  0  0  0  0  0  0  0  0  0  0
    1.1528  -15.2633   -3.8444 H   0  0  0  0  0  0  0  0  0  0  0  0
    2.2492  -13.2510   -4.8209 H   0  0  0  0  0  0  0  0  0  0  0  0
    2.1406  -11.3124   -0.9493 H   0  0  0  0  0  0  0  0  0  0  0  0
   -0.8105  -16.1292    1.8017 H   0  0  0  0  0  0  0  0  0  0  0  0
   -1.4170  -18.0490    4.0350 H   0  0  0  0  0  0  0  0  0  0  0  0
   -5.4399  -17.1696    7.7282 H   0  0  0  0  0  0  0  0  0  0  0  0
   -7.4950  -15.7581    7.5130 H   0  0  0  0  0  0  0  0  0  0  0  0
   -7.7822  -14.2574    5.5600 H   0  0  0  0  0  0  0  0  0  0  0  0
   -6.0577  -14.1767    3.7421 H   0  0  0  0  0  0  0  0  0  0  0  0
   -3.5585  -13.3814    3.0752 H   0  0  0  0  0  0  0  0  0  0  0  0
   -4.2497  -12.5322   -1.1316 H   0  0  0  0  0  0  0  0  0  0  0  0
   -5.0731  -11.7803    0.2865 H   0  0  0  0  0  0  0  0  0  0  0  0
   -2.8434  -10.5524   -1.4168 H   0  0  0  0  0  0  0  0  0  0  0  0
   -4.5824  -10.0452   -1.3353 H   0  0  0  0  0  0  0  0  0  0  0  0
   -1.4546  -10.1793    0.4107 H   0  0  0  0  0  0  0  0  0  0  0  0
   -2.1273   -9.3847    1.8945 H   0  0  0  0  0  0  0  0  0  0  0  0
   -1.7485  -11.8586    2.1624 H   0  0  0  0  0  0  0  0  0  0  0  0
   -3.4597  -11.3440    2.4106 H   0  0  0  0  0  0  0  0  0  0  0  0
   -2.9134  -16.6994   -0.4233 H   0  0  0  0  0  0  0  0  0  0  0  0
  1  2  1  0
  2  3  2  0
  3  4  1  0
  4  5  2  0
  5  6  1  0
  6  7  1  0
  7  8  2  0
  7  9  1  0
  9 10  2  0
 10 11  1  0
 11 12  2  0
 12 13  1  0
 13 14  1  0
 14 15  1  0
 14 16  1  0
 14 17  1  0
 13 18  2  0
  5 19  1  0
 19 20  2  0
 20 21  1  0
 21 22  1  0
 22 23  2  0
 23 24  1  0
 24 25  2  0
 25 26  1  0
 26 27  2  0
 27 28  1  0
 28 29  2  0
 29 30  1  0
 30 31  1  0
 31 32  2  0
 32 33  1  0
 33 34  1  0
 34 35  1  0
 35 36  1  0
 36 37  1  0
 37 38  1  0
 38 39  1  0
 33 40  2  0
 40 41  1  0
 41 42  2  0
 20  2  1  0
 30 22  1  0
 42 31  1  0
 18  9  1  0
 29 24  1  0
 39 34  1  0
  1 43  1  0
  1 44  1  0
  1 45  1  0
  3 46  1  0
  4 47  1  0
  6 48  1  0
 10 49  1  0
 11 50  1  0
 12 51  1  0
 18 52  1  0
 19 53  1  0
 21 54  1  0
 25 55  1  0
 26 56  1  0
 27 57  1  0
 28 58  1  0
 32 59  1  0
 35 60  1  0
 35 61  1  0
 36 62  1  0
 36 63  1  0
 38 64  1  0
 38 65  1  0
 39 66  1  0
 39 67  1  0
 41 68  1  0
M  END
>  <meeko>  (1) 
{"is_sidechain": [false], "free_energy": -9.727, "intermolecular_energy": -13.708, "internal_energy": -2.189}

$$$$
LIB_GGEALBVZDVXUND__M_PUB_ALL__e8__s20260927
     RDKit          3D

 68 73  0  0  0  0  0  0  0  0999 V2000
    1.7880  -10.8310   -1.7980 C   0  0  0  0  0  0  0  0  0  0  0  0
    2.5660  -11.4480   -2.9300 C   0  0  0  0  0  0  0  0  0  0  0  0
    2.8970  -10.6350   -4.0270 C   0  0  0  0  0  0  0  0  0  0  0  0
    3.6200  -11.1400   -5.1090 C   0  0  0  0  0  0  0  0  0  0  0  0
    4.0230  -12.4680   -5.1140 C   0  0  0  0  0  0  0  0  0  0  0  0
    4.7640  -13.0670   -6.1560 N   0  0  0  0  0  0  0  0  0  0  0  0
    6.0660  -13.5250   -6.1060 C   0  0  0  0  0  0  0  0  0  0  0  0
    6.8510  -13.4220   -5.1710 O   0  0  0  0  0  0  0  0  0  0  0  0
    6.5490  -14.1770   -7.3580 C   0  0  0  0  0  0  0  0  0  0  0  0
    7.0390  -15.4850   -7.2830 C   0  0  0  0  0  0  0  0  0  0  0  0
    7.4930  -16.1330   -8.4310 C   0  0  0  0  0  0  0  0  0  0  0  0
    7.4520  -15.4790   -9.6640 C   0  0  0  0  0  0  0  0  0  0  0  0
    6.9530  -14.1700   -9.7620 C   0  0  0  0  0  0  0  0  0  0  0  0
    6.8710  -13.4780  -11.1010 C   0  0  0  0  0  0  0  0  0  0  0  0
    6.7880  -12.1250  -10.9820 F   0  0  0  0  0  0  0  0  0  0  0  0
    5.7910  -13.8590  -11.8380 F   0  0  0  0  0  0  0  0  0  0  0  0
    7.9590  -13.7200  -11.8850 F   0  0  0  0  0  0  0  0  0  0  0  0
    6.4910  -13.5270   -8.6000 C   0  0  0  0  0  0  0  0  0  0  0  0
    3.6930  -13.2820   -4.0190 C   0  0  0  0  0  0  0  0  0  0  0  0
    2.9660  -12.8040   -2.9150 C   0  0  0  0  0  0  0  0  0  0  0  0
    2.6420  -13.6200   -1.8080 N   0  0  0  0  0  0  0  0  0  0  0  0
    3.1310  -14.8370   -1.4490 C   0  0  0  0  0  0  0  0  0  0  0  0
    2.5150  -15.9990   -1.4480 N   0  0  0  0  0  0  0  0  0  0  0  0
    3.4410  -16.9270   -1.0790 C   0  0  0  0  0  0  0  0  0  0  0  0
    3.2850  -18.3190   -0.9790 C   0  0  0  0  0  0  0  0  0  0  0  0
    4.3930  -19.1060   -0.6530 C   0  0  0  0  0  0  0  0  0  0  0  0
    5.6370  -18.5180   -0.4500 C   0  0  0  0  0  0  0  0  0  0  0  0
    5.8080  -17.1310   -0.5380 C   0  0  0  0  0  0  0  0  0  0  0  0
    4.6760  -16.3410   -0.8160 C   0  0  0  0  0  0  0  0  0  0  0  0
    4.4450  -14.9710   -0.9640 N   0  0  0  0  0  0  0  0  0  0  0  0
    5.3410  -13.8840   -0.6870 C   0  0  0  0  0  0  0  0  0  0  0  0
    6.6010  -13.8490   -1.2580 C   0  0  0  0  0  0  0  0  0  0  0  0
    7.4270  -12.7740   -0.9640 C   0  0  0  0  0  0  0  0  0  0  0  0
    8.7110  -12.6860   -1.4930 N   0  0  0  0  0  0  0  0  0  0  0  0
    8.9030  -12.0590   -2.8120 C   0  0  0  0  0  0  0  0  0  0  0  0
   10.3210  -12.3350   -3.3380 C   0  0  0  0  0  0  0  0  0  0  0  0
   11.3240  -11.9340   -2.3940 O   0  0  0  0  0  0  0  0  0  0  0  0
   11.1650  -12.6710   -1.1720 C   0  0  0  0  0  0  0  0  0  0  0  0
    9.7940  -12.4140   -0.5290 C   0  0  0  0  0  0  0  0  0  0  0  0
    7.0130  -11.8180   -0.1150 N   0  0  0  0  0  0  0  0  0  0  0  0
    5.7950  -11.9410    0.4180 C   0  0  0  0  0  0  0  0  0  0  0  0
    4.9300  -12.9350    0.1870 N   0  0  0  0  0  0  0  0  0  0  0  0
    2.2094  -11.1652   -0.8385 H   0  0  0  0  0  0  0  0  0  0  0  0
    1.8512   -9.7348   -1.8643 H   0  0  0  0  0  0  0  0  0  0  0  0
    0.7350  -11.1422   -1.8643 H   0  0  0  0  0  0  0  0  0  0  0  0
    2.5807   -9.5815   -4.0333 H   0  0  0  0  0  0  0  0  0  0  0  0
    3.8702  -10.4858   -5.9572 H   0  0  0  0  0  0  0  0  0  0  0  0
    4.2810  -13.1240   -7.0430 H   0  0  0  0  0  0  0  0  0  0  0  0
    7.0663  -16.0047   -6.3139 H   0  0  0  0  0  0  0  0  0  0  0  0
    7.8834  -17.1593   -8.3654 H   0  0  0  0  0  0  0  0  0  0  0  0
    7.8137  -15.9936  -10.5664 H   0  0  0  0  0  0  0  0  0  0  0  0
    6.0816  -12.5081   -8.6651 H   0  0  0  0  0  0  0  0  0  0  0  0
    4.0155  -14.3336   -4.0251 H   0  0  0  0  0  0  0  0  0  0  0  0
    1.9450  -13.2180   -1.1830 H   0  0  0  0  0  0  0  0  0  0  0  0
    2.3037  -18.7838   -1.1549 H   0  0  0  0  0  0  0  0  0  0  0  0
    4.2806  -20.1960   -0.5565 H   0  0  0  0  0  0  0  0  0  0  0  0
    6.5030  -19.1546   -0.2159 H   0  0  0  0  0  0  0  0  0  0  0  0
    6.7973  -16.6721   -0.3942 H   0  0  0  0  0  0  0  0  0  0  0  0
    6.9390  -14.6532   -1.9280 H   0  0  0  0  0  0  0  0  0  0  0  0
    8.1680  -12.4710   -3.5191 H   0  0  0  0  0  0  0  0  0  0  0  0
    8.7656  -10.9721   -2.7127 H   0  0  0  0  0  0  0  0  0  0  0  0
   10.4255  -13.4125   -3.5332 H   0  0  0  0  0  0  0  0  0  0  0  0
   10.4646  -11.7520   -4.2597 H   0  0  0  0  0  0  0  0  0  0  0  0
   11.2618  -13.7452   -1.3882 H   0  0  0  0  0  0  0  0  0  0  0  0
   11.9421  -12.3395   -0.4676 H   0  0  0  0  0  0  0  0  0  0  0  0
    9.6748  -13.0722    0.3443 H   0  0  0  0  0  0  0  0  0  0  0  0
    9.7384  -11.3597   -0.2202 H   0  0  0  0  0  0  0  0  0  0  0  0
    5.4726  -11.1509    1.1121 H   0  0  0  0  0  0  0  0  0  0  0  0
  1  2  1  0
  2  3  2  0
  3  4  1  0
  4  5  2  0
  5  6  1  0
  6  7  1  0
  7  8  2  0
  7  9  1  0
  9 10  2  0
 10 11  1  0
 11 12  2  0
 12 13  1  0
 13 14  1  0
 14 15  1  0
 14 16  1  0
 14 17  1  0
 13 18  2  0
  5 19  1  0
 19 20  2  0
 20 21  1  0
 21 22  1  0
 22 23  2  0
 23 24  1  0
 24 25  2  0
 25 26  1  0
 26 27  2  0
 27 28  1  0
 28 29  2  0
 29 30  1  0
 30 31  1  0
 31 32  2  0
 32 33  1  0
 33 34  1  0
 34 35  1  0
 35 36  1  0
 36 37  1  0
 37 38  1  0
 38 39  1  0
 33 40  2  0
 40 41  1  0
 41 42  2  0
 20  2  1  0
 30 22  1  0
 42 31  1  0
 18  9  1  0
 29 24  1  0
 39 34  1  0
  1 43  1  0
  1 44  1  0
  1 45  1  0
  3 46  1  0
  4 47  1  0
  6 48  1  0
 10 49  1  0
 11 50  1  0
 12 51  1  0
 18 52  1  0
 19 53  1  0
 21 54  1  0
 25 55  1  0
 26 56  1  0
 27 57  1  0
 28 58  1  0
 32 59  1  0
 35 60  1  0
 35 61  1  0
 36 62  1  0
 36 63  1  0
 38 64  1  0
 38 65  1  0
 39 66  1  0
 39 67  1  0
 41 68  1  0
M  END
>  <meeko>  (2) 
{"is_sidechain": [false], "free_energy": -9.464, "intermolecular_energy": -13.258, "internal_energy": -2.267}

$$$$
LIB_GGEALBVZDVXUND__M_PUB_ALL__e8__s20260927
     RDKit          3D

 68 73  0  0  0  0  0  0  0  0999 V2000
   12.9580  -15.9990  -12.0560 C   0  0  0  0  0  0  0  0  0  0  0  0
   12.9600  -15.3930  -10.6780 C   0  0  0  0  0  0  0  0  0  0  0  0
   14.0270  -15.7050   -9.8180 C   0  0  0  0  0  0  0  0  0  0  0  0
   14.0940  -15.1750   -8.5290 C   0  0  0  0  0  0  0  0  0  0  0  0
   13.0940  -14.3270   -8.0740 C   0  0  0  0  0  0  0  0  0  0  0  0
   13.0790  -13.7360   -6.7920 N   0  0  0  0  0  0  0  0  0  0  0  0
   12.4880  -14.2290   -5.6450 C   0  0  0  0  0  0  0  0  0  0  0  0
   11.7930  -15.2330   -5.5450 O   0  0  0  0  0  0  0  0  0  0  0  0
   12.7070  -13.4040   -4.4220 C   0  0  0  0  0  0  0  0  0  0  0  0
   13.8490  -12.5970   -4.3580 C   0  0  0  0  0  0  0  0  0  0  0  0
   14.0870  -11.8040   -3.2360 C   0  0  0  0  0  0  0  0  0  0  0  0
   13.1810  -11.8080   -2.1740 C   0  0  0  0  0  0  0  0  0  0  0  0
   12.0240  -12.6020   -2.2240 C   0  0  0  0  0  0  0  0  0  0  0  0
   11.0250  -12.5750   -1.0940 C   0  0  0  0  0  0  0  0  0  0  0  0
    9.7560  -12.3450   -1.5280 F   0  0  0  0  0  0  0  0  0  0  0  0
   11.2860  -11.6110   -0.1670 F   0  0  0  0  0  0  0  0  0  0  0  0
   10.9790  -13.7490   -0.4030 F   0  0  0  0  0  0  0  0  0  0  0  0
   11.7890  -13.3920   -3.3630 C   0  0  0  0  0  0  0  0  0  0  0  0
   12.0270  -14.0140   -8.9310 C   0  0  0  0  0  0  0  0  0  0  0  0
   11.9300  -14.5320  -10.2350 C   0  0  0  0  0  0  0  0  0  0  0  0
   10.8610  -14.2100  -11.1010 N   0  0  0  0  0  0  0  0  0  0  0  0
   10.0570  -13.1150  -11.1240 C   0  0  0  0  0  0  0  0  0  0  0  0
   10.3080  -11.9250  -11.6270 N   0  0  0  0  0  0  0  0  0  0  0  0
    9.1710  -11.1920  -11.4720 C   0  0  0  0  0  0  0  0  0  0  0  0
    8.9200   -9.8760  -11.8950 C   0  0  0  0  0  0  0  0  0  0  0  0
    7.6480   -9.3310  -11.7030 C   0  0  0  0  0  0  0  0  0  0  0  0
    6.6390  -10.0900  -11.1190 C   0  0  0  0  0  0  0  0  0  0  0  0
    6.8750  -11.4010  -10.6850 C   0  0  0  0  0  0  0  0  0  0  0  0
    8.1730  -11.9240  -10.8350 C   0  0  0  0  0  0  0  0  0  0  0  0
    8.7850  -13.1400  -10.5240 N   0  0  0  0  0  0  0  0  0  0  0  0
    8.2570  -14.2280   -9.7480 C   0  0  0  0  0  0  0  0  0  0  0  0
    7.7180  -14.0010   -8.4940 C   0  0  0  0  0  0  0  0  0  0  0  0
    7.2160  -15.0840   -7.7880 C   0  0  0  0  0  0  0  0  0  0  0  0
    6.6740  -14.9260   -6.5160 N   0  0  0  0  0  0  0  0  0  0  0  0
    7.4750  -15.3030   -5.3400 C   0  0  0  0  0  0  0  0  0  0  0  0
    6.5970  -15.3400   -4.0790 C   0  0  0  0  0  0  0  0  0  0  0  0
    5.8960  -14.1040   -3.8850 O   0  0  0  0  0  0  0  0  0  0  0  0
    5.0340  -13.8520   -5.0040 C   0  0  0  0  0  0  0  0  0  0  0  0
    5.8260  -13.7340   -6.3150 C   0  0  0  0  0  0  0  0  0  0  0  0
    7.2930  -16.3210   -8.3060 N   0  0  0  0  0  0  0  0  0  0  0  0
    7.8560  -16.4600   -9.5090 C   0  0  0  0  0  0  0  0  0  0  0  0
    8.3570  -15.4760  -10.2640 N   0  0  0  0  0  0  0  0  0  0  0  0
   12.9544  -17.0959  -11.9741 H   0  0  0  0  0  0  0  0  0  0  0  0
   12.0609  -15.6690  -12.6004 H   0  0  0  0  0  0  0  0  0  0  0  0
   13.8572  -15.6749  -12.6004 H   0  0  0  0  0  0  0  0  0  0  0  0
   14.8232  -16.3788  -10.1672 H   0  0  0  0  0  0  0  0  0  0  0  0
   14.9397  -15.4294   -7.8732 H   0  0  0  0  0  0  0  0  0  0  0  0
   13.5250  -12.8290   -6.7360 H   0  0  0  0  0  0  0  0  0  0  0  0
   14.5614  -12.5884   -5.1961 H   0  0  0  0  0  0  0  0  0  0  0  0
   14.9884  -11.1754   -3.1878 H   0  0  0  0  0  0  0  0  0  0  0  0
   13.3753  -11.1833   -1.2897 H   0  0  0  0  0  0  0  0  0  0  0  0
   10.8778  -14.0053   -3.4235 H   0  0  0  0  0  0  0  0  0  0  0  0
   11.2377  -13.3387   -8.5693 H   0  0  0  0  0  0  0  0  0  0  0  0
   10.6860  -14.9070  -11.8240 H   0  0  0  0  0  0  0  0  0  0  0  0
    9.7145   -9.2826  -12.3711 H   0  0  0  0  0  0  0  0  0  0  0  0
    7.4433   -8.2963  -12.0153 H   0  0  0  0  0  0  0  0  0  0  0  0
    5.6372   -9.6527  -10.9957 H   0  0  0  0  0  0  0  0  0  0  0  0
    6.0696  -12.0038  -10.2401 H   0  0  0  0  0  0  0  0  0  0  0  0
    7.6884  -12.9873   -8.0679 H   0  0  0  0  0  0  0  0  0  0  0  0
    7.9136  -16.2982   -5.5049 H   0  0  0  0  0  0  0  0  0  0  0  0
    8.2703  -14.5565   -5.1975 H   0  0  0  0  0  0  0  0  0  0  0  0
    5.8638  -16.1539   -4.1787 H   0  0  0  0  0  0  0  0  0  0  0  0
    7.2513  -15.5035   -3.2100 H   0  0  0  0  0  0  0  0  0  0  0  0
    4.3158  -14.6802   -5.0945 H   0  0  0  0  0  0  0  0  0  0  0  0
    4.5150  -12.8980   -4.8295 H   0  0  0  0  0  0  0  0  0  0  0  0
    5.1227  -13.6441   -7.1560 H   0  0  0  0  0  0  0  0  0  0  0  0
    6.4702  -12.8439   -6.2626 H   0  0  0  0  0  0  0  0  0  0  0  0
    7.9131  -17.4797   -9.9175 H   0  0  0  0  0  0  0  0  0  0  0  0
  1  2  1  0
  2  3  2  0
  3  4  1  0
  4  5  2  0
  5  6  1  0
  6  7  1  0
  7  8  2  0
  7  9  1  0
  9 10  2  0
 10 11  1  0
 11 12  2  0
 12 13  1  0
 13 14  1  0
 14 15  1  0
 14 16  1  0
 14 17  1  0
 13 18  2  0
  5 19  1  0
 19 20  2  0
 20 21  1  0
 21 22  1  0
 22 23  2  0
 23 24  1  0
 24 25  2  0
 25 26  1  0
 26 27  2  0
 27 28  1  0
 28 29  2  0
 29 30  1  0
 30 31  1  0
 31 32  2  0
 32 33  1  0
 33 34  1  0
 34 35  1  0
 35 36  1  0
 36 37  1  0
 37 38  1  0
 38 39  1  0
 33 40  2  0
 40 41  1  0
 41 42  2  0
 20  2  1  0
 30 22  1  0
 42 31  1  0
 18  9  1  0
 29 24  1  0
 39 34  1  0
  1 43  1  0
  1 44  1  0
  1 45  1  0
  3 46  1  0
  4 47  1  0
  6 48  1  0
 10 49  1  0
 11 50  1  0
 12 51  1  0
 18 52  1  0
 19 53  1  0
 21 54  1  0
 25 55  1  0
 26 56  1  0
 27 57  1  0
 28 58  1  0
 32 59  1  0
 35 60  1  0
 35 61  1  0
 36 62  1  0
 36 63  1  0
 38 64  1  0
 38 65  1  0
 39 66  1  0
 39 67  1  0
 41 68  1  0
M  END
>  <meeko>  (3) 
{"is_sidechain": [false], "free_energy": -9.45, "intermolecular_energy": -13.076, "internal_energy": -2.43}

$$$$
LIB_GGEALBVZDVXUND__M_PUB_ALL__e8__s20260927
     RDKit          3D

 68 73  0  0  0  0  0  0  0  0999 V2000
    1.7810  -11.2020   -2.0020 C   0  0  0  0  0  0  0  0  0  0  0  0
    2.5850  -11.7590   -3.1470 C   0  0  0  0  0  0  0  0  0  0  0  0
    3.3080  -10.8590   -3.9480 C   0  0  0  0  0  0  0  0  0  0  0  0
    4.0770  -11.3070   -5.0230 C   0  0  0  0  0  0  0  0  0  0  0  0
    4.1350  -12.6620   -5.3170 C   0  0  0  0  0  0  0  0  0  0  0  0
    4.8910  -13.2110   -6.3760 N   0  0  0  0  0  0  0  0  0  0  0  0
    6.1420  -13.7920   -6.3040 C   0  0  0  0  0  0  0  0  0  0  0  0
    6.8660  -13.8670   -5.3190 O   0  0  0  0  0  0  0  0  0  0  0  0
    6.6510  -14.3460   -7.5920 C   0  0  0  0  0  0  0  0  0  0  0  0
    7.1860  -15.6390   -7.5970 C   0  0  0  0  0  0  0  0  0  0  0  0
    7.6660  -16.1970   -8.7810 C   0  0  0  0  0  0  0  0  0  0  0  0
    7.6060  -15.4670   -9.9710 C   0  0  0  0  0  0  0  0  0  0  0  0
    7.0620  -14.1730   -9.9880 C   0  0  0  0  0  0  0  0  0  0  0  0
    6.9600  -13.4000  -11.2810 C   0  0  0  0  0  0  0  0  0  0  0  0
    5.9320  -13.8290  -12.0620 F   0  0  0  0  0  0  0  0  0  0  0  0
    8.0810  -13.4880  -12.0500 F   0  0  0  0  0  0  0  0  0  0  0  0
    6.7520  -12.0680  -11.0820 F   0  0  0  0  0  0  0  0  0  0  0  0
    6.5740  -13.6220   -8.7900 C   0  0  0  0  0  0  0  0  0  0  0  0
    3.4140  -13.5620   -4.5180 C   0  0  0  0  0  0  0  0  0  0  0  0
    2.6290  -13.1430   -3.4300 C   0  0  0  0  0  0  0  0  0  0  0  0
    1.9100  -14.0500   -2.6180 N   0  0  0  0  0  0  0  0  0  0  0  0
    2.3100  -15.2190   -2.0510 C   0  0  0  0  0  0  0  0  0  0  0  0
    3.3870  -15.9280   -2.3120 N   0  0  0  0  0  0  0  0  0  0  0  0
    3.3840  -16.9720   -1.4360 C   0  0  0  0  0  0  0  0  0  0  0  0
    4.3490  -17.9800   -1.2810 C   0  0  0  0  0  0  0  0  0  0  0  0
    4.1900  -18.9230   -0.2620 C   0  0  0  0  0  0  0  0  0  0  0  0
    3.1000  -18.8500    0.5990 C   0  0  0  0  0  0  0  0  0  0  0  0
    2.1240  -17.8550    0.4530 C   0  0  0  0  0  0  0  0  0  0  0  0
    2.2650  -16.9400   -0.6080 C   0  0  0  0  0  0  0  0  0  0  0  0
    1.5210  -15.8550   -1.0760 N   0  0  0  0  0  0  0  0  0  0  0  0
    0.2090  -15.4350   -0.6700 C   0  0  0  0  0  0  0  0  0  0  0  0
    0.0280  -14.2310   -0.0120 C   0  0  0  0  0  0  0  0  0  0  0  0
   -1.2600  -13.8690    0.3540 C   0  0  0  0  0  0  0  0  0  0  0  0
   -1.5080  -12.6790    1.0310 N   0  0  0  0  0  0  0  0  0  0  0  0
   -2.6260  -11.8240    0.5970 C   0  0  0  0  0  0  0  0  0  0  0  0
   -2.5370  -10.4420    1.2630 C   0  0  0  0  0  0  0  0  0  0  0  0
   -2.4550  -10.5450    2.6900 O   0  0  0  0  0  0  0  0  0  0  0  0
   -1.2780  -11.2780    3.0590 C   0  0  0  0  0  0  0  0  0  0  0  0
   -1.2970  -12.7050    2.4910 C   0  0  0  0  0  0  0  0  0  0  0  0
   -2.2890  -14.6940    0.1030 N   0  0  0  0  0  0  0  0  0  0  0  0
   -2.0270  -15.8520   -0.5090 C   0  0  0  0  0  0  0  0  0  0  0  0
   -0.8230  -16.2790   -0.9040 N   0  0  0  0  0  0  0  0  0  0  0  0
    2.2334  -11.5154   -1.0496 H   0  0  0  0  0  0  0  0  0  0  0  0
    1.7726  -10.1036   -2.0600 H   0  0  0  0  0  0  0  0  0  0  0  0
    0.7497  -11.5801   -2.0600 H   0  0  0  0  0  0  0  0  0  0  0  0
    3.2672   -9.7828   -3.7239 H   0  0  0  0  0  0  0  0  0  0  0  0
    4.6370  -10.5863   -5.6371 H   0  0  0  0  0  0  0  0  0  0  0  0
    4.4670  -13.1240   -7.2910 H   0  0  0  0  0  0  0  0  0  0  0  0
    7.2280  -16.2178   -6.6625 H   0  0  0  0  0  0  0  0  0  0  0  0
    8.0917  -17.2113   -8.7784 H   0  0  0  0  0  0  0  0  0  0  0  0
    7.9883  -15.9101  -10.9024 H   0  0  0  0  0  0  0  0  0  0  0  0
    6.1288  -12.6161   -8.7928 H   0  0  0  0  0  0  0  0  0  0  0  0
    3.4649  -14.6357   -4.7517 H   0  0  0  0  0  0  0  0  0  0  0  0
    0.9510  -13.7660   -2.4250 H   0  0  0  0  0  0  0  0  0  0  0  0
    5.2187  -18.0268   -1.9528 H   0  0  0  0  0  0  0  0  0  0  0  0
    4.9306  -19.7271   -0.1402 H   0  0  0  0  0  0  0  0  0  0  0  0
    3.0023  -19.5871    1.4097 H   0  0  0  0  0  0  0  0  0  0  0  0
    1.2728  -17.7907    1.1468 H   0  0  0  0  0  0  0  0  0  0  0  0
    0.8836  -13.5779    0.2149 H   0  0  0  0  0  0  0  0  0  0  0  0
   -2.5858  -11.7025   -0.4955 H   0  0  0  0  0  0  0  0  0  0  0  0
   -3.5729  -12.3002    0.8912 H   0  0  0  0  0  0  0  0  0  0  0  0
   -1.6406   -9.9242    0.8910 H   0  0  0  0  0  0  0  0  0  0  0  0
   -3.4494   -9.8812    1.0118 H   0  0  0  0  0  0  0  0  0  0  0  0
   -0.3936  -10.7514    2.6709 H   0  0  0  0  0  0  0  0  0  0  0  0
   -1.2458  -11.3458    4.1564 H   0  0  0  0  0  0  0  0  0  0  0  0
   -0.3360  -13.1938    2.7089 H   0  0  0  0  0  0  0  0  0  0  0  0
   -2.1217  -13.2625    2.9590 H   0  0  0  0  0  0  0  0  0  0  0  0
   -2.8813  -16.5162   -0.7064 H   0  0  0  0  0  0  0  0  0  0  0  0
  1  2  1  0
  2  3  2  0
  3  4  1  0
  4  5  2  0
  5  6  1  0
  6  7  1  0
  7  8  2  0
  7  9  1  0
  9 10  2  0
 10 11  1  0
 11 12  2  0
 12 13  1  0
 13 14  1  0
 14 15  1  0
 14 16  1  0
 14 17  1  0
 13 18  2  0
  5 19  1  0
 19 20  2  0
 20 21  1  0
 21 22  1  0
 22 23  2  0
 23 24  1  0
 24 25  2  0
 25 26  1  0
 26 27  2  0
 27 28  1  0
 28 29  2  0
 29 30  1  0
 30 31  1  0
 31 32  2  0
 32 33  1  0
 33 34  1  0
 34 35  1  0
 35 36  1  0
 36 37  1  0
 37 38  1  0
 38 39  1  0
 33 40  2  0
 40 41  1  0
 41 42  2  0
 20  2  1  0
 30 22  1  0
 42 31  1  0
 18  9  1  0
 29 24  1  0
 39 34  1  0
  1 43  1  0
  1 44  1  0
  1 45  1  0
  3 46  1  0
  4 47  1  0
  6 48  1  0
 10 49  1  0
 11 50  1  0
 12 51  1  0
 18 52  1  0
 19 53  1  0
 21 54  1  0
 25 55  1  0
 26 56  1  0
 27 57  1  0
 28 58  1  0
 32 59  1  0
 35 60  1  0
 35 61  1  0
 36 62  1  0
 36 63  1  0
 38 64  1  0
 38 65  1  0
 39 66  1  0
 39 67  1  0
 41 68  1  0
M  END
>  <meeko>  (4) 
{"is_sidechain": [false], "free_energy": -9.223, "intermolecular_energy": -13.784, "internal_energy": -1.402}

$$$$
LIB_GGEALBVZDVXUND__M_PUB_ALL__e8__s20260927
     RDKit          3D

 68 73  0  0  0  0  0  0  0  0999 V2000
    5.6080  -12.2220   -4.9270 C   0  0  0  0  0  0  0  0  0  0  0  0
    4.4270  -11.8990   -4.0500 C   0  0  0  0  0  0  0  0  0  0  0  0
    3.7080  -10.7200   -4.3150 C   0  0  0  0  0  0  0  0  0  0  0  0
    2.6000  -10.3620   -3.5450 C   0  0  0  0  0  0  0  0  0  0  0  0
    2.1940  -11.1740   -2.4950 C   0  0  0  0  0  0  0  0  0  0  0  0
    1.0830  -10.9010   -1.6670 N   0  0  0  0  0  0  0  0  0  0  0  0
    1.0670  -10.7830   -0.2910 C   0  0  0  0  0  0  0  0  0  0  0  0
    2.0020  -10.9760    0.4780 O   0  0  0  0  0  0  0  0  0  0  0  0
   -0.2550  -10.4170    0.2920 C   0  0  0  0  0  0  0  0  0  0  0  0
   -0.2830   -9.5610    1.3990 C   0  0  0  0  0  0  0  0  0  0  0  0
   -1.5000   -9.1880    1.9690 C   0  0  0  0  0  0  0  0  0  0  0  0
   -2.6970   -9.6620    1.4300 C   0  0  0  0  0  0  0  0  0  0  0  0
   -2.6910  -10.5120    0.3130 C   0  0  0  0  0  0  0  0  0  0  0  0
   -3.9870  -10.9910   -0.2940 C   0  0  0  0  0  0  0  0  0  0  0  0
   -3.7910  -11.7360   -1.4160 F   0  0  0  0  0  0  0  0  0  0  0  0
   -4.8200   -9.9750   -0.6560 F   0  0  0  0  0  0  0  0  0  0  0  0
   -4.7080  -11.7750    0.5560 F   0  0  0  0  0  0  0  0  0  0  0  0
   -1.4600  -10.8760   -0.2600 C   0  0  0  0  0  0  0  0  0  0  0  0
    2.9100  -12.3510   -2.2290 C   0  0  0  0  0  0  0  0  0  0  0  0
    4.0300  -12.7390   -2.9850 C   0  0  0  0  0  0  0  0  0  0  0  0
    4.7460  -13.9290   -2.7240 N   0  0  0  0  0  0  0  0  0  0  0  0
    4.4310  -14.9780   -1.9190 C   0  0  0  0  0  0  0  0  0  0  0  0
    3.5090  -15.9000   -2.0990 N   0  0  0  0  0  0  0  0  0  0  0  0
    3.6280  -16.7720   -1.0590 C   0  0  0  0  0  0  0  0  0  0  0  0
    2.9030  -17.9520   -0.8270 C   0  0  0  0  0  0  0  0  0  0  0  0
    3.2360  -18.7510    0.2700 C   0  0  0  0  0  0  0  0  0  0  0  0
    4.2850  -18.3890    1.1100 C   0  0  0  0  0  0  0  0  0  0  0  0
    5.0120  -17.2110    0.8970 C   0  0  0  0  0  0  0  0  0  0  0  0
    4.6360  -16.3860   -0.1800 C   0  0  0  0  0  0  0  0  0  0  0  0
    5.0910  -15.1680   -0.6910 N   0  0  0  0  0  0  0  0  0  0  0  0
    6.0410  -14.2600   -0.1110 C   0  0  0  0  0  0  0  0  0  0  0  0
    7.2680  -14.0480   -0.7140 C   0  0  0  0  0  0  0  0  0  0  0  0
    8.1480  -13.1570   -0.1180 C   0  0  0  0  0  0  0  0  0  0  0  0
    9.4030  -12.9090   -0.6650 N   0  0  0  0  0  0  0  0  0  0  0  0
    9.5070  -12.5170   -2.0810 C   0  0  0  0  0  0  0  0  0  0  0  0
   10.9670  -12.5920   -2.5550 C   0  0  0  0  0  0  0  0  0  0  0  0
   11.8370  -11.8230   -1.7140 O   0  0  0  0  0  0  0  0  0  0  0  0
   11.7930  -12.3320   -0.3720 C   0  0  0  0  0  0  0  0  0  0  0  0
   10.3780  -12.2440    0.2200 C   0  0  0  0  0  0  0  0  0  0  0  0
    7.8170  -12.5510    1.0350 N   0  0  0  0  0  0  0  0  0  0  0  0
    6.6250  -12.8330    1.5690 C   0  0  0  0  0  0  0  0  0  0  0  0
    5.7130  -13.6700    1.0620 N   0  0  0  0  0  0  0  0  0  0  0  0
    6.4780  -12.4600   -4.2974 H   0  0  0  0  0  0  0  0  0  0  0  0
    5.3673  -13.0873   -5.5621 H   0  0  0  0  0  0  0  0  0  0  0  0
    5.8412  -11.3547   -5.5621 H   0  0  0  0  0  0  0  0  0  0  0  0
    4.0240  -10.0687   -5.1432 H   0  0  0  0  0  0  0  0  0  0  0  0
    2.0490   -9.4370   -3.7702 H   0  0  0  0  0  0  0  0  0  0  0  0
    0.1990  -10.8230   -2.1540 H   0  0  0  0  0  0  0  0  0  0  0  0
    0.6589   -9.1808    1.8213 H   0  0  0  0  0  0  0  0  0  0  0  0
   -1.5165   -8.5204    2.8431 H   0  0  0  0  0  0  0  0  0  0  0  0
   -3.6540   -9.3667    1.8848 H   0  0  0  0  0  0  0  0  0  0  0  0
   -1.4416  -11.5254   -1.1476 H   0  0  0  0  0  0  0  0  0  0  0  0
    2.5830  -12.9938   -1.3984 H   0  0  0  0  0  0  0  0  0  0  0  0
    5.6240  -14.0080   -3.2350 H   0  0  0  0  0  0  0  0  0  0  0  0
    2.0834  -18.2437   -1.5002 H   0  0  0  0  0  0  0  0  0  0  0  0
    2.6664  -19.6704    0.4706 H   0  0  0  0  0  0  0  0  0  0  0  0
    4.5479  -19.0401    1.9568 H   0  0  0  0  0  0  0  0  0  0  0  0
    5.8524  -16.9383    1.5522 H   0  0  0  0  0  0  0  0  0  0  0  0
    7.5386  -14.5726   -1.6422 H   0  0  0  0  0  0  0  0  0  0  0  0
    8.8932  -13.1965   -2.6906 H   0  0  0  0  0  0  0  0  0  0  0  0
    9.1504  -11.4822   -2.1905 H   0  0  0  0  0  0  0  0  0  0  0  0
   11.2933  -13.6424   -2.5400 H   0  0  0  0  0  0  0  0  0  0  0  0
   11.0191  -12.1779   -3.5727 H   0  0  0  0  0  0  0  0  0  0  0  0
   12.1123  -13.3846   -0.3788 H   0  0  0  0  0  0  0  0  0  0  0  0
   12.4647  -11.7218    0.2497 H   0  0  0  0  0  0  0  0  0  0  0  0
   10.3666  -12.7351    1.2042 H   0  0  0  0  0  0  0  0  0  0  0  0
   10.1007  -11.1843    0.3205 H   0  0  0  0  0  0  0  0  0  0  0  0
    6.3700  -12.3300    2.5134 H   0  0  0  0  0  0  0  0  0  0  0  0
  1  2  1  0
  2  3  2  0
  3  4  1  0
  4  5  2  0
  5  6  1  0
  6  7  1  0
  7  8  2  0
  7  9  1  0
  9 10  2  0
 10 11  1  0
 11 12  2  0
 12 13  1  0
 13 14  1  0
 14 15  1  0
 14 16  1  0
 14 17  1  0
 13 18  2  0
  5 19  1  0
 19 20  2  0
 20 21  1  0
 21 22  1  0
 22 23  2  0
 23 24  1  0
 24 25  2  0
 25 26  1  0
 26 27  2  0
 27 28  1  0
 28 29  2  0
 29 30  1  0
 30 31  1  0
 31 32  2  0
 32 33  1  0
 33 34  1  0
 34 35  1  0
 35 36  1  0
 36 37  1  0
 37 38  1  0
 38 39  1  0
 33 40  2  0
 40 41  1  0
 41 42  2  0
 20  2  1  0
 30 22  1  0
 42 31  1  0
 18  9  1  0
 29 24  1  0
 39 34  1  0
  1 43  1  0
  1 44  1  0
  1 45  1  0
  3 46  1  0
  4 47  1  0
  6 48  1  0
 10 49  1  0
 11 50  1  0
 12 51  1  0
 18 52  1  0
 19 53  1  0
 21 54  1  0
 25 55  1  0
 26 56  1  0
 27 57  1  0
 28 58  1  0
 32 59  1  0
 35 60  1  0
 35 61  1  0
 36 62  1  0
 36 63  1  0
 38 64  1  0
 38 65  1  0
 39 66  1  0
 39 67  1  0
 41 68  1  0
M  END
>  <meeko>  (5) 
{"is_sidechain": [false], "free_energy": -9.183, "intermolecular_energy": -13.521, "internal_energy": -1.609}

$$$$
LIB_GGEALBVZDVXUND__M_PUB_ALL__e8__s20260927
     RDKit          3D

 68 73  0  0  0  0  0  0  0  0999 V2000
    5.1400  -18.2470    1.0360 C   0  0  0  0  0  0  0  0  0  0  0  0
    3.9660  -17.3180    1.1970 C   0  0  0  0  0  0  0  0  0  0  0  0
    2.9420  -17.6920    2.0840 C   0  0  0  0  0  0  0  0  0  0  0  0
    1.8270  -16.8760    2.2850 C   0  0  0  0  0  0  0  0  0  0  0  0
    1.7150  -15.6740    1.6010 C   0  0  0  0  0  0  0  0  0  0  0  0
    0.6320  -14.7790    1.7440 N   0  0  0  0  0  0  0  0  0  0  0  0
    0.2880  -14.0470    2.8640 C   0  0  0  0  0  0  0  0  0  0  0  0
    0.8100  -14.1010    3.9710 O   0  0  0  0  0  0  0  0  0  0  0  0
   -0.8740  -13.1310    2.6810 C   0  0  0  0  0  0  0  0  0  0  0  0
   -2.1580  -13.6840    2.6230 C   0  0  0  0  0  0  0  0  0  0  0  0
   -3.2720  -12.8610    2.4600 C   0  0  0  0  0  0  0  0  0  0  0  0
   -3.1090  -11.4780    2.3630 C   0  0  0  0  0  0  0  0  0  0  0  0
   -1.8300  -10.9020    2.4310 C   0  0  0  0  0  0  0  0  0  0  0  0
   -1.6580   -9.4040    2.3670 C   0  0  0  0  0  0  0  0  0  0  0  0
   -1.7070   -8.8230    3.5960 F   0  0  0  0  0  0  0  0  0  0  0  0
   -2.6120   -8.7850    1.6170 F   0  0  0  0  0  0  0  0  0  0  0  0
   -0.4640   -9.0350    1.8240 F   0  0  0  0  0  0  0  0  0  0  0  0
   -0.7140  -11.7400    2.6020 C   0  0  0  0  0  0  0  0  0  0  0  0
    2.7370  -15.2980    0.7150 C   0  0  0  0  0  0  0  0  0  0  0  0
    3.8720  -16.0980    0.4900 C   0  0  0  0  0  0  0  0  0  0  0  0
    4.9060  -15.7160   -0.3940 N   0  0  0  0  0  0  0  0  0  0  0  0
    4.8430  -15.0200   -1.5600 C   0  0  0  0  0  0  0  0  0  0  0  0
    4.1560  -15.3030   -2.6460 N   0  0  0  0  0  0  0  0  0  0  0  0
    4.3600  -14.2720   -3.5130 C   0  0  0  0  0  0  0  0  0  0  0  0
    3.8020  -14.0830   -4.7870 C   0  0  0  0  0  0  0  0  0  0  0  0
    4.0860  -12.9080   -5.4870 C   0  0  0  0  0  0  0  0  0  0  0  0
    4.8950  -11.9290   -4.9190 C   0  0  0  0  0  0  0  0  0  0  0  0
    5.4660  -12.1060   -3.6510 C   0  0  0  0  0  0  0  0  0  0  0  0
    5.2170  -13.3150   -2.9750 C   0  0  0  0  0  0  0  0  0  0  0  0
    5.6050  -13.8520   -1.7460 N   0  0  0  0  0  0  0  0  0  0  0  0
    6.5820  -13.3450   -0.8230 C   0  0  0  0  0  0  0  0  0  0  0  0
    7.9160  -13.2690   -1.1840 C   0  0  0  0  0  0  0  0  0  0  0  0
    8.8190  -12.7670   -0.2590 C   0  0  0  0  0  0  0  0  0  0  0  0
   10.1760  -12.6770   -0.5540 N   0  0  0  0  0  0  0  0  0  0  0  0
   10.6010  -12.5380   -1.9570 C   0  0  0  0  0  0  0  0  0  0  0  0
   12.1160  -12.7620   -2.0870 C   0  0  0  0  0  0  0  0  0  0  0  0
   12.8550  -11.9040   -1.2080 O   0  0  0  0  0  0  0  0  0  0  0  0
   12.4940  -12.1730    0.1550 C   0  0  0  0  0  0  0  0  0  0  0  0
   11.0010  -11.9180    0.4060 C   0  0  0  0  0  0  0  0  0  0  0  0
    8.4000  -12.4050    0.9650 N   0  0  0  0  0  0  0  0  0  0  0  0
    7.1010  -12.5380    1.2460 C   0  0  0  0  0  0  0  0  0  0  0  0
    6.1600  -13.0030    0.4160 N   0  0  0  0  0  0  0  0  0  0  0  0
    5.5128  -18.5420    2.0279 H   0  0  0  0  0  0  0  0  0  0  0  0
    4.8251  -19.1431    0.4812 H   0  0  0  0  0  0  0  0  0  0  0  0
    5.9397  -17.7345    0.4812 H   0  0  0  0  0  0  0  0  0  0  0  0
    3.0203  -18.6441    2.6293 H   0  0  0  0  0  0  0  0  0  0  0  0
    1.0375  -17.1860    2.9855 H   0  0  0  0  0  0  0  0  0  0  0  0
    0.0290  -14.7080    0.9350 H   0  0  0  0  0  0  0  0  0  0  0  0
   -2.2893  -14.7729    2.7064 H   0  0  0  0  0  0  0  0  0  0  0  0
   -4.2786  -13.3014    2.4079 H   0  0  0  0  0  0  0  0  0  0  0  0
   -3.9906  -10.8333    2.2321 H   0  0  0  0  0  0  0  0  0  0  0  0
    0.2921  -11.3013    2.6744 H   0  0  0  0  0  0  0  0  0  0  0  0
    2.6470  -14.3428    0.1770 H   0  0  0  0  0  0  0  0  0  0  0  0
    5.8370  -15.9980   -0.0930 H   0  0  0  0  0  0  0  0  0  0  0  0
    3.1493  -14.8505   -5.2286 H   0  0  0  0  0  0  0  0  0  0  0  0
    3.6677  -12.7559   -6.4929 H   0  0  0  0  0  0  0  0  0  0  0  0
    5.0900  -10.9998   -5.4746 H   0  0  0  0  0  0  0  0  0  0  0  0
    6.0907  -11.3224   -3.1974 H   0  0  0  0  0  0  0  0  0  0  0  0
    8.2512  -13.5982   -2.1786 H   0  0  0  0  0  0  0  0  0  0  0  0
   10.0715  -13.2816   -2.5707 H   0  0  0  0  0  0  0  0  0  0  0  0
   10.3616  -11.5211   -2.3014 H   0  0  0  0  0  0  0  0  0  0  0  0
   12.3444  -13.8090   -1.8388 H   0  0  0  0  0  0  0  0  0  0  0  0
   12.4100  -12.5296   -3.1212 H   0  0  0  0  0  0  0  0  0  0  0  0
   12.7195  -13.2253    0.3828 H   0  0  0  0  0  0  0  0  0  0  0  0
   13.0717  -11.4977    0.8032 H   0  0  0  0  0  0  0  0  0  0  0  0
   10.7474  -12.2331    1.4289 H   0  0  0  0  0  0  0  0  0  0  0  0
   10.7979  -10.8446    0.2772 H   0  0  0  0  0  0  0  0  0  0  0  0
    6.7746  -12.2376    2.2526 H   0  0  0  0  0  0  0  0  0  0  0  0
  1  2  1  0
  2  3  2  0
  3  4  1  0
  4  5  2  0
  5  6  1  0
  6  7  1  0
  7  8  2  0
  7  9  1  0
  9 10  2  0
 10 11  1  0
 11 12  2  0
 12 13  1  0
 13 14  1  0
 14 15  1  0
 14 16  1  0
 14 17  1  0
 13 18  2  0
  5 19  1  0
 19 20  2  0
 20 21  1  0
 21 22  1  0
 22 23  2  0
 23 24  1  0
 24 25  2  0
 25 26  1  0
 26 27  2  0
 27 28  1  0
 28 29  2  0
 29 30  1  0
 30 31  1  0
 31 32  2  0
 32 33  1  0
 33 34  1  0
 34 35  1  0
 35 36  1  0
 36 37  1  0
 37 38  1  0
 38 39  1  0
 33 40  2  0
 40 41  1  0
 41 42  2  0
 20  2  1  0
 30 22  1  0
 42 31  1  0
 18  9  1  0
 29 24  1  0
 39 34  1  0
  1 43  1  0
  1 44  1  0
  1 45  1  0
  3 46  1  0
  4 47  1  0
  6 48  1  0
 10 49  1  0
 11 50  1  0
 12 51  1  0
 18 52  1  0
 19 53  1  0
 21 54  1  0
 25 55  1  0
 26 56  1  0
 27 57  1  0
 28 58  1  0
 32 59  1  0
 35 60  1  0
 35 61  1  0
 36 62  1  0
 36 63  1  0
 38 64  1  0
 38 65  1  0
 39 66  1  0
 39 67  1  0
 41 68  1  0
M  END
>  <meeko>  (6) 
{"is_sidechain": [false], "free_energy": -9.153, "intermolecular_energy": -13.162, "internal_energy": -1.925}

$$$$
LIB_GGEALBVZDVXUND__M_PUB_ALL__e8__s20260927
     RDKit          3D

 68 73  0  0  0  0  0  0  0  0999 V2000
   13.4570  -15.1160  -13.0070 C   0  0  0  0  0  0  0  0  0  0  0  0
   13.3810  -15.0140  -11.5070 C   0  0  0  0  0  0  0  0  0  0  0  0
   14.5270  -15.3380  -10.7620 C   0  0  0  0  0  0  0  0  0  0  0  0
   14.5270  -15.2610   -9.3680 C   0  0  0  0  0  0  0  0  0  0  0  0
   13.3810  -14.8620   -8.6950 C   0  0  0  0  0  0  0  0  0  0  0  0
   13.2870  -14.7460   -7.2910 N   0  0  0  0  0  0  0  0  0  0  0  0
   13.1890  -15.7670   -6.3670 C   0  0  0  0  0  0  0  0  0  0  0  0
   13.0810  -16.9660   -6.5980 O   0  0  0  0  0  0  0  0  0  0  0  0
   13.1780  -15.3250   -4.9420 C   0  0  0  0  0  0  0  0  0  0  0  0
   13.1040  -16.3000   -3.9410 C   0  0  0  0  0  0  0  0  0  0  0  0
   13.1000  -15.9290   -2.5970 C   0  0  0  0  0  0  0  0  0  0  0  0
   13.1770  -14.5800   -2.2460 C   0  0  0  0  0  0  0  0  0  0  0  0
   13.2630  -13.5870   -3.2350 C   0  0  0  0  0  0  0  0  0  0  0  0
   13.3880  -12.1320   -2.8540 C   0  0  0  0  0  0  0  0  0  0  0  0
   12.9960  -11.8960   -1.5730 F   0  0  0  0  0  0  0  0  0  0  0  0
   12.6390  -11.3050   -3.6360 F   0  0  0  0  0  0  0  0  0  0  0  0
   14.6670  -11.6720   -2.9470 F   0  0  0  0  0  0  0  0  0  0  0  0
   13.2750  -13.9720   -4.5870 C   0  0  0  0  0  0  0  0  0  0  0  0
   12.2350  -14.5380   -9.4380 C   0  0  0  0  0  0  0  0  0  0  0  0
   12.2020  -14.6060  -10.8420 C   0  0  0  0  0  0  0  0  0  0  0  0
   11.0520  -14.2700  -11.5910 N   0  0  0  0  0  0  0  0  0  0  0  0
   10.2090  -13.2110  -11.4670 C   0  0  0  0  0  0  0  0  0  0  0  0
   10.3110  -12.0160  -12.0070 N   0  0  0  0  0  0  0  0  0  0  0  0
    9.1900  -11.3310  -11.6480 C   0  0  0  0  0  0  0  0  0  0  0  0
    8.8080  -10.0320  -12.0180 C   0  0  0  0  0  0  0  0  0  0  0  0
    7.5690   -9.5410  -11.5970 C   0  0  0  0  0  0  0  0  0  0  0  0
    6.7180  -10.3390  -10.8390 C   0  0  0  0  0  0  0  0  0  0  0  0
    7.0870  -11.6340  -10.4550 C   0  0  0  0  0  0  0  0  0  0  0  0
    8.3580  -12.1020  -10.8390 C   0  0  0  0  0  0  0  0  0  0  0  0
    9.0700  -13.2870  -10.6440 N   0  0  0  0  0  0  0  0  0  0  0  0
    8.7410  -14.3910   -9.7860 C   0  0  0  0  0  0  0  0  0  0  0  0
    8.9180  -14.2930   -8.4160 C   0  0  0  0  0  0  0  0  0  0  0  0
    8.5810  -15.3850   -7.6310 C   0  0  0  0  0  0  0  0  0  0  0  0
    8.7490  -15.3570   -6.2490 N   0  0  0  0  0  0  0  0  0  0  0  0
    8.7010  -16.6200   -5.4930 C   0  0  0  0  0  0  0  0  0  0  0  0
    8.6010  -16.3410   -3.9850 C   0  0  0  0  0  0  0  0  0  0  0  0
    9.6530  -15.4770   -3.5350 O   0  0  0  0  0  0  0  0  0  0  0  0
    9.5720  -14.2150   -4.2130 C   0  0  0  0  0  0  0  0  0  0  0  0
    9.7240  -14.3780   -5.7330 C   0  0  0  0  0  0  0  0  0  0  0  0
    8.1290  -16.5140   -8.2020 N   0  0  0  0  0  0  0  0  0  0  0  0
    8.0150  -16.5380   -9.5330 C   0  0  0  0  0  0  0  0  0  0  0  0
    8.3080  -15.5340  -10.3670 N   0  0  0  0  0  0  0  0  0  0  0  0
   14.0929  -15.9695  -13.2847 H   0  0  0  0  0  0  0  0  0  0  0  0
   12.4466  -15.2631  -13.4162 H   0  0  0  0  0  0  0  0  0  0  0  0
   13.8870  -14.1899  -13.4162 H   0  0  0  0  0  0  0  0  0  0  0  0
   15.4399  -15.6578  -11.2858 H   0  0  0  0  0  0  0  0  0  0  0  0
   15.4356  -15.5167   -8.8031 H   0  0  0  0  0  0  0  0  0  0  0  0
   13.2520  -13.7950   -6.9440 H   0  0  0  0  0  0  0  0  0  0  0  0
   13.0487  -17.3637   -4.2156 H   0  0  0  0  0  0  0  0  0  0  0  0
   13.0362  -16.6987   -1.8138 H   0  0  0  0  0  0  0  0  0  0  0  0
   13.1702  -14.2922   -1.1843 H   0  0  0  0  0  0  0  0  0  0  0  0
   13.3611  -13.2063   -5.3720 H   0  0  0  0  0  0  0  0  0  0  0  0
   11.3290  -14.2190   -8.9019 H   0  0  0  0  0  0  0  0  0  0  0  0
   10.8410  -14.9220  -12.3450 H   0  0  0  0  0  0  0  0  0  0  0  0
    9.4751   -9.4085  -12.6314 H   0  0  0  0  0  0  0  0  0  0  0  0
    7.2652   -8.5186  -11.8663 H   0  0  0  0  0  0  0  0  0  0  0  0
    5.7367   -9.9452  -10.5356 H   0  0  0  0  0  0  0  0  0  0  0  0
    6.4036  -12.2673   -9.8703 H   0  0  0  0  0  0  0  0  0  0  0  0
    9.3155  -13.3730   -7.9626 H   0  0  0  0  0  0  0  0  0  0  0  0
    7.8229  -17.2002   -5.8128 H   0  0  0  0  0  0  0  0  0  0  0  0
    9.6225  -17.1876   -5.6895 H   0  0  0  0  0  0  0  0  0  0  0  0
    7.6327  -15.8635   -3.7742 H   0  0  0  0  0  0  0  0  0  0  0  0
    8.6922  -17.2990   -3.4521 H   0  0  0  0  0  0  0  0  0  0  0  0
    8.5950  -13.7571   -3.9992 H   0  0  0  0  0  0  0  0  0  0  0  0
   10.3925  -13.5775   -3.8519 H   0  0  0  0  0  0  0  0  0  0  0  0
    9.5533  -13.4065   -6.2198 H   0  0  0  0  0  0  0  0  0  0  0  0
   10.7397  -14.7393   -5.9516 H   0  0  0  0  0  0  0  0  0  0  0  0
    7.6458  -17.4703   -9.9852 H   0  0  0  0  0  0  0  0  0  0  0  0
  1  2  1  0
  2  3  2  0
  3  4  1  0
  4  5  2  0
  5  6  1  0
  6  7  1  0
  7  8  2  0
  7  9  1  0
  9 10  2  0
 10 11  1  0
 11 12  2  0
 12 13  1  0
 13 14  1  0
 14 15  1  0
 14 16  1  0
 14 17  1  0
 13 18  2  0
  5 19  1  0
 19 20  2  0
 20 21  1  0
 21 22  1  0
 22 23  2  0
 23 24  1  0
 24 25  2  0
 25 26  1  0
 26 27  2  0
 27 28  1  0
 28 29  2  0
 29 30  1  0
 30 31  1  0
 31 32  2  0
 32 33  1  0
 33 34  1  0
 34 35  1  0
 35 36  1  0
 36 37  1  0
 37 38  1  0
 38 39  1  0
 33 40  2  0
 40 41  1  0
 41 42  2  0
 20  2  1  0
 30 22  1  0
 42 31  1  0
 18  9  1  0
 29 24  1  0
 39 34  1  0
  1 43  1  0
  1 44  1  0
  1 45  1  0
  3 46  1  0
  4 47  1  0
  6 48  1  0
 10 49  1  0
 11 50  1  0
 12 51  1  0
 18 52  1  0
 19 53  1  0
 21 54  1  0
 25 55  1  0
 26 56  1  0
 27 57  1  0
 28 58  1  0
 32 59  1  0
 35 60  1  0
 35 61  1  0
 36 62  1  0
 36 63  1  0
 38 64  1  0
 38 65  1  0
 39 66  1  0
 39 67  1  0
 41 68  1  0
M  END
>  <meeko>  (7) 
{"is_sidechain": [false], "free_energy": -9.026, "intermolecular_energy": -12.014, "internal_energy": -2.894}

$$$$
LIB_GGEALBVZDVXUND__M_PUB_ALL__e8__s20260927
     RDKit          3D

 68 73  0  0  0  0  0  0  0  0999 V2000
   13.1340  -16.3110   -8.1480 C   0  0  0  0  0  0  0  0  0  0  0  0
   12.7170  -15.7120   -6.8320 C   0  0  0  0  0  0  0  0  0  0  0  0
   13.7230  -15.3270   -5.9300 C   0  0  0  0  0  0  0  0  0  0  0  0
   13.4080  -14.7600   -4.6940 C   0  0  0  0  0  0  0  0  0  0  0  0
   12.0800  -14.5710   -4.3370 C   0  0  0  0  0  0  0  0  0  0  0  0
   11.6630  -13.9980   -3.1150 N   0  0  0  0  0  0  0  0  0  0  0  0
   11.7320  -12.6710   -2.7410 C   0  0  0  0  0  0  0  0  0  0  0  0
   12.2460  -11.7520   -3.3680 O   0  0  0  0  0  0  0  0  0  0  0  0
   11.1420  -12.3640   -1.4060 C   0  0  0  0  0  0  0  0  0  0  0  0
   11.9740  -11.8310   -0.4150 C   0  0  0  0  0  0  0  0  0  0  0  0
   11.4590  -11.5230    0.8440 C   0  0  0  0  0  0  0  0  0  0  0  0
   10.1070  -11.7390    1.1170 C   0  0  0  0  0  0  0  0  0  0  0  0
    9.2540  -12.2620    0.1320 C   0  0  0  0  0  0  0  0  0  0  0  0
    7.7840  -12.4570    0.4150 C   0  0  0  0  0  0  0  0  0  0  0  0
    7.4320  -13.7710    0.4520 F   0  0  0  0  0  0  0  0  0  0  0  0
    6.9750  -11.8760   -0.5150 F   0  0  0  0  0  0  0  0  0  0  0  0
    7.4050  -11.9320    1.6140 F   0  0  0  0  0  0  0  0  0  0  0  0
    9.7800  -12.5620   -1.1370 C   0  0  0  0  0  0  0  0  0  0  0  0
   11.0730  -14.9540   -5.2360 C   0  0  0  0  0  0  0  0  0  0  0  0
   11.3580  -15.5280   -6.4870 C   0  0  0  0  0  0  0  0  0  0  0  0
   10.3450  -15.9060   -7.3970 N   0  0  0  0  0  0  0  0  0  0  0  0
    9.7680  -15.1970   -8.4030 C   0  0  0  0  0  0  0  0  0  0  0  0
   10.3440  -14.6340   -9.4430 N   0  0  0  0  0  0  0  0  0  0  0  0
    9.3430  -14.1050  -10.2010 C   0  0  0  0  0  0  0  0  0  0  0  0
    9.4430  -13.4460  -11.4360 C   0  0  0  0  0  0  0  0  0  0  0  0
    8.2750  -13.0450  -12.0900 C   0  0  0  0  0  0  0  0  0  0  0  0
    7.0300  -13.3140  -11.5320 C   0  0  0  0  0  0  0  0  0  0  0  0
    6.9130  -13.9640  -10.2960 C   0  0  0  0  0  0  0  0  0  0  0  0
    8.0960  -14.3180   -9.6200 C   0  0  0  0  0  0  0  0  0  0  0  0
    8.3840  -14.9420   -8.4040 N   0  0  0  0  0  0  0  0  0  0  0  0
    7.4790  -15.2770   -7.3400 C   0  0  0  0  0  0  0  0  0  0  0  0
    6.8000  -14.2830   -6.6570 C   0  0  0  0  0  0  0  0  0  0  0  0
    5.9340  -14.6580   -5.6410 C   0  0  0  0  0  0  0  0  0  0  0  0
    5.2310  -13.7080   -4.9060 N   0  0  0  0  0  0  0  0  0  0  0  0
    5.9620  -12.5830   -4.2990 C   0  0  0  0  0  0  0  0  0  0  0  0
    5.0670  -11.8370   -3.2960 C   0  0  0  0  0  0  0  0  0  0  0  0
    3.8320  -11.4230   -3.8940 O   0  0  0  0  0  0  0  0  0  0  0  0
    3.1030  -12.5700   -4.3530 C   0  0  0  0  0  0  0  0  0  0  0  0
    3.8900  -13.3560   -5.4120 C   0  0  0  0  0  0  0  0  0  0  0  0
    5.7960  -15.9540   -5.3160 N   0  0  0  0  0  0  0  0  0  0  0  0
    6.5110  -16.8500   -6.0030 C   0  0  0  0  0  0  0  0  0  0  0  0
    7.3610  -16.5810   -7.0000 N   0  0  0  0  0  0  0  0  0  0  0  0
   13.7538  -17.2013   -7.9657 H   0  0  0  0  0  0  0  0  0  0  0  0
   12.2394  -16.5979   -8.7202 H   0  0  0  0  0  0  0  0  0  0  0  0
   13.7136  -15.5716   -8.7202 H   0  0  0  0  0  0  0  0  0  0  0  0
   14.7783  -15.4751   -6.2028 H   0  0  0  0  0  0  0  0  0  0  0  0
   14.2113  -14.4633   -4.0036 H   0  0  0  0  0  0  0  0  0  0  0  0
   11.3100  -14.6590   -2.4340 H   0  0  0  0  0  0  0  0  0  0  0  0
   13.0382  -11.6543   -0.6298 H   0  0  0  0  0  0  0  0  0  0  0  0
   12.1180  -11.1099    1.6218 H   0  0  0  0  0  0  0  0  0  0  0  0
    9.7065  -11.4973    2.1126 H   0  0  0  0  0  0  0  0  0  0  0  0
    9.1190  -12.9545   -1.9238 H   0  0  0  0  0  0  0  0  0  0  0  0
   10.0218  -14.7993   -4.9512 H   0  0  0  0  0  0  0  0  0  0  0  0
   10.0160  -16.8630   -7.2800 H   0  0  0  0  0  0  0  0  0  0  0  0
   10.4281  -13.2477  -11.8834 H   0  0  0  0  0  0  0  0  0  0  0  0
    8.3407  -12.5139  -13.0510 H   0  0  0  0  0  0  0  0  0  0  0  0
    6.1201  -13.0110  -12.0708 H   0  0  0  0  0  0  0  0  0  0  0  0
    5.9260  -14.1909   -9.8667 H   0  0  0  0  0  0  0  0  0  0  0  0
    6.9436  -13.2230   -6.9135 H   0  0  0  0  0  0  0  0  0  0  0  0
    6.8493  -12.9684   -3.7753 H   0  0  0  0  0  0  0  0  0  0  0  0
    6.2638  -11.8850   -5.0938 H   0  0  0  0  0  0  0  0  0  0  0  0
    4.8472  -12.5041   -2.4494 H   0  0  0  0  0  0  0  0  0  0  0  0
    5.6039  -10.9377   -2.9599 H   0  0  0  0  0  0  0  0  0  0  0  0
    2.9004  -13.2299   -3.4966 H   0  0  0  0  0  0  0  0  0  0  0  0
    2.1660  -12.2204   -4.8111 H   0  0  0  0  0  0  0  0  0  0  0  0
    3.3430  -14.2779   -5.6588 H   0  0  0  0  0  0  0  0  0  0  0  0
    4.0022  -12.7291   -6.3089 H   0  0  0  0  0  0  0  0  0  0  0  0
    6.3892  -17.9066   -5.7225 H   0  0  0  0  0  0  0  0  0  0  0  0
  1  2  1  0
  2  3  2  0
  3  4  1  0
  4  5  2  0
  5  6  1  0
  6  7  1  0
  7  8  2  0
  7  9  1  0
  9 10  2  0
 10 11  1  0
 11 12  2  0
 12 13  1  0
 13 14  1  0
 14 15  1  0
 14 16  1  0
 14 17  1  0
 13 18  2  0
  5 19  1  0
 19 20  2  0
 20 21  1  0
 21 22  1  0
 22 23  2  0
 23 24  1  0
 24 25  2  0
 25 26  1  0
 26 27  2  0
 27 28  1  0
 28 29  2  0
 29 30  1  0
 30 31  1  0
 31 32  2  0
 32 33  1  0
 33 34  1  0
 34 35  1  0
 35 36  1  0
 36 37  1  0
 37 38  1  0
 38 39  1  0
 33 40  2  0
 40 41  1  0
 41 42  2  0
 20  2  1  0
 30 22  1  0
 42 31  1  0
 18  9  1  0
 29 24  1  0
 39 34  1  0
  1 43  1  0
  1 44  1  0
  1 45  1  0
  3 46  1  0
  4 47  1  0
  6 48  1  0
 10 49  1  0
 11 50  1  0
 12 51  1  0
 18 52  1  0
 19 53  1  0
 21 54  1  0
 25 55  1  0
 26 56  1  0
 27 57  1  0
 28 58  1  0
 32 59  1  0
 35 60  1  0
 35 61  1  0
 36 62  1  0
 36 63  1  0
 38 64  1  0
 38 65  1  0
 39 66  1  0
 39 67  1  0
 41 68  1  0
M  END
>  <meeko>  (8) 
{"is_sidechain": [false], "free_energy": -9.015, "intermolecular_energy": -12.488, "internal_energy": -2.404}

$$$$
LIB_GGEALBVZDVXUND__M_PUB_ALL__e8__s20260927
     RDKit          3D

 68 73  0  0  0  0  0  0  0  0999 V2000
    1.8730  -15.3430    3.3200 C   0  0  0  0  0  0  0  0  0  0  0  0
    2.3510  -14.9360    1.9520 C   0  0  0  0  0  0  0  0  0  0  0  0
    3.3230  -15.7340    1.3250 C   0  0  0  0  0  0  0  0  0  0  0  0
    3.8070  -15.4180    0.0550 C   0  0  0  0  0  0  0  0  0  0  0  0
    3.3310  -14.2960   -0.6100 C   0  0  0  0  0  0  0  0  0  0  0  0
    3.7530  -13.9010   -1.8980 N   0  0  0  0  0  0  0  0  0  0  0  0
    3.0780  -14.0650   -3.0920 C   0  0  0  0  0  0  0  0  0  0  0  0
    2.0210  -14.6600   -3.2680 O   0  0  0  0  0  0  0  0  0  0  0  0
    3.7550  -13.4740   -4.2820 C   0  0  0  0  0  0  0  0  0  0  0  0
    3.3310  -12.2210   -4.7380 C   0  0  0  0  0  0  0  0  0  0  0  0
    3.9430  -11.6300   -5.8420 C   0  0  0  0  0  0  0  0  0  0  0  0
    4.9910  -12.2860   -6.4930 C   0  0  0  0  0  0  0  0  0  0  0  0
    5.4390  -13.5380   -6.0430 C   0  0  0  0  0  0  0  0  0  0  0  0
    6.5980  -14.2270   -6.7220 C   0  0  0  0  0  0  0  0  0  0  0  0
    7.7600  -14.0920   -6.0280 F   0  0  0  0  0  0  0  0  0  0  0  0
    6.8480  -13.7530   -7.9740 F   0  0  0  0  0  0  0  0  0  0  0  0
    6.4000  -15.5680   -6.8670 F   0  0  0  0  0  0  0  0  0  0  0  0
    4.8200  -14.1220   -4.9240 C   0  0  0  0  0  0  0  0  0  0  0  0
    2.3600  -13.4980    0.0140 C   0  0  0  0  0  0  0  0  0  0  0  0
    1.8520  -13.7890    1.2930 C   0  0  0  0  0  0  0  0  0  0  0  0
    0.8680  -12.9910    1.9180 N   0  0  0  0  0  0  0  0  0  0  0  0
   -0.3030  -12.5050    1.4260 C   0  0  0  0  0  0  0  0  0  0  0  0
   -0.6430  -11.2530    1.2100 N   0  0  0  0  0  0  0  0  0  0  0  0
   -1.8820  -11.2810    0.6440 C   0  0  0  0  0  0  0  0  0  0  0  0
   -2.6530  -10.2010    0.1850 C   0  0  0  0  0  0  0  0  0  0  0  0
   -3.8770  -10.4550   -0.4390 C   0  0  0  0  0  0  0  0  0  0  0  0
   -4.3160  -11.7640   -0.6190 C   0  0  0  0  0  0  0  0  0  0  0  0
   -3.5620  -12.8510   -0.1590 C   0  0  0  0  0  0  0  0  0  0  0  0
   -2.3550  -12.5840    0.5140 C   0  0  0  0  0  0  0  0  0  0  0  0
   -1.3670  -13.3700    1.1110 N   0  0  0  0  0  0  0  0  0  0  0  0
   -1.3920  -14.7820    1.3730 C   0  0  0  0  0  0  0  0  0  0  0  0
   -1.6400  -15.2570    2.6490 C   0  0  0  0  0  0  0  0  0  0  0  0
   -1.6580  -16.6290    2.8470 C   0  0  0  0  0  0  0  0  0  0  0  0
   -1.8870  -17.1710    4.1090 N   0  0  0  0  0  0  0  0  0  0  0  0
   -0.9070  -18.1130    4.6760 C   0  0  0  0  0  0  0  0  0  0  0  0
   -1.4880  -18.8150    5.9130 C   0  0  0  0  0  0  0  0  0  0  0  0
   -1.9610  -17.8720    6.8850 O   0  0  0  0  0  0  0  0  0  0  0  0
   -3.0030  -17.0670    6.3160 C   0  0  0  0  0  0  0  0  0  0  0  0
   -2.5050  -16.2700    5.1010 C   0  0  0  0  0  0  0  0  0  0  0  0
   -1.4040  -17.4620    1.8250 N   0  0  0  0  0  0  0  0  0  0  0  0
   -1.1440  -16.9240    0.6300 C   0  0  0  0  0  0  0  0  0  0  0  0
   -1.1130  -15.6170    0.3450 N   0  0  0  0  0  0  0  0  0  0  0  0
    2.4742  -14.8311    4.0858 H   0  0  0  0  0  0  0  0  0  0  0  0
    0.8155  -15.0638    3.4370 H   0  0  0  0  0  0  0  0  0  0  0  0
    1.9800  -16.4315    3.4370 H   0  0  0  0  0  0  0  0  0  0  0  0
    3.7091  -16.6234    1.8445 H   0  0  0  0  0  0  0  0  0  0  0  0
    4.5657  -16.0578   -0.4193 H   0  0  0  0  0  0  0  0  0  0  0  0
    4.6750  -13.4850   -1.9350 H   0  0  0  0  0  0  0  0  0  0  0  0
    2.5107  -11.6998   -4.2227 H   0  0  0  0  0  0  0  0  0  0  0  0
    3.6012  -10.6478   -6.2006 H   0  0  0  0  0  0  0  0  0  0  0  0
    5.4692  -11.8173   -7.3657 H   0  0  0  0  0  0  0  0  0  0  0  0
    5.1735  -15.0940   -4.5495 H   0  0  0  0  0  0  0  0  0  0  0  0
    1.9820  -12.6118   -0.5168 H   0  0  0  0  0  0  0  0  0  0  0  0
    1.0710  -12.7640    2.8900 H   0  0  0  0  0  0  0  0  0  0  0  0
   -2.2979   -9.1681    0.3150 H   0  0  0  0  0  0  0  0  0  0  0  0
   -4.4969   -9.6167   -0.7898 H   0  0  0  0  0  0  0  0  0  0  0  0
   -5.2718  -11.9477   -1.1315 H   0  0  0  0  0  0  0  0  0  0  0  0
   -3.9035  -13.8843   -0.3192 H   0  0  0  0  0  0  0  0  0  0  0  0
   -1.8182  -14.5639    3.4844 H   0  0  0  0  0  0  0  0  0  0  0  0
   -0.6506  -18.8682    3.9184 H   0  0  0  0  0  0  0  0  0  0  0  0
   -0.0077  -17.5540    4.9740 H   0  0  0  0  0  0  0  0  0  0  0  0
   -2.3263  -19.4543    5.5992 H   0  0  0  0  0  0  0  0  0  0  0  0
   -0.6884  -19.4123    6.3755 H   0  0  0  0  0  0  0  0  0  0  0  0
   -3.8273  -17.7227    5.9988 H   0  0  0  0  0  0  0  0  0  0  0  0
   -3.3405  -16.3519    7.0806 H   0  0  0  0  0  0  0  0  0  0  0  0
   -3.3554  -15.7492    4.6366 H   0  0  0  0  0  0  0  0  0  0  0  0
   -1.7521  -15.5421    5.4377 H   0  0  0  0  0  0  0  0  0  0  0  0
   -0.9362  -17.6200   -0.1961 H   0  0  0  0  0  0  0  0  0  0  0  0
  1  2  1  0
  2  3  2  0
  3  4  1  0
  4  5  2  0
  5  6  1  0
  6  7  1  0
  7  8  2  0
  7  9  1  0
  9 10  2  0
 10 11  1  0
 11 12  2  0
 12 13  1  0
 13 14  1  0
 14 15  1  0
 14 16  1  0
 14 17  1  0
 13 18  2  0
  5 19  1  0
 19 20  2  0
 20 21  1  0
 21 22  1  0
 22 23  2  0
 23 24  1  0
 24 25  2  0
 25 26  1  0
 26 27  2  0
 27 28  1  0
 28 29  2  0
 29 30  1  0
 30 31  1  0
 31 32  2  0
 32 33  1  0
 33 34  1  0
 34 35  1  0
 35 36  1  0
 36 37  1  0
 37 38  1  0
 38 39  1  0
 33 40  2  0
 40 41  1  0
 41 42  2  0
 20  2  1  0
 30 22  1  0
 42 31  1  0
 18  9  1  0
 29 24  1  0
 39 34  1  0
  1 43  1  0
  1 44  1  0
  1 45  1  0
  3 46  1  0
  4 47  1  0
  6 48  1  0
 10 49  1  0
 11 50  1  0
 12 51  1  0
 18 52  1  0
 19 53  1  0
 21 54  1  0
 25 55  1  0
 26 56  1  0
 27 57  1  0
 28 58  1  0
 32 59  1  0
 35 60  1  0
 35 61  1  0
 36 62  1  0
 36 63  1  0
 38 64  1  0
 38 65  1  0
 39 66  1  0
 39 67  1  0
 41 68  1  0
M  END
>  <meeko>  (9) 
{"is_sidechain": [false], "free_energy": -8.942, "intermolecular_energy": -12.673, "internal_energy": -2.117}

$$$$
