LIB_DWDRUDUATUOJND__M_PUB_ALL__e8__s20260927
     RDKit          3D

 57 61  0  0  0  0  0  0  0  0999 V2000
    4.0360  -13.3360   -6.3050 O   0  0  0  0  0  0  0  0  0  0  0  0
    5.0570  -12.8580   -5.8270 C   0  0  0  0  0  0  0  0  0  0  0  0
    5.1160  -12.1250   -4.6510 N   0  0  0  0  0  0  0  0  0  0  0  0
    4.0380  -11.6980   -3.8460 C   0  0  0  0  0  0  0  0  0  0  0  0
    3.3450  -10.5550   -4.2620 C   0  0  0  0  0  0  0  0  0  0  0  0
    2.2650  -10.0710   -3.5230 C   0  0  0  0  0  0  0  0  0  0  0  0
    1.8700  -10.7270   -2.3580 C   0  0  0  0  0  0  0  0  0  0  0  0
    2.5480  -11.8710   -1.9140 C   0  0  0  0  0  0  0  0  0  0  0  0
    2.0960  -12.5570   -0.6780 C   0  0  0  0  0  0  0  0  0  0  0  0
    2.7000  -13.6990   -0.2820 C   0  0  0  0  0  0  0  0  0  0  0  0
    2.2610  -14.3020    0.8770 N   0  0  0  0  0  0  0  0  0  0  0  0
    2.6510  -15.4390    1.5300 C   0  0  0  0  0  0  0  0  0  0  0  0
    1.8330  -15.5140    2.6380 C   0  0  0  0  0  0  0  0  0  0  0  0
    0.9550  -14.4550    2.6840 N   0  0  0  0  0  0  0  0  0  0  0  0
    1.2470  -13.7530    1.6070 C   0  0  0  0  0  0  0  0  0  0  0  0
    0.6330  -12.5190    1.1510 C   0  0  0  0  0  0  0  0  0  0  0  0
   -0.3880  -11.9450    1.8680 N   0  0  0  0  0  0  0  0  0  0  0  0
   -1.0690  -10.7410    1.4800 C   0  0  0  0  0  0  0  0  0  0  0  0
   -2.3880  -11.0930    0.8410 C   0  0  0  0  0  0  0  0  0  0  0  0
   -2.9230  -10.2990   -0.1780 C   0  0  0  0  0  0  0  0  0  0  0  0
   -4.1510  -10.6490   -0.7170 C   0  0  0  0  0  0  0  0  0  0  0  0
   -4.8730  -11.7150   -0.3100 N   0  0  0  0  0  0  0  0  0  0  0  0
   -4.3470  -12.4590    0.6860 C   0  0  0  0  0  0  0  0  0  0  0  0
   -3.1280  -12.1910    1.2880 C   0  0  0  0  0  0  0  0  0  0  0  0
    1.0660  -11.9580    0.0440 N   0  0  0  0  0  0  0  0  0  0  0  0
    3.6230  -12.3540   -2.6820 C   0  0  0  0  0  0  0  0  0  0  0  0
    6.3180  -12.9820   -6.3830 N   0  0  0  0  0  0  0  0  0  0  0  0
    6.7040  -13.7060   -7.5380 C   0  0  0  0  0  0  0  0  0  0  0  0
    6.7240  -13.1530   -8.8230 C   0  0  0  0  0  0  0  0  0  0  0  0
    7.1120  -13.9200   -9.9390 C   0  0  0  0  0  0  0  0  0  0  0  0
    7.1410  -13.2880  -11.3130 C   0  0  0  0  0  0  0  0  0  0  0  0
    6.3420  -13.9300  -12.2080 F   0  0  0  0  0  0  0  0  0  0  0  0
    8.3840  -13.2750  -11.8690 F   0  0  0  0  0  0  0  0  0  0  0  0
    6.7280  -11.9920  -11.2950 F   0  0  0  0  0  0  0  0  0  0  0  0
    7.4940  -15.2560   -9.7540 C   0  0  0  0  0  0  0  0  0  0  0  0
    7.4740  -15.8220   -8.4800 C   0  0  0  0  0  0  0  0  0  0  0  0
    7.0810  -15.0540   -7.3830 C   0  0  0  0  0  0  0  0  0  0  0  0
    7.0720  -15.8060   -5.8230 Cl  0  0  0  0  0  0  0  0  0  0  0  0
    6.0360  -11.9200   -4.2950 H   0  0  0  0  0  0  0  0  0  0  0  0
    3.6547  -10.0337   -5.1798 H   0  0  0  0  0  0  0  0  0  0  0  0
    1.7259   -9.1730   -3.8592 H   0  0  0  0  0  0  0  0  0  0  0  0
    1.0164  -10.3425   -1.7804 H   0  0  0  0  0  0  0  0  0  0  0  0
    3.5209  -14.1361   -0.8695 H   0  0  0  0  0  0  0  0  0  0  0  0
    3.4448  -16.1412    1.2354 H   0  0  0  0  0  0  0  0  0  0  0  0
    1.8767  -16.3170    3.3885 H   0  0  0  0  0  0  0  0  0  0  0  0
   -0.6820  -12.4280    2.7110 H   0  0  0  0  0  0  0  0  0  0  0  0
   -1.2470  -10.1178    2.3688 H   0  0  0  0  0  0  0  0  0  0  0  0
   -0.4498  -10.1854    0.7604 H   0  0  0  0  0  0  0  0  0  0  0  0
   -2.3806   -9.4149   -0.5443 H   0  0  0  0  0  0  0  0  0  0  0  0
   -4.5610  -10.0223   -1.5227 H   0  0  0  0  0  0  0  0  0  0  0  0
   -4.9195  -13.3288    1.0405 H   0  0  0  0  0  0  0  0  0  0  0  0
   -2.7507  -12.8291    2.1007 H   0  0  0  0  0  0  0  0  0  0  0  0
    4.1479  -13.2658   -2.3609 H   0  0  0  0  0  0  0  0  0  0  0  0
    7.0650  -12.4560   -5.9510 H   0  0  0  0  0  0  0  0  0  0  0  0
    6.4319  -12.1019   -8.9642 H   0  0  0  0  0  0  0  0  0  0  0  0
    7.8107  -15.8600  -10.6171 H   0  0  0  0  0  0  0  0  0  0  0  0
    7.7677  -16.8727   -8.3396 H   0  0  0  0  0  0  0  0  0  0  0  0
  1  2  2  0
  2  3  1  0
  3  4  1  0
  4  5  2  0
  5  6  1  0
  6  7  2  0
  7  8  1  0
  8  9  1  0
  9 10  2  0
 10 11  1  0
 11 12  1  0
 12 13  2  0
 13 14  1  0
 14 15  2  0
 15 16  1  0
 16 17  1  0
 17 18  1  0
 18 19  1  0
 19 20  2  0
 20 21  1  0
 21 22  2  0
 22 23  1  0
 23 24  2  0
 16 25  2  0
  8 26  2  0
  2 27  1  0
 27 28  1  0
 28 29  2  0
 29 30  1  0
 30 31  1  0
 31 32  1  0
 31 33  1  0
 31 34  1  0
 30 35  2  0
 35 36  1  0
 36 37  2  0
 37 38  1  0
 26  4  1  0
 37 28  1  0
 25  9  1  0
 15 11  1  0
 24 19  1  0
  3 39  1  0
  5 40  1  0
  6 41  1  0
  7 42  1  0
 10 43  1  0
 12 44  1  0
 13 45  1  0
 17 46  1  0
 18 47  1  0
 18 48  1  0
 20 49  1  0
 21 50  1  0
 23 51  1  0
 24 52  1  0
 26 53  1  0
 27 54  1  0
 29 55  1  0
 35 56  1  0
 36 57  1  0
M  END
>  <meeko>  (1) 
{"is_sidechain": [false], "free_energy": -9.946, "intermolecular_energy": -13.435, "internal_energy": -1.233}

$$$$
LIB_DWDRUDUATUOJND__M_PUB_ALL__e8__s20260927
     RDKit          3D

 57 61  0  0  0  0  0  0  0  0999 V2000
    7.0180  -11.0510   -2.3000 O   0  0  0  0  0  0  0  0  0  0  0  0
    6.7790  -12.2450   -2.1810 C   0  0  0  0  0  0  0  0  0  0  0  0
    5.5090  -12.8040   -2.1750 N   0  0  0  0  0  0  0  0  0  0  0  0
    4.2690  -12.1290   -2.1960 C   0  0  0  0  0  0  0  0  0  0  0  0
    3.9100  -11.4930   -3.3900 C   0  0  0  0  0  0  0  0  0  0  0  0
    2.6990  -10.8080   -3.4930 C   0  0  0  0  0  0  0  0  0  0  0  0
    1.8360  -10.7520   -2.4000 C   0  0  0  0  0  0  0  0  0  0  0  0
    2.1720  -11.3750   -1.1890 C   0  0  0  0  0  0  0  0  0  0  0  0
    1.2270  -11.3110   -0.0460 C   0  0  0  0  0  0  0  0  0  0  0  0
    0.4950  -10.1940    0.1600 C   0  0  0  0  0  0  0  0  0  0  0  0
   -0.3800  -10.1740    1.2240 N   0  0  0  0  0  0  0  0  0  0  0  0
   -1.2390   -9.2190    1.6940 C   0  0  0  0  0  0  0  0  0  0  0  0
   -1.8460   -9.7930    2.7920 C   0  0  0  0  0  0  0  0  0  0  0  0
   -1.3850  -11.0720    3.0070 N   0  0  0  0  0  0  0  0  0  0  0  0
   -0.5060  -11.2600    2.0430 C   0  0  0  0  0  0  0  0  0  0  0  0
    0.2920  -12.4430    1.7790 C   0  0  0  0  0  0  0  0  0  0  0  0
    0.1820  -13.5490    2.5850 N   0  0  0  0  0  0  0  0  0  0  0  0
    0.9490  -14.7520    2.4150 C   0  0  0  0  0  0  0  0  0  0  0  0
    0.0210  -15.9380    2.3700 C   0  0  0  0  0  0  0  0  0  0  0  0
   -0.2160  -16.7040    3.5150 C   0  0  0  0  0  0  0  0  0  0  0  0
   -1.0570  -17.8010    3.4180 C   0  0  0  0  0  0  0  0  0  0  0  0
   -1.6620  -18.1840    2.2730 N   0  0  0  0  0  0  0  0  0  0  0  0
   -1.4080  -17.4410    1.1750 C   0  0  0  0  0  0  0  0  0  0  0  0
   -0.5830  -16.3280    1.1710 C   0  0  0  0  0  0  0  0  0  0  0  0
    1.1200  -12.4440    0.7580 N   0  0  0  0  0  0  0  0  0  0  0  0
    3.3890  -12.0760   -1.1100 C   0  0  0  0  0  0  0  0  0  0  0  0
    7.7410  -13.2300   -2.0390 N   0  0  0  0  0  0  0  0  0  0  0  0
    9.1510  -13.0940   -2.0640 C   0  0  0  0  0  0  0  0  0  0  0  0
    9.9010  -12.6460   -0.9710 C   0  0  0  0  0  0  0  0  0  0  0  0
   11.3010  -12.5240   -1.0500 C   0  0  0  0  0  0  0  0  0  0  0  0
   12.0850  -12.0550    0.1550 C   0  0  0  0  0  0  0  0  0  0  0  0
   13.1230  -11.2380   -0.1740 F   0  0  0  0  0  0  0  0  0  0  0  0
   12.6320  -13.0790    0.8690 F   0  0  0  0  0  0  0  0  0  0  0  0
   11.3160  -11.3580    1.0330 F   0  0  0  0  0  0  0  0  0  0  0  0
   11.9530  -12.8690   -2.2430 C   0  0  0  0  0  0  0  0  0  0  0  0
   11.2190  -13.3120   -3.3420 C   0  0  0  0  0  0  0  0  0  0  0  0
    9.8290  -13.4220   -3.2530 C   0  0  0  0  0  0  0  0  0  0  0  0
    8.9650  -13.9750   -4.6480 Cl  0  0  0  0  0  0  0  0  0  0  0  0
    5.4600  -13.8100   -2.2210 H   0  0  0  0  0  0  0  0  0  0  0  0
    4.5886  -11.5336   -4.2548 H   0  0  0  0  0  0  0  0  0  0  0  0
    2.4255  -10.3124   -4.4362 H   0  0  0  0  0  0  0  0  0  0  0  0
    0.8810  -10.2134   -2.4880 H   0  0  0  0  0  0  0  0  0  0  0  0
    0.5951   -9.3232   -0.5046 H   0  0  0  0  0  0  0  0  0  0  0  0
   -1.4090   -8.2120    1.2853 H   0  0  0  0  0  0  0  0  0  0  0  0
   -2.6015   -9.2927    3.4156 H   0  0  0  0  0  0  0  0  0  0  0  0
   -0.4700  -13.4860    3.3610 H   0  0  0  0  0  0  0  0  0  0  0  0
    1.5167  -14.6949    1.4745 H   0  0  0  0  0  0  0  0  0  0  0  0
    1.6462  -14.8642    3.2584 H   0  0  0  0  0  0  0  0  0  0  0  0
    0.2555  -16.4413    4.4735 H   0  0  0  0  0  0  0  0  0  0  0  0
   -1.2425  -18.3939    4.3258 H   0  0  0  0  0  0  0  0  0  0  0  0
   -1.8838  -17.7365    0.2282 H   0  0  0  0  0  0  0  0  0  0  0  0
   -0.4069  -15.7630    0.2438 H   0  0  0  0  0  0  0  0  0  0  0  0
    3.6539  -12.5927   -0.1757 H   0  0  0  0  0  0  0  0  0  0  0  0
    7.4150  -14.1680   -1.8460 H   0  0  0  0  0  0  0  0  0  0  0  0
    9.3877  -12.3847   -0.0339 H   0  0  0  0  0  0  0  0  0  0  0  0
   13.0480  -12.7896   -2.3116 H   0  0  0  0  0  0  0  0  0  0  0  0
   11.7334  -13.5747   -4.2782 H   0  0  0  0  0  0  0  0  0  0  0  0
  1  2  2  0
  2  3  1  0
  3  4  1  0
  4  5  2  0
  5  6  1  0
  6  7  2  0
  7  8  1  0
  8  9  1  0
  9 10  2  0
 10 11  1  0
 11 12  1  0
 12 13  2  0
 13 14  1  0
 14 15  2  0
 15 16  1  0
 16 17  1  0
 17 18  1  0
 18 19  1  0
 19 20  2  0
 20 21  1  0
 21 22  2  0
 22 23  1  0
 23 24  2  0
 16 25  2  0
  8 26  2  0
  2 27  1  0
 27 28  1  0
 28 29  2  0
 29 30  1  0
 30 31  1  0
 31 32  1  0
 31 33  1  0
 31 34  1  0
 30 35  2  0
 35 36  1  0
 36 37  2  0
 37 38  1  0
 26  4  1  0
 37 28  1  0
 25  9  1  0
 15 11  1  0
 24 19  1  0
  3 39  1  0
  5 40  1  0
  6 41  1  0
  7 42  1  0
 10 43  1  0
 12 44  1  0
 13 45  1  0
 17 46  1  0
 18 47  1  0
 18 48  1  0
 20 49  1  0
 21 50  1  0
 23 51  1  0
 24 52  1  0
 26 53  1  0
 27 54  1  0
 29 55  1  0
 35 56  1  0
 36 57  1  0
M  END
>  <meeko>  (2) 
{"is_sidechain": [false], "free_energy": -9.041, "intermolecular_energy": -12.387, "internal_energy": -1.057}

$$$$
LIB_DWDRUDUATUOJND__M_PUB_ALL__e8__s20260927
     RDKit          3D

 57 61  0  0  0  0  0  0  0  0999 V2000
    7.0300  -10.7020   -1.3150 O   0  0  0  0  0  0  0  0  0  0  0  0
    6.9610  -11.9020   -1.5430 C   0  0  0  0  0  0  0  0  0  0  0  0
    5.8160  -12.5670   -1.9590 N   0  0  0  0  0  0  0  0  0  0  0  0
    4.5140  -12.0390   -2.0970 C   0  0  0  0  0  0  0  0  0  0  0  0
    4.1720  -11.5060   -3.3460 C   0  0  0  0  0  0  0  0  0  0  0  0
    2.9030  -10.9690   -3.5650 C   0  0  0  0  0  0  0  0  0  0  0  0
    1.9650  -10.9580   -2.5340 C   0  0  0  0  0  0  0  0  0  0  0  0
    2.2820  -11.4800   -1.2720 C   0  0  0  0  0  0  0  0  0  0  0  0
    1.2570  -11.4680   -0.1960 C   0  0  0  0  0  0  0  0  0  0  0  0
    0.6580  -10.3080    0.1500 C   0  0  0  0  0  0  0  0  0  0  0  0
   -0.2960  -10.3370    1.1430 N   0  0  0  0  0  0  0  0  0  0  0  0
   -1.0640   -9.3590    1.7130 C   0  0  0  0  0  0  0  0  0  0  0  0
   -1.8310  -10.0110    2.6560 C   0  0  0  0  0  0  0  0  0  0  0  0
   -1.5570  -11.3590    2.6790 N   0  0  0  0  0  0  0  0  0  0  0  0
   -0.6290  -11.5110    1.7560 C   0  0  0  0  0  0  0  0  0  0  0  0
    0.0320  -12.7360    1.3450 C   0  0  0  0  0  0  0  0  0  0  0  0
   -0.2860  -13.9310    1.9430 N   0  0  0  0  0  0  0  0  0  0  0  0
    0.3330  -15.1860    1.6200 C   0  0  0  0  0  0  0  0  0  0  0  0
   -0.4320  -16.3080    2.2720 C   0  0  0  0  0  0  0  0  0  0  0  0
   -1.5330  -16.8890    1.6340 C   0  0  0  0  0  0  0  0  0  0  0  0
   -2.2190  -17.9010    2.2860 C   0  0  0  0  0  0  0  0  0  0  0  0
   -1.8920  -18.3620    3.5120 N   0  0  0  0  0  0  0  0  0  0  0  0
   -0.8370  -17.7770    4.1180 C   0  0  0  0  0  0  0  0  0  0  0  0
   -0.0880  -16.7590    3.5490 C   0  0  0  0  0  0  0  0  0  0  0  0
    0.9380  -12.6890    0.3950 N   0  0  0  0  0  0  0  0  0  0  0  0
    3.5600  -12.0340   -1.0750 C   0  0  0  0  0  0  0  0  0  0  0  0
    8.0180  -12.7880   -1.4280 N   0  0  0  0  0  0  0  0  0  0  0  0
    9.3680  -12.5090   -1.1000 C   0  0  0  0  0  0  0  0  0  0  0  0
   10.4100  -12.5380   -2.0330 C   0  0  0  0  0  0  0  0  0  0  0  0
   11.7370  -12.2580   -1.6520 C   0  0  0  0  0  0  0  0  0  0  0  0
   12.8370  -12.2800   -2.6890 C   0  0  0  0  0  0  0  0  0  0  0  0
   12.4460  -11.7670   -3.8870 F   0  0  0  0  0  0  0  0  0  0  0  0
   13.2950  -13.5360   -2.9560 F   0  0  0  0  0  0  0  0  0  0  0  0
   13.9260  -11.5620   -2.3040 F   0  0  0  0  0  0  0  0  0  0  0  0
   12.0120  -11.9330   -0.3160 C   0  0  0  0  0  0  0  0  0  0  0  0
   10.9850  -11.9040    0.6260 C   0  0  0  0  0  0  0  0  0  0  0  0
    9.6750  -12.1910    0.2370 C   0  0  0  0  0  0  0  0  0  0  0  0
    8.4370  -12.1430    1.4480 Cl  0  0  0  0  0  0  0  0  0  0  0  0
    5.9340  -13.5240   -2.2550 H   0  0  0  0  0  0  0  0  0  0  0  0
    4.9102  -11.5107   -4.1615 H   0  0  0  0  0  0  0  0  0  0  0  0
    2.6430  -10.5547   -4.5503 H   0  0  0  0  0  0  0  0  0  0  0  0
    0.9653  -10.5352   -2.7125 H   0  0  0  0  0  0  0  0  0  0  0  0
    0.9252   -9.3645   -0.3484 H   0  0  0  0  0  0  0  0  0  0  0  0
   -1.0689   -8.2858    1.4718 H   0  0  0  0  0  0  0  0  0  0  0  0
   -2.5675   -9.5164    3.3064 H   0  0  0  0  0  0  0  0  0  0  0  0
   -0.9900  -13.9020    2.6740 H   0  0  0  0  0  0  0  0  0  0  0  0
    0.3297  -15.3260    0.5289 H   0  0  0  0  0  0  0  0  0  0  0  0
    1.3697  -15.1880    1.9878 H   0  0  0  0  0  0  0  0  0  0  0  0
   -1.8475  -16.5497    0.6360 H   0  0  0  0  0  0  0  0  0  0  0  0
   -3.0805  -18.3554    1.7747 H   0  0  0  0  0  0  0  0  0  0  0  0
   -0.5555  -18.1286    5.1215 H   0  0  0  0  0  0  0  0  0  0  0  0
    0.7598  -16.3153    4.0915 H   0  0  0  0  0  0  0  0  0  0  0  0
    3.8136  -12.4716   -0.0982 H   0  0  0  0  0  0  0  0  0  0  0  0
    7.8110  -13.7700   -1.5440 H   0  0  0  0  0  0  0  0  0  0  0  0
   10.1893  -12.7837   -3.0823 H   0  0  0  0  0  0  0  0  0  0  0  0
   13.0426  -11.6999   -0.0100 H   0  0  0  0  0  0  0  0  0  0  0  0
   11.2062  -11.6554    1.6744 H   0  0  0  0  0  0  0  0  0  0  0  0
  1  2  2  0
  2  3  1  0
  3  4  1  0
  4  5  2  0
  5  6  1  0
  6  7  2  0
  7  8  1  0
  8  9  1  0
  9 10  2  0
 10 11  1  0
 11 12  1  0
 12 13  2  0
 13 14  1  0
 14 15  2  0
 15 16  1  0
 16 17  1  0
 17 18  1  0
 18 19  1  0
 19 20  2  0
 20 21  1  0
 21 22  2  0
 22 23  1  0
 23 24  2  0
 16 25  2  0
  8 26  2  0
  2 27  1  0
 27 28  1  0
 28 29  2  0
 29 30  1  0
 30 31  1  0
 31 32  1  0
 31 33  1  0
 31 34  1  0
 30 35  2  0
 35 36  1  0
 36 37  2  0
 37 38  1  0
 26  4  1  0
 37 28  1  0
 25  9  1  0
 15 11  1  0
 24 19  1  0
  3 39  1  0
  5 40  1  0
  6 41  1  0
  7 42  1  0
 10 43  1  0
 12 44  1  0
 13 45  1  0
 17 46  1  0
 18 47  1  0
 18 48  1  0
 20 49  1  0
 21 50  1  0
 23 51  1  0
 24 52  1  0
 26 53  1  0
 27 54  1  0
 29 55  1  0
 35 56  1  0
 36 57  1  0
M  END
>  <meeko>  (3) 
{"is_sidechain": [false], "free_energy": -9.027, "intermolecular_energy": -12.493, "internal_energy": -0.934}

$$$$
LIB_DWDRUDUATUOJND__M_PUB_ALL__e8__s20260927
     RDKit          3D

 57 61  0  0  0  0  0  0  0  0999 V2000
    8.3440  -12.0430   -0.7440 O   0  0  0  0  0  0  0  0  0  0  0  0
    8.7390  -13.1120   -0.2970 C   0  0  0  0  0  0  0  0  0  0  0  0
    7.9270  -14.0860    0.2670 N   0  0  0  0  0  0  0  0  0  0  0  0
    6.5430  -14.0080    0.5330 C   0  0  0  0  0  0  0  0  0  0  0  0
    6.1610  -13.7690    1.8580 C   0  0  0  0  0  0  0  0  0  0  0  0
    4.8120  -13.6730    2.2030 C   0  0  0  0  0  0  0  0  0  0  0  0
    3.8320  -13.8190    1.2220 C   0  0  0  0  0  0  0  0  0  0  0  0
    4.1850  -14.0640   -0.1130 C   0  0  0  0  0  0  0  0  0  0  0  0
    3.1200  -14.2000   -1.1380 C   0  0  0  0  0  0  0  0  0  0  0  0
    3.3990  -13.9500   -2.4370 C   0  0  0  0  0  0  0  0  0  0  0  0
    2.3900  -14.0970   -3.3620 N   0  0  0  0  0  0  0  0  0  0  0  0
    2.3480  -13.9220   -4.7180 C   0  0  0  0  0  0  0  0  0  0  0  0
    1.0520  -14.2260   -5.0780 C   0  0  0  0  0  0  0  0  0  0  0  0
    0.2990  -14.5850   -3.9840 N   0  0  0  0  0  0  0  0  0  0  0  0
    1.1410  -14.4930   -2.9740 C   0  0  0  0  0  0  0  0  0  0  0  0
    0.8880  -14.7610   -1.5700 C   0  0  0  0  0  0  0  0  0  0  0  0
   -0.3580  -15.1630   -1.1540 N   0  0  0  0  0  0  0  0  0  0  0  0
   -0.7060  -15.4260    0.2140 C   0  0  0  0  0  0  0  0  0  0  0  0
   -1.6070  -14.3320    0.7240 C   0  0  0  0  0  0  0  0  0  0  0  0
   -1.1710  -13.4510    1.7190 C   0  0  0  0  0  0  0  0  0  0  0  0
   -2.0460  -12.4770    2.1740 C   0  0  0  0  0  0  0  0  0  0  0  0
   -3.3080  -12.3280    1.7160 N   0  0  0  0  0  0  0  0  0  0  0  0
   -3.7150  -13.1980    0.7670 C   0  0  0  0  0  0  0  0  0  0  0  0
   -2.9160  -14.2050    0.2490 C   0  0  0  0  0  0  0  0  0  0  0  0
    1.8640  -14.6160   -0.7020 N   0  0  0  0  0  0  0  0  0  0  0  0
    5.5510  -14.1390   -0.4430 C   0  0  0  0  0  0  0  0  0  0  0  0
   10.0610  -13.5210   -0.2900 N   0  0  0  0  0  0  0  0  0  0  0  0
   11.1910  -12.8580   -0.8290 C   0  0  0  0  0  0  0  0  0  0  0  0
   11.8120  -13.2420   -2.0230 C   0  0  0  0  0  0  0  0  0  0  0  0
   12.9370  -12.5500   -2.5130 C   0  0  0  0  0  0  0  0  0  0  0  0
   13.5740  -12.9780   -3.8150 C   0  0  0  0  0  0  0  0  0  0  0  0
   13.8240  -14.3150   -3.8680 F   0  0  0  0  0  0  0  0  0  0  0  0
   14.7700  -12.3690   -4.0510 F   0  0  0  0  0  0  0  0  0  0  0  0
   12.7940  -12.6940   -4.8920 F   0  0  0  0  0  0  0  0  0  0  0  0
   13.4330  -11.4520   -1.7940 C   0  0  0  0  0  0  0  0  0  0  0  0
   12.8270  -11.0610   -0.6010 C   0  0  0  0  0  0  0  0  0  0  0  0
   11.7170  -11.7600   -0.1230 C   0  0  0  0  0  0  0  0  0  0  0  0
   11.0040  -11.2340    1.3650 Cl  0  0  0  0  0  0  0  0  0  0  0  0
    8.3590  -14.9770    0.4570 H   0  0  0  0  0  0  0  0  0  0  0  0
    6.9313  -13.6557    2.6350 H   0  0  0  0  0  0  0  0  0  0  0  0
    4.5225  -13.4825    3.2470 H   0  0  0  0  0  0  0  0  0  0  0  0
    2.7701  -13.7411    1.4983 H   0  0  0  0  0  0  0  0  0  0  0  0
    4.4069  -13.6370   -2.7471 H   0  0  0  0  0  0  0  0  0  0  0  0
    3.1697  -13.6071   -5.3780 H   0  0  0  0  0  0  0  0  0  0  0  0
    0.6691  -14.1865   -6.1085 H   0  0  0  0  0  0  0  0  0  0  0  0
   -1.0720  -15.2520   -1.8700 H   0  0  0  0  0  0  0  0  0  0  0  0
   -1.2287  -16.3916    0.2799 H   0  0  0  0  0  0  0  0  0  0  0  0
    0.2087  -15.4608    0.8240 H   0  0  0  0  0  0  0  0  0  0  0  0
   -0.1545  -13.5295    2.1320 H   0  0  0  0  0  0  0  0  0  0  0  0
   -1.6923  -11.7855    2.9529 H   0  0  0  0  0  0  0  0  0  0  0  0
   -4.7411  -13.1019    0.3824 H   0  0  0  0  0  0  0  0  0  0  0  0
   -3.3034  -14.8899   -0.5196 H   0  0  0  0  0  0  0  0  0  0  0  0
    5.8440  -14.3041   -1.4903 H   0  0  0  0  0  0  0  0  0  0  0  0
   10.2740  -14.3800    0.1990 H   0  0  0  0  0  0  0  0  0  0  0  0
   11.4151  -14.0982   -2.5881 H   0  0  0  0  0  0  0  0  0  0  0  0
   14.3039  -10.8973   -2.1733 H   0  0  0  0  0  0  0  0  0  0  0  0
   13.2227  -10.2033   -0.0373 H   0  0  0  0  0  0  0  0  0  0  0  0
  1  2  2  0
  2  3  1  0
  3  4  1  0
  4  5  2  0
  5  6  1  0
  6  7  2  0
  7  8  1  0
  8  9  1  0
  9 10  2  0
 10 11  1  0
 11 12  1  0
 12 13  2  0
 13 14  1  0
 14 15  2  0
 15 16  1  0
 16 17  1  0
 17 18  1  0
 18 19  1  0
 19 20  2  0
 20 21  1  0
 21 22  2  0
 22 23  1  0
 23 24  2  0
 16 25  2  0
  8 26  2  0
  2 27  1  0
 27 28  1  0
 28 29  2  0
 29 30  1  0
 30 31  1  0
 31 32  1  0
 31 33  1  0
 31 34  1  0
 30 35  2  0
 35 36  1  0
 36 37  2  0
 37 38  1  0
 26  4  1  0
 37 28  1  0
 25  9  1  0
 15 11  1  0
 24 19  1  0
  3 39  1  0
  5 40  1  0
  6 41  1  0
  7 42  1  0
 10 43  1  0
 12 44  1  0
 13 45  1  0
 17 46  1  0
 18 47  1  0
 18 48  1  0
 20 49  1  0
 21 50  1  0
 23 51  1  0
 24 52  1  0
 26 53  1  0
 27 54  1  0
 29 55  1  0
 35 56  1  0
 36 57  1  0
M  END
>  <meeko>  (4) 
{"is_sidechain": [false], "free_energy": -9.018, "intermolecular_energy": -12.293, "internal_energy": -1.122}

$$$$
LIB_DWDRUDUATUOJND__M_PUB_ALL__e8__s20260927
     RDKit          3D

 57 61  0  0  0  0  0  0  0  0999 V2000
    9.2900  -12.0130   -2.2690 O   0  0  0  0  0  0  0  0  0  0  0  0
    9.7350  -12.7470   -1.3950 C   0  0  0  0  0  0  0  0  0  0  0  0
    9.0070  -13.2330   -0.3190 N   0  0  0  0  0  0  0  0  0  0  0  0
    7.6810  -12.9100    0.0420 C   0  0  0  0  0  0  0  0  0  0  0  0
    7.4960  -12.2350    1.2540 C   0  0  0  0  0  0  0  0  0  0  0  0
    6.2170  -11.8760    1.6800 C   0  0  0  0  0  0  0  0  0  0  0  0
    5.1080  -12.1940    0.8960 C   0  0  0  0  0  0  0  0  0  0  0  0
    5.2630  -12.8750   -0.3200 C   0  0  0  0  0  0  0  0  0  0  0  0
    4.0650  -13.1880   -1.1410 C   0  0  0  0  0  0  0  0  0  0  0  0
    4.2030  -13.4490   -2.4600 C   0  0  0  0  0  0  0  0  0  0  0  0
    3.0710  -13.7460   -3.1880 N   0  0  0  0  0  0  0  0  0  0  0  0
    2.8760  -14.0460   -4.5080 C   0  0  0  0  0  0  0  0  0  0  0  0
    1.5170  -14.2480   -4.6320 C   0  0  0  0  0  0  0  0  0  0  0  0
    0.8750  -14.0820   -3.4260 N   0  0  0  0  0  0  0  0  0  0  0  0
    1.8450  -13.7820   -2.5870 C   0  0  0  0  0  0  0  0  0  0  0  0
    1.7450  -13.5050   -1.1650 C   0  0  0  0  0  0  0  0  0  0  0  0
    0.5250  -13.5370   -0.5360 N   0  0  0  0  0  0  0  0  0  0  0  0
    0.3280  -13.2530    0.8580 C   0  0  0  0  0  0  0  0  0  0  0  0
   -0.1680  -11.8390    1.0190 C   0  0  0  0  0  0  0  0  0  0  0  0
   -1.5220  -11.5780    1.2520 C   0  0  0  0  0  0  0  0  0  0  0  0
   -1.9330  -10.2600    1.3680 C   0  0  0  0  0  0  0  0  0  0  0  0
   -1.1020   -9.2010    1.2630 N   0  0  0  0  0  0  0  0  0  0  0  0
    0.1980   -9.4740    1.0210 C   0  0  0  0  0  0  0  0  0  0  0  0
    0.7060  -10.7560    0.8900 C   0  0  0  0  0  0  0  0  0  0  0  0
    2.8360  -13.2250   -0.4870 N   0  0  0  0  0  0  0  0  0  0  0  0
    6.5620  -13.2120   -0.7410 C   0  0  0  0  0  0  0  0  0  0  0  0
   11.0370  -13.2120   -1.3470 N   0  0  0  0  0  0  0  0  0  0  0  0
   12.0800  -13.0100   -2.2850 C   0  0  0  0  0  0  0  0  0  0  0  0
   12.2450  -13.7920   -3.4340 C   0  0  0  0  0  0  0  0  0  0  0  0
   13.3030  -13.5510   -4.3320 C   0  0  0  0  0  0  0  0  0  0  0  0
   13.4440  -14.4020   -5.5740 C   0  0  0  0  0  0  0  0  0  0  0  0
   12.9070  -13.8170   -6.6800 F   0  0  0  0  0  0  0  0  0  0  0  0
   12.8310  -15.6140   -5.4630 F   0  0  0  0  0  0  0  0  0  0  0  0
   14.7430  -14.6680   -5.8750 F   0  0  0  0  0  0  0  0  0  0  0  0
   14.1970  -12.5020   -4.0730 C   0  0  0  0  0  0  0  0  0  0  0  0
   14.0470  -11.7170   -2.9300 C   0  0  0  0  0  0  0  0  0  0  0  0
   12.9990  -11.9710   -2.0440 C   0  0  0  0  0  0  0  0  0  0  0  0
   12.8600  -10.9680   -0.6390 Cl  0  0  0  0  0  0  0  0  0  0  0  0
    9.4520  -13.9440    0.2410 H   0  0  0  0  0  0  0  0  0  0  0  0
    8.3676  -11.9851    1.8768 H   0  0  0  0  0  0  0  0  0  0  0  0
    6.0833  -11.3429    2.6328 H   0  0  0  0  0  0  0  0  0  0  0  0
    4.1015  -11.9076    1.2351 H   0  0  0  0  0  0  0  0  0  0  0  0
    5.1926  -13.4250   -2.9397 H   0  0  0  0  0  0  0  0  0  0  0  0
    3.6375  -14.1119   -5.2991 H   0  0  0  0  0  0  0  0  0  0  0  0
    1.0115  -14.5083   -5.5737 H   0  0  0  0  0  0  0  0  0  0  0  0
   -0.2810  -13.7540   -1.1140 H   0  0  0  0  0  0  0  0  0  0  0  0
   -0.4141  -13.9510    1.2728 H   0  0  0  0  0  0  0  0  0  0  0  0
    1.2817  -13.3696    1.3936 H   0  0  0  0  0  0  0  0  0  0  0  0
   -2.2455  -12.4018    1.3413 H   0  0  0  0  0  0  0  0  0  0  0  0
   -2.9990  -10.0648    1.5567 H   0  0  0  0  0  0  0  0  0  0  0  0
    0.8947   -8.6285    0.9220 H   0  0  0  0  0  0  0  0  0  0  0  0
    1.7752  -10.9183    0.6886 H   0  0  0  0  0  0  0  0  0  0  0  0
    6.7007  -13.7232   -1.7051 H   0  0  0  0  0  0  0  0  0  0  0  0
   11.3120  -13.7270   -0.5220 H   0  0  0  0  0  0  0  0  0  0  0  0
   11.5367  -14.6083   -3.6391 H   0  0  0  0  0  0  0  0  0  0  0  0
   15.0197  -12.2975   -4.7740 H   0  0  0  0  0  0  0  0  0  0  0  0
   14.7537  -10.8988   -2.7271 H   0  0  0  0  0  0  0  0  0  0  0  0
  1  2  2  0
  2  3  1  0
  3  4  1  0
  4  5  2  0
  5  6  1  0
  6  7  2  0
  7  8  1  0
  8  9  1  0
  9 10  2  0
 10 11  1  0
 11 12  1  0
 12 13  2  0
 13 14  1  0
 14 15  2  0
 15 16  1  0
 16 17  1  0
 17 18  1  0
 18 19  1  0
 19 20  2  0
 20 21  1  0
 21 22  2  0
 22 23  1  0
 23 24  2  0
 16 25  2  0
  8 26  2  0
  2 27  1  0
 27 28  1  0
 28 29  2  0
 29 30  1  0
 30 31  1  0
 31 32  1  0
 31 33  1  0
 31 34  1  0
 30 35  2  0
 35 36  1  0
 36 37  2  0
 37 38  1  0
 26  4  1  0
 37 28  1  0
 25  9  1  0
 15 11  1  0
 24 19  1  0
  3 39  1  0
  5 40  1  0
  6 41  1  0
  7 42  1  0
 10 43  1  0
 12 44  1  0
 13 45  1  0
 17 46  1  0
 18 47  1  0
 18 48  1  0
 20 49  1  0
 21 50  1  0
 23 51  1  0
 24 52  1  0
 26 53  1  0
 27 54  1  0
 29 55  1  0
 35 56  1  0
 36 57  1  0
M  END
>  <meeko>  (5) 
{"is_sidechain": [false], "free_energy": -9.013, "intermolecular_energy": -12.254, "internal_energy": -1.154}

$$$$
LIB_DWDRUDUATUOJND__M_PUB_ALL__e8__s20260927
     RDKit          3D

 57 61  0  0  0  0  0  0  0  0999 V2000
    9.3500  -12.0950   -2.2980 O   0  0  0  0  0  0  0  0  0  0  0  0
    9.8350  -12.6730   -1.3340 C   0  0  0  0  0  0  0  0  0  0  0  0
    9.1300  -13.0650   -0.2050 N   0  0  0  0  0  0  0  0  0  0  0  0
    7.7790  -12.7950    0.1040 C   0  0  0  0  0  0  0  0  0  0  0  0
    7.5250  -12.0940    1.2890 C   0  0  0  0  0  0  0  0  0  0  0  0
    6.2170  -11.7840    1.6640 C   0  0  0  0  0  0  0  0  0  0  0  0
    5.1500  -12.1770    0.8570 C   0  0  0  0  0  0  0  0  0  0  0  0
    5.3750  -12.8850   -0.3320 C   0  0  0  0  0  0  0  0  0  0  0  0
    4.2200  -13.2790   -1.1790 C   0  0  0  0  0  0  0  0  0  0  0  0
    3.2600  -14.0860   -0.6760 C   0  0  0  0  0  0  0  0  0  0  0  0
    2.1980  -14.4210   -1.4870 N   0  0  0  0  0  0  0  0  0  0  0  0
    1.0930  -15.2010   -1.2840 C   0  0  0  0  0  0  0  0  0  0  0  0
    0.3950  -15.1480   -2.4730 C   0  0  0  0  0  0  0  0  0  0  0  0
    1.0380  -14.3570   -3.3960 N   0  0  0  0  0  0  0  0  0  0  0  0
    2.1170  -13.9410   -2.7630 C   0  0  0  0  0  0  0  0  0  0  0  0
    3.1640  -13.0670   -3.2590 C   0  0  0  0  0  0  0  0  0  0  0  0
    3.1060  -12.5690   -4.5370 N   0  0  0  0  0  0  0  0  0  0  0  0
    4.1070  -11.7200   -5.1200 C   0  0  0  0  0  0  0  0  0  0  0  0
    5.0500  -12.5510   -5.9520 C   0  0  0  0  0  0  0  0  0  0  0  0
    5.1310  -12.3690   -7.3360 C   0  0  0  0  0  0  0  0  0  0  0  0
    5.9940  -13.1750   -8.0620 C   0  0  0  0  0  0  0  0  0  0  0  0
    6.7640  -14.1370   -7.5110 N   0  0  0  0  0  0  0  0  0  0  0  0
    6.6600  -14.3080   -6.1760 C   0  0  0  0  0  0  0  0  0  0  0  0
    5.8270  -13.5530   -5.3650 C   0  0  0  0  0  0  0  0  0  0  0  0
    4.1690  -12.7580   -2.4700 N   0  0  0  0  0  0  0  0  0  0  0  0
    6.7010  -13.1720   -0.7030 C   0  0  0  0  0  0  0  0  0  0  0  0
   11.1670  -13.0320   -1.2200 N   0  0  0  0  0  0  0  0  0  0  0  0
   12.2040  -12.8790   -2.1730 C   0  0  0  0  0  0  0  0  0  0  0  0
   12.3530  -13.7090   -3.2900 C   0  0  0  0  0  0  0  0  0  0  0  0
   13.4070  -13.5160   -4.2040 C   0  0  0  0  0  0  0  0  0  0  0  0
   13.5290  -14.4180   -5.4110 C   0  0  0  0  0  0  0  0  0  0  0  0
   14.8200  -14.6330   -5.7830 F   0  0  0  0  0  0  0  0  0  0  0  0
   12.9040  -13.9210   -6.5160 F   0  0  0  0  0  0  0  0  0  0  0  0
   12.9850  -15.6460   -5.1970 F   0  0  0  0  0  0  0  0  0  0  0  0
   14.3130  -12.4670   -3.9940 C   0  0  0  0  0  0  0  0  0  0  0  0
   14.1810  -11.6350   -2.8830 C   0  0  0  0  0  0  0  0  0  0  0  0
   13.1360  -11.8420   -1.9800 C   0  0  0  0  0  0  0  0  0  0  0  0
   13.0180  -10.7810   -0.6160 Cl  0  0  0  0  0  0  0  0  0  0  0  0
    9.6170  -13.6620    0.4450 H   0  0  0  0  0  0  0  0  0  0  0  0
    8.3637  -11.7849    1.9301 H   0  0  0  0  0  0  0  0  0  0  0  0
    6.0279  -11.2301    2.5954 H   0  0  0  0  0  0  0  0  0  0  0  0
    4.1210  -11.9290    1.1564 H   0  0  0  0  0  0  0  0  0  0  0  0
    3.3248  -14.4656    0.3544 H   0  0  0  0  0  0  0  0  0  0  0  0
    0.8201  -15.7510   -0.3713 H   0  0  0  0  0  0  0  0  0  0  0  0
   -0.5544  -15.6715   -2.6588 H   0  0  0  0  0  0  0  0  0  0  0  0
    2.3080  -12.8480   -5.1000 H   0  0  0  0  0  0  0  0  0  0  0  0
    3.6221  -10.9666   -5.7582 H   0  0  0  0  0  0  0  0  0  0  0  0
    4.6707  -11.2164   -4.3208 H   0  0  0  0  0  0  0  0  0  0  0  0
    4.5227  -11.6023   -7.8381 H   0  0  0  0  0  0  0  0  0  0  0  0
    6.0548  -13.0218   -9.1496 H   0  0  0  0  0  0  0  0  0  0  0  0
    7.2714  -15.0915   -5.7046 H   0  0  0  0  0  0  0  0  0  0  0  0
    5.7787  -13.7389   -4.2819 H   0  0  0  0  0  0  0  0  0  0  0  0
    6.8939  -13.7035   -1.6466 H   0  0  0  0  0  0  0  0  0  0  0  0
   11.4670  -13.4120   -0.3330 H   0  0  0  0  0  0  0  0  0  0  0  0
   11.6351  -14.5255   -3.4568 H   0  0  0  0  0  0  0  0  0  0  0  0
   15.1319  -12.2995   -4.7091 H   0  0  0  0  0  0  0  0  0  0  0  0
   14.8983  -10.8175   -2.7181 H   0  0  0  0  0  0  0  0  0  0  0  0
  1  2  2  0
  2  3  1  0
  3  4  1  0
  4  5  2  0
  5  6  1  0
  6  7  2  0
  7  8  1  0
  8  9  1  0
  9 10  2  0
 10 11  1  0
 11 12  1  0
 12 13  2  0
 13 14  1  0
 14 15  2  0
 15 16  1  0
 16 17  1  0
 17 18  1  0
 18 19  1  0
 19 20  2  0
 20 21  1  0
 21 22  2  0
 22 23  1  0
 23 24  2  0
 16 25  2  0
  8 26  2  0
  2 27  1  0
 27 28  1  0
 28 29  2  0
 29 30  1  0
 30 31  1  0
 31 32  1  0
 31 33  1  0
 31 34  1  0
 30 35  2  0
 35 36  1  0
 36 37  2  0
 37 38  1  0
 26  4  1  0
 37 28  1  0
 25  9  1  0
 15 11  1  0
 24 19  1  0
  3 39  1  0
  5 40  1  0
  6 41  1  0
  7 42  1  0
 10 43  1  0
 12 44  1  0
 13 45  1  0
 17 46  1  0
 18 47  1  0
 18 48  1  0
 20 49  1  0
 21 50  1  0
 23 51  1  0
 24 52  1  0
 26 53  1  0
 27 54  1  0
 29 55  1  0
 35 56  1  0
 36 57  1  0
M  END
>  <meeko>  (6) 
{"is_sidechain": [false], "free_energy": -8.846, "intermolecular_energy": -12.028, "internal_energy": -1.154}

$$$$
LIB_DWDRUDUATUOJND__M_PUB_ALL__e8__s20260927
     RDKit          3D

 57 61  0  0  0  0  0  0  0  0999 V2000
   -0.9790  -15.4050    2.9270 O   0  0  0  0  0  0  0  0  0  0  0  0
   -1.4690  -16.4360    2.4840 C   0  0  0  0  0  0  0  0  0  0  0  0
   -0.9670  -17.1580    1.4110 N   0  0  0  0  0  0  0  0  0  0  0  0
    0.1100  -16.8110    0.5670 C   0  0  0  0  0  0  0  0  0  0  0  0
    0.9980  -17.8330    0.2130 C   0  0  0  0  0  0  0  0  0  0  0  0
    2.0850  -17.5730   -0.6210 C   0  0  0  0  0  0  0  0  0  0  0  0
    2.2950  -16.2840   -1.1080 C   0  0  0  0  0  0  0  0  0  0  0  0
    1.4250  -15.2390   -0.7670 C   0  0  0  0  0  0  0  0  0  0  0  0
    1.6650  -13.8790   -1.3130 C   0  0  0  0  0  0  0  0  0  0  0  0
    2.2900  -13.7310   -2.5010 C   0  0  0  0  0  0  0  0  0  0  0  0
    2.4860  -12.4540   -2.9820 N   0  0  0  0  0  0  0  0  0  0  0  0
    3.0730  -11.9780   -4.1220 C   0  0  0  0  0  0  0  0  0  0  0  0
    2.9590  -10.6060   -4.0360 C   0  0  0  0  0  0  0  0  0  0  0  0
    2.3180  -10.2280   -2.8780 N   0  0  0  0  0  0  0  0  0  0  0  0
    2.0520  -11.3690   -2.2750 C   0  0  0  0  0  0  0  0  0  0  0  0
    1.3760  -11.5750   -1.0070 C   0  0  0  0  0  0  0  0  0  0  0  0
    0.9280  -10.5010   -0.2780 N   0  0  0  0  0  0  0  0  0  0  0  0
    0.2730  -10.6080    0.9960 C   0  0  0  0  0  0  0  0  0  0  0  0
   -1.1680  -11.0000    0.7910 C   0  0  0  0  0  0  0  0  0  0  0  0
   -1.6560  -12.2130    1.2860 C   0  0  0  0  0  0  0  0  0  0  0  0
   -2.9820  -12.5410    1.0500 C   0  0  0  0  0  0  0  0  0  0  0  0
   -3.8380  -11.7580    0.3600 N   0  0  0  0  0  0  0  0  0  0  0  0
   -3.3430  -10.5980   -0.1230 C   0  0  0  0  0  0  0  0  0  0  0  0
   -2.0340  -10.1820    0.0600 C   0  0  0  0  0  0  0  0  0  0  0  0
    1.1970  -12.8000   -0.5660 N   0  0  0  0  0  0  0  0  0  0  0  0
    0.3250  -15.5250    0.0610 C   0  0  0  0  0  0  0  0  0  0  0  0
   -2.6000  -17.0500    2.9920 N   0  0  0  0  0  0  0  0  0  0  0  0
   -3.3720  -16.6790    4.1210 C   0  0  0  0  0  0  0  0  0  0  0  0
   -4.5190  -15.8820    4.0420 C   0  0  0  0  0  0  0  0  0  0  0  0
   -5.2480  -15.5380    5.1970 C   0  0  0  0  0  0  0  0  0  0  0  0
   -6.4940  -14.6900    5.0750 C   0  0  0  0  0  0  0  0  0  0  0  0
   -7.5870  -15.4070    4.6970 F   0  0  0  0  0  0  0  0  0  0  0  0
   -6.3720  -13.6900    4.1580 F   0  0  0  0  0  0  0  0  0  0  0  0
   -6.8230  -14.0830    6.2460 F   0  0  0  0  0  0  0  0  0  0  0  0
   -4.8190  -16.0140    6.4440 C   0  0  0  0  0  0  0  0  0  0  0  0
   -3.6760  -16.8060    6.5400 C   0  0  0  0  0  0  0  0  0  0  0  0
   -2.9580  -17.1340    5.3880 C   0  0  0  0  0  0  0  0  0  0  0  0
   -1.5440  -18.1180    5.5620 Cl  0  0  0  0  0  0  0  0  0  0  0  0
   -1.3770  -18.0640    1.2470 H   0  0  0  0  0  0  0  0  0  0  0  0
    0.8370  -18.8514    0.5963 H   0  0  0  0  0  0  0  0  0  0  0  0
    2.7759  -18.3842   -0.8942 H   0  0  0  0  0  0  0  0  0  0  0  0
    3.1528  -16.0845   -1.7671 H   0  0  0  0  0  0  0  0  0  0  0  0
    2.6339  -14.6071   -3.0704 H   0  0  0  0  0  0  0  0  0  0  0  0
    3.5354  -12.5622   -4.9313 H   0  0  0  0  0  0  0  0  0  0  0  0
    3.3326   -9.9037   -4.7957 H   0  0  0  0  0  0  0  0  0  0  0  0
    1.1000   -9.5800   -0.6680 H   0  0  0  0  0  0  0  0  0  0  0  0
    0.7777  -11.3730    1.6043 H   0  0  0  0  0  0  0  0  0  0  0  0
    0.3183   -9.6382    1.5132 H   0  0  0  0  0  0  0  0  0  0  0  0
   -1.0014  -12.8929    1.8510 H   0  0  0  0  0  0  0  0  0  0  0  0
   -3.3585  -13.4948    1.4482 H   0  0  0  0  0  0  0  0  0  0  0  0
   -4.0186   -9.9452   -0.6952 H   0  0  0  0  0  0  0  0  0  0  0  0
   -1.6838   -9.2281   -0.3612 H   0  0  0  0  0  0  0  0  0  0  0  0
   -0.3809  -14.7208    0.3160 H   0  0  0  0  0  0  0  0  0  0  0  0
   -2.9660  -17.8400    2.4770 H   0  0  0  0  0  0  0  0  0  0  0  0
   -4.8574  -15.5177    3.0608 H   0  0  0  0  0  0  0  0  0  0  0  0
   -5.3873  -15.7612    7.3512 H   0  0  0  0  0  0  0  0  0  0  0  0
   -3.3401  -17.1720    7.5214 H   0  0  0  0  0  0  0  0  0  0  0  0
  1  2  2  0
  2  3  1  0
  3  4  1  0
  4  5  2  0
  5  6  1  0
  6  7  2  0
  7  8  1  0
  8  9  1  0
  9 10  2  0
 10 11  1  0
 11 12  1  0
 12 13  2  0
 13 14  1  0
 14 15  2  0
 15 16  1  0
 16 17  1  0
 17 18  1  0
 18 19  1  0
 19 20  2  0
 20 21  1  0
 21 22  2  0
 22 23  1  0
 23 24  2  0
 16 25  2  0
  8 26  2  0
  2 27  1  0
 27 28  1  0
 28 29  2  0
 29 30  1  0
 30 31  1  0
 31 32  1  0
 31 33  1  0
 31 34  1  0
 30 35  2  0
 35 36  1  0
 36 37  2  0
 37 38  1  0
 26  4  1  0
 37 28  1  0
 25  9  1  0
 15 11  1  0
 24 19  1  0
  3 39  1  0
  5 40  1  0
  6 41  1  0
  7 42  1  0
 10 43  1  0
 12 44  1  0
 13 45  1  0
 17 46  1  0
 18 47  1  0
 18 48  1  0
 20 49  1  0
 21 50  1  0
 23 51  1  0
 24 52  1  0
 26 53  1  0
 27 54  1  0
 29 55  1  0
 35 56  1  0
 36 57  1  0
M  END
>  <meeko>  (7) 
{"is_sidechain": [false], "free_energy": -8.828, "intermolecular_energy": -11.776, "internal_energy": -1.382}

$$$$
LIB_DWDRUDUATUOJND__M_PUB_ALL__e8__s20260927
     RDKit          3D

 57 61  0  0  0  0  0  0  0  0999 V2000
    8.1510  -11.4650   -3.2650 O   0  0  0  0  0  0  0  0  0  0  0  0
    8.1950  -12.6640   -3.5080 C   0  0  0  0  0  0  0  0  0  0  0  0
    7.1070  -13.4390   -3.8820 N   0  0  0  0  0  0  0  0  0  0  0  0
    5.7530  -13.0460   -3.9550 C   0  0  0  0  0  0  0  0  0  0  0  0
    5.2140  -12.8500   -5.2320 C   0  0  0  0  0  0  0  0  0  0  0  0
    3.8810  -12.4660   -5.3890 C   0  0  0  0  0  0  0  0  0  0  0  0
    3.0760  -12.2720   -4.2680 C   0  0  0  0  0  0  0  0  0  0  0  0
    3.5910  -12.4570   -2.9760 C   0  0  0  0  0  0  0  0  0  0  0  0
    2.7060  -12.2570   -1.8000 C   0  0  0  0  0  0  0  0  0  0  0  0
    1.9080  -11.1690   -1.7350 C   0  0  0  0  0  0  0  0  0  0  0  0
    1.0920  -11.0220   -0.6350 N   0  0  0  0  0  0  0  0  0  0  0  0
    0.1930  -10.0560   -0.2750 C   0  0  0  0  0  0  0  0  0  0  0  0
   -0.3120  -10.4720    0.9400 C   0  0  0  0  0  0  0  0  0  0  0  0
    0.2490  -11.6650    1.3330 N   0  0  0  0  0  0  0  0  0  0  0  0
    1.0870  -11.9600    0.3590 C   0  0  0  0  0  0  0  0  0  0  0  0
    1.9520  -13.1190    0.2430 C   0  0  0  0  0  0  0  0  0  0  0  0
    1.9640  -14.0770    1.2260 N   0  0  0  0  0  0  0  0  0  0  0  0
    2.8040  -15.2430    1.2080 C   0  0  0  0  0  0  0  0  0  0  0  0
    4.2450  -14.8280    1.3530 C   0  0  0  0  0  0  0  0  0  0  0  0
    4.6190  -13.8560    2.2870 C   0  0  0  0  0  0  0  0  0  0  0  0
    5.9530  -13.4900    2.3660 C   0  0  0  0  0  0  0  0  0  0  0  0
    6.9230  -14.0130    1.5860 N   0  0  0  0  0  0  0  0  0  0  0  0
    6.5390  -14.9380    0.6790 C   0  0  0  0  0  0  0  0  0  0  0  0
    5.2310  -15.3690    0.5250 C   0  0  0  0  0  0  0  0  0  0  0  0
    2.7220  -13.2420   -0.8150 N   0  0  0  0  0  0  0  0  0  0  0  0
    4.9310  -12.8610   -2.8390 C   0  0  0  0  0  0  0  0  0  0  0  0
    9.3420  -13.4360   -3.4530 N   0  0  0  0  0  0  0  0  0  0  0  0
   10.6690  -13.0230   -3.1800 C   0  0  0  0  0  0  0  0  0  0  0  0
   11.0650  -12.4540   -1.9650 C   0  0  0  0  0  0  0  0  0  0  0  0
   12.3980  -12.0550   -1.7480 C   0  0  0  0  0  0  0  0  0  0  0  0
   12.7970  -11.4600   -0.4160 C   0  0  0  0  0  0  0  0  0  0  0  0
   13.1860  -12.4000    0.4880 F   0  0  0  0  0  0  0  0  0  0  0  0
   11.7900  -10.7650    0.1820 F   0  0  0  0  0  0  0  0  0  0  0  0
   13.8350  -10.5880   -0.5290 F   0  0  0  0  0  0  0  0  0  0  0  0
   13.3440  -12.2450   -2.7650 C   0  0  0  0  0  0  0  0  0  0  0  0
   12.9650  -12.8070   -3.9830 C   0  0  0  0  0  0  0  0  0  0  0  0
   11.6380  -13.1910   -4.1880 C   0  0  0  0  0  0  0  0  0  0  0  0
   11.2190  -13.8820   -5.7200 Cl  0  0  0  0  0  0  0  0  0  0  0  0
    7.3080  -14.3750   -4.1970 H   0  0  0  0  0  0  0  0  0  0  0  0
    5.8463  -12.9999   -6.1195 H   0  0  0  0  0  0  0  0  0  0  0  0
    3.4663  -12.3167   -6.3968 H   0  0  0  0  0  0  0  0  0  0  0  0
    2.0260  -11.9707   -4.3974 H   0  0  0  0  0  0  0  0  0  0  0  0
    1.9098  -10.4194   -2.5401 H   0  0  0  0  0  0  0  0  0  0  0  0
   -0.0703   -9.1453   -0.8329 H   0  0  0  0  0  0  0  0  0  0  0  0
   -1.0665   -9.9203    1.5200 H   0  0  0  0  0  0  0  0  0  0  0  0
    1.3510  -13.9240    2.0210 H   0  0  0  0  0  0  0  0  0  0  0  0
    2.5281  -15.9062    2.0411 H   0  0  0  0  0  0  0  0  0  0  0  0
    2.6706  -15.7755    0.2548 H   0  0  0  0  0  0  0  0  0  0  0  0
    3.8696  -13.3919    2.9450 H   0  0  0  0  0  0  0  0  0  0  0  0
    6.2384  -12.7291    3.1073 H   0  0  0  0  0  0  0  0  0  0  0  0
    7.3089  -15.3739    0.0253 H   0  0  0  0  0  0  0  0  0  0  0  0
    4.9744  -16.1223   -0.2344 H   0  0  0  0  0  0  0  0  0  0  0  0
    5.3410  -13.0351   -1.8332 H   0  0  0  0  0  0  0  0  0  0  0  0
    9.2310  -14.4340   -3.5740 H   0  0  0  0  0  0  0  0  0  0  0  0
   10.3224  -12.3159   -1.1653 H   0  0  0  0  0  0  0  0  0  0  0  0
   14.3907  -11.9491   -2.6010 H   0  0  0  0  0  0  0  0  0  0  0  0
   13.7092  -12.9477   -4.7807 H   0  0  0  0  0  0  0  0  0  0  0  0
  1  2  2  0
  2  3  1  0
  3  4  1  0
  4  5  2  0
  5  6  1  0
  6  7  2  0
  7  8  1  0
  8  9  1  0
  9 10  2  0
 10 11  1  0
 11 12  1  0
 12 13  2  0
 13 14  1  0
 14 15  2  0
 15 16  1  0
 16 17  1  0
 17 18  1  0
 18 19  1  0
 19 20  2  0
 20 21  1  0
 21 22  2  0
 22 23  1  0
 23 24  2  0
 16 25  2  0
  8 26  2  0
  2 27  1  0
 27 28  1  0
 28 29  2  0
 29 30  1  0
 30 31  1  0
 31 32  1  0
 31 33  1  0
 31 34  1  0
 30 35  2  0
 35 36  1  0
 36 37  2  0
 37 38  1  0
 26  4  1  0
 37 28  1  0
 25  9  1  0
 15 11  1  0
 24 19  1  0
  3 39  1  0
  5 40  1  0
  6 41  1  0
  7 42  1  0
 10 43  1  0
 12 44  1  0
 13 45  1  0
 17 46  1  0
 18 47  1  0
 18 48  1  0
 20 49  1  0
 21 50  1  0
 23 51  1  0
 24 52  1  0
 26 53  1  0
 27 54  1  0
 29 55  1  0
 35 56  1  0
 36 57  1  0
M  END
>  <meeko>  (8) 
{"is_sidechain": [false], "free_energy": -8.758, "intermolecular_energy": -11.949, "internal_energy": -1.115}

$$$$
LIB_DWDRUDUATUOJND__M_PUB_ALL__e8__s20260927
     RDKit          3D

 57 61  0  0  0  0  0  0  0  0999 V2000
    7.1250  -13.7020   -2.0990 O   0  0  0  0  0  0  0  0  0  0  0  0
    7.1990  -12.4800   -2.1100 C   0  0  0  0  0  0  0  0  0  0  0  0
    6.1260  -11.6220   -2.2980 N   0  0  0  0  0  0  0  0  0  0  0  0
    4.7930  -11.9630   -2.6130 C   0  0  0  0  0  0  0  0  0  0  0  0
    4.2650  -11.4410   -3.8000 C   0  0  0  0  0  0  0  0  0  0  0  0
    2.9560  -11.7350   -4.1850 C   0  0  0  0  0  0  0  0  0  0  0  0
    2.1620  -12.5530   -3.3830 C   0  0  0  0  0  0  0  0  0  0  0  0
    2.6630  -13.0860   -2.1860 C   0  0  0  0  0  0  0  0  0  0  0  0
    1.7990  -13.9670   -1.3590 C   0  0  0  0  0  0  0  0  0  0  0  0
    1.9550  -15.3070   -1.4150 C   0  0  0  0  0  0  0  0  0  0  0  0
    1.1440  -16.0920   -0.6250 N   0  0  0  0  0  0  0  0  0  0  0  0
    1.0500  -17.4470   -0.4580 C   0  0  0  0  0  0  0  0  0  0  0  0
    0.0480  -17.6240    0.4730 C   0  0  0  0  0  0  0  0  0  0  0  0
   -0.4740  -16.4190    0.8820 N   0  0  0  0  0  0  0  0  0  0  0  0
    0.2120  -15.5260    0.1970 C   0  0  0  0  0  0  0  0  0  0  0  0
    0.0860  -14.0800    0.2340 C   0  0  0  0  0  0  0  0  0  0  0  0
   -0.8410  -13.4850    1.0540 N   0  0  0  0  0  0  0  0  0  0  0  0
   -1.0530  -12.0670    1.1360 C   0  0  0  0  0  0  0  0  0  0  0  0
   -2.4000  -11.7230    0.5560 C   0  0  0  0  0  0  0  0  0  0  0  0
   -2.6180  -10.4900   -0.0650 C   0  0  0  0  0  0  0  0  0  0  0  0
   -3.8820  -10.2100   -0.5610 C   0  0  0  0  0  0  0  0  0  0  0  0
   -4.9270  -11.0610   -0.4760 N   0  0  0  0  0  0  0  0  0  0  0  0
   -4.7000  -12.2400    0.1420 C   0  0  0  0  0  0  0  0  0  0  0  0
   -3.4740  -12.6110    0.6690 C   0  0  0  0  0  0  0  0  0  0  0  0
    0.8700  -13.3480   -0.5260 N   0  0  0  0  0  0  0  0  0  0  0  0
    3.9900  -12.7930   -1.8240 C   0  0  0  0  0  0  0  0  0  0  0  0
    8.3670  -11.7610   -1.9280 N   0  0  0  0  0  0  0  0  0  0  0  0
    9.6650  -12.2480   -1.6390 C   0  0  0  0  0  0  0  0  0  0  0  0
   10.6020  -12.5770   -2.6250 C   0  0  0  0  0  0  0  0  0  0  0  0
   11.8790  -13.0630   -2.2820 C   0  0  0  0  0  0  0  0  0  0  0  0
   12.8750  -13.3910   -3.3720 C   0  0  0  0  0  0  0  0  0  0  0  0
   12.3190  -13.3980   -4.6140 F   0  0  0  0  0  0  0  0  0  0  0  0
   13.4500  -14.6170   -3.2180 F   0  0  0  0  0  0  0  0  0  0  0  0
   13.9030  -12.5020   -3.4190 F   0  0  0  0  0  0  0  0  0  0  0  0
   12.2170  -13.2080   -0.9290 C   0  0  0  0  0  0  0  0  0  0  0  0
   11.2920  -12.8890    0.0640 C   0  0  0  0  0  0  0  0  0  0  0  0
   10.0270  -12.4150   -0.2890 C   0  0  0  0  0  0  0  0  0  0  0  0
    8.9160  -12.0360    0.9850 Cl  0  0  0  0  0  0  0  0  0  0  0  0
    6.2990  -10.6420   -2.1350 H   0  0  0  0  0  0  0  0  0  0  0  0
    4.8874  -10.7933   -4.4349 H   0  0  0  0  0  0  0  0  0  0  0  0
    2.5513  -11.3215   -5.1206 H   0  0  0  0  0  0  0  0  0  0  0  0
    1.1316  -12.7830   -3.6919 H   0  0  0  0  0  0  0  0  0  0  0  0
    2.7100  -15.7601   -2.0743 H   0  0  0  0  0  0  0  0  0  0  0  0
    1.6446  -18.2259   -0.9578 H   0  0  0  0  0  0  0  0  0  0  0  0
   -0.2905  -18.6037    0.8414 H   0  0  0  0  0  0  0  0  0  0  0  0
   -1.4200  -14.1030    1.6120 H   0  0  0  0  0  0  0  0  0  0  0  0
   -1.0166  -11.7517    2.1892 H   0  0  0  0  0  0  0  0  0  0  0  0
   -0.2673  -11.5468    0.5685 H   0  0  0  0  0  0  0  0  0  0  0  0
   -1.8034   -9.7568   -0.1583 H   0  0  0  0  0  0  0  0  0  0  0  0
   -4.0429   -9.2389   -1.0520 H   0  0  0  0  0  0  0  0  0  0  0  0
   -5.5378  -12.9471    0.2322 H   0  0  0  0  0  0  0  0  0  0  0  0
   -3.3479  -13.5841    1.1661 H   0  0  0  0  0  0  0  0  0  0  0  0
    4.4048  -13.2254   -0.9015 H   0  0  0  0  0  0  0  0  0  0  0  0
    8.3170  -10.7600   -2.0610 H   0  0  0  0  0  0  0  0  0  0  0  0
   10.3370  -12.4541   -3.6855 H   0  0  0  0  0  0  0  0  0  0  0  0
   13.2158  -13.5748   -0.6500 H   0  0  0  0  0  0  0  0  0  0  0  0
   11.5584  -13.0106    1.1243 H   0  0  0  0  0  0  0  0  0  0  0  0
  1  2  2  0
  2  3  1  0
  3  4  1  0
  4  5  2  0
  5  6  1  0
  6  7  2  0
  7  8  1  0
  8  9  1  0
  9 10  2  0
 10 11  1  0
 11 12  1  0
 12 13  2  0
 13 14  1  0
 14 15  2  0
 15 16  1  0
 16 17  1  0
 17 18  1  0
 18 19  1  0
 19 20  2  0
 20 21  1  0
 21 22  2  0
 22 23  1  0
 23 24  2  0
 16 25  2  0
  8 26  2  0
  2 27  1  0
 27 28  1  0
 28 29  2  0
 29 30  1  0
 30 31  1  0
 31 32  1  0
 31 33  1  0
 31 34  1  0
 30 35  2  0
 35 36  1  0
 36 37  2  0
 37 38  1  0
 26  4  1  0
 37 28  1  0
 25  9  1  0
 15 11  1  0
 24 19  1  0
  3 39  1  0
  5 40  1  0
  6 41  1  0
  7 42  1  0
 10 43  1  0
 12 44  1  0
 13 45  1  0
 17 46  1  0
 18 47  1  0
 18 48  1  0
 20 49  1  0
 21 50  1  0
 23 51  1  0
 24 52  1  0
 26 53  1  0
 27 54  1  0
 29 55  1  0
 35 56  1  0
 36 57  1  0
M  END
>  <meeko>  (9) 
{"is_sidechain": [false], "free_energy": -8.57, "intermolecular_energy": -11.722, "internal_energy": -1.086}

$$$$
