LIB_MXPLPMSWGMUSSK__M_PUB_ALL__e8__s20260927
     RDKit          3D

 70 75  0  0  0  0  0  0  0  0999 V2000
   -8.1430  -18.3620   12.2410 C   0  0  0  0  0  0  0  0  0  0  0  0
   -7.6250  -18.1120   10.8580 N   0  0  0  0  0  0  0  0  0  0  0  0
   -6.4300  -17.1640   10.8540 C   0  0  0  0  0  0  0  0  0  0  0  0
   -5.8710  -17.0000    9.4260 C   0  0  0  0  0  0  0  0  0  0  0  0
   -6.9340  -16.6130    8.4860 N   0  0  0  0  0  0  0  0  0  0  0  0
   -6.5920  -15.9910    7.2840 C   0  0  0  0  0  0  0  0  0  0  0  0
   -6.0450  -16.7350    6.2290 C   0  0  0  0  0  0  0  0  0  0  0  0
   -5.6870  -16.1390    5.0120 C   0  0  0  0  0  0  0  0  0  0  0  0
   -5.8670  -14.7710    4.8080 C   0  0  0  0  0  0  0  0  0  0  0  0
   -5.5120  -14.1340    3.5490 C   0  0  0  0  0  0  0  0  0  0  0  0
   -6.2960  -13.3330    2.6930 C   0  0  0  0  0  0  0  0  0  0  0  0
   -5.6380  -12.9040    1.6180 N   0  0  0  0  0  0  0  0  0  0  0  0
   -4.3830  -13.4280    1.7610 N   0  0  0  0  0  0  0  0  0  0  0  0
   -3.2910  -13.2630    0.8650 C   0  0  0  0  0  0  0  0  0  0  0  0
   -3.5300  -12.5140   -0.2710 N   0  0  0  0  0  0  0  0  0  0  0  0
   -2.1150  -13.8540    1.1770 C   0  0  0  0  0  0  0  0  0  0  0  0
   -0.9010  -13.7760    0.3550 C   0  0  0  0  0  0  0  0  0  0  0  0
   -0.5610  -14.8290   -0.4990 C   0  0  0  0  0  0  0  0  0  0  0  0
    0.6020  -14.7690   -1.2770 C   0  0  0  0  0  0  0  0  0  0  0  0
    1.4450  -13.6590   -1.2120 C   0  0  0  0  0  0  0  0  0  0  0  0
    2.6330  -13.5190   -1.9600 N   0  0  0  0  0  0  0  0  0  0  0  0
    2.7680  -13.4800   -3.3420 C   0  0  0  0  0  0  0  0  0  0  0  0
    1.8460  -13.5970   -4.1380 O   0  0  0  0  0  0  0  0  0  0  0  0
    4.0950  -13.2930   -3.6910 N   0  0  0  0  0  0  0  0  0  0  0  0
    4.6620  -13.2130   -4.9870 C   0  0  0  0  0  0  0  0  0  0  0  0
    5.4310  -14.2300   -5.5590 C   0  0  0  0  0  0  0  0  0  0  0  0
    5.9620  -14.0850   -6.8460 C   0  0  0  0  0  0  0  0  0  0  0  0
    5.7330  -12.9220   -7.5770 C   0  0  0  0  0  0  0  0  0  0  0  0
    4.9710  -11.8970   -7.0240 C   0  0  0  0  0  0  0  0  0  0  0  0
    4.4400  -12.0430   -5.7390 C   0  0  0  0  0  0  0  0  0  0  0  0
    3.4990  -10.7380   -5.0930 Cl  0  0  0  0  0  0  0  0  0  0  0  0
    1.1020  -12.6040   -0.3570 C   0  0  0  0  0  0  0  0  0  0  0  0
   -0.0600  -12.6620    0.4210 C   0  0  0  0  0  0  0  0  0  0  0  0
   -2.1080  -14.6340    2.4550 C   0  0  0  0  0  0  0  0  0  0  0  0
   -3.0970  -14.7990    3.2810 N   0  0  0  0  0  0  0  0  0  0  0  0
   -4.2710  -14.1880    2.9330 C   0  0  0  0  0  0  0  0  0  0  0  0
   -6.4280  -14.0180    5.8440 C   0  0  0  0  0  0  0  0  0  0  0  0
   -6.7840  -14.6220    7.0590 C   0  0  0  0  0  0  0  0  0  0  0  0
   -8.1660  -17.4210    8.4910 C   0  0  0  0  0  0  0  0  0  0  0  0
   -8.7130  -17.5910    9.9230 C   0  0  0  0  0  0  0  0  0  0  0  0
   -7.4074  -18.0070   12.9778 H   0  0  0  0  0  0  0  0  0  0  0  0
   -9.0914  -17.8224   12.3804 H   0  0  0  0  0  0  0  0  0  0  0  0
   -8.3106  -19.4402   12.3804 H   0  0  0  0  0  0  0  0  0  0  0  0
   -7.3030  -19.0090   10.4740 H   0  0  0  0  0  0  0  0  0  0  0  0
   -6.7471  -16.1812   11.2330 H   0  0  0  0  0  0  0  0  0  0  0  0
   -5.6423  -17.5841   11.4967 H   0  0  0  0  0  0  0  0  0  0  0  0
   -5.0939  -16.2214    9.4309 H   0  0  0  0  0  0  0  0  0  0  0  0
   -5.4492  -17.9627    9.1016 H   0  0  0  0  0  0  0  0  0  0  0  0
   -5.8926  -17.8165    6.3601 H   0  0  0  0  0  0  0  0  0  0  0  0
   -5.2593  -16.7570    4.2088 H   0  0  0  0  0  0  0  0  0  0  0  0
   -7.3490  -13.0866    2.8940 H   0  0  0  0  0  0  0  0  0  0  0  0
   -2.9490  -11.6890   -0.4160 H   0  0  0  0  0  0  0  0  0  0  0  0
   -4.3310  -12.6940   -0.8630 H   0  0  0  0  0  0  0  0  0  0  0  0
   -1.2128  -15.7129   -0.5606 H   0  0  0  0  0  0  0  0  0  0  0  0
    0.8534  -15.6052   -1.9460 H   0  0  0  0  0  0  0  0  0  0  0  0
    3.4850  -13.4570   -1.4250 H   0  0  0  0  0  0  0  0  0  0  0  0
    4.7640  -13.1820   -2.9420 H   0  0  0  0  0  0  0  0  0  0  0  0
    5.6209  -15.1535   -4.9923 H   0  0  0  0  0  0  0  0  0  0  0  0
    6.5642  -14.8952   -7.2829 H   0  0  0  0  0  0  0  0  0  0  0  0
    6.1529  -12.8139   -8.5879 H   0  0  0  0  0  0  0  0  0  0  0  0
    4.7872  -10.9755   -7.5959 H   0  0  0  0  0  0  0  0  0  0  0  0
    1.7534  -11.7197   -0.2963 H   0  0  0  0  0  0  0  0  0  0  0  0
   -0.3129  -11.8252    1.0887 H   0  0  0  0  0  0  0  0  0  0  0  0
   -1.1596  -15.1218    2.7246 H   0  0  0  0  0  0  0  0  0  0  0  0
   -6.5921  -12.9393    5.7046 H   0  0  0  0  0  0  0  0  0  0  0  0
   -7.2252  -14.0047    7.8554 H   0  0  0  0  0  0  0  0  0  0  0  0
   -8.9262  -16.9207    7.8731 H   0  0  0  0  0  0  0  0  0  0  0  0
   -7.9324  -18.4166    8.0859 H   0  0  0  0  0  0  0  0  0  0  0  0
   -9.0698  -16.6178   10.2911 H   0  0  0  0  0  0  0  0  0  0  0  0
   -9.5388  -18.3173    9.9021 H   0  0  0  0  0  0  0  0  0  0  0  0
  1  2  1  0
  2  3  1  0
  3  4  1  0
  4  5  1  0
  5  6  1  0
  6  7  2  0
  7  8  1  0
  8  9  2  0
  9 10  1  0
 10 11  1  0
 11 12  2  0
 12 13  1  0
 13 14  1  0
 14 15  1  0
 14 16  2  0
 16 17  1  0
 17 18  2  0
 18 19  1  0
 19 20  2  0
 20 21  1  0
 21 22  1  0
 22 23  2  0
 22 24  1  0
 24 25  1  0
 25 26  2  0
 26 27  1  0
 27 28  2  0
 28 29  1  0
 29 30  2  0
 30 31  1  0
 20 32  1  0
 32 33  2  0
 16 34  1  0
 34 35  2  0
 35 36  1  0
  9 37  1  0
 37 38  2  0
  5 39  1  0
 39 40  1  0
 40  2  1  0
 38  6  1  0
 36 10  2  0
 36 13  1  0
 33 17  1  0
 30 25  1  0
  1 41  1  0
  1 42  1  0
  1 43  1  0
  2 44  1  0
  3 45  1  0
  3 46  1  0
  4 47  1  0
  4 48  1  0
  7 49  1  0
  8 50  1  0
 11 51  1  0
 15 52  1  0
 15 53  1  0
 18 54  1  0
 19 55  1  0
 21 56  1  0
 24 57  1  0
 26 58  1  0
 27 59  1  0
 28 60  1  0
 29 61  1  0
 32 62  1  0
 33 63  1  0
 34 64  1  0
 37 65  1  0
 38 66  1  0
 39 67  1  0
 39 68  1  0
 40 69  1  0
 40 70  1  0
M  CHG  1   2   1
M  END
>  <meeko>  (1) 
{"is_sidechain": [false], "free_energy": -9.265, "intermolecular_energy": -12.245, "internal_energy": -0.724}

$$$$
LIB_MXPLPMSWGMUSSK__M_PUB_ALL__e8__s20260927
     RDKit          3D

 70 75  0  0  0  0  0  0  0  0999 V2000
   -1.0490  -20.0680    9.8720 C   0  0  0  0  0  0  0  0  0  0  0  0
   -1.2590  -19.2200    8.6550 N   0  0  0  0  0  0  0  0  0  0  0  0
   -0.0850  -19.3070    7.6840 C   0  0  0  0  0  0  0  0  0  0  0  0
   -0.3740  -18.4920    6.4080 C   0  0  0  0  0  0  0  0  0  0  0  0
   -0.7640  -17.1130    6.7390 N   0  0  0  0  0  0  0  0  0  0  0  0
   -0.6340  -16.1140    5.7750 C   0  0  0  0  0  0  0  0  0  0  0  0
   -1.4610  -16.1060    4.6420 C   0  0  0  0  0  0  0  0  0  0  0  0
   -1.3500  -15.1190    3.6530 C   0  0  0  0  0  0  0  0  0  0  0  0
   -0.4070  -14.0980    3.7660 C   0  0  0  0  0  0  0  0  0  0  0  0
   -0.2830  -13.0580    2.7570 C   0  0  0  0  0  0  0  0  0  0  0  0
   -0.9290  -11.8070    2.6700 C   0  0  0  0  0  0  0  0  0  0  0  0
   -0.5670  -11.0960    1.6040 N   0  0  0  0  0  0  0  0  0  0  0  0
    0.3460  -11.8890    0.9660 N   0  0  0  0  0  0  0  0  0  0  0  0
    1.0350  -11.5830   -0.2400 C   0  0  0  0  0  0  0  0  0  0  0  0
    0.7380  -10.3710   -0.8320 N   0  0  0  0  0  0  0  0  0  0  0  0
    1.9120  -12.4930   -0.7220 C   0  0  0  0  0  0  0  0  0  0  0  0
    2.6960  -12.3220   -1.9520 C   0  0  0  0  0  0  0  0  0  0  0  0
    4.0520  -11.9860   -1.8810 C   0  0  0  0  0  0  0  0  0  0  0  0
    4.8040  -11.8090   -3.0490 C   0  0  0  0  0  0  0  0  0  0  0  0
    4.2150  -11.9620   -4.3050 C   0  0  0  0  0  0  0  0  0  0  0  0
    4.9010  -11.8030   -5.5270 N   0  0  0  0  0  0  0  0  0  0  0  0
    5.3470  -12.7960   -6.3890 C   0  0  0  0  0  0  0  0  0  0  0  0
    5.2320  -13.9980   -6.1890 O   0  0  0  0  0  0  0  0  0  0  0  0
    5.9430  -12.2340   -7.5060 N   0  0  0  0  0  0  0  0  0  0  0  0
    6.5390  -12.8900   -8.6110 C   0  0  0  0  0  0  0  0  0  0  0  0
    6.7770  -14.2670   -8.6560 C   0  0  0  0  0  0  0  0  0  0  0  0
    7.3710  -14.8510   -9.7810 C   0  0  0  0  0  0  0  0  0  0  0  0
    7.7370  -14.0680  -10.8730 C   0  0  0  0  0  0  0  0  0  0  0  0
    7.5090  -12.6950  -10.8460 C   0  0  0  0  0  0  0  0  0  0  0  0
    6.9150  -12.1120   -9.7230 C   0  0  0  0  0  0  0  0  0  0  0  0
    6.6550  -10.3980   -9.7370 Cl  0  0  0  0  0  0  0  0  0  0  0  0
    2.8580  -12.3010   -4.3740 C   0  0  0  0  0  0  0  0  0  0  0  0
    2.1040  -12.4780   -3.2080 C   0  0  0  0  0  0  0  0  0  0  0  0
    2.0470  -13.7450    0.0870 C   0  0  0  0  0  0  0  0  0  0  0  0
    1.4220  -14.0430    1.1850 N   0  0  0  0  0  0  0  0  0  0  0  0
    0.5430  -13.1000    1.6440 C   0  0  0  0  0  0  0  0  0  0  0  0
    0.4130  -14.0810    4.8980 C   0  0  0  0  0  0  0  0  0  0  0  0
    0.2970  -15.0720    5.8840 C   0  0  0  0  0  0  0  0  0  0  0  0
   -1.8300  -16.9370    7.7420 C   0  0  0  0  0  0  0  0  0  0  0  0
   -1.5400  -17.7630    9.0110 C   0  0  0  0  0  0  0  0  0  0  0  0
   -1.2001  -19.4578   10.7746 H   0  0  0  0  0  0  0  0  0  0  0  0
   -1.7682  -20.9003    9.8675 H   0  0  0  0  0  0  0  0  0  0  0  0
   -0.0245  -20.4686    9.8675 H   0  0  0  0  0  0  0  0  0  0  0  0
   -2.0880  -19.5750    8.1620 H   0  0  0  0  0  0  0  0  0  0  0  0
    0.8171  -18.9082    8.1710 H   0  0  0  0  0  0  0  0  0  0  0  0
    0.0668  -20.3601    7.4050 H   0  0  0  0  0  0  0  0  0  0  0  0
    0.5310  -18.4695    5.7831 H   0  0  0  0  0  0  0  0  0  0  0  0
   -1.2042  -18.9704    5.8678 H   0  0  0  0  0  0  0  0  0  0  0  0
   -2.2175  -16.8961    4.5265 H   0  0  0  0  0  0  0  0  0  0  0  0
   -2.0148  -15.1502    2.7772 H   0  0  0  0  0  0  0  0  0  0  0  0
   -1.6609  -11.4531    3.4110 H   0  0  0  0  0  0  0  0  0  0  0  0
   -0.1580  -10.2930   -1.3110 H   0  0  0  0  0  0  0  0  0  0  0  0
    1.4300   -9.6360   -0.9070 H   0  0  0  0  0  0  0  0  0  0  0  0
    4.5318  -11.8597   -0.8992 H   0  0  0  0  0  0  0  0  0  0  0  0
    5.8698  -11.5467   -2.9758 H   0  0  0  0  0  0  0  0  0  0  0  0
    5.1050  -10.8530   -5.7960 H   0  0  0  0  0  0  0  0  0  0  0  0
    5.9530  -11.2260   -7.5720 H   0  0  0  0  0  0  0  0  0  0  0  0
    6.4949  -14.8971   -7.7996 H   0  0  0  0  0  0  0  0  0  0  0  0
    7.5500  -15.9361   -9.8027 H   0  0  0  0  0  0  0  0  0  0  0  0
    8.2045  -14.5328  -11.7536 H   0  0  0  0  0  0  0  0  0  0  0  0
    7.7953  -12.0710  -11.7055 H   0  0  0  0  0  0  0  0  0  0  0  0
    2.3791  -12.4297   -5.3559 H   0  0  0  0  0  0  0  0  0  0  0  0
    1.0385  -12.7416   -3.2810 H   0  0  0  0  0  0  0  0  0  0  0  0
    2.7552  -14.4969   -0.2913 H   0  0  0  0  0  0  0  0  0  0  0  0
    1.1583  -13.2808    5.0170 H   0  0  0  0  0  0  0  0  0  0  0  0
    0.9537  -15.0302    6.7655 H   0  0  0  0  0  0  0  0  0  0  0  0
   -1.8960  -15.8730    8.0132 H   0  0  0  0  0  0  0  0  0  0  0  0
   -2.7790  -17.2849    7.3080 H   0  0  0  0  0  0  0  0  0  0  0  0
   -0.6629  -17.3411    9.5236 H   0  0  0  0  0  0  0  0  0  0  0  0
   -2.4219  -17.7235    9.6673 H   0  0  0  0  0  0  0  0  0  0  0  0
  1  2  1  0
  2  3  1  0
  3  4  1  0
  4  5  1  0
  5  6  1  0
  6  7  2  0
  7  8  1  0
  8  9  2  0
  9 10  1  0
 10 11  1  0
 11 12  2  0
 12 13  1  0
 13 14  1  0
 14 15  1  0
 14 16  2  0
 16 17  1  0
 17 18  2  0
 18 19  1  0
 19 20  2  0
 20 21  1  0
 21 22  1  0
 22 23  2  0
 22 24  1  0
 24 25  1  0
 25 26  2  0
 26 27  1  0
 27 28  2  0
 28 29  1  0
 29 30  2  0
 30 31  1  0
 20 32  1  0
 32 33  2  0
 16 34  1  0
 34 35  2  0
 35 36  1  0
  9 37  1  0
 37 38  2  0
  5 39  1  0
 39 40  1  0
 40  2  1  0
 38  6  1  0
 36 10  2  0
 36 13  1  0
 33 17  1  0
 30 25  1  0
  1 41  1  0
  1 42  1  0
  1 43  1  0
  2 44  1  0
  3 45  1  0
  3 46  1  0
  4 47  1  0
  4 48  1  0
  7 49  1  0
  8 50  1  0
 11 51  1  0
 15 52  1  0
 15 53  1  0
 18 54  1  0
 19 55  1  0
 21 56  1  0
 24 57  1  0
 26 58  1  0
 27 59  1  0
 28 60  1  0
 29 61  1  0
 32 62  1  0
 33 63  1  0
 34 64  1  0
 37 65  1  0
 38 66  1  0
 39 67  1  0
 39 68  1  0
 40 69  1  0
 40 70  1  0
M  CHG  1   2   1
M  END
>  <meeko>  (2) 
{"is_sidechain": [false], "free_energy": -9.132, "intermolecular_energy": -12.295, "internal_energy": -0.496}

$$$$
LIB_MXPLPMSWGMUSSK__M_PUB_ALL__e8__s20260927
     RDKit          3D

 70 75  0  0  0  0  0  0  0  0999 V2000
    7.2770  -13.8690   -8.2070 C   0  0  0  0  0  0  0  0  0  0  0  0
    6.6660  -13.2130   -7.0070 N   0  0  0  0  0  0  0  0  0  0  0  0
    6.7780  -14.0810   -5.7580 C   0  0  0  0  0  0  0  0  0  0  0  0
    6.2180  -13.3390   -4.5280 C   0  0  0  0  0  0  0  0  0  0  0  0
    4.8570  -12.8460   -4.7840 N   0  0  0  0  0  0  0  0  0  0  0  0
    4.0190  -12.5570   -3.7060 C   0  0  0  0  0  0  0  0  0  0  0  0
    4.3060  -13.0560   -2.4280 C   0  0  0  0  0  0  0  0  0  0  0  0
    3.4810  -12.7870   -1.3270 C   0  0  0  0  0  0  0  0  0  0  0  0
    2.3360  -12.0040   -1.4680 C   0  0  0  0  0  0  0  0  0  0  0  0
    1.4720  -11.7060   -0.3370 C   0  0  0  0  0  0  0  0  0  0  0  0
    1.2860  -10.4920    0.3570 C   0  0  0  0  0  0  0  0  0  0  0  0
    0.4000  -10.5780    1.3480 N   0  0  0  0  0  0  0  0  0  0  0  0
   -0.0180  -11.8780    1.3130 N   0  0  0  0  0  0  0  0  0  0  0  0
   -0.9710  -12.4840    2.1780 C   0  0  0  0  0  0  0  0  0  0  0  0
   -1.5110  -11.6810    3.1620 N   0  0  0  0  0  0  0  0  0  0  0  0
   -1.2660  -13.7900    1.9870 C   0  0  0  0  0  0  0  0  0  0  0  0
   -2.2250  -14.5530    2.7960 C   0  0  0  0  0  0  0  0  0  0  0  0
   -1.7730  -15.5290    3.6890 C   0  0  0  0  0  0  0  0  0  0  0  0
   -2.6810  -16.2700    4.4550 C   0  0  0  0  0  0  0  0  0  0  0  0
   -4.0540  -16.0510    4.3390 C   0  0  0  0  0  0  0  0  0  0  0  0
   -5.0340  -16.7530    5.0730 N   0  0  0  0  0  0  0  0  0  0  0  0
   -6.0160  -16.2270    5.9010 C   0  0  0  0  0  0  0  0  0  0  0  0
   -6.1590  -15.0370    6.1480 O   0  0  0  0  0  0  0  0  0  0  0  0
   -6.8100  -17.2400    6.4120 N   0  0  0  0  0  0  0  0  0  0  0  0
   -7.9060  -17.1360    7.3040 C   0  0  0  0  0  0  0  0  0  0  0  0
   -7.8260  -17.4370    8.6660 C   0  0  0  0  0  0  0  0  0  0  0  0
   -8.9500  -17.3120    9.4920 C   0  0  0  0  0  0  0  0  0  0  0  0
  -10.1680  -16.8860    8.9660 C   0  0  0  0  0  0  0  0  0  0  0  0
  -10.2670  -16.5830    7.6120 C   0  0  0  0  0  0  0  0  0  0  0  0
   -9.1450  -16.7070    6.7880 C   0  0  0  0  0  0  0  0  0  0  0  0
   -9.3210  -16.3180    5.1070 Cl  0  0  0  0  0  0  0  0  0  0  0  0
   -4.5050  -15.0720    3.4460 C   0  0  0  0  0  0  0  0  0  0  0  0
   -3.6000  -14.3300    2.6790 C   0  0  0  0  0  0  0  0  0  0  0  0
   -0.5320  -14.4570    0.8650 C   0  0  0  0  0  0  0  0  0  0  0  0
    0.3440  -13.9210    0.0710 N   0  0  0  0  0  0  0  0  0  0  0  0
    0.6190  -12.5990    0.2930 C   0  0  0  0  0  0  0  0  0  0  0  0
    2.0440  -11.4850   -2.7330 C   0  0  0  0  0  0  0  0  0  0  0  0
    2.8750  -11.7570   -3.8300 C   0  0  0  0  0  0  0  0  0  0  0  0
    4.6410  -12.0750   -6.0220 C   0  0  0  0  0  0  0  0  0  0  0  0
    5.2120  -12.8180   -7.2460 C   0  0  0  0  0  0  0  0  0  0  0  0
    7.9928  -14.6376   -7.8801 H   0  0  0  0  0  0  0  0  0  0  0  0
    6.4862  -14.3377   -8.8111 H   0  0  0  0  0  0  0  0  0  0  0  0
    7.8007  -13.1135   -8.8111 H   0  0  0  0  0  0  0  0  0  0  0  0
    7.1870  -12.3460   -6.8220 H   0  0  0  0  0  0  0  0  0  0  0  0
    6.2076  -15.0091   -5.9107 H   0  0  0  0  0  0  0  0  0  0  0  0
    7.8390  -14.3106   -5.5803 H   0  0  0  0  0  0  0  0  0  0  0  0
    6.1954  -14.0288   -3.6714 H   0  0  0  0  0  0  0  0  0  0  0  0
    6.8677  -12.4779   -4.3127 H   0  0  0  0  0  0  0  0  0  0  0  0
    5.2034  -13.6758   -2.2850 H   0  0  0  0  0  0  0  0  0  0  0  0
    3.7400  -13.1985   -0.3403 H   0  0  0  0  0  0  0  0  0  0  0  0
    1.8207   -9.5645    0.1044 H   0  0  0  0  0  0  0  0  0  0  0  0
   -0.9600  -11.5450    4.0090 H   0  0  0  0  0  0  0  0  0  0  0  0
   -2.4670  -11.3510    3.1090 H   0  0  0  0  0  0  0  0  0  0  0  0
   -0.6939  -15.7165    3.7908 H   0  0  0  0  0  0  0  0  0  0  0  0
   -2.3083  -17.0322    5.1551 H   0  0  0  0  0  0  0  0  0  0  0  0
   -5.0040  -17.7580    4.9970 H   0  0  0  0  0  0  0  0  0  0  0  0
   -6.6120  -18.1840    6.1130 H   0  0  0  0  0  0  0  0  0  0  0  0
   -6.8708  -17.7755    9.0937 H   0  0  0  0  0  0  0  0  0  0  0  0
   -8.8709  -17.5516   10.5627 H   0  0  0  0  0  0  0  0  0  0  0  0
  -11.0479  -16.7897    9.6190 H   0  0  0  0  0  0  0  0  0  0  0  0
  -11.2259  -16.2467    7.1909 H   0  0  0  0  0  0  0  0  0  0  0  0
   -5.5841  -14.8836    3.3460 H   0  0  0  0  0  0  0  0  0  0  0  0
   -3.9727  -13.5668    1.9800 H   0  0  0  0  0  0  0  0  0  0  0  0
   -0.7606  -15.5194    0.6947 H   0  0  0  0  0  0  0  0  0  0  0  0
    1.1521  -10.8559   -2.8697 H   0  0  0  0  0  0  0  0  0  0  0  0
    2.6223  -11.3316   -4.8124 H   0  0  0  0  0  0  0  0  0  0  0  0
    3.5612  -11.9222   -6.1662 H   0  0  0  0  0  0  0  0  0  0  0  0
    5.1591  -11.1094   -5.9268 H   0  0  0  0  0  0  0  0  0  0  0  0
    4.6167  -13.7249   -7.4280 H   0  0  0  0  0  0  0  0  0  0  0  0
    5.1659  -12.1498   -8.1185 H   0  0  0  0  0  0  0  0  0  0  0  0
  1  2  1  0
  2  3  1  0
  3  4  1  0
  4  5  1  0
  5  6  1  0
  6  7  2  0
  7  8  1  0
  8  9  2  0
  9 10  1  0
 10 11  1  0
 11 12  2  0
 12 13  1  0
 13 14  1  0
 14 15  1  0
 14 16  2  0
 16 17  1  0
 17 18  2  0
 18 19  1  0
 19 20  2  0
 20 21  1  0
 21 22  1  0
 22 23  2  0
 22 24  1  0
 24 25  1  0
 25 26  2  0
 26 27  1  0
 27 28  2  0
 28 29  1  0
 29 30  2  0
 30 31  1  0
 20 32  1  0
 32 33  2  0
 16 34  1  0
 34 35  2  0
 35 36  1  0
  9 37  1  0
 37 38  2  0
  5 39  1  0
 39 40  1  0
 40  2  1  0
 38  6  1  0
 36 10  2  0
 36 13  1  0
 33 17  1  0
 30 25  1  0
  1 41  1  0
  1 42  1  0
  1 43  1  0
  2 44  1  0
  3 45  1  0
  3 46  1  0
  4 47  1  0
  4 48  1  0
  7 49  1  0
  8 50  1  0
 11 51  1  0
 15 52  1  0
 15 53  1  0
 18 54  1  0
 19 55  1  0
 21 56  1  0
 24 57  1  0
 26 58  1  0
 27 59  1  0
 28 60  1  0
 29 61  1  0
 32 62  1  0
 33 63  1  0
 34 64  1  0
 37 65  1  0
 38 66  1  0
 39 67  1  0
 39 68  1  0
 40 69  1  0
 40 70  1  0
M  CHG  1   2   1
M  END
>  <meeko>  (3) 
{"is_sidechain": [false], "free_energy": -8.946, "intermolecular_energy": -11.809, "internal_energy": -0.737}

$$$$
LIB_MXPLPMSWGMUSSK__M_PUB_ALL__e8__s20260927
     RDKit          3D

 70 75  0  0  0  0  0  0  0  0999 V2000
   -7.9070  -15.7060    7.8240 C   0  0  0  0  0  0  0  0  0  0  0  0
   -7.1850  -15.8560    6.5190 N   0  0  0  0  0  0  0  0  0  0  0  0
   -5.9660  -16.7650    6.6380 C   0  0  0  0  0  0  0  0  0  0  0  0
   -5.3010  -16.9650    5.2620 C   0  0  0  0  0  0  0  0  0  0  0  0
   -5.0130  -15.6730    4.6220 N   0  0  0  0  0  0  0  0  0  0  0  0
   -4.0430  -15.6050    3.6220 C   0  0  0  0  0  0  0  0  0  0  0  0
   -3.2570  -16.7240    3.3160 C   0  0  0  0  0  0  0  0  0  0  0  0
   -2.2710  -16.6850    2.3200 C   0  0  0  0  0  0  0  0  0  0  0  0
   -2.0390  -15.5190    1.5900 C   0  0  0  0  0  0  0  0  0  0  0  0
   -1.0280  -15.4610    0.5460 C   0  0  0  0  0  0  0  0  0  0  0  0
   -1.1380  -15.7560   -0.8290 C   0  0  0  0  0  0  0  0  0  0  0  0
   -0.0010  -15.5830   -1.5000 N   0  0  0  0  0  0  0  0  0  0  0  0
    0.8880  -15.1570   -0.5530 N   0  0  0  0  0  0  0  0  0  0  0  0
    2.2570  -14.8330   -0.7620 C   0  0  0  0  0  0  0  0  0  0  0  0
    2.7380  -14.9810   -2.0470 N   0  0  0  0  0  0  0  0  0  0  0  0
    2.9840  -14.4200    0.3010 C   0  0  0  0  0  0  0  0  0  0  0  0
    4.4040  -14.0520    0.2450 C   0  0  0  0  0  0  0  0  0  0  0  0
    4.7790  -12.7320   -0.0210 C   0  0  0  0  0  0  0  0  0  0  0  0
    6.1310  -12.3750   -0.0900 C   0  0  0  0  0  0  0  0  0  0  0  0
    7.1300  -13.3300    0.1060 C   0  0  0  0  0  0  0  0  0  0  0  0
    8.5130  -13.0530    0.0550 N   0  0  0  0  0  0  0  0  0  0  0  0
    9.3040  -12.8730   -1.0710 C   0  0  0  0  0  0  0  0  0  0  0  0
    8.9080  -12.9640   -2.2250 O   0  0  0  0  0  0  0  0  0  0  0  0
   10.6070  -12.5800   -0.7030 N   0  0  0  0  0  0  0  0  0  0  0  0
   11.7270  -12.3440   -1.5390 C   0  0  0  0  0  0  0  0  0  0  0  0
   11.9340  -12.9980   -2.7560 C   0  0  0  0  0  0  0  0  0  0  0  0
   13.0640  -12.7170   -3.5340 C   0  0  0  0  0  0  0  0  0  0  0  0
   14.0010  -11.7800   -3.1040 C   0  0  0  0  0  0  0  0  0  0  0  0
   13.8120  -11.1190   -1.8940 C   0  0  0  0  0  0  0  0  0  0  0  0
   12.6830  -11.4000   -1.1190 C   0  0  0  0  0  0  0  0  0  0  0  0
   12.4940  -10.5510    0.3820 Cl  0  0  0  0  0  0  0  0  0  0  0  0
    6.7530  -14.6510    0.3760 C   0  0  0  0  0  0  0  0  0  0  0  0
    5.4020  -15.0100    0.4430 C   0  0  0  0  0  0  0  0  0  0  0  0
    2.2430  -14.3610    1.6020 C   0  0  0  0  0  0  0  0  0  0  0  0
    0.9970  -14.6580    1.8110 N   0  0  0  0  0  0  0  0  0  0  0  0
    0.2910  -15.0720    0.7130 C   0  0  0  0  0  0  0  0  0  0  0  0
   -2.8270  -14.3990    1.8710 C   0  0  0  0  0  0  0  0  0  0  0  0
   -3.8110  -14.4450    2.8690 C   0  0  0  0  0  0  0  0  0  0  0  0
   -6.1140  -14.6960    4.5500 C   0  0  0  0  0  0  0  0  0  0  0  0
   -6.7820  -14.5090    5.9280 C   0  0  0  0  0  0  0  0  0  0  0  0
   -7.1996  -15.8530    8.6534 H   0  0  0  0  0  0  0  0  0  0  0  0
   -8.3429  -14.6981    7.8881 H   0  0  0  0  0  0  0  0  0  0  0  0
   -8.7083  -16.4568    7.8881 H   0  0  0  0  0  0  0  0  0  0  0  0
   -7.8290  -16.2980    5.8510 H   0  0  0  0  0  0  0  0  0  0  0  0
   -5.2404  -16.3081    7.3270 H   0  0  0  0  0  0  0  0  0  0  0  0
   -6.2902  -17.7441    7.0205 H   0  0  0  0  0  0  0  0  0  0  0  0
   -4.3596  -17.5183    5.3947 H   0  0  0  0  0  0  0  0  0  0  0  0
   -5.9922  -17.5283    4.6178 H   0  0  0  0  0  0  0  0  0  0  0  0
   -3.4180  -17.6590    3.8727 H   0  0  0  0  0  0  0  0  0  0  0  0
   -1.6732  -17.5846    2.1117 H   0  0  0  0  0  0  0  0  0  0  0  0
   -2.0718  -16.0958   -1.3008 H   0  0  0  0  0  0  0  0  0  0  0  0
    2.6040  -15.8880   -2.4940 H   0  0  0  0  0  0  0  0  0  0  0  0
    3.3170  -14.2730   -2.4800 H   0  0  0  0  0  0  0  0  0  0  0  0
    4.0047  -11.9666   -0.1776 H   0  0  0  0  0  0  0  0  0  0  0  0
    6.4087  -11.3317   -0.3007 H   0  0  0  0  0  0  0  0  0  0  0  0
    8.9820  -12.9960    0.9460 H   0  0  0  0  0  0  0  0  0  0  0  0
   10.8080  -12.5050    0.2830 H   0  0  0  0  0  0  0  0  0  0  0  0
   11.2023  -13.7408   -3.1065 H   0  0  0  0  0  0  0  0  0  0  0  0
   13.2127  -13.2394   -4.4906 H   0  0  0  0  0  0  0  0  0  0  0  0
   14.8871  -11.5634   -3.7187 H   0  0  0  0  0  0  0  0  0  0  0  0
   14.5482  -10.3782   -1.5487 H   0  0  0  0  0  0  0  0  0  0  0  0
    7.5274  -15.4154    0.5373 H   0  0  0  0  0  0  0  0  0  0  0  0
    5.1238  -16.0533    0.6529 H   0  0  0  0  0  0  0  0  0  0  0  0
    2.8196  -14.0288    2.4779 H   0  0  0  0  0  0  0  0  0  0  0  0
   -2.6733  -13.4701    1.3022 H   0  0  0  0  0  0  0  0  0  0  0  0
   -4.4165  -13.5481    3.0663 H   0  0  0  0  0  0  0  0  0  0  0  0
   -5.7145  -13.7290    4.2103 H   0  0  0  0  0  0  0  0  0  0  0  0
   -6.8691  -15.0721    3.8440 H   0  0  0  0  0  0  0  0  0  0  0  0
   -6.0737  -14.0135    6.6084 H   0  0  0  0  0  0  0  0  0  0  0  0
   -7.6850  -13.8934    5.8027 H   0  0  0  0  0  0  0  0  0  0  0  0
  1  2  1  0
  2  3  1  0
  3  4  1  0
  4  5  1  0
  5  6  1  0
  6  7  2  0
  7  8  1  0
  8  9  2  0
  9 10  1  0
 10 11  1  0
 11 12  2  0
 12 13  1  0
 13 14  1  0
 14 15  1  0
 14 16  2  0
 16 17  1  0
 17 18  2  0
 18 19  1  0
 19 20  2  0
 20 21  1  0
 21 22  1  0
 22 23  2  0
 22 24  1  0
 24 25  1  0
 25 26  2  0
 26 27  1  0
 27 28  2  0
 28 29  1  0
 29 30  2  0
 30 31  1  0
 20 32  1  0
 32 33  2  0
 16 34  1  0
 34 35  2  0
 35 36  1  0
  9 37  1  0
 37 38  2  0
  5 39  1  0
 39 40  1  0
 40  2  1  0
 38  6  1  0
 36 10  2  0
 36 13  1  0
 33 17  1  0
 30 25  1  0
  1 41  1  0
  1 42  1  0
  1 43  1  0
  2 44  1  0
  3 45  1  0
  3 46  1  0
  4 47  1  0
  4 48  1  0
  7 49  1  0
  8 50  1  0
 11 51  1  0
 15 52  1  0
 15 53  1  0
 18 54  1  0
 19 55  1  0
 21 56  1  0
 24 57  1  0
 26 58  1  0
 27 59  1  0
 28 60  1  0
 29 61  1  0
 32 62  1  0
 33 63  1  0
 34 64  1  0
 37 65  1  0
 38 66  1  0
 39 67  1  0
 39 68  1  0
 40 69  1  0
 40 70  1  0
M  CHG  1   2   1
M  END
>  <meeko>  (4) 
{"is_sidechain": [false], "free_energy": -8.941, "intermolecular_energy": -11.769, "internal_energy": -0.771}

$$$$
LIB_MXPLPMSWGMUSSK__M_PUB_ALL__e8__s20260927
     RDKit          3D

 70 75  0  0  0  0  0  0  0  0999 V2000
   15.8750  -16.9100  -10.9690 C   0  0  0  0  0  0  0  0  0  0  0  0
   15.4190  -16.7720   -9.5490 N   0  0  0  0  0  0  0  0  0  0  0  0
   13.8980  -16.7760   -9.4310 C   0  0  0  0  0  0  0  0  0  0  0  0
   13.4680  -16.7190   -7.9510 C   0  0  0  0  0  0  0  0  0  0  0  0
   14.1110  -15.5920   -7.2580 N   0  0  0  0  0  0  0  0  0  0  0  0
   13.5420  -15.0960   -6.0850 C   0  0  0  0  0  0  0  0  0  0  0  0
   12.6380  -14.0250   -6.1300 C   0  0  0  0  0  0  0  0  0  0  0  0
   12.0550  -13.5010   -4.9680 C   0  0  0  0  0  0  0  0  0  0  0  0
   12.3550  -14.0360   -3.7150 C   0  0  0  0  0  0  0  0  0  0  0  0
   11.7520  -13.5140   -2.4990 C   0  0  0  0  0  0  0  0  0  0  0  0
   12.3610  -12.8930   -1.3880 C   0  0  0  0  0  0  0  0  0  0  0  0
   11.4950  -12.5260   -0.4450 N   0  0  0  0  0  0  0  0  0  0  0  0
   10.2790  -12.9070   -0.9390 N   0  0  0  0  0  0  0  0  0  0  0  0
    9.0170  -12.7390   -0.3030 C   0  0  0  0  0  0  0  0  0  0  0  0
    9.0280  -12.1490    0.9450 N   0  0  0  0  0  0  0  0  0  0  0  0
    7.9140  -13.1750   -0.9520 C   0  0  0  0  0  0  0  0  0  0  0  0
    6.5460  -13.0740   -0.4270 C   0  0  0  0  0  0  0  0  0  0  0  0
    5.9370  -14.1820    0.1690 C   0  0  0  0  0  0  0  0  0  0  0  0
    4.6280  -14.0980    0.6590 C   0  0  0  0  0  0  0  0  0  0  0  0
    3.9070  -12.9070    0.5620 C   0  0  0  0  0  0  0  0  0  0  0  0
    2.5870  -12.7380    1.0320 N   0  0  0  0  0  0  0  0  0  0  0  0
    1.4510  -12.4410    0.2900 C   0  0  0  0  0  0  0  0  0  0  0  0
    1.4370  -12.2450   -0.9170 O   0  0  0  0  0  0  0  0  0  0  0  0
    0.3370  -12.3960    1.1120 N   0  0  0  0  0  0  0  0  0  0  0  0
   -1.0060  -12.1110    0.7610 C   0  0  0  0  0  0  0  0  0  0  0  0
   -1.9530  -13.0950    0.4650 C   0  0  0  0  0  0  0  0  0  0  0  0
   -3.2640  -12.7430    0.1250 C   0  0  0  0  0  0  0  0  0  0  0  0
   -3.6450  -11.4040    0.0730 C   0  0  0  0  0  0  0  0  0  0  0  0
   -2.7150  -10.4100    0.3620 C   0  0  0  0  0  0  0  0  0  0  0  0
   -1.4060  -10.7620    0.7030 C   0  0  0  0  0  0  0  0  0  0  0  0
   -0.2840   -9.4870    1.0530 Cl  0  0  0  0  0  0  0  0  0  0  0  0
    4.5200  -11.7970   -0.0320 C   0  0  0  0  0  0  0  0  0  0  0  0
    5.8270  -11.8790   -0.5250 C   0  0  0  0  0  0  0  0  0  0  0  0
    8.1600  -13.8020   -2.2890 C   0  0  0  0  0  0  0  0  0  0  0  0
    9.3040  -13.9680   -2.8800 N   0  0  0  0  0  0  0  0  0  0  0  0
   10.4000  -13.5160   -2.1960 C   0  0  0  0  0  0  0  0  0  0  0  0
   13.2400  -15.1160   -3.6540 C   0  0  0  0  0  0  0  0  0  0  0  0
   13.8210  -15.6350   -4.8210 C   0  0  0  0  0  0  0  0  0  0  0  0
   15.5720  -15.4590   -7.3990 C   0  0  0  0  0  0  0  0  0  0  0  0
   15.9950  -15.5280   -8.8800 C   0  0  0  0  0  0  0  0  0  0  0  0
   16.9277  -17.2286  -10.9867 H   0  0  0  0  0  0  0  0  0  0  0  0
   15.2559  -17.6610  -11.4816 H   0  0  0  0  0  0  0  0  0  0  0  0
   15.7762  -15.9417  -11.4816 H   0  0  0  0  0  0  0  0  0  0  0  0
   15.7670  -17.5840   -9.0250 H   0  0  0  0  0  0  0  0  0  0  0  0
   13.4922  -15.9007   -9.9593 H   0  0  0  0  0  0  0  0  0  0  0  0
   13.5102  -17.7035   -9.8774 H   0  0  0  0  0  0  0  0  0  0  0  0
   12.3760  -16.5979   -7.8981 H   0  0  0  0  0  0  0  0  0  0  0  0
   13.7764  -17.6539   -7.4603 H   0  0  0  0  0  0  0  0  0  0  0  0
   12.3793  -13.5840   -7.1039 H   0  0  0  0  0  0  0  0  0  0  0  0
   11.3526  -12.6580   -5.0450 H   0  0  0  0  0  0  0  0  0  0  0  0
   13.4456  -12.7280   -1.3084 H   0  0  0  0  0  0  0  0  0  0  0  0
    9.9340  -12.0270    1.3960 H   0  0  0  0  0  0  0  0  0  0  0  0
    8.1700  -11.9690    1.4510 H   0  0  0  0  0  0  0  0  0  0  0  0
    6.4911  -15.1285    0.2539 H   0  0  0  0  0  0  0  0  0  0  0  0
    4.1634  -14.9794    1.1250 H   0  0  0  0  0  0  0  0  0  0  0  0
    2.4600  -12.8290    2.0280 H   0  0  0  0  0  0  0  0  0  0  0  0
    0.4710  -12.6040    2.0910 H   0  0  0  0  0  0  0  0  0  0  0  0
   -1.6653  -14.1561    0.4996 H   0  0  0  0  0  0  0  0  0  0  0  0
   -3.9989  -13.5291   -0.1028 H   0  0  0  0  0  0  0  0  0  0  0  0
   -4.6769  -11.1335   -0.1954 H   0  0  0  0  0  0  0  0  0  0  0  0
   -3.0090   -9.3508    0.3222 H   0  0  0  0  0  0  0  0  0  0  0  0
    3.9675  -10.8492   -0.1120 H   0  0  0  0  0  0  0  0  0  0  0  0
    6.2914  -10.9982   -0.9924 H   0  0  0  0  0  0  0  0  0  0  0  0
    7.2730  -14.1620   -2.8308 H   0  0  0  0  0  0  0  0  0  0  0  0
   13.4839  -15.5644   -2.6796 H   0  0  0  0  0  0  0  0  0  0  0  0
   14.5130  -16.4864   -4.7423 H   0  0  0  0  0  0  0  0  0  0  0  0
   15.8868  -14.4918   -6.9801 H   0  0  0  0  0  0  0  0  0  0  0  0
   16.0522  -16.2886   -6.8594 H   0  0  0  0  0  0  0  0  0  0  0  0
   15.6258  -14.6334   -9.4028 H   0  0  0  0  0  0  0  0  0  0  0  0
   17.0928  -15.5753   -8.9319 H   0  0  0  0  0  0  0  0  0  0  0  0
  1  2  1  0
  2  3  1  0
  3  4  1  0
  4  5  1  0
  5  6  1  0
  6  7  2  0
  7  8  1  0
  8  9  2  0
  9 10  1  0
 10 11  1  0
 11 12  2  0
 12 13  1  0
 13 14  1  0
 14 15  1  0
 14 16  2  0
 16 17  1  0
 17 18  2  0
 18 19  1  0
 19 20  2  0
 20 21  1  0
 21 22  1  0
 22 23  2  0
 22 24  1  0
 24 25  1  0
 25 26  2  0
 26 27  1  0
 27 28  2  0
 28 29  1  0
 29 30  2  0
 30 31  1  0
 20 32  1  0
 32 33  2  0
 16 34  1  0
 34 35  2  0
 35 36  1  0
  9 37  1  0
 37 38  2  0
  5 39  1  0
 39 40  1  0
 40  2  1  0
 38  6  1  0
 36 10  2  0
 36 13  1  0
 33 17  1  0
 30 25  1  0
  1 41  1  0
  1 42  1  0
  1 43  1  0
  2 44  1  0
  3 45  1  0
  3 46  1  0
  4 47  1  0
  4 48  1  0
  7 49  1  0
  8 50  1  0
 11 51  1  0
 15 52  1  0
 15 53  1  0
 18 54  1  0
 19 55  1  0
 21 56  1  0
 24 57  1  0
 26 58  1  0
 27 59  1  0
 28 60  1  0
 29 61  1  0
 32 62  1  0
 33 63  1  0
 34 64  1  0
 37 65  1  0
 38 66  1  0
 39 67  1  0
 39 68  1  0
 40 69  1  0
 40 70  1  0
M  CHG  1   2   1
M  END
>  <meeko>  (5) 
{"is_sidechain": [false], "free_energy": -8.766, "intermolecular_energy": -11.482, "internal_energy": -0.826}

$$$$
LIB_MXPLPMSWGMUSSK__M_PUB_ALL__e8__s20260927
     RDKit          3D

 70 75  0  0  0  0  0  0  0  0999 V2000
   13.0840  -11.1590   -0.4340 C   0  0  0  0  0  0  0  0  0  0  0  0
   11.6290  -11.4920   -0.5690 N   0  0  0  0  0  0  0  0  0  0  0  0
   11.0030  -11.8880    0.7640 C   0  0  0  0  0  0  0  0  0  0  0  0
    9.4910  -12.1390    0.6010 C   0  0  0  0  0  0  0  0  0  0  0  0
    9.2290  -13.0990   -0.4820 N   0  0  0  0  0  0  0  0  0  0  0  0
    8.0180  -13.7920   -0.5050 C   0  0  0  0  0  0  0  0  0  0  0  0
    6.8000  -13.0990   -0.4580 C   0  0  0  0  0  0  0  0  0  0  0  0
    5.5690  -13.7670   -0.4740 C   0  0  0  0  0  0  0  0  0  0  0  0
    5.5130  -15.1600   -0.5410 C   0  0  0  0  0  0  0  0  0  0  0  0
    4.2450  -15.8720   -0.5690 C   0  0  0  0  0  0  0  0  0  0  0  0
    3.8990  -17.0670   -1.2330 C   0  0  0  0  0  0  0  0  0  0  0  0
    2.6380  -17.4410   -1.0300 N   0  0  0  0  0  0  0  0  0  0  0  0
    2.1290  -16.4750   -0.2060 N   0  0  0  0  0  0  0  0  0  0  0  0
    0.8040  -16.4120    0.3070 C   0  0  0  0  0  0  0  0  0  0  0  0
   -0.0580  -17.4180   -0.0820 N   0  0  0  0  0  0  0  0  0  0  0  0
    0.4830  -15.3780    1.1170 C   0  0  0  0  0  0  0  0  0  0  0  0
   -0.8400  -15.1760    1.7220 C   0  0  0  0  0  0  0  0  0  0  0  0
   -1.9190  -14.7650    0.9340 C   0  0  0  0  0  0  0  0  0  0  0  0
   -3.1800  -14.5570    1.5050 C   0  0  0  0  0  0  0  0  0  0  0  0
   -3.3840  -14.7530    2.8720 C   0  0  0  0  0  0  0  0  0  0  0  0
   -4.6200  -14.5660    3.5250 N   0  0  0  0  0  0  0  0  0  0  0  0
   -5.3310  -15.4880    4.2820 C   0  0  0  0  0  0  0  0  0  0  0  0
   -4.9900  -16.6480    4.4720 O   0  0  0  0  0  0  0  0  0  0  0  0
   -6.4830  -14.9100    4.7890 N   0  0  0  0  0  0  0  0  0  0  0  0
   -7.4880  -15.5060    5.5910 C   0  0  0  0  0  0  0  0  0  0  0  0
   -8.4310  -16.4130    5.1030 C   0  0  0  0  0  0  0  0  0  0  0  0
   -9.3980  -16.9640    5.9520 C   0  0  0  0  0  0  0  0  0  0  0  0
   -9.4340  -16.6140    7.3010 C   0  0  0  0  0  0  0  0  0  0  0  0
   -8.5030  -15.7110    7.8050 C   0  0  0  0  0  0  0  0  0  0  0  0
   -7.5380  -15.1620    6.9560 C   0  0  0  0  0  0  0  0  0  0  0  0
   -6.4020  -14.0410    7.6330 Cl  0  0  0  0  0  0  0  0  0  0  0  0
   -2.3020  -15.1660    3.6600 C   0  0  0  0  0  0  0  0  0  0  0  0
   -1.0400  -15.3740    3.0910 C   0  0  0  0  0  0  0  0  0  0  0  0
    1.5850  -14.3980    1.3760 C   0  0  0  0  0  0  0  0  0  0  0  0
    2.7970  -14.4380    0.9120 N   0  0  0  0  0  0  0  0  0  0  0  0
    3.0880  -15.4970    0.0950 C   0  0  0  0  0  0  0  0  0  0  0  0
    6.7180  -15.8650   -0.6060 C   0  0  0  0  0  0  0  0  0  0  0  0
    7.9470  -15.1890   -0.5900 C   0  0  0  0  0  0  0  0  0  0  0  0
    9.8740  -12.8410   -1.7820 C   0  0  0  0  0  0  0  0  0  0  0  0
   11.3840  -12.5810   -1.6100 C   0  0  0  0  0  0  0  0  0  0  0  0
   13.3489  -11.0984    0.6319 H   0  0  0  0  0  0  0  0  0  0  0  0
   13.6859  -11.9426   -0.9174 H   0  0  0  0  0  0  0  0  0  0  0  0
   13.2851  -10.1916   -0.9174 H   0  0  0  0  0  0  0  0  0  0  0  0
   11.1410  -10.6480   -0.8960 H   0  0  0  0  0  0  0  0  0  0  0  0
   11.4844  -12.8067    1.1305 H   0  0  0  0  0  0  0  0  0  0  0  0
   11.1506  -11.0680    1.4822 H   0  0  0  0  0  0  0  0  0  0  0  0
    9.0897  -12.5412    1.5429 H   0  0  0  0  0  0  0  0  0  0  0  0
    9.0030  -11.1858    0.3496 H   0  0  0  0  0  0  0  0  0  0  0  0
    6.8115  -12.0002   -0.4072 H   0  0  0  0  0  0  0  0  0  0  0  0
    4.6353  -13.1869   -0.4333 H   0  0  0  0  0  0  0  0  0  0  0  0
    4.6034  -17.6352   -1.8584 H   0  0  0  0  0  0  0  0  0  0  0  0
   -0.8830  -17.1460   -0.6140 H   0  0  0  0  0  0  0  0  0  0  0  0
    0.0480  -18.3650    0.2590 H   0  0  0  0  0  0  0  0  0  0  0  0
   -1.7758  -14.6036   -0.1446 H   0  0  0  0  0  0  0  0  0  0  0  0
   -4.0188  -14.2358    0.8700 H   0  0  0  0  0  0  0  0  0  0  0  0
   -5.0430  -13.6580    3.4140 H   0  0  0  0  0  0  0  0  0  0  0  0
   -6.6440  -13.9350    4.5860 H   0  0  0  0  0  0  0  0  0  0  0  0
   -8.4138  -16.6974    4.0405 H   0  0  0  0  0  0  0  0  0  0  0  0
  -10.1338  -17.6774    5.5524 H   0  0  0  0  0  0  0  0  0  0  0  0
  -10.1954  -17.0500    7.9644 H   0  0  0  0  0  0  0  0  0  0  0  0
   -8.5264  -15.4301    8.8683 H   0  0  0  0  0  0  0  0  0  0  0  0
   -2.4457  -15.3288    4.7384 H   0  0  0  0  0  0  0  0  0  0  0  0
   -0.2006  -15.6952    3.7252 H   0  0  0  0  0  0  0  0  0  0  0  0
    1.3406  -13.5498    2.0324 H   0  0  0  0  0  0  0  0  0  0  0  0
    6.7025  -16.9630   -0.6705 H   0  0  0  0  0  0  0  0  0  0  0  0
    8.8791  -15.7705   -0.6456 H   0  0  0  0  0  0  0  0  0  0  0  0
    9.7319  -13.7158   -2.4335 H   0  0  0  0  0  0  0  0  0  0  0  0
    9.4141  -11.9474   -2.2292 H   0  0  0  0  0  0  0  0  0  0  0  0
   11.8754  -13.5095   -1.2837 H   0  0  0  0  0  0  0  0  0  0  0  0
   11.7975  -12.2485   -2.5736 H   0  0  0  0  0  0  0  0  0  0  0  0
  1  2  1  0
  2  3  1  0
  3  4  1  0
  4  5  1  0
  5  6  1  0
  6  7  2  0
  7  8  1  0
  8  9  2  0
  9 10  1  0
 10 11  1  0
 11 12  2  0
 12 13  1  0
 13 14  1  0
 14 15  1  0
 14 16  2  0
 16 17  1  0
 17 18  2  0
 18 19  1  0
 19 20  2  0
 20 21  1  0
 21 22  1  0
 22 23  2  0
 22 24  1  0
 24 25  1  0
 25 26  2  0
 26 27  1  0
 27 28  2  0
 28 29  1  0
 29 30  2  0
 30 31  1  0
 20 32  1  0
 32 33  2  0
 16 34  1  0
 34 35  2  0
 35 36  1  0
  9 37  1  0
 37 38  2  0
  5 39  1  0
 39 40  1  0
 40  2  1  0
 38  6  1  0
 36 10  2  0
 36 13  1  0
 33 17  1  0
 30 25  1  0
  1 41  1  0
  1 42  1  0
  1 43  1  0
  2 44  1  0
  3 45  1  0
  3 46  1  0
  4 47  1  0
  4 48  1  0
  7 49  1  0
  8 50  1  0
 11 51  1  0
 15 52  1  0
 15 53  1  0
 18 54  1  0
 19 55  1  0
 21 56  1  0
 24 57  1  0
 26 58  1  0
 27 59  1  0
 28 60  1  0
 29 61  1  0
 32 62  1  0
 33 63  1  0
 34 64  1  0
 37 65  1  0
 38 66  1  0
 39 67  1  0
 39 68  1  0
 40 69  1  0
 40 70  1  0
M  CHG  1   2   1
M  END
>  <meeko>  (6) 
{"is_sidechain": [false], "free_energy": -8.733, "intermolecular_energy": -11.752, "internal_energy": -0.513}

$$$$
LIB_MXPLPMSWGMUSSK__M_PUB_ALL__e8__s20260927
     RDKit          3D

 70 75  0  0  0  0  0  0  0  0999 V2000
   10.7330  -12.1950    0.0970 C   0  0  0  0  0  0  0  0  0  0  0  0
    9.4180  -12.8880    0.2780 N   0  0  0  0  0  0  0  0  0  0  0  0
    8.9470  -13.5720   -1.0010 C   0  0  0  0  0  0  0  0  0  0  0  0
    7.6360  -14.3460   -0.7530 C   0  0  0  0  0  0  0  0  0  0  0  0
    6.6200  -13.4790   -0.1380 N   0  0  0  0  0  0  0  0  0  0  0  0
    5.2720  -13.8250   -0.2400 C   0  0  0  0  0  0  0  0  0  0  0  0
    4.8970  -15.1240   -0.6130 C   0  0  0  0  0  0  0  0  0  0  0  0
    3.5520  -15.5000   -0.7280 C   0  0  0  0  0  0  0  0  0  0  0  0
    2.5310  -14.5860   -0.4710 C   0  0  0  0  0  0  0  0  0  0  0  0
    1.1290  -14.9600   -0.5750 C   0  0  0  0  0  0  0  0  0  0  0  0
    0.3290  -15.1390   -1.7230 C   0  0  0  0  0  0  0  0  0  0  0  0
   -0.9240  -15.4950   -1.4450 N   0  0  0  0  0  0  0  0  0  0  0  0
   -0.9610  -15.5590   -0.0800 N   0  0  0  0  0  0  0  0  0  0  0  0
   -2.0860  -15.8980    0.7210 C   0  0  0  0  0  0  0  0  0  0  0  0
   -3.2630  -16.1710    0.0510 N   0  0  0  0  0  0  0  0  0  0  0  0
   -1.9310  -15.9170    2.0640 C   0  0  0  0  0  0  0  0  0  0  0  0
   -2.9950  -16.2450    3.0200 C   0  0  0  0  0  0  0  0  0  0  0  0
   -3.7530  -15.2280    3.6070 C   0  0  0  0  0  0  0  0  0  0  0  0
   -4.7610  -15.5320    4.5300 C   0  0  0  0  0  0  0  0  0  0  0  0
   -5.0280  -16.8560    4.8830 C   0  0  0  0  0  0  0  0  0  0  0  0
   -6.0240  -17.2470    5.8020 N   0  0  0  0  0  0  0  0  0  0  0  0
   -7.2920  -16.7030    5.9660 C   0  0  0  0  0  0  0  0  0  0  0  0
   -7.7310  -15.7520    5.3340 O   0  0  0  0  0  0  0  0  0  0  0  0
   -7.9870  -17.3900    6.9470 N   0  0  0  0  0  0  0  0  0  0  0  0
   -9.2980  -17.1480    7.4300 C   0  0  0  0  0  0  0  0  0  0  0  0
   -9.6680  -15.9860    8.1120 C   0  0  0  0  0  0  0  0  0  0  0  0
  -10.9820  -15.8120    8.5630 C   0  0  0  0  0  0  0  0  0  0  0  0
  -11.9410  -16.7970    8.3400 C   0  0  0  0  0  0  0  0  0  0  0  0
  -11.5900  -17.9620    7.6640 C   0  0  0  0  0  0  0  0  0  0  0  0
  -10.2790  -18.1350    7.2130 C   0  0  0  0  0  0  0  0  0  0  0  0
   -9.8910  -19.6040    6.3780 Cl  0  0  0  0  0  0  0  0  0  0  0  0
   -4.2700  -17.8740    4.2920 C   0  0  0  0  0  0  0  0  0  0  0  0
   -3.2610  -17.5720    3.3700 C   0  0  0  0  0  0  0  0  0  0  0  0
   -0.5620  -15.5630    2.5570 C   0  0  0  0  0  0  0  0  0  0  0  0
    0.4730  -15.2460    1.8410 N   0  0  0  0  0  0  0  0  0  0  0  0
    0.2800  -15.2370    0.4860 C   0  0  0  0  0  0  0  0  0  0  0  0
    2.8870  -13.2920   -0.0810 C   0  0  0  0  0  0  0  0  0  0  0  0
    4.2360  -12.9220    0.0330 C   0  0  0  0  0  0  0  0  0  0  0  0
    7.0220  -12.7070    1.0510 C   0  0  0  0  0  0  0  0  0  0  0  0
    8.3380  -11.9450    0.8000 C   0  0  0  0  0  0  0  0  0  0  0  0
   11.1659  -11.9669    1.0822 H   0  0  0  0  0  0  0  0  0  0  0  0
   11.4183  -12.8491   -0.4621 H   0  0  0  0  0  0  0  0  0  0  0  0
   10.5808  -11.2600   -0.4621 H   0  0  0  0  0  0  0  0  0  0  0  0
    9.5430  -13.6230    0.9870 H   0  0  0  0  0  0  0  0  0  0  0  0
    8.7758  -12.8104   -1.7760 H   0  0  0  0  0  0  0  0  0  0  0  0
    9.7208  -14.2819   -1.3286 H   0  0  0  0  0  0  0  0  0  0  0  0
    7.2537  -14.7229   -1.7131 H   0  0  0  0  0  0  0  0  0  0  0  0
    7.8461  -15.1802   -0.0674 H   0  0  0  0  0  0  0  0  0  0  0  0
    5.6801  -15.8680   -0.8209 H   0  0  0  0  0  0  0  0  0  0  0  0
    3.2987  -16.5285   -1.0246 H   0  0  0  0  0  0  0  0  0  0  0  0
    0.7034  -14.9983   -2.7477 H   0  0  0  0  0  0  0  0  0  0  0  0
   -3.9450  -16.7590    0.5270 H   0  0  0  0  0  0  0  0  0  0  0  0
   -3.3890  -15.9160   -0.9200 H   0  0  0  0  0  0  0  0  0  0  0  0
   -3.5558  -14.1789    3.3414 H   0  0  0  0  0  0  0  0  0  0  0  0
   -5.3486  -14.7192    4.9817 H   0  0  0  0  0  0  0  0  0  0  0  0
   -5.7770  -18.0010    6.4240 H   0  0  0  0  0  0  0  0  0  0  0  0
   -7.5290  -18.1780    7.3800 H   0  0  0  0  0  0  0  0  0  0  0  0
   -8.9201  -15.2007    8.2963 H   0  0  0  0  0  0  0  0  0  0  0  0
  -11.2588  -14.8911    9.0971 H   0  0  0  0  0  0  0  0  0  0  0  0
  -12.9718  -16.6549    8.6967 H   0  0  0  0  0  0  0  0  0  0  0  0
  -12.3425  -18.7442    7.4854 H   0  0  0  0  0  0  0  0  0  0  0  0
   -4.4697  -18.9232    4.5552 H   0  0  0  0  0  0  0  0  0  0  0  0
   -2.6733  -18.3845    2.9177 H   0  0  0  0  0  0  0  0  0  0  0  0
   -0.4175  -15.5727    3.6474 H   0  0  0  0  0  0  0  0  0  0  0  0
    2.1007  -12.5549    0.1392 H   0  0  0  0  0  0  0  0  0  0  0  0
    4.4863  -11.8972    0.3446 H   0  0  0  0  0  0  0  0  0  0  0  0
    6.2294  -11.9842    1.2947 H   0  0  0  0  0  0  0  0  0  0  0  0
    7.1776  -13.4068    1.8853 H   0  0  0  0  0  0  0  0  0  0  0  0
    8.1605  -11.1533    0.0572 H   0  0  0  0  0  0  0  0  0  0  0  0
    8.6798  -11.5084    1.7500 H   0  0  0  0  0  0  0  0  0  0  0  0
  1  2  1  0
  2  3  1  0
  3  4  1  0
  4  5  1  0
  5  6  1  0
  6  7  2  0
  7  8  1  0
  8  9  2  0
  9 10  1  0
 10 11  1  0
 11 12  2  0
 12 13  1  0
 13 14  1  0
 14 15  1  0
 14 16  2  0
 16 17  1  0
 17 18  2  0
 18 19  1  0
 19 20  2  0
 20 21  1  0
 21 22  1  0
 22 23  2  0
 22 24  1  0
 24 25  1  0
 25 26  2  0
 26 27  1  0
 27 28  2  0
 28 29  1  0
 29 30  2  0
 30 31  1  0
 20 32  1  0
 32 33  2  0
 16 34  1  0
 34 35  2  0
 35 36  1  0
  9 37  1  0
 37 38  2  0
  5 39  1  0
 39 40  1  0
 40  2  1  0
 38  6  1  0
 36 10  2  0
 36 13  1  0
 33 17  1  0
 30 25  1  0
  1 41  1  0
  1 42  1  0
  1 43  1  0
  2 44  1  0
  3 45  1  0
  3 46  1  0
  4 47  1  0
  4 48  1  0
  7 49  1  0
  8 50  1  0
 11 51  1  0
 15 52  1  0
 15 53  1  0
 18 54  1  0
 19 55  1  0
 21 56  1  0
 24 57  1  0
 26 58  1  0
 27 59  1  0
 28 60  1  0
 29 61  1  0
 32 62  1  0
 33 63  1  0
 34 64  1  0
 37 65  1  0
 38 66  1  0
 39 67  1  0
 39 68  1  0
 40 69  1  0
 40 70  1  0
M  CHG  1   2   1
M  END
>  <meeko>  (7) 
{"is_sidechain": [false], "free_energy": -8.685, "intermolecular_energy": -11.472, "internal_energy": -0.729}

$$$$
LIB_MXPLPMSWGMUSSK__M_PUB_ALL__e8__s20260927
     RDKit          3D

 70 75  0  0  0  0  0  0  0  0999 V2000
   -2.8310  -16.4310    2.8120 C   0  0  0  0  0  0  0  0  0  0  0  0
   -1.7300  -16.1940    1.8240 N   0  0  0  0  0  0  0  0  0  0  0  0
   -0.8960  -14.9670    2.1760 C   0  0  0  0  0  0  0  0  0  0  0  0
    0.2770  -14.8060    1.1890 C   0  0  0  0  0  0  0  0  0  0  0  0
   -0.1990  -14.8160   -0.2030 N   0  0  0  0  0  0  0  0  0  0  0  0
    0.5940  -14.2530   -1.2020 C   0  0  0  0  0  0  0  0  0  0  0  0
    0.6150  -14.8050   -2.4910 C   0  0  0  0  0  0  0  0  0  0  0  0
    1.4060  -14.2650   -3.5140 C   0  0  0  0  0  0  0  0  0  0  0  0
    2.2040  -13.1450   -3.2830 C   0  0  0  0  0  0  0  0  0  0  0  0
    3.0240  -12.5630   -4.3340 C   0  0  0  0  0  0  0  0  0  0  0  0
    3.0180  -11.2530   -4.8580 C   0  0  0  0  0  0  0  0  0  0  0  0
    3.9200  -11.0620   -5.8180 N   0  0  0  0  0  0  0  0  0  0  0  0
    4.5470  -12.2710   -5.9360 N   0  0  0  0  0  0  0  0  0  0  0  0
    5.5990  -12.5940   -6.8370 C   0  0  0  0  0  0  0  0  0  0  0  0
    6.0150  -11.5900   -7.6880 N   0  0  0  0  0  0  0  0  0  0  0  0
    6.1030  -13.8490   -6.8050 C   0  0  0  0  0  0  0  0  0  0  0  0
    7.1860  -14.3330   -7.6700 C   0  0  0  0  0  0  0  0  0  0  0  0
    8.4530  -14.5880   -7.1350 C   0  0  0  0  0  0  0  0  0  0  0  0
    9.4950  -15.0370   -7.9560 C   0  0  0  0  0  0  0  0  0  0  0  0
    9.2900  -15.2360   -9.3220 C   0  0  0  0  0  0  0  0  0  0  0  0
   10.2850  -15.6870  -10.2150 N   0  0  0  0  0  0  0  0  0  0  0  0
   11.3960  -14.9910  -10.6740 C   0  0  0  0  0  0  0  0  0  0  0  0
   11.6650  -13.8340  -10.3820 O   0  0  0  0  0  0  0  0  0  0  0  0
   12.1550  -15.7930  -11.5110 N   0  0  0  0  0  0  0  0  0  0  0  0
   13.3500  -15.4650  -12.1980 C   0  0  0  0  0  0  0  0  0  0  0  0
   13.3780  -14.8940  -13.4720 C   0  0  0  0  0  0  0  0  0  0  0  0
   14.5960  -14.5950  -14.0940 C   0  0  0  0  0  0  0  0  0  0  0  0
   15.8020  -14.8670  -13.4510 C   0  0  0  0  0  0  0  0  0  0  0  0
   15.7940  -15.4370  -12.1820 C   0  0  0  0  0  0  0  0  0  0  0  0
   14.5780  -15.7340  -11.5610 C   0  0  0  0  0  0  0  0  0  0  0  0
   14.6220  -16.4460   -9.9810 Cl  0  0  0  0  0  0  0  0  0  0  0  0
    8.0210  -14.9820   -9.8550 C   0  0  0  0  0  0  0  0  0  0  0  0
    6.9780  -14.5330   -9.0370 C   0  0  0  0  0  0  0  0  0  0  0  0
    5.4720  -14.7690   -5.8060 C   0  0  0  0  0  0  0  0  0  0  0  0
    4.5080  -14.4920   -4.9820 N   0  0  0  0  0  0  0  0  0  0  0  0
    4.0220  -13.2140   -5.0410 C   0  0  0  0  0  0  0  0  0  0  0  0
    2.1820  -12.5710   -2.0080 C   0  0  0  0  0  0  0  0  0  0  0  0
    1.3880  -13.1170   -0.9890 C   0  0  0  0  0  0  0  0  0  0  0  0
   -1.0900  -15.9200   -0.6020 C   0  0  0  0  0  0  0  0  0  0  0  0
   -2.2540  -16.0830    0.3960 C   0  0  0  0  0  0  0  0  0  0  0  0
   -2.4318  -16.3451    3.8334 H   0  0  0  0  0  0  0  0  0  0  0  0
   -3.6238  -15.6829    2.6640 H   0  0  0  0  0  0  0  0  0  0  0  0
   -3.2458  -17.4390    2.6640 H   0  0  0  0  0  0  0  0  0  0  0  0
   -1.1010  -17.0070    1.8510 H   0  0  0  0  0  0  0  0  0  0  0  0
   -1.5331  -14.0715    2.1293 H   0  0  0  0  0  0  0  0  0  0  0  0
   -0.4905  -15.0934    3.1907 H   0  0  0  0  0  0  0  0  0  0  0  0
    0.7860  -13.8514    1.3881 H   0  0  0  0  0  0  0  0  0  0  0  0
    0.9698  -15.6490    1.3281 H   0  0  0  0  0  0  0  0  0  0  0  0
   -0.0069  -15.6867   -2.7051 H   0  0  0  0  0  0  0  0  0  0  0  0
    1.3973  -14.7300   -4.5108 H   0  0  0  0  0  0  0  0  0  0  0  0
    2.3343  -10.4659   -4.5072 H   0  0  0  0  0  0  0  0  0  0  0  0
    6.7770  -11.8080   -8.3300 H   0  0  0  0  0  0  0  0  0  0  0  0
    5.6760  -10.6410   -7.5910 H   0  0  0  0  0  0  0  0  0  0  0  0
    8.6324  -14.4346   -6.0606 H   0  0  0  0  0  0  0  0  0  0  0  0
   10.4852  -15.2348   -7.5197 H   0  0  0  0  0  0  0  0  0  0  0  0
   10.1620  -16.6210  -10.5750 H   0  0  0  0  0  0  0  0  0  0  0  0
   11.8450  -16.7430  -11.6540 H   0  0  0  0  0  0  0  0  0  0  0  0
   12.4334  -14.6769  -13.9922 H   0  0  0  0  0  0  0  0  0  0  0  0
   14.6011  -14.1425  -15.0966 H   0  0  0  0  0  0  0  0  0  0  0  0
   16.7564  -14.6320  -13.9448 H   0  0  0  0  0  0  0  0  0  0  0  0
   16.7426  -15.6534  -11.6687 H   0  0  0  0  0  0  0  0  0  0  0  0
    7.8414  -15.1371  -10.9291 H   0  0  0  0  0  0  0  0  0  0  0  0
    5.9876  -14.3362   -9.4733 H   0  0  0  0  0  0  0  0  0  0  0  0
    5.8698  -15.7938   -5.7660 H   0  0  0  0  0  0  0  0  0  0  0  0
    2.7946  -11.6809   -1.8019 H   0  0  0  0  0  0  0  0  0  0  0  0
    1.3881  -12.6418    0.0031 H   0  0  0  0  0  0  0  0  0  0  0  0
   -1.5000  -15.7077   -1.6004 H   0  0  0  0  0  0  0  0  0  0  0  0
   -0.5068  -16.8526   -0.6135 H   0  0  0  0  0  0  0  0  0  0  0  0
   -2.9177  -15.2089    0.3221 H   0  0  0  0  0  0  0  0  0  0  0  0
   -2.8044  -17.0029    0.1493 H   0  0  0  0  0  0  0  0  0  0  0  0
  1  2  1  0
  2  3  1  0
  3  4  1  0
  4  5  1  0
  5  6  1  0
  6  7  2  0
  7  8  1  0
  8  9  2  0
  9 10  1  0
 10 11  1  0
 11 12  2  0
 12 13  1  0
 13 14  1  0
 14 15  1  0
 14 16  2  0
 16 17  1  0
 17 18  2  0
 18 19  1  0
 19 20  2  0
 20 21  1  0
 21 22  1  0
 22 23  2  0
 22 24  1  0
 24 25  1  0
 25 26  2  0
 26 27  1  0
 27 28  2  0
 28 29  1  0
 29 30  2  0
 30 31  1  0
 20 32  1  0
 32 33  2  0
 16 34  1  0
 34 35  2  0
 35 36  1  0
  9 37  1  0
 37 38  2  0
  5 39  1  0
 39 40  1  0
 40  2  1  0
 38  6  1  0
 36 10  2  0
 36 13  1  0
 33 17  1  0
 30 25  1  0
  1 41  1  0
  1 42  1  0
  1 43  1  0
  2 44  1  0
  3 45  1  0
  3 46  1  0
  4 47  1  0
  4 48  1  0
  7 49  1  0
  8 50  1  0
 11 51  1  0
 15 52  1  0
 15 53  1  0
 18 54  1  0
 19 55  1  0
 21 56  1  0
 24 57  1  0
 26 58  1  0
 27 59  1  0
 28 60  1  0
 29 61  1  0
 32 62  1  0
 33 63  1  0
 34 64  1  0
 37 65  1  0
 38 66  1  0
 39 67  1  0
 39 68  1  0
 40 69  1  0
 40 70  1  0
M  CHG  1   2   1
M  END
>  <meeko>  (8) 
{"is_sidechain": [false], "free_energy": -8.408, "intermolecular_energy": -10.934, "internal_energy": -0.9}

$$$$
LIB_MXPLPMSWGMUSSK__M_PUB_ALL__e8__s20260927
     RDKit          3D

 70 75  0  0  0  0  0  0  0  0999 V2000
    7.4230  -13.9250   -8.3910 C   0  0  0  0  0  0  0  0  0  0  0  0
    6.8020  -13.2850   -7.1870 N   0  0  0  0  0  0  0  0  0  0  0  0
    6.9190  -14.1610   -5.9450 C   0  0  0  0  0  0  0  0  0  0  0  0
    6.3470  -13.4340   -4.7110 C   0  0  0  0  0  0  0  0  0  0  0  0
    4.9810  -12.9530   -4.9680 N   0  0  0  0  0  0  0  0  0  0  0  0
    4.1370  -12.6820   -3.8900 C   0  0  0  0  0  0  0  0  0  0  0  0
    2.7470  -12.6390   -4.0680 C   0  0  0  0  0  0  0  0  0  0  0  0
    1.8750  -12.3640   -3.0070 C   0  0  0  0  0  0  0  0  0  0  0  0
    2.3650  -12.1230   -1.7230 C   0  0  0  0  0  0  0  0  0  0  0  0
    1.4760  -11.8450   -0.6070 C   0  0  0  0  0  0  0  0  0  0  0  0
    0.6920  -10.7030   -0.3430 C   0  0  0  0  0  0  0  0  0  0  0  0
   -0.0180  -10.7940    0.7790 N   0  0  0  0  0  0  0  0  0  0  0  0
    0.2950  -12.0280    1.2760 N   0  0  0  0  0  0  0  0  0  0  0  0
   -0.2040  -12.6100    2.4740 C   0  0  0  0  0  0  0  0  0  0  0  0
   -1.0780  -11.8410    3.2170 N   0  0  0  0  0  0  0  0  0  0  0  0
    0.2170  -13.8520    2.8040 C   0  0  0  0  0  0  0  0  0  0  0  0
   -0.2070  -14.5830    4.0050 C   0  0  0  0  0  0  0  0  0  0  0  0
   -1.3340  -15.4090    3.9650 C   0  0  0  0  0  0  0  0  0  0  0  0
   -1.7520  -16.0990    5.1090 C   0  0  0  0  0  0  0  0  0  0  0  0
   -1.0530  -15.9740    6.3110 C   0  0  0  0  0  0  0  0  0  0  0  0
   -1.4070  -16.6350    7.5070 N   0  0  0  0  0  0  0  0  0  0  0  0
   -0.9640  -17.8700    7.9600 C   0  0  0  0  0  0  0  0  0  0  0  0
   -0.1990  -18.6050    7.3500 O   0  0  0  0  0  0  0  0  0  0  0  0
   -1.5130  -18.1540    9.1990 N   0  0  0  0  0  0  0  0  0  0  0  0
   -1.3340  -19.3110    9.9980 C   0  0  0  0  0  0  0  0  0  0  0  0
   -2.1920  -20.4140    9.9650 C   0  0  0  0  0  0  0  0  0  0  0  0
   -1.9560  -21.5260   10.7810 C   0  0  0  0  0  0  0  0  0  0  0  0
   -0.8610  -21.5490   11.6430 C   0  0  0  0  0  0  0  0  0  0  0  0
    0.0040  -20.4600   11.6910 C   0  0  0  0  0  0  0  0  0  0  0  0
   -0.2320  -19.3500   10.8740 C   0  0  0  0  0  0  0  0  0  0  0  0
    0.8740  -18.0180   10.9720 Cl  0  0  0  0  0  0  0  0  0  0  0  0
    0.0770  -15.1480    6.3480 C   0  0  0  0  0  0  0  0  0  0  0  0
    0.4960  -14.4570    5.2060 C   0  0  0  0  0  0  0  0  0  0  0  0
    1.1860  -14.4760    1.8480 C   0  0  0  0  0  0  0  0  0  0  0  0
    1.6560  -13.9580    0.7540 N   0  0  0  0  0  0  0  0  0  0  0  0
    1.2090  -12.7000    0.4520 C   0  0  0  0  0  0  0  0  0  0  0  0
    3.7480  -12.1790   -1.5250 C   0  0  0  0  0  0  0  0  0  0  0  0
    4.6150  -12.4550   -2.5920 C   0  0  0  0  0  0  0  0  0  0  0  0
    4.7610  -12.1760   -6.2000 C   0  0  0  0  0  0  0  0  0  0  0  0
    5.3440  -12.9030   -7.4280 C   0  0  0  0  0  0  0  0  0  0  0  0
    8.1553  -14.6797   -8.0684 H   0  0  0  0  0  0  0  0  0  0  0  0
    6.6402  -14.4080   -8.9943 H   0  0  0  0  0  0  0  0  0  0  0  0
    7.9294  -13.1571   -8.9943 H   0  0  0  0  0  0  0  0  0  0  0  0
    7.3130  -12.4140   -6.9940 H   0  0  0  0  0  0  0  0  0  0  0  0
    6.3589  -15.0938   -6.1067 H   0  0  0  0  0  0  0  0  0  0  0  0
    7.9817  -14.3810   -5.7655 H   0  0  0  0  0  0  0  0  0  0  0  0
    6.3288  -14.1304   -3.8597 H   0  0  0  0  0  0  0  0  0  0  0  0
    6.9869  -12.5678   -4.4871 H   0  0  0  0  0  0  0  0  0  0  0  0
    2.3298  -12.8264   -5.0684 H   0  0  0  0  0  0  0  0  0  0  0  0
    0.7904  -12.3377   -3.1882 H   0  0  0  0  0  0  0  0  0  0  0  0
    0.6694   -9.8218   -1.0010 H   0  0  0  0  0  0  0  0  0  0  0  0
   -1.6400  -12.3210    3.9190 H   0  0  0  0  0  0  0  0  0  0  0  0
   -1.2560  -10.8720    2.9870 H   0  0  0  0  0  0  0  0  0  0  0  0
   -1.8973  -15.5177    3.0264 H   0  0  0  0  0  0  0  0  0  0  0  0
   -2.6401  -16.7462    5.0604 H   0  0  0  0  0  0  0  0  0  0  0  0
   -2.0740  -16.1560    8.0920 H   0  0  0  0  0  0  0  0  0  0  0  0
   -2.1100  -17.4550    9.6160 H   0  0  0  0  0  0  0  0  0  0  0  0
   -3.0613  -20.4078    9.2910 H   0  0  0  0  0  0  0  0  0  0  0  0
   -2.6390  -22.3874   10.7419 H   0  0  0  0  0  0  0  0  0  0  0  0
   -0.6811  -22.4252   12.2833 H   0  0  0  0  0  0  0  0  0  0  0  0
    0.8701  -20.4723   12.3690 H   0  0  0  0  0  0  0  0  0  0  0  0
    0.6418  -15.0412    7.2858 H   0  0  0  0  0  0  0  0  0  0  0  0
    1.3846  -13.8103    5.2538 H   0  0  0  0  0  0  0  0  0  0  0  0
    1.5393  -15.4866    2.1009 H   0  0  0  0  0  0  0  0  0  0  0  0
    4.1608  -12.0045   -0.5204 H   0  0  0  0  0  0  0  0  0  0  0  0
    5.6984  -12.4944   -2.4056 H   0  0  0  0  0  0  0  0  0  0  0  0
    3.6801  -12.0339   -6.3466 H   0  0  0  0  0  0  0  0  0  0  0  0
    5.2686  -11.2057   -6.0957 H   0  0  0  0  0  0  0  0  0  0  0  0
    4.7588  -13.8145   -7.6194 H   0  0  0  0  0  0  0  0  0  0  0  0
    5.2940  -12.2281   -8.2952 H   0  0  0  0  0  0  0  0  0  0  0  0
  1  2  1  0
  2  3  1  0
  3  4  1  0
  4  5  1  0
  5  6  1  0
  6  7  2  0
  7  8  1  0
  8  9  2  0
  9 10  1  0
 10 11  1  0
 11 12  2  0
 12 13  1  0
 13 14  1  0
 14 15  1  0
 14 16  2  0
 16 17  1  0
 17 18  2  0
 18 19  1  0
 19 20  2  0
 20 21  1  0
 21 22  1  0
 22 23  2  0
 22 24  1  0
 24 25  1  0
 25 26  2  0
 26 27  1  0
 27 28  2  0
 28 29  1  0
 29 30  2  0
 30 31  1  0
 20 32  1  0
 32 33  2  0
 16 34  1  0
 34 35  2  0
 35 36  1  0
  9 37  1  0
 37 38  2  0
  5 39  1  0
 39 40  1  0
 40  2  1  0
 38  6  1  0
 36 10  2  0
 36 13  1  0
 33 17  1  0
 30 25  1  0
  1 41  1  0
  1 42  1  0
  1 43  1  0
  2 44  1  0
  3 45  1  0
  3 46  1  0
  4 47  1  0
  4 48  1  0
  7 49  1  0
  8 50  1  0
 11 51  1  0
 15 52  1  0
 15 53  1  0
 18 54  1  0
 19 55  1  0
 21 56  1  0
 24 57  1  0
 26 58  1  0
 27 59  1  0
 28 60  1  0
 29 61  1  0
 32 62  1  0
 33 63  1  0
 34 64  1  0
 37 65  1  0
 38 66  1  0
 39 67  1  0
 39 68  1  0
 40 69  1  0
 40 70  1  0
M  CHG  1   2   1
M  END
>  <meeko>  (9) 
{"is_sidechain": [false], "free_energy": -8.398, "intermolecular_energy": -10.781, "internal_energy": -1.041}

$$$$
