LIB_QGZCRYRTSBNQGS__M_PUB_ALL__e8__s20260927
     RDKit          3D

 77 82  0  0  0  0  0  0  0  0999 V2000
   11.8730  -12.9370   -3.7290 C   0  0  0  0  0  0  0  0  0  0  0  0
   11.1230  -12.0170   -2.9400 O   0  0  0  0  0  0  0  0  0  0  0  0
   10.4630  -12.6180   -1.8090 C   0  0  1  0  0  0  0  0  0  0  0  0
   11.1200  -12.2590   -0.4620 C   0  0  2  0  0  0  0  0  0  0  0  0
   12.3830  -12.9300   -0.3100 O   0  0  0  0  0  0  0  0  0  0  0  0
   10.2390  -12.6640    0.7230 C   0  0  1  0  0  0  0  0  0  0  0  0
   10.8510  -12.1710    1.9290 O   0  0  0  0  0  0  0  0  0  0  0  0
    8.8090  -12.1290    0.5470 C   0  0  2  0  0  0  0  0  0  0  0  0
    8.0600  -12.6200    1.6690 O   0  0  0  0  0  0  0  0  0  0  0  0
    6.7830  -13.0580    1.4340 C   0  0  0  0  0  0  0  0  0  0  0  0
    6.6320  -14.4450    1.4880 C   0  0  0  0  0  0  0  0  0  0  0  0
    5.3890  -15.0530    1.2710 C   0  0  0  0  0  0  0  0  0  0  0  0
    4.2760  -14.2460    0.9840 C   0  0  0  0  0  0  0  0  0  0  0  0
    2.9210  -14.4840    0.7150 C   0  0  0  0  0  0  0  0  0  0  0  0
    2.3060  -13.2730    0.5020 C   0  0  0  0  0  0  0  0  0  0  0  0
    3.2190  -12.2810    0.6030 N   0  0  0  0  0  0  0  0  0  0  0  0
    4.4460  -12.8530    0.9170 C   0  0  0  0  0  0  0  0  0  0  0  0
    5.6900  -12.2370    1.1340 C   0  0  0  0  0  0  0  0  0  0  0  0
    0.8540  -13.3890    0.1420 C   0  0  1  0  0  0  0  0  0  0  0  0
    0.8030  -13.4560   -1.4150 C   0  0  0  0  0  0  0  0  0  0  0  0
    0.6240  -14.8180    0.8160 C   0  0  1  0  0  0  0  0  0  0  0  0
   -0.7070  -15.4190    0.4300 C   0  0  0  0  0  0  0  0  0  0  0  0
   -1.8280  -14.4670    0.8930 C   0  0  0  0  0  0  0  0  0  0  0  0
   -1.6460  -12.9910    0.4260 C   0  0  1  0  0  0  0  0  0  0  0  0
   -2.8520  -12.0500    0.7740 C   0  0  0  0  0  0  0  0  0  0  0  0
   -4.0950  -12.4870   -0.0450 C   0  0  0  0  0  0  0  0  0  0  0  0
   -3.2670  -12.0470    2.2540 C   0  0  0  0  0  0  0  0  0  0  0  0
   -2.5530  -10.6020    0.3480 C   0  0  0  0  0  0  0  0  0  0  0  0
   -3.4190   -9.7260    0.3310 O   0  0  0  0  0  0  0  0  0  0  0  0
   -1.1780  -10.2140   -0.0510 C   0  0  0  0  0  0  0  0  0  0  0  0
   -0.1220  -11.0140    0.1380 C   0  0  0  0  0  0  0  0  0  0  0  0
   -0.2050  -12.3980    0.7540 C   0  0  2  0  0  0  0  0  0  0  0  0
    0.0220  -12.1920    2.2740 C   0  0  0  0  0  0  0  0  0  0  0  0
    1.9530  -15.6140    0.6020 C   0  0  0  0  0  0  0  0  0  0  0  0
    8.2780  -12.6150   -0.6850 O   0  0  0  0  0  0  0  0  0  0  0  0
    9.0010  -12.1120   -1.8120 C   0  0  2  0  0  0  0  0  0  0  0  0
    8.2640  -12.5350   -3.0920 C   0  0  0  0  0  0  0  0  0  0  0  0
    8.2110  -11.4870   -4.0540 O   0  0  0  0  0  0  0  0  0  0  0  0
   12.4287  -13.6187   -3.0683 H   0  0  0  0  0  0  0  0  0  0  0  0
   11.1884  -13.5187   -4.3638 H   0  0  0  0  0  0  0  0  0  0  0  0
   12.5807  -12.3837   -4.3638 H   0  0  0  0  0  0  0  0  0  0  0  0
   10.5308  -13.7116   -1.9065 H   0  0  0  0  0  0  0  0  0  0  0  0
   11.2598  -11.1679   -0.4683 H   0  0  0  0  0  0  0  0  0  0  0  0
   12.9940  -12.4680   -0.9220 H   0  0  0  0  0  0  0  0  0  0  0  0
   10.1586  -13.7595    0.7811 H   0  0  0  0  0  0  0  0  0  0  0  0
   10.2970  -11.4200    2.2200 H   0  0  0  0  0  0  0  0  0  0  0  0
    8.7700  -11.0302    0.5122 H   0  0  0  0  0  0  0  0  0  0  0  0
    7.5080  -15.0737    1.7056 H   0  0  0  0  0  0  0  0  0  0  0  0
    5.2860  -16.1469    1.3246 H   0  0  0  0  0  0  0  0  0  0  0  0
    3.0630  -11.2910    0.4700 H   0  0  0  0  0  0  0  0  0  0  0  0
    5.8013  -11.1445    1.0701 H   0  0  0  0  0  0  0  0  0  0  0  0
    0.1638  -14.2958   -1.7251 H   0  0  0  0  0  0  0  0  0  0  0  0
    0.3900  -12.5158   -1.8091 H   0  0  0  0  0  0  0  0  0  0  0  0
    1.8193  -13.6037   -1.8091 H   0  0  0  0  0  0  0  0  0  0  0  0
    0.4732  -14.8021    1.9055 H   0  0  0  0  0  0  0  0  0  0  0  0
   -0.7545  -15.5445   -0.6618 H   0  0  0  0  0  0  0  0  0  0  0  0
   -0.8281  -16.4029    0.9068 H   0  0  0  0  0  0  0  0  0  0  0  0
   -2.7833  -14.8395    0.4948 H   0  0  0  0  0  0  0  0  0  0  0  0
   -1.7998  -14.4565    1.9926 H   0  0  0  0  0  0  0  0  0  0  0  0
   -1.6753  -13.0293   -0.6729 H   0  0  0  0  0  0  0  0  0  0  0  0
   -4.9053  -12.7719    0.6422 H   0  0  0  0  0  0  0  0  0  0  0  0
   -4.4284  -11.6522   -0.6790 H   0  0  0  0  0  0  0  0  0  0  0  0
   -3.8326  -13.3468   -0.6790 H   0  0  0  0  0  0  0  0  0  0  0  0
   -2.3674  -12.0535    2.8871 H   0  0  0  0  0  0  0  0  0  0  0  0
   -3.8588  -11.1446    2.4670 H   0  0  0  0  0  0  0  0  0  0  0  0
   -3.8718  -12.9408    2.4670 H   0  0  0  0  0  0  0  0  0  0  0  0
   -1.0204   -9.2315   -0.5200 H   0  0  0  0  0  0  0  0  0  0  0  0
    0.8669  -10.6455   -0.1723 H   0  0  0  0  0  0  0  0  0  0  0  0
   -0.6772  -12.8265    2.8384 H   0  0  0  0  0  0  0  0  0  0  0  0
    1.0557  -12.4668    2.5309 H   0  0  0  0  0  0  0  0  0  0  0  0
   -0.1515  -11.1366    2.5309 H   0  0  0  0  0  0  0  0  0  0  0  0
    2.1105  -16.3720    1.3834 H   0  0  0  0  0  0  0  0  0  0  0  0
    2.0115  -16.1964   -0.3293 H   0  0  0  0  0  0  0  0  0  0  0  0
    9.0472  -11.0141   -1.7622 H   0  0  0  0  0  0  0  0  0  0  0  0
    8.7876  -13.3954   -3.5342 H   0  0  0  0  0  0  0  0  0  0  0  0
    7.2307  -12.7930   -2.8168 H   0  0  0  0  0  0  0  0  0  0  0  0
    9.1350  -11.3100   -4.3330 H   0  0  0  0  0  0  0  0  0  0  0  0
  1  2  1  0
  2  3  1  0
  3  4  1  0
  4  5  1  0
  4  6  1  0
  6  7  1  0
  6  8  1  0
  8  9  1  0
  9 10  1  0
 10 11  2  0
 11 12  1  0
 12 13  2  0
 13 14  1  0
 14 15  2  0
 15 16  1  0
 16 17  1  0
 17 18  2  0
 15 19  1  0
 19 20  1  6
 19 21  1  0
 21 22  1  0
 22 23  1  0
 23 24  1  0
 24 25  1  0
 25 26  1  0
 25 27  1  0
 25 28  1  0
 28 29  2  0
 28 30  1  0
 30 31  2  0
 31 32  1  0
 32 33  1  1
 21 34  1  0
  8 35  1  0
 35 36  1  0
 36 37  1  0
 37 38  1  0
 36  3  1  0
 18 10  1  0
 32 19  1  0
 17 13  1  0
 32 24  1  0
 34 14  1  0
  1 39  1  0
  1 40  1  0
  1 41  1  0
  3 42  1  6
  4 43  1  6
  5 44  1  0
  6 45  1  1
  7 46  1  0
  8 47  1  6
 11 48  1  0
 12 49  1  0
 16 50  1  0
 18 51  1  0
 20 52  1  0
 20 53  1  0
 20 54  1  0
 21 55  1  1
 22 56  1  0
 22 57  1  0
 23 58  1  0
 23 59  1  0
 24 60  1  6
 26 61  1  0
 26 62  1  0
 26 63  1  0
 27 64  1  0
 27 65  1  0
 27 66  1  0
 30 67  1  0
 31 68  1  0
 33 69  1  0
 33 70  1  0
 33 71  1  0
 34 72  1  0
 34 73  1  0
 36 74  1  1
 37 75  1  0
 37 76  1  0
 38 77  1  0
M  END
>  <meeko>  (1) 
{"is_sidechain": [false], "free_energy": -8.684, "intermolecular_energy": -11.476, "internal_energy": -0.526}

$$$$
LIB_QGZCRYRTSBNQGS__M_PUB_ALL__e8__s20260927
     RDKit          3D

 77 82  0  0  0  0  0  0  0  0999 V2000
   14.5850  -11.8220   -3.5690 C   0  0  0  0  0  0  0  0  0  0  0  0
   13.2320  -11.4520   -3.3220 O   0  0  0  0  0  0  0  0  0  0  0  0
   12.5770  -12.2610   -2.3250 C   0  0  1  0  0  0  0  0  0  0  0  0
   12.3910  -11.5330   -0.9800 C   0  0  2  0  0  0  0  0  0  0  0  0
   13.6470  -11.3870   -0.2950 O   0  0  0  0  0  0  0  0  0  0  0  0
   11.4460  -12.2980   -0.0490 C   0  0  1  0  0  0  0  0  0  0  0  0
   11.2130  -11.4910    1.1200 O   0  0  0  0  0  0  0  0  0  0  0  0
   10.1360  -12.6510   -0.7710 C   0  0  2  0  0  0  0  0  0  0  0  0
    9.3610  -13.4170    0.1630 O   0  0  0  0  0  0  0  0  0  0  0  0
    8.0560  -13.6790   -0.1640 C   0  0  0  0  0  0  0  0  0  0  0  0
    7.8800  -14.8120   -0.9620 C   0  0  0  0  0  0  0  0  0  0  0  0
    6.6060  -15.2170   -1.3830 C   0  0  0  0  0  0  0  0  0  0  0  0
    5.4880  -14.4590   -0.9980 C   0  0  0  0  0  0  0  0  0  0  0  0
    4.1070  -14.5470   -1.2210 C   0  0  0  0  0  0  0  0  0  0  0  0
    3.5000  -13.4930   -0.5790 C   0  0  0  0  0  0  0  0  0  0  0  0
    4.4410  -12.7300    0.0200 N   0  0  0  0  0  0  0  0  0  0  0  0
    5.6820  -13.3140   -0.2090 C   0  0  0  0  0  0  0  0  0  0  0  0
    6.9560  -12.9020    0.2170 C   0  0  0  0  0  0  0  0  0  0  0  0
    2.0160  -13.4340   -0.7870 C   0  0  1  0  0  0  0  0  0  0  0  0
    1.7940  -12.5310   -2.0400 C   0  0  0  0  0  0  0  0  0  0  0  0
    1.8270  -14.9840   -1.1200 C   0  0  1  0  0  0  0  0  0  0  0  0
    0.4480  -15.2840   -1.6600 C   0  0  0  0  0  0  0  0  0  0  0  0
   -0.5930  -14.8750   -0.5990 C   0  0  0  0  0  0  0  0  0  0  0  0
   -0.4290  -13.4170   -0.0720 C   0  0  1  0  0  0  0  0  0  0  0  0
   -1.5680  -12.9490    0.9000 C   0  0  0  0  0  0  0  0  0  0  0  0
   -2.9020  -12.8500    0.1140 C   0  0  0  0  0  0  0  0  0  0  0  0
   -1.8200  -13.8770    2.0990 C   0  0  0  0  0  0  0  0  0  0  0  0
   -1.2830  -11.5330    1.4310 C   0  0  0  0  0  0  0  0  0  0  0  0
   -2.1260  -10.8750    2.0430 O   0  0  0  0  0  0  0  0  0  0  0  0
    0.0490  -10.9150    1.2210 C   0  0  0  0  0  0  0  0  0  0  0  0
    1.1000  -11.6100    0.7700 C   0  0  0  0  0  0  0  0  0  0  0  0
    1.0520  -13.0820    0.4070 C   0  0  2  0  0  0  0  0  0  0  0  0
    1.4470  -13.8440    1.6990 C   0  0  0  0  0  0  0  0  0  0  0  0
    3.1060  -15.4140   -1.9100 C   0  0  0  0  0  0  0  0  0  0  0  0
   10.4390  -13.4100   -1.9410 O   0  0  0  0  0  0  0  0  0  0  0  0
   11.1890  -12.6470   -2.8900 C   0  0  2  0  0  0  0  0  0  0  0  0
   11.3200  -13.4690   -4.1820 C   0  0  0  0  0  0  0  0  0  0  0  0
   12.3740  -14.4220   -4.1090 O   0  0  0  0  0  0  0  0  0  0  0  0
   15.1068  -11.9647   -2.6112 H   0  0  0  0  0  0  0  0  0  0  0  0
   14.6097  -12.7599   -4.1433 H   0  0  0  0  0  0  0  0  0  0  0  0
   15.0835  -11.0272   -4.1433 H   0  0  0  0  0  0  0  0  0  0  0  0
   13.2073  -13.1387   -2.1193 H   0  0  0  0  0  0  0  0  0  0  0  0
   11.9643  -10.5477   -1.2191 H   0  0  0  0  0  0  0  0  0  0  0  0
   13.4150  -11.3240    0.6550 H   0  0  0  0  0  0  0  0  0  0  0  0
   11.9019  -13.2515    0.2560 H   0  0  0  0  0  0  0  0  0  0  0  0
   11.7750  -11.8710    1.8230 H   0  0  0  0  0  0  0  0  0  0  0  0
    9.5766  -11.7598   -1.0917 H   0  0  0  0  0  0  0  0  0  0  0  0
    8.7595  -15.3984   -1.2662 H   0  0  0  0  0  0  0  0  0  0  0  0
    6.4835  -16.1154   -2.0058 H   0  0  0  0  0  0  0  0  0  0  0  0
    4.2950  -11.8770    0.5430 H   0  0  0  0  0  0  0  0  0  0  0  0
    7.0847  -11.9979    0.8302 H   0  0  0  0  0  0  0  0  0  0  0  0
    1.5430  -11.5101   -1.7164 H   0  0  0  0  0  0  0  0  0  0  0  0
    2.7134  -12.5087   -2.6435 H   0  0  0  0  0  0  0  0  0  0  0  0
    0.9691  -12.9376   -2.6435 H   0  0  0  0  0  0  0  0  0  0  0  0
    1.7952  -15.6495   -0.2447 H   0  0  0  0  0  0  0  0  0  0  0  0
    0.2793  -14.7127   -2.5847 H   0  0  0  0  0  0  0  0  0  0  0  0
    0.3563  -16.3571   -1.8837 H   0  0  0  0  0  0  0  0  0  0  0  0
   -1.5946  -14.9706   -1.0436 H   0  0  0  0  0  0  0  0  0  0  0  0
   -0.4443  -15.5415    0.2633 H   0  0  0  0  0  0  0  0  0  0  0  0
   -0.5784  -12.7731   -0.9512 H   0  0  0  0  0  0  0  0  0  0  0  0
   -3.7412  -12.7877    0.8224 H   0  0  0  0  0  0  0  0  0  0  0  0
   -2.8888  -11.9504   -0.5188 H   0  0  0  0  0  0  0  0  0  0  0  0
   -3.0218  -13.7417   -0.5188 H   0  0  0  0  0  0  0  0  0  0  0  0
   -1.6681  -13.3176    3.0339 H   0  0  0  0  0  0  0  0  0  0  0  0
   -2.8529  -14.2534    2.0606 H   0  0  0  0  0  0  0  0  0  0  0  0
   -1.1194  -14.7241    2.0606 H   0  0  0  0  0  0  0  0  0  0  0  0
    0.1777   -9.8456    1.4443 H   0  0  0  0  0  0  0  0  0  0  0  0
    2.0577  -11.0812    0.6555 H   0  0  0  0  0  0  0  0  0  0  0  0
    1.1428  -13.2572    2.5783 H   0  0  0  0  0  0  0  0  0  0  0  0
    0.9418  -14.8209    1.7175 H   0  0  0  0  0  0  0  0  0  0  0  0
    2.5365  -13.9943    1.7175 H   0  0  0  0  0  0  0  0  0  0  0  0
    3.3294  -16.4835   -1.7829 H   0  0  0  0  0  0  0  0  0  0  0  0
    3.0498  -15.2964   -3.0023 H   0  0  0  0  0  0  0  0  0  0  0  0
   10.6628  -11.7055   -3.1062 H   0  0  0  0  0  0  0  0  0  0  0  0
   10.3737  -14.0006   -4.3610 H   0  0  0  0  0  0  0  0  0  0  0  0
   11.5503  -12.7735   -5.0025 H   0  0  0  0  0  0  0  0  0  0  0  0
   12.1330  -15.0600   -3.4030 H   0  0  0  0  0  0  0  0  0  0  0  0
  1  2  1  0
  2  3  1  0
  3  4  1  0
  4  5  1  0
  4  6  1  0
  6  7  1  0
  6  8  1  0
  8  9  1  0
  9 10  1  0
 10 11  2  0
 11 12  1  0
 12 13  2  0
 13 14  1  0
 14 15  2  0
 15 16  1  0
 16 17  1  0
 17 18  2  0
 15 19  1  0
 19 20  1  6
 19 21  1  0
 21 22  1  0
 22 23  1  0
 23 24  1  0
 24 25  1  0
 25 26  1  0
 25 27  1  0
 25 28  1  0
 28 29  2  0
 28 30  1  0
 30 31  2  0
 31 32  1  0
 32 33  1  1
 21 34  1  0
  8 35  1  0
 35 36  1  0
 36 37  1  0
 37 38  1  0
 36  3  1  0
 18 10  1  0
 32 19  1  0
 17 13  1  0
 32 24  1  0
 34 14  1  0
  1 39  1  0
  1 40  1  0
  1 41  1  0
  3 42  1  1
  4 43  1  6
  5 44  1  0
  6 45  1  1
  7 46  1  0
  8 47  1  6
 11 48  1  0
 12 49  1  0
 16 50  1  0
 18 51  1  0
 20 52  1  0
 20 53  1  0
 20 54  1  0
 21 55  1  1
 22 56  1  0
 22 57  1  0
 23 58  1  0
 23 59  1  0
 24 60  1  6
 26 61  1  0
 26 62  1  0
 26 63  1  0
 27 64  1  0
 27 65  1  0
 27 66  1  0
 30 67  1  0
 31 68  1  0
 33 69  1  0
 33 70  1  0
 33 71  1  0
 34 72  1  0
 34 73  1  0
 36 74  1  6
 37 75  1  0
 37 76  1  0
 38 77  1  0
M  END
>  <meeko>  (2) 
{"is_sidechain": [false], "free_energy": -8.672, "intermolecular_energy": -11.581, "internal_energy": -0.406}

$$$$
LIB_QGZCRYRTSBNQGS__M_PUB_ALL__e8__s20260927
     RDKit          3D

 77 82  0  0  0  0  0  0  0  0999 V2000
   -4.9590  -14.4880   10.2100 C   0  0  0  0  0  0  0  0  0  0  0  0
   -5.0160  -15.9090   10.2850 O   0  0  0  0  0  0  0  0  0  0  0  0
   -5.2060  -16.5560    9.0110 C   0  0  1  0  0  0  0  0  0  0  0  0
   -6.3940  -15.9860    8.2130 C   0  0  2  0  0  0  0  0  0  0  0  0
   -7.6470  -16.3770    8.8020 O   0  0  0  0  0  0  0  0  0  0  0  0
   -6.3930  -16.4830    6.7640 C   0  0  1  0  0  0  0  0  0  0  0  0
   -7.4410  -15.8000    6.0520 O   0  0  0  0  0  0  0  0  0  0  0  0
   -5.0190  -16.2600    6.1120 C   0  0  2  0  0  0  0  0  0  0  0  0
   -5.1100  -16.8170    4.7930 O   0  0  0  0  0  0  0  0  0  0  0  0
   -3.9620  -16.8640    4.0470 C   0  0  0  0  0  0  0  0  0  0  0  0
   -3.4150  -18.1420    3.9120 C   0  0  0  0  0  0  0  0  0  0  0  0
   -2.2420  -18.3600    3.1780 C   0  0  0  0  0  0  0  0  0  0  0  0
   -1.6010  -17.2660    2.5750 C   0  0  0  0  0  0  0  0  0  0  0  0
   -0.4490  -17.0980    1.7950 C   0  0  0  0  0  0  0  0  0  0  0  0
   -0.3250  -15.7620    1.4930 C   0  0  0  0  0  0  0  0  0  0  0  0
   -1.3370  -15.0750    2.0690 N   0  0  0  0  0  0  0  0  0  0  0  0
   -2.1540  -15.9840    2.7320 C   0  0  0  0  0  0  0  0  0  0  0  0
   -3.3300  -15.7580    3.4660 C   0  0  0  0  0  0  0  0  0  0  0  0
    0.9090  -15.4330    0.7060 C   0  0  1  0  0  0  0  0  0  0  0  0
    2.0090  -15.0870    1.7570 C   0  0  0  0  0  0  0  0  0  0  0  0
    1.1080  -16.8890    0.0830 C   0  0  1  0  0  0  0  0  0  0  0  0
    2.4500  -17.0370   -0.5960 C   0  0  0  0  0  0  0  0  0  0  0  0
    2.5430  -15.9970   -1.7300 C   0  0  0  0  0  0  0  0  0  0  0  0
    2.2220  -14.5380   -1.2850 C   0  0  1  0  0  0  0  0  0  0  0  0
    2.4520  -13.4570   -2.3990 C   0  0  0  0  0  0  0  0  0  0  0  0
    3.9680  -13.3620   -2.7140 C   0  0  0  0  0  0  0  0  0  0  0  0
    1.7330  -13.7320   -3.7290 C   0  0  0  0  0  0  0  0  0  0  0  0
    2.0350  -12.0620   -1.8990 C   0  0  0  0  0  0  0  0  0  0  0  0
    2.3100  -11.0310   -2.5150 O   0  0  0  0  0  0  0  0  0  0  0  0
    1.2650  -11.9240   -0.6390 C   0  0  0  0  0  0  0  0  0  0  0  0
    0.7250  -12.9740   -0.0090 C   0  0  0  0  0  0  0  0  0  0  0  0
    0.8500  -14.4080   -0.4880 C   0  0  2  0  0  0  0  0  0  0  0  0
   -0.3890  -14.6570   -1.3880 C   0  0  0  0  0  0  0  0  0  0  0  0
    0.6560  -17.8970    1.1900 C   0  0  0  0  0  0  0  0  0  0  0  0
   -4.0220  -16.9220    6.8890 O   0  0  0  0  0  0  0  0  0  0  0  0
   -3.9050  -16.3570    8.1990 C   0  0  2  0  0  0  0  0  0  0  0  0
   -2.7010  -17.0020    8.9020 C   0  0  0  0  0  0  0  0  0  0  0  0
   -3.0660  -18.1660    9.6340 O   0  0  0  0  0  0  0  0  0  0  0  0
   -4.9421  -14.0676   11.2263 H   0  0  0  0  0  0  0  0  0  0  0  0
   -4.0480  -14.1854    9.6729 H   0  0  0  0  0  0  0  0  0  0  0  0
   -5.8428  -14.1134    9.6729 H   0  0  0  0  0  0  0  0  0  0  0  0
   -5.4322  -17.6176    9.1894 H   0  0  0  0  0  0  0  0  0  0  0  0
   -6.2818  -14.8919    8.2339 H   0  0  0  0  0  0  0  0  0  0  0  0
   -8.1800  -16.7320    8.0610 H   0  0  0  0  0  0  0  0  0  0  0  0
   -6.5825  -17.5661    6.7329 H   0  0  0  0  0  0  0  0  0  0  0  0
   -8.1280  -16.4730    5.8790 H   0  0  0  0  0  0  0  0  0  0  0  0
   -4.7432  -15.1964    6.0594 H   0  0  0  0  0  0  0  0  0  0  0  0
   -3.9160  -18.9955    4.3923 H   0  0  0  0  0  0  0  0  0  0  0  0
   -1.8288  -19.3743    3.0755 H   0  0  0  0  0  0  0  0  0  0  0  0
   -1.4910  -14.0770    2.0420 H   0  0  0  0  0  0  0  0  0  0  0  0
   -3.7414  -14.7443    3.5807 H   0  0  0  0  0  0  0  0  0  0  0  0
    1.6011  -15.2153    2.7705 H   0  0  0  0  0  0  0  0  0  0  0  0
    2.8702  -15.7576    1.6207 H   0  0  0  0  0  0  0  0  0  0  0  0
    2.3312  -14.0441    1.6207 H   0  0  0  0  0  0  0  0  0  0  0  0
    0.4729  -17.1163   -0.7859 H   0  0  0  0  0  0  0  0  0  0  0  0
    3.2555  -16.8640    0.1329 H   0  0  0  0  0  0  0  0  0  0  0  0
    2.5541  -18.0521   -1.0067 H   0  0  0  0  0  0  0  0  0  0  0  0
    3.5658  -16.0175   -2.1342 H   0  0  0  0  0  0  0  0  0  0  0  0
    1.7847  -16.2743   -2.4770 H   0  0  0  0  0  0  0  0  0  0  0  0
    2.9904  -14.2884   -0.5385 H   0  0  0  0  0  0  0  0  0  0  0  0
    4.5365  -13.3264   -1.7730 H   0  0  0  0  0  0  0  0  0  0  0  0
    4.2774  -14.2425   -3.2962 H   0  0  0  0  0  0  0  0  0  0  0  0
    4.1651  -12.4497   -3.2962 H   0  0  0  0  0  0  0  0  0  0  0  0
    0.7231  -14.1183   -3.5268 H   0  0  0  0  0  0  0  0  0  0  0  0
    1.6598  -12.7984   -4.3061 H   0  0  0  0  0  0  0  0  0  0  0  0
    2.3015  -14.4762   -4.3061 H   0  0  0  0  0  0  0  0  0  0  0  0
    1.1328  -10.9214   -0.2062 H   0  0  0  0  0  0  0  0  0  0  0  0
    0.1554  -12.7856    0.9130 H   0  0  0  0  0  0  0  0  0  0  0  0
   -1.2716  -14.8344   -0.7559 H   0  0  0  0  0  0  0  0  0  0  0  0
   -0.5639  -13.7760   -2.0231 H   0  0  0  0  0  0  0  0  0  0  0  0
   -0.2100  -15.5371   -2.0231 H   0  0  0  0  0  0  0  0  0  0  0  0
    0.2944  -18.8440    0.7629 H   0  0  0  0  0  0  0  0  0  0  0  0
    1.4437  -18.2192    1.8870 H   0  0  0  0  0  0  0  0  0  0  0  0
   -3.7448  -15.2715    8.1213 H   0  0  0  0  0  0  0  0  0  0  0  0
   -1.9550  -17.2803    8.1430 H   0  0  0  0  0  0  0  0  0  0  0  0
   -2.2936  -16.2693    9.6142 H   0  0  0  0  0  0  0  0  0  0  0  0
   -3.2570  -17.8770   10.5520 H   0  0  0  0  0  0  0  0  0  0  0  0
  1  2  1  0
  2  3  1  0
  3  4  1  0
  4  5  1  0
  4  6  1  0
  6  7  1  0
  6  8  1  0
  8  9  1  0
  9 10  1  0
 10 11  2  0
 11 12  1  0
 12 13  2  0
 13 14  1  0
 14 15  2  0
 15 16  1  0
 16 17  1  0
 17 18  2  0
 15 19  1  0
 19 20  1  1
 19 21  1  0
 21 22  1  0
 22 23  1  0
 23 24  1  0
 24 25  1  0
 25 26  1  0
 25 27  1  0
 25 28  1  0
 28 29  2  0
 28 30  1  0
 30 31  2  0
 31 32  1  0
 32 33  1  6
 21 34  1  0
  8 35  1  0
 35 36  1  0
 36 37  1  0
 37 38  1  0
 36  3  1  0
 18 10  1  0
 32 19  1  0
 17 13  1  0
 32 24  1  0
 34 14  1  0
  1 39  1  0
  1 40  1  0
  1 41  1  0
  3 42  1  1
  4 43  1  6
  5 44  1  0
  6 45  1  1
  7 46  1  0
  8 47  1  6
 11 48  1  0
 12 49  1  0
 16 50  1  0
 18 51  1  0
 20 52  1  0
 20 53  1  0
 20 54  1  0
 21 55  1  6
 22 56  1  0
 22 57  1  0
 23 58  1  0
 23 59  1  0
 24 60  1  1
 26 61  1  0
 26 62  1  0
 26 63  1  0
 27 64  1  0
 27 65  1  0
 27 66  1  0
 30 67  1  0
 31 68  1  0
 33 69  1  0
 33 70  1  0
 33 71  1  0
 34 72  1  0
 34 73  1  0
 36 74  1  6
 37 75  1  0
 37 76  1  0
 38 77  1  0
M  END
>  <meeko>  (3) 
{"is_sidechain": [false], "free_energy": -8.547, "intermolecular_energy": -11.171, "internal_energy": -0.651}

$$$$
LIB_QGZCRYRTSBNQGS__M_PUB_ALL__e8__s20260927
     RDKit          3D

 77 82  0  0  0  0  0  0  0  0999 V2000
   -1.1900  -18.9410    6.0860 C   0  0  0  0  0  0  0  0  0  0  0  0
   -0.5110  -18.5480    4.8970 O   0  0  0  0  0  0  0  0  0  0  0  0
   -0.5510  -17.1310    4.6400 C   0  0  1  0  0  0  0  0  0  0  0  0
    0.7950  -16.4290    4.9030 C   0  0  2  0  0  0  0  0  0  0  0  0
    1.0680  -16.3490    6.3130 O   0  0  0  0  0  0  0  0  0  0  0  0
    0.8050  -15.0000    4.3510 C   0  0  1  0  0  0  0  0  0  0  0  0
    2.1330  -14.4660    4.5080 O   0  0  0  0  0  0  0  0  0  0  0  0
    0.3500  -14.9800    2.8830 C   0  0  2  0  0  0  0  0  0  0  0  0
    0.3330  -13.5990    2.4910 O   0  0  0  0  0  0  0  0  0  0  0  0
    0.8500  -13.2850    1.2620 C   0  0  0  0  0  0  0  0  0  0  0  0
    0.6330  -11.9630    0.8670 C   0  0  0  0  0  0  0  0  0  0  0  0
    1.1000  -11.4820   -0.3630 C   0  0  0  0  0  0  0  0  0  0  0  0
    1.7930  -12.3550   -1.2170 C   0  0  0  0  0  0  0  0  0  0  0  0
    2.3860  -12.2420   -2.4820 C   0  0  0  0  0  0  0  0  0  0  0  0
    2.9230  -13.4620   -2.8160 C   0  0  0  0  0  0  0  0  0  0  0  0
    2.6760  -14.3490   -1.8260 N   0  0  0  0  0  0  0  0  0  0  0  0
    1.9910  -13.6860   -0.8140 C   0  0  0  0  0  0  0  0  0  0  0  0
    1.5250  -14.1740    0.4180 C   0  0  0  0  0  0  0  0  0  0  0  0
    3.5410  -13.4960   -4.1830 C   0  0  1  0  0  0  0  0  0  0  0  0
    2.4110  -13.9590   -5.1530 C   0  0  0  0  0  0  0  0  0  0  0  0
    3.8180  -11.9270   -4.2840 C   0  0  1  0  0  0  0  0  0  0  0  0
    4.2170  -11.5100   -5.6810 C   0  0  0  0  0  0  0  0  0  0  0  0
    5.5040  -12.2670   -6.0680 C   0  0  0  0  0  0  0  0  0  0  0  0
    5.4210  -13.8110   -5.8730 C   0  0  1  0  0  0  0  0  0  0  0  0
    6.6740  -14.5970   -6.3960 C   0  0  0  0  0  0  0  0  0  0  0  0
    6.7410  -14.4800   -7.9420 C   0  0  0  0  0  0  0  0  0  0  0  0
    8.0240  -14.1060   -5.8490 C   0  0  0  0  0  0  0  0  0  0  0  0
    6.5410  -16.0990   -6.0910 C   0  0  0  0  0  0  0  0  0  0  0  0
    7.2950  -16.9420   -6.5800 O   0  0  0  0  0  0  0  0  0  0  0  0
    5.4820  -16.5790   -5.1700 C   0  0  0  0  0  0  0  0  0  0  0  0
    4.7540  -15.7470   -4.4160 C   0  0  0  0  0  0  0  0  0  0  0  0
    4.9080  -14.2370   -4.4270 C   0  0  2  0  0  0  0  0  0  0  0  0
    5.9360  -13.9150   -3.3110 C   0  0  0  0  0  0  0  0  0  0  0  0
    2.6230  -11.2310   -3.5540 C   0  0  0  0  0  0  0  0  0  0  0  0
   -0.9490  -15.5630    2.7900 O   0  0  0  0  0  0  0  0  0  0  0  0
   -0.9390  -16.9470    3.1540 C   0  0  2  0  0  0  0  0  0  0  0  0
   -2.3260  -17.5380    2.8590 C   0  0  0  0  0  0  0  0  0  0  0  0
   -2.2780  -18.9460    2.6550 O   0  0  0  0  0  0  0  0  0  0  0  0
   -0.6156  -18.6085    6.9632 H   0  0  0  0  0  0  0  0  0  0  0  0
   -2.1893  -18.4816    6.1065 H   0  0  0  0  0  0  0  0  0  0  0  0
   -1.2895  -20.0363    6.1065 H   0  0  0  0  0  0  0  0  0  0  0  0
   -1.2797  -16.6729    5.3250 H   0  0  0  0  0  0  0  0  0  0  0  0
    1.5617  -17.0321    4.3945 H   0  0  0  0  0  0  0  0  0  0  0  0
    0.8740  -15.4200    6.5600 H   0  0  0  0  0  0  0  0  0  0  0  0
    0.0948  -14.3709    4.9077 H   0  0  0  0  0  0  0  0  0  0  0  0
    2.7250  -15.0830    4.0340 H   0  0  0  0  0  0  0  0  0  0  0  0
    1.0176  -15.5560    2.2254 H   0  0  0  0  0  0  0  0  0  0  0  0
    0.0834  -11.2848    1.5363 H   0  0  0  0  0  0  0  0  0  0  0  0
    0.9264  -10.4359   -0.6555 H   0  0  0  0  0  0  0  0  0  0  0  0
    2.9270  -15.3270   -1.8050 H   0  0  0  0  0  0  0  0  0  0  0  0
    1.6857  -15.2222    0.7102 H   0  0  0  0  0  0  0  0  0  0  0  0
    1.5484  -14.3124   -4.5690 H   0  0  0  0  0  0  0  0  0  0  0  0
    2.1032  -13.1145   -5.7871 H   0  0  0  0  0  0  0  0  0  0  0  0
    2.7843  -14.7767   -5.7871 H   0  0  0  0  0  0  0  0  0  0  0  0
    4.7182  -11.5772   -3.7574 H   0  0  0  0  0  0  0  0  0  0  0  0
    3.4121  -11.7610   -6.3875 H   0  0  0  0  0  0  0  0  0  0  0  0
    4.3930  -10.4247   -5.7149 H   0  0  0  0  0  0  0  0  0  0  0  0
    5.7178  -12.0643   -7.1278 H   0  0  0  0  0  0  0  0  0  0  0  0
    6.2968  -11.9060   -5.3962 H   0  0  0  0  0  0  0  0  0  0  0  0
    4.6222  -14.1460   -6.5510 H   0  0  0  0  0  0  0  0  0  0  0  0
    7.2703  -13.5558   -8.2172 H   0  0  0  0  0  0  0  0  0  0  0  0
    7.2795  -15.3470   -8.3523 H   0  0  0  0  0  0  0  0  0  0  0  0
    5.7207  -14.4543   -8.3523 H   0  0  0  0  0  0  0  0  0  0  0  0
    7.9992  -14.1150   -4.7493 H   0  0  0  0  0  0  0  0  0  0  0  0
    8.8264  -14.7699   -6.2031 H   0  0  0  0  0  0  0  0  0  0  0  0
    8.2125  -13.0818   -6.2031 H   0  0  0  0  0  0  0  0  0  0  0  0
    5.2877  -17.6597   -5.1043 H   0  0  0  0  0  0  0  0  0  0  0  0
    3.9978  -16.1841   -3.7474 H   0  0  0  0  0  0  0  0  0  0  0  0
    5.4669  -14.0619   -2.3269 H   0  0  0  0  0  0  0  0  0  0  0  0
    6.8035  -14.5844   -3.4073 H   0  0  0  0  0  0  0  0  0  0  0  0
    6.2666  -12.8703   -3.4073 H   0  0  0  0  0  0  0  0  0  0  0  0
    2.9054  -10.2510   -3.1420 H   0  0  0  0  0  0  0  0  0  0  0  0
    1.7532  -10.9974   -4.1856 H   0  0  0  0  0  0  0  0  0  0  0  0
   -0.1806  -17.4803    2.5621 H   0  0  0  0  0  0  0  0  0  0  0  0
   -2.9899  -17.3257    3.7100 H   0  0  0  0  0  0  0  0  0  0  0  0
   -2.7006  -17.0752    1.9341 H   0  0  0  0  0  0  0  0  0  0  0  0
   -3.1010  -19.3180    3.0390 H   0  0  0  0  0  0  0  0  0  0  0  0
  1  2  1  0
  2  3  1  0
  3  4  1  0
  4  5  1  0
  4  6  1  0
  6  7  1  0
  6  8  1  0
  8  9  1  0
  9 10  1  0
 10 11  2  0
 11 12  1  0
 12 13  2  0
 13 14  1  0
 14 15  2  0
 15 16  1  0
 16 17  1  0
 17 18  2  0
 15 19  1  0
 19 20  1  6
 19 21  1  0
 21 22  1  0
 22 23  1  0
 23 24  1  0
 24 25  1  0
 25 26  1  0
 25 27  1  0
 25 28  1  0
 28 29  2  0
 28 30  1  0
 30 31  2  0
 31 32  1  0
 32 33  1  1
 21 34  1  0
  8 35  1  0
 35 36  1  0
 36 37  1  0
 37 38  1  0
 36  3  1  0
 18 10  1  0
 32 19  1  0
 17 13  1  0
 32 24  1  0
 34 14  1  0
  1 39  1  0
  1 40  1  0
  1 41  1  0
  3 42  1  1
  4 43  1  6
  5 44  1  0
  6 45  1  1
  7 46  1  0
  8 47  1  6
 11 48  1  0
 12 49  1  0
 16 50  1  0
 18 51  1  0
 20 52  1  0
 20 53  1  0
 20 54  1  0
 21 55  1  1
 22 56  1  0
 22 57  1  0
 23 58  1  0
 23 59  1  0
 24 60  1  6
 26 61  1  0
 26 62  1  0
 26 63  1  0
 27 64  1  0
 27 65  1  0
 27 66  1  0
 30 67  1  0
 31 68  1  0
 33 69  1  0
 33 70  1  0
 33 71  1  0
 34 72  1  0
 34 73  1  0
 36 74  1  6
 37 75  1  0
 37 76  1  0
 38 77  1  0
M  END
>  <meeko>  (4) 
{"is_sidechain": [false], "free_energy": -8.546, "intermolecular_energy": -11.055, "internal_energy": -0.765}

$$$$
LIB_QGZCRYRTSBNQGS__M_PUB_ALL__e8__s20260927
     RDKit          3D

 77 82  0  0  0  0  0  0  0  0999 V2000
    2.8300  -18.9120   11.9300 C   0  0  0  0  0  0  0  0  0  0  0  0
    2.0060  -17.8750   11.4050 O   0  0  0  0  0  0  0  0  0  0  0  0
    1.7990  -17.9560    9.9810 C   0  0  1  0  0  0  0  0  0  0  0  0
    3.1060  -18.1510    9.1880 C   0  0  2  0  0  0  0  0  0  0  0  0
    3.8930  -16.9470    9.1880 O   0  0  0  0  0  0  0  0  0  0  0  0
    2.8310  -18.5210    7.7280 C   0  0  1  0  0  0  0  0  0  0  0  0
    4.0880  -18.8240    7.0960 O   0  0  0  0  0  0  0  0  0  0  0  0
    1.8480  -19.6990    7.6390 C   0  0  2  0  0  0  0  0  0  0  0  0
    1.6120  -19.9160    6.2400 O   0  0  0  0  0  0  0  0  0  0  0  0
    0.7540  -19.0570    5.6040 C   0  0  0  0  0  0  0  0  0  0  0  0
   -0.5980  -19.3660    5.7730 C   0  0  0  0  0  0  0  0  0  0  0  0
   -1.6040  -18.5860    5.1880 C   0  0  0  0  0  0  0  0  0  0  0  0
   -1.2380  -17.4760    4.4090 C   0  0  0  0  0  0  0  0  0  0  0  0
   -1.9370  -16.4970    3.6880 C   0  0  0  0  0  0  0  0  0  0  0  0
   -1.0190  -15.6510    3.1110 C   0  0  0  0  0  0  0  0  0  0  0  0
    0.2300  -16.0660    3.4180 N   0  0  0  0  0  0  0  0  0  0  0  0
    0.1260  -17.1860    4.2360 C   0  0  0  0  0  0  0  0  0  0  0  0
    1.1380  -17.9640    4.8200 C   0  0  0  0  0  0  0  0  0  0  0  0
   -1.6360  -14.5840    2.2560 C   0  0  1  0  0  0  0  0  0  0  0  0
   -1.6930  -15.1720    0.8120 C   0  0  0  0  0  0  0  0  0  0  0  0
   -3.0640  -14.5970    2.9690 C   0  0  1  0  0  0  0  0  0  0  0  0
   -4.0920  -13.8050    2.1950 C   0  0  0  0  0  0  0  0  0  0  0  0
   -3.6060  -12.3460    2.0860 C   0  0  0  0  0  0  0  0  0  0  0  0
   -2.1540  -12.1950    1.5380 C   0  0  1  0  0  0  0  0  0  0  0  0
   -1.7060  -10.7120    1.2930 C   0  0  0  0  0  0  0  0  0  0  0  0
   -2.5420  -10.1110    0.1320 C   0  0  0  0  0  0  0  0  0  0  0  0
   -1.8730   -9.7750    2.4990 C   0  0  0  0  0  0  0  0  0  0  0  0
   -0.2390  -10.6560    0.8300 C   0  0  0  0  0  0  0  0  0  0  0  0
    0.2730   -9.6280    0.3830 O   0  0  0  0  0  0  0  0  0  0  0  0
    0.6160  -11.8630    0.9250 C   0  0  0  0  0  0  0  0  0  0  0  0
    0.2390  -12.9610    1.5910 C   0  0  0  0  0  0  0  0  0  0  0  0
   -1.0940  -13.1070    2.3010 C   0  0  2  0  0  0  0  0  0  0  0  0
   -0.8440  -12.6380    3.7580 C   0  0  0  0  0  0  0  0  0  0  0  0
   -3.3340  -16.0850    3.3660 C   0  0  0  0  0  0  0  0  0  0  0  0
    0.6440  -19.3530    8.3230 O   0  0  0  0  0  0  0  0  0  0  0  0
    0.8630  -19.1600    9.7230 C   0  0  2  0  0  0  0  0  0  0  0  0
   -0.4990  -18.9670   10.4070 C   0  0  0  0  0  0  0  0  0  0  0  0
   -0.8180  -17.5930   10.5930 O   0  0  0  0  0  0  0  0  0  0  0  0
    2.8043  -18.8797   13.0292 H   0  0  0  0  0  0  0  0  0  0  0  0
    2.4577  -19.8872   11.5831 H   0  0  0  0  0  0  0  0  0  0  0  0
    3.8641  -18.7697   11.5831 H   0  0  0  0  0  0  0  0  0  0  0  0
    1.3659  -17.0050    9.6374 H   0  0  0  0  0  0  0  0  0  0  0  0
    3.6498  -18.9680    9.6848 H   0  0  0  0  0  0  0  0  0  0  0  0
    3.3810  -16.3050    9.7230 H   0  0  0  0  0  0  0  0  0  0  0  0
    2.3569  -17.6777    7.2045 H   0  0  0  0  0  0  0  0  0  0  0  0
    4.6800  -19.1270    7.8120 H   0  0  0  0  0  0  0  0  0  0  0  0
    2.2410  -20.6142    8.1059 H   0  0  0  0  0  0  0  0  0  0  0  0
   -0.8786  -20.2405    6.3784 H   0  0  0  0  0  0  0  0  0  0  0  0
   -2.6642  -18.8389    5.3364 H   0  0  0  0  0  0  0  0  0  0  0  0
    1.1030  -15.6560    3.1140 H   0  0  0  0  0  0  0  0  0  0  0  0
    2.1999  -17.7217    4.6659 H   0  0  0  0  0  0  0  0  0  0  0  0
   -1.7990  -16.2656    0.8653 H   0  0  0  0  0  0  0  0  0  0  0  0
   -2.5540  -14.7458    0.2763 H   0  0  0  0  0  0  0  0  0  0  0  0
   -0.7661  -14.9192    0.2763 H   0  0  0  0  0  0  0  0  0  0  0  0
   -3.1197  -14.0354    3.9132 H   0  0  0  0  0  0  0  0  0  0  0  0
   -4.2092  -14.2331    1.1885 H   0  0  0  0  0  0  0  0  0  0  0  0
   -5.0624  -13.8411    2.7118 H   0  0  0  0  0  0  0  0  0  0  0  0
   -4.2869  -11.8050    1.4124 H   0  0  0  0  0  0  0  0  0  0  0  0
   -3.6025  -11.9370    3.1071 H   0  0  0  0  0  0  0  0  0  0  0  0
   -2.1840  -12.6118    0.5205 H   0  0  0  0  0  0  0  0  0  0  0  0
   -3.3696   -9.5161    0.5458 H   0  0  0  0  0  0  0  0  0  0  0  0
   -1.9003   -9.4662   -0.4864 H   0  0  0  0  0  0  0  0  0  0  0  0
   -2.9488  -10.9247   -0.4864 H   0  0  0  0  0  0  0  0  0  0  0  0
   -1.7700  -10.3528    3.4293 H   0  0  0  0  0  0  0  0  0  0  0  0
   -1.1001   -8.9930    2.4656 H   0  0  0  0  0  0  0  0  0  0  0  0
   -2.8685   -9.3082    2.4656 H   0  0  0  0  0  0  0  0  0  0  0  0
    1.5979  -11.8561    0.4292 H   0  0  0  0  0  0  0  0  0  0  0  0
    0.9382  -13.8094    1.6258 H   0  0  0  0  0  0  0  0  0  0  0  0
   -1.2432  -13.3869    4.4579 H   0  0  0  0  0  0  0  0  0  0  0  0
    0.2368  -12.5197    3.9248 H   0  0  0  0  0  0  0  0  0  0  0  0
   -1.3483  -11.6747    3.9248 H   0  0  0  0  0  0  0  0  0  0  0  0
   -3.9992  -16.1651    4.2384 H   0  0  0  0  0  0  0  0  0  0  0  0
   -3.8432  -16.6933    2.6039 H   0  0  0  0  0  0  0  0  0  0  0  0
    1.3627  -20.0445   10.1449 H   0  0  0  0  0  0  0  0  0  0  0  0
   -1.2775  -19.4299    9.7827 H   0  0  0  0  0  0  0  0  0  0  0  0
   -0.4480  -19.4388   11.3994 H   0  0  0  0  0  0  0  0  0  0  0  0
   -0.4940  -17.3430   11.4840 H   0  0  0  0  0  0  0  0  0  0  0  0
  1  2  1  0
  2  3  1  0
  3  4  1  0
  4  5  1  0
  4  6  1  0
  6  7  1  0
  6  8  1  0
  8  9  1  0
  9 10  1  0
 10 11  2  0
 11 12  1  0
 12 13  2  0
 13 14  1  0
 14 15  2  0
 15 16  1  0
 16 17  1  0
 17 18  2  0
 15 19  1  0
 19 20  1  6
 19 21  1  0
 21 22  1  0
 22 23  1  0
 23 24  1  0
 24 25  1  0
 25 26  1  0
 25 27  1  0
 25 28  1  0
 28 29  2  0
 28 30  1  0
 30 31  2  0
 31 32  1  0
 32 33  1  1
 21 34  1  0
  8 35  1  0
 35 36  1  0
 36 37  1  0
 37 38  1  0
 36  3  1  0
 18 10  1  0
 32 19  1  0
 17 13  1  0
 32 24  1  0
 34 14  1  0
  1 39  1  0
  1 40  1  0
  1 41  1  0
  3 42  1  6
  4 43  1  1
  5 44  1  0
  6 45  1  6
  7 46  1  0
  8 47  1  1
 11 48  1  0
 12 49  1  0
 16 50  1  0
 18 51  1  0
 20 52  1  0
 20 53  1  0
 20 54  1  0
 21 55  1  1
 22 56  1  0
 22 57  1  0
 23 58  1  0
 23 59  1  0
 24 60  1  6
 26 61  1  0
 26 62  1  0
 26 63  1  0
 27 64  1  0
 27 65  1  0
 27 66  1  0
 30 67  1  0
 31 68  1  0
 33 69  1  0
 33 70  1  0
 33 71  1  0
 34 72  1  0
 34 73  1  0
 36 74  1  1
 37 75  1  0
 37 76  1  0
 38 77  1  0
M  END
>  <meeko>  (5) 
{"is_sidechain": [false], "free_energy": -8.512, "intermolecular_energy": -11.44, "internal_energy": -0.336}

$$$$
LIB_QGZCRYRTSBNQGS__M_PUB_ALL__e8__s20260927
     RDKit          3D

 77 82  0  0  0  0  0  0  0  0999 V2000
    5.3630  -18.1000   12.3700 C   0  0  0  0  0  0  0  0  0  0  0  0
    4.8300  -17.4420   11.2250 O   0  0  0  0  0  0  0  0  0  0  0  0
    3.8690  -18.2260   10.4920 C   0  0  1  0  0  0  0  0  0  0  0  0
    2.4180  -17.7450   10.6870 C   0  0  2  0  0  0  0  0  0  0  0  0
    1.9420  -18.0650   12.0070 O   0  0  0  0  0  0  0  0  0  0  0  0
    1.4650  -18.4010    9.6840 C   0  0  1  0  0  0  0  0  0  0  0  0
    0.1660  -17.7990    9.8360 O   0  0  0  0  0  0  0  0  0  0  0  0
    1.9980  -18.2560    8.2500 C   0  0  2  0  0  0  0  0  0  0  0  0
    1.0710  -18.9570    7.4080 O   0  0  0  0  0  0  0  0  0  0  0  0
    0.2730  -18.2070    6.5850 C   0  0  0  0  0  0  0  0  0  0  0  0
   -1.0890  -18.4980    6.6830 C   0  0  0  0  0  0  0  0  0  0  0  0
   -2.0390  -17.8180    5.9090 C   0  0  0  0  0  0  0  0  0  0  0  0
   -1.6040  -16.8300    5.0110 C   0  0  0  0  0  0  0  0  0  0  0  0
   -2.2350  -15.9710    4.1000 C   0  0  0  0  0  0  0  0  0  0  0  0
   -1.2690  -15.2110    3.4850 C   0  0  0  0  0  0  0  0  0  0  0  0
   -0.0510  -15.5680    3.9520 N   0  0  0  0  0  0  0  0  0  0  0  0
   -0.2290  -16.5580    4.9110 C   0  0  0  0  0  0  0  0  0  0  0  0
    0.7270  -17.2360    5.6850 C   0  0  0  0  0  0  0  0  0  0  0  0
   -1.8060  -14.2840    2.4350 C   0  0  1  0  0  0  0  0  0  0  0  0
   -1.7460  -15.0760    1.0920 C   0  0  0  0  0  0  0  0  0  0  0  0
   -3.2890  -14.2040    3.0210 C   0  0  1  0  0  0  0  0  0  0  0  0
   -4.2450  -13.5400    2.0570 C   0  0  0  0  0  0  0  0  0  0  0  0
   -3.7440  -12.1090    1.7780 C   0  0  0  0  0  0  0  0  0  0  0  0
   -2.2510  -12.0290    1.3370 C   0  0  1  0  0  0  0  0  0  0  0  0
   -1.7770  -10.5940    0.9170 C   0  0  0  0  0  0  0  0  0  0  0  0
   -2.5100  -10.1740   -0.3840 C   0  0  0  0  0  0  0  0  0  0  0  0
   -2.0390   -9.4930    1.9560 C   0  0  0  0  0  0  0  0  0  0  0  0
   -0.2760  -10.5940    0.5750 C   0  0  0  0  0  0  0  0  0  0  0  0
    0.2770   -9.6390    0.0270 O   0  0  0  0  0  0  0  0  0  0  0  0
    0.5630  -11.7700    0.9150 C   0  0  0  0  0  0  0  0  0  0  0  0
    0.1250  -12.7620    1.7000 C   0  0  0  0  0  0  0  0  0  0  0  0
   -1.2630  -12.8120    2.3100 C   0  0  2  0  0  0  0  0  0  0  0  0
   -1.1330  -12.1350    3.6990 C   0  0  0  0  0  0  0  0  0  0  0  0
   -3.5990  -15.6200    3.6060 C   0  0  0  0  0  0  0  0  0  0  0  0
    3.3030  -18.8300    8.1780 O   0  0  0  0  0  0  0  0  0  0  0  0
    4.2410  -18.1230    8.9940 C   0  0  2  0  0  0  0  0  0  0  0  0
    5.6440  -18.6890    8.7250 C   0  0  0  0  0  0  0  0  0  0  0  0
    6.6720  -17.7680    9.0760 O   0  0  0  0  0  0  0  0  0  0  0  0
    4.9754  -17.6215   13.2815 H   0  0  0  0  0  0  0  0  0  0  0  0
    5.0647  -19.1587   12.3565 H   0  0  0  0  0  0  0  0  0  0  0  0
    6.4606  -18.0281   12.3565 H   0  0  0  0  0  0  0  0  0  0  0  0
    3.9071  -19.2601   10.8651 H   0  0  0  0  0  0  0  0  0  0  0  0
    2.4311  -16.6558   10.5336 H   0  0  0  0  0  0  0  0  0  0  0  0
    1.8830  -17.2050   12.4730 H   0  0  0  0  0  0  0  0  0  0  0  0
    1.3881  -19.4803    9.8819 H   0  0  0  0  0  0  0  0  0  0  0  0
    0.3000  -16.8400    9.6990 H   0  0  0  0  0  0  0  0  0  0  0  0
    2.0818  -17.2056    7.9343 H   0  0  0  0  0  0  0  0  0  0  0  0
   -1.4236  -19.2779    7.3829 H   0  0  0  0  0  0  0  0  0  0  0  0
   -3.1091  -18.0546    6.0035 H   0  0  0  0  0  0  0  0  0  0  0  0
    0.8460  -15.2010    3.6650 H   0  0  0  0  0  0  0  0  0  0  0  0
    1.7992  -17.0109    5.5869 H   0  0  0  0  0  0  0  0  0  0  0  0
   -1.6645  -16.1522    1.3043 H   0  0  0  0  0  0  0  0  0  0  0  0
   -2.6612  -14.8849    0.5124 H   0  0  0  0  0  0  0  0  0  0  0  0
   -0.8700  -14.7492    0.5124 H   0  0  0  0  0  0  0  0  0  0  0  0
   -3.4203  -13.5119    3.8658 H   0  0  0  0  0  0  0  0  0  0  0  0
   -4.2801  -14.1106    1.1172 H   0  0  0  0  0  0  0  0  0  0  0  0
   -5.2553  -13.5075    2.4908 H   0  0  0  0  0  0  0  0  0  0  0  0
   -4.3634  -11.6764    0.9785 H   0  0  0  0  0  0  0  0  0  0  0  0
   -3.8236  -11.5560    2.7255 H   0  0  0  0  0  0  0  0  0  0  0  0
   -2.1980  -12.5900    0.3923 H   0  0  0  0  0  0  0  0  0  0  0  0
   -3.4380   -9.6423   -0.1267 H   0  0  0  0  0  0  0  0  0  0  0  0
   -1.8594   -9.5117   -0.9739 H   0  0  0  0  0  0  0  0  0  0  0  0
   -2.7524  -11.0702   -0.9739 H   0  0  0  0  0  0  0  0  0  0  0  0
   -1.9392   -9.9125    2.9679 H   0  0  0  0  0  0  0  0  0  0  0  0
   -1.3090   -8.6812    1.8220 H   0  0  0  0  0  0  0  0  0  0  0  0
   -3.0565   -9.0970    1.8220 H   0  0  0  0  0  0  0  0  0  0  0  0
    1.5828  -11.8287    0.5068 H   0  0  0  0  0  0  0  0  0  0  0  0
    0.8140  -13.5919    1.9160 H   0  0  0  0  0  0  0  0  0  0  0  0
   -1.2774  -12.8872    4.4885 H   0  0  0  0  0  0  0  0  0  0  0  0
   -0.1326  -11.6881    3.7969 H   0  0  0  0  0  0  0  0  0  0  0  0
   -1.8967  -11.3494    3.7969 H   0  0  0  0  0  0  0  0  0  0  0  0
   -4.3351  -15.5771    4.4223 H   0  0  0  0  0  0  0  0  0  0  0  0
   -4.0460  -16.3362    2.9008 H   0  0  0  0  0  0  0  0  0  0  0  0
    4.2217  -17.0535    8.7376 H   0  0  0  0  0  0  0  0  0  0  0  0
    5.7746  -19.6077    9.3157 H   0  0  0  0  0  0  0  0  0  0  0  0
    5.7255  -18.8913    7.6468 H   0  0  0  0  0  0  0  0  0  0  0  0
    6.9480  -17.9840    9.9920 H   0  0  0  0  0  0  0  0  0  0  0  0
  1  2  1  0
  2  3  1  0
  3  4  1  0
  4  5  1  0
  4  6  1  0
  6  7  1  0
  6  8  1  0
  8  9  1  0
  9 10  1  0
 10 11  2  0
 11 12  1  0
 12 13  2  0
 13 14  1  0
 14 15  2  0
 15 16  1  0
 16 17  1  0
 17 18  2  0
 15 19  1  0
 19 20  1  6
 19 21  1  0
 21 22  1  0
 22 23  1  0
 23 24  1  0
 24 25  1  0
 25 26  1  0
 25 27  1  0
 25 28  1  0
 28 29  2  0
 28 30  1  0
 30 31  2  0
 31 32  1  0
 32 33  1  1
 21 34  1  0
  8 35  1  0
 35 36  1  0
 36 37  1  0
 37 38  1  0
 36  3  1  0
 18 10  1  0
 32 19  1  0
 17 13  1  0
 32 24  1  0
 34 14  1  0
  1 39  1  0
  1 40  1  0
  1 41  1  0
  3 42  1  1
  4 43  1  6
  5 44  1  0
  6 45  1  1
  7 46  1  0
  8 47  1  6
 11 48  1  0
 12 49  1  0
 16 50  1  0
 18 51  1  0
 20 52  1  0
 20 53  1  0
 20 54  1  0
 21 55  1  1
 22 56  1  0
 22 57  1  0
 23 58  1  0
 23 59  1  0
 24 60  1  6
 26 61  1  0
 26 62  1  0
 26 63  1  0
 27 64  1  0
 27 65  1  0
 27 66  1  0
 30 67  1  0
 31 68  1  0
 33 69  1  0
 33 70  1  0
 33 71  1  0
 34 72  1  0
 34 73  1  0
 36 74  1  6
 37 75  1  0
 37 76  1  0
 38 77  1  0
M  END
>  <meeko>  (6) 
{"is_sidechain": [false], "free_energy": -8.353, "intermolecular_energy": -10.921, "internal_energy": -0.643}

$$$$
LIB_QGZCRYRTSBNQGS__M_PUB_ALL__e8__s20260927
     RDKit          3D

 77 82  0  0  0  0  0  0  0  0999 V2000
   13.5070  -10.5160    0.1640 C   0  0  0  0  0  0  0  0  0  0  0  0
   13.0520  -11.8200   -0.1870 O   0  0  0  0  0  0  0  0  0  0  0  0
   12.0670  -11.8330   -1.2380 C   0  0  1  0  0  0  0  0  0  0  0  0
   12.6190  -12.3560   -2.5790 C   0  0  2  0  0  0  0  0  0  0  0  0
   13.5090  -11.3990   -3.1790 O   0  0  0  0  0  0  0  0  0  0  0  0
   11.4960  -12.6320   -3.5830 C   0  0  1  0  0  0  0  0  0  0  0  0
   12.0750  -13.2470   -4.7490 O   0  0  0  0  0  0  0  0  0  0  0  0
   10.4050  -13.5120   -2.9540 C   0  0  2  0  0  0  0  0  0  0  0  0
    9.3810  -13.6500   -3.9500 O   0  0  0  0  0  0  0  0  0  0  0  0
    8.1260  -13.9940   -3.5220 C   0  0  0  0  0  0  0  0  0  0  0  0
    7.9160  -15.3700   -3.4000 C   0  0  0  0  0  0  0  0  0  0  0  0
    6.6860  -15.8860   -2.9720 C   0  0  0  0  0  0  0  0  0  0  0  0
    5.6420  -14.9960   -2.6700 C   0  0  0  0  0  0  0  0  0  0  0  0
    4.3170  -15.1340   -2.2320 C   0  0  0  0  0  0  0  0  0  0  0  0
    3.7710  -13.8780   -2.1120 C   0  0  0  0  0  0  0  0  0  0  0  0
    4.6870  -12.9530   -2.4770 N   0  0  0  0  0  0  0  0  0  0  0  0
    5.8620  -13.6160   -2.8120 C   0  0  0  0  0  0  0  0  0  0  0  0
    7.0930  -13.0920   -3.2400 C   0  0  0  0  0  0  0  0  0  0  0  0
    2.3270  -13.8840   -1.7050 C   0  0  1  0  0  0  0  0  0  0  0  0
    1.5080  -13.8890   -3.0320 C   0  0  0  0  0  0  0  0  0  0  0  0
    2.3530  -15.3200   -1.0060 C   0  0  1  0  0  0  0  0  0  0  0  0
    0.9630  -15.8170   -0.6820 C   0  0  0  0  0  0  0  0  0  0  0  0
    0.2940  -14.8110    0.2770 C   0  0  0  0  0  0  0  0  0  0  0  0
    0.3330  -13.3340   -0.2190 C   0  0  1  0  0  0  0  0  0  0  0  0
   -0.4680  -12.3290    0.6810 C   0  0  0  0  0  0  0  0  0  0  0  0
   -1.9820  -12.6520    0.5860 C   0  0  0  0  0  0  0  0  0  0  0  0
   -0.0960  -12.3540    2.1720 C   0  0  0  0  0  0  0  0  0  0  0  0
   -0.3090  -10.8880    0.1630 C   0  0  0  0  0  0  0  0  0  0  0  0
   -1.0010   -9.9570    0.5780 O   0  0  0  0  0  0  0  0  0  0  0  0
    0.7140  -10.5770   -0.8650 C   0  0  0  0  0  0  0  0  0  0  0  0
    1.6610  -11.4520   -1.2250 C   0  0  0  0  0  0  0  0  0  0  0  0
    1.7880  -12.8500   -0.6480 C   0  0  2  0  0  0  0  0  0  0  0  0
    2.7520  -12.7170    0.5600 C   0  0  0  0  0  0  0  0  0  0  0  0
    3.3370  -16.1930   -1.8510 C   0  0  0  0  0  0  0  0  0  0  0  0
    9.9060  -12.8700   -1.7810 O   0  0  0  0  0  0  0  0  0  0  0  0
   10.9130  -12.7500   -0.7710 C   0  0  2  0  0  0  0  0  0  0  0  0
   10.2550  -12.2140    0.5100 C   0  0  0  0  0  0  0  0  0  0  0  0
   10.9740  -12.5890    1.6800 O   0  0  0  0  0  0  0  0  0  0  0  0
   13.5399  -10.4217    1.2595 H   0  0  0  0  0  0  0  0  0  0  0  0
   14.5142  -10.3558   -0.2483 H   0  0  0  0  0  0  0  0  0  0  0  0
   12.8181   -9.7640   -0.2483 H   0  0  0  0  0  0  0  0  0  0  0  0
   11.7363  -10.7996   -1.4191 H   0  0  0  0  0  0  0  0  0  0  0  0
   13.1538  -13.2894   -2.3493 H   0  0  0  0  0  0  0  0  0  0  0  0
   14.3260  -11.4350   -2.6380 H   0  0  0  0  0  0  0  0  0  0  0  0
   11.0077  -11.6909   -3.8760 H   0  0  0  0  0  0  0  0  0  0  0  0
   13.0220  -13.0080   -4.7330 H   0  0  0  0  0  0  0  0  0  0  0  0
   10.7818  -14.5008   -2.6535 H   0  0  0  0  0  0  0  0  0  0  0  0
    8.7342  -16.0631   -3.6453 H   0  0  0  0  0  0  0  0  0  0  0  0
    6.5399  -16.9718   -2.8739 H   0  0  0  0  0  0  0  0  0  0  0  0
    4.5620  -11.9510   -2.5140 H   0  0  0  0  0  0  0  0  0  0  0  0
    7.2407  -12.0075   -3.3501 H   0  0  0  0  0  0  0  0  0  0  0  0
    0.4329  -13.8956   -2.7993 H   0  0  0  0  0  0  0  0  0  0  0  0
    1.7512  -12.9894   -3.6164 H   0  0  0  0  0  0  0  0  0  0  0  0
    1.7622  -14.7856   -3.6164 H   0  0  0  0  0  0  0  0  0  0  0  0
    2.7628  -15.3358    0.0147 H   0  0  0  0  0  0  0  0  0  0  0  0
    0.3727  -15.8968   -1.6067 H   0  0  0  0  0  0  0  0  0  0  0  0
    1.0183  -16.8086   -0.2090 H   0  0  0  0  0  0  0  0  0  0  0  0
   -0.7584  -15.1042    0.4056 H   0  0  0  0  0  0  0  0  0  0  0  0
    0.8631  -14.8441    1.2177 H   0  0  0  0  0  0  0  0  0  0  0  0
   -0.2382  -13.3292   -1.1590 H   0  0  0  0  0  0  0  0  0  0  0  0
   -2.4020  -12.7416    1.5987 H   0  0  0  0  0  0  0  0  0  0  0  0
   -2.4963  -11.8434    0.0460 H   0  0  0  0  0  0  0  0  0  0  0  0
   -2.1215  -13.6001    0.0460 H   0  0  0  0  0  0  0  0  0  0  0  0
   -1.0111  -12.2925    2.7793 H   0  0  0  0  0  0  0  0  0  0  0  0
    0.4345  -13.2898    2.4019 H   0  0  0  0  0  0  0  0  0  0  0  0
    0.5549  -11.4976    2.4019 H   0  0  0  0  0  0  0  0  0  0  0  0
    0.6937   -9.5899   -1.3500 H   0  0  0  0  0  0  0  0  0  0  0  0
    2.3916  -11.1387   -1.9853 H   0  0  0  0  0  0  0  0  0  0  0  0
    2.1798  -12.7959    1.4961 H   0  0  0  0  0  0  0  0  0  0  0  0
    3.5026  -13.5201    0.5202 H   0  0  0  0  0  0  0  0  0  0  0  0
    3.2571  -11.7407    0.5202 H   0  0  0  0  0  0  0  0  0  0  0  0
    3.8019  -16.9891   -1.2509 H   0  0  0  0  0  0  0  0  0  0  0  0
    2.8830  -16.7421   -2.6891 H   0  0  0  0  0  0  0  0  0  0  0  0
   11.3562  -13.7367   -0.5709 H   0  0  0  0  0  0  0  0  0  0  0  0
   10.2150  -11.1161    0.4552 H   0  0  0  0  0  0  0  0  0  0  0  0
    9.2465  -12.6479    0.5792 H   0  0  0  0  0  0  0  0  0  0  0  0
   10.7650  -11.9220    2.3690 H   0  0  0  0  0  0  0  0  0  0  0  0
  1  2  1  0
  2  3  1  0
  3  4  1  0
  4  5  1  0
  4  6  1  0
  6  7  1  0
  6  8  1  0
  8  9  1  0
  9 10  1  0
 10 11  2  0
 11 12  1  0
 12 13  2  0
 13 14  1  0
 14 15  2  0
 15 16  1  0
 16 17  1  0
 17 18  2  0
 15 19  1  0
 19 20  1  6
 19 21  1  0
 21 22  1  0
 22 23  1  0
 23 24  1  0
 24 25  1  0
 25 26  1  0
 25 27  1  0
 25 28  1  0
 28 29  2  0
 28 30  1  0
 30 31  2  0
 31 32  1  0
 32 33  1  1
 21 34  1  0
  8 35  1  0
 35 36  1  0
 36 37  1  0
 37 38  1  0
 36  3  1  0
 18 10  1  0
 32 19  1  0
 17 13  1  0
 32 24  1  0
 34 14  1  0
  1 39  1  0
  1 40  1  0
  1 41  1  0
  3 42  1  6
  4 43  1  1
  5 44  1  0
  6 45  1  6
  7 46  1  0
  8 47  1  1
 11 48  1  0
 12 49  1  0
 16 50  1  0
 18 51  1  0
 20 52  1  0
 20 53  1  0
 20 54  1  0
 21 55  1  1
 22 56  1  0
 22 57  1  0
 23 58  1  0
 23 59  1  0
 24 60  1  6
 26 61  1  0
 26 62  1  0
 26 63  1  0
 27 64  1  0
 27 65  1  0
 27 66  1  0
 30 67  1  0
 31 68  1  0
 33 69  1  0
 33 70  1  0
 33 71  1  0
 34 72  1  0
 34 73  1  0
 36 74  1  1
 37 75  1  0
 37 76  1  0
 38 77  1  0
M  END
>  <meeko>  (7) 
{"is_sidechain": [false], "free_energy": -8.319, "intermolecular_energy": -10.892, "internal_energy": -0.628}

$$$$
LIB_QGZCRYRTSBNQGS__M_PUB_ALL__e8__s20260927
     RDKit          3D

 77 82  0  0  0  0  0  0  0  0999 V2000
   12.8500  -12.2980   -3.2040 C   0  0  0  0  0  0  0  0  0  0  0  0
   12.9700  -13.4500   -2.3760 O   0  0  0  0  0  0  0  0  0  0  0  0
   12.1400  -13.4140   -1.1980 C   0  0  1  0  0  0  0  0  0  0  0  0
   12.1150  -12.0330   -0.5160 C   0  0  2  0  0  0  0  0  0  0  0  0
   13.3660  -11.7580    0.1380 O   0  0  0  0  0  0  0  0  0  0  0  0
   11.0130  -11.9460    0.5440 C   0  0  1  0  0  0  0  0  0  0  0  0
   10.9610  -10.5920    1.0300 O   0  0  0  0  0  0  0  0  0  0  0  0
    9.6630  -12.3980   -0.0340 C   0  0  2  0  0  0  0  0  0  0  0  0
    8.7260  -12.3420    1.0520 O   0  0  0  0  0  0  0  0  0  0  0  0
    7.4070  -12.5710    0.7610 C   0  0  0  0  0  0  0  0  0  0  0  0
    7.0860  -12.4420   -0.5920 C   0  0  0  0  0  0  0  0  0  0  0  0
    5.7790  -12.6450   -1.0550 C   0  0  0  0  0  0  0  0  0  0  0  0
    4.7740  -12.9770   -0.1330 C   0  0  0  0  0  0  0  0  0  0  0  0
    3.3990  -13.2430   -0.2170 C   0  0  0  0  0  0  0  0  0  0  0  0
    2.9350  -13.5090    1.0500 C   0  0  0  0  0  0  0  0  0  0  0  0
    3.9520  -13.4010    1.9340 N   0  0  0  0  0  0  0  0  0  0  0  0
    5.1080  -13.0880    1.2270 C   0  0  0  0  0  0  0  0  0  0  0  0
    6.4160  -12.8860    1.6980 C   0  0  0  0  0  0  0  0  0  0  0  0
    1.4560  -13.7530    1.1110 C   0  0  1  0  0  0  0  0  0  0  0  0
    0.8030  -12.3630    1.3860 C   0  0  0  0  0  0  0  0  0  0  0  0
    1.2940  -14.2040   -0.4120 C   0  0  1  0  0  0  0  0  0  0  0  0
   -0.1570  -14.2930   -0.8260 C   0  0  0  0  0  0  0  0  0  0  0  0
   -0.8610  -15.3270    0.0750 C   0  0  0  0  0  0  0  0  0  0  0  0
   -0.6570  -15.0880    1.6020 C   0  0  1  0  0  0  0  0  0  0  0  0
   -1.4850  -16.0510    2.5240 C   0  0  0  0  0  0  0  0  0  0  0  0
   -2.9970  -15.7430    2.3580 C   0  0  0  0  0  0  0  0  0  0  0  0
   -1.2970  -17.5480    2.2330 C   0  0  0  0  0  0  0  0  0  0  0  0
   -1.1620  -15.7970    4.0060 C   0  0  0  0  0  0  0  0  0  0  0  0
   -1.8300  -16.2830    4.9200 O   0  0  0  0  0  0  0  0  0  0  0  0
   -0.0040  -14.9490    4.3800 C   0  0  0  0  0  0  0  0  0  0  0  0
    0.9140  -14.5530    3.4890 C   0  0  0  0  0  0  0  0  0  0  0  0
    0.8700  -14.9020    2.0130 C   0  0  2  0  0  0  0  0  0  0  0  0
    1.6890  -16.2110    1.8700 C   0  0  0  0  0  0  0  0  0  0  0  0
    2.3070  -13.3380   -1.2280 C   0  0  0  0  0  0  0  0  0  0  0  0
    9.7940  -13.7270   -0.5390 O   0  0  0  0  0  0  0  0  0  0  0  0
   10.7060  -13.7900   -1.6390 C   0  0  2  0  0  0  0  0  0  0  0  0
   10.6550  -15.2070   -2.2330 C   0  0  0  0  0  0  0  0  0  0  0  0
   11.0160  -15.2260   -3.6090 O   0  0  0  0  0  0  0  0  0  0  0  0
   12.7566  -11.4014   -2.5736 H   0  0  0  0  0  0  0  0  0  0  0  0
   13.7437  -12.2082   -3.8391 H   0  0  0  0  0  0  0  0  0  0  0  0
   11.9570  -12.3943   -3.8391 H   0  0  0  0  0  0  0  0  0  0  0  0
   12.5516  -14.1177   -0.4594 H   0  0  0  0  0  0  0  0  0  0  0  0
   11.9265  -11.2988   -1.3132 H   0  0  0  0  0  0  0  0  0  0  0  0
   14.0550  -12.0580   -0.4910 H   0  0  0  0  0  0  0  0  0  0  0  0
   11.2369  -12.6223    1.3821 H   0  0  0  0  0  0  0  0  0  0  0  0
   11.7070  -10.1270    0.6040 H   0  0  0  0  0  0  0  0  0  0  0  0
    9.3245  -11.7609   -0.8644 H   0  0  0  0  0  0  0  0  0  0  0  0
    7.8759  -12.1754   -1.3096 H   0  0  0  0  0  0  0  0  0  0  0  0
    5.5441  -12.5457   -2.1250 H   0  0  0  0  0  0  0  0  0  0  0  0
    3.9050  -13.5160    2.9370 H   0  0  0  0  0  0  0  0  0  0  0  0
    6.6537  -12.9726    2.7685 H   0  0  0  0  0  0  0  0  0  0  0  0
    0.7273  -12.2018    2.4715 H   0  0  0  0  0  0  0  0  0  0  0  0
    1.4236  -11.5717    0.9402 H   0  0  0  0  0  0  0  0  0  0  0  0
   -0.2022  -12.3355    0.9402 H   0  0  0  0  0  0  0  0  0  0  0  0
    1.5757  -15.2461   -0.6235 H   0  0  0  0  0  0  0  0  0  0  0  0
   -0.6373  -13.3104   -0.7083 H   0  0  0  0  0  0  0  0  0  0  0  0
   -0.2298  -14.6002   -1.8797 H   0  0  0  0  0  0  0  0  0  0  0  0
   -1.9396  -15.2930   -0.1384 H   0  0  0  0  0  0  0  0  0  0  0  0
   -0.4117  -16.3044   -0.1548 H   0  0  0  0  0  0  0  0  0  0  0  0
   -1.1108  -14.1066    1.8041 H   0  0  0  0  0  0  0  0  0  0  0  0
   -3.4629  -15.6481    3.3499 H   0  0  0  0  0  0  0  0  0  0  0  0
   -3.1206  -14.8012    1.8032 H   0  0  0  0  0  0  0  0  0  0  0  0
   -3.4792  -16.5614    1.8032 H   0  0  0  0  0  0  0  0  0  0  0  0
   -1.2277  -18.1001    3.1819 H   0  0  0  0  0  0  0  0  0  0  0  0
   -2.1555  -17.9197    1.6544 H   0  0  0  0  0  0  0  0  0  0  0  0
   -0.3732  -17.6959    1.6544 H   0  0  0  0  0  0  0  0  0  0  0  0
    0.1048  -14.6336    5.4282 H   0  0  0  0  0  0  0  0  0  0  0  0
    1.7512  -13.9370    3.8492 H   0  0  0  0  0  0  0  0  0  0  0  0
    1.9334  -16.6016    2.8689 H   0  0  0  0  0  0  0  0  0  0  0  0
    1.0959  -16.9564    1.3199 H   0  0  0  0  0  0  0  0  0  0  0  0
    2.6187  -16.0036    1.3199 H   0  0  0  0  0  0  0  0  0  0  0  0
    2.6378  -13.8456   -2.1461 H   0  0  0  0  0  0  0  0  0  0  0  0
    1.9186  -12.3772   -1.5969 H   0  0  0  0  0  0  0  0  0  0  0  0
   10.4111  -13.0600   -2.4072 H   0  0  0  0  0  0  0  0  0  0  0  0
   11.3514  -15.8503   -1.6751 H   0  0  0  0  0  0  0  0  0  0  0  0
    9.6203  -15.5709   -2.1502 H   0  0  0  0  0  0  0  0  0  0  0  0
   11.0210  -16.1660   -3.8890 H   0  0  0  0  0  0  0  0  0  0  0  0
  1  2  1  0
  2  3  1  0
  3  4  1  0
  4  5  1  0
  4  6  1  0
  6  7  1  0
  6  8  1  0
  8  9  1  0
  9 10  1  0
 10 11  2  0
 11 12  1  0
 12 13  2  0
 13 14  1  0
 14 15  2  0
 15 16  1  0
 16 17  1  0
 17 18  2  0
 15 19  1  0
 19 20  1  6
 19 21  1  0
 21 22  1  0
 22 23  1  0
 23 24  1  0
 24 25  1  0
 25 26  1  0
 25 27  1  0
 25 28  1  0
 28 29  2  0
 28 30  1  0
 30 31  2  0
 31 32  1  0
 32 33  1  1
 21 34  1  0
  8 35  1  0
 35 36  1  0
 36 37  1  0
 37 38  1  0
 36  3  1  0
 18 10  1  0
 32 19  1  0
 17 13  1  0
 32 24  1  0
 34 14  1  0
  1 39  1  0
  1 40  1  0
  1 41  1  0
  3 42  1  1
  4 43  1  6
  5 44  1  0
  6 45  1  1
  7 46  1  0
  8 47  1  6
 11 48  1  0
 12 49  1  0
 16 50  1  0
 18 51  1  0
 20 52  1  0
 20 53  1  0
 20 54  1  0
 21 55  1  1
 22 56  1  0
 22 57  1  0
 23 58  1  0
 23 59  1  0
 24 60  1  6
 26 61  1  0
 26 62  1  0
 26 63  1  0
 27 64  1  0
 27 65  1  0
 27 66  1  0
 30 67  1  0
 31 68  1  0
 33 69  1  0
 33 70  1  0
 33 71  1  0
 34 72  1  0
 34 73  1  0
 36 74  1  6
 37 75  1  0
 37 76  1  0
 38 77  1  0
M  END
>  <meeko>  (8) 
{"is_sidechain": [false], "free_energy": -8.308, "intermolecular_energy": -11.036, "internal_energy": -0.47}

$$$$
LIB_QGZCRYRTSBNQGS__M_PUB_ALL__e8__s20260927
     RDKit          3D

 77 82  0  0  0  0  0  0  0  0999 V2000
   11.7480  -17.1350   -7.1210 C   0  0  0  0  0  0  0  0  0  0  0  0
   11.7850  -16.6300   -8.4520 O   0  0  0  0  0  0  0  0  0  0  0  0
   10.5380  -16.0650   -8.9000 C   0  0  1  0  0  0  0  0  0  0  0  0
    9.3250  -16.9720   -8.6150 C   0  0  2  0  0  0  0  0  0  0  0  0
    9.3240  -18.1200   -9.4830 O   0  0  0  0  0  0  0  0  0  0  0  0
    8.0020  -16.2310   -8.8320 C   0  0  1  0  0  0  0  0  0  0  0  0
    6.9290  -17.0930   -8.4120 O   0  0  0  0  0  0  0  0  0  0  0  0
    7.9940  -14.8950   -8.0720 C   0  0  2  0  0  0  0  0  0  0  0  0
    6.7480  -14.2600   -8.3970 O   0  0  0  0  0  0  0  0  0  0  0  0
    6.0250  -13.7240   -7.3640 C   0  0  0  0  0  0  0  0  0  0  0  0
    5.5820  -12.4190   -7.5890 C   0  0  0  0  0  0  0  0  0  0  0  0
    4.8280  -11.7280   -6.6320 C   0  0  0  0  0  0  0  0  0  0  0  0
    4.5220  -12.3640   -5.4170 C   0  0  0  0  0  0  0  0  0  0  0  0
    3.8190  -12.0040   -4.2590 C   0  0  0  0  0  0  0  0  0  0  0  0
    3.8600  -13.0630   -3.3840 C   0  0  0  0  0  0  0  0  0  0  0  0
    4.5780  -14.0700   -3.9310 N   0  0  0  0  0  0  0  0  0  0  0  0
    4.9880  -13.6710   -5.1980 C   0  0  0  0  0  0  0  0  0  0  0  0
    5.7430  -14.3690   -6.1540 C   0  0  0  0  0  0  0  0  0  0  0  0
    3.1910  -12.7880   -2.0700 C   0  0  1  0  0  0  0  0  0  0  0  0
    4.3050  -12.2340   -1.1300 C   0  0  0  0  0  0  0  0  0  0  0  0
    2.2270  -11.6340   -2.6080 C   0  0  1  0  0  0  0  0  0  0  0  0
    1.5450  -10.8930   -1.4810 C   0  0  0  0  0  0  0  0  0  0  0  0
    0.7070  -11.9010   -0.6690 C   0  0  0  0  0  0  0  0  0  0  0  0
    1.4970  -13.1620   -0.2050 C   0  0  1  0  0  0  0  0  0  0  0  0
    0.6880  -14.1200    0.7390 C   0  0  0  0  0  0  0  0  0  0  0  0
    0.4220  -13.4030    2.0880 C   0  0  0  0  0  0  0  0  0  0  0  0
   -0.6750  -14.5710    0.1920 C   0  0  0  0  0  0  0  0  0  0  0  0
    1.5150  -15.3720    1.0810 C   0  0  0  0  0  0  0  0  0  0  0  0
    1.1780  -16.1660    1.9600 O   0  0  0  0  0  0  0  0  0  0  0  0
    2.7630  -15.6660    0.3340 C   0  0  0  0  0  0  0  0  0  0  0  0
    3.1080  -15.0040   -0.7770 C   0  0  0  0  0  0  0  0  0  0  0  0
    2.2880  -13.8800   -1.3850 C   0  0  2  0  0  0  0  0  0  0  0  0
    1.3430  -14.5610   -2.4090 C   0  0  0  0  0  0  0  0  0  0  0  0
    3.0450  -10.8600   -3.6930 C   0  0  0  0  0  0  0  0  0  0  0  0
    9.1060  -14.1090   -8.5000 O   0  0  0  0  0  0  0  0  0  0  0  0
   10.3530  -14.7210   -8.1580 C   0  0  2  0  0  0  0  0  0  0  0  0
   11.4850  -13.7370   -8.4920 C   0  0  0  0  0  0  0  0  0  0  0  0
   12.0470  -13.9780   -9.7770 O   0  0  0  0  0  0  0  0  0  0  0  0
   11.8093  -16.2983   -6.4095 H   0  0  0  0  0  0  0  0  0  0  0  0
   10.8073  -17.6828   -6.9627 H   0  0  0  0  0  0  0  0  0  0  0  0
   12.5988  -17.8140   -6.9627 H   0  0  0  0  0  0  0  0  0  0  0  0
   10.5839  -15.9401   -9.9919 H   0  0  0  0  0  0  0  0  0  0  0  0
    9.4124  -17.2826   -7.5634 H   0  0  0  0  0  0  0  0  0  0  0  0
    9.1820  -17.7600  -10.3830 H   0  0  0  0  0  0  0  0  0  0  0  0
    7.8726  -15.9860   -9.8965 H   0  0  0  0  0  0  0  0  0  0  0  0
    6.1460  -16.5160   -8.3170 H   0  0  0  0  0  0  0  0  0  0  0  0
    8.0832  -15.0269   -6.9836 H   0  0  0  0  0  0  0  0  0  0  0  0
    5.8306  -11.9228   -8.5387 H   0  0  0  0  0  0  0  0  0  0  0  0
    4.4807  -10.7030   -6.8286 H   0  0  0  0  0  0  0  0  0  0  0  0
    4.7990  -14.9620   -3.5100 H   0  0  0  0  0  0  0  0  0  0  0  0
    6.1016  -15.3904   -5.9584 H   0  0  0  0  0  0  0  0  0  0  0  0
    4.0072  -12.3821   -0.0815 H   0  0  0  0  0  0  0  0  0  0  0  0
    5.2468  -12.7687   -1.3227 H   0  0  0  0  0  0  0  0  0  0  0  0
    4.4469  -11.1603   -1.3227 H   0  0  0  0  0  0  0  0  0  0  0  0
    1.3235  -11.9853   -3.1279 H   0  0  0  0  0  0  0  0  0  0  0  0
    2.3013  -10.4299   -0.8302 H   0  0  0  0  0  0  0  0  0  0  0  0
    0.8953  -10.1040   -1.8876 H   0  0  0  0  0  0  0  0  0  0  0  0
    0.3208  -11.3880    0.2241 H   0  0  0  0  0  0  0  0  0  0  0  0
   -0.0924  -12.2566   -1.3356 H   0  0  0  0  0  0  0  0  0  0  0  0
    2.2899  -12.7810    0.4554 H   0  0  0  0  0  0  0  0  0  0  0  0
    0.6729  -14.0793    2.9184 H   0  0  0  0  0  0  0  0  0  0  0  0
    1.0443  -12.4981    2.1512 H   0  0  0  0  0  0  0  0  0  0  0  0
   -0.6399  -13.1229    2.1512 H   0  0  0  0  0  0  0  0  0  0  0  0
   -1.3508  -14.7946    1.0306 H   0  0  0  0  0  0  0  0  0  0  0  0
   -1.1072  -13.7680   -0.4231 H   0  0  0  0  0  0  0  0  0  0  0  0
   -0.5429  -15.4733   -0.4231 H   0  0  0  0  0  0  0  0  0  0  0  0
    3.4295  -16.4575    0.7072 H   0  0  0  0  0  0  0  0  0  0  0  0
    4.0428  -15.2919   -1.2803 H   0  0  0  0  0  0  0  0  0  0  0  0
    0.5641  -15.1223   -1.8722 H   0  0  0  0  0  0  0  0  0  0  0  0
    0.8723  -13.7932   -3.0405 H   0  0  0  0  0  0  0  0  0  0  0  0
    1.9224  -15.2505   -3.0405 H   0  0  0  0  0  0  0  0  0  0  0  0
    2.3932  -10.3906   -4.4445 H   0  0  0  0  0  0  0  0  0  0  0  0
    3.6474  -10.0180   -3.3212 H   0  0  0  0  0  0  0  0  0  0  0  0
   10.3707  -14.9497   -7.0822 H   0  0  0  0  0  0  0  0  0  0  0  0
   11.0829  -12.7134   -8.4679 H   0  0  0  0  0  0  0  0  0  0  0  0
   12.2810  -13.8730   -7.7451 H   0  0  0  0  0  0  0  0  0  0  0  0
   11.2980  -14.1510  -10.3870 H   0  0  0  0  0  0  0  0  0  0  0  0
  1  2  1  0
  2  3  1  0
  3  4  1  0
  4  5  1  0
  4  6  1  0
  6  7  1  0
  6  8  1  0
  8  9  1  0
  9 10  1  0
 10 11  2  0
 11 12  1  0
 12 13  2  0
 13 14  1  0
 14 15  2  0
 15 16  1  0
 16 17  1  0
 17 18  2  0
 15 19  1  0
 19 20  1  1
 19 21  1  0
 21 22  1  0
 22 23  1  0
 23 24  1  0
 24 25  1  0
 25 26  1  0
 25 27  1  0
 25 28  1  0
 28 29  2  0
 28 30  1  0
 30 31  2  0
 31 32  1  0
 32 33  1  6
 21 34  1  0
  8 35  1  0
 35 36  1  0
 36 37  1  0
 37 38  1  0
 36  3  1  0
 18 10  1  0
 32 19  1  0
 17 13  1  0
 32 24  1  0
 34 14  1  0
  1 39  1  0
  1 40  1  0
  1 41  1  0
  3 42  1  6
  4 43  1  1
  5 44  1  0
  6 45  1  6
  7 46  1  0
  8 47  1  1
 11 48  1  0
 12 49  1  0
 16 50  1  0
 18 51  1  0
 20 52  1  0
 20 53  1  0
 20 54  1  0
 21 55  1  6
 22 56  1  0
 22 57  1  0
 23 58  1  0
 23 59  1  0
 24 60  1  1
 26 61  1  0
 26 62  1  0
 26 63  1  0
 27 64  1  0
 27 65  1  0
 27 66  1  0
 30 67  1  0
 31 68  1  0
 33 69  1  0
 33 70  1  0
 33 71  1  0
 34 72  1  0
 34 73  1  0
 36 74  1  1
 37 75  1  0
 37 76  1  0
 38 77  1  0
M  END
>  <meeko>  (9) 
{"is_sidechain": [false], "free_energy": -8.005, "intermolecular_energy": -10.316, "internal_energy": -0.789}

$$$$
