LIB_NUGUABFSSDNCNU__M_PUB_ALL__e8__s20260927
     RDKit          3D

 80 85  0  0  0  0  0  0  0  0999 V2000
    3.2590  -11.2990   -2.7370 C   0  0  0  0  0  0  0  0  0  0  0  0
    3.7950  -12.4670   -2.3360 C   0  0  0  0  0  0  0  0  0  0  0  0
    3.0350  -13.7250   -2.2710 C   0  0  0  0  0  0  0  0  0  0  0  0
    1.5000  -13.7030   -2.3530 C   0  0  1  0  0  0  0  0  0  0  0  0
    1.0450  -14.4280   -3.6310 C   0  0  0  0  0  0  0  0  0  0  0  0
    0.7590  -14.2590   -1.1020 C   0  0  1  0  0  0  0  0  0  0  0  0
    0.3450  -13.1530   -0.1310 C   0  0  0  0  0  0  0  0  0  0  0  0
   -0.5470  -13.7250    0.9230 C   0  0  0  0  0  0  0  0  0  0  0  0
   -1.2880  -14.8210    0.6980 C   0  0  0  0  0  0  0  0  0  0  0  0
   -2.1900  -15.4290    1.7260 C   0  0  0  0  0  0  0  0  0  0  0  0
   -1.3030  -15.4540   -0.6470 C   0  0  0  0  0  0  0  0  0  0  0  0
   -2.1000  -16.3390   -0.9320 O   0  0  0  0  0  0  0  0  0  0  0  0
   -0.4190  -14.9700   -1.5570 O   0  0  0  0  0  0  0  0  0  0  0  0
    3.6940  -14.8930   -2.1440 C   0  0  0  0  0  0  0  0  0  0  0  0
    5.1780  -15.0160   -2.0300 C   0  0  0  0  0  0  0  0  0  0  0  0
    5.8450  -13.7990   -1.3480 C   0  0  2  0  0  0  0  0  0  0  0  0
    5.5710  -13.8460    0.1690 C   0  0  0  0  0  0  0  0  0  0  0  0
    5.2640  -12.4740   -1.9270 C   0  0  1  0  0  0  0  0  0  0  0  0
    6.2340  -12.1240   -3.0630 C   0  0  0  0  0  0  0  0  0  0  0  0
    7.5990  -12.4350   -2.4450 C   0  0  2  0  0  0  0  0  0  0  0  0
    7.8860  -11.4140   -1.4870 O   0  0  0  0  0  0  0  0  0  0  0  0
    8.6830  -12.5140   -3.4760 C   0  0  1  0  0  0  0  0  0  0  0  0
    9.6990  -11.5150   -3.3820 O   0  0  0  0  0  0  0  0  0  0  0  0
   10.1310  -12.8750   -3.1300 C   0  0  2  0  0  0  0  0  0  0  0  0
   10.8620  -13.5950   -4.1970 C   0  0  0  0  0  0  0  0  0  0  0  0
   11.9960  -14.3060   -4.1760 C   0  0  0  0  0  0  0  0  0  0  0  0
   12.9120  -14.6750   -3.1090 C   0  0  0  0  0  0  0  0  0  0  0  0
   13.8240  -15.4580   -3.3630 O   0  0  0  0  0  0  0  0  0  0  0  0
   12.7600  -14.1780   -1.8720 O   0  0  0  0  0  0  0  0  0  0  0  0
   12.0720  -12.9700   -1.4670 C   0  0  0  0  0  0  0  0  0  0  0  0
   12.3970  -12.8480    0.0430 C   0  0  0  0  0  0  0  0  0  0  0  0
   12.7130  -11.7310   -2.1240 C   0  0  0  0  0  0  0  0  0  0  0  0
   10.5270  -13.0750   -1.6660 C   0  0  2  0  0  0  0  0  0  0  0  0
    9.8330  -14.3390   -1.0250 C   0  0  2  0  0  0  0  0  0  0  0  0
    9.8780  -15.4860   -1.9020 O   0  0  0  0  0  0  0  0  0  0  0  0
   10.2170  -16.6780   -1.3350 C   0  0  0  0  0  0  0  0  0  0  0  0
    9.0700  -17.6350   -1.4330 C   0  0  0  0  0  0  0  0  0  0  0  0
   11.2900  -16.9360   -0.8100 O   0  0  0  0  0  0  0  0  0  0  0  0
    8.3700  -14.0670   -0.5990 C   0  0  0  0  0  0  0  0  0  0  0  0
    7.3780  -13.7870   -1.7400 C   0  0  1  0  0  0  0  0  0  0  0  0
    3.8783  -10.3903   -2.7646 H   0  0  0  0  0  0  0  0  0  0  0  0
    2.2017  -11.2533   -3.0370 H   0  0  0  0  0  0  0  0  0  0  0  0
    1.2145  -12.6412   -2.3859 H   0  0  0  0  0  0  0  0  0  0  0  0
    0.4785  -15.3307   -3.3585 H   0  0  0  0  0  0  0  0  0  0  0  0
    0.4048  -13.7585   -4.2242 H   0  0  0  0  0  0  0  0  0  0  0  0
    1.9263  -14.7133   -4.2242 H   0  0  0  0  0  0  0  0  0  0  0  0
    1.4447  -14.9248   -0.5575 H   0  0  0  0  0  0  0  0  0  0  0  0
    1.2416  -12.7241    0.3403 H   0  0  0  0  0  0  0  0  0  0  0  0
   -0.1928  -12.3655   -0.6793 H   0  0  0  0  0  0  0  0  0  0  0  0
   -0.5973  -13.2358    1.9069 H   0  0  0  0  0  0  0  0  0  0  0  0
   -1.8203  -15.1798    2.7316 H   0  0  0  0  0  0  0  0  0  0  0  0
   -3.2083  -15.0323    1.6010 H   0  0  0  0  0  0  0  0  0  0  0  0
   -2.2043  -16.5218    1.6010 H   0  0  0  0  0  0  0  0  0  0  0  0
    3.0993  -15.8181   -2.1228 H   0  0  0  0  0  0  0  0  0  0  0  0
    5.4090  -15.9157   -1.4408 H   0  0  0  0  0  0  0  0  0  0  0  0
    5.5783  -15.0745   -3.0529 H   0  0  0  0  0  0  0  0  0  0  0  0
    6.5113  -13.6847    0.7166 H   0  0  0  0  0  0  0  0  0  0  0  0
    4.8513  -13.0582    0.4362 H   0  0  0  0  0  0  0  0  0  0  0  0
    5.1550  -14.8286    0.4362 H   0  0  0  0  0  0  0  0  0  0  0  0
    5.2123  -11.7092   -1.1380 H   0  0  0  0  0  0  0  0  0  0  0  0
    6.0483  -12.7477   -3.9498 H   0  0  0  0  0  0  0  0  0  0  0  0
    6.1394  -11.0860   -3.4145 H   0  0  0  0  0  0  0  0  0  0  0  0
    7.1570  -10.7670   -1.5470 H   0  0  0  0  0  0  0  0  0  0  0  0
    7.9743  -12.9064   -4.2202 H   0  0  0  0  0  0  0  0  0  0  0  0
   10.3869  -13.5348   -5.1873 H   0  0  0  0  0  0  0  0  0  0  0  0
   12.2945  -14.6874   -5.1636 H   0  0  0  0  0  0  0  0  0  0  0  0
   11.5277  -13.1743    0.6327 H   0  0  0  0  0  0  0  0  0  0  0  0
   13.2627  -13.4824    0.2842 H   0  0  0  0  0  0  0  0  0  0  0  0
   12.6314  -11.8007    0.2842 H   0  0  0  0  0  0  0  0  0  0  0  0
   13.0685  -11.0439   -1.3420 H   0  0  0  0  0  0  0  0  0  0  0  0
   13.5616  -12.0453   -2.7494 H   0  0  0  0  0  0  0  0  0  0  0  0
   11.9662  -11.2199   -2.7494 H   0  0  0  0  0  0  0  0  0  0  0  0
   10.1230  -12.2376   -1.0781 H   0  0  0  0  0  0  0  0  0  0  0  0
   10.4151  -14.5633   -0.1190 H   0  0  0  0  0  0  0  0  0  0  0  0
    8.7369  -17.9129   -0.4221 H   0  0  0  0  0  0  0  0  0  0  0  0
    8.2397  -17.1580   -1.9744 H   0  0  0  0  0  0  0  0  0  0  0  0
    9.3905  -18.5373   -1.9744 H   0  0  0  0  0  0  0  0  0  0  0  0
    8.0100  -14.9487   -0.0485 H   0  0  0  0  0  0  0  0  0  0  0  0
    8.4015  -13.1451    0.0002 H   0  0  0  0  0  0  0  0  0  0  0  0
    7.6012  -14.6389   -2.3991 H   0  0  0  0  0  0  0  0  0  0  0  0
  1  2  2  0
  2  3  1  0
  3  4  1  0
  4  5  1  0
  4  6  1  0
  6  7  1  0
  7  8  1  0
  8  9  2  0
  9 10  1  0
  9 11  1  0
 11 12  2  0
 11 13  1  0
  3 14  2  0
 14 15  1  0
 15 16  1  0
 16 17  1  1
 16 18  1  0
 18 19  1  0
 19 20  1  0
 20 21  1  1
 20 22  1  0
 22 23  1  0
 24 23  1  6
 24 25  1  0
 25 26  2  0
 26 27  1  0
 27 28  2  0
 27 29  1  0
 29 30  1  0
 30 31  1  0
 30 32  1  0
 30 33  1  0
 33 34  1  0
 34 35  1  0
 35 36  1  0
 36 37  1  0
 36 38  2  0
 34 39  1  0
 39 40  1  0
 18  2  1  0
 40 20  1  0
 13  6  1  0
 40 16  1  0
 24 22  1  0
 33 24  1  0
  1 41  1  0
  1 42  1  0
  4 43  1  6
  5 44  1  0
  5 45  1  0
  5 46  1  0
  6 47  1  1
  7 48  1  0
  7 49  1  0
  8 50  1  0
 10 51  1  0
 10 52  1  0
 10 53  1  0
 14 54  1  0
 15 55  1  0
 15 56  1  0
 17 57  1  0
 17 58  1  0
 17 59  1  0
 18 60  1  1
 19 61  1  0
 19 62  1  0
 21 63  1  0
 22 64  1  6
 25 65  1  0
 26 66  1  0
 31 67  1  0
 31 68  1  0
 31 69  1  0
 32 70  1  0
 32 71  1  0
 32 72  1  0
 33 73  1  1
 34 74  1  1
 37 75  1  0
 37 76  1  0
 37 77  1  0
 39 78  1  0
 39 79  1  0
 40 80  1  6
M  END
>  <meeko>  (1) 
{"is_sidechain": [false], "free_energy": -6.4, "intermolecular_energy": -11.077, "internal_energy": 0.853}

$$$$
LIB_NUGUABFSSDNCNU__M_PUB_ALL__e8__s20260927
     RDKit          3D

 80 85  0  0  0  0  0  0  0  0999 V2000
    3.4270  -14.7640   -4.2290 C   0  0  0  0  0  0  0  0  0  0  0  0
    3.0810  -13.7180   -3.4550 C   0  0  0  0  0  0  0  0  0  0  0  0
    3.3920  -12.3220   -3.7970 C   0  0  0  0  0  0  0  0  0  0  0  0
    4.4120  -12.0080   -4.9040 C   0  0  1  0  0  0  0  0  0  0  0  0
    3.9990  -10.7180   -5.6320 C   0  0  0  0  0  0  0  0  0  0  0  0
    5.8950  -11.9350   -4.4390 C   0  0  1  0  0  0  0  0  0  0  0  0
    6.0310  -11.4630   -2.9900 C   0  0  0  0  0  0  0  0  0  0  0  0
    7.4470  -11.6300   -2.5430 C   0  0  0  0  0  0  0  0  0  0  0  0
    8.2560  -12.5470   -3.0960 C   0  0  0  0  0  0  0  0  0  0  0  0
    9.6810  -12.7440   -2.6810 C   0  0  0  0  0  0  0  0  0  0  0  0
    7.7330  -13.4880   -4.1220 C   0  0  0  0  0  0  0  0  0  0  0  0
    8.3910  -14.4450   -4.5100 O   0  0  0  0  0  0  0  0  0  0  0  0
    6.4740  -13.2580   -4.5730 O   0  0  0  0  0  0  0  0  0  0  0  0
    2.7730  -11.3230   -3.1390 C   0  0  0  0  0  0  0  0  0  0  0  0
    1.7870  -11.5240   -2.0340 C   0  0  0  0  0  0  0  0  0  0  0  0
    2.0450  -12.8060   -1.2090 C   0  0  2  0  0  0  0  0  0  0  0  0
    3.2630  -12.5900   -0.2890 C   0  0  0  0  0  0  0  0  0  0  0  0
    2.3330  -14.0070   -2.1580 C   0  0  1  0  0  0  0  0  0  0  0  0
    0.9520  -14.6450   -2.3590 C   0  0  0  0  0  0  0  0  0  0  0  0
    0.3550  -14.6020   -0.9500 C   0  0  2  0  0  0  0  0  0  0  0  0
    1.0250  -15.5890   -0.1630 O   0  0  0  0  0  0  0  0  0  0  0  0
   -1.1230  -14.8400   -0.9540 C   0  0  1  0  0  0  0  0  0  0  0  0
   -1.5580  -16.0370   -0.3070 O   0  0  0  0  0  0  0  0  0  0  0  0
   -1.9720  -14.7980    0.3210 C   0  0  2  0  0  0  0  0  0  0  0  0
   -3.3640  -14.3360    0.1230 C   0  0  0  0  0  0  0  0  0  0  0  0
   -4.2870  -13.8950    0.9860 C   0  0  0  0  0  0  0  0  0  0  0  0
   -4.2800  -13.6820    2.4330 C   0  0  0  0  0  0  0  0  0  0  0  0
   -5.2620  -13.1720    2.9660 O   0  0  0  0  0  0  0  0  0  0  0  0
   -3.2150  -14.0450    3.1660 O   0  0  0  0  0  0  0  0  0  0  0  0
   -2.2080  -15.0380    2.8560 C   0  0  0  0  0  0  0  0  0  0  0  0
   -1.3740  -15.1380    4.1590 C   0  0  0  0  0  0  0  0  0  0  0  0
   -2.8510  -16.4290    2.6770 C   0  0  0  0  0  0  0  0  0  0  0  0
   -1.2880  -14.5990    1.6740 C   0  0  2  0  0  0  0  0  0  0  0  0
   -0.6330  -13.1570    1.7940 C   0  0  2  0  0  0  0  0  0  0  0  0
   -1.5130  -12.1180    1.3120 O   0  0  0  0  0  0  0  0  0  0  0  0
   -1.1960  -10.8380    1.6570 C   0  0  0  0  0  0  0  0  0  0  0  0
   -1.0030  -10.0090    0.4250 C   0  0  0  0  0  0  0  0  0  0  0  0
   -1.0720  -10.4190    2.7990 O   0  0  0  0  0  0  0  0  0  0  0  0
    0.7360  -13.0530    1.0800 C   0  0  0  0  0  0  0  0  0  0  0  0
    0.7080  -13.1870   -0.4520 C   0  0  1  0  0  0  0  0  0  0  0  0
    3.1662  -15.7870   -3.9199 H   0  0  0  0  0  0  0  0  0  0  0  0
    3.9704  -14.5956   -5.1704 H   0  0  0  0  0  0  0  0  0  0  0  0
    4.3853  -12.8667   -5.5910 H   0  0  0  0  0  0  0  0  0  0  0  0
    3.7508   -9.9428   -4.8921 H   0  0  0  0  0  0  0  0  0  0  0  0
    4.8308  -10.3704   -6.2623 H   0  0  0  0  0  0  0  0  0  0  0  0
    3.1200  -10.9181   -6.2623 H   0  0  0  0  0  0  0  0  0  0  0  0
    6.4203  -11.2001   -5.0668 H   0  0  0  0  0  0  0  0  0  0  0  0
    5.7475  -10.4024   -2.9216 H   0  0  0  0  0  0  0  0  0  0  0  0
    5.3700  -12.0613   -2.3457 H   0  0  0  0  0  0  0  0  0  0  0  0
    7.8359  -10.9855   -1.7409 H   0  0  0  0  0  0  0  0  0  0  0  0
    9.7452  -12.7529   -1.5829 H   0  0  0  0  0  0  0  0  0  0  0  0
   10.0494  -13.7016   -3.0776 H   0  0  0  0  0  0  0  0  0  0  0  0
   10.2954  -11.9222   -3.0776 H   0  0  0  0  0  0  0  0  0  0  0  0
    3.0090  -10.2901   -3.4347 H   0  0  0  0  0  0  0  0  0  0  0  0
    1.8388  -10.6577   -1.3581 H   0  0  0  0  0  0  0  0  0  0  0  0
    0.7952  -11.6295   -2.4979 H   0  0  0  0  0  0  0  0  0  0  0  0
    2.9433  -12.6467    0.7620 H   0  0  0  0  0  0  0  0  0  0  0  0
    4.0142  -13.3689   -0.4863 H   0  0  0  0  0  0  0  0  0  0  0  0
    3.7006  -11.6002   -0.4863 H   0  0  0  0  0  0  0  0  0  0  0  0
    3.0692  -14.6818   -1.6969 H   0  0  0  0  0  0  0  0  0  0  0  0
    0.3440  -14.0611   -3.0657 H   0  0  0  0  0  0  0  0  0  0  0  0
    0.9964  -15.6585   -2.7842 H   0  0  0  0  0  0  0  0  0  0  0  0
    1.3710  -16.2530   -0.7890 H   0  0  0  0  0  0  0  0  0  0  0  0
   -1.2207  -14.3453   -1.9316 H   0  0  0  0  0  0  0  0  0  0  0  0
   -3.7013  -14.3593   -0.9237 H   0  0  0  0  0  0  0  0  0  0  0  0
   -5.2458  -13.6411    0.5104 H   0  0  0  0  0  0  0  0  0  0  0  0
   -2.0422  -15.0579    5.0291 H   0  0  0  0  0  0  0  0  0  0  0  0
   -0.8509  -16.1053    4.1862 H   0  0  0  0  0  0  0  0  0  0  0  0
   -0.6371  -14.3218    4.1862 H   0  0  0  0  0  0  0  0  0  0  0  0
   -3.0543  -16.8688    3.6645 H   0  0  0  0  0  0  0  0  0  0  0  0
   -3.7938  -16.3281    2.1194 H   0  0  0  0  0  0  0  0  0  0  0  0
   -2.1633  -17.0818    2.1194 H   0  0  0  0  0  0  0  0  0  0  0  0
   -0.4288  -15.2822    1.7456 H   0  0  0  0  0  0  0  0  0  0  0  0
   -0.4636  -13.0070    2.8705 H   0  0  0  0  0  0  0  0  0  0  0  0
   -0.7623   -8.9750    0.7128 H   0  0  0  0  0  0  0  0  0  0  0  0
   -0.1777  -10.4252   -0.1714 H   0  0  0  0  0  0  0  0  0  0  0  0
   -1.9272  -10.0179   -0.1714 H   0  0  0  0  0  0  0  0  0  0  0  0
    1.1696  -12.0721    1.3244 H   0  0  0  0  0  0  0  0  0  0  0  0
    1.3257  -13.9080    1.4423 H   0  0  0  0  0  0  0  0  0  0  0  0
   -0.0773  -12.4555   -0.6932 H   0  0  0  0  0  0  0  0  0  0  0  0
  1  2  2  0
  2  3  1  0
  3  4  1  0
  4  5  1  0
  4  6  1  0
  6  7  1  0
  7  8  1  0
  8  9  2  0
  9 10  1  0
  9 11  1  0
 11 12  2  0
 11 13  1  0
  3 14  2  0
 14 15  1  0
 15 16  1  0
 16 17  1  1
 16 18  1  0
 18 19  1  0
 19 20  1  0
 20 21  1  1
 20 22  1  0
 22 23  1  0
 24 23  1  1
 24 25  1  0
 25 26  2  0
 26 27  1  0
 27 28  2  0
 27 29  1  0
 29 30  1  0
 30 31  1  0
 30 32  1  0
 30 33  1  0
 33 34  1  0
 34 35  1  0
 35 36  1  0
 36 37  1  0
 36 38  2  0
 34 39  1  0
 39 40  1  0
 18  2  1  0
 40 20  1  0
 13  6  1  0
 40 16  1  0
 24 22  1  0
 33 24  1  0
  1 41  1  0
  1 42  1  0
  4 43  1  6
  5 44  1  0
  5 45  1  0
  5 46  1  0
  6 47  1  6
  7 48  1  0
  7 49  1  0
  8 50  1  0
 10 51  1  0
 10 52  1  0
 10 53  1  0
 14 54  1  0
 15 55  1  0
 15 56  1  0
 17 57  1  0
 17 58  1  0
 17 59  1  0
 18 60  1  1
 19 61  1  0
 19 62  1  0
 21 63  1  0
 22 64  1  6
 25 65  1  0
 26 66  1  0
 31 67  1  0
 31 68  1  0
 31 69  1  0
 32 70  1  0
 32 71  1  0
 32 72  1  0
 33 73  1  6
 34 74  1  1
 37 75  1  0
 37 76  1  0
 37 77  1  0
 39 78  1  0
 39 79  1  0
 40 80  1  6
M  END
>  <meeko>  (2) 
{"is_sidechain": [false], "free_energy": -6.034, "intermolecular_energy": -10.46, "internal_energy": 0.869}

$$$$
LIB_NUGUABFSSDNCNU__M_PUB_ALL__e8__s20260927
     RDKit          3D

 80 85  0  0  0  0  0  0  0  0999 V2000
    1.4730  -11.0470   -1.3660 C   0  0  0  0  0  0  0  0  0  0  0  0
    2.0270  -12.2310   -1.0430 C   0  0  0  0  0  0  0  0  0  0  0  0
    3.4200  -12.5840   -1.3570 C   0  0  0  0  0  0  0  0  0  0  0  0
    4.2230  -11.7370   -2.3580 C   0  0  1  0  0  0  0  0  0  0  0  0
    5.6240  -11.4600   -1.7880 C   0  0  0  0  0  0  0  0  0  0  0  0
    4.3130  -12.3180   -3.7990 C   0  0  1  0  0  0  0  0  0  0  0  0
    3.8790  -11.3090   -4.8630 C   0  0  0  0  0  0  0  0  0  0  0  0
    4.2000  -11.8480   -6.2200 C   0  0  0  0  0  0  0  0  0  0  0  0
    5.1880  -12.7360   -6.4090 C   0  0  0  0  0  0  0  0  0  0  0  0
    5.5390  -13.3050   -7.7480 C   0  0  0  0  0  0  0  0  0  0  0  0
    6.0540  -13.1480   -5.2720 C   0  0  0  0  0  0  0  0  0  0  0  0
    7.0680  -13.8120   -5.4450 O   0  0  0  0  0  0  0  0  0  0  0  0
    5.6860  -12.7150   -4.0390 O   0  0  0  0  0  0  0  0  0  0  0  0
    3.9870  -13.6500   -0.7590 C   0  0  0  0  0  0  0  0  0  0  0  0
    3.2840  -14.5480    0.2060 C   0  0  0  0  0  0  0  0  0  0  0  0
    1.7640  -14.6620   -0.0580 C   0  0  2  0  0  0  0  0  0  0  0  0
    1.5230  -15.5500   -1.2960 C   0  0  0  0  0  0  0  0  0  0  0  0
    1.1560  -13.2520   -0.3180 C   0  0  1  0  0  0  0  0  0  0  0  0
    0.6860  -12.8020    1.0710 C   0  0  0  0  0  0  0  0  0  0  0  0
    0.0560  -14.0750    1.6400 C   0  0  2  0  0  0  0  0  0  0  0  0
   -1.1850  -14.2880    0.9620 O   0  0  0  0  0  0  0  0  0  0  0  0
   -0.1560  -13.9910    3.1190 C   0  0  1  0  0  0  0  0  0  0  0  0
   -1.5180  -14.0080    3.5510 O   0  0  0  0  0  0  0  0  0  0  0  0
   -0.7210  -15.1520    3.9440 C   0  0  2  0  0  0  0  0  0  0  0  0
   -0.2230  -15.2240    5.3360 C   0  0  0  0  0  0  0  0  0  0  0  0
   -0.2710  -16.2000    6.2500 C   0  0  0  0  0  0  0  0  0  0  0  0
   -0.7820  -17.5560    6.2310 C   0  0  0  0  0  0  0  0  0  0  0  0
   -0.6250  -18.2710    7.2180 O   0  0  0  0  0  0  0  0  0  0  0  0
   -1.4090  -18.0240    5.1400 O   0  0  0  0  0  0  0  0  0  0  0  0
   -2.1310  -17.2780    4.1300 C   0  0  0  0  0  0  0  0  0  0  0  0
   -2.8120  -18.3770    3.2760 C   0  0  0  0  0  0  0  0  0  0  0  0
   -3.2880  -16.4790    4.7650 C   0  0  0  0  0  0  0  0  0  0  0  0
   -1.1800  -16.4260    3.2320 C   0  0  2  0  0  0  0  0  0  0  0  0
    0.0280  -17.1970    2.5630 C   0  0  2  0  0  0  0  0  0  0  0  0
    1.1680  -17.2730    3.4470 O   0  0  0  0  0  0  0  0  0  0  0  0
    1.7940  -18.4800    3.5380 C   0  0  0  0  0  0  0  0  0  0  0  0
    2.9670  -18.5180    2.6070 C   0  0  0  0  0  0  0  0  0  0  0  0
    1.4520  -19.4070    4.2570 O   0  0  0  0  0  0  0  0  0  0  0  0
    0.4600  -16.5890    1.2080 C   0  0  0  0  0  0  0  0  0  0  0  0
    1.0670  -15.1770    1.2660 C   0  0  1  0  0  0  0  0  0  0  0  0
    0.4247  -10.8406   -1.1043 H   0  0  0  0  0  0  0  0  0  0  0  0
    2.0687  -10.2862   -1.8916 H   0  0  0  0  0  0  0  0  0  0  0  0
    3.6602  -10.7996   -2.4787 H   0  0  0  0  0  0  0  0  0  0  0  0
    5.5809  -11.4685   -0.6889 H   0  0  0  0  0  0  0  0  0  0  0  0
    6.3209  -12.2378   -2.1337 H   0  0  0  0  0  0  0  0  0  0  0  0
    5.9724  -10.4756   -2.1337 H   0  0  0  0  0  0  0  0  0  0  0  0
    3.6285  -13.1759   -3.8719 H   0  0  0  0  0  0  0  0  0  0  0  0
    2.7956  -11.1357   -4.7840 H   0  0  0  0  0  0  0  0  0  0  0  0
    4.4139  -10.3602   -4.7090 H   0  0  0  0  0  0  0  0  0  0  0  0
    3.6116  -11.5082   -7.0850 H   0  0  0  0  0  0  0  0  0  0  0  0
    6.1121  -14.2341   -7.6128 H   0  0  0  0  0  0  0  0  0  0  0  0
    4.6170  -13.5211   -8.3077 H   0  0  0  0  0  0  0  0  0  0  0  0
    6.1458  -12.5780   -8.3077 H   0  0  0  0  0  0  0  0  0  0  0  0
    5.0373  -13.8739   -0.9972 H   0  0  0  0  0  0  0  0  0  0  0  0
    3.7269  -15.5523    0.1341 H   0  0  0  0  0  0  0  0  0  0  0  0
    3.4082  -14.1101    1.2074 H   0  0  0  0  0  0  0  0  0  0  0  0
    1.2477  -16.5644   -0.9716 H   0  0  0  0  0  0  0  0  0  0  0  0
    0.7079  -15.1242   -1.8996 H   0  0  0  0  0  0  0  0  0  0  0  0
    2.4415  -15.5947   -1.8996 H   0  0  0  0  0  0  0  0  0  0  0  0
    0.3448  -13.3230   -1.0576 H   0  0  0  0  0  0  0  0  0  0  0  0
    1.5334  -12.4685    1.6880 H   0  0  0  0  0  0  0  0  0  0  0  0
   -0.0056  -11.9470    1.0427 H   0  0  0  0  0  0  0  0  0  0  0  0
   -1.0610  -15.0780    0.4020 H   0  0  0  0  0  0  0  0  0  0  0  0
    0.7406  -13.3637    3.2311 H   0  0  0  0  0  0  0  0  0  0  0  0
    0.2780  -14.3080    5.6823 H   0  0  0  0  0  0  0  0  0  0  0  0
    0.1688  -15.9136    7.2167 H   0  0  0  0  0  0  0  0  0  0  0  0
   -3.2742  -19.1229    3.9393 H   0  0  0  0  0  0  0  0  0  0  0  0
   -3.5861  -17.9211    2.6412 H   0  0  0  0  0  0  0  0  0  0  0  0
   -2.0592  -18.8672    2.6412 H   0  0  0  0  0  0  0  0  0  0  0  0
   -3.2117  -16.5317    5.8611 H   0  0  0  0  0  0  0  0  0  0  0  0
   -3.2282  -15.4288    4.4433 H   0  0  0  0  0  0  0  0  0  0  0  0
   -4.2490  -16.9069    4.4433 H   0  0  0  0  0  0  0  0  0  0  0  0
   -1.8108  -16.1477    2.3749 H   0  0  0  0  0  0  0  0  0  0  0  0
   -0.3458  -18.2130    2.3680 H   0  0  0  0  0  0  0  0  0  0  0  0
    3.8983  -18.5482    3.1916 H   0  0  0  0  0  0  0  0  0  0  0  0
    2.9029  -19.4145    1.9729 H   0  0  0  0  0  0  0  0  0  0  0  0
    2.9611  -17.6192    1.9729 H   0  0  0  0  0  0  0  0  0  0  0  0
    1.2093  -17.2594    0.7618 H   0  0  0  0  0  0  0  0  0  0  0  0
   -0.4637  -16.4910    0.6188 H   0  0  0  0  0  0  0  0  0  0  0  0
    1.8238  -15.3287    2.0498 H   0  0  0  0  0  0  0  0  0  0  0  0
  1  2  2  0
  2  3  1  0
  3  4  1  0
  4  5  1  0
  4  6  1  0
  6  7  1  0
  7  8  1  0
  8  9  2  0
  9 10  1  0
  9 11  1  0
 11 12  2  0
 11 13  1  0
  3 14  2  0
 14 15  1  0
 15 16  1  0
 16 17  1  6
 16 18  1  0
 18 19  1  0
 19 20  1  0
 20 21  1  6
 20 22  1  0
 22 23  1  0
 24 23  1  1
 24 25  1  0
 25 26  2  0
 26 27  1  0
 27 28  2  0
 27 29  1  0
 29 30  1  0
 30 31  1  0
 30 32  1  0
 30 33  1  0
 33 34  1  0
 34 35  1  0
 35 36  1  0
 36 37  1  0
 36 38  2  0
 34 39  1  0
 39 40  1  0
 18  2  1  0
 40 20  1  0
 13  6  1  0
 40 16  1  0
 24 22  1  0
 33 24  1  0
  1 41  1  0
  1 42  1  0
  4 43  1  6
  5 44  1  0
  5 45  1  0
  5 46  1  0
  6 47  1  1
  7 48  1  0
  7 49  1  0
  8 50  1  0
 10 51  1  0
 10 52  1  0
 10 53  1  0
 14 54  1  0
 15 55  1  0
 15 56  1  0
 17 57  1  0
 17 58  1  0
 17 59  1  0
 18 60  1  6
 19 61  1  0
 19 62  1  0
 21 63  1  0
 22 64  1  1
 25 65  1  0
 26 66  1  0
 31 67  1  0
 31 68  1  0
 31 69  1  0
 32 70  1  0
 32 71  1  0
 32 72  1  0
 33 73  1  6
 34 74  1  6
 37 75  1  0
 37 76  1  0
 37 77  1  0
 39 78  1  0
 39 79  1  0
 40 80  1  1
M  END
>  <meeko>  (3) 
{"is_sidechain": [false], "free_energy": -5.994, "intermolecular_energy": -10.426, "internal_energy": 0.905}

$$$$
LIB_NUGUABFSSDNCNU__M_PUB_ALL__e8__s20260927
     RDKit          3D

 80 85  0  0  0  0  0  0  0  0999 V2000
    8.1930  -17.0210   -1.5630 C   0  0  0  0  0  0  0  0  0  0  0  0
    7.5820  -15.8220   -1.6040 C   0  0  0  0  0  0  0  0  0  0  0  0
    8.0560  -14.7010   -2.4310 C   0  0  0  0  0  0  0  0  0  0  0  0
    9.4630  -14.7400   -3.0480 C   0  0  1  0  0  0  0  0  0  0  0  0
    9.4030  -14.2270   -4.4960 C   0  0  0  0  0  0  0  0  0  0  0  0
   10.5650  -13.9960   -2.2390 C   0  0  1  0  0  0  0  0  0  0  0  0
   11.2280  -12.8790   -3.0460 C   0  0  0  0  0  0  0  0  0  0  0  0
   12.1060  -12.0690   -2.1470 C   0  0  0  0  0  0  0  0  0  0  0  0
   11.8760  -11.9860   -0.8280 C   0  0  0  0  0  0  0  0  0  0  0  0
   12.7330  -11.1910    0.1080 C   0  0  0  0  0  0  0  0  0  0  0  0
   10.6790  -12.6360   -0.2320 C   0  0  0  0  0  0  0  0  0  0  0  0
   10.3460  -12.4290    0.9280 O   0  0  0  0  0  0  0  0  0  0  0  0
    9.9500  -13.4360   -1.0510 O   0  0  0  0  0  0  0  0  0  0  0  0
    7.2470  -13.6450   -2.6460 C   0  0  0  0  0  0  0  0  0  0  0  0
    5.8750  -13.5030   -2.0710 C   0  0  0  0  0  0  0  0  0  0  0  0
    5.7090  -14.2010   -0.7010 C   0  0  2  0  0  0  0  0  0  0  0  0
    6.4180  -13.3710    0.3890 C   0  0  0  0  0  0  0  0  0  0  0  0
    6.3380  -15.6250   -0.7440 C   0  0  1  0  0  0  0  0  0  0  0  0
    5.1590  -16.5270   -1.1300 C   0  0  0  0  0  0  0  0  0  0  0  0
    4.0140  -15.9620   -0.2850 C   0  0  2  0  0  0  0  0  0  0  0  0
    4.2460  -16.3430    1.0730 O   0  0  0  0  0  0  0  0  0  0  0  0
    2.6750  -16.4430   -0.7500 C   0  0  1  0  0  0  0  0  0  0  0  0
    1.9680  -17.2820    0.1650 O   0  0  0  0  0  0  0  0  0  0  0  0
    1.3620  -15.9930   -0.1020 C   0  0  2  0  0  0  0  0  0  0  0  0
    0.2050  -15.9320   -1.0230 C   0  0  0  0  0  0  0  0  0  0  0  0
   -0.9790  -15.3150   -0.9260 C   0  0  0  0  0  0  0  0  0  0  0  0
   -1.5500  -14.4360    0.0950 C   0  0  0  0  0  0  0  0  0  0  0  0
   -2.5980  -13.8500   -0.1650 O   0  0  0  0  0  0  0  0  0  0  0  0
   -0.9550  -14.2760    1.2880 O   0  0  0  0  0  0  0  0  0  0  0  0
    0.0490  -15.1130    1.9100 C   0  0  0  0  0  0  0  0  0  0  0  0
    0.2420  -14.4810    3.3110 C   0  0  0  0  0  0  0  0  0  0  0  0
   -0.5060  -16.5270    2.1720 C   0  0  0  0  0  0  0  0  0  0  0  0
    1.4030  -15.0890    1.1310 C   0  0  2  0  0  0  0  0  0  0  0  0
    1.9890  -13.6540    0.7760 C   0  0  2  0  0  0  0  0  0  0  0  0
    1.4260  -13.1400   -0.4510 O   0  0  0  0  0  0  0  0  0  0  0  0
    1.5480  -11.8000   -0.6670 C   0  0  0  0  0  0  0  0  0  0  0  0
    2.1460  -11.5520   -2.0180 C   0  0  0  0  0  0  0  0  0  0  0  0
    1.2330  -10.9200    0.1220 O   0  0  0  0  0  0  0  0  0  0  0  0
    3.5340  -13.6210    0.6940 C   0  0  0  0  0  0  0  0  0  0  0  0
    4.1650  -14.4360   -0.4470 C   0  0  1  0  0  0  0  0  0  0  0  0
    7.7911  -17.8216   -0.9246 H   0  0  0  0  0  0  0  0  0  0  0  0
    9.0941  -17.2001   -2.1679 H   0  0  0  0  0  0  0  0  0  0  0  0
    9.7737  -15.7949   -3.0220 H   0  0  0  0  0  0  0  0  0  0  0  0
    9.2752  -13.1345   -4.4929 H   0  0  0  0  0  0  0  0  0  0  0  0
   10.3375  -14.4854   -5.0156 H   0  0  0  0  0  0  0  0  0  0  0  0
    8.5534  -14.6941   -5.0156 H   0  0  0  0  0  0  0  0  0  0  0  0
   11.3543  -14.7175   -1.9810 H   0  0  0  0  0  0  0  0  0  0  0  0
   11.8342  -13.3188   -3.8517 H   0  0  0  0  0  0  0  0  0  0  0  0
   10.4528  -12.2318   -3.4822 H   0  0  0  0  0  0  0  0  0  0  0  0
   12.9614  -11.5279   -2.5776 H   0  0  0  0  0  0  0  0  0  0  0  0
   12.4676  -11.4372    1.1467 H   0  0  0  0  0  0  0  0  0  0  0  0
   13.7913  -11.4344   -0.0676 H   0  0  0  0  0  0  0  0  0  0  0  0
   12.5696  -10.1175   -0.0676 H   0  0  0  0  0  0  0  0  0  0  0  0
    7.6214  -12.8336   -3.2874 H   0  0  0  0  0  0  0  0  0  0  0  0
    5.6586  -12.4319   -1.9453 H   0  0  0  0  0  0  0  0  0  0  0  0
    5.1778  -13.9883   -2.7698 H   0  0  0  0  0  0  0  0  0  0  0  0
    6.1106  -13.7309    1.3820 H   0  0  0  0  0  0  0  0  0  0  0  0
    7.5074  -13.4785    0.2811 H   0  0  0  0  0  0  0  0  0  0  0  0
    6.1416  -12.3118    0.2811 H   0  0  0  0  0  0  0  0  0  0  0  0
    6.7805  -15.8694    0.2330 H   0  0  0  0  0  0  0  0  0  0  0  0
    4.9352  -16.4496   -2.2042 H   0  0  0  0  0  0  0  0  0  0  0  0
    5.3490  -17.5954   -0.9501 H   0  0  0  0  0  0  0  0  0  0  0  0
    4.0400  -17.2960    1.1300 H   0  0  0  0  0  0  0  0  0  0  0  0
    3.0224  -16.4641   -1.7935 H   0  0  0  0  0  0  0  0  0  0  0  0
    0.3432  -16.4963   -1.9571 H   0  0  0  0  0  0  0  0  0  0  0  0
   -1.6509  -15.5050   -1.7760 H   0  0  0  0  0  0  0  0  0  0  0  0
    0.0137  -15.2285    4.0850 H   0  0  0  0  0  0  0  0  0  0  0  0
    1.2836  -14.1452    3.4214 H   0  0  0  0  0  0  0  0  0  0  0  0
   -0.4343  -13.6205    3.4214 H   0  0  0  0  0  0  0  0  0  0  0  0
   -0.5736  -16.6993    3.2563 H   0  0  0  0  0  0  0  0  0  0  0  0
   -1.5063  -16.6172    1.7233 H   0  0  0  0  0  0  0  0  0  0  0  0
    0.1658  -17.2735    1.7233 H   0  0  0  0  0  0  0  0  0  0  0  0
    2.1221  -15.4944    1.8580 H   0  0  0  0  0  0  0  0  0  0  0  0
    1.6927  -13.0059    1.6140 H   0  0  0  0  0  0  0  0  0  0  0  0
    3.1563  -11.1330   -1.9005 H   0  0  0  0  0  0  0  0  0  0  0  0
    2.2045  -12.5001   -2.5727 H   0  0  0  0  0  0  0  0  0  0  0  0
    1.5163  -10.8408   -2.5727 H   0  0  0  0  0  0  0  0  0  0  0  0
    3.8423  -12.5725    0.5693 H   0  0  0  0  0  0  0  0  0  0  0  0
    3.8908  -14.0869    1.6244 H   0  0  0  0  0  0  0  0  0  0  0  0
    3.5852  -14.0502   -1.2985 H   0  0  0  0  0  0  0  0  0  0  0  0
  1  2  2  0
  2  3  1  0
  3  4  1  0
  4  5  1  0
  4  6  1  0
  6  7  1  0
  7  8  1  0
  8  9  2  0
  9 10  1  0
  9 11  1  0
 11 12  2  0
 11 13  1  0
  3 14  2  0
 14 15  1  0
 15 16  1  0
 16 17  1  1
 16 18  1  0
 18 19  1  0
 19 20  1  0
 20 21  1  1
 20 22  1  0
 22 23  1  0
 24 23  1  1
 24 25  1  0
 25 26  2  0
 26 27  1  0
 27 28  2  0
 27 29  1  0
 29 30  1  0
 30 31  1  0
 30 32  1  0
 30 33  1  0
 33 34  1  0
 34 35  1  0
 35 36  1  0
 36 37  1  0
 36 38  2  0
 34 39  1  0
 39 40  1  0
 18  2  1  0
 40 20  1  0
 13  6  1  0
 40 16  1  0
 24 22  1  0
 33 24  1  0
  1 41  1  0
  1 42  1  0
  4 43  1  6
  5 44  1  0
  5 45  1  0
  5 46  1  0
  6 47  1  1
  7 48  1  0
  7 49  1  0
  8 50  1  0
 10 51  1  0
 10 52  1  0
 10 53  1  0
 14 54  1  0
 15 55  1  0
 15 56  1  0
 17 57  1  0
 17 58  1  0
 17 59  1  0
 18 60  1  1
 19 61  1  0
 19 62  1  0
 21 63  1  0
 22 64  1  6
 25 65  1  0
 26 66  1  0
 31 67  1  0
 31 68  1  0
 31 69  1  0
 32 70  1  0
 32 71  1  0
 32 72  1  0
 33 73  1  1
 34 74  1  1
 37 75  1  0
 37 76  1  0
 37 77  1  0
 39 78  1  0
 39 79  1  0
 40 80  1  6
M  END
>  <meeko>  (4) 
{"is_sidechain": [false], "free_energy": -5.686, "intermolecular_energy": -10.051, "internal_energy": 1.062}

$$$$
LIB_NUGUABFSSDNCNU__M_PUB_ALL__e8__s20260927
     RDKit          3D

 80 85  0  0  0  0  0  0  0  0999 V2000
    6.3850  -16.1850   -2.0870 C   0  0  0  0  0  0  0  0  0  0  0  0
    5.7550  -15.0700   -1.6700 C   0  0  0  0  0  0  0  0  0  0  0  0
    6.0890  -13.7230   -2.1570 C   0  0  0  0  0  0  0  0  0  0  0  0
    7.3950  -13.4860   -2.9330 C   0  0  1  0  0  0  0  0  0  0  0  0
    7.2850  -12.1790   -3.7360 C   0  0  0  0  0  0  0  0  0  0  0  0
    8.6920  -13.5040   -2.0730 C   0  0  1  0  0  0  0  0  0  0  0  0
    9.8710  -12.8340   -2.7800 C   0  0  0  0  0  0  0  0  0  0  0  0
   11.0080  -12.6870   -1.8220 C   0  0  0  0  0  0  0  0  0  0  0  0
   10.8070  -12.6120   -0.4970 C   0  0  0  0  0  0  0  0  0  0  0  0
   11.9170  -12.4700    0.4980 C   0  0  0  0  0  0  0  0  0  0  0  0
    9.4250  -12.5890    0.0520 C   0  0  0  0  0  0  0  0  0  0  0  0
    9.2060  -12.3400    1.2310 O   0  0  0  0  0  0  0  0  0  0  0  0
    8.4170  -12.8120   -0.8290 O   0  0  0  0  0  0  0  0  0  0  0  0
    5.2410  -12.7030   -1.9230 C   0  0  0  0  0  0  0  0  0  0  0  0
    3.9630  -12.8270   -1.1600 C   0  0  0  0  0  0  0  0  0  0  0  0
    4.0040  -13.9210   -0.0680 C   0  0  2  0  0  0  0  0  0  0  0  0
    4.8480  -13.4280    1.1250 C   0  0  0  0  0  0  0  0  0  0  0  0
    4.6430  -15.2230   -0.6370 C   0  0  1  0  0  0  0  0  0  0  0  0
    3.4360  -16.0300   -1.1300 C   0  0  0  0  0  0  0  0  0  0  0  0
    2.4140  -15.8220   -0.0090 C   0  0  2  0  0  0  0  0  0  0  0  0
    2.8420  -16.5900    1.1180 O   0  0  0  0  0  0  0  0  0  0  0  0
    1.0300  -16.2160   -0.4240 C   0  0  1  0  0  0  0  0  0  0  0  0
    0.4650  -17.3220    0.2810 O   0  0  0  0  0  0  0  0  0  0  0  0
   -0.1880  -16.0460    0.4900 C   0  0  2  0  0  0  0  0  0  0  0  0
   -1.4600  -15.7780   -0.2180 C   0  0  0  0  0  0  0  0  0  0  0  0
   -2.6230  -15.2670    0.2030 C   0  0  0  0  0  0  0  0  0  0  0  0
   -3.0440  -14.7440    1.4950 C   0  0  0  0  0  0  0  0  0  0  0  0
   -4.0980  -14.1150    1.5360 O   0  0  0  0  0  0  0  0  0  0  0  0
   -2.3150  -14.9320    2.6070 O   0  0  0  0  0  0  0  0  0  0  0  0
   -1.2270  -15.8620    2.8200 C   0  0  0  0  0  0  0  0  0  0  0  0
   -0.8540  -15.6600    4.3100 C   0  0  0  0  0  0  0  0  0  0  0  0
   -1.7250  -17.3180    2.7180 C   0  0  0  0  0  0  0  0  0  0  0  0
    0.0090  -15.5420    1.9200 C   0  0  2  0  0  0  0  0  0  0  0  0
    0.5190  -14.0460    1.9650 C   0  0  2  0  0  0  0  0  0  0  0  0
   -0.1950  -13.1900    1.0460 O   0  0  0  0  0  0  0  0  0  0  0  0
   -0.3820  -11.8960    1.4320 C   0  0  0  0  0  0  0  0  0  0  0  0
   -0.9210  -11.8510    2.8280 C   0  0  0  0  0  0  0  0  0  0  0  0
   -0.1590  -10.9100    0.7440 O   0  0  0  0  0  0  0  0  0  0  0  0
    2.0400  -13.9310    1.7080 C   0  0  0  0  0  0  0  0  0  0  0  0
    2.5160  -14.3150    0.2970 C   0  0  1  0  0  0  0  0  0  0  0  0
    6.0903  -17.1659   -1.6858 H   0  0  0  0  0  0  0  0  0  0  0  0
    7.1942  -16.1147   -2.8288 H   0  0  0  0  0  0  0  0  0  0  0  0
    7.5053  -14.3480   -3.6073 H   0  0  0  0  0  0  0  0  0  0  0  0
    7.2134  -11.3278   -3.0430 H   0  0  0  0  0  0  0  0  0  0  0  0
    8.1765  -12.0619   -4.3697 H   0  0  0  0  0  0  0  0  0  0  0  0
    6.3865  -12.2125   -4.3697 H   0  0  0  0  0  0  0  0  0  0  0  0
    8.9769  -14.5516   -1.8957 H   0  0  0  0  0  0  0  0  0  0  0  0
   10.1874  -13.4532   -3.6323 H   0  0  0  0  0  0  0  0  0  0  0  0
    9.5655  -11.8411   -3.1416 H   0  0  0  0  0  0  0  0  0  0  0  0
   12.0353  -12.6390   -2.2122 H   0  0  0  0  0  0  0  0  0  0  0  0
   11.5052  -12.5227    1.5167 H   0  0  0  0  0  0  0  0  0  0  0  0
   12.6445  -13.2824    0.3541 H   0  0  0  0  0  0  0  0  0  0  0  0
   12.4166  -11.5006    0.3541 H   0  0  0  0  0  0  0  0  0  0  0  0
    5.5075  -11.7125   -2.3204 H   0  0  0  0  0  0  0  0  0  0  0  0
    3.7492  -11.8614   -0.6785 H   0  0  0  0  0  0  0  0  0  0  0  0
    3.1819  -13.1147   -1.8791 H   0  0  0  0  0  0  0  0  0  0  0  0
    4.3559  -13.7154    2.0659 H   0  0  0  0  0  0  0  0  0  0  0  0
    5.8480  -13.8840    1.0800 H   0  0  0  0  0  0  0  0  0  0  0  0
    4.9420  -12.3329    1.0800 H   0  0  0  0  0  0  0  0  0  0  0  0
    5.2232  -15.7305    0.1477 H   0  0  0  0  0  0  0  0  0  0  0  0
    3.0608  -15.6384   -2.0870 H   0  0  0  0  0  0  0  0  0  0  0  0
    3.6662  -17.0886   -1.3209 H   0  0  0  0  0  0  0  0  0  0  0  0
    3.7310  -16.9280    0.8990 H   0  0  0  0  0  0  0  0  0  0  0  0
    1.2322  -15.9121   -1.4617 H   0  0  0  0  0  0  0  0  0  0  0  0
   -1.4469  -16.0480   -1.2843 H   0  0  0  0  0  0  0  0  0  0  0  0
   -3.4053  -15.2365   -0.5697 H   0  0  0  0  0  0  0  0  0  0  0  0
   -1.6428  -16.0872    4.9466 H   0  0  0  0  0  0  0  0  0  0  0  0
    0.1005  -16.1645    4.5207 H   0  0  0  0  0  0  0  0  0  0  0  0
   -0.7549  -14.5849    4.5207 H   0  0  0  0  0  0  0  0  0  0  0  0
   -1.8656  -17.7291    3.7286 H   0  0  0  0  0  0  0  0  0  0  0  0
   -2.6821  -17.3411    2.1763 H   0  0  0  0  0  0  0  0  0  0  0  0
   -0.9825  -17.9224    2.1763 H   0  0  0  0  0  0  0  0  0  0  0  0
    0.8333  -16.1098    2.3761 H   0  0  0  0  0  0  0  0  0  0  0  0
    0.3137  -13.7017    2.9893 H   0  0  0  0  0  0  0  0  0  0  0  0
   -0.0893  -11.9204    3.5446 H   0  0  0  0  0  0  0  0  0  0  0  0
   -1.4601  -10.9047    2.9826 H   0  0  0  0  0  0  0  0  0  0  0  0
   -1.6096  -12.6948    2.9826 H   0  0  0  0  0  0  0  0  0  0  0  0
    2.3341  -12.8868    1.8899 H   0  0  0  0  0  0  0  0  0  0  0  0
    2.5114  -14.6562    2.3877 H   0  0  0  0  0  0  0  0  0  0  0  0
    1.8156  -13.7210   -0.3084 H   0  0  0  0  0  0  0  0  0  0  0  0
  1  2  2  0
  2  3  1  0
  3  4  1  0
  4  5  1  0
  4  6  1  0
  6  7  1  0
  7  8  1  0
  8  9  2  0
  9 10  1  0
  9 11  1  0
 11 12  2  0
 11 13  1  0
  3 14  2  0
 14 15  1  0
 15 16  1  0
 16 17  1  1
 16 18  1  0
 18 19  1  0
 19 20  1  0
 20 21  1  1
 20 22  1  0
 22 23  1  0
 24 23  1  1
 24 25  1  0
 25 26  2  0
 26 27  1  0
 27 28  2  0
 27 29  1  0
 29 30  1  0
 30 31  1  0
 30 32  1  0
 30 33  1  0
 33 34  1  0
 34 35  1  0
 35 36  1  0
 36 37  1  0
 36 38  2  0
 34 39  1  0
 39 40  1  0
 18  2  1  0
 40 20  1  0
 13  6  1  0
 40 16  1  0
 24 22  1  0
 33 24  1  0
  1 41  1  0
  1 42  1  0
  4 43  1  6
  5 44  1  0
  5 45  1  0
  5 46  1  0
  6 47  1  1
  7 48  1  0
  7 49  1  0
  8 50  1  0
 10 51  1  0
 10 52  1  0
 10 53  1  0
 14 54  1  0
 15 55  1  0
 15 56  1  0
 17 57  1  0
 17 58  1  0
 17 59  1  0
 18 60  1  1
 19 61  1  0
 19 62  1  0
 21 63  1  0
 22 64  1  6
 25 65  1  0
 26 66  1  0
 31 67  1  0
 31 68  1  0
 31 69  1  0
 32 70  1  0
 32 71  1  0
 32 72  1  0
 33 73  1  1
 34 74  1  1
 37 75  1  0
 37 76  1  0
 37 77  1  0
 39 78  1  0
 39 79  1  0
 40 80  1  6
M  END
>  <meeko>  (5) 
{"is_sidechain": [false], "free_energy": -5.667, "intermolecular_energy": -9.968, "internal_energy": 1.013}

$$$$
LIB_NUGUABFSSDNCNU__M_PUB_ALL__e8__s20260927
     RDKit          3D

 80 85  0  0  0  0  0  0  0  0999 V2000
   -2.8300  -15.9600    3.5440 C   0  0  0  0  0  0  0  0  0  0  0  0
   -1.6780  -15.6940    4.1870 C   0  0  0  0  0  0  0  0  0  0  0  0
   -0.9720  -14.4070    4.0830 C   0  0  0  0  0  0  0  0  0  0  0  0
   -1.3500  -13.4090    2.9770 C   0  0  1  0  0  0  0  0  0  0  0  0
   -1.1710  -11.9730    3.4990 C   0  0  0  0  0  0  0  0  0  0  0  0
   -0.6090  -13.6060    1.6220 C   0  0  1  0  0  0  0  0  0  0  0  0
    0.7520  -14.2820    1.7940 C   0  0  0  0  0  0  0  0  0  0  0  0
    1.3020  -14.6400    0.4520 C   0  0  0  0  0  0  0  0  0  0  0  0
    0.5010  -14.8590   -0.6020 C   0  0  0  0  0  0  0  0  0  0  0  0
    1.0100  -15.2140   -1.9640 C   0  0  0  0  0  0  0  0  0  0  0  0
   -0.9770  -14.8320   -0.4390 C   0  0  0  0  0  0  0  0  0  0  0  0
   -1.7290  -15.2020   -1.3320 O   0  0  0  0  0  0  0  0  0  0  0  0
   -1.4490  -14.4180    0.7650 O   0  0  0  0  0  0  0  0  0  0  0  0
    0.0020  -14.1100    4.9660 C   0  0  0  0  0  0  0  0  0  0  0  0
    0.4570  -15.0220    6.0580 C   0  0  0  0  0  0  0  0  0  0  0  0
    0.3140  -16.5200    5.7050 C   0  0  2  0  0  0  0  0  0  0  0  0
    1.4140  -16.9210    4.7030 C   0  0  0  0  0  0  0  0  0  0  0  0
   -1.0800  -16.7900    5.0630 C   0  0  1  0  0  0  0  0  0  0  0  0
   -1.9560  -17.1850    6.2590 C   0  0  0  0  0  0  0  0  0  0  0  0
   -1.0300  -18.0990    7.0650 C   0  0  2  0  0  0  0  0  0  0  0  0
   -0.9180  -19.3370    6.3590 O   0  0  0  0  0  0  0  0  0  0  0  0
   -1.5290  -18.3270    8.4580 C   0  0  1  0  0  0  0  0  0  0  0  0
   -1.9120  -19.6680    8.7660 O   0  0  0  0  0  0  0  0  0  0  0  0
   -0.7620  -19.1620    9.4880 C   0  0  2  0  0  0  0  0  0  0  0  0
   -0.9410  -18.7320   10.8920 C   0  0  0  0  0  0  0  0  0  0  0  0
   -0.2330  -18.9880   12.0000 C   0  0  0  0  0  0  0  0  0  0  0  0
    0.9860  -19.7450   12.2290 C   0  0  0  0  0  0  0  0  0  0  0  0
    1.5190  -19.6560   13.3320 O   0  0  0  0  0  0  0  0  0  0  0  0
    1.5270  -20.5090   11.2680 O   0  0  0  0  0  0  0  0  0  0  0  0
    0.9000  -21.0190   10.0660 C   0  0  0  0  0  0  0  0  0  0  0  0
    1.9880  -21.9250    9.4370 C   0  0  0  0  0  0  0  0  0  0  0  0
   -0.2660  -21.9650   10.4180 C   0  0  0  0  0  0  0  0  0  0  0  0
    0.5220  -19.8790    9.0680 C   0  0  2  0  0  0  0  0  0  0  0  0
    1.6720  -18.8600    8.7050 C   0  0  2  0  0  0  0  0  0  0  0  0
    1.7700  -17.7980    9.6780 O   0  0  0  0  0  0  0  0  0  0  0  0
    3.0230  -17.4730   10.1070 C   0  0  0  0  0  0  0  0  0  0  0  0
    3.9730  -18.5890    9.8000 C   0  0  0  0  0  0  0  0  0  0  0  0
    3.3340  -16.4350   10.6720 O   0  0  0  0  0  0  0  0  0  0  0  0
    1.5380  -18.2560    7.2870 C   0  0  0  0  0  0  0  0  0  0  0  0
    0.3170  -17.3500    7.0530 C   0  0  1  0  0  0  0  0  0  0  0  0
   -3.3113  -16.9421    3.6613 H   0  0  0  0  0  0  0  0  0  0  0  0
   -3.2903  -15.1953    2.9011 H   0  0  0  0  0  0  0  0  0  0  0  0
   -2.4056  -13.6074    2.7395 H   0  0  0  0  0  0  0  0  0  0  0  0
   -1.1719  -11.9799    4.5990 H   0  0  0  0  0  0  0  0  0  0  0  0
   -0.2153  -11.5672    3.1356 H   0  0  0  0  0  0  0  0  0  0  0  0
   -1.9978  -11.3450    3.1356 H   0  0  0  0  0  0  0  0  0  0  0  0
   -0.4217  -12.6163    1.1799 H   0  0  0  0  0  0  0  0  0  0  0  0
    1.4426  -13.5924    2.3015 H   0  0  0  0  0  0  0  0  0  0  0  0
    0.6353  -15.1938    2.3982 H   0  0  0  0  0  0  0  0  0  0  0  0
    2.3912  -14.7263    0.3247 H   0  0  0  0  0  0  0  0  0  0  0  0
    1.9088  -15.8408   -1.8677 H   0  0  0  0  0  0  0  0  0  0  0  0
    0.2339  -15.7677   -2.5127 H   0  0  0  0  0  0  0  0  0  0  0  0
    1.2614  -14.2944   -2.5127 H   0  0  0  0  0  0  0  0  0  0  0  0
    0.4948  -13.1306    4.8765 H   0  0  0  0  0  0  0  0  0  0  0  0
    1.5162  -14.8128    6.2686 H   0  0  0  0  0  0  0  0  0  0  0  0
   -0.1855  -14.8307    6.9301 H   0  0  0  0  0  0  0  0  0  0  0  0
    2.3093  -17.2474    5.2525 H   0  0  0  0  0  0  0  0  0  0  0  0
    1.0513  -17.7448    4.0706 H   0  0  0  0  0  0  0  0  0  0  0  0
    1.6666  -16.0571    4.0706 H   0  0  0  0  0  0  0  0  0  0  0  0
   -0.9951  -17.5761    4.2982 H   0  0  0  0  0  0  0  0  0  0  0  0
   -2.2498  -16.3015    6.8447 H   0  0  0  0  0  0  0  0  0  0  0  0
   -2.9011  -17.6669    5.9683 H   0  0  0  0  0  0  0  0  0  0  0  0
    0.0300  -19.4520    6.1540 H   0  0  0  0  0  0  0  0  0  0  0  0
   -1.9590  -17.3150    8.4902 H   0  0  0  0  0  0  0  0  0  0  0  0
   -1.8146  -18.0840   11.0561 H   0  0  0  0  0  0  0  0  0  0  0  0
   -0.6554  -18.5391   12.9111 H   0  0  0  0  0  0  0  0  0  0  0  0
    2.5691  -22.4089   10.2359 H   0  0  0  0  0  0  0  0  0  0  0  0
    1.5090  -22.6949    8.8142 H   0  0  0  0  0  0  0  0  0  0  0  0
    2.6584  -21.3145    8.8142 H   0  0  0  0  0  0  0  0  0  0  0  0
   -0.3594  -22.0408   11.5114 H   0  0  0  0  0  0  0  0  0  0  0  0
   -1.2010  -21.5670    9.9968 H   0  0  0  0  0  0  0  0  0  0  0  0
   -0.0693  -22.9620    9.9968 H   0  0  0  0  0  0  0  0  0  0  0  0
    0.3409  -20.4105    8.1221 H   0  0  0  0  0  0  0  0  0  0  0  0
    2.5970  -19.4550    8.7207 H   0  0  0  0  0  0  0  0  0  0  0  0
    4.3434  -19.0242   10.7399 H   0  0  0  0  0  0  0  0  0  0  0  0
    3.4528  -19.3635    9.2173 H   0  0  0  0  0  0  0  0  0  0  0  0
    4.8206  -18.1991    9.2173 H   0  0  0  0  0  0  0  0  0  0  0  0
    2.4416  -17.6612    7.0877 H   0  0  0  0  0  0  0  0  0  0  0  0
    1.4054  -19.1133    6.6106 H   0  0  0  0  0  0  0  0  0  0  0  0
    0.4187  -16.6678    7.9099 H   0  0  0  0  0  0  0  0  0  0  0  0
  1  2  2  0
  2  3  1  0
  3  4  1  0
  4  5  1  0
  4  6  1  0
  6  7  1  0
  7  8  1  0
  8  9  2  0
  9 10  1  0
  9 11  1  0
 11 12  2  0
 11 13  1  0
  3 14  2  0
 14 15  1  0
 15 16  1  0
 16 17  1  6
 16 18  1  0
 18 19  1  0
 19 20  1  0
 20 21  1  6
 20 22  1  0
 22 23  1  0
 24 23  1  1
 24 25  1  0
 25 26  2  0
 26 27  1  0
 27 28  2  0
 27 29  1  0
 29 30  1  0
 30 31  1  0
 30 32  1  0
 30 33  1  0
 33 34  1  0
 34 35  1  0
 35 36  1  0
 36 37  1  0
 36 38  2  0
 34 39  1  0
 39 40  1  0
 18  2  1  0
 40 20  1  0
 13  6  1  0
 40 16  1  0
 24 22  1  0
 33 24  1  0
  1 41  1  0
  1 42  1  0
  4 43  1  6
  5 44  1  0
  5 45  1  0
  5 46  1  0
  6 47  1  6
  7 48  1  0
  7 49  1  0
  8 50  1  0
 10 51  1  0
 10 52  1  0
 10 53  1  0
 14 54  1  0
 15 55  1  0
 15 56  1  0
 17 57  1  0
 17 58  1  0
 17 59  1  0
 18 60  1  6
 19 61  1  0
 19 62  1  0
 21 63  1  0
 22 64  1  1
 25 65  1  0
 26 66  1  0
 31 67  1  0
 31 68  1  0
 31 69  1  0
 32 70  1  0
 32 71  1  0
 32 72  1  0
 33 73  1  6
 34 74  1  6
 37 75  1  0
 37 76  1  0
 37 77  1  0
 39 78  1  0
 39 79  1  0
 40 80  1  1
M  END
>  <meeko>  (6) 
{"is_sidechain": [false], "free_energy": -5.658, "intermolecular_energy": -9.898, "internal_energy": 0.958}

$$$$
LIB_NUGUABFSSDNCNU__M_PUB_ALL__e8__s20260927
     RDKit          3D

 80 85  0  0  0  0  0  0  0  0999 V2000
    0.9140  -16.2930    1.8960 C   0  0  0  0  0  0  0  0  0  0  0  0
    0.1510  -16.2160    3.0020 C   0  0  0  0  0  0  0  0  0  0  0  0
   -1.1780  -15.5850    3.0250 C   0  0  0  0  0  0  0  0  0  0  0  0
   -1.6290  -14.6960    1.8550 C   0  0  1  0  0  0  0  0  0  0  0  0
   -2.7870  -15.3780    1.1090 C   0  0  0  0  0  0  0  0  0  0  0  0
   -1.9960  -13.2320    2.2360 C   0  0  1  0  0  0  0  0  0  0  0  0
   -1.0620  -12.6540    3.3000 C   0  0  0  0  0  0  0  0  0  0  0  0
   -1.3270  -11.1910    3.4530 C   0  0  0  0  0  0  0  0  0  0  0  0
   -1.8430  -10.4610    2.4510 C   0  0  0  0  0  0  0  0  0  0  0  0
   -2.1290   -8.9960    2.5640 C   0  0  0  0  0  0  0  0  0  0  0  0
   -2.0880  -11.0790    1.1210 C   0  0  0  0  0  0  0  0  0  0  0  0
   -2.3840  -10.4030    0.1440 O   0  0  0  0  0  0  0  0  0  0  0  0
   -1.9230  -12.4230    1.0350 O   0  0  0  0  0  0  0  0  0  0  0  0
   -1.9960  -15.7970    4.0740 C   0  0  0  0  0  0  0  0  0  0  0  0
   -1.6410  -16.6220    5.2680 C   0  0  0  0  0  0  0  0  0  0  0  0
   -0.1300  -16.6100    5.5940 C   0  0  2  0  0  0  0  0  0  0  0  0
    0.2480  -15.2550    6.2270 C   0  0  0  0  0  0  0  0  0  0  0  0
    0.7030  -16.8120    4.2930 C   0  0  1  0  0  0  0  0  0  0  0  0
    0.9230  -18.3290    4.2400 C   0  0  0  0  0  0  0  0  0  0  0  0
    1.2420  -18.6720    5.6980 C   0  0  2  0  0  0  0  0  0  0  0  0
    2.5580  -18.1920    5.9800 O   0  0  0  0  0  0  0  0  0  0  0  0
    1.1440  -20.1410    5.9680 C   0  0  1  0  0  0  0  0  0  0  0  0
    2.3660  -20.7860    6.3300 O   0  0  0  0  0  0  0  0  0  0  0  0
    1.3500  -20.7430    7.3620 C   0  0  2  0  0  0  0  0  0  0  0  0
    0.5630  -21.9670    7.6310 C   0  0  0  0  0  0  0  0  0  0  0  0
    0.2260  -22.5760    8.7750 C   0  0  0  0  0  0  0  0  0  0  0  0
    0.4700  -22.2290   10.1700 C   0  0  0  0  0  0  0  0  0  0  0  0
   -0.1560  -22.8490   11.0260 O   0  0  0  0  0  0  0  0  0  0  0  0
    1.3420  -21.2710   10.5200 O   0  0  0  0  0  0  0  0  0  0  0  0
    2.3670  -20.6490    9.7070 C   0  0  0  0  0  0  0  0  0  0  0  0
    3.0860  -19.6900   10.6890 C   0  0  0  0  0  0  0  0  0  0  0  0
    3.4340  -21.6820    9.2910 C   0  0  0  0  0  0  0  0  0  0  0  0
    1.7650  -19.8330    8.5190 C   0  0  2  0  0  0  0  0  0  0  0  0
    0.6400  -18.7950    8.9010 C   0  0  2  0  0  0  0  0  0  0  0  0
   -0.6650  -19.4100    8.9500 O   0  0  0  0  0  0  0  0  0  0  0  0
   -1.4990  -19.0030    9.9490 C   0  0  0  0  0  0  0  0  0  0  0  0
   -0.7410  -18.9030   11.2370 C   0  0  0  0  0  0  0  0  0  0  0  0
   -2.6920  -18.7660    9.8270 O   0  0  0  0  0  0  0  0  0  0  0  0
    0.6060  -17.5770    7.9470 C   0  0  0  0  0  0  0  0  0  0  0  0
    0.1950  -17.8700    6.4950 C   0  0  1  0  0  0  0  0  0  0  0  0
    1.9005  -16.7776    1.9410 H   0  0  0  0  0  0  0  0  0  0  0  0
    0.5511  -15.8714    0.9470 H   0  0  0  0  0  0  0  0  0  0  0  0
   -0.7521  -14.5932    1.1989 H   0  0  0  0  0  0  0  0  0  0  0  0
   -3.4969  -15.7961    1.8378 H   0  0  0  0  0  0  0  0  0  0  0  0
   -3.3022  -14.6391    0.4777 H   0  0  0  0  0  0  0  0  0  0  0  0
   -2.3906  -16.1869    0.4777 H   0  0  0  0  0  0  0  0  0  0  0  0
   -3.0099  -13.2269    2.6626 H   0  0  0  0  0  0  0  0  0  0  0  0
   -1.2405  -13.1614    4.2595 H   0  0  0  0  0  0  0  0  0  0  0  0
   -0.0168  -12.8075    2.9933 H   0  0  0  0  0  0  0  0  0  0  0  0
   -1.0937  -10.7004    4.4095 H   0  0  0  0  0  0  0  0  0  0  0  0
   -2.1841   -8.7140    3.6258 H   0  0  0  0  0  0  0  0  0  0  0  0
   -1.3251   -8.4266    2.0746 H   0  0  0  0  0  0  0  0  0  0  0  0
   -3.0881   -8.7708    2.0746 H   0  0  0  0  0  0  0  0  0  0  0  0
   -2.9923  -15.3314    4.0499 H   0  0  0  0  0  0  0  0  0  0  0  0
   -2.1887  -16.2305    6.1379 H   0  0  0  0  0  0  0  0  0  0  0  0
   -1.9158  -17.6620    5.0380 H   0  0  0  0  0  0  0  0  0  0  0  0
    0.2235  -15.3428    7.3232 H   0  0  0  0  0  0  0  0  0  0  0  0
    1.2601  -14.9693    5.9046 H   0  0  0  0  0  0  0  0  0  0  0  0
   -0.4701  -14.4866    5.9046 H   0  0  0  0  0  0  0  0  0  0  0  0
    1.6357  -16.2316    4.3498 H   0  0  0  0  0  0  0  0  0  0  0  0
    0.0162  -18.8500    3.8989 H   0  0  0  0  0  0  0  0  0  0  0  0
    1.7126  -18.6320    3.5367 H   0  0  0  0  0  0  0  0  0  0  0  0
    2.4670  -17.5540    6.7140 H   0  0  0  0  0  0  0  0  0  0  0  0
    0.3426  -20.2450    5.2217 H   0  0  0  0  0  0  0  0  0  0  0  0
    0.1863  -22.4676    6.7268 H   0  0  0  0  0  0  0  0  0  0  0  0
   -0.3388  -23.5098    8.6369 H   0  0  0  0  0  0  0  0  0  0  0  0
    2.8619  -19.9889   11.7236 H   0  0  0  0  0  0  0  0  0  0  0  0
    4.1719  -19.7389   10.5203 H   0  0  0  0  0  0  0  0  0  0  0  0
    2.7347  -18.6614   10.5203 H   0  0  0  0  0  0  0  0  0  0  0  0
    3.8886  -22.1222   10.1908 H   0  0  0  0  0  0  0  0  0  0  0  0
    2.9625  -22.4756    8.6928 H   0  0  0  0  0  0  0  0  0  0  0  0
    4.2119  -21.1850    8.6928 H   0  0  0  0  0  0  0  0  0  0  0  0
    2.5948  -19.1965    8.1779 H   0  0  0  0  0  0  0  0  0  0  0  0
    0.8997  -18.4329    9.9067 H   0  0  0  0  0  0  0  0  0  0  0  0
   -1.4396  -18.9952   12.0817 H   0  0  0  0  0  0  0  0  0  0  0  0
    0.0041  -19.7106   11.2876 H   0  0  0  0  0  0  0  0  0  0  0  0
   -0.2308  -17.9298   11.2876 H   0  0  0  0  0  0  0  0  0  0  0  0
   -0.1072  -16.8473    8.3580 H   0  0  0  0  0  0  0  0  0  0  0  0
    1.6425  -17.2125    7.8942 H   0  0  0  0  0  0  0  0  0  0  0  0
   -0.7242  -18.4480    6.6709 H   0  0  0  0  0  0  0  0  0  0  0  0
  1  2  2  0
  2  3  1  0
  3  4  1  0
  4  5  1  0
  4  6  1  0
  6  7  1  0
  7  8  1  0
  8  9  2  0
  9 10  1  0
  9 11  1  0
 11 12  2  0
 11 13  1  0
  3 14  2  0
 14 15  1  0
 15 16  1  0
 16 17  1  1
 16 18  1  0
 18 19  1  0
 19 20  1  0
 20 21  1  1
 20 22  1  0
 22 23  1  0
 24 23  1  6
 24 25  1  0
 25 26  2  0
 26 27  1  0
 27 28  2  0
 27 29  1  0
 29 30  1  0
 30 31  1  0
 30 32  1  0
 30 33  1  0
 33 34  1  0
 34 35  1  0
 35 36  1  0
 36 37  1  0
 36 38  2  0
 34 39  1  0
 39 40  1  0
 18  2  1  0
 40 20  1  0
 13  6  1  0
 40 16  1  0
 24 22  1  0
 33 24  1  0
  1 41  1  0
  1 42  1  0
  4 43  1  6
  5 44  1  0
  5 45  1  0
  5 46  1  0
  6 47  1  1
  7 48  1  0
  7 49  1  0
  8 50  1  0
 10 51  1  0
 10 52  1  0
 10 53  1  0
 14 54  1  0
 15 55  1  0
 15 56  1  0
 17 57  1  0
 17 58  1  0
 17 59  1  0
 18 60  1  1
 19 61  1  0
 19 62  1  0
 21 63  1  0
 22 64  1  6
 25 65  1  0
 26 66  1  0
 31 67  1  0
 31 68  1  0
 31 69  1  0
 32 70  1  0
 32 71  1  0
 32 72  1  0
 33 73  1  6
 34 74  1  1
 37 75  1  0
 37 76  1  0
 37 77  1  0
 39 78  1  0
 39 79  1  0
 40 80  1  1
M  END
>  <meeko>  (7) 
{"is_sidechain": [false], "free_energy": -5.475, "intermolecular_energy": -9.653, "internal_energy": 1.031}

$$$$
LIB_NUGUABFSSDNCNU__M_PUB_ALL__e8__s20260927
     RDKit          3D

 80 85  0  0  0  0  0  0  0  0999 V2000
    7.7220  -11.8520   -2.3960 C   0  0  0  0  0  0  0  0  0  0  0  0
    7.4250  -13.1180   -2.0480 C   0  0  0  0  0  0  0  0  0  0  0  0
    8.4440  -14.1490   -1.7970 C   0  0  0  0  0  0  0  0  0  0  0  0
    9.9000  -13.9150   -2.2310 C   0  0  1  0  0  0  0  0  0  0  0  0
    9.9650  -13.7880   -3.7620 C   0  0  0  0  0  0  0  0  0  0  0  0
   10.6140  -12.7160   -1.5420 C   0  0  1  0  0  0  0  0  0  0  0  0
   10.6940  -12.8790   -0.0230 C   0  0  0  0  0  0  0  0  0  0  0  0
   11.5790  -11.8170    0.5460 C   0  0  0  0  0  0  0  0  0  0  0  0
   12.5490  -11.2440   -0.1840 C   0  0  0  0  0  0  0  0  0  0  0  0
   13.4530  -10.1750    0.3440 C   0  0  0  0  0  0  0  0  0  0  0  0
   12.8250  -11.7160   -1.5670 C   0  0  0  0  0  0  0  0  0  0  0  0
   13.8120  -11.3420   -2.1880 O   0  0  0  0  0  0  0  0  0  0  0  0
   11.9530  -12.6160   -2.0880 O   0  0  0  0  0  0  0  0  0  0  0  0
    8.0930  -15.2940   -1.1800 C   0  0  0  0  0  0  0  0  0  0  0  0
    6.7030  -15.6250   -0.7430 C   0  0  0  0  0  0  0  0  0  0  0  0
    5.6120  -14.9880   -1.6340 C   0  0  2  0  0  0  0  0  0  0  0  0
    5.5360  -15.7460   -2.9750 C   0  0  0  0  0  0  0  0  0  0  0  0
    5.9520  -13.4940   -1.9150 C   0  0  1  0  0  0  0  0  0  0  0  0
    5.2110  -12.7420   -0.8020 C   0  0  0  0  0  0  0  0  0  0  0  0
    3.8660  -13.4700   -0.7450 C   0  0  2  0  0  0  0  0  0  0  0  0
    3.1180  -13.0950   -1.9040 O   0  0  0  0  0  0  0  0  0  0  0  0
    3.1020  -13.1540    0.5030 C   0  0  1  0  0  0  0  0  0  0  0  0
    1.8680  -12.4610    0.3140 O   0  0  0  0  0  0  0  0  0  0  0  0
    1.7580  -13.8060    0.8410 C   0  0  2  0  0  0  0  0  0  0  0  0
    1.5000  -13.9800    2.2880 C   0  0  0  0  0  0  0  0  0  0  0  0
    0.6390  -14.7610    2.9510 C   0  0  0  0  0  0  0  0  0  0  0  0
   -0.3450  -15.7490    2.5130 C   0  0  0  0  0  0  0  0  0  0  0  0
   -0.9010  -16.4430    3.3600 O   0  0  0  0  0  0  0  0  0  0  0  0
   -0.6360  -15.8950    1.2100 O   0  0  0  0  0  0  0  0  0  0  0  0
   -0.4120  -14.9580    0.1290 C   0  0  0  0  0  0  0  0  0  0  0  0
   -1.0980  -15.6270   -1.0880 C   0  0  0  0  0  0  0  0  0  0  0  0
   -1.1940  -13.6500    0.3700 C   0  0  0  0  0  0  0  0  0  0  0  0
    1.1070  -14.7520   -0.1690 C   0  0  2  0  0  0  0  0  0  0  0  0
    1.9280  -16.0680   -0.3840 C   0  0  2  0  0  0  0  0  0  0  0  0
    2.3780  -16.6240    0.8700 O   0  0  0  0  0  0  0  0  0  0  0  0
    2.5220  -17.9780    0.9250 C   0  0  0  0  0  0  0  0  0  0  0  0
    3.4500  -18.3490    2.0390 C   0  0  0  0  0  0  0  0  0  0  0  0
    1.9890  -18.7810    0.1720 O   0  0  0  0  0  0  0  0  0  0  0  0
    3.1360  -15.8760   -1.3320 C   0  0  0  0  0  0  0  0  0  0  0  0
    4.2570  -14.9590   -0.8170 C   0  0  1  0  0  0  0  0  0  0  0  0
    6.9145  -11.1257   -2.5705 H   0  0  0  0  0  0  0  0  0  0  0  0
    8.7722  -11.5438   -2.5059 H   0  0  0  0  0  0  0  0  0  0  0  0
   10.4617  -14.7973   -1.8903 H   0  0  0  0  0  0  0  0  0  0  0  0
   10.4510  -12.8385   -4.0309 H   0  0  0  0  0  0  0  0  0  0  0  0
   10.5448  -14.6265   -4.1752 H   0  0  0  0  0  0  0  0  0  0  0  0
    8.9458  -13.8081   -4.1752 H   0  0  0  0  0  0  0  0  0  0  0  0
   10.0304  -11.8044   -1.7378 H   0  0  0  0  0  0  0  0  0  0  0  0
    9.6866  -12.7873    0.4092 H   0  0  0  0  0  0  0  0  0  0  0  0
   11.1077  -13.8693    0.2183 H   0  0  0  0  0  0  0  0  0  0  0  0
   11.4318  -11.4973    1.5882 H   0  0  0  0  0  0  0  0  0  0  0  0
   13.4382  -10.1925    1.4438 H   0  0  0  0  0  0  0  0  0  0  0  0
   14.4785  -10.3533   -0.0118 H   0  0  0  0  0  0  0  0  0  0  0  0
   13.1069   -9.1934   -0.0118 H   0  0  0  0  0  0  0  0  0  0  0  0
    8.8825  -16.0347   -0.9849 H   0  0  0  0  0  0  0  0  0  0  0  0
    6.5802  -16.7178   -0.7687 H   0  0  0  0  0  0  0  0  0  0  0  0
    6.5748  -15.2163    0.2702 H   0  0  0  0  0  0  0  0  0  0  0  0
    5.4280  -16.8235   -2.7815 H   0  0  0  0  0  0  0  0  0  0  0  0
    4.6692  -15.3880   -3.5499 H   0  0  0  0  0  0  0  0  0  0  0  0
    6.4566  -15.5672   -3.5499 H   0  0  0  0  0  0  0  0  0  0  0  0
    5.6252  -13.2186   -2.9286 H   0  0  0  0  0  0  0  0  0  0  0  0
    5.7465  -12.8217    0.1556 H   0  0  0  0  0  0  0  0  0  0  0  0
    5.1164  -11.6626   -0.9914 H   0  0  0  0  0  0  0  0  0  0  0  0
    2.9040  -13.9240   -2.3740 H   0  0  0  0  0  0  0  0  0  0  0  0
    4.0379  -13.0389    1.0695 H   0  0  0  0  0  0  0  0  0  0  0  0
    2.1305  -13.3536    2.9361 H   0  0  0  0  0  0  0  0  0  0  0  0
    0.6800  -14.6342    4.0429 H   0  0  0  0  0  0  0  0  0  0  0  0
   -1.8437  -16.3543   -0.7345 H   0  0  0  0  0  0  0  0  0  0  0  0
   -1.5958  -14.8579   -1.6969 H   0  0  0  0  0  0  0  0  0  0  0  0
   -0.3416  -16.1439   -1.6969 H   0  0  0  0  0  0  0  0  0  0  0  0
   -1.2967  -13.4782    1.4516 H   0  0  0  0  0  0  0  0  0  0  0  0
   -0.6505  -12.8088   -0.0849 H   0  0  0  0  0  0  0  0  0  0  0  0
   -2.1923  -13.7305   -0.0849 H   0  0  0  0  0  0  0  0  0  0  0  0
    1.1384  -14.2638   -1.1543 H   0  0  0  0  0  0  0  0  0  0  0  0
    1.2350  -16.7748   -0.8639 H   0  0  0  0  0  0  0  0  0  0  0  0
    2.9606  -18.1533    3.0045 H   0  0  0  0  0  0  0  0  0  0  0  0
    3.7024  -19.4171    1.9657 H   0  0  0  0  0  0  0  0  0  0  0  0
    4.3692  -17.7492    1.9657 H   0  0  0  0  0  0  0  0  0  0  0  0
    3.5734  -16.8667   -1.5248 H   0  0  0  0  0  0  0  0  0  0  0  0
    2.7344  -15.3795   -2.2277 H   0  0  0  0  0  0  0  0  0  0  0  0
    4.4142  -15.3946    0.1808 H   0  0  0  0  0  0  0  0  0  0  0  0
  1  2  2  0
  2  3  1  0
  3  4  1  0
  4  5  1  0
  4  6  1  0
  6  7  1  0
  7  8  1  0
  8  9  2  0
  9 10  1  0
  9 11  1  0
 11 12  2  0
 11 13  1  0
  3 14  2  0
 14 15  1  0
 15 16  1  0
 16 17  1  6
 16 18  1  0
 18 19  1  0
 19 20  1  0
 20 21  1  6
 20 22  1  0
 22 23  1  0
 24 23  1  6
 24 25  1  0
 25 26  2  0
 26 27  1  0
 27 28  2  0
 27 29  1  0
 29 30  1  0
 30 31  1  0
 30 32  1  0
 30 33  1  0
 33 34  1  0
 34 35  1  0
 35 36  1  0
 36 37  1  0
 36 38  2  0
 34 39  1  0
 39 40  1  0
 18  2  1  0
 40 20  1  0
 13  6  1  0
 40 16  1  0
 24 22  1  0
 33 24  1  0
  1 41  1  0
  1 42  1  0
  4 43  1  6
  5 44  1  0
  5 45  1  0
  5 46  1  0
  6 47  1  1
  7 48  1  0
  7 49  1  0
  8 50  1  0
 10 51  1  0
 10 52  1  0
 10 53  1  0
 14 54  1  0
 15 55  1  0
 15 56  1  0
 17 57  1  0
 17 58  1  0
 17 59  1  0
 18 60  1  6
 19 61  1  0
 19 62  1  0
 21 63  1  0
 22 64  1  1
 25 65  1  0
 26 66  1  0
 31 67  1  0
 31 68  1  0
 31 69  1  0
 32 70  1  0
 32 71  1  0
 32 72  1  0
 33 73  1  6
 34 74  1  6
 37 75  1  0
 37 76  1  0
 37 77  1  0
 39 78  1  0
 39 79  1  0
 40 80  1  1
M  END
>  <meeko>  (8) 
{"is_sidechain": [false], "free_energy": -5.371, "intermolecular_energy": -10.141, "internal_energy": 1.699}

$$$$
LIB_NUGUABFSSDNCNU__M_PUB_ALL__e8__s20260927
     RDKit          3D

 80 85  0  0  0  0  0  0  0  0999 V2000
    5.6610  -11.5330   -1.1800 C   0  0  0  0  0  0  0  0  0  0  0  0
    5.6810  -12.1890   -2.3550 C   0  0  0  0  0  0  0  0  0  0  0  0
    4.7160  -11.9390   -3.4370 C   0  0  0  0  0  0  0  0  0  0  0  0
    3.4340  -11.1390   -3.1560 C   0  0  1  0  0  0  0  0  0  0  0  0
    3.0330  -10.3530   -4.4150 C   0  0  0  0  0  0  0  0  0  0  0  0
    2.2360  -11.9710   -2.6120 C   0  0  1  0  0  0  0  0  0  0  0  0
    2.4660  -13.4770   -2.7410 C   0  0  0  0  0  0  0  0  0  0  0  0
    1.3910  -14.2090   -2.0050 C   0  0  0  0  0  0  0  0  0  0  0  0
    0.7390  -13.6510   -0.9730 C   0  0  0  0  0  0  0  0  0  0  0  0
   -0.3470  -14.3460   -0.2130 C   0  0  0  0  0  0  0  0  0  0  0  0
    1.1310  -12.3050   -0.4780 C   0  0  0  0  0  0  0  0  0  0  0  0
    0.6810  -11.8480    0.5660 O   0  0  0  0  0  0  0  0  0  0  0  0
    2.0460  -11.6280   -1.2170 O   0  0  0  0  0  0  0  0  0  0  0  0
    4.9660  -12.4120   -4.6730 C   0  0  0  0  0  0  0  0  0  0  0  0
    6.1680  -13.2200   -5.0400 C   0  0  0  0  0  0  0  0  0  0  0  0
    6.7050  -14.0850   -3.8760 C   0  0  2  0  0  0  0  0  0  0  0  0
    5.7700  -15.2920   -3.6580 C   0  0  0  0  0  0  0  0  0  0  0  0
    6.7620  -13.2450   -2.5650 C   0  0  1  0  0  0  0  0  0  0  0  0
    8.1920  -12.6900   -2.5570 C   0  0  0  0  0  0  0  0  0  0  0  0
    9.0210  -13.8930   -3.0140 C   0  0  2  0  0  0  0  0  0  0  0  0
    9.0610  -14.8290   -1.9340 O   0  0  0  0  0  0  0  0  0  0  0  0
   10.4050  -13.5020   -3.4290 C   0  0  1  0  0  0  0  0  0  0  0  0
   11.4620  -14.0170   -2.6170 O   0  0  0  0  0  0  0  0  0  0  0  0
   11.4200  -14.5090   -3.9800 C   0  0  2  0  0  0  0  0  0  0  0  0
   12.3750  -13.9520   -4.9630 C   0  0  0  0  0  0  0  0  0  0  0  0
   13.1480  -14.5380   -5.8850 C   0  0  0  0  0  0  0  0  0  0  0  0
   13.2730  -15.9280   -6.2990 C   0  0  0  0  0  0  0  0  0  0  0  0
   13.8370  -16.1530   -7.3670 O   0  0  0  0  0  0  0  0  0  0  0  0
   12.7990  -16.9370   -5.5510 O   0  0  0  0  0  0  0  0  0  0  0  0
   12.3230  -16.8940   -4.1840 C   0  0  0  0  0  0  0  0  0  0  0  0
   11.9580  -18.3670   -3.8730 C   0  0  0  0  0  0  0  0  0  0  0  0
   13.4720  -16.5450   -3.2170 C   0  0  0  0  0  0  0  0  0  0  0  0
   11.0560  -15.9940   -4.0280 C   0  0  2  0  0  0  0  0  0  0  0  0
    9.8870  -16.2830   -5.0390 C   0  0  2  0  0  0  0  0  0  0  0  0
   10.0810  -15.6010   -6.2980 O   0  0  0  0  0  0  0  0  0  0  0  0
    9.3090  -16.0130   -7.3430 C   0  0  0  0  0  0  0  0  0  0  0  0
    9.6100  -17.4430   -7.6690 C   0  0  0  0  0  0  0  0  0  0  0  0
    8.4970  -15.3230   -7.9430 O   0  0  0  0  0  0  0  0  0  0  0  0
    8.4840  -15.9510   -4.4780 C   0  0  0  0  0  0  0  0  0  0  0  0
    8.2080  -14.4650   -4.1910 C   0  0  1  0  0  0  0  0  0  0  0  0
    6.4100  -11.7641   -0.4083 H   0  0  0  0  0  0  0  0  0  0  0  0
    4.8956  -10.7658   -0.9914 H   0  0  0  0  0  0  0  0  0  0  0  0
    3.6818  -10.4528   -2.3328 H   0  0  0  0  0  0  0  0  0  0  0  0
    2.5514   -9.4090   -4.1200 H   0  0  0  0  0  0  0  0  0  0  0  0
    3.9304  -10.1356   -5.0129 H   0  0  0  0  0  0  0  0  0  0  0  0
    2.3303  -10.9520   -5.0129 H   0  0  0  0  0  0  0  0  0  0  0  0
    1.3446  -11.7294   -3.2096 H   0  0  0  0  0  0  0  0  0  0  0  0
    2.4428  -13.7620   -3.8032 H   0  0  0  0  0  0  0  0  0  0  0  0
    3.4457  -13.7366   -2.3135 H   0  0  0  0  0  0  0  0  0  0  0  0
    1.1275  -15.2305   -2.3167 H   0  0  0  0  0  0  0  0  0  0  0  0
   -0.1695  -14.2324    0.8666 H   0  0  0  0  0  0  0  0  0  0  0  0
   -1.3190  -13.9017   -0.4735 H   0  0  0  0  0  0  0  0  0  0  0  0
   -0.3507  -15.4147   -0.4735 H   0  0  0  0  0  0  0  0  0  0  0  0
    4.2364  -12.1885   -5.4653 H   0  0  0  0  0  0  0  0  0  0  0  0
    5.8997  -13.8853   -5.8739 H   0  0  0  0  0  0  0  0  0  0  0  0
    6.9644  -12.5120   -5.3129 H   0  0  0  0  0  0  0  0  0  0  0  0
    5.6375  -15.4631   -2.5795 H   0  0  0  0  0  0  0  0  0  0  0  0
    4.7928  -15.0869   -4.1195 H   0  0  0  0  0  0  0  0  0  0  0  0
    6.2128  -16.1869   -4.1195 H   0  0  0  0  0  0  0  0  0  0  0  0
    6.5301  -13.8829   -1.6994 H   0  0  0  0  0  0  0  0  0  0  0  0
    8.2949  -11.8480   -3.2574 H   0  0  0  0  0  0  0  0  0  0  0  0
    8.5010  -12.2925   -1.5790 H   0  0  0  0  0  0  0  0  0  0  0  0
    8.2060  -15.2990   -1.9450 H   0  0  0  0  0  0  0  0  0  0  0  0
   10.0425  -12.5312   -3.7979 H   0  0  0  0  0  0  0  0  0  0  0  0
   12.4664  -12.8563   -4.9301 H   0  0  0  0  0  0  0  0  0  0  0  0
   13.8075  -13.8447   -6.4276 H   0  0  0  0  0  0  0  0  0  0  0  0
   11.9217  -18.5136   -2.7834 H   0  0  0  0  0  0  0  0  0  0  0  0
   10.9748  -18.6007   -4.3074 H   0  0  0  0  0  0  0  0  0  0  0  0
   12.7183  -19.0327   -4.3074 H   0  0  0  0  0  0  0  0  0  0  0  0
   13.1229  -16.6510   -2.1793 H   0  0  0  0  0  0  0  0  0  0  0  0
   14.3175  -17.2269   -3.3909 H   0  0  0  0  0  0  0  0  0  0  0  0
   13.7954  -15.5081   -3.3909 H   0  0  0  0  0  0  0  0  0  0  0  0
   10.6371  -16.2829   -3.0528 H   0  0  0  0  0  0  0  0  0  0  0  0
    9.9234  -17.3695   -5.2067 H   0  0  0  0  0  0  0  0  0  0  0  0
    9.7302  -18.0142   -6.7366 H   0  0  0  0  0  0  0  0  0  0  0  0
    8.7816  -17.8677   -8.2549 H   0  0  0  0  0  0  0  0  0  0  0  0
   10.5393  -17.4977   -8.2549 H   0  0  0  0  0  0  0  0  0  0  0  0
    7.7385  -16.2969   -5.2091 H   0  0  0  0  0  0  0  0  0  0  0  0
    8.4263  -16.4575   -3.5033 H   0  0  0  0  0  0  0  0  0  0  0  0
    8.5091  -14.0257   -5.1535 H   0  0  0  0  0  0  0  0  0  0  0  0
  1  2  2  0
  2  3  1  0
  3  4  1  0
  4  5  1  0
  4  6  1  0
  6  7  1  0
  7  8  1  0
  8  9  2  0
  9 10  1  0
  9 11  1  0
 11 12  2  0
 11 13  1  0
  3 14  2  0
 14 15  1  0
 15 16  1  0
 16 17  1  1
 16 18  1  0
 18 19  1  0
 19 20  1  0
 20 21  1  1
 20 22  1  0
 22 23  1  0
 24 23  1  1
 24 25  1  0
 25 26  2  0
 26 27  1  0
 27 28  2  0
 27 29  1  0
 29 30  1  0
 30 31  1  0
 30 32  1  0
 30 33  1  0
 33 34  1  0
 34 35  1  0
 35 36  1  0
 36 37  1  0
 36 38  2  0
 34 39  1  0
 39 40  1  0
 18  2  1  0
 40 20  1  0
 13  6  1  0
 40 16  1  0
 24 22  1  0
 33 24  1  0
  1 41  1  0
  1 42  1  0
  4 43  1  1
  5 44  1  0
  5 45  1  0
  5 46  1  0
  6 47  1  6
  7 48  1  0
  7 49  1  0
  8 50  1  0
 10 51  1  0
 10 52  1  0
 10 53  1  0
 14 54  1  0
 15 55  1  0
 15 56  1  0
 17 57  1  0
 17 58  1  0
 17 59  1  0
 18 60  1  1
 19 61  1  0
 19 62  1  0
 21 63  1  0
 22 64  1  6
 25 65  1  0
 26 66  1  0
 31 67  1  0
 31 68  1  0
 31 69  1  0
 32 70  1  0
 32 71  1  0
 32 72  1  0
 33 73  1  1
 34 74  1  6
 37 75  1  0
 37 76  1  0
 37 77  1  0
 39 78  1  0
 39 79  1  0
 40 80  1  6
M  END
>  <meeko>  (9) 
{"is_sidechain": [false], "free_energy": -5.338, "intermolecular_energy": -9.459, "internal_energy": 1.074}

$$$$
