LIB_DKSMHPPLVBSAQL__M_PUB_ALL__e8__s20260927
     RDKit          3D

 53 56  0  0  0  0  0  0  0  0999 V2000
   10.3660   -4.2290  -12.3050 N   0  0  0  0  0  0  0  0  0  0  0  0
   11.2480   -4.9820  -12.2530 C   0  0  0  0  0  0  0  0  0  0  0  0
   12.3640   -5.9430  -12.2340 C   0  0  0  0  0  0  0  0  0  0  0  0
   11.8940   -7.3170  -12.2270 N   0  0  0  0  0  0  0  0  0  0  0  0
   11.3790   -7.8800  -11.0820 C   0  0  0  0  0  0  0  0  0  0  0  0
   11.3000   -7.2710  -10.0210 O   0  0  0  0  0  0  0  0  0  0  0  0
   10.8690   -9.2770  -11.1860 C   0  0  0  0  0  0  0  0  0  0  0  0
    9.6310   -9.5770  -11.7600 C   0  0  0  0  0  0  0  0  0  0  0  0
    9.2100  -10.9030  -11.8320 C   0  0  0  0  0  0  0  0  0  0  0  0
   10.0230  -11.9250  -11.3360 C   0  0  0  0  0  0  0  0  0  0  0  0
   11.2810  -11.6590  -10.7620 C   0  0  0  0  0  0  0  0  0  0  0  0
   12.1270  -12.7610  -10.2540 C   0  0  0  0  0  0  0  0  0  0  0  0
   13.1690  -13.3080  -10.9740 C   0  0  0  0  0  0  0  0  0  0  0  0
   13.8640  -14.3170  -10.3570 C   0  0  0  0  0  0  0  0  0  0  0  0
   13.5770  -14.7720   -9.1260 N   0  0  0  0  0  0  0  0  0  0  0  0
   12.5490  -14.1970   -8.4850 C   0  0  0  0  0  0  0  0  0  0  0  0
   12.3010  -14.6970   -7.2110 N   0  0  0  0  0  0  0  0  0  0  0  0
   12.3000  -14.1360   -5.9320 C   0  0  0  0  0  0  0  0  0  0  0  0
   11.0890  -14.0490   -5.2350 C   0  0  0  0  0  0  0  0  0  0  0  0
   11.0230  -13.5120   -3.9390 C   0  0  0  0  0  0  0  0  0  0  0  0
   12.1610  -13.0310   -3.2820 C   0  0  0  0  0  0  0  0  0  0  0  0
   12.1230  -12.4980   -2.0000 N   0  0  0  0  0  0  0  0  0  0  0  0
   10.8730  -12.5080   -1.2230 C   0  0  0  0  0  0  0  0  0  0  0  0
   11.1670  -12.3070    0.2720 C   0  0  0  0  0  0  0  0  0  0  0  0
   11.9320  -11.1140    0.5050 O   0  0  0  0  0  0  0  0  0  0  0  0
   13.1930  -11.2060   -0.1780 C   0  0  0  0  0  0  0  0  0  0  0  0
   13.0100  -11.3570   -1.6960 C   0  0  0  0  0  0  0  0  0  0  0  0
   13.3710  -13.1380   -3.9820 C   0  0  0  0  0  0  0  0  0  0  0  0
   13.4410  -13.6780   -5.2760 C   0  0  0  0  0  0  0  0  0  0  0  0
   11.8220  -13.2020   -9.0130 N   0  0  0  0  0  0  0  0  0  0  0  0
   11.6890  -10.3130  -10.7070 C   0  0  0  0  0  0  0  0  0  0  0  0
   12.9856   -5.7841  -13.1275 H   0  0  0  0  0  0  0  0  0  0  0  0
   12.9430   -5.7756  -11.3138 H   0  0  0  0  0  0  0  0  0  0  0  0
   11.8240   -7.8010  -13.1110 H   0  0  0  0  0  0  0  0  0  0  0  0
    8.9930   -8.7715  -12.1525 H   0  0  0  0  0  0  0  0  0  0  0  0
    8.2353  -11.1458  -12.2804 H   0  0  0  0  0  0  0  0  0  0  0  0
    9.6710  -12.9655  -11.3954 H   0  0  0  0  0  0  0  0  0  0  0  0
   13.4273  -12.9557  -11.9835 H   0  0  0  0  0  0  0  0  0  0  0  0
   14.7020  -14.7787  -10.8998 H   0  0  0  0  0  0  0  0  0  0  0  0
   12.0490  -15.6710   -7.2870 H   0  0  0  0  0  0  0  0  0  0  0  0
   10.1669  -14.4100   -5.7140 H   0  0  0  0  0  0  0  0  0  0  0  0
   10.0506  -13.4683   -3.4266 H   0  0  0  0  0  0  0  0  0  0  0  0
   10.2208  -11.6956   -1.5761 H   0  0  0  0  0  0  0  0  0  0  0  0
   10.3764  -13.4799   -1.3604 H   0  0  0  0  0  0  0  0  0  0  0  0
   10.2140  -12.2319    0.8162 H   0  0  0  0  0  0  0  0  0  0  0  0
   11.7548  -13.1670    0.6256 H   0  0  0  0  0  0  0  0  0  0  0  0
   13.7735  -10.2932    0.0216 H   0  0  0  0  0  0  0  0  0  0  0  0
   13.7187  -12.0980    0.1934 H   0  0  0  0  0  0  0  0  0  0  0  0
   12.5657  -10.4355   -2.1003 H   0  0  0  0  0  0  0  0  0  0  0  0
   13.9926  -11.5383   -2.1561 H   0  0  0  0  0  0  0  0  0  0  0  0
   14.2962  -12.7872   -3.5014 H   0  0  0  0  0  0  0  0  0  0  0  0
   14.4157  -13.7408   -5.7820 H   0  0  0  0  0  0  0  0  0  0  0  0
   12.6720  -10.0664  -10.2794 H   0  0  0  0  0  0  0  0  0  0  0  0
  1  2  3  0
  2  3  1  0
  3  4  1  0
  4  5  1  0
  5  6  2  0
  5  7  1  0
  7  8  2  0
  8  9  1  0
  9 10  2  0
 10 11  1  0
 11 12  1  0
 12 13  2  0
 13 14  1  0
 14 15  2  0
 15 16  1  0
 16 17  1  0
 17 18  1  0
 18 19  2  0
 19 20  1  0
 20 21  2  0
 21 22  1  0
 22 23  1  0
 23 24  1  0
 24 25  1  0
 25 26  1  0
 26 27  1  0
 21 28  1  0
 28 29  2  0
 16 30  2  0
 11 31  2  0
 31  7  1  0
 30 12  1  0
 29 18  1  0
 27 22  1  0
  3 32  1  0
  3 33  1  0
  4 34  1  0
  8 35  1  0
  9 36  1  0
 10 37  1  0
 13 38  1  0
 14 39  1  0
 17 40  1  0
 19 41  1  0
 20 42  1  0
 23 43  1  0
 23 44  1  0
 24 45  1  0
 24 46  1  0
 26 47  1  0
 26 48  1  0
 27 49  1  0
 27 50  1  0
 28 51  1  0
 29 52  1  0
 31 53  1  0
M  END
>  <meeko>  (1) 
{"is_sidechain": [false], "free_energy": -8.524, "intermolecular_energy": -11.513, "internal_energy": -0.72}

$$$$
LIB_DKSMHPPLVBSAQL__M_PUB_ALL__e8__s20260927
     RDKit          3D

 53 56  0  0  0  0  0  0  0  0999 V2000
   11.2400   -7.2110  -10.3010 N   0  0  0  0  0  0  0  0  0  0  0  0
   11.4000   -8.3140  -10.6250 C   0  0  0  0  0  0  0  0  0  0  0  0
   11.5840   -9.7030  -11.0780 C   0  0  0  0  0  0  0  0  0  0  0  0
   10.3700  -10.4860  -10.9290 N   0  0  0  0  0  0  0  0  0  0  0  0
   10.2790  -11.7540  -11.4570 C   0  0  0  0  0  0  0  0  0  0  0  0
   11.1950  -12.2800  -12.0810 O   0  0  0  0  0  0  0  0  0  0  0  0
    9.0160  -12.5020  -11.2040 C   0  0  0  0  0  0  0  0  0  0  0  0
    8.2390  -13.0260  -12.2400 C   0  0  0  0  0  0  0  0  0  0  0  0
    7.0690  -13.7200  -11.9410 C   0  0  0  0  0  0  0  0  0  0  0  0
    6.6780  -13.8920  -10.6100 C   0  0  0  0  0  0  0  0  0  0  0  0
    7.4420  -13.3870   -9.5410 C   0  0  0  0  0  0  0  0  0  0  0  0
    7.0090  -13.5930   -8.1420 C   0  0  0  0  0  0  0  0  0  0  0  0
    7.6270  -14.4780   -7.2820 C   0  0  0  0  0  0  0  0  0  0  0  0
    7.1130  -14.5440   -6.0130 C   0  0  0  0  0  0  0  0  0  0  0  0
    6.0710  -13.8060   -5.5940 N   0  0  0  0  0  0  0  0  0  0  0  0
    5.5180  -12.9690   -6.4830 C   0  0  0  0  0  0  0  0  0  0  0  0
    4.4510  -12.2210   -5.9960 N   0  0  0  0  0  0  0  0  0  0  0  0
    3.7260  -12.2250   -4.8020 C   0  0  0  0  0  0  0  0  0  0  0  0
    2.7140  -13.1760   -4.6310 C   0  0  0  0  0  0  0  0  0  0  0  0
    1.9610  -13.2440   -3.4480 C   0  0  0  0  0  0  0  0  0  0  0  0
    2.1800  -12.3620   -2.3840 C   0  0  0  0  0  0  0  0  0  0  0  0
    1.4510  -12.4110   -1.2020 N   0  0  0  0  0  0  0  0  0  0  0  0
    1.7060  -11.4400   -0.1250 C   0  0  0  0  0  0  0  0  0  0  0  0
    0.5180  -11.3890    0.8460 C   0  0  0  0  0  0  0  0  0  0  0  0
    0.2000  -12.6910    1.3630 O   0  0  0  0  0  0  0  0  0  0  0  0
   -0.1590  -13.5670    0.2830 C   0  0  0  0  0  0  0  0  0  0  0  0
    0.9890  -13.7300   -0.7250 C   0  0  0  0  0  0  0  0  0  0  0  0
    3.2060  -11.4240   -2.5590 C   0  0  0  0  0  0  0  0  0  0  0  0
    3.9640  -11.3560   -3.7390 C   0  0  0  0  0  0  0  0  0  0  0  0
    5.9620  -12.8390   -7.7410 N   0  0  0  0  0  0  0  0  0  0  0  0
    8.6240  -12.6970   -9.8680 C   0  0  0  0  0  0  0  0  0  0  0  0
   11.8746   -9.6956  -12.1389 H   0  0  0  0  0  0  0  0  0  0  0  0
   12.3657  -10.1639  -10.4562 H   0  0  0  0  0  0  0  0  0  0  0  0
    9.6510  -10.1360  -10.3120 H   0  0  0  0  0  0  0  0  0  0  0  0
    8.5496  -12.8912  -13.2866 H   0  0  0  0  0  0  0  0  0  0  0  0
    6.4522  -14.1330  -12.7528 H   0  0  0  0  0  0  0  0  0  0  0  0
    5.7477  -14.4370  -10.3920 H   0  0  0  0  0  0  0  0  0  0  0  0
    8.4821  -15.0944   -7.5965 H   0  0  0  0  0  0  0  0  0  0  0  0
    7.5788  -15.2389   -5.2987 H   0  0  0  0  0  0  0  0  0  0  0  0
    4.2020  -11.5240   -6.6830 H   0  0  0  0  0  0  0  0  0  0  0  0
    2.5033  -13.8875   -5.4430 H   0  0  0  0  0  0  0  0  0  0  0  0
    1.1780  -14.0110   -3.3551 H   0  0  0  0  0  0  0  0  0  0  0  0
    2.6105  -11.7389    0.4251 H   0  0  0  0  0  0  0  0  0  0  0  0
    1.8445  -10.4436   -0.5700 H   0  0  0  0  0  0  0  0  0  0  0  0
    0.7712  -10.7241    1.6849 H   0  0  0  0  0  0  0  0  0  0  0  0
   -0.3584  -11.0138    0.2973 H   0  0  0  0  0  0  0  0  0  0  0  0
   -0.4138  -14.5545    0.6952 H   0  0  0  0  0  0  0  0  0  0  0  0
   -1.0172  -13.1254   -0.2446 H   0  0  0  0  0  0  0  0  0  0  0  0
    1.8260  -14.2524   -0.2387 H   0  0  0  0  0  0  0  0  0  0  0  0
    0.6266  -14.3119   -1.5852 H   0  0  0  0  0  0  0  0  0  0  0  0
    3.4250  -10.7174   -1.7449 H   0  0  0  0  0  0  0  0  0  0  0  0
    4.7607  -10.6025   -3.8259 H   0  0  0  0  0  0  0  0  0  0  0  0
    9.2560  -12.3010   -9.0595 H   0  0  0  0  0  0  0  0  0  0  0  0
  1  2  3  0
  2  3  1  0
  3  4  1  0
  4  5  1  0
  5  6  2  0
  5  7  1  0
  7  8  2  0
  8  9  1  0
  9 10  2  0
 10 11  1  0
 11 12  1  0
 12 13  2  0
 13 14  1  0
 14 15  2  0
 15 16  1  0
 16 17  1  0
 17 18  1  0
 18 19  2  0
 19 20  1  0
 20 21  2  0
 21 22  1  0
 22 23  1  0
 23 24  1  0
 24 25  1  0
 25 26  1  0
 26 27  1  0
 21 28  1  0
 28 29  2  0
 16 30  2  0
 11 31  2  0
 31  7  1  0
 30 12  1  0
 29 18  1  0
 27 22  1  0
  3 32  1  0
  3 33  1  0
  4 34  1  0
  8 35  1  0
  9 36  1  0
 10 37  1  0
 13 38  1  0
 14 39  1  0
 17 40  1  0
 19 41  1  0
 20 42  1  0
 23 43  1  0
 23 44  1  0
 24 45  1  0
 24 46  1  0
 26 47  1  0
 26 48  1  0
 27 49  1  0
 27 50  1  0
 28 51  1  0
 29 52  1  0
 31 53  1  0
M  END
>  <meeko>  (2) 
{"is_sidechain": [false], "free_energy": -8.085, "intermolecular_energy": -10.881, "internal_energy": -0.76}

$$$$
LIB_DKSMHPPLVBSAQL__M_PUB_ALL__e8__s20260927
     RDKit          3D

 53 56  0  0  0  0  0  0  0  0999 V2000
    8.1500   -6.6960    4.3310 N   0  0  0  0  0  0  0  0  0  0  0  0
    7.5800   -6.8650    3.3340 C   0  0  0  0  0  0  0  0  0  0  0  0
    6.8240   -7.1050    2.0930 C   0  0  0  0  0  0  0  0  0  0  0  0
    7.1310   -8.4020    1.5150 N   0  0  0  0  0  0  0  0  0  0  0  0
    6.3550   -9.5020    1.8000 C   0  0  0  0  0  0  0  0  0  0  0  0
    5.3870   -9.4550    2.5510 O   0  0  0  0  0  0  0  0  0  0  0  0
    6.7120  -10.7770    1.1150 C   0  0  0  0  0  0  0  0  0  0  0  0
    5.7460  -11.6320    0.5800 C   0  0  0  0  0  0  0  0  0  0  0  0
    6.1420  -12.8090   -0.0520 C   0  0  0  0  0  0  0  0  0  0  0  0
    7.4990  -13.1280   -0.1520 C   0  0  0  0  0  0  0  0  0  0  0  0
    8.4990  -12.2830    0.3650 C   0  0  0  0  0  0  0  0  0  0  0  0
    9.9290  -12.6400    0.2360 C   0  0  0  0  0  0  0  0  0  0  0  0
   10.9260  -12.0490    0.9850 C   0  0  0  0  0  0  0  0  0  0  0  0
   12.2010  -12.5010    0.7540 C   0  0  0  0  0  0  0  0  0  0  0  0
   12.4990  -13.4600   -0.1380 N   0  0  0  0  0  0  0  0  0  0  0  0
   11.4810  -13.9880   -0.8320 C   0  0  0  0  0  0  0  0  0  0  0  0
   11.8410  -14.9850   -1.7340 N   0  0  0  0  0  0  0  0  0  0  0  0
   12.3500  -14.9790   -3.0340 C   0  0  0  0  0  0  0  0  0  0  0  0
   12.7580  -16.1900   -3.6040 C   0  0  0  0  0  0  0  0  0  0  0  0
   13.2620  -16.2540   -4.9130 C   0  0  0  0  0  0  0  0  0  0  0  0
   13.3870  -15.1120   -5.7110 C   0  0  0  0  0  0  0  0  0  0  0  0
   13.8800  -15.1490   -7.0100 N   0  0  0  0  0  0  0  0  0  0  0  0
   15.3180  -15.3380   -7.2590 C   0  0  0  0  0  0  0  0  0  0  0  0
   15.5580  -15.7990   -8.7040 C   0  0  0  0  0  0  0  0  0  0  0  0
   14.9640  -14.8990   -9.6530 O   0  0  0  0  0  0  0  0  0  0  0  0
   13.5440  -14.8430   -9.4440 C   0  0  0  0  0  0  0  0  0  0  0  0
   13.1940  -14.3380   -8.0360 C   0  0  0  0  0  0  0  0  0  0  0  0
   12.9610  -13.9060   -5.1370 C   0  0  0  0  0  0  0  0  0  0  0  0
   12.4530  -13.8390   -3.8300 C   0  0  0  0  0  0  0  0  0  0  0  0
   10.2060  -13.6090   -0.6640 N   0  0  0  0  0  0  0  0  0  0  0  0
    8.0760  -11.0960    0.9920 C   0  0  0  0  0  0  0  0  0  0  0  0
    5.7481   -7.0613    2.3177 H   0  0  0  0  0  0  0  0  0  0  0  0
    7.1083   -6.3309    1.3650 H   0  0  0  0  0  0  0  0  0  0  0  0
    7.8370   -8.4460    0.7940 H   0  0  0  0  0  0  0  0  0  0  0  0
    4.6786  -11.3777    0.6571 H   0  0  0  0  0  0  0  0  0  0  0  0
    5.3856  -13.4879   -0.4727 H   0  0  0  0  0  0  0  0  0  0  0  0
    7.7935  -14.0646   -0.6481 H   0  0  0  0  0  0  0  0  0  0  0  0
   10.7115  -11.2623    1.7233 H   0  0  0  0  0  0  0  0  0  0  0  0
   13.0238  -12.0535    1.3308 H   0  0  0  0  0  0  0  0  0  0  0  0
   11.7110  -15.8840   -1.2940 H   0  0  0  0  0  0  0  0  0  0  0  0
   12.6821  -17.1142   -3.0123 H   0  0  0  0  0  0  0  0  0  0  0  0
   13.5668  -17.2286   -5.3220 H   0  0  0  0  0  0  0  0  0  0  0  0
   15.8426  -14.3859   -7.0910 H   0  0  0  0  0  0  0  0  0  0  0  0
   15.6996  -16.1078   -6.5721 H   0  0  0  0  0  0  0  0  0  0  0  0
   16.6415  -15.8471   -8.8878 H   0  0  0  0  0  0  0  0  0  0  0  0
   15.0931  -16.7878   -8.8308 H   0  0  0  0  0  0  0  0  0  0  0  0
   13.1014  -14.1627  -10.1865 H   0  0  0  0  0  0  0  0  0  0  0  0
   13.1422  -15.8613   -9.5517 H   0  0  0  0  0  0  0  0  0  0  0  0
   13.5099  -13.2888   -7.9389 H   0  0  0  0  0  0  0  0  0  0  0  0
   12.1073  -14.4222   -7.8879 H   0  0  0  0  0  0  0  0  0  0  0  0
   13.0270  -12.9820   -5.7301 H   0  0  0  0  0  0  0  0  0  0  0  0
   12.1299  -12.8682   -3.4261 H   0  0  0  0  0  0  0  0  0  0  0  0
    8.8290  -10.4026    1.3947 H   0  0  0  0  0  0  0  0  0  0  0  0
  1  2  3  0
  2  3  1  0
  3  4  1  0
  4  5  1  0
  5  6  2  0
  5  7  1  0
  7  8  2  0
  8  9  1  0
  9 10  2  0
 10 11  1  0
 11 12  1  0
 12 13  2  0
 13 14  1  0
 14 15  2  0
 15 16  1  0
 16 17  1  0
 17 18  1  0
 18 19  2  0
 19 20  1  0
 20 21  2  0
 21 22  1  0
 22 23  1  0
 23 24  1  0
 24 25  1  0
 25 26  1  0
 26 27  1  0
 21 28  1  0
 28 29  2  0
 16 30  2  0
 11 31  2  0
 31  7  1  0
 30 12  1  0
 29 18  1  0
 27 22  1  0
  3 32  1  0
  3 33  1  0
  4 34  1  0
  8 35  1  0
  9 36  1  0
 10 37  1  0
 13 38  1  0
 14 39  1  0
 17 40  1  0
 19 41  1  0
 20 42  1  0
 23 43  1  0
 23 44  1  0
 24 45  1  0
 24 46  1  0
 26 47  1  0
 26 48  1  0
 27 49  1  0
 27 50  1  0
 28 51  1  0
 29 52  1  0
 31 53  1  0
M  END
>  <meeko>  (3) 
{"is_sidechain": [false], "free_energy": -7.907, "intermolecular_energy": -10.559, "internal_energy": -0.842}

$$$$
LIB_DKSMHPPLVBSAQL__M_PUB_ALL__e8__s20260927
     RDKit          3D

 53 56  0  0  0  0  0  0  0  0999 V2000
   -1.6130   -8.3860    6.4730 N   0  0  0  0  0  0  0  0  0  0  0  0
   -1.5480   -8.3960    5.3140 C   0  0  0  0  0  0  0  0  0  0  0  0
   -1.5130   -8.4130    3.8420 C   0  0  0  0  0  0  0  0  0  0  0  0
   -1.5240   -9.7670    3.3170 N   0  0  0  0  0  0  0  0  0  0  0  0
   -0.9800  -10.0490    2.0840 C   0  0  0  0  0  0  0  0  0  0  0  0
   -0.4760   -9.1900    1.3690 O   0  0  0  0  0  0  0  0  0  0  0  0
   -0.9860  -11.4760    1.6550 C   0  0  0  0  0  0  0  0  0  0  0  0
   -0.2090  -11.9360    0.5880 C   0  0  0  0  0  0  0  0  0  0  0  0
   -0.2540  -13.2830    0.2350 C   0  0  0  0  0  0  0  0  0  0  0  0
   -1.0680  -14.1680    0.9470 C   0  0  0  0  0  0  0  0  0  0  0  0
   -1.8540  -13.7400    2.0340 C   0  0  0  0  0  0  0  0  0  0  0  0
   -2.6990  -14.7000    2.7770 C   0  0  0  0  0  0  0  0  0  0  0  0
   -2.2870  -15.9770    3.0990 C   0  0  0  0  0  0  0  0  0  0  0  0
   -3.1850  -16.7410    3.8010 C   0  0  0  0  0  0  0  0  0  0  0  0
   -4.4010  -16.3060    4.1720 N   0  0  0  0  0  0  0  0  0  0  0  0
   -4.7360  -15.0550    3.8220 C   0  0  0  0  0  0  0  0  0  0  0  0
   -5.9990  -14.6490    4.2390 N   0  0  0  0  0  0  0  0  0  0  0  0
   -6.8680  -15.0650    5.2510 C   0  0  0  0  0  0  0  0  0  0  0  0
   -7.9550  -15.8800    4.9150 C   0  0  0  0  0  0  0  0  0  0  0  0
   -8.8540  -16.3460    5.8870 C   0  0  0  0  0  0  0  0  0  0  0  0
   -8.7140  -16.0140    7.2390 C   0  0  0  0  0  0  0  0  0  0  0  0
   -9.5880  -16.4640    8.2200 N   0  0  0  0  0  0  0  0  0  0  0  0
   -9.3370  -17.7340    8.9210 C   0  0  0  0  0  0  0  0  0  0  0  0
  -10.1370  -17.7940   10.2300 C   0  0  0  0  0  0  0  0  0  0  0  0
  -11.5390  -17.5760   10.0050 O   0  0  0  0  0  0  0  0  0  0  0  0
  -11.7400  -16.2740    9.4310 C   0  0  0  0  0  0  0  0  0  0  0  0
  -11.0190  -16.1270    8.0820 C   0  0  0  0  0  0  0  0  0  0  0  0
   -7.6140  -15.2100    7.5680 C   0  0  0  0  0  0  0  0  0  0  0  0
   -6.7100  -14.7470    6.5990 C   0  0  0  0  0  0  0  0  0  0  0  0
   -3.9160  -14.2410    3.1420 N   0  0  0  0  0  0  0  0  0  0  0  0
   -1.7870  -12.3770    2.3770 C   0  0  0  0  0  0  0  0  0  0  0  0
   -2.3930   -7.8756    3.4589 H   0  0  0  0  0  0  0  0  0  0  0  0
   -0.5806   -7.9282    3.5169 H   0  0  0  0  0  0  0  0  0  0  0  0
   -1.8110  -10.5140    3.9330 H   0  0  0  0  0  0  0  0  0  0  0  0
    0.4339  -11.2389    0.0306 H   0  0  0  0  0  0  0  0  0  0  0  0
    0.3525  -13.6506   -0.6059 H   0  0  0  0  0  0  0  0  0  0  0  0
   -1.0954  -15.2269    0.6504 H   0  0  0  0  0  0  0  0  0  0  0  0
   -1.2971  -16.3599    2.8100 H   0  0  0  0  0  0  0  0  0  0  0  0
   -2.8934  -17.7656    4.0750 H   0  0  0  0  0  0  0  0  0  0  0  0
   -6.2950  -13.8690    3.6710 H   0  0  0  0  0  0  0  0  0  0  0  0
   -8.1086  -16.1624    3.8630 H   0  0  0  0  0  0  0  0  0  0  0  0
   -9.6909  -16.9893    5.5776 H   0  0  0  0  0  0  0  0  0  0  0  0
   -9.6391  -18.5704    8.2736 H   0  0  0  0  0  0  0  0  0  0  0  0
   -8.2648  -17.8041    9.1563 H   0  0  0  0  0  0  0  0  0  0  0  0
   -9.9990  -18.7849   10.6873 H   0  0  0  0  0  0  0  0  0  0  0  0
   -9.7681  -16.9989   10.8947 H   0  0  0  0  0  0  0  0  0  0  0  0
  -12.8176  -16.1150    9.2778 H   0  0  0  0  0  0  0  0  0  0  0  0
  -11.3244  -15.5273   10.1237 H   0  0  0  0  0  0  0  0  0  0  0  0
  -11.4812  -16.8045    7.3490 H   0  0  0  0  0  0  0  0  0  0  0  0
  -11.1074  -15.0841    7.7436 H   0  0  0  0  0  0  0  0  0  0  0  0
   -7.4538  -14.9327    8.6203 H   0  0  0  0  0  0  0  0  0  0  0  0
   -5.8604  -14.1211    6.9094 H   0  0  0  0  0  0  0  0  0  0  0  0
   -2.3753  -12.0082    3.2301 H   0  0  0  0  0  0  0  0  0  0  0  0
  1  2  3  0
  2  3  1  0
  3  4  1  0
  4  5  1  0
  5  6  2  0
  5  7  1  0
  7  8  2  0
  8  9  1  0
  9 10  2  0
 10 11  1  0
 11 12  1  0
 12 13  2  0
 13 14  1  0
 14 15  2  0
 15 16  1  0
 16 17  1  0
 17 18  1  0
 18 19  2  0
 19 20  1  0
 20 21  2  0
 21 22  1  0
 22 23  1  0
 23 24  1  0
 24 25  1  0
 25 26  1  0
 26 27  1  0
 21 28  1  0
 28 29  2  0
 16 30  2  0
 11 31  2  0
 31  7  1  0
 30 12  1  0
 29 18  1  0
 27 22  1  0
  3 32  1  0
  3 33  1  0
  4 34  1  0
  8 35  1  0
  9 36  1  0
 10 37  1  0
 13 38  1  0
 14 39  1  0
 17 40  1  0
 19 41  1  0
 20 42  1  0
 23 43  1  0
 23 44  1  0
 24 45  1  0
 24 46  1  0
 26 47  1  0
 26 48  1  0
 27 49  1  0
 27 50  1  0
 28 51  1  0
 29 52  1  0
 31 53  1  0
M  END
>  <meeko>  (4) 
{"is_sidechain": [false], "free_energy": -7.886, "intermolecular_energy": -10.55, "internal_energy": -0.823}

$$$$
LIB_DKSMHPPLVBSAQL__M_PUB_ALL__e8__s20260927
     RDKit          3D

 53 56  0  0  0  0  0  0  0  0999 V2000
   -3.7880  -10.3580   -0.6250 N   0  0  0  0  0  0  0  0  0  0  0  0
   -2.9620  -10.6340    0.1430 C   0  0  0  0  0  0  0  0  0  0  0  0
   -1.8950  -10.9410    1.1110 C   0  0  0  0  0  0  0  0  0  0  0  0
   -0.6870  -11.4080    0.4540 N   0  0  0  0  0  0  0  0  0  0  0  0
    0.2920  -10.5210    0.0670 C   0  0  0  0  0  0  0  0  0  0  0  0
    0.1970   -9.3110    0.2410 O   0  0  0  0  0  0  0  0  0  0  0  0
    1.5210  -11.0980   -0.5480 C   0  0  0  0  0  0  0  0  0  0  0  0
    1.7420  -11.0810   -1.9270 C   0  0  0  0  0  0  0  0  0  0  0  0
    2.9130  -11.6330   -2.4430 C   0  0  0  0  0  0  0  0  0  0  0  0
    3.8600  -12.1960   -1.5840 C   0  0  0  0  0  0  0  0  0  0  0  0
    3.6740  -12.2190   -0.1890 C   0  0  0  0  0  0  0  0  0  0  0  0
    4.6990  -12.8120    0.6990 C   0  0  0  0  0  0  0  0  0  0  0  0
    4.4480  -13.8850    1.5300 C   0  0  0  0  0  0  0  0  0  0  0  0
    5.5080  -14.3240    2.2820 C   0  0  0  0  0  0  0  0  0  0  0  0
    6.7310  -13.7700    2.2380 N   0  0  0  0  0  0  0  0  0  0  0  0
    6.9020  -12.7300    1.4090 C   0  0  0  0  0  0  0  0  0  0  0  0
    8.1880  -12.2000    1.3920 N   0  0  0  0  0  0  0  0  0  0  0  0
    9.2710  -12.3080    0.5170 C   0  0  0  0  0  0  0  0  0  0  0  0
    9.0620  -12.8670   -0.7490 C   0  0  0  0  0  0  0  0  0  0  0  0
   10.1050  -12.9890   -1.6810 C   0  0  0  0  0  0  0  0  0  0  0  0
   11.4060  -12.5640   -1.3890 C   0  0  0  0  0  0  0  0  0  0  0  0
   12.4550  -12.6710   -2.2950 N   0  0  0  0  0  0  0  0  0  0  0  0
   13.3090  -11.5090   -2.5900 C   0  0  0  0  0  0  0  0  0  0  0  0
   14.6310  -11.9610   -3.2290 C   0  0  0  0  0  0  0  0  0  0  0  0
   14.4060  -12.7700   -4.3940 O   0  0  0  0  0  0  0  0  0  0  0  0
   13.6720  -13.9500   -4.0310 C   0  0  0  0  0  0  0  0  0  0  0  0
   12.3020  -13.6070   -3.4260 C   0  0  0  0  0  0  0  0  0  0  0  0
   11.6020  -11.9920   -0.1250 C   0  0  0  0  0  0  0  0  0  0  0  0
   10.5600  -11.8650    0.8070 C   0  0  0  0  0  0  0  0  0  0  0  0
    5.9220  -12.2420    0.6360 N   0  0  0  0  0  0  0  0  0  0  0  0
    2.4880  -11.6480    0.3100 C   0  0  0  0  0  0  0  0  0  0  0  0
   -1.6602  -10.0308    1.6823 H   0  0  0  0  0  0  0  0  0  0  0  0
   -2.2550  -11.7423    1.7731 H   0  0  0  0  0  0  0  0  0  0  0  0
   -0.5200  -12.4030    0.4150 H   0  0  0  0  0  0  0  0  0  0  0  0
    0.9965  -10.6347   -2.6015 H   0  0  0  0  0  0  0  0  0  0  0  0
    3.0919  -11.6254   -3.5283 H   0  0  0  0  0  0  0  0  0  0  0  0
    4.7755  -12.6330   -2.0092 H   0  0  0  0  0  0  0  0  0  0  0  0
    3.4573  -14.3597    1.5860 H   0  0  0  0  0  0  0  0  0  0  0  0
    5.3477  -15.1766    2.9583 H   0  0  0  0  0  0  0  0  0  0  0  0
    8.3020  -11.5970    2.1930 H   0  0  0  0  0  0  0  0  0  0  0  0
    8.0560  -13.2194   -1.0205 H   0  0  0  0  0  0  0  0  0  0  0  0
    9.8940  -13.4301   -2.6663 H   0  0  0  0  0  0  0  0  0  0  0  0
   12.7814  -10.8392   -3.2850 H   0  0  0  0  0  0  0  0  0  0  0  0
   13.5301  -10.9823   -1.6499 H   0  0  0  0  0  0  0  0  0  0  0  0
   15.2100  -11.0716   -3.5185 H   0  0  0  0  0  0  0  0  0  0  0  0
   15.1805  -12.5649   -2.4919 H   0  0  0  0  0  0  0  0  0  0  0  0
   13.5201  -14.5653   -4.9301 H   0  0  0  0  0  0  0  0  0  0  0  0
   14.2538  -14.4944   -3.2726 H   0  0  0  0  0  0  0  0  0  0  0  0
   11.6718  -13.1416   -4.1981 H   0  0  0  0  0  0  0  0  0  0  0  0
   11.8332  -14.5325   -3.0604 H   0  0  0  0  0  0  0  0  0  0  0  0
   12.6051  -11.6307    0.1458 H   0  0  0  0  0  0  0  0  0  0  0  0
   10.7651  -11.4067    1.7857 H   0  0  0  0  0  0  0  0  0  0  0  0
    2.3145  -11.6321    1.3961 H   0  0  0  0  0  0  0  0  0  0  0  0
  1  2  3  0
  2  3  1  0
  3  4  1  0
  4  5  1  0
  5  6  2  0
  5  7  1  0
  7  8  2  0
  8  9  1  0
  9 10  2  0
 10 11  1  0
 11 12  1  0
 12 13  2  0
 13 14  1  0
 14 15  2  0
 15 16  1  0
 16 17  1  0
 17 18  1  0
 18 19  2  0
 19 20  1  0
 20 21  2  0
 21 22  1  0
 22 23  1  0
 23 24  1  0
 24 25  1  0
 25 26  1  0
 26 27  1  0
 21 28  1  0
 28 29  2  0
 16 30  2  0
 11 31  2  0
 31  7  1  0
 30 12  1  0
 29 18  1  0
 27 22  1  0
  3 32  1  0
  3 33  1  0
  4 34  1  0
  8 35  1  0
  9 36  1  0
 10 37  1  0
 13 38  1  0
 14 39  1  0
 17 40  1  0
 19 41  1  0
 20 42  1  0
 23 43  1  0
 23 44  1  0
 24 45  1  0
 24 46  1  0
 26 47  1  0
 26 48  1  0
 27 49  1  0
 27 50  1  0
 28 51  1  0
 29 52  1  0
 31 53  1  0
M  END
>  <meeko>  (5) 
{"is_sidechain": [false], "free_energy": -7.863, "intermolecular_energy": -10.568, "internal_energy": -0.773}

$$$$
LIB_DKSMHPPLVBSAQL__M_PUB_ALL__e8__s20260927
     RDKit          3D

 53 56  0  0  0  0  0  0  0  0999 V2000
   13.2790  -11.4740   -3.1720 N   0  0  0  0  0  0  0  0  0  0  0  0
   12.8910  -11.7300   -2.1090 C   0  0  0  0  0  0  0  0  0  0  0  0
   12.3820  -12.0970   -0.7760 C   0  0  0  0  0  0  0  0  0  0  0  0
   10.9670  -11.8020   -0.6380 N   0  0  0  0  0  0  0  0  0  0  0  0
   10.0480  -12.8150   -0.4860 C   0  0  0  0  0  0  0  0  0  0  0  0
   10.3620  -14.0000   -0.4700 O   0  0  0  0  0  0  0  0  0  0  0  0
    8.6260  -12.4130   -0.2930 C   0  0  0  0  0  0  0  0  0  0  0  0
    8.1520  -11.9040    0.9190 C   0  0  0  0  0  0  0  0  0  0  0  0
    6.8120  -11.5420    1.0380 C   0  0  0  0  0  0  0  0  0  0  0  0
    5.9490  -11.6840   -0.0520 C   0  0  0  0  0  0  0  0  0  0  0  0
    6.3950  -12.1820   -1.2920 C   0  0  0  0  0  0  0  0  0  0  0  0
    5.4620  -12.3120   -2.4320 C   0  0  0  0  0  0  0  0  0  0  0  0
    4.2610  -11.6360   -2.5060 C   0  0  0  0  0  0  0  0  0  0  0  0
    3.5140  -11.8570   -3.6350 C   0  0  0  0  0  0  0  0  0  0  0  0
    3.8970  -12.6720   -4.6320 N   0  0  0  0  0  0  0  0  0  0  0  0
    5.0750  -13.2980   -4.4920 C   0  0  0  0  0  0  0  0  0  0  0  0
    5.4290  -14.1220   -5.5550 N   0  0  0  0  0  0  0  0  0  0  0  0
    6.2660  -13.9710   -6.6630 C   0  0  0  0  0  0  0  0  0  0  0  0
    5.9070  -13.0570   -7.6600 C   0  0  0  0  0  0  0  0  0  0  0  0
    6.7130  -12.8470   -8.7900 C   0  0  0  0  0  0  0  0  0  0  0  0
    7.9110  -13.5430   -8.9800 C   0  0  0  0  0  0  0  0  0  0  0  0
    8.7280  -13.3500  -10.0880 N   0  0  0  0  0  0  0  0  0  0  0  0
   10.1910  -13.4520   -9.9640 C   0  0  0  0  0  0  0  0  0  0  0  0
   10.8340  -13.6600  -11.3440 C   0  0  0  0  0  0  0  0  0  0  0  0
   10.4440  -12.6350  -12.2710 O   0  0  0  0  0  0  0  0  0  0  0  0
    9.0190  -12.6570  -12.4470 C   0  0  0  0  0  0  0  0  0  0  0  0
    8.2760  -12.4030  -11.1260 C   0  0  0  0  0  0  0  0  0  0  0  0
    8.2700  -14.4440   -7.9690 C   0  0  0  0  0  0  0  0  0  0  0  0
    7.4690  -14.6540   -6.8350 C   0  0  0  0  0  0  0  0  0  0  0  0
    5.8680  -13.1350   -3.4240 N   0  0  0  0  0  0  0  0  0  0  0  0
    7.7540  -12.5340   -1.3900 C   0  0  0  0  0  0  0  0  0  0  0  0
   12.5377  -13.1747   -0.6199 H   0  0  0  0  0  0  0  0  0  0  0  0
   12.9288  -11.5054   -0.0269 H   0  0  0  0  0  0  0  0  0  0  0  0
   10.6920  -10.8380   -0.5150 H   0  0  0  0  0  0  0  0  0  0  0  0
    8.8335  -11.7897    1.7748 H   0  0  0  0  0  0  0  0  0  0  0  0
    6.4329  -11.1440    1.9908 H   0  0  0  0  0  0  0  0  0  0  0  0
    4.8926  -11.3991    0.0614 H   0  0  0  0  0  0  0  0  0  0  0  0
    3.9228  -10.9600   -1.7069 H   0  0  0  0  0  0  0  0  0  0  0  0
    2.5484  -11.3385   -3.7292 H   0  0  0  0  0  0  0  0  0  0  0  0
    4.9760  -15.0160   -5.4390 H   0  0  0  0  0  0  0  0  0  0  0  0
    4.9706  -12.4894   -7.5557 H   0  0  0  0  0  0  0  0  0  0  0  0
    6.3936  -12.1151   -9.5465 H   0  0  0  0  0  0  0  0  0  0  0  0
   10.5821  -12.5256   -9.5182 H   0  0  0  0  0  0  0  0  0  0  0  0
   10.4350  -14.3128   -9.3240 H   0  0  0  0  0  0  0  0  0  0  0  0
   11.9283  -13.6434  -11.2337 H   0  0  0  0  0  0  0  0  0  0  0  0
   10.4926  -14.6281  -11.7392 H   0  0  0  0  0  0  0  0  0  0  0  0
    8.7375  -11.8767  -13.1694 H   0  0  0  0  0  0  0  0  0  0  0  0
    8.7353  -13.6551  -12.8120 H   0  0  0  0  0  0  0  0  0  0  0  0
    8.4763  -11.3749  -10.7900 H   0  0  0  0  0  0  0  0  0  0  0  0
    7.1978  -12.5447  -11.2915 H   0  0  0  0  0  0  0  0  0  0  0  0
    9.2107  -15.0056   -8.0668 H   0  0  0  0  0  0  0  0  0  0  0  0
    7.7970  -15.3710   -6.0679 H   0  0  0  0  0  0  0  0  0  0  0  0
    8.1433  -12.9125   -2.3466 H   0  0  0  0  0  0  0  0  0  0  0  0
  1  2  3  0
  2  3  1  0
  3  4  1  0
  4  5  1  0
  5  6  2  0
  5  7  1  0
  7  8  2  0
  8  9  1  0
  9 10  2  0
 10 11  1  0
 11 12  1  0
 12 13  2  0
 13 14  1  0
 14 15  2  0
 15 16  1  0
 16 17  1  0
 17 18  1  0
 18 19  2  0
 19 20  1  0
 20 21  2  0
 21 22  1  0
 22 23  1  0
 23 24  1  0
 24 25  1  0
 25 26  1  0
 26 27  1  0
 21 28  1  0
 28 29  2  0
 16 30  2  0
 11 31  2  0
 31  7  1  0
 30 12  1  0
 29 18  1  0
 27 22  1  0
  3 32  1  0
  3 33  1  0
  4 34  1  0
  8 35  1  0
  9 36  1  0
 10 37  1  0
 13 38  1  0
 14 39  1  0
 17 40  1  0
 19 41  1  0
 20 42  1  0
 23 43  1  0
 23 44  1  0
 24 45  1  0
 24 46  1  0
 26 47  1  0
 26 48  1  0
 27 49  1  0
 27 50  1  0
 28 51  1  0
 29 52  1  0
 31 53  1  0
M  END
>  <meeko>  (6) 
{"is_sidechain": [false], "free_energy": -7.824, "intermolecular_energy": -10.374, "internal_energy": -0.914}

$$$$
LIB_DKSMHPPLVBSAQL__M_PUB_ALL__e8__s20260927
     RDKit          3D

 53 56  0  0  0  0  0  0  0  0999 V2000
   -1.1690   -8.8180    5.5320 N   0  0  0  0  0  0  0  0  0  0  0  0
   -1.4720   -8.8240    4.4120 C   0  0  0  0  0  0  0  0  0  0  0  0
   -1.8910   -8.8630    3.0000 C   0  0  0  0  0  0  0  0  0  0  0  0
   -1.3410  -10.0130    2.3040 N   0  0  0  0  0  0  0  0  0  0  0  0
   -0.3430   -9.8600    1.3680 C   0  0  0  0  0  0  0  0  0  0  0  0
    0.1210   -8.7660    1.0660 O   0  0  0  0  0  0  0  0  0  0  0  0
    0.1980  -11.1020    0.7490 C   0  0  0  0  0  0  0  0  0  0  0  0
   -0.1680  -12.3760    1.1920 C   0  0  0  0  0  0  0  0  0  0  0  0
    0.3690  -13.5020    0.5700 C   0  0  0  0  0  0  0  0  0  0  0  0
    1.2650  -13.3550   -0.4920 C   0  0  0  0  0  0  0  0  0  0  0  0
    1.6460  -12.0870   -0.9710 C   0  0  0  0  0  0  0  0  0  0  0  0
    2.5890  -11.9610   -2.1030 C   0  0  0  0  0  0  0  0  0  0  0  0
    2.2230  -12.1680   -3.4180 C   0  0  0  0  0  0  0  0  0  0  0  0
    3.2130  -12.0000   -4.3520 C   0  0  0  0  0  0  0  0  0  0  0  0
    4.4750  -11.6560   -4.0450 N   0  0  0  0  0  0  0  0  0  0  0  0
    4.7600  -11.4740   -2.7470 C   0  0  0  0  0  0  0  0  0  0  0  0
    6.0760  -11.1070   -2.4840 N   0  0  0  0  0  0  0  0  0  0  0  0
    7.2930  -11.7930   -2.4830 C   0  0  0  0  0  0  0  0  0  0  0  0
    7.4720  -12.8490   -1.5820 C   0  0  0  0  0  0  0  0  0  0  0  0
    8.6650  -13.5880   -1.5430 C   0  0  0  0  0  0  0  0  0  0  0  0
    9.7370  -13.3030   -2.3970 C   0  0  0  0  0  0  0  0  0  0  0  0
   10.9260  -14.0210   -2.3800 N   0  0  0  0  0  0  0  0  0  0  0  0
   11.8000  -14.0490   -3.5650 C   0  0  0  0  0  0  0  0  0  0  0  0
   13.2180  -14.4940   -3.1770 C   0  0  0  0  0  0  0  0  0  0  0  0
   13.2080  -15.7540   -2.4890 O   0  0  0  0  0  0  0  0  0  0  0  0
   12.4420  -15.6410   -1.2790 C   0  0  0  0  0  0  0  0  0  0  0  0
   10.9830  -15.2490   -1.5620 C   0  0  0  0  0  0  0  0  0  0  0  0
    9.5420  -12.2540   -3.3060 C   0  0  0  0  0  0  0  0  0  0  0  0
    8.3480  -11.5160   -3.3510 C   0  0  0  0  0  0  0  0  0  0  0  0
    3.8510  -11.6110   -1.7720 N   0  0  0  0  0  0  0  0  0  0  0  0
    1.0850  -10.9650   -0.3330 C   0  0  0  0  0  0  0  0  0  0  0  0
   -2.9890   -8.9122    2.9560 H   0  0  0  0  0  0  0  0  0  0  0  0
   -1.5150   -7.9542    2.5074 H   0  0  0  0  0  0  0  0  0  0  0  0
   -1.6070  -10.9340    2.6230 H   0  0  0  0  0  0  0  0  0  0  0  0
   -0.8756  -12.4895    2.0265 H   0  0  0  0  0  0  0  0  0  0  0  0
    0.0870  -14.5075    0.9157 H   0  0  0  0  0  0  0  0  0  0  0  0
    1.6841  -14.2544   -0.9668 H   0  0  0  0  0  0  0  0  0  0  0  0
    1.1981  -12.4509   -3.6999 H   0  0  0  0  0  0  0  0  0  0  0  0
    2.9599  -12.1555   -5.4111 H   0  0  0  0  0  0  0  0  0  0  0  0
    6.1040  -10.1200   -2.2780 H   0  0  0  0  0  0  0  0  0  0  0  0
    6.6584  -13.1061   -0.8878 H   0  0  0  0  0  0  0  0  0  0  0  0
    8.7600  -14.4133   -0.8219 H   0  0  0  0  0  0  0  0  0  0  0  0
   11.3882  -14.7542   -4.3020 H   0  0  0  0  0  0  0  0  0  0  0  0
   11.8495  -13.0376   -3.9946 H   0  0  0  0  0  0  0  0  0  0  0  0
   13.8239  -14.5908   -4.0900 H   0  0  0  0  0  0  0  0  0  0  0  0
   13.6428  -13.7370   -2.5013 H   0  0  0  0  0  0  0  0  0  0  0  0
   12.4558  -16.6092   -0.7571 H   0  0  0  0  0  0  0  0  0  0  0  0
   12.8943  -14.8520   -0.6602 H   0  0  0  0  0  0  0  0  0  0  0  0
   10.4868  -16.0679   -2.1035 H   0  0  0  0  0  0  0  0  0  0  0  0
   10.4730  -15.0628   -0.6053 H   0  0  0  0  0  0  0  0  0  0  0  0
   10.3508  -12.0005   -4.0072 H   0  0  0  0  0  0  0  0  0  0  0  0
    8.2433  -10.7037   -4.0853 H   0  0  0  0  0  0  0  0  0  0  0  0
    1.3466   -9.9577   -0.6892 H   0  0  0  0  0  0  0  0  0  0  0  0
  1  2  3  0
  2  3  1  0
  3  4  1  0
  4  5  1  0
  5  6  2  0
  5  7  1  0
  7  8  2  0
  8  9  1  0
  9 10  2  0
 10 11  1  0
 11 12  1  0
 12 13  2  0
 13 14  1  0
 14 15  2  0
 15 16  1  0
 16 17  1  0
 17 18  1  0
 18 19  2  0
 19 20  1  0
 20 21  2  0
 21 22  1  0
 22 23  1  0
 23 24  1  0
 24 25  1  0
 25 26  1  0
 26 27  1  0
 21 28  1  0
 28 29  2  0
 16 30  2  0
 11 31  2  0
 31  7  1  0
 30 12  1  0
 29 18  1  0
 27 22  1  0
  3 32  1  0
  3 33  1  0
  4 34  1  0
  8 35  1  0
  9 36  1  0
 10 37  1  0
 13 38  1  0
 14 39  1  0
 17 40  1  0
 19 41  1  0
 20 42  1  0
 23 43  1  0
 23 44  1  0
 24 45  1  0
 24 46  1  0
 26 47  1  0
 26 48  1  0
 27 49  1  0
 27 50  1  0
 28 51  1  0
 29 52  1  0
 31 53  1  0
M  END
>  <meeko>  (7) 
{"is_sidechain": [false], "free_energy": -7.823, "intermolecular_energy": -10.457, "internal_energy": -0.83}

$$$$
LIB_DKSMHPPLVBSAQL__M_PUB_ALL__e8__s20260927
     RDKit          3D

 53 56  0  0  0  0  0  0  0  0999 V2000
   10.9380  -12.1030    1.2130 N   0  0  0  0  0  0  0  0  0  0  0  0
   11.7290  -11.8990    0.3880 C   0  0  0  0  0  0  0  0  0  0  0  0
   12.6980  -11.6250   -0.6860 C   0  0  0  0  0  0  0  0  0  0  0  0
   12.7390  -12.6970   -1.6650 N   0  0  0  0  0  0  0  0  0  0  0  0
   12.7110  -12.4220   -3.0130 C   0  0  0  0  0  0  0  0  0  0  0  0
   12.6410  -11.2810   -3.4560 O   0  0  0  0  0  0  0  0  0  0  0  0
   12.8150  -13.5830   -3.9410 C   0  0  0  0  0  0  0  0  0  0  0  0
   13.5210  -14.7420   -3.6090 C   0  0  0  0  0  0  0  0  0  0  0  0
   13.5800  -15.7970   -4.5170 C   0  0  0  0  0  0  0  0  0  0  0  0
   12.9330  -15.6950   -5.7520 C   0  0  0  0  0  0  0  0  0  0  0  0
   12.2040  -14.5460   -6.1140 C   0  0  0  0  0  0  0  0  0  0  0  0
   11.5200  -14.4700   -7.4240 C   0  0  0  0  0  0  0  0  0  0  0  0
   12.1920  -14.3190   -8.6190 C   0  0  0  0  0  0  0  0  0  0  0  0
   11.4130  -14.2760   -9.7470 C   0  0  0  0  0  0  0  0  0  0  0  0
   10.0730  -14.3740   -9.7290 N   0  0  0  0  0  0  0  0  0  0  0  0
    9.4860  -14.5170   -8.5320 C   0  0  0  0  0  0  0  0  0  0  0  0
    8.1000  -14.6250   -8.5690 N   0  0  0  0  0  0  0  0  0  0  0  0
    7.0660  -14.1270   -7.7730 C   0  0  0  0  0  0  0  0  0  0  0  0
    6.7630  -14.7820   -6.5730 C   0  0  0  0  0  0  0  0  0  0  0  0
    5.7470  -14.3220   -5.7210 C   0  0  0  0  0  0  0  0  0  0  0  0
    4.9820  -13.1920   -6.0290 C   0  0  0  0  0  0  0  0  0  0  0  0
    3.9730  -12.7150   -5.2010 N   0  0  0  0  0  0  0  0  0  0  0  0
    4.1150  -11.4170   -4.5210 C   0  0  0  0  0  0  0  0  0  0  0  0
    2.7440  -10.9010   -4.0570 C   0  0  0  0  0  0  0  0  0  0  0  0
    2.0660  -11.8640   -3.2360 O   0  0  0  0  0  0  0  0  0  0  0  0
    1.8450  -13.0690   -3.9840 C   0  0  0  0  0  0  0  0  0  0  0  0
    3.1660  -13.7000   -4.4540 C   0  0  0  0  0  0  0  0  0  0  0  0
    5.3030  -12.5340   -7.2240 C   0  0  0  0  0  0  0  0  0  0  0  0
    6.3220  -12.9890   -8.0770 C   0  0  0  0  0  0  0  0  0  0  0  0
   10.1730  -14.5730   -7.3820 N   0  0  0  0  0  0  0  0  0  0  0  0
   12.1520  -13.4980   -5.1770 C   0  0  0  0  0  0  0  0  0  0  0  0
   12.4126  -10.6913   -1.1928 H   0  0  0  0  0  0  0  0  0  0  0  0
   13.6960  -11.5403   -0.2312 H   0  0  0  0  0  0  0  0  0  0  0  0
   12.9290  -13.6330   -1.3370 H   0  0  0  0  0  0  0  0  0  0  0  0
   14.0276  -14.8211   -2.6358 H   0  0  0  0  0  0  0  0  0  0  0  0
   14.1362  -16.7111   -4.2619 H   0  0  0  0  0  0  0  0  0  0  0  0
   12.9950  -16.5347   -6.4598 H   0  0  0  0  0  0  0  0  0  0  0  0
   13.2881  -14.2378   -8.6647 H   0  0  0  0  0  0  0  0  0  0  0  0
   11.9125  -14.1547  -10.7195 H   0  0  0  0  0  0  0  0  0  0  0  0
    7.8370  -15.1690   -9.3770 H   0  0  0  0  0  0  0  0  0  0  0  0
    7.3349  -15.6784   -6.2914 H   0  0  0  0  0  0  0  0  0  0  0  0
    5.5468  -14.8648   -4.7855 H   0  0  0  0  0  0  0  0  0  0  0  0
    4.7720  -11.5360   -3.6468 H   0  0  0  0  0  0  0  0  0  0  0  0
    4.5490  -10.6917   -5.2249 H   0  0  0  0  0  0  0  0  0  0  0  0
    2.8879   -9.9768   -3.4780 H   0  0  0  0  0  0  0  0  0  0  0  0
    2.1273  -10.7147   -4.9486 H   0  0  0  0  0  0  0  0  0  0  0  0
    1.3125  -13.7907   -3.3472 H   0  0  0  0  0  0  0  0  0  0  0  0
    1.2518  -12.8145   -4.8747 H   0  0  0  0  0  0  0  0  0  0  0  0
    3.7349  -14.0438   -3.5775 H   0  0  0  0  0  0  0  0  0  0  0  0
    2.9390  -14.5488   -5.1158 H   0  0  0  0  0  0  0  0  0  0  0  0
    4.7387  -11.6320   -7.5030 H   0  0  0  0  0  0  0  0  0  0  0  0
    6.5368  -12.4359   -9.0033 H   0  0  0  0  0  0  0  0  0  0  0  0
   11.5788  -12.5905   -5.4176 H   0  0  0  0  0  0  0  0  0  0  0  0
  1  2  3  0
  2  3  1  0
  3  4  1  0
  4  5  1  0
  5  6  2  0
  5  7  1  0
  7  8  2  0
  8  9  1  0
  9 10  2  0
 10 11  1  0
 11 12  1  0
 12 13  2  0
 13 14  1  0
 14 15  2  0
 15 16  1  0
 16 17  1  0
 17 18  1  0
 18 19  2  0
 19 20  1  0
 20 21  2  0
 21 22  1  0
 22 23  1  0
 23 24  1  0
 24 25  1  0
 25 26  1  0
 26 27  1  0
 21 28  1  0
 28 29  2  0
 16 30  2  0
 11 31  2  0
 31  7  1  0
 30 12  1  0
 29 18  1  0
 27 22  1  0
  3 32  1  0
  3 33  1  0
  4 34  1  0
  8 35  1  0
  9 36  1  0
 10 37  1  0
 13 38  1  0
 14 39  1  0
 17 40  1  0
 19 41  1  0
 20 42  1  0
 23 43  1  0
 23 44  1  0
 24 45  1  0
 24 46  1  0
 26 47  1  0
 26 48  1  0
 27 49  1  0
 27 50  1  0
 28 51  1  0
 29 52  1  0
 31 53  1  0
M  END
>  <meeko>  (8) 
{"is_sidechain": [false], "free_energy": -7.796, "intermolecular_energy": -10.455, "internal_energy": -0.796}

$$$$
LIB_DKSMHPPLVBSAQL__M_PUB_ALL__e8__s20260927
     RDKit          3D

 53 56  0  0  0  0  0  0  0  0999 V2000
    9.9190  -11.0300  -11.8830 N   0  0  0  0  0  0  0  0  0  0  0  0
    8.8140  -10.8970  -11.5560 C   0  0  0  0  0  0  0  0  0  0  0  0
    7.4250  -10.6930  -11.1110 C   0  0  0  0  0  0  0  0  0  0  0  0
    7.1530  -11.3740   -9.8570 N   0  0  0  0  0  0  0  0  0  0  0  0
    6.7750  -12.6970   -9.8410 C   0  0  0  0  0  0  0  0  0  0  0  0
    6.6380  -13.3600  -10.8630 O   0  0  0  0  0  0  0  0  0  0  0  0
    6.5740  -13.3260   -8.5050 C   0  0  0  0  0  0  0  0  0  0  0  0
    7.3650  -14.3860   -8.0530 C   0  0  0  0  0  0  0  0  0  0  0  0
    7.1310  -14.9310   -6.7930 C   0  0  0  0  0  0  0  0  0  0  0  0
    6.1140  -14.4160   -5.9840 C   0  0  0  0  0  0  0  0  0  0  0  0
    5.3070  -13.3410   -6.4030 C   0  0  0  0  0  0  0  0  0  0  0  0
    4.2440  -12.8090   -5.5230 C   0  0  0  0  0  0  0  0  0  0  0  0
    4.1110  -11.4680   -5.2230 C   0  0  0  0  0  0  0  0  0  0  0  0
    3.0660  -11.1350   -4.4000 C   0  0  0  0  0  0  0  0  0  0  0  0
    2.2010  -12.0310   -3.8970 N   0  0  0  0  0  0  0  0  0  0  0  0
    2.3920  -13.3170   -4.2280 C   0  0  0  0  0  0  0  0  0  0  0  0
    1.4630  -14.2030   -3.6900 N   0  0  0  0  0  0  0  0  0  0  0  0
    1.3700  -14.8970   -2.4820 C   0  0  0  0  0  0  0  0  0  0  0  0
    2.4890  -15.6010   -2.0210 C   0  0  0  0  0  0  0  0  0  0  0  0
    2.4650  -16.3050   -0.8060 C   0  0  0  0  0  0  0  0  0  0  0  0
    1.3230  -16.3420    0.0020 C   0  0  0  0  0  0  0  0  0  0  0  0
    1.2750  -17.0280    1.2090 N   0  0  0  0  0  0  0  0  0  0  0  0
    2.2030  -18.1410    1.4740 C   0  0  0  0  0  0  0  0  0  0  0  0
    2.2820  -18.4270    2.9810 C   0  0  0  0  0  0  0  0  0  0  0  0
    0.9820  -18.6680    3.5430 O   0  0  0  0  0  0  0  0  0  0  0  0
    0.1540  -17.5090    3.3640 C   0  0  0  0  0  0  0  0  0  0  0  0
   -0.0340  -17.1650    1.8790 C   0  0  0  0  0  0  0  0  0  0  0  0
    0.2140  -15.6210   -0.4610 C   0  0  0  0  0  0  0  0  0  0  0  0
    0.2360  -14.9130   -1.6730 C   0  0  0  0  0  0  0  0  0  0  0  0
    3.3840  -13.7270   -5.0300 N   0  0  0  0  0  0  0  0  0  0  0  0
    5.5660  -12.8020   -7.6770 C   0  0  0  0  0  0  0  0  0  0  0  0
    7.2493   -9.6155  -10.9761 H   0  0  0  0  0  0  0  0  0  0  0  0
    6.7562  -11.1106  -11.8780 H   0  0  0  0  0  0  0  0  0  0  0  0
    7.3830  -10.8970   -8.9970 H   0  0  0  0  0  0  0  0  0  0  0  0
    8.1678  -14.7875   -8.6889 H   0  0  0  0  0  0  0  0  0  0  0  0
    7.7475  -15.7682   -6.4338 H   0  0  0  0  0  0  0  0  0  0  0  0
    5.9396  -14.8624   -4.9939 H   0  0  0  0  0  0  0  0  0  0  0  0
    4.8028  -10.7110   -5.6209 H   0  0  0  0  0  0  0  0  0  0  0  0
    2.9285  -10.0757   -4.1373 H   0  0  0  0  0  0  0  0  0  0  0  0
    0.7030  -14.3140   -4.3450 H   0  0  0  0  0  0  0  0  0  0  0  0
    3.4086  -15.6027   -2.6246 H   0  0  0  0  0  0  0  0  0  0  0  0
    3.3683  -16.8418   -0.4807 H   0  0  0  0  0  0  0  0  0  0  0  0
    1.8466  -19.0416    0.9526 H   0  0  0  0  0  0  0  0  0  0  0  0
    3.2039  -17.8644    1.1110 H   0  0  0  0  0  0  0  0  0  0  0  0
    2.9111  -19.3147    3.1433 H   0  0  0  0  0  0  0  0  0  0  0  0
    2.7124  -17.5442    3.4764 H   0  0  0  0  0  0  0  0  0  0  0  0
   -0.8317  -17.7032    3.8119 H   0  0  0  0  0  0  0  0  0  0  0  0
    0.6495  -16.6567    3.8519 H   0  0  0  0  0  0  0  0  0  0  0  0
   -0.6077  -17.9671    1.3916 H   0  0  0  0  0  0  0  0  0  0  0  0
   -0.5747  -16.2102    1.8011 H   0  0  0  0  0  0  0  0  0  0  0  0
   -0.7038  -15.6095    0.1452 H   0  0  0  0  0  0  0  0  0  0  0  0
   -0.6602  -14.3597   -1.9903 H   0  0  0  0  0  0  0  0  0  0  0  0
    4.9661  -11.9514   -8.0329 H   0  0  0  0  0  0  0  0  0  0  0  0
  1  2  3  0
  2  3  1  0
  3  4  1  0
  4  5  1  0
  5  6  2  0
  5  7  1  0
  7  8  2  0
  8  9  1  0
  9 10  2  0
 10 11  1  0
 11 12  1  0
 12 13  2  0
 13 14  1  0
 14 15  2  0
 15 16  1  0
 16 17  1  0
 17 18  1  0
 18 19  2  0
 19 20  1  0
 20 21  2  0
 21 22  1  0
 22 23  1  0
 23 24  1  0
 24 25  1  0
 25 26  1  0
 26 27  1  0
 21 28  1  0
 28 29  2  0
 16 30  2  0
 11 31  2  0
 31  7  1  0
 30 12  1  0
 29 18  1  0
 27 22  1  0
  3 32  1  0
  3 33  1  0
  4 34  1  0
  8 35  1  0
  9 36  1  0
 10 37  1  0
 13 38  1  0
 14 39  1  0
 17 40  1  0
 19 41  1  0
 20 42  1  0
 23 43  1  0
 23 44  1  0
 24 45  1  0
 24 46  1  0
 26 47  1  0
 26 48  1  0
 27 49  1  0
 27 50  1  0
 28 51  1  0
 29 52  1  0
 31 53  1  0
M  END
>  <meeko>  (9) 
{"is_sidechain": [false], "free_energy": -7.566, "intermolecular_energy": -10.149, "internal_energy": -0.791}

$$$$
