LIB_FUQDVEKSFKFAGI__M_PUB_ALL__e8__s20260927
     RDKit          3D

 65 70  0  0  0  0  0  0  0  0999 V2000
    5.5620  -14.7180   -6.0110 O   0  0  0  0  0  0  0  0  0  0  0  0
    6.0570  -13.7180   -6.5150 C   0  0  0  0  0  0  0  0  0  0  0  0
    5.7360  -12.4130   -6.1680 N   0  0  0  0  0  0  0  0  0  0  0  0
    4.8780  -11.9790   -5.1350 C   0  0  0  0  0  0  0  0  0  0  0  0
    3.8700  -11.0730   -5.4820 C   0  0  0  0  0  0  0  0  0  0  0  0
    2.9830  -10.5930   -4.5180 C   0  0  0  0  0  0  0  0  0  0  0  0
    3.0980  -11.0180   -3.1950 C   0  0  0  0  0  0  0  0  0  0  0  0
    4.0960  -11.9280   -2.8190 C   0  0  0  0  0  0  0  0  0  0  0  0
    4.2030  -12.3530   -1.3990 C   0  0  0  0  0  0  0  0  0  0  0  0
    5.4190  -12.5690   -0.8510 C   0  0  0  0  0  0  0  0  0  0  0  0
    5.4790  -12.9740    0.4650 N   0  0  0  0  0  0  0  0  0  0  0  0
    6.5280  -13.2650    1.2930 C   0  0  0  0  0  0  0  0  0  0  0  0
    5.9480  -13.6130    2.4950 C   0  0  0  0  0  0  0  0  0  0  0  0
    4.5770  -13.5470    2.4270 N   0  0  0  0  0  0  0  0  0  0  0  0
    4.3370  -13.1590    1.1900 C   0  0  0  0  0  0  0  0  0  0  0  0
    3.0510  -12.9250    0.5580 C   0  0  0  0  0  0  0  0  0  0  0  0
    1.8880  -13.1080    1.2640 N   0  0  0  0  0  0  0  0  0  0  0  0
    0.5740  -12.8770    0.7280 C   0  0  0  0  0  0  0  0  0  0  0  0
    0.0730  -11.5320    1.1840 C   0  0  0  0  0  0  0  0  0  0  0  0
   -0.8550  -11.4300    2.2250 C   0  0  0  0  0  0  0  0  0  0  0  0
   -1.2670  -10.1690    2.6250 C   0  0  0  0  0  0  0  0  0  0  0  0
   -0.8190   -9.0220    2.0720 N   0  0  0  0  0  0  0  0  0  0  0  0
    0.0870   -9.1410    1.0790 C   0  0  0  0  0  0  0  0  0  0  0  0
    0.5610  -10.3560    0.6080 C   0  0  0  0  0  0  0  0  0  0  0  0
    3.0140  -12.5420   -0.6980 N   0  0  0  0  0  0  0  0  0  0  0  0
    4.9910  -12.3880   -3.8020 C   0  0  0  0  0  0  0  0  0  0  0  0
    7.0130  -13.7270   -7.5160 N   0  0  0  0  0  0  0  0  0  0  0  0
    7.5700  -14.8400   -8.1860 C   0  0  0  0  0  0  0  0  0  0  0  0
    8.2800  -15.8620   -7.5540 C   0  0  0  0  0  0  0  0  0  0  0  0
    8.7930  -16.9310   -8.2970 C   0  0  0  0  0  0  0  0  0  0  0  0
    8.5980  -16.9950   -9.6760 C   0  0  0  0  0  0  0  0  0  0  0  0
    7.8900  -15.9840  -10.3220 C   0  0  0  0  0  0  0  0  0  0  0  0
    7.3960  -14.9070   -9.5800 C   0  0  0  0  0  0  0  0  0  0  0  0
    6.6590  -13.9150  -10.1990 O   0  0  0  0  0  0  0  0  0  0  0  0
    7.3630  -12.8750  -10.7640 C   0  0  0  0  0  0  0  0  0  0  0  0
    8.5440  -13.0490  -11.4910 C   0  0  0  0  0  0  0  0  0  0  0  0
    9.2170  -11.9340  -11.9960 C   0  0  0  0  0  0  0  0  0  0  0  0
    8.7200  -10.6510  -11.7640 C   0  0  0  0  0  0  0  0  0  0  0  0
    7.5520  -10.4790  -11.0210 C   0  0  0  0  0  0  0  0  0  0  0  0
    6.8770  -11.5900  -10.5150 C   0  0  0  0  0  0  0  0  0  0  0  0
    6.1150  -11.6890   -6.7580 H   0  0  0  0  0  0  0  0  0  0  0  0
    3.7759  -10.7359   -6.5248 H   0  0  0  0  0  0  0  0  0  0  0  0
    2.1943   -9.8805   -4.8012 H   0  0  0  0  0  0  0  0  0  0  0  0
    2.3979  -10.6350   -2.4379 H   0  0  0  0  0  0  0  0  0  0  0  0
    6.3370  -12.4254   -1.4398 H   0  0  0  0  0  0  0  0  0  0  0  0
    7.6008  -13.2293    1.0526 H   0  0  0  0  0  0  0  0  0  0  0  0
    6.5110  -13.9060    3.3934 H   0  0  0  0  0  0  0  0  0  0  0  0
    1.9810  -13.3990    2.2310 H   0  0  0  0  0  0  0  0  0  0  0  0
    0.6177  -12.8983   -0.3709 H   0  0  0  0  0  0  0  0  0  0  0  0
   -0.1095  -13.6619    1.0840 H   0  0  0  0  0  0  0  0  0  0  0  0
   -1.2496  -12.3318    2.7160 H   0  0  0  0  0  0  0  0  0  0  0  0
   -2.0018  -10.0985    3.4405 H   0  0  0  0  0  0  0  0  0  0  0  0
    0.4720   -8.2204    0.6162 H   0  0  0  0  0  0  0  0  0  0  0  0
    1.3049  -10.3934   -0.2014 H   0  0  0  0  0  0  0  0  0  0  0  0
    5.7950  -13.0825   -3.5171 H   0  0  0  0  0  0  0  0  0  0  0  0
    7.4090  -12.8400   -7.7930 H   0  0  0  0  0  0  0  0  0  0  0  0
    8.4372  -15.8269   -6.4658 H   0  0  0  0  0  0  0  0  0  0  0  0
    9.3552  -17.7281   -7.7885 H   0  0  0  0  0  0  0  0  0  0  0  0
    9.0018  -17.8408  -10.2519 H   0  0  0  0  0  0  0  0  0  0  0  0
    7.7209  -16.0327  -11.4078 H   0  0  0  0  0  0  0  0  0  0  0  0
    8.9418  -14.0597  -11.6647 H   0  0  0  0  0  0  0  0  0  0  0  0
   10.1409  -12.0677  -12.5779 H   0  0  0  0  0  0  0  0  0  0  0  0
    9.2493   -9.7750  -12.1671 H   0  0  0  0  0  0  0  0  0  0  0  0
    7.1632   -9.4671  -10.8341 H   0  0  0  0  0  0  0  0  0  0  0  0
    5.9620  -11.4537   -9.9199 H   0  0  0  0  0  0  0  0  0  0  0  0
  1  2  2  0
  2  3  1  0
  3  4  1  0
  4  5  2  0
  5  6  1  0
  6  7  2  0
  7  8  1  0
  8  9  1  0
  9 10  2  0
 10 11  1  0
 11 12  1  0
 12 13  2  0
 13 14  1  0
 14 15  2  0
 15 16  1  0
 16 17  1  0
 17 18  1  0
 18 19  1  0
 19 20  2  0
 20 21  1  0
 21 22  2  0
 22 23  1  0
 23 24  2  0
 16 25  2  0
  8 26  2  0
  2 27  1  0
 27 28  1  0
 28 29  2  0
 29 30  1  0
 30 31  2  0
 31 32  1  0
 32 33  2  0
 33 34  1  0
 34 35  1  0
 35 36  2  0
 36 37  1  0
 37 38  2  0
 38 39  1  0
 39 40  2  0
 26  4  1  0
 33 28  1  0
 40 35  1  0
 25  9  1  0
 15 11  1  0
 24 19  1  0
  3 41  1  0
  5 42  1  0
  6 43  1  0
  7 44  1  0
 10 45  1  0
 12 46  1  0
 13 47  1  0
 17 48  1  0
 18 49  1  0
 18 50  1  0
 20 51  1  0
 21 52  1  0
 23 53  1  0
 24 54  1  0
 26 55  1  0
 27 56  1  0
 29 57  1  0
 30 58  1  0
 31 59  1  0
 32 60  1  0
 36 61  1  0
 37 62  1  0
 38 63  1  0
 39 64  1  0
 40 65  1  0
M  END
>  <meeko>  (1) 
{"is_sidechain": [false], "free_energy": -9.795, "intermolecular_energy": -13.803, "internal_energy": -1.073}

$$$$
LIB_FUQDVEKSFKFAGI__M_PUB_ALL__e8__s20260927
     RDKit          3D

 65 70  0  0  0  0  0  0  0  0999 V2000
   12.1450  -11.8900   -3.7460 O   0  0  0  0  0  0  0  0  0  0  0  0
   12.5010  -12.9080   -3.1670 C   0  0  0  0  0  0  0  0  0  0  0  0
   12.8350  -14.1020   -3.7930 N   0  0  0  0  0  0  0  0  0  0  0  0
   12.9270  -14.3560   -5.1780 C   0  0  0  0  0  0  0  0  0  0  0  0
   14.1300  -14.8930   -5.6480 C   0  0  0  0  0  0  0  0  0  0  0  0
   14.3030  -15.1690   -7.0050 C   0  0  0  0  0  0  0  0  0  0  0  0
   13.2690  -14.9100   -7.9040 C   0  0  0  0  0  0  0  0  0  0  0  0
   12.0510  -14.3750   -7.4600 C   0  0  0  0  0  0  0  0  0  0  0  0
   10.9710  -14.0980   -8.4430 C   0  0  0  0  0  0  0  0  0  0  0  0
   11.2850  -13.6620   -9.6820 C   0  0  0  0  0  0  0  0  0  0  0  0
   10.2570  -13.4030  -10.5630 N   0  0  0  0  0  0  0  0  0  0  0  0
   10.2410  -12.9660  -11.8590 C   0  0  0  0  0  0  0  0  0  0  0  0
    8.9060  -12.9020  -12.1970 C   0  0  0  0  0  0  0  0  0  0  0  0
    8.1040  -13.2830  -11.1480 N   0  0  0  0  0  0  0  0  0  0  0  0
    8.9560  -13.5770  -10.1860 C   0  0  0  0  0  0  0  0  0  0  0  0
    8.6640  -14.0370   -8.8410 C   0  0  0  0  0  0  0  0  0  0  0  0
    7.3650  -14.2160   -8.4350 N   0  0  0  0  0  0  0  0  0  0  0  0
    6.9830  -14.6900   -7.1340 C   0  0  0  0  0  0  0  0  0  0  0  0
    5.9740  -13.7490   -6.5300 C   0  0  0  0  0  0  0  0  0  0  0  0
    5.6180  -12.5660   -7.1840 C   0  0  0  0  0  0  0  0  0  0  0  0
    4.6660  -11.7450   -6.6010 C   0  0  0  0  0  0  0  0  0  0  0  0
    4.0500  -12.0220   -5.4330 N   0  0  0  0  0  0  0  0  0  0  0  0
    4.3950  -13.1760   -4.8240 C   0  0  0  0  0  0  0  0  0  0  0  0
    5.3360  -14.0630   -5.3260 C   0  0  0  0  0  0  0  0  0  0  0  0
    9.6580  -14.2750   -8.0150 N   0  0  0  0  0  0  0  0  0  0  0  0
   11.9020  -14.0880   -6.0910 C   0  0  0  0  0  0  0  0  0  0  0  0
   12.6240  -13.0350   -1.7940 N   0  0  0  0  0  0  0  0  0  0  0  0
   12.3290  -12.0800   -0.7950 C   0  0  0  0  0  0  0  0  0  0  0  0
   13.1170  -10.9600   -0.5240 C   0  0  0  0  0  0  0  0  0  0  0  0
   12.7450  -10.0610    0.4830 C   0  0  0  0  0  0  0  0  0  0  0  0
   11.5820  -10.2660    1.2230 C   0  0  0  0  0  0  0  0  0  0  0  0
   10.7830  -11.3770    0.9630 C   0  0  0  0  0  0  0  0  0  0  0  0
   11.1670  -12.2840   -0.0300 C   0  0  0  0  0  0  0  0  0  0  0  0
   10.3670  -13.3710   -0.3260 O   0  0  0  0  0  0  0  0  0  0  0  0
    9.1460  -13.1070   -0.9080 C   0  0  0  0  0  0  0  0  0  0  0  0
    9.0040  -12.5490   -2.1820 C   0  0  0  0  0  0  0  0  0  0  0  0
    7.7280  -12.2770   -2.6800 C   0  0  0  0  0  0  0  0  0  0  0  0
    6.6010  -12.5470   -1.9030 C   0  0  0  0  0  0  0  0  0  0  0  0
    6.7460  -13.0850   -0.6250 C   0  0  0  0  0  0  0  0  0  0  0  0
    8.0190  -13.3590   -0.1240 C   0  0  0  0  0  0  0  0  0  0  0  0
   12.9760  -14.8970   -3.1900 H   0  0  0  0  0  0  0  0  0  0  0  0
   14.9473  -15.0997   -4.9414 H   0  0  0  0  0  0  0  0  0  0  0  0
   15.2534  -15.5901   -7.3648 H   0  0  0  0  0  0  0  0  0  0  0  0
   13.4102  -15.1277   -8.9730 H   0  0  0  0  0  0  0  0  0  0  0  0
   12.3338  -13.5173   -9.9804 H   0  0  0  0  0  0  0  0  0  0  0  0
   11.1051  -12.7193  -12.4934 H   0  0  0  0  0  0  0  0  0  0  0  0
    8.5304  -12.5861  -13.1814 H   0  0  0  0  0  0  0  0  0  0  0  0
    6.6420  -14.0200   -9.1190 H   0  0  0  0  0  0  0  0  0  0  0  0
    6.5399  -15.6927   -7.2252 H   0  0  0  0  0  0  0  0  0  0  0  0
    7.8714  -14.7376   -6.4870 H   0  0  0  0  0  0  0  0  0  0  0  0
    6.0841  -12.2923   -8.1420 H   0  0  0  0  0  0  0  0  0  0  0  0
    4.3969  -10.8135   -7.1205 H   0  0  0  0  0  0  0  0  0  0  0  0
    3.9011  -13.4279   -3.8740 H   0  0  0  0  0  0  0  0  0  0  0  0
    5.5750  -14.9927   -4.7889 H   0  0  0  0  0  0  0  0  0  0  0  0
   10.9617  -13.6445   -5.7318 H   0  0  0  0  0  0  0  0  0  0  0  0
   13.0080  -13.8980   -1.4370 H   0  0  0  0  0  0  0  0  0  0  0  0
   14.0345  -10.7829   -1.1043 H   0  0  0  0  0  0  0  0  0  0  0  0
   13.3765   -9.1849    0.6919 H   0  0  0  0  0  0  0  0  0  0  0  0
   11.2959   -9.5527    2.0100 H   0  0  0  0  0  0  0  0  0  0  0  0
    9.8572  -11.5397    1.5343 H   0  0  0  0  0  0  0  0  0  0  0  0
    9.8934  -12.3252   -2.7894 H   0  0  0  0  0  0  0  0  0  0  0  0
    7.6112  -11.8491   -3.6866 H   0  0  0  0  0  0  0  0  0  0  0  0
    5.5969  -12.3351   -2.2992 H   0  0  0  0  0  0  0  0  0  0  0  0
    5.8569  -13.2934   -0.0118 H   0  0  0  0  0  0  0  0  0  0  0  0
    8.1344  -13.7734    0.8884 H   0  0  0  0  0  0  0  0  0  0  0  0
  1  2  2  0
  2  3  1  0
  3  4  1  0
  4  5  2  0
  5  6  1  0
  6  7  2  0
  7  8  1  0
  8  9  1  0
  9 10  2  0
 10 11  1  0
 11 12  1  0
 12 13  2  0
 13 14  1  0
 14 15  2  0
 15 16  1  0
 16 17  1  0
 17 18  1  0
 18 19  1  0
 19 20  2  0
 20 21  1  0
 21 22  2  0
 22 23  1  0
 23 24  2  0
 16 25  2  0
  8 26  2  0
  2 27  1  0
 27 28  1  0
 28 29  2  0
 29 30  1  0
 30 31  2  0
 31 32  1  0
 32 33  2  0
 33 34  1  0
 34 35  1  0
 35 36  2  0
 36 37  1  0
 37 38  2  0
 38 39  1  0
 39 40  2  0
 26  4  1  0
 33 28  1  0
 40 35  1  0
 25  9  1  0
 15 11  1  0
 24 19  1  0
  3 41  1  0
  5 42  1  0
  6 43  1  0
  7 44  1  0
 10 45  1  0
 12 46  1  0
 13 47  1  0
 17 48  1  0
 18 49  1  0
 18 50  1  0
 20 51  1  0
 21 52  1  0
 23 53  1  0
 24 54  1  0
 26 55  1  0
 27 56  1  0
 29 57  1  0
 30 58  1  0
 31 59  1  0
 32 60  1  0
 36 61  1  0
 37 62  1  0
 38 63  1  0
 39 64  1  0
 40 65  1  0
M  END
>  <meeko>  (2) 
{"is_sidechain": [false], "free_energy": -9.743, "intermolecular_energy": -12.739, "internal_energy": -2.064}

$$$$
LIB_FUQDVEKSFKFAGI__M_PUB_ALL__e8__s20260927
     RDKit          3D

 65 70  0  0  0  0  0  0  0  0999 V2000
    5.2060  -14.6390   -2.4600 O   0  0  0  0  0  0  0  0  0  0  0  0
    4.7070  -15.5710   -3.0780 C   0  0  0  0  0  0  0  0  0  0  0  0
    4.1410  -16.6970   -2.4970 N   0  0  0  0  0  0  0  0  0  0  0  0
    3.9380  -16.9520   -1.1230 C   0  0  0  0  0  0  0  0  0  0  0  0
    4.9640  -17.6140   -0.4400 C   0  0  0  0  0  0  0  0  0  0  0  0
    4.8400  -17.9070    0.9180 C   0  0  0  0  0  0  0  0  0  0  0  0
    3.6850  -17.5360    1.6060 C   0  0  0  0  0  0  0  0  0  0  0  0
    2.6430  -16.8680    0.9490 C   0  0  0  0  0  0  0  0  0  0  0  0
    1.4180  -16.4960    1.7040 C   0  0  0  0  0  0  0  0  0  0  0  0
    0.9840  -17.2840    2.7110 C   0  0  0  0  0  0  0  0  0  0  0  0
   -0.1620  -16.9150    3.3810 N   0  0  0  0  0  0  0  0  0  0  0  0
   -0.8440  -17.4810    4.4240 C   0  0  0  0  0  0  0  0  0  0  0  0
   -1.9150  -16.6410    4.6470 C   0  0  0  0  0  0  0  0  0  0  0  0
   -1.9120  -15.5810    3.7710 N   0  0  0  0  0  0  0  0  0  0  0  0
   -0.8420  -15.7840    3.0290 C   0  0  0  0  0  0  0  0  0  0  0  0
   -0.3440  -14.9720    1.9340 C   0  0  0  0  0  0  0  0  0  0  0  0
   -1.0110  -13.8320    1.5570 N   0  0  0  0  0  0  0  0  0  0  0  0
   -0.5800  -12.9560    0.5030 C   0  0  0  0  0  0  0  0  0  0  0  0
   -0.7130  -11.5240    0.9520 C   0  0  0  0  0  0  0  0  0  0  0  0
   -1.8430  -11.0970    1.6550 C   0  0  0  0  0  0  0  0  0  0  0  0
   -1.9080   -9.7760    2.0680 C   0  0  0  0  0  0  0  0  0  0  0  0
   -0.9350   -8.8690    1.8390 N   0  0  0  0  0  0  0  0  0  0  0  0
    0.1550   -9.3040    1.1720 C   0  0  0  0  0  0  0  0  0  0  0  0
    0.3130  -10.6040    0.7170 C   0  0  0  0  0  0  0  0  0  0  0  0
    0.7480  -15.3420    1.3050 N   0  0  0  0  0  0  0  0  0  0  0  0
    2.7800  -16.5960   -0.4250 C   0  0  0  0  0  0  0  0  0  0  0  0
    4.6320  -15.6550   -4.4580 N   0  0  0  0  0  0  0  0  0  0  0  0
    5.1370  -14.7510   -5.4200 C   0  0  0  0  0  0  0  0  0  0  0  0
    6.4150  -14.8280   -5.9750 C   0  0  0  0  0  0  0  0  0  0  0  0
    6.8310  -13.8910   -6.9270 C   0  0  0  0  0  0  0  0  0  0  0  0
    5.9750  -12.8720   -7.3410 C   0  0  0  0  0  0  0  0  0  0  0  0
    4.6950  -12.7810   -6.7990 C   0  0  0  0  0  0  0  0  0  0  0  0
    4.2890  -13.7070   -5.8330 C   0  0  0  0  0  0  0  0  0  0  0  0
    3.0100  -13.6550   -5.3130 O   0  0  0  0  0  0  0  0  0  0  0  0
    2.7400  -12.6420   -4.4190 C   0  0  0  0  0  0  0  0  0  0  0  0
    3.0810  -11.3050   -4.6440 C   0  0  0  0  0  0  0  0  0  0  0  0
    2.8070  -10.3470   -3.6660 C   0  0  0  0  0  0  0  0  0  0  0  0
    2.2070  -10.7240   -2.4650 C   0  0  0  0  0  0  0  0  0  0  0  0
    1.8850  -12.0610   -2.2350 C   0  0  0  0  0  0  0  0  0  0  0  0
    2.1580  -13.0220   -3.2080 C   0  0  0  0  0  0  0  0  0  0  0  0
    3.8950  -17.4470   -3.1240 H   0  0  0  0  0  0  0  0  0  0  0  0
    5.8772  -17.9062   -0.9792 H   0  0  0  0  0  0  0  0  0  0  0  0
    5.6516  -18.4297    1.4453 H   0  0  0  0  0  0  0  0  0  0  0  0
    3.5909  -17.7704    2.6766 H   0  0  0  0  0  0  0  0  0  0  0  0
    1.5312  -18.1968    2.9892 H   0  0  0  0  0  0  0  0  0  0  0  0
   -0.5927  -18.4045    4.9662 H   0  0  0  0  0  0  0  0  0  0  0  0
   -2.6749  -16.7989    5.4265 H   0  0  0  0  0  0  0  0  0  0  0  0
   -1.8450  -13.5950    2.0840 H   0  0  0  0  0  0  0  0  0  0  0  0
    0.4714  -13.1670    0.2582 H   0  0  0  0  0  0  0  0  0  0  0  0
   -1.2047  -13.1199   -0.3875 H   0  0  0  0  0  0  0  0  0  0  0  0
   -2.6638  -11.7952    1.8758 H   0  0  0  0  0  0  0  0  0  0  0  0
   -2.8045   -9.4474    2.6142 H   0  0  0  0  0  0  0  0  0  0  0  0
    0.9649   -8.5853    0.9782 H   0  0  0  0  0  0  0  0  0  0  0  0
    1.2261  -10.9051    0.1825 H   0  0  0  0  0  0  0  0  0  0  0  0
    1.9605  -16.0938   -0.9599 H   0  0  0  0  0  0  0  0  0  0  0  0
    4.1220  -16.4320   -4.8530 H   0  0  0  0  0  0  0  0  0  0  0  0
    7.0995  -15.6302   -5.6621 H   0  0  0  0  0  0  0  0  0  0  0  0
    7.8430  -13.9592   -7.3527 H   0  0  0  0  0  0  0  0  0  0  0  0
    6.3090  -12.1421   -8.0931 H   0  0  0  0  0  0  0  0  0  0  0  0
    4.0089  -11.9868   -7.1284 H   0  0  0  0  0  0  0  0  0  0  0  0
    3.5631  -11.0091   -5.5874 H   0  0  0  0  0  0  0  0  0  0  0  0
    3.0650   -9.2925   -3.8433 H   0  0  0  0  0  0  0  0  0  0  0  0
    1.9876   -9.9661   -1.6985 H   0  0  0  0  0  0  0  0  0  0  0  0
    1.4154  -12.3579   -1.2856 H   0  0  0  0  0  0  0  0  0  0  0  0
    1.9150  -14.0785   -3.0216 H   0  0  0  0  0  0  0  0  0  0  0  0
  1  2  2  0
  2  3  1  0
  3  4  1  0
  4  5  2  0
  5  6  1  0
  6  7  2  0
  7  8  1  0
  8  9  1  0
  9 10  2  0
 10 11  1  0
 11 12  1  0
 12 13  2  0
 13 14  1  0
 14 15  2  0
 15 16  1  0
 16 17  1  0
 17 18  1  0
 18 19  1  0
 19 20  2  0
 20 21  1  0
 21 22  2  0
 22 23  1  0
 23 24  2  0
 16 25  2  0
  8 26  2  0
  2 27  1  0
 27 28  1  0
 28 29  2  0
 29 30  1  0
 30 31  2  0
 31 32  1  0
 32 33  2  0
 33 34  1  0
 34 35  1  0
 35 36  2  0
 36 37  1  0
 37 38  2  0
 38 39  1  0
 39 40  2  0
 26  4  1  0
 33 28  1  0
 40 35  1  0
 25  9  1  0
 15 11  1  0
 24 19  1  0
  3 41  1  0
  5 42  1  0
  6 43  1  0
  7 44  1  0
 10 45  1  0
 12 46  1  0
 13 47  1  0
 17 48  1  0
 18 49  1  0
 18 50  1  0
 20 51  1  0
 21 52  1  0
 23 53  1  0
 24 54  1  0
 26 55  1  0
 27 56  1  0
 29 57  1  0
 30 58  1  0
 31 59  1  0
 32 60  1  0
 36 61  1  0
 37 62  1  0
 38 63  1  0
 39 64  1  0
 40 65  1  0
M  END
>  <meeko>  (3) 
{"is_sidechain": [false], "free_energy": -9.54, "intermolecular_energy": -12.674, "internal_energy": -1.843}

$$$$
LIB_FUQDVEKSFKFAGI__M_PUB_ALL__e8__s20260927
     RDKit          3D

 65 70  0  0  0  0  0  0  0  0999 V2000
    5.9330  -15.1160   -5.6810 O   0  0  0  0  0  0  0  0  0  0  0  0
    6.0010  -14.0200   -6.2220 C   0  0  0  0  0  0  0  0  0  0  0  0
    6.9150  -13.6770   -7.2080 N   0  0  0  0  0  0  0  0  0  0  0  0
    7.8570  -14.5150   -7.8440 C   0  0  0  0  0  0  0  0  0  0  0  0
    7.3720  -15.3890   -8.8230 C   0  0  0  0  0  0  0  0  0  0  0  0
    8.2370  -16.2520   -9.4960 C   0  0  0  0  0  0  0  0  0  0  0  0
    9.5980  -16.2470   -9.1930 C   0  0  0  0  0  0  0  0  0  0  0  0
   10.1120  -15.3790   -8.2200 C   0  0  0  0  0  0  0  0  0  0  0  0
   11.5650  -15.4040   -7.9090 C   0  0  0  0  0  0  0  0  0  0  0  0
   12.4660  -15.5060   -8.9110 C   0  0  0  0  0  0  0  0  0  0  0  0
   13.8040  -15.5380   -8.5850 N   0  0  0  0  0  0  0  0  0  0  0  0
   14.9370  -15.6290   -9.3470 C   0  0  0  0  0  0  0  0  0  0  0  0
   15.9770  -15.6140   -8.4410 C   0  0  0  0  0  0  0  0  0  0  0  0
   15.5160  -15.5190   -7.1500 N   0  0  0  0  0  0  0  0  0  0  0  0
   14.2060  -15.4750   -7.2810 C   0  0  0  0  0  0  0  0  0  0  0  0
   13.2030  -15.3780   -6.2360 C   0  0  0  0  0  0  0  0  0  0  0  0
   13.5800  -15.3180   -4.9170 N   0  0  0  0  0  0  0  0  0  0  0  0
   12.6600  -15.1950   -3.8200 C   0  0  0  0  0  0  0  0  0  0  0  0
   12.7740  -13.8190   -3.2180 C   0  0  0  0  0  0  0  0  0  0  0  0
   11.8870  -13.3980   -2.2220 C   0  0  0  0  0  0  0  0  0  0  0  0
   12.0480  -12.1330   -1.6820 C   0  0  0  0  0  0  0  0  0  0  0  0
   13.0210  -11.2750   -2.0540 N   0  0  0  0  0  0  0  0  0  0  0  0
   13.8770  -11.7050   -3.0050 C   0  0  0  0  0  0  0  0  0  0  0  0
   13.7990  -12.9520   -3.6070 C   0  0  0  0  0  0  0  0  0  0  0  0
   11.9320  -15.3510   -6.5670 N   0  0  0  0  0  0  0  0  0  0  0  0
    9.2220  -14.5280   -7.5410 C   0  0  0  0  0  0  0  0  0  0  0  0
    5.1820  -12.9430   -5.9310 N   0  0  0  0  0  0  0  0  0  0  0  0
    4.1630  -12.8540   -4.9550 C   0  0  0  0  0  0  0  0  0  0  0  0
    2.8960  -13.4220   -5.0910 C   0  0  0  0  0  0  0  0  0  0  0  0
    1.9480  -13.2880   -4.0690 C   0  0  0  0  0  0  0  0  0  0  0  0
    2.2570  -12.5930   -2.9010 C   0  0  0  0  0  0  0  0  0  0  0  0
    3.5180  -12.0230   -2.7490 C   0  0  0  0  0  0  0  0  0  0  0  0
    4.4570  -12.1400   -3.7790 C   0  0  0  0  0  0  0  0  0  0  0  0
    5.7250  -11.6130   -3.6290 O   0  0  0  0  0  0  0  0  0  0  0  0
    6.5270  -12.1810   -2.6640 C   0  0  0  0  0  0  0  0  0  0  0  0
    6.8070  -13.5490   -2.6010 C   0  0  0  0  0  0  0  0  0  0  0  0
    7.5980  -14.0470   -1.5640 C   0  0  0  0  0  0  0  0  0  0  0  0
    8.0960  -13.1850   -0.5870 C   0  0  0  0  0  0  0  0  0  0  0  0
    7.8000  -11.8240   -0.6410 C   0  0  0  0  0  0  0  0  0  0  0  0
    7.0090  -11.3220   -1.6750 C   0  0  0  0  0  0  0  0  0  0  0  0
    6.9500  -12.7030   -7.4640 H   0  0  0  0  0  0  0  0  0  0  0  0
    6.2988  -15.3957   -9.0642 H   0  0  0  0  0  0  0  0  0  0  0  0
    7.8461  -16.9352  -10.2644 H   0  0  0  0  0  0  0  0  0  0  0  0
   10.2758  -16.9319   -9.7235 H   0  0  0  0  0  0  0  0  0  0  0  0
   12.1394  -15.5620   -9.9599 H   0  0  0  0  0  0  0  0  0  0  0  0
   15.0038  -15.6989  -10.4427 H   0  0  0  0  0  0  0  0  0  0  0  0
   17.0403  -15.6709   -8.7169 H   0  0  0  0  0  0  0  0  0  0  0  0
   14.5760  -15.3370   -4.7250 H   0  0  0  0  0  0  0  0  0  0  0  0
   11.6337  -15.3519   -4.1834 H   0  0  0  0  0  0  0  0  0  0  0  0
   12.8990  -15.9494   -3.0559 H   0  0  0  0  0  0  0  0  0  0  0  0
   11.0783  -14.0579   -1.8748 H   0  0  0  0  0  0  0  0  0  0  0  0
   11.3412  -11.8084   -0.9041 H   0  0  0  0  0  0  0  0  0  0  0  0
   14.6834  -11.0269   -3.3209 H   0  0  0  0  0  0  0  0  0  0  0  0
   14.5281  -13.2522   -4.3740 H   0  0  0  0  0  0  0  0  0  0  0  0
    9.6069  -13.8598   -6.7566 H   0  0  0  0  0  0  0  0  0  0  0  0
    5.2770  -12.1150   -6.5020 H   0  0  0  0  0  0  0  0  0  0  0  0
    2.6405  -13.9777   -6.0053 H   0  0  0  0  0  0  0  0  0  0  0  0
    0.9503  -13.7354   -4.1891 H   0  0  0  0  0  0  0  0  0  0  0  0
    1.5072  -12.4952   -2.1021 H   0  0  0  0  0  0  0  0  0  0  0  0
    3.7742  -11.4841   -1.8249 H   0  0  0  0  0  0  0  0  0  0  0  0
    6.4057  -14.2305   -3.3655 H   0  0  0  0  0  0  0  0  0  0  0  0
    7.8290  -15.1215   -1.5173 H   0  0  0  0  0  0  0  0  0  0  0  0
    8.7226  -13.5795    0.2265 H   0  0  0  0  0  0  0  0  0  0  0  0
    8.1902  -11.1454    0.1319 H   0  0  0  0  0  0  0  0  0  0  0  0
    6.7654  -10.2499   -1.7108 H   0  0  0  0  0  0  0  0  0  0  0  0
  1  2  2  0
  2  3  1  0
  3  4  1  0
  4  5  2  0
  5  6  1  0
  6  7  2  0
  7  8  1  0
  8  9  1  0
  9 10  2  0
 10 11  1  0
 11 12  1  0
 12 13  2  0
 13 14  1  0
 14 15  2  0
 15 16  1  0
 16 17  1  0
 17 18  1  0
 18 19  1  0
 19 20  2  0
 20 21  1  0
 21 22  2  0
 22 23  1  0
 23 24  2  0
 16 25  2  0
  8 26  2  0
  2 27  1  0
 27 28  1  0
 28 29  2  0
 29 30  1  0
 30 31  2  0
 31 32  1  0
 32 33  2  0
 33 34  1  0
 34 35  1  0
 35 36  2  0
 36 37  1  0
 37 38  2  0
 38 39  1  0
 39 40  2  0
 26  4  1  0
 33 28  1  0
 40 35  1  0
 25  9  1  0
 15 11  1  0
 24 19  1  0
  3 41  1  0
  5 42  1  0
  6 43  1  0
  7 44  1  0
 10 45  1  0
 12 46  1  0
 13 47  1  0
 17 48  1  0
 18 49  1  0
 18 50  1  0
 20 51  1  0
 21 52  1  0
 23 53  1  0
 24 54  1  0
 26 55  1  0
 27 56  1  0
 29 57  1  0
 30 58  1  0
 31 59  1  0
 32 60  1  0
 36 61  1  0
 37 62  1  0
 38 63  1  0
 39 64  1  0
 40 65  1  0
M  END
>  <meeko>  (4) 
{"is_sidechain": [false], "free_energy": -9.497, "intermolecular_energy": -12.312, "internal_energy": -2.145}

$$$$
LIB_FUQDVEKSFKFAGI__M_PUB_ALL__e8__s20260927
     RDKit          3D

 65 70  0  0  0  0  0  0  0  0999 V2000
    4.3100  -14.1050   -5.8060 O   0  0  0  0  0  0  0  0  0  0  0  0
    5.2230  -13.2970   -5.6930 C   0  0  0  0  0  0  0  0  0  0  0  0
    5.1700  -12.1410   -4.9270 N   0  0  0  0  0  0  0  0  0  0  0  0
    4.1310  -11.7190   -4.0690 C   0  0  0  0  0  0  0  0  0  0  0  0
    3.4370  -10.5600   -4.4320 C   0  0  0  0  0  0  0  0  0  0  0  0
    2.4000  -10.0740   -3.6360 C   0  0  0  0  0  0  0  0  0  0  0  0
    2.0470  -10.7480   -2.4680 C   0  0  0  0  0  0  0  0  0  0  0  0
    2.7220  -11.9140   -2.0810 C   0  0  0  0  0  0  0  0  0  0  0  0
    2.3330  -12.6040   -0.8240 C   0  0  0  0  0  0  0  0  0  0  0  0
    2.9460  -13.7540   -0.4700 C   0  0  0  0  0  0  0  0  0  0  0  0
    2.5510  -14.3730    0.6960 N   0  0  0  0  0  0  0  0  0  0  0  0
    2.9670  -15.5170    1.3190 C   0  0  0  0  0  0  0  0  0  0  0  0
    2.1880  -15.6080    2.4550 C   0  0  0  0  0  0  0  0  0  0  0  0
    1.3090  -14.5560    2.5440 N   0  0  0  0  0  0  0  0  0  0  0  0
    1.5600  -13.8370    1.4680 C   0  0  0  0  0  0  0  0  0  0  0  0
    0.9210  -12.6050    1.0440 C   0  0  0  0  0  0  0  0  0  0  0  0
   -0.0810  -12.0480    1.8000 N   0  0  0  0  0  0  0  0  0  0  0  0
   -0.7520  -10.8200    1.4720 C   0  0  0  0  0  0  0  0  0  0  0  0
   -2.1130  -11.1260    0.9040 C   0  0  0  0  0  0  0  0  0  0  0  0
   -2.6680  -10.3210   -0.0960 C   0  0  0  0  0  0  0  0  0  0  0  0
   -3.9120  -10.6580   -0.6050 C   0  0  0  0  0  0  0  0  0  0  0  0
   -4.6260  -11.7280   -0.1970 N   0  0  0  0  0  0  0  0  0  0  0  0
   -4.0670  -12.5020    0.7570 C   0  0  0  0  0  0  0  0  0  0  0  0
   -2.8290  -12.2490    1.3290 C   0  0  0  0  0  0  0  0  0  0  0  0
    1.3090  -12.0320   -0.0720 N   0  0  0  0  0  0  0  0  0  0  0  0
    3.7760  -12.3790   -2.8880 C   0  0  0  0  0  0  0  0  0  0  0  0
    6.4540  -13.4030   -6.3180 N   0  0  0  0  0  0  0  0  0  0  0  0
    6.8950  -14.3940   -7.2240 C   0  0  0  0  0  0  0  0  0  0  0  0
    7.3170  -15.6690   -6.8470 C   0  0  0  0  0  0  0  0  0  0  0  0
    7.7340  -16.5910   -7.8140 C   0  0  0  0  0  0  0  0  0  0  0  0
    7.7280  -16.2520   -9.1660 C   0  0  0  0  0  0  0  0  0  0  0  0
    7.3070  -14.9840   -9.5600 C   0  0  0  0  0  0  0  0  0  0  0  0
    6.9100  -14.0580   -8.5900 C   0  0  0  0  0  0  0  0  0  0  0  0
    6.4550  -12.8090   -8.9650 O   0  0  0  0  0  0  0  0  0  0  0  0
    7.2130  -12.1190   -9.8850 C   0  0  0  0  0  0  0  0  0  0  0  0
    8.4280  -12.5890  -10.3900 C   0  0  0  0  0  0  0  0  0  0  0  0
    9.1540  -11.8050  -11.2900 C   0  0  0  0  0  0  0  0  0  0  0  0
    8.6740  -10.5520  -11.6730 C   0  0  0  0  0  0  0  0  0  0  0  0
    7.4700  -10.0770  -11.1530 C   0  0  0  0  0  0  0  0  0  0  0  0
    6.7430  -10.8560  -10.2530 C   0  0  0  0  0  0  0  0  0  0  0  0
    5.9390  -11.4990   -5.0350 H   0  0  0  0  0  0  0  0  0  0  0  0
    3.7118  -10.0268   -5.3541 H   0  0  0  0  0  0  0  0  0  0  0  0
    1.8617   -9.1606   -3.9293 H   0  0  0  0  0  0  0  0  0  0  0  0
    1.2292  -10.3604   -1.8427 H   0  0  0  0  0  0  0  0  0  0  0  0
    3.7405  -14.1856   -1.0965 H   0  0  0  0  0  0  0  0  0  0  0  0
    3.7515  -16.2131    0.9872 H   0  0  0  0  0  0  0  0  0  0  0  0
    2.2617  -16.4191    3.1944 H   0  0  0  0  0  0  0  0  0  0  0  0
   -0.3330  -12.5330    2.6540 H   0  0  0  0  0  0  0  0  0  0  0  0
   -0.8628  -10.2092    2.3801 H   0  0  0  0  0  0  0  0  0  0  0  0
   -0.1604  -10.2672    0.7273 H   0  0  0  0  0  0  0  0  0  0  0  0
   -2.1283   -9.4388   -0.4706 H   0  0  0  0  0  0  0  0  0  0  0  0
   -4.3427  -10.0158   -1.3874 H   0  0  0  0  0  0  0  0  0  0  0  0
   -4.6258  -13.3849    1.1009 H   0  0  0  0  0  0  0  0  0  0  0  0
   -2.4194  -12.9176    2.1005 H   0  0  0  0  0  0  0  0  0  0  0  0
    4.3315  -13.2786   -2.5846 H   0  0  0  0  0  0  0  0  0  0  0  0
    7.1580  -12.7180   -6.0820 H   0  0  0  0  0  0  0  0  0  0  0  0
    7.3221  -15.9514   -5.7839 H   0  0  0  0  0  0  0  0  0  0  0  0
    8.0694  -17.5918   -7.5043 H   0  0  0  0  0  0  0  0  0  0  0  0
    8.0548  -16.9836   -9.9196 H   0  0  0  0  0  0  0  0  0  0  0  0
    7.2869  -14.7131  -10.6259 H   0  0  0  0  0  0  0  0  0  0  0  0
    8.8114  -13.5724  -10.0802 H   0  0  0  0  0  0  0  0  0  0  0  0
   10.1059  -12.1762  -11.6975 H   0  0  0  0  0  0  0  0  0  0  0  0
    9.2453   -9.9386  -12.3853 H   0  0  0  0  0  0  0  0  0  0  0  0
    7.0938   -9.0878  -11.4528 H   0  0  0  0  0  0  0  0  0  0  0  0
    5.8000  -10.4760   -9.8332 H   0  0  0  0  0  0  0  0  0  0  0  0
  1  2  2  0
  2  3  1  0
  3  4  1  0
  4  5  2  0
  5  6  1  0
  6  7  2  0
  7  8  1  0
  8  9  1  0
  9 10  2  0
 10 11  1  0
 11 12  1  0
 12 13  2  0
 13 14  1  0
 14 15  2  0
 15 16  1  0
 16 17  1  0
 17 18  1  0
 18 19  1  0
 19 20  2  0
 20 21  1  0
 21 22  2  0
 22 23  1  0
 23 24  2  0
 16 25  2  0
  8 26  2  0
  2 27  1  0
 27 28  1  0
 28 29  2  0
 29 30  1  0
 30 31  2  0
 31 32  1  0
 32 33  2  0
 33 34  1  0
 34 35  1  0
 35 36  2  0
 36 37  1  0
 37 38  2  0
 38 39  1  0
 39 40  2  0
 26  4  1  0
 33 28  1  0
 40 35  1  0
 25  9  1  0
 15 11  1  0
 24 19  1  0
  3 41  1  0
  5 42  1  0
  6 43  1  0
  7 44  1  0
 10 45  1  0
 12 46  1  0
 13 47  1  0
 17 48  1  0
 18 49  1  0
 18 50  1  0
 20 51  1  0
 21 52  1  0
 23 53  1  0
 24 54  1  0
 26 55  1  0
 27 56  1  0
 29 57  1  0
 30 58  1  0
 31 59  1  0
 32 60  1  0
 36 61  1  0
 37 62  1  0
 38 63  1  0
 39 64  1  0
 40 65  1  0
M  END
>  <meeko>  (5) 
{"is_sidechain": [false], "free_energy": -9.495, "intermolecular_energy": -13.698, "internal_energy": -0.755}

$$$$
LIB_FUQDVEKSFKFAGI__M_PUB_ALL__e8__s20260927
     RDKit          3D

 65 70  0  0  0  0  0  0  0  0999 V2000
    8.0320  -15.1850   -4.5860 O   0  0  0  0  0  0  0  0  0  0  0  0
    8.3980  -14.0200   -4.6760 C   0  0  0  0  0  0  0  0  0  0  0  0
    7.5480  -12.9280   -4.7790 N   0  0  0  0  0  0  0  0  0  0  0  0
    6.1390  -12.9180   -4.7050 C   0  0  0  0  0  0  0  0  0  0  0  0
    5.4380  -13.3070   -5.8520 C   0  0  0  0  0  0  0  0  0  0  0  0
    4.0430  -13.3210   -5.8620 C   0  0  0  0  0  0  0  0  0  0  0  0
    3.3370  -12.9460   -4.7200 C   0  0  0  0  0  0  0  0  0  0  0  0
    4.0120  -12.5560   -3.5550 C   0  0  0  0  0  0  0  0  0  0  0  0
    3.2330  -12.1500   -2.3570 C   0  0  0  0  0  0  0  0  0  0  0  0
    2.2630  -11.2160   -2.4690 C   0  0  0  0  0  0  0  0  0  0  0  0
    1.5690  -10.8550   -1.3350 N   0  0  0  0  0  0  0  0  0  0  0  0
    0.5530   -9.9650   -1.1200 C   0  0  0  0  0  0  0  0  0  0  0  0
    0.2830  -10.0520    0.2300 C   0  0  0  0  0  0  0  0  0  0  0  0
    1.1050  -10.9640    0.8470 N   0  0  0  0  0  0  0  0  0  0  0  0
    1.8620  -11.4240   -0.1280 C   0  0  0  0  0  0  0  0  0  0  0  0
    2.9190  -12.4160   -0.0520 C   0  0  0  0  0  0  0  0  0  0  0  0
    3.2350  -13.0010    1.1500 N   0  0  0  0  0  0  0  0  0  0  0  0
    4.2470  -14.0070    1.3160 C   0  0  0  0  0  0  0  0  0  0  0  0
    5.5990  -13.4190    1.0100 C   0  0  0  0  0  0  0  0  0  0  0  0
    6.4530  -14.0300    0.0870 C   0  0  0  0  0  0  0  0  0  0  0  0
    7.6760  -13.4360   -0.1800 C   0  0  0  0  0  0  0  0  0  0  0  0
    8.0960  -12.2900    0.3960 N   0  0  0  0  0  0  0  0  0  0  0  0
    7.2520  -11.7060    1.2720 C   0  0  0  0  0  0  0  0  0  0  0  0
    6.0090  -12.2220    1.6050 C   0  0  0  0  0  0  0  0  0  0  0  0
    3.5710  -12.7450   -1.1440 N   0  0  0  0  0  0  0  0  0  0  0  0
    5.4190  -12.5320   -3.5700 C   0  0  0  0  0  0  0  0  0  0  0  0
    9.7190  -13.6050   -4.6950 N   0  0  0  0  0  0  0  0  0  0  0  0
   10.8880  -14.3990   -4.6680 C   0  0  0  0  0  0  0  0  0  0  0  0
   11.5150  -14.9100   -5.8050 C   0  0  0  0  0  0  0  0  0  0  0  0
   12.6750  -15.6840   -5.6860 C   0  0  0  0  0  0  0  0  0  0  0  0
   13.2240  -15.9500   -4.4330 C   0  0  0  0  0  0  0  0  0  0  0  0
   12.6120  -15.4450   -3.2880 C   0  0  0  0  0  0  0  0  0  0  0  0
   11.4420  -14.6890   -3.4090 C   0  0  0  0  0  0  0  0  0  0  0  0
   10.8430  -14.1490   -2.2870 O   0  0  0  0  0  0  0  0  0  0  0  0
   11.5680  -13.2120   -1.5820 C   0  0  0  0  0  0  0  0  0  0  0  0
   12.3350  -12.2140   -2.1910 C   0  0  0  0  0  0  0  0  0  0  0  0
   13.0720  -11.3290   -1.4010 C   0  0  0  0  0  0  0  0  0  0  0  0
   13.0530  -11.4490   -0.0110 C   0  0  0  0  0  0  0  0  0  0  0  0
   12.3020  -12.4570    0.5930 C   0  0  0  0  0  0  0  0  0  0  0  0
   11.5650  -13.3430   -0.1920 C   0  0  0  0  0  0  0  0  0  0  0  0
    7.9840  -12.0430   -4.9860 H   0  0  0  0  0  0  0  0  0  0  0  0
    5.9922  -13.6046   -6.7544 H   0  0  0  0  0  0  0  0  0  0  0  0
    3.5014  -13.6273   -6.7691 H   0  0  0  0  0  0  0  0  0  0  0  0
    2.2371  -12.9563   -4.7332 H   0  0  0  0  0  0  0  0  0  0  0  0
    2.0333  -10.7555   -3.4412 H   0  0  0  0  0  0  0  0  0  0  0  0
    0.0589   -9.3204   -1.8618 H   0  0  0  0  0  0  0  0  0  0  0  0
   -0.4915   -9.4661    0.7466 H   0  0  0  0  0  0  0  0  0  0  0  0
    2.6930  -12.7100    1.9560 H   0  0  0  0  0  0  0  0  0  0  0  0
    4.2331  -14.3725    2.3534 H   0  0  0  0  0  0  0  0  0  0  0  0
    4.0479  -14.8423    0.6285 H   0  0  0  0  0  0  0  0  0  0  0  0
    6.1601  -14.9629   -0.4168 H   0  0  0  0  0  0  0  0  0  0  0  0
    8.3434  -13.9270   -0.9035 H   0  0  0  0  0  0  0  0  0  0  0  0
    7.5683  -10.7667    1.7492 H   0  0  0  0  0  0  0  0  0  0  0  0
    5.3587  -11.7004    2.3226 H   0  0  0  0  0  0  0  0  0  0  0  0
    5.9627  -12.2034   -2.6720 H   0  0  0  0  0  0  0  0  0  0  0  0
    9.8960  -12.6110   -4.6880 H   0  0  0  0  0  0  0  0  0  0  0  0
   11.0952  -14.7033   -6.8005 H   0  0  0  0  0  0  0  0  0  0  0  0
   13.1575  -16.0858   -6.5892 H   0  0  0  0  0  0  0  0  0  0  0  0
   14.1376  -16.5567   -4.3484 H   0  0  0  0  0  0  0  0  0  0  0  0
   13.0459  -15.6395   -2.2961 H   0  0  0  0  0  0  0  0  0  0  0  0
   12.3578  -12.1263   -3.2873 H   0  0  0  0  0  0  0  0  0  0  0  0
   13.6685  -10.5359   -1.8755 H   0  0  0  0  0  0  0  0  0  0  0  0
   13.6309  -10.7479    0.6090 H   0  0  0  0  0  0  0  0  0  0  0  0
   12.2910  -12.5531    1.6887 H   0  0  0  0  0  0  0  0  0  0  0  0
   10.9814  -14.1449    0.2838 H   0  0  0  0  0  0  0  0  0  0  0  0
  1  2  2  0
  2  3  1  0
  3  4  1  0
  4  5  2  0
  5  6  1  0
  6  7  2  0
  7  8  1  0
  8  9  1  0
  9 10  2  0
 10 11  1  0
 11 12  1  0
 12 13  2  0
 13 14  1  0
 14 15  2  0
 15 16  1  0
 16 17  1  0
 17 18  1  0
 18 19  1  0
 19 20  2  0
 20 21  1  0
 21 22  2  0
 22 23  1  0
 23 24  2  0
 16 25  2  0
  8 26  2  0
  2 27  1  0
 27 28  1  0
 28 29  2  0
 29 30  1  0
 30 31  2  0
 31 32  1  0
 32 33  2  0
 33 34  1  0
 34 35  1  0
 35 36  2  0
 36 37  1  0
 37 38  2  0
 38 39  1  0
 39 40  2  0
 26  4  1  0
 33 28  1  0
 40 35  1  0
 25  9  1  0
 15 11  1  0
 24 19  1  0
  3 41  1  0
  5 42  1  0
  6 43  1  0
  7 44  1  0
 10 45  1  0
 12 46  1  0
 13 47  1  0
 17 48  1  0
 18 49  1  0
 18 50  1  0
 20 51  1  0
 21 52  1  0
 23 53  1  0
 24 54  1  0
 26 55  1  0
 27 56  1  0
 29 57  1  0
 30 58  1  0
 31 59  1  0
 32 60  1  0
 36 61  1  0
 37 62  1  0
 38 63  1  0
 39 64  1  0
 40 65  1  0
M  END
>  <meeko>  (6) 
{"is_sidechain": [false], "free_energy": -9.319, "intermolecular_energy": -12.487, "internal_energy": -1.719}

$$$$
LIB_FUQDVEKSFKFAGI__M_PUB_ALL__e8__s20260927
     RDKit          3D

 65 70  0  0  0  0  0  0  0  0999 V2000
    3.4190  -14.3590    2.4620 O   0  0  0  0  0  0  0  0  0  0  0  0
    3.4550  -15.1920    1.5660 C   0  0  0  0  0  0  0  0  0  0  0  0
    2.7410  -16.3820    1.5600 N   0  0  0  0  0  0  0  0  0  0  0  0
    1.7840  -16.8220    2.5000 C   0  0  0  0  0  0  0  0  0  0  0  0
    2.1640  -17.8610    3.3570 C   0  0  0  0  0  0  0  0  0  0  0  0
    1.2740  -18.3540    4.3120 C   0  0  0  0  0  0  0  0  0  0  0  0
   -0.0050  -17.8100    4.4170 C   0  0  0  0  0  0  0  0  0  0  0  0
   -0.4110  -16.7660    3.5750 C   0  0  0  0  0  0  0  0  0  0  0  0
   -1.7850  -16.2130    3.7020 C   0  0  0  0  0  0  0  0  0  0  0  0
   -2.6420  -16.7410    4.6030 C   0  0  0  0  0  0  0  0  0  0  0  0
   -3.9110  -16.2120    4.6840 N   0  0  0  0  0  0  0  0  0  0  0  0
   -4.9870  -16.5120    5.4740 C   0  0  0  0  0  0  0  0  0  0  0  0
   -5.9730  -15.6300    5.0850 C   0  0  0  0  0  0  0  0  0  0  0  0
   -5.5350  -14.8020    4.0790 N   0  0  0  0  0  0  0  0  0  0  0  0
   -4.2920  -15.1840    3.8690 C   0  0  0  0  0  0  0  0  0  0  0  0
   -3.3410  -14.6540    2.9080 C   0  0  0  0  0  0  0  0  0  0  0  0
   -3.6990  -13.6240    2.0740 N   0  0  0  0  0  0  0  0  0  0  0  0
   -2.8190  -13.0210    1.1120 C   0  0  0  0  0  0  0  0  0  0  0  0
   -2.4730  -11.6230    1.5520 C   0  0  0  0  0  0  0  0  0  0  0  0
   -2.8130  -10.5200    0.7630 C   0  0  0  0  0  0  0  0  0  0  0  0
   -2.4960   -9.2520    1.2230 C   0  0  0  0  0  0  0  0  0  0  0  0
   -1.8780   -9.0120    2.3980 N   0  0  0  0  0  0  0  0  0  0  0  0
   -1.5720  -10.0880    3.1530 C   0  0  0  0  0  0  0  0  0  0  0  0
   -1.8470  -11.3950    2.7810 C   0  0  0  0  0  0  0  0  0  0  0  0
   -2.1370  -15.1750    2.8430 N   0  0  0  0  0  0  0  0  0  0  0  0
    0.4940  -16.2920    2.6080 C   0  0  0  0  0  0  0  0  0  0  0  0
    4.2180  -15.0850    0.4160 N   0  0  0  0  0  0  0  0  0  0  0  0
    5.1250  -14.0610    0.0580 C   0  0  0  0  0  0  0  0  0  0  0  0
    6.4420  -13.9860    0.5130 C   0  0  0  0  0  0  0  0  0  0  0  0
    7.2740  -12.9380    0.1020 C   0  0  0  0  0  0  0  0  0  0  0  0
    6.8020  -11.9590   -0.7710 C   0  0  0  0  0  0  0  0  0  0  0  0
    5.4910  -12.0200   -1.2360 C   0  0  0  0  0  0  0  0  0  0  0  0
    4.6560  -13.0580   -0.8080 C   0  0  0  0  0  0  0  0  0  0  0  0
    3.3650  -13.1550   -1.2890 O   0  0  0  0  0  0  0  0  0  0  0  0
    2.4930  -12.1450   -0.9460 C   0  0  0  0  0  0  0  0  0  0  0  0
    2.0210  -11.9430    0.3550 C   0  0  0  0  0  0  0  0  0  0  0  0
    1.1070  -10.9190    0.6080 C   0  0  0  0  0  0  0  0  0  0  0  0
    0.6550  -10.1100   -0.4340 C   0  0  0  0  0  0  0  0  0  0  0  0
    1.1120  -10.3250   -1.7340 C   0  0  0  0  0  0  0  0  0  0  0  0
    2.0250  -11.3470   -1.9920 C   0  0  0  0  0  0  0  0  0  0  0  0
    2.9710  -17.0360    0.8280 H   0  0  0  0  0  0  0  0  0  0  0  0
    3.1726  -18.2926    3.2772 H   0  0  0  0  0  0  0  0  0  0  0  0
    1.5814  -19.1711    4.9812 H   0  0  0  0  0  0  0  0  0  0  0  0
   -0.7036  -18.2047    5.1694 H   0  0  0  0  0  0  0  0  0  0  0  0
   -2.3343  -17.5718    5.2550 H   0  0  0  0  0  0  0  0  0  0  0  0
   -5.0515  -17.2882    6.2508 H   0  0  0  0  0  0  0  0  0  0  0  0
   -6.9811  -15.5937    5.5236 H   0  0  0  0  0  0  0  0  0  0  0  0
   -4.6410  -13.2610    2.1750 H   0  0  0  0  0  0  0  0  0  0  0  0
   -1.8987  -13.6183    1.0325 H   0  0  0  0  0  0  0  0  0  0  0  0
   -3.3185  -12.9831    0.1327 H   0  0  0  0  0  0  0  0  0  0  0  0
   -3.3216  -10.6560   -0.2028 H   0  0  0  0  0  0  0  0  0  0  0  0
   -2.7639   -8.3907    0.5934 H   0  0  0  0  0  0  0  0  0  0  0  0
   -1.0755   -9.9182    4.1198 H   0  0  0  0  0  0  0  0  0  0  0  0
   -1.5783  -12.2347    3.4389 H   0  0  0  0  0  0  0  0  0  0  0  0
    0.1813  -15.4894    1.9238 H   0  0  0  0  0  0  0  0  0  0  0  0
    4.1010  -15.7960   -0.2910 H   0  0  0  0  0  0  0  0  0  0  0  0
    6.8285  -14.7546    1.1984 H   0  0  0  0  0  0  0  0  0  0  0  0
    8.3090  -12.8865    0.4710 H   0  0  0  0  0  0  0  0  0  0  0  0
    7.4634  -11.1406   -1.0916 H   0  0  0  0  0  0  0  0  0  0  0  0
    5.1146  -11.2581   -1.9344 H   0  0  0  0  0  0  0  0  0  0  0  0
    2.3686  -12.5883    1.1752 H   0  0  0  0  0  0  0  0  0  0  0  0
    0.7423  -10.7497    1.6319 H   0  0  0  0  0  0  0  0  0  0  0  0
   -0.0626   -9.3016   -0.2304 H   0  0  0  0  0  0  0  0  0  0  0  0
    0.7523   -9.6884   -2.5558 H   0  0  0  0  0  0  0  0  0  0  0  0
    2.3764  -11.5245   -3.0191 H   0  0  0  0  0  0  0  0  0  0  0  0
  1  2  2  0
  2  3  1  0
  3  4  1  0
  4  5  2  0
  5  6  1  0
  6  7  2  0
  7  8  1  0
  8  9  1  0
  9 10  2  0
 10 11  1  0
 11 12  1  0
 12 13  2  0
 13 14  1  0
 14 15  2  0
 15 16  1  0
 16 17  1  0
 17 18  1  0
 18 19  1  0
 19 20  2  0
 20 21  1  0
 21 22  2  0
 22 23  1  0
 23 24  2  0
 16 25  2  0
  8 26  2  0
  2 27  1  0
 27 28  1  0
 28 29  2  0
 29 30  1  0
 30 31  2  0
 31 32  1  0
 32 33  2  0
 33 34  1  0
 34 35  1  0
 35 36  2  0
 36 37  1  0
 37 38  2  0
 38 39  1  0
 39 40  2  0
 26  4  1  0
 33 28  1  0
 40 35  1  0
 25  9  1  0
 15 11  1  0
 24 19  1  0
  3 41  1  0
  5 42  1  0
  6 43  1  0
  7 44  1  0
 10 45  1  0
 12 46  1  0
 13 47  1  0
 17 48  1  0
 18 49  1  0
 18 50  1  0
 20 51  1  0
 21 52  1  0
 23 53  1  0
 24 54  1  0
 26 55  1  0
 27 56  1  0
 29 57  1  0
 30 58  1  0
 31 59  1  0
 32 60  1  0
 36 61  1  0
 37 62  1  0
 38 63  1  0
 39 64  1  0
 40 65  1  0
M  END
>  <meeko>  (7) 
{"is_sidechain": [false], "free_energy": -9.27, "intermolecular_energy": -11.417, "internal_energy": -2.72}

$$$$
LIB_FUQDVEKSFKFAGI__M_PUB_ALL__e8__s20260927
     RDKit          3D

 65 70  0  0  0  0  0  0  0  0999 V2000
    2.9820  -12.3310   -0.0640 O   0  0  0  0  0  0  0  0  0  0  0  0
    2.2340  -13.1480   -0.5850 C   0  0  0  0  0  0  0  0  0  0  0  0
    2.0330  -13.2830   -1.9510 N   0  0  0  0  0  0  0  0  0  0  0  0
    2.6970  -12.6010   -2.9940 C   0  0  0  0  0  0  0  0  0  0  0  0
    2.3220  -11.2730   -3.2260 C   0  0  0  0  0  0  0  0  0  0  0  0
    2.9270  -10.5310   -4.2400 C   0  0  0  0  0  0  0  0  0  0  0  0
    3.9150  -11.1140   -5.0330 C   0  0  0  0  0  0  0  0  0  0  0  0
    4.3130  -12.4410   -4.8210 C   0  0  0  0  0  0  0  0  0  0  0  0
    5.3600  -13.0400   -5.6890 C   0  0  0  0  0  0  0  0  0  0  0  0
    5.2690  -12.9230   -7.0320 C   0  0  0  0  0  0  0  0  0  0  0  0
    6.2510  -13.5010   -7.8060 N   0  0  0  0  0  0  0  0  0  0  0  0
    6.4450  -13.5580   -9.1590 C   0  0  0  0  0  0  0  0  0  0  0  0
    7.6090  -14.2790   -9.3220 C   0  0  0  0  0  0  0  0  0  0  0  0
    8.1320  -14.6680   -8.1120 N   0  0  0  0  0  0  0  0  0  0  0  0
    7.2850  -14.1800   -7.2270 C   0  0  0  0  0  0  0  0  0  0  0  0
    7.3380  -14.2890   -5.7810 C   0  0  0  0  0  0  0  0  0  0  0  0
    8.3650  -14.9690   -5.1740 N   0  0  0  0  0  0  0  0  0  0  0  0
    8.5130  -15.1070   -3.7510 C   0  0  0  0  0  0  0  0  0  0  0  0
    9.4990  -14.0870   -3.2450 C   0  0  0  0  0  0  0  0  0  0  0  0
   10.5500  -13.6460   -4.0540 C   0  0  0  0  0  0  0  0  0  0  0  0
   11.4170  -12.6880   -3.5520 C   0  0  0  0  0  0  0  0  0  0  0  0
   11.3040  -12.1440   -2.3230 N   0  0  0  0  0  0  0  0  0  0  0  0
   10.2740  -12.5710   -1.5620 C   0  0  0  0  0  0  0  0  0  0  0  0
    9.3550  -13.5250   -1.9730 C   0  0  0  0  0  0  0  0  0  0  0  0
    6.3910  -13.7340   -5.0600 N   0  0  0  0  0  0  0  0  0  0  0  0
    3.6800  -13.1780   -3.8040 C   0  0  0  0  0  0  0  0  0  0  0  0
    1.4630  -14.0670    0.1070 N   0  0  0  0  0  0  0  0  0  0  0  0
    1.3330  -14.2270    1.5050 C   0  0  0  0  0  0  0  0  0  0  0  0
    2.2940  -14.8280    2.3190 C   0  0  0  0  0  0  0  0  0  0  0  0
    2.0830  -14.9390    3.6980 C   0  0  0  0  0  0  0  0  0  0  0  0
    0.9160  -14.4480    4.2790 C   0  0  0  0  0  0  0  0  0  0  0  0
   -0.0530  -13.8430    3.4810 C   0  0  0  0  0  0  0  0  0  0  0  0
    0.1510  -13.7510    2.1010 C   0  0  0  0  0  0  0  0  0  0  0  0
   -0.7820  -13.1200    1.3000 O   0  0  0  0  0  0  0  0  0  0  0  0
   -0.9760  -11.7730    1.5100 C   0  0  0  0  0  0  0  0  0  0  0  0
   -0.0630  -10.7920    1.1150 C   0  0  0  0  0  0  0  0  0  0  0  0
   -0.3190   -9.4500    1.4030 C   0  0  0  0  0  0  0  0  0  0  0  0
   -1.4760   -9.0910    2.0950 C   0  0  0  0  0  0  0  0  0  0  0  0
   -2.3770  -10.0740    2.5060 C   0  0  0  0  0  0  0  0  0  0  0  0
   -2.1240  -11.4150    2.2200 C   0  0  0  0  0  0  0  0  0  0  0  0
    1.2880  -13.9000   -2.2340 H   0  0  0  0  0  0  0  0  0  0  0  0
    1.5428  -10.8100   -2.6028 H   0  0  0  0  0  0  0  0  0  0  0  0
    2.6254   -9.4876   -4.4141 H   0  0  0  0  0  0  0  0  0  0  0  0
    4.3871  -10.5258   -5.8337 H   0  0  0  0  0  0  0  0  0  0  0  0
    4.4321  -12.3800   -7.4955 H   0  0  0  0  0  0  0  0  0  0  0  0
    5.8106  -13.1233   -9.9455 H   0  0  0  0  0  0  0  0  0  0  0  0
    8.0616  -14.5131  -10.2968 H   0  0  0  0  0  0  0  0  0  0  0  0
    9.0700  -15.3710   -5.7830 H   0  0  0  0  0  0  0  0  0  0  0  0
    7.5394  -14.9480   -3.2644 H   0  0  0  0  0  0  0  0  0  0  0  0
    8.8801  -16.1174   -3.5179 H   0  0  0  0  0  0  0  0  0  0  0  0
   10.6863  -14.0507   -5.0677 H   0  0  0  0  0  0  0  0  0  0  0  0
   12.2452  -12.3519   -4.1932 H   0  0  0  0  0  0  0  0  0  0  0  0
   10.1568  -12.1373   -0.5579 H   0  0  0  0  0  0  0  0  0  0  0  0
    8.5309  -13.8327   -1.3126 H   0  0  0  0  0  0  0  0  0  0  0  0
    3.9637  -14.2285   -3.6427 H   0  0  0  0  0  0  0  0  0  0  0  0
    0.9490  -14.7480   -0.4350 H   0  0  0  0  0  0  0  0  0  0  0  0
    3.2221  -15.2165    1.8744 H   0  0  0  0  0  0  0  0  0  0  0  0
    2.8458  -15.4185    4.3291 H   0  0  0  0  0  0  0  0  0  0  0  0
    0.7599  -14.5376    5.3642 H   0  0  0  0  0  0  0  0  0  0  0  0
   -0.9715  -13.4409    3.9334 H   0  0  0  0  0  0  0  0  0  0  0  0
    0.8545  -11.0760    0.5788 H   0  0  0  0  0  0  0  0  0  0  0  0
    0.3928   -8.6745    1.0837 H   0  0  0  0  0  0  0  0  0  0  0  0
   -1.6780   -8.0327    2.3167 H   0  0  0  0  0  0  0  0  0  0  0  0
   -3.2869   -9.7910    3.0556 H   0  0  0  0  0  0  0  0  0  0  0  0
   -2.8287  -12.1910    2.5536 H   0  0  0  0  0  0  0  0  0  0  0  0
  1  2  2  0
  2  3  1  0
  3  4  1  0
  4  5  2  0
  5  6  1  0
  6  7  2  0
  7  8  1  0
  8  9  1  0
  9 10  2  0
 10 11  1  0
 11 12  1  0
 12 13  2  0
 13 14  1  0
 14 15  2  0
 15 16  1  0
 16 17  1  0
 17 18  1  0
 18 19  1  0
 19 20  2  0
 20 21  1  0
 21 22  2  0
 22 23  1  0
 23 24  2  0
 16 25  2  0
  8 26  2  0
  2 27  1  0
 27 28  1  0
 28 29  2  0
 29 30  1  0
 30 31  2  0
 31 32  1  0
 32 33  2  0
 33 34  1  0
 34 35  1  0
 35 36  2  0
 36 37  1  0
 37 38  2  0
 38 39  1  0
 39 40  2  0
 26  4  1  0
 33 28  1  0
 40 35  1  0
 25  9  1  0
 15 11  1  0
 24 19  1  0
  3 41  1  0
  5 42  1  0
  6 43  1  0
  7 44  1  0
 10 45  1  0
 12 46  1  0
 13 47  1  0
 17 48  1  0
 18 49  1  0
 18 50  1  0
 20 51  1  0
 21 52  1  0
 23 53  1  0
 24 54  1  0
 26 55  1  0
 27 56  1  0
 29 57  1  0
 30 58  1  0
 31 59  1  0
 32 60  1  0
 36 61  1  0
 37 62  1  0
 38 63  1  0
 39 64  1  0
 40 65  1  0
M  END
>  <meeko>  (8) 
{"is_sidechain": [false], "free_energy": -9.244, "intermolecular_energy": -12.427, "internal_energy": -1.673}

$$$$
LIB_FUQDVEKSFKFAGI__M_PUB_ALL__e8__s20260927
     RDKit          3D

 65 70  0  0  0  0  0  0  0  0999 V2000
    2.5610  -12.5980   -0.6710 O   0  0  0  0  0  0  0  0  0  0  0  0
    2.8050  -13.3970    0.2240 C   0  0  0  0  0  0  0  0  0  0  0  0
    4.0390  -13.5450    0.8410 N   0  0  0  0  0  0  0  0  0  0  0  0
    5.2020  -12.7690    0.6460 C   0  0  0  0  0  0  0  0  0  0  0  0
    5.3480  -11.6290    1.4440 C   0  0  0  0  0  0  0  0  0  0  0  0
    6.4670  -10.8070    1.3100 C   0  0  0  0  0  0  0  0  0  0  0  0
    7.4520  -11.1200    0.3750 C   0  0  0  0  0  0  0  0  0  0  0  0
    7.3340  -12.2580   -0.4360 C   0  0  0  0  0  0  0  0  0  0  0  0
    8.3930  -12.5610   -1.4330 C   0  0  0  0  0  0  0  0  0  0  0  0
    9.6910  -12.3500   -1.1220 C   0  0  0  0  0  0  0  0  0  0  0  0
   10.6450  -12.6310   -2.0760 N   0  0  0  0  0  0  0  0  0  0  0  0
   12.0090  -12.5330   -2.0720 C   0  0  0  0  0  0  0  0  0  0  0  0
   12.4010  -12.9620   -3.3230 C   0  0  0  0  0  0  0  0  0  0  0  0
   11.3180  -13.3160   -4.0930 N   0  0  0  0  0  0  0  0  0  0  0  0
   10.2840  -13.1030   -3.3050 C   0  0  0  0  0  0  0  0  0  0  0  0
    8.8770  -13.3040   -3.6000 C   0  0  0  0  0  0  0  0  0  0  0  0
    8.4860  -13.7740   -4.8300 N   0  0  0  0  0  0  0  0  0  0  0  0
    7.1210  -14.0270   -5.2020 C   0  0  0  0  0  0  0  0  0  0  0  0
    7.0780  -15.0850   -6.2730 C   0  0  0  0  0  0  0  0  0  0  0  0
    7.4690  -14.7930   -7.5830 C   0  0  0  0  0  0  0  0  0  0  0  0
    7.4350  -15.8070   -8.5270 C   0  0  0  0  0  0  0  0  0  0  0  0
    7.0520  -17.0720   -8.2570 N   0  0  0  0  0  0  0  0  0  0  0  0
    6.6940  -17.3390   -6.9830 C   0  0  0  0  0  0  0  0  0  0  0  0
    6.6930  -16.3940   -5.9680 C   0  0  0  0  0  0  0  0  0  0  0  0
    7.9820  -13.0280   -2.6790 N   0  0  0  0  0  0  0  0  0  0  0  0
    6.1910  -13.0660   -0.2980 C   0  0  0  0  0  0  0  0  0  0  0  0
    1.8900  -14.2860    0.7610 N   0  0  0  0  0  0  0  0  0  0  0  0
    0.5460  -14.4990    0.3800 C   0  0  0  0  0  0  0  0  0  0  0  0
    0.1510  -15.3080   -0.6860 C   0  0  0  0  0  0  0  0  0  0  0  0
   -1.2060  -15.4660   -0.9900 C   0  0  0  0  0  0  0  0  0  0  0  0
   -2.1820  -14.8230   -0.2310 C   0  0  0  0  0  0  0  0  0  0  0  0
   -1.8060  -14.0140    0.8380 C   0  0  0  0  0  0  0  0  0  0  0  0
   -0.4480  -13.8420    1.1270 C   0  0  0  0  0  0  0  0  0  0  0  0
   -0.0580  -13.0730    2.2070 O   0  0  0  0  0  0  0  0  0  0  0  0
   -0.4630  -11.7560    2.2140 C   0  0  0  0  0  0  0  0  0  0  0  0
   -1.4080  -11.2450    3.1080 C   0  0  0  0  0  0  0  0  0  0  0  0
   -1.7910   -9.9050    3.0190 C   0  0  0  0  0  0  0  0  0  0  0  0
   -1.2440   -9.0840    2.0330 C   0  0  0  0  0  0  0  0  0  0  0  0
   -0.3160   -9.6010    1.1300 C   0  0  0  0  0  0  0  0  0  0  0  0
    0.0700  -10.9390    1.2150 C   0  0  0  0  0  0  0  0  0  0  0  0
    4.1360  -14.3330    1.4620 H   0  0  0  0  0  0  0  0  0  0  0  0
    4.5733  -11.3787    2.1838 H   0  0  0  0  0  0  0  0  0  0  0  0
    6.5719   -9.9126    1.9417 H   0  0  0  0  0  0  0  0  0  0  0  0
    8.3315  -10.4674    0.2721 H   0  0  0  0  0  0  0  0  0  0  0  0
    9.9787  -11.9639   -0.1330 H   0  0  0  0  0  0  0  0  0  0  0  0
   12.6533  -12.1873   -1.2501 H   0  0  0  0  0  0  0  0  0  0  0  0
   13.4463  -13.0143   -3.6615 H   0  0  0  0  0  0  0  0  0  0  0  0
    9.2230  -13.9740   -5.4980 H   0  0  0  0  0  0  0  0  0  0  0  0
    6.5598  -14.3738   -4.3218 H   0  0  0  0  0  0  0  0  0  0  0  0
    6.6686  -13.1004   -5.5850 H   0  0  0  0  0  0  0  0  0  0  0  0
    7.7967  -13.7798   -7.8587 H   0  0  0  0  0  0  0  0  0  0  0  0
    7.7380  -15.5663   -9.5567 H   0  0  0  0  0  0  0  0  0  0  0  0
    6.3853  -18.3654   -6.7357 H   0  0  0  0  0  0  0  0  0  0  0  0
    6.3957  -16.6684   -4.9451 H   0  0  0  0  0  0  0  0  0  0  0  0
    6.0724  -13.9481   -0.9445 H   0  0  0  0  0  0  0  0  0  0  0  0
    2.1850  -14.8390    1.5530 H   0  0  0  0  0  0  0  0  0  0  0  0
    0.9106  -15.8247   -1.2910 H   0  0  0  0  0  0  0  0  0  0  0  0
   -1.5047  -16.1033   -1.8354 H   0  0  0  0  0  0  0  0  0  0  0  0
   -3.2464  -14.9542   -0.4757 H   0  0  0  0  0  0  0  0  0  0  0  0
   -2.5707  -13.5140    1.4505 H   0  0  0  0  0  0  0  0  0  0  0  0
   -1.8481  -11.8954    3.8783 H   0  0  0  0  0  0  0  0  0  0  0  0
   -2.5258   -9.4960    3.7281 H   0  0  0  0  0  0  0  0  0  0  0  0
   -1.5450   -8.0280    1.9678 H   0  0  0  0  0  0  0  0  0  0  0  0
    0.1120   -8.9538    0.3503 H   0  0  0  0  0  0  0  0  0  0  0  0
    0.7936  -11.3499    0.4956 H   0  0  0  0  0  0  0  0  0  0  0  0
  1  2  2  0
  2  3  1  0
  3  4  1  0
  4  5  2  0
  5  6  1  0
  6  7  2  0
  7  8  1  0
  8  9  1  0
  9 10  2  0
 10 11  1  0
 11 12  1  0
 12 13  2  0
 13 14  1  0
 14 15  2  0
 15 16  1  0
 16 17  1  0
 17 18  1  0
 18 19  1  0
 19 20  2  0
 20 21  1  0
 21 22  2  0
 22 23  1  0
 23 24  2  0
 16 25  2  0
  8 26  2  0
  2 27  1  0
 27 28  1  0
 28 29  2  0
 29 30  1  0
 30 31  2  0
 31 32  1  0
 32 33  2  0
 33 34  1  0
 34 35  1  0
 35 36  2  0
 36 37  1  0
 37 38  2  0
 38 39  1  0
 39 40  2  0
 26  4  1  0
 33 28  1  0
 40 35  1  0
 25  9  1  0
 15 11  1  0
 24 19  1  0
  3 41  1  0
  5 42  1  0
  6 43  1  0
  7 44  1  0
 10 45  1  0
 12 46  1  0
 13 47  1  0
 17 48  1  0
 18 49  1  0
 18 50  1  0
 20 51  1  0
 21 52  1  0
 23 53  1  0
 24 54  1  0
 26 55  1  0
 27 56  1  0
 29 57  1  0
 30 58  1  0
 31 59  1  0
 32 60  1  0
 36 61  1  0
 37 62  1  0
 38 63  1  0
 39 64  1  0
 40 65  1  0
M  END
>  <meeko>  (9) 
{"is_sidechain": [false], "free_energy": -9.2, "intermolecular_energy": -12.4, "internal_energy": -1.639}

$$$$
