LIB_GMJDBOQFBWJYSY__M_PUB_ALL__e8__s20260927
     RDKit          3D

 83 88  0  0  0  0  0  0  0  0999 V2000
    3.0240  -11.4230   -1.8110 C   0  0  0  0  0  0  0  0  0  0  0  0
    3.7100  -12.5410   -2.1180 C   0  0  0  0  0  0  0  0  0  0  0  0
    5.2050  -12.5530   -1.7990 C   0  0  2  0  0  0  0  0  0  0  0  0
    6.1210  -12.1460   -2.9560 C   0  0  0  0  0  0  0  0  0  0  0  0
    7.5130  -12.4400   -2.3870 C   0  0  2  0  0  0  0  0  0  0  0  0
    7.8100  -11.4280   -1.4220 O   0  0  0  0  0  0  0  0  0  0  0  0
    8.5670  -12.4800   -3.4510 C   0  0  1  0  0  0  0  0  0  0  0  0
    9.5680  -11.4650   -3.3710 O   0  0  0  0  0  0  0  0  0  0  0  0
   10.0300  -12.8200   -3.1510 C   0  0  2  0  0  0  0  0  0  0  0  0
   10.7420  -13.5130   -4.2470 C   0  0  0  0  0  0  0  0  0  0  0  0
   11.8980  -14.1850   -4.2740 C   0  0  0  0  0  0  0  0  0  0  0  0
   12.8720  -14.5320   -3.2550 C   0  0  0  0  0  0  0  0  0  0  0  0
   13.8300  -15.2390   -3.5580 O   0  0  0  0  0  0  0  0  0  0  0  0
   12.7220  -14.0830   -2.0000 O   0  0  0  0  0  0  0  0  0  0  0  0
   12.0210  -12.9010   -1.5470 C   0  0  0  0  0  0  0  0  0  0  0  0
   12.3890  -12.8050   -0.0450 C   0  0  0  0  0  0  0  0  0  0  0  0
   12.6170  -11.6330   -2.1930 C   0  0  0  0  0  0  0  0  0  0  0  0
   10.4730  -13.0330   -1.7010 C   0  0  2  0  0  0  0  0  0  0  0  0
    9.8280  -14.3160   -1.0530 C   0  0  2  0  0  0  0  0  0  0  0  0
    9.8760  -15.4530   -1.9410 O   0  0  0  0  0  0  0  0  0  0  0  0
   10.3040  -16.6310   -1.4060 C   0  0  0  0  0  0  0  0  0  0  0  0
    9.2100  -17.6510   -1.4770 C   0  0  0  0  0  0  0  0  0  0  0  0
   11.4090  -16.8340   -0.9250 O   0  0  0  0  0  0  0  0  0  0  0  0
    8.3720  -14.0810   -0.5870 C   0  0  0  0  0  0  0  0  0  0  0  0
    7.3460  -13.8130   -1.7000 C   0  0  1  0  0  0  0  0  0  0  0  0
    5.8200  -13.8840   -1.2780 C   0  0  1  0  0  0  0  0  0  0  0  0
    5.5790  -13.9890    0.2400 C   0  0  0  0  0  0  0  0  0  0  0  0
    5.1830  -15.1040   -1.9860 C   0  0  0  0  0  0  0  0  0  0  0  0
    3.6570  -15.0560   -2.0150 C   0  0  0  0  0  0  0  0  0  0  0  0
    3.1090  -13.8040   -2.7460 C   0  0  2  0  0  0  0  0  0  0  0  0
    3.6240  -13.8670   -4.0870 O   0  0  0  0  0  0  0  0  0  0  0  0
    1.5390  -13.9370   -2.8620 C   0  0  1  0  0  0  0  0  0  0  0  0
    1.0520  -14.4650   -4.2230 C   0  0  0  0  0  0  0  0  0  0  0  0
    0.8860  -14.6680   -1.6440 C   0  0  1  0  0  0  0  0  0  0  0  0
    0.7570  -13.7490   -0.4220 C   0  0  0  0  0  0  0  0  0  0  0  0
   -0.0020  -14.4600    0.6510 C   0  0  0  0  0  0  0  0  0  0  0  0
   -0.8880  -15.4270    0.3610 C   0  0  0  0  0  0  0  0  0  0  0  0
   -1.6690  -16.1680    1.4010 C   0  0  0  0  0  0  0  0  0  0  0  0
   -1.1950  -15.7610   -1.0550 C   0  0  0  0  0  0  0  0  0  0  0  0
   -2.1160  -16.5090   -1.3550 O   0  0  0  0  0  0  0  0  0  0  0  0
   -0.4250  -15.1620   -2.0010 O   0  0  0  0  0  0  0  0  0  0  0  0
    1.9458  -11.3643   -2.0207 H   0  0  0  0  0  0  0  0  0  0  0  0
    3.5421  -10.5688   -1.3506 H   0  0  0  0  0  0  0  0  0  0  0  0
    5.1849  -11.8067   -0.9911 H   0  0  0  0  0  0  0  0  0  0  0  0
    5.9216  -12.7497   -3.8537 H   0  0  0  0  0  0  0  0  0  0  0  0
    5.9875  -11.1028   -3.2784 H   0  0  0  0  0  0  0  0  0  0  0  0
    7.1460  -10.7230   -1.5470 H   0  0  0  0  0  0  0  0  0  0  0  0
    7.8437  -12.8715   -4.1814 H   0  0  0  0  0  0  0  0  0  0  0  0
   10.2262  -13.4672   -5.2175 H   0  0  0  0  0  0  0  0  0  0  0  0
   12.1664  -14.5506   -5.2761 H   0  0  0  0  0  0  0  0  0  0  0  0
   11.5033  -13.0361    0.5650 H   0  0  0  0  0  0  0  0  0  0  0  0
   13.1892  -13.5245    0.1832 H   0  0  0  0  0  0  0  0  0  0  0  0
   12.7358  -11.7863    0.1832 H   0  0  0  0  0  0  0  0  0  0  0  0
   12.9434  -10.9387   -1.4047 H   0  0  0  0  0  0  0  0  0  0  0  0
   13.4791  -11.9102   -2.8174 H   0  0  0  0  0  0  0  0  0  0  0  0
   11.8535  -11.1461   -2.8174 H   0  0  0  0  0  0  0  0  0  0  0  0
   10.0659  -12.2116   -1.0932 H   0  0  0  0  0  0  0  0  0  0  0  0
   10.4388  -14.5348   -0.1647 H   0  0  0  0  0  0  0  0  0  0  0  0
    8.9062  -17.9343   -0.4585 H   0  0  0  0  0  0  0  0  0  0  0  0
    8.3476  -17.2271   -2.0123 H   0  0  0  0  0  0  0  0  0  0  0  0
    9.5726  -18.5409   -2.0123 H   0  0  0  0  0  0  0  0  0  0  0  0
    8.0458  -14.9755   -0.0362 H   0  0  0  0  0  0  0  0  0  0  0  0
    8.3981  -13.1646    0.0208 H   0  0  0  0  0  0  0  0  0  0  0  0
    7.5791  -14.6467   -2.3787 H   0  0  0  0  0  0  0  0  0  0  0  0
    6.4585  -13.6058    0.7783 H   0  0  0  0  0  0  0  0  0  0  0  0
    4.6945  -13.3947    0.5128 H   0  0  0  0  0  0  0  0  0  0  0  0
    5.4120  -15.0415    0.5128 H   0  0  0  0  0  0  0  0  0  0  0  0
    5.5511  -15.1380   -3.0220 H   0  0  0  0  0  0  0  0  0  0  0  0
    5.4702  -15.9991   -1.4148 H   0  0  0  0  0  0  0  0  0  0  0  0
    3.2869  -15.9542   -2.5309 H   0  0  0  0  0  0  0  0  0  0  0  0
    3.3073  -15.0105   -0.9730 H   0  0  0  0  0  0  0  0  0  0  0  0
    3.5250  -14.7850   -4.3930 H   0  0  0  0  0  0  0  0  0  0  0  0
    1.1691  -12.9020   -2.8165 H   0  0  0  0  0  0  0  0  0  0  0  0
    0.3141  -15.2650   -4.0632 H   0  0  0  0  0  0  0  0  0  0  0  0
    0.5867  -13.6448   -4.7893 H   0  0  0  0  0  0  0  0  0  0  0  0
    1.9071  -14.8626   -4.7893 H   0  0  0  0  0  0  0  0  0  0  0  0
    1.5482  -15.5053   -1.3787 H   0  0  0  0  0  0  0  0  0  0  0  0
    1.7591  -13.4869   -0.0516 H   0  0  0  0  0  0  0  0  0  0  0  0
    0.2222  -12.8306   -0.7057 H   0  0  0  0  0  0  0  0  0  0  0  0
    0.1688  -14.1852    1.7023 H   0  0  0  0  0  0  0  0  0  0  0  0
   -1.3376  -15.8536    2.4016 H   0  0  0  0  0  0  0  0  0  0  0  0
   -2.7398  -15.9459    1.2828 H   0  0  0  0  0  0  0  0  0  0  0  0
   -1.5035  -17.2490    1.2828 H   0  0  0  0  0  0  0  0  0  0  0  0
  1  2  2  0
  2  3  1  0
  3  4  1  0
  4  5  1  0
  5  6  1  1
  5  7  1  0
  7  8  1  0
  9  8  1  6
  9 10  1  0
 10 11  2  0
 11 12  1  0
 12 13  2  0
 12 14  1  0
 14 15  1  0
 15 16  1  0
 15 17  1  0
 15 18  1  0
 18 19  1  0
 19 20  1  0
 20 21  1  0
 21 22  1  0
 21 23  2  0
 19 24  1  0
 24 25  1  0
 25 26  1  0
 26 27  1  1
 26 28  1  0
 28 29  1  0
 29 30  1  0
 30 31  1  6
 30 32  1  0
 32 33  1  0
 32 34  1  0
 34 35  1  0
 35 36  1  0
 36 37  2  0
 37 38  1  0
 37 39  1  0
 39 40  2  0
 39 41  1  0
 30  2  1  0
 41 34  1  0
 26  3  1  0
 25  5  1  0
  9  7  1  0
 18  9  1  0
  1 42  1  0
  1 43  1  0
  3 44  1  1
  4 45  1  0
  4 46  1  0
  6 47  1  0
  7 48  1  6
 10 49  1  0
 11 50  1  0
 16 51  1  0
 16 52  1  0
 16 53  1  0
 17 54  1  0
 17 55  1  0
 17 56  1  0
 18 57  1  1
 19 58  1  1
 22 59  1  0
 22 60  1  0
 22 61  1  0
 24 62  1  0
 24 63  1  0
 25 64  1  6
 27 65  1  0
 27 66  1  0
 27 67  1  0
 28 68  1  0
 28 69  1  0
 29 70  1  0
 29 71  1  0
 31 72  1  0
 32 73  1  1
 33 74  1  0
 33 75  1  0
 33 76  1  0
 34 77  1  1
 35 78  1  0
 35 79  1  0
 36 80  1  0
 38 81  1  0
 38 82  1  0
 38 83  1  0
M  END
>  <meeko>  (1) 
{"is_sidechain": [false], "free_energy": -6.284, "intermolecular_energy": -11.059, "internal_energy": 0.832}

$$$$
LIB_GMJDBOQFBWJYSY__M_PUB_ALL__e8__s20260927
     RDKit          3D

 83 88  0  0  0  0  0  0  0  0999 V2000
   -3.4590  -16.4380    2.7470 C   0  0  0  0  0  0  0  0  0  0  0  0
   -2.1180  -16.4110    2.8680 C   0  0  0  0  0  0  0  0  0  0  0  0
   -1.3470  -15.5110    1.9020 C   0  0  2  0  0  0  0  0  0  0  0  0
   -0.8240  -16.2060    0.6420 C   0  0  0  0  0  0  0  0  0  0  0  0
    0.0380  -15.1130    0.0020 C   0  0  2  0  0  0  0  0  0  0  0  0
   -0.8430  -14.1380   -0.5590 O   0  0  0  0  0  0  0  0  0  0  0  0
    0.9600  -15.6560   -1.0460 C   0  0  1  0  0  0  0  0  0  0  0  0
    0.7100  -15.2140   -2.3810 O   0  0  0  0  0  0  0  0  0  0  0  0
    1.9630  -14.7760   -1.7990 C   0  0  2  0  0  0  0  0  0  0  0  0
    3.2100  -15.4620   -2.2020 C   0  0  0  0  0  0  0  0  0  0  0  0
    4.3900  -14.9930   -2.6230 C   0  0  0  0  0  0  0  0  0  0  0  0
    4.9180  -13.6460   -2.8020 C   0  0  0  0  0  0  0  0  0  0  0  0
    6.0950  -13.5060   -3.1230 O   0  0  0  0  0  0  0  0  0  0  0  0
    4.1280  -12.5780   -2.6170 O   0  0  0  0  0  0  0  0  0  0  0  0
    2.6860  -12.4990   -2.7140 C   0  0  0  0  0  0  0  0  0  0  0  0
    2.3890  -10.9830   -2.5990 C   0  0  0  0  0  0  0  0  0  0  0  0
    2.2130  -12.9000   -4.1270 C   0  0  0  0  0  0  0  0  0  0  0  0
    1.9700  -13.2640   -1.5570 C   0  0  2  0  0  0  0  0  0  0  0  0
    2.4320  -12.9040   -0.0810 C   0  0  2  0  0  0  0  0  0  0  0  0
    3.5850  -13.6750    0.3170 O   0  0  0  0  0  0  0  0  0  0  0  0
    4.3470  -13.1620    1.3240 C   0  0  0  0  0  0  0  0  0  0  0  0
    4.9690  -11.8720    0.8880 C   0  0  0  0  0  0  0  0  0  0  0  0
    4.5170  -13.6760    2.4200 O   0  0  0  0  0  0  0  0  0  0  0  0
    1.3040  -13.0780    0.9630 C   0  0  0  0  0  0  0  0  0  0  0  0
    0.8190  -14.5180    1.1940 C   0  0  1  0  0  0  0  0  0  0  0  0
   -0.1090  -14.7510    2.4570 C   0  0  1  0  0  0  0  0  0  0  0  0
   -0.5810  -13.4590    3.1520 C   0  0  0  0  0  0  0  0  0  0  0  0
    0.6710  -15.6250    3.4700 C   0  0  0  0  0  0  0  0  0  0  0  0
   -0.2260  -16.2730    4.5230 C   0  0  0  0  0  0  0  0  0  0  0  0
   -1.3080  -17.1960    3.9060 C   0  0  2  0  0  0  0  0  0  0  0  0
   -0.5970  -18.2100    3.1740 O   0  0  0  0  0  0  0  0  0  0  0  0
   -2.0640  -17.9360    5.0790 C   0  0  1  0  0  0  0  0  0  0  0  0
   -1.3610  -19.2130    5.5720 C   0  0  0  0  0  0  0  0  0  0  0  0
   -2.5000  -16.9810    6.2370 C   0  0  1  0  0  0  0  0  0  0  0  0
   -4.0140  -16.7300    6.2370 C   0  0  0  0  0  0  0  0  0  0  0  0
   -4.3810  -15.9330    7.4470 C   0  0  0  0  0  0  0  0  0  0  0  0
   -3.6430  -15.9800    8.5680 C   0  0  0  0  0  0  0  0  0  0  0  0
   -3.9690  -15.1990    9.8030 C   0  0  0  0  0  0  0  0  0  0  0  0
   -2.4750  -16.8970    8.6580 C   0  0  0  0  0  0  0  0  0  0  0  0
   -1.8900  -17.0910    9.7160 O   0  0  0  0  0  0  0  0  0  0  0  0
   -2.1170  -17.5370    7.5160 O   0  0  0  0  0  0  0  0  0  0  0  0
   -4.0592  -17.0697    3.4183 H   0  0  0  0  0  0  0  0  0  0  0  0
   -3.9541  -15.8283    1.9768 H   0  0  0  0  0  0  0  0  0  0  0  0
   -2.1595  -14.8006    1.6894 H   0  0  0  0  0  0  0  0  0  0  0  0
   -0.2220  -17.0910    0.8957 H   0  0  0  0  0  0  0  0  0  0  0  0
   -1.6204  -16.5820   -0.0171 H   0  0  0  0  0  0  0  0  0  0  0  0
   -0.8970  -13.4090    0.0890 H   0  0  0  0  0  0  0  0  0  0  0  0
    1.0632  -16.6022   -0.4945 H   0  0  0  0  0  0  0  0  0  0  0  0
    3.1574  -16.5593   -2.1451 H   0  0  0  0  0  0  0  0  0  0  0  0
    5.1071  -15.7840   -2.8877 H   0  0  0  0  0  0  0  0  0  0  0  0
    2.3335  -10.6997   -1.5376 H   0  0  0  0  0  0  0  0  0  0  0  0
    3.1927  -10.4137   -3.0889 H   0  0  0  0  0  0  0  0  0  0  0  0
    1.4299  -10.7591   -3.0889 H   0  0  0  0  0  0  0  0  0  0  0  0
    1.3762  -13.6094   -4.0460 H   0  0  0  0  0  0  0  0  0  0  0  0
    1.8820  -12.0031   -4.6711 H   0  0  0  0  0  0  0  0  0  0  0  0
    3.0436  -13.3733   -4.6711 H   0  0  0  0  0  0  0  0  0  0  0  0
    0.9368  -12.8887   -1.5989 H   0  0  0  0  0  0  0  0  0  0  0  0
    2.7019  -11.8379   -0.1069 H   0  0  0  0  0  0  0  0  0  0  0  0
    5.2525  -11.2840    1.7733 H   0  0  0  0  0  0  0  0  0  0  0  0
    5.8648  -12.0822    0.2851 H   0  0  0  0  0  0  0  0  0  0  0  0
    4.2467  -11.3020    0.2851 H   0  0  0  0  0  0  0  0  0  0  0  0
    1.6710  -12.6878    1.9238 H   0  0  0  0  0  0  0  0  0  0  0  0
    0.4379  -12.5336    0.5587 H   0  0  0  0  0  0  0  0  0  0  0  0
    1.7845  -15.0215    1.3497 H   0  0  0  0  0  0  0  0  0  0  0  0
   -0.5328  -13.5909    4.2430 H   0  0  0  0  0  0  0  0  0  0  0  0
    0.0701  -12.6238    2.8545 H   0  0  0  0  0  0  0  0  0  0  0  0
   -1.6172  -13.2401    2.8545 H   0  0  0  0  0  0  0  0  0  0  0  0
    1.1916  -16.4207    2.9169 H   0  0  0  0  0  0  0  0  0  0  0  0
    1.3717  -14.9634    4.0004 H   0  0  0  0  0  0  0  0  0  0  0  0
    0.4021  -16.8714    5.1994 H   0  0  0  0  0  0  0  0  0  0  0  0
   -0.7464  -15.4644    5.0572 H   0  0  0  0  0  0  0  0  0  0  0  0
    0.0590  -17.7580    2.6160 H   0  0  0  0  0  0  0  0  0  0  0  0
   -3.0003  -18.2920    4.6245 H   0  0  0  0  0  0  0  0  0  0  0  0
   -1.3537  -19.2262    6.6719 H   0  0  0  0  0  0  0  0  0  0  0  0
   -1.9002  -20.0960    5.1983 H   0  0  0  0  0  0  0  0  0  0  0  0
   -0.3266  -19.2297    5.1983 H   0  0  0  0  0  0  0  0  0  0  0  0
   -1.9891  -16.0210    6.0714 H   0  0  0  0  0  0  0  0  0  0  0  0
   -4.2944  -16.1730    5.3308 H   0  0  0  0  0  0  0  0  0  0  0  0
   -4.5476  -17.6918    6.2526 H   0  0  0  0  0  0  0  0  0  0  0  0
   -5.2756  -15.2936    7.4187 H   0  0  0  0  0  0  0  0  0  0  0  0
   -3.7193  -15.7972   10.6917 H   0  0  0  0  0  0  0  0  0  0  0  0
   -3.3848  -14.2670    9.8123 H   0  0  0  0  0  0  0  0  0  0  0  0
   -5.0424  -14.9590    9.8123 H   0  0  0  0  0  0  0  0  0  0  0  0
  1  2  2  0
  2  3  1  0
  3  4  1  0
  4  5  1  0
  5  6  1  6
  5  7  1  0
  7  8  1  0
  9  8  1  6
  9 10  1  0
 10 11  2  0
 11 12  1  0
 12 13  2  0
 12 14  1  0
 14 15  1  0
 15 16  1  0
 15 17  1  0
 15 18  1  0
 18 19  1  0
 19 20  1  0
 20 21  1  0
 21 22  1  0
 21 23  2  0
 19 24  1  0
 24 25  1  0
 25 26  1  0
 26 27  1  1
 26 28  1  0
 28 29  1  0
 29 30  1  0
 30 31  1  6
 30 32  1  0
 32 33  1  0
 32 34  1  0
 34 35  1  0
 35 36  1  0
 36 37  2  0
 37 38  1  0
 37 39  1  0
 39 40  2  0
 39 41  1  0
 30  2  1  0
 41 34  1  0
 26  3  1  0
 25  5  1  0
  9  7  1  0
 18  9  1  0
  1 42  1  0
  1 43  1  0
  3 44  1  6
  4 45  1  0
  4 46  1  0
  6 47  1  0
  7 48  1  6
 10 49  1  0
 11 50  1  0
 16 51  1  0
 16 52  1  0
 16 53  1  0
 17 54  1  0
 17 55  1  0
 17 56  1  0
 18 57  1  1
 19 58  1  6
 22 59  1  0
 22 60  1  0
 22 61  1  0
 24 62  1  0
 24 63  1  0
 25 64  1  1
 27 65  1  0
 27 66  1  0
 27 67  1  0
 28 68  1  0
 28 69  1  0
 29 70  1  0
 29 71  1  0
 31 72  1  0
 32 73  1  6
 33 74  1  0
 33 75  1  0
 33 76  1  0
 34 77  1  6
 35 78  1  0
 35 79  1  0
 36 80  1  0
 38 81  1  0
 38 82  1  0
 38 83  1  0
M  END
>  <meeko>  (2) 
{"is_sidechain": [false], "free_energy": -6.206, "intermolecular_energy": -10.912, "internal_energy": 0.821}

$$$$
LIB_GMJDBOQFBWJYSY__M_PUB_ALL__e8__s20260927
     RDKit          3D

 83 88  0  0  0  0  0  0  0  0999 V2000
   -0.1030  -15.7070   -1.0870 C   0  0  0  0  0  0  0  0  0  0  0  0
    0.9030  -14.8960   -0.7090 C   0  0  0  0  0  0  0  0  0  0  0  0
    2.1660  -14.9020   -1.5710 C   0  0  2  0  0  0  0  0  0  0  0  0
    3.2740  -15.8450   -1.0950 C   0  0  0  0  0  0  0  0  0  0  0  0
    4.4330  -15.4810   -2.0290 C   0  0  2  0  0  0  0  0  0  0  0  0
    4.1380  -16.0220   -3.3180 O   0  0  0  0  0  0  0  0  0  0  0  0
    5.7490  -15.9960   -1.5300 C   0  0  1  0  0  0  0  0  0  0  0  0
    6.3790  -16.9830   -2.3480 O   0  0  0  0  0  0  0  0  0  0  0  0
    7.0720  -15.7140   -2.2510 C   0  0  2  0  0  0  0  0  0  0  0  0
    8.2520  -15.6170   -1.3640 C   0  0  0  0  0  0  0  0  0  0  0  0
    9.4880  -15.1510   -1.5730 C   0  0  0  0  0  0  0  0  0  0  0  0
   10.1390  -14.5230   -2.7110 C   0  0  0  0  0  0  0  0  0  0  0  0
   11.3020  -14.1440   -2.6070 O   0  0  0  0  0  0  0  0  0  0  0  0
    9.4730  -14.3810   -3.8670 O   0  0  0  0  0  0  0  0  0  0  0  0
    8.3840  -15.1830   -4.3810 C   0  0  0  0  0  0  0  0  0  0  0  0
    8.2080  -14.6800   -5.8360 C   0  0  0  0  0  0  0  0  0  0  0  0
    8.8100  -16.6610   -4.5110 C   0  0  0  0  0  0  0  0  0  0  0  0
    7.0580  -14.9660   -3.5860 C   0  0  2  0  0  0  0  0  0  0  0  0
    6.5840  -13.4710   -3.4310 C   0  0  2  0  0  0  0  0  0  0  0  0
    7.2070  -12.8310   -2.2970 O   0  0  0  0  0  0  0  0  0  0  0  0
    7.5210  -11.5120   -2.4340 C   0  0  0  0  0  0  0  0  0  0  0  0
    6.8480  -10.7130   -1.3610 C   0  0  0  0  0  0  0  0  0  0  0  0
    8.2330  -11.0370   -3.3050 O   0  0  0  0  0  0  0  0  0  0  0  0
    5.0470  -13.3340   -3.3250 C   0  0  0  0  0  0  0  0  0  0  0  0
    4.4030  -13.9380   -2.0670 C   0  0  1  0  0  0  0  0  0  0  0  0
    2.8930  -13.5440   -1.7930 C   0  0  1  0  0  0  0  0  0  0  0  0
    2.2080  -12.7900   -2.9490 C   0  0  0  0  0  0  0  0  0  0  0  0
    2.8480  -12.6750   -0.5130 C   0  0  0  0  0  0  0  0  0  0  0  0
    1.4540  -12.5770    0.1010 C   0  0  0  0  0  0  0  0  0  0  0  0
    0.8750  -13.9580    0.5020 C   0  0  2  0  0  0  0  0  0  0  0  0
    1.7960  -14.5130    1.4580 O   0  0  0  0  0  0  0  0  0  0  0  0
   -0.4850  -13.7280    1.2710 C   0  0  1  0  0  0  0  0  0  0  0  0
   -0.3120  -13.2810    2.7340 C   0  0  0  0  0  0  0  0  0  0  0  0
   -1.5100  -12.8580    0.4740 C   0  0  1  0  0  0  0  0  0  0  0  0
   -2.8520  -13.5770    0.2860 C   0  0  0  0  0  0  0  0  0  0  0  0
   -3.8280  -12.6410   -0.3510 C   0  0  0  0  0  0  0  0  0  0  0  0
   -3.7200  -11.3100   -0.2070 C   0  0  0  0  0  0  0  0  0  0  0  0
   -4.6700  -10.3340   -0.8270 C   0  0  0  0  0  0  0  0  0  0  0  0
   -2.6620  -10.7350    0.6660 C   0  0  0  0  0  0  0  0  0  0  0  0
   -2.6430   -9.5460    0.9560 O   0  0  0  0  0  0  0  0  0  0  0  0
   -1.7410  -11.6040    1.1560 O   0  0  0  0  0  0  0  0  0  0  0  0
   -1.0331  -15.7397   -0.5006 H   0  0  0  0  0  0  0  0  0  0  0  0
    0.0052  -16.3370   -1.9822 H   0  0  0  0  0  0  0  0  0  0  0  0
    1.6983  -15.2358   -2.5090 H   0  0  0  0  0  0  0  0  0  0  0  0
    3.5347  -15.6552   -0.0433 H   0  0  0  0  0  0  0  0  0  0  0  0
    2.9947  -16.9083   -1.1319 H   0  0  0  0  0  0  0  0  0  0  0  0
    3.5920  -15.3560   -3.7790 H   0  0  0  0  0  0  0  0  0  0  0  0
    5.4257  -15.8720   -0.4859 H   0  0  0  0  0  0  0  0  0  0  0  0
    8.0816  -15.9979   -0.3462 H   0  0  0  0  0  0  0  0  0  0  0  0
   10.1501  -15.2671   -0.7023 H   0  0  0  0  0  0  0  0  0  0  0  0
    7.8447  -13.6418   -5.8236 H   0  0  0  0  0  0  0  0  0  0  0  0
    9.1749  -14.7239   -6.3586 H   0  0  0  0  0  0  0  0  0  0  0  0
    7.4794  -15.3172   -6.3586 H   0  0  0  0  0  0  0  0  0  0  0  0
    8.9354  -17.0960   -3.5085 H   0  0  0  0  0  0  0  0  0  0  0  0
    8.0361  -17.2189   -5.0586 H   0  0  0  0  0  0  0  0  0  0  0  0
    9.7621  -16.7214   -5.0586 H   0  0  0  0  0  0  0  0  0  0  0  0
    6.2832  -15.4117   -4.2271 H   0  0  0  0  0  0  0  0  0  0  0  0
    6.9028  -12.9627   -4.3530 H   0  0  0  0  0  0  0  0  0  0  0  0
    7.1619  -11.0857   -0.3748 H   0  0  0  0  0  0  0  0  0  0  0  0
    7.1308   -9.6546   -1.4600 H   0  0  0  0  0  0  0  0  0  0  0  0
    5.7569  -10.8118   -1.4600 H   0  0  0  0  0  0  0  0  0  0  0  0
    4.8022  -12.2618   -3.3470 H   0  0  0  0  0  0  0  0  0  0  0  0
    4.6387  -13.9058   -4.1714 H   0  0  0  0  0  0  0  0  0  0  0  0
    5.0445  -13.4919   -1.2928 H   0  0  0  0  0  0  0  0  0  0  0  0
    1.5218  -12.0347   -2.5384 H   0  0  0  0  0  0  0  0  0  0  0  0
    2.9714  -12.2946   -3.5669 H   0  0  0  0  0  0  0  0  0  0  0  0
    1.6418  -13.5025   -3.5669 H   0  0  0  0  0  0  0  0  0  0  0  0
    3.5275  -13.1149    0.2318 H   0  0  0  0  0  0  0  0  0  0  0  0
    3.1504  -11.6569   -0.7994 H   0  0  0  0  0  0  0  0  0  0  0  0
    1.5095  -11.9450    0.9996 H   0  0  0  0  0  0  0  0  0  0  0  0
    0.7866  -12.1468   -0.6603 H   0  0  0  0  0  0  0  0  0  0  0  0
    1.7020  -15.4810    1.4220 H   0  0  0  0  0  0  0  0  0  0  0  0
   -0.9381  -14.7281    1.3375 H   0  0  0  0  0  0  0  0  0  0  0  0
   -0.6265  -14.0937    3.4053 H   0  0  0  0  0  0  0  0  0  0  0  0
    0.7447  -13.0392    2.9210 H   0  0  0  0  0  0  0  0  0  0  0  0
   -0.9305  -12.3908    2.9210 H   0  0  0  0  0  0  0  0  0  0  0  0
   -1.0724  -12.6753   -0.5185 H   0  0  0  0  0  0  0  0  0  0  0  0
   -2.7107  -14.4562   -0.3598 H   0  0  0  0  0  0  0  0  0  0  0  0
   -3.2367  -13.9016    1.2641 H   0  0  0  0  0  0  0  0  0  0  0  0
   -4.6533  -13.0516   -0.9512 H   0  0  0  0  0  0  0  0  0  0  0  0
   -5.2025   -9.7870   -0.0350 H   0  0  0  0  0  0  0  0  0  0  0  0
   -4.1093   -9.6224   -1.4509 H   0  0  0  0  0  0  0  0  0  0  0  0
   -5.3965  -10.8753   -1.4509 H   0  0  0  0  0  0  0  0  0  0  0  0
  1  2  2  0
  2  3  1  0
  3  4  1  0
  4  5  1  0
  5  6  1  6
  5  7  1  0
  7  8  1  0
  9  8  1  6
  9 10  1  0
 10 11  2  0
 11 12  1  0
 12 13  2  0
 12 14  1  0
 14 15  1  0
 15 16  1  0
 15 17  1  0
 15 18  1  0
 18 19  1  0
 19 20  1  0
 20 21  1  0
 21 22  1  0
 21 23  2  0
 19 24  1  0
 24 25  1  0
 25 26  1  0
 26 27  1  6
 26 28  1  0
 28 29  1  0
 29 30  1  0
 30 31  1  1
 30 32  1  0
 32 33  1  0
 32 34  1  0
 34 35  1  0
 35 36  1  0
 36 37  2  0
 37 38  1  0
 37 39  1  0
 39 40  2  0
 39 41  1  0
 30  2  1  0
 41 34  1  0
 26  3  1  0
 25  5  1  0
  9  7  1  0
 18  9  1  0
  1 42  1  0
  1 43  1  0
  3 44  1  6
  4 45  1  0
  4 46  1  0
  6 47  1  0
  7 48  1  1
 10 49  1  0
 11 50  1  0
 16 51  1  0
 16 52  1  0
 16 53  1  0
 17 54  1  0
 17 55  1  0
 17 56  1  0
 18 57  1  6
 19 58  1  6
 22 59  1  0
 22 60  1  0
 22 61  1  0
 24 62  1  0
 24 63  1  0
 25 64  1  1
 27 65  1  0
 27 66  1  0
 27 67  1  0
 28 68  1  0
 28 69  1  0
 29 70  1  0
 29 71  1  0
 31 72  1  0
 32 73  1  1
 33 74  1  0
 33 75  1  0
 33 76  1  0
 34 77  1  6
 35 78  1  0
 35 79  1  0
 36 80  1  0
 38 81  1  0
 38 82  1  0
 38 83  1  0
M  END
>  <meeko>  (3) 
{"is_sidechain": [false], "free_energy": -6.021, "intermolecular_energy": -10.606, "internal_energy": 0.842}

$$$$
LIB_GMJDBOQFBWJYSY__M_PUB_ALL__e8__s20260927
     RDKit          3D

 83 88  0  0  0  0  0  0  0  0999 V2000
    6.9970  -10.8460   -1.4780 C   0  0  0  0  0  0  0  0  0  0  0  0
    6.8600  -12.0620   -0.9150 C   0  0  0  0  0  0  0  0  0  0  0  0
    5.4690  -12.6970   -0.9560 C   0  0  2  0  0  0  0  0  0  0  0  0
    4.6090  -12.4600    0.2880 C   0  0  0  0  0  0  0  0  0  0  0  0
    3.3970  -13.3590    0.0200 C   0  0  2  0  0  0  0  0  0  0  0  0
    2.6070  -12.7320   -0.9920 O   0  0  0  0  0  0  0  0  0  0  0  0
    2.5810  -13.5960    1.2540 C   0  0  1  0  0  0  0  0  0  0  0  0
    1.2550  -13.0680    1.2310 O   0  0  0  0  0  0  0  0  0  0  0  0
    1.3540  -14.5140    1.2680 C   0  0  2  0  0  0  0  0  0  0  0  0
    1.1140  -15.2080    2.5520 C   0  0  0  0  0  0  0  0  0  0  0  0
    0.3740  -16.2790    2.8610 C   0  0  0  0  0  0  0  0  0  0  0  0
   -0.4290  -17.1740    2.0430 C   0  0  0  0  0  0  0  0  0  0  0  0
   -0.8230  -18.2140    2.5650 O   0  0  0  0  0  0  0  0  0  0  0  0
   -0.7210  -16.8970    0.7640 O   0  0  0  0  0  0  0  0  0  0  0  0
   -0.6110  -15.6310    0.0700 C   0  0  0  0  0  0  0  0  0  0  0  0
   -1.1670  -15.9340   -1.3430 C   0  0  0  0  0  0  0  0  0  0  0  0
   -1.5790  -14.5930    0.6760 C   0  0  0  0  0  0  0  0  0  0  0  0
    0.8680  -15.1420   -0.0410 C   0  0  2  0  0  0  0  0  0  0  0  0
    1.8940  -16.1830   -0.6300 C   0  0  2  0  0  0  0  0  0  0  0  0
    2.4120  -17.0550    0.3980 O   0  0  0  0  0  0  0  0  0  0  0  0
    2.7870  -18.3060    0.0080 C   0  0  0  0  0  0  0  0  0  0  0  0
    2.7950  -19.2280    1.1880 C   0  0  0  0  0  0  0  0  0  0  0  0
    3.0860  -18.6360   -1.1300 O   0  0  0  0  0  0  0  0  0  0  0  0
    3.0670  -15.5050   -1.3760 C   0  0  0  0  0  0  0  0  0  0  0  0
    4.0220  -14.6680   -0.5090 C   0  0  1  0  0  0  0  0  0  0  0  0
    5.3860  -14.2330   -1.1880 C   0  0  1  0  0  0  0  0  0  0  0  0
    5.4700  -14.5200   -2.6990 C   0  0  0  0  0  0  0  0  0  0  0  0
    6.5380  -14.9680   -0.4600 C   0  0  0  0  0  0  0  0  0  0  0  0
    7.9080  -14.3420   -0.7140 C   0  0  0  0  0  0  0  0  0  0  0  0
    7.9870  -12.8630   -0.2550 C   0  0  2  0  0  0  0  0  0  0  0  0
    7.7010  -12.8670    1.1540 O   0  0  0  0  0  0  0  0  0  0  0  0
    9.4790  -12.3690   -0.4090 C   0  0  1  0  0  0  0  0  0  0  0  0
   10.2110  -12.1530    0.9280 C   0  0  0  0  0  0  0  0  0  0  0  0
   10.3070  -13.2020   -1.4410 C   0  0  1  0  0  0  0  0  0  0  0  0
   11.0490  -12.3060   -2.4410 C   0  0  0  0  0  0  0  0  0  0  0  0
   11.9310  -13.1540   -3.3020 C   0  0  0  0  0  0  0  0  0  0  0  0
   12.4120  -14.3300   -2.8680 C   0  0  0  0  0  0  0  0  0  0  0  0
   13.2950  -15.2130   -3.6940 C   0  0  0  0  0  0  0  0  0  0  0  0
   12.1410  -14.7840   -1.4780 C   0  0  0  0  0  0  0  0  0  0  0  0
   12.7050  -15.7590   -0.9980 O   0  0  0  0  0  0  0  0  0  0  0  0
   11.2670  -14.0370   -0.7550 O   0  0  0  0  0  0  0  0  0  0  0  0
    7.9767  -10.3458   -1.4752 H   0  0  0  0  0  0  0  0  0  0  0  0
    6.1292  -10.3532   -1.9406 H   0  0  0  0  0  0  0  0  0  0  0  0
    5.0921  -12.1623   -1.8403 H   0  0  0  0  0  0  0  0  0  0  0  0
    5.1379  -12.7659    1.2027 H   0  0  0  0  0  0  0  0  0  0  0  0
    4.3480  -11.4037    0.4496 H   0  0  0  0  0  0  0  0  0  0  0  0
    1.8450  -12.3270   -0.5370 H   0  0  0  0  0  0  0  0  0  0  0  0
    3.4807  -13.5421    1.8846 H   0  0  0  0  0  0  0  0  0  0  0  0
    1.6398  -14.7623    3.4092 H   0  0  0  0  0  0  0  0  0  0  0  0
    0.3728  -16.5289    3.9322 H   0  0  0  0  0  0  0  0  0  0  0  0
   -2.1297  -16.4586   -1.2535 H   0  0  0  0  0  0  0  0  0  0  0  0
   -1.3129  -14.9907   -1.8897 H   0  0  0  0  0  0  0  0  0  0  0  0
   -0.4534  -16.5680   -1.8897 H   0  0  0  0  0  0  0  0  0  0  0  0
   -1.5312  -14.6442    1.7738 H   0  0  0  0  0  0  0  0  0  0  0  0
   -1.2910  -13.5849    0.3431 H   0  0  0  0  0  0  0  0  0  0  0  0
   -2.6047  -14.8100    0.3431 H   0  0  0  0  0  0  0  0  0  0  0  0
    0.8381  -14.3567   -0.8106 H   0  0  0  0  0  0  0  0  0  0  0  0
    1.3301  -16.7822   -1.3600 H   0  0  0  0  0  0  0  0  0  0  0  0
    2.7899  -18.6366    2.1155 H   0  0  0  0  0  0  0  0  0  0  0  0
    1.9024  -19.8701    1.1577 H   0  0  0  0  0  0  0  0  0  0  0  0
    3.6986  -19.8545    1.1577 H   0  0  0  0  0  0  0  0  0  0  0  0
    3.6584  -16.2949   -1.8621 H   0  0  0  0  0  0  0  0  0  0  0  0
    2.6028  -14.7953   -2.0766 H   0  0  0  0  0  0  0  0  0  0  0  0
    4.2271  -15.3863    0.2985 H   0  0  0  0  0  0  0  0  0  0  0  0
    5.7758  -15.5647   -2.8573 H   0  0  0  0  0  0  0  0  0  0  0  0
    4.4851  -14.3524   -3.1594 H   0  0  0  0  0  0  0  0  0  0  0  0
    6.2091  -13.8478   -3.1594 H   0  0  0  0  0  0  0  0  0  0  0  0
    6.3386  -14.9454    0.6215 H   0  0  0  0  0  0  0  0  0  0  0  0
    6.5702  -15.9948   -0.8534 H   0  0  0  0  0  0  0  0  0  0  0  0
    8.6660  -14.9210   -0.1662 H   0  0  0  0  0  0  0  0  0  0  0  0
    8.0852  -14.3619   -1.7994 H   0  0  0  0  0  0  0  0  0  0  0  0
    8.5070  -13.1610    1.6130 H   0  0  0  0  0  0  0  0  0  0  0  0
    9.3930  -11.3629   -0.8454 H   0  0  0  0  0  0  0  0  0  0  0  0
    9.5215  -12.3565    1.7606 H   0  0  0  0  0  0  0  0  0  0  0  0
   11.0715  -12.8355    0.9894 H   0  0  0  0  0  0  0  0  0  0  0  0
   10.5631  -11.1127    0.9894 H   0  0  0  0  0  0  0  0  0  0  0  0
    9.5925  -13.8251   -1.9989 H   0  0  0  0  0  0  0  0  0  0  0  0
   10.3198  -11.7757   -3.0712 H   0  0  0  0  0  0  0  0  0  0  0  0
   11.6605  -11.5718   -1.8960 H   0  0  0  0  0  0  0  0  0  0  0  0
   12.1911  -12.8064   -4.3127 H   0  0  0  0  0  0  0  0  0  0  0  0
   13.9158  -15.8338   -3.0313 H   0  0  0  0  0  0  0  0  0  0  0  0
   12.6739  -15.8620   -4.3288 H   0  0  0  0  0  0  0  0  0  0  0  0
   13.9440  -14.5919   -4.3288 H   0  0  0  0  0  0  0  0  0  0  0  0
  1  2  2  0
  2  3  1  0
  3  4  1  0
  4  5  1  0
  5  6  1  6
  5  7  1  0
  7  8  1  0
  9  8  1  1
  9 10  1  0
 10 11  2  0
 11 12  1  0
 12 13  2  0
 12 14  1  0
 14 15  1  0
 15 16  1  0
 15 17  1  0
 15 18  1  0
 18 19  1  0
 19 20  1  0
 20 21  1  0
 21 22  1  0
 21 23  2  0
 19 24  1  0
 24 25  1  0
 25 26  1  0
 26 27  1  6
 26 28  1  0
 28 29  1  0
 29 30  1  0
 30 31  1  1
 30 32  1  0
 32 33  1  0
 32 34  1  0
 34 35  1  0
 35 36  1  0
 36 37  2  0
 37 38  1  0
 37 39  1  0
 39 40  2  0
 39 41  1  0
 30  2  1  0
 41 34  1  0
 26  3  1  0
 25  5  1  0
  9  7  1  0
 18  9  1  0
  1 42  1  0
  1 43  1  0
  3 44  1  6
  4 45  1  0
  4 46  1  0
  6 47  1  0
  7 48  1  1
 10 49  1  0
 11 50  1  0
 16 51  1  0
 16 52  1  0
 16 53  1  0
 17 54  1  0
 17 55  1  0
 17 56  1  0
 18 57  1  6
 19 58  1  6
 22 59  1  0
 22 60  1  0
 22 61  1  0
 24 62  1  0
 24 63  1  0
 25 64  1  1
 27 65  1  0
 27 66  1  0
 27 67  1  0
 28 68  1  0
 28 69  1  0
 29 70  1  0
 29 71  1  0
 31 72  1  0
 32 73  1  6
 33 74  1  0
 33 75  1  0
 33 76  1  0
 34 77  1  6
 35 78  1  0
 35 79  1  0
 36 80  1  0
 38 81  1  0
 38 82  1  0
 38 83  1  0
M  END
>  <meeko>  (4) 
{"is_sidechain": [false], "free_energy": -6.011, "intermolecular_energy": -10.964, "internal_energy": 1.216}

$$$$
LIB_GMJDBOQFBWJYSY__M_PUB_ALL__e8__s20260927
     RDKit          3D

 83 88  0  0  0  0  0  0  0  0999 V2000
    8.1070  -17.2990   -0.8870 C   0  0  0  0  0  0  0  0  0  0  0  0
    7.2500  -16.3210   -1.2380 C   0  0  0  0  0  0  0  0  0  0  0  0
    5.9160  -16.2610   -0.4930 C   0  0  2  0  0  0  0  0  0  0  0  0
    4.7540  -16.9850   -1.1800 C   0  0  0  0  0  0  0  0  0  0  0  0
    3.5610  -16.5830   -0.3070 C   0  0  2  0  0  0  0  0  0  0  0  0
    3.6590  -17.3070    0.9210 O   0  0  0  0  0  0  0  0  0  0  0  0
    2.2490  -16.8550   -0.9760 C   0  0  1  0  0  0  0  0  0  0  0  0
    1.4250  -17.8390   -0.3500 O   0  0  0  0  0  0  0  0  0  0  0  0
    0.9050  -16.4870   -0.3390 C   0  0  2  0  0  0  0  0  0  0  0  0
   -0.1600  -16.1290   -1.3010 C   0  0  0  0  0  0  0  0  0  0  0  0
   -1.3360  -15.5120   -1.1400 C   0  0  0  0  0  0  0  0  0  0  0  0
   -1.9990  -14.9310    0.0120 C   0  0  0  0  0  0  0  0  0  0  0  0
   -3.0610  -14.3390   -0.1560 O   0  0  0  0  0  0  0  0  0  0  0  0
   -1.4640  -15.0440    1.2370 O   0  0  0  0  0  0  0  0  0  0  0  0
   -0.5380  -16.0430    1.7260 C   0  0  0  0  0  0  0  0  0  0  0  0
   -0.4470  -15.7520    3.2450 C   0  0  0  0  0  0  0  0  0  0  0  0
   -1.1550  -17.4540    1.6180 C   0  0  0  0  0  0  0  0  0  0  0  0
    0.8760  -15.9100    1.0790 C   0  0  2  0  0  0  0  0  0  0  0  0
    1.5420  -14.4780    1.1590 C   0  0  2  0  0  0  0  0  0  0  0  0
    1.1230  -13.6290    0.0700 O   0  0  0  0  0  0  0  0  0  0  0  0
    1.2800  -12.2860    0.2450 C   0  0  0  0  0  0  0  0  0  0  0  0
    2.0200  -11.7030   -0.9190 C   0  0  0  0  0  0  0  0  0  0  0  0
    0.8920  -11.6450    1.2090 O   0  0  0  0  0  0  0  0  0  0  0  0
    3.0880  -14.5430    1.2030 C   0  0  0  0  0  0  0  0  0  0  0  0
    3.7750  -15.0730   -0.0660 C   0  0  1  0  0  0  0  0  0  0  0  0
    5.3420  -14.8550   -0.1580 C   0  0  1  0  0  0  0  0  0  0  0  0
    5.9940  -14.3410    1.1400 C   0  0  0  0  0  0  0  0  0  0  0  0
    5.6190  -13.8530   -1.3050 C   0  0  0  0  0  0  0  0  0  0  0  0
    7.0700  -13.8700   -1.7820 C   0  0  0  0  0  0  0  0  0  0  0  0
    7.5130  -15.2580   -2.3110 C   0  0  2  0  0  0  0  0  0  0  0  0
    6.6310  -15.5690   -3.4040 O   0  0  0  0  0  0  0  0  0  0  0  0
    8.9610  -15.1220   -2.9270 C   0  0  1  0  0  0  0  0  0  0  0  0
    8.9870  -15.0680   -4.4650 C   0  0  0  0  0  0  0  0  0  0  0  0
    9.8210  -14.0050   -2.2520 C   0  0  1  0  0  0  0  0  0  0  0  0
   10.4870  -14.4930   -0.9590 C   0  0  0  0  0  0  0  0  0  0  0  0
   11.4040  -13.4300   -0.4460 C   0  0  0  0  0  0  0  0  0  0  0  0
   11.9670  -12.5310   -1.2700 C   0  0  0  0  0  0  0  0  0  0  0  0
   12.8890  -11.4490   -0.8030 C   0  0  0  0  0  0  0  0  0  0  0  0
   11.7510  -12.6240   -2.7390 C   0  0  0  0  0  0  0  0  0  0  0  0
   12.3830  -11.9330   -3.5270 O   0  0  0  0  0  0  0  0  0  0  0  0
   10.8440  -13.5420   -3.1620 O   0  0  0  0  0  0  0  0  0  0  0  0
    9.0800  -17.3854   -1.3928 H   0  0  0  0  0  0  0  0  0  0  0  0
    7.8339  -18.0114   -0.0946 H   0  0  0  0  0  0  0  0  0  0  0  0
    6.2429  -16.7633    0.4294 H   0  0  0  0  0  0  0  0  0  0  0  0
    4.6248  -16.6385   -2.2160 H   0  0  0  0  0  0  0  0  0  0  0  0
    4.8965  -18.0728   -1.2593 H   0  0  0  0  0  0  0  0  0  0  0  0
    4.1510  -18.1260    0.7210 H   0  0  0  0  0  0  0  0  0  0  0  0
    2.6881  -16.6520   -1.9639 H   0  0  0  0  0  0  0  0  0  0  0  0
    0.0542  -16.4241   -2.3388 H   0  0  0  0  0  0  0  0  0  0  0  0
   -1.9182  -15.4283   -2.0695 H   0  0  0  0  0  0  0  0  0  0  0  0
   -0.7289  -16.6536    3.8086 H   0  0  0  0  0  0  0  0  0  0  0  0
    0.5835  -15.4660    3.5025 H   0  0  0  0  0  0  0  0  0  0  0  0
   -1.1309  -14.9298    3.5025 H   0  0  0  0  0  0  0  0  0  0  0  0
   -1.3306  -17.8556    2.6269 H   0  0  0  0  0  0  0  0  0  0  0  0
   -2.1099  -17.3961    1.0751 H   0  0  0  0  0  0  0  0  0  0  0  0
   -0.4641  -18.1157    1.0751 H   0  0  0  0  0  0  0  0  0  0  0  0
    1.5236  -16.5265    1.7197 H   0  0  0  0  0  0  0  0  0  0  0  0
    1.1921  -14.0403    2.1056 H   0  0  0  0  0  0  0  0  0  0  0  0
    2.8344  -11.0614   -0.5516 H   0  0  0  0  0  0  0  0  0  0  0  0
    2.4404  -12.5152   -1.5302 H   0  0  0  0  0  0  0  0  0  0  0  0
    1.3288  -11.1042   -1.5302 H   0  0  0  0  0  0  0  0  0  0  0  0
    3.4628  -13.5257    1.3891 H   0  0  0  0  0  0  0  0  0  0  0  0
    3.3327  -15.2641    1.9968 H   0  0  0  0  0  0  0  0  0  0  0  0
    3.2734  -14.4565   -0.8264 H   0  0  0  0  0  0  0  0  0  0  0  0
    5.4631  -14.7596    2.0077 H   0  0  0  0  0  0  0  0  0  0  0  0
    7.0482  -14.6536    1.1695 H   0  0  0  0  0  0  0  0  0  0  0  0
    5.9362  -13.2429    1.1695 H   0  0  0  0  0  0  0  0  0  0  0  0
    4.9686  -14.1064   -2.1552 H   0  0  0  0  0  0  0  0  0  0  0  0
    5.4152  -12.8450   -0.9146 H   0  0  0  0  0  0  0  0  0  0  0  0
    7.1824  -13.1334   -2.5912 H   0  0  0  0  0  0  0  0  0  0  0  0
    7.7053  -13.6273   -0.9175 H   0  0  0  0  0  0  0  0  0  0  0  0
    5.9880  -14.8420   -3.4730 H   0  0  0  0  0  0  0  0  0  0  0  0
    9.4600  -16.0691   -2.6739 H   0  0  0  0  0  0  0  0  0  0  0  0
    9.4428  -14.1214   -4.7910 H   0  0  0  0  0  0  0  0  0  0  0  0
    9.5776  -15.9116   -4.8516 H   0  0  0  0  0  0  0  0  0  0  0  0
    7.9592  -15.1324   -4.8516 H   0  0  0  0  0  0  0  0  0  0  0  0
    9.1370  -13.1814   -1.9992 H   0  0  0  0  0  0  0  0  0  0  0  0
    9.7146  -14.7073   -0.2057 H   0  0  0  0  0  0  0  0  0  0  0  0
   11.0609  -15.4091   -1.1623 H   0  0  0  0  0  0  0  0  0  0  0  0
   11.6228  -13.3828    0.6310 H   0  0  0  0  0  0  0  0  0  0  0  0
   12.9050  -11.4302    0.2967 H   0  0  0  0  0  0  0  0  0  0  0  0
   13.9035  -11.6432   -1.1812 H   0  0  0  0  0  0  0  0  0  0  0  0
   12.5363  -10.4781   -1.1812 H   0  0  0  0  0  0  0  0  0  0  0  0
  1  2  2  0
  2  3  1  0
  3  4  1  0
  4  5  1  0
  5  6  1  1
  5  7  1  0
  7  8  1  0
  9  8  1  1
  9 10  1  0
 10 11  2  0
 11 12  1  0
 12 13  2  0
 12 14  1  0
 14 15  1  0
 15 16  1  0
 15 17  1  0
 15 18  1  0
 18 19  1  0
 19 20  1  0
 20 21  1  0
 21 22  1  0
 21 23  2  0
 19 24  1  0
 24 25  1  0
 25 26  1  0
 26 27  1  1
 26 28  1  0
 28 29  1  0
 29 30  1  0
 30 31  1  6
 30 32  1  0
 32 33  1  0
 32 34  1  0
 34 35  1  0
 35 36  1  0
 36 37  2  0
 37 38  1  0
 37 39  1  0
 39 40  2  0
 39 41  1  0
 30  2  1  0
 41 34  1  0
 26  3  1  0
 25  5  1  0
  9  7  1  0
 18  9  1  0
  1 42  1  0
  1 43  1  0
  3 44  1  1
  4 45  1  0
  4 46  1  0
  6 47  1  0
  7 48  1  6
 10 49  1  0
 11 50  1  0
 16 51  1  0
 16 52  1  0
 16 53  1  0
 17 54  1  0
 17 55  1  0
 17 56  1  0
 18 57  1  1
 19 58  1  1
 22 59  1  0
 22 60  1  0
 22 61  1  0
 24 62  1  0
 24 63  1  0
 25 64  1  6
 27 65  1  0
 27 66  1  0
 27 67  1  0
 28 68  1  0
 28 69  1  0
 29 70  1  0
 29 71  1  0
 31 72  1  0
 32 73  1  6
 33 74  1  0
 33 75  1  0
 33 76  1  0
 34 77  1  1
 35 78  1  0
 35 79  1  0
 36 80  1  0
 38 81  1  0
 38 82  1  0
 38 83  1  0
M  END
>  <meeko>  (5) 
{"is_sidechain": [false], "free_energy": -5.767, "intermolecular_energy": -10.103, "internal_energy": 0.785}

$$$$
LIB_GMJDBOQFBWJYSY__M_PUB_ALL__e8__s20260927
     RDKit          3D

 83 88  0  0  0  0  0  0  0  0999 V2000
    9.6710  -11.6070    1.3530 C   0  0  0  0  0  0  0  0  0  0  0  0
    9.0560  -12.2390    0.3340 C   0  0  0  0  0  0  0  0  0  0  0  0
    7.5280  -12.2150    0.3180 C   0  0  2  0  0  0  0  0  0  0  0  0
    6.8510  -13.4290    0.9600 C   0  0  0  0  0  0  0  0  0  0  0  0
    5.3760  -13.1970    0.6170 C   0  0  2  0  0  0  0  0  0  0  0  0
    4.8990  -12.1360    1.4480 O   0  0  0  0  0  0  0  0  0  0  0  0
    4.5460  -14.4300    0.8080 C   0  0  1  0  0  0  0  0  0  0  0  0
    3.5660  -14.3630    1.8450 O   0  0  0  0  0  0  0  0  0  0  0  0
    3.0470  -14.4720    0.4960 C   0  0  2  0  0  0  0  0  0  0  0  0
    2.5470  -15.7850    0.0330 C   0  0  0  0  0  0  0  0  0  0  0  0
    1.4450  -16.1310   -0.6420 C   0  0  0  0  0  0  0  0  0  0  0  0
    0.3250  -15.3350   -1.1860 C   0  0  0  0  0  0  0  0  0  0  0  0
   -0.4550  -15.8840   -1.9600 O   0  0  0  0  0  0  0  0  0  0  0  0
    0.1700  -14.0440   -0.8590 O   0  0  0  0  0  0  0  0  0  0  0  0
    0.7820  -13.3130    0.2300 C   0  0  0  0  0  0  0  0  0  0  0  0
    0.1340  -11.9080    0.1440 C   0  0  0  0  0  0  0  0  0  0  0  0
    0.3310  -13.8860    1.5910 C   0  0  0  0  0  0  0  0  0  0  0  0
    2.3300  -13.1890    0.0670 C   0  0  2  0  0  0  0  0  0  0  0  0
    2.8360  -12.6790   -1.3250 C   0  0  2  0  0  0  0  0  0  0  0  0
    2.9150  -13.7750   -2.2620 O   0  0  0  0  0  0  0  0  0  0  0  0
    2.7050  -13.4750   -3.5740 C   0  0  0  0  0  0  0  0  0  0  0  0
    2.3240  -12.0340   -3.7150 C   0  0  0  0  0  0  0  0  0  0  0  0
    2.7980  -14.2590   -4.5070 O   0  0  0  0  0  0  0  0  0  0  0  0
    4.1870  -11.9260   -1.2900 C   0  0  0  0  0  0  0  0  0  0  0  0
    5.4080  -12.7560   -0.8620 C   0  0  1  0  0  0  0  0  0  0  0  0
    6.8240  -12.0740   -1.0620 C   0  0  1  0  0  0  0  0  0  0  0  0
    6.7690  -10.5840   -1.4500 C   0  0  0  0  0  0  0  0  0  0  0  0
    7.5850  -12.8620   -2.1560 C   0  0  0  0  0  0  0  0  0  0  0  0
    9.0880  -12.5930   -2.1580 C   0  0  0  0  0  0  0  0  0  0  0  0
    9.7670  -12.9630   -0.8150 C   0  0  2  0  0  0  0  0  0  0  0  0
    9.5190  -14.3660   -0.6160 O   0  0  0  0  0  0  0  0  0  0  0  0
   11.3300  -12.8030   -0.9810 C   0  0  1  0  0  0  0  0  0  0  0  0
   12.1530  -13.5290    0.0990 C   0  0  0  0  0  0  0  0  0  0  0  0
   11.8320  -13.0810   -2.4340 C   0  0  1  0  0  0  0  0  0  0  0  0
   13.0910  -12.2710   -2.7730 C   0  0  0  0  0  0  0  0  0  0  0  0
   13.5990  -12.6890   -4.1150 C   0  0  0  0  0  0  0  0  0  0  0  0
   13.3590  -13.9160   -4.6050 C   0  0  0  0  0  0  0  0  0  0  0  0
   13.8460  -14.3790   -5.9430 C   0  0  0  0  0  0  0  0  0  0  0  0
   12.6420  -14.9250   -3.7800 C   0  0  0  0  0  0  0  0  0  0  0  0
   12.5610  -16.0970   -4.1240 O   0  0  0  0  0  0  0  0  0  0  0  0
   12.1180  -14.4870   -2.6060 O   0  0  0  0  0  0  0  0  0  0  0  0
   10.7695  -11.5953    1.4102 H   0  0  0  0  0  0  0  0  0  0  0  0
    9.0746  -11.1028    2.1276 H   0  0  0  0  0  0  0  0  0  0  0  0
    7.3932  -11.2942    0.9045 H   0  0  0  0  0  0  0  0  0  0  0  0
    7.2191  -14.3686    0.5223 H   0  0  0  0  0  0  0  0  0  0  0  0
    7.0437  -13.5224    2.0390 H   0  0  0  0  0  0  0  0  0  0  0  0
    5.5070  -12.0870    2.2100 H   0  0  0  0  0  0  0  0  0  0  0  0
    5.3894  -15.0694    0.5082 H   0  0  0  0  0  0  0  0  0  0  0  0
    3.2006  -16.6314    0.2908 H   0  0  0  0  0  0  0  0  0  0  0  0
    1.3557  -17.2117   -0.8269 H   0  0  0  0  0  0  0  0  0  0  0  0
   -0.0434  -11.5233    1.1591 H   0  0  0  0  0  0  0  0  0  0  0  0
    0.8083  -11.2255   -0.3941 H   0  0  0  0  0  0  0  0  0  0  0  0
   -0.8229  -11.9778   -0.3941 H   0  0  0  0  0  0  0  0  0  0  0  0
    0.7893  -13.3037    2.4040 H   0  0  0  0  0  0  0  0  0  0  0  0
   -0.7646  -13.8257    1.6693 H   0  0  0  0  0  0  0  0  0  0  0  0
    0.6470  -14.9367    1.6693 H   0  0  0  0  0  0  0  0  0  0  0  0
    2.6041  -12.3780    0.7577 H   0  0  0  0  0  0  0  0  0  0  0  0
    2.0884  -11.9402   -1.6493 H   0  0  0  0  0  0  0  0  0  0  0  0
    2.2057  -11.5867   -2.7170 H   0  0  0  0  0  0  0  0  0  0  0  0
    3.1115  -11.4987   -4.2658 H   0  0  0  0  0  0  0  0  0  0  0  0
    1.3749  -11.9579   -4.2658 H   0  0  0  0  0  0  0  0  0  0  0  0
    4.3818  -11.5363   -2.3001 H   0  0  0  0  0  0  0  0  0  0  0  0
    4.0733  -11.1466   -0.5222 H   0  0  0  0  0  0  0  0  0  0  0  0
    5.3101  -13.6081   -1.5507 H   0  0  0  0  0  0  0  0  0  0  0  0
    6.7463   -9.9684   -0.5387 H   0  0  0  0  0  0  0  0  0  0  0  0
    7.6583  -10.3268   -2.0442 H   0  0  0  0  0  0  0  0  0  0  0  0
    5.8632  -10.3930   -2.0442 H   0  0  0  0  0  0  0  0  0  0  0  0
    7.4228  -13.9370   -1.9887 H   0  0  0  0  0  0  0  0  0  0  0  0
    7.1931  -12.5305   -3.1289 H   0  0  0  0  0  0  0  0  0  0  0  0
    9.5501  -13.1867   -2.9605 H   0  0  0  0  0  0  0  0  0  0  0  0
    9.2307  -11.5136   -2.3144 H   0  0  0  0  0  0  0  0  0  0  0  0
   10.2350  -14.8530   -1.0580 H   0  0  0  0  0  0  0  0  0  0  0  0
   11.5200  -11.7339   -0.8050 H   0  0  0  0  0  0  0  0  0  0  0  0
   11.8035  -13.2207    1.0954 H   0  0  0  0  0  0  0  0  0  0  0  0
   12.0276  -14.6160   -0.0134 H   0  0  0  0  0  0  0  0  0  0  0  0
   13.2159  -13.2690   -0.0134 H   0  0  0  0  0  0  0  0  0  0  0  0
   11.0264  -12.7720   -3.1163 H   0  0  0  0  0  0  0  0  0  0  0  0
   12.8449  -11.1990   -2.7905 H   0  0  0  0  0  0  0  0  0  0  0  0
   13.8640  -12.4545   -2.0122 H   0  0  0  0  0  0  0  0  0  0  0  0
   14.1827  -11.9753   -4.7149 H   0  0  0  0  0  0  0  0  0  0  0  0
   14.6369  -15.1310   -5.8052 H   0  0  0  0  0  0  0  0  0  0  0  0
   13.0106  -14.8240   -6.5034 H   0  0  0  0  0  0  0  0  0  0  0  0
   14.2483  -13.5222   -6.5034 H   0  0  0  0  0  0  0  0  0  0  0  0
  1  2  2  0
  2  3  1  0
  3  4  1  0
  4  5  1  0
  5  6  1  1
  5  7  1  0
  7  8  1  0
  9  8  1  1
  9 10  1  0
 10 11  2  0
 11 12  1  0
 12 13  2  0
 12 14  1  0
 14 15  1  0
 15 16  1  0
 15 17  1  0
 15 18  1  0
 18 19  1  0
 19 20  1  0
 20 21  1  0
 21 22  1  0
 21 23  2  0
 19 24  1  0
 24 25  1  0
 25 26  1  0
 26 27  1  6
 26 28  1  0
 28 29  1  0
 29 30  1  0
 30 31  1  1
 30 32  1  0
 32 33  1  0
 32 34  1  0
 34 35  1  0
 35 36  1  0
 36 37  2  0
 37 38  1  0
 37 39  1  0
 39 40  2  0
 39 41  1  0
 30  2  1  0
 41 34  1  0
 26  3  1  0
 25  5  1  0
  9  7  1  0
 18  9  1  0
  1 42  1  0
  1 43  1  0
  3 44  1  1
  4 45  1  0
  4 46  1  0
  6 47  1  0
  7 48  1  1
 10 49  1  0
 11 50  1  0
 16 51  1  0
 16 52  1  0
 16 53  1  0
 17 54  1  0
 17 55  1  0
 17 56  1  0
 18 57  1  1
 19 58  1  6
 22 59  1  0
 22 60  1  0
 22 61  1  0
 24 62  1  0
 24 63  1  0
 25 64  1  6
 27 65  1  0
 27 66  1  0
 27 67  1  0
 28 68  1  0
 28 69  1  0
 29 70  1  0
 29 71  1  0
 31 72  1  0
 32 73  1  1
 33 74  1  0
 33 75  1  0
 33 76  1  0
 34 77  1  6
 35 78  1  0
 35 79  1  0
 36 80  1  0
 38 81  1  0
 38 82  1  0
 38 83  1  0
M  END
>  <meeko>  (6) 
{"is_sidechain": [false], "free_energy": -5.723, "intermolecular_energy": -11.025, "internal_energy": 1.784}

$$$$
LIB_GMJDBOQFBWJYSY__M_PUB_ALL__e8__s20260927
     RDKit          3D

 83 88  0  0  0  0  0  0  0  0999 V2000
    6.1940  -11.2560   -2.0040 C   0  0  0  0  0  0  0  0  0  0  0  0
    5.8980  -12.0370   -0.9470 C   0  0  0  0  0  0  0  0  0  0  0  0
    4.4680  -12.5720   -0.8540 C   0  0  2  0  0  0  0  0  0  0  0  0
    3.5150  -11.7320    0.0000 C   0  0  0  0  0  0  0  0  0  0  0  0
    2.2610  -12.6120    0.0480 C   0  0  2  0  0  0  0  0  0  0  0  0
    1.6310  -12.5390   -1.2330 O   0  0  0  0  0  0  0  0  0  0  0  0
    1.3110  -12.1920    1.1270 C   0  0  1  0  0  0  0  0  0  0  0  0
    0.0500  -11.6900    0.6830 O   0  0  0  0  0  0  0  0  0  0  0  0
    0.0050  -12.9400    1.4140 C   0  0  2  0  0  0  0  0  0  0  0  0
   -0.4230  -12.9180    2.8300 C   0  0  0  0  0  0  0  0  0  0  0  0
   -1.2940  -13.6730    3.5090 C   0  0  0  0  0  0  0  0  0  0  0  0
   -2.1080  -14.8260    3.1190 C   0  0  0  0  0  0  0  0  0  0  0  0
   -2.6810  -15.4520    4.0070 O   0  0  0  0  0  0  0  0  0  0  0  0
   -2.2300  -15.1940    1.8340 O   0  0  0  0  0  0  0  0  0  0  0  0
   -1.9340  -14.4220    0.6470 C   0  0  0  0  0  0  0  0  0  0  0  0
   -2.3800  -15.3440   -0.5150 C   0  0  0  0  0  0  0  0  0  0  0  0
   -2.8510  -13.1840    0.5600 C   0  0  0  0  0  0  0  0  0  0  0  0
   -0.4120  -14.1030    0.5100 C   0  0  2  0  0  0  0  0  0  0  0  0
    0.5770  -15.3330    0.6390 C   0  0  2  0  0  0  0  0  0  0  0  0
    0.8940  -15.6100    2.0200 O   0  0  0  0  0  0  0  0  0  0  0  0
    1.1710  -16.9070    2.3360 C   0  0  0  0  0  0  0  0  0  0  0  0
    0.1860  -17.8160    1.6680 C   0  0  0  0  0  0  0  0  0  0  0  0
    2.0760  -17.2840    3.0650 O   0  0  0  0  0  0  0  0  0  0  0  0
    1.8840  -15.1570   -0.1700 C   0  0  0  0  0  0  0  0  0  0  0  0
    2.8180  -14.0300    0.2990 C   0  0  1  0  0  0  0  0  0  0  0  0
    4.2750  -14.0210   -0.3240 C   0  0  1  0  0  0  0  0  0  0  0  0
    4.4800  -15.0130   -1.4850 C   0  0  0  0  0  0  0  0  0  0  0  0
    5.2820  -14.3380    0.8080 C   0  0  0  0  0  0  0  0  0  0  0  0
    6.7190  -13.9550    0.4610 C   0  0  0  0  0  0  0  0  0  0  0  0
    6.8820  -12.4450    0.1550 C   0  0  2  0  0  0  0  0  0  0  0  0
    6.4600  -11.7500    1.3420 O   0  0  0  0  0  0  0  0  0  0  0  0
    8.4190  -12.1310   -0.0260 C   0  0  1  0  0  0  0  0  0  0  0  0
    9.1590  -11.8330    1.2900 C   0  0  0  0  0  0  0  0  0  0  0  0
    9.1610  -13.1650   -0.9340 C   0  0  1  0  0  0  0  0  0  0  0  0
    9.4080  -12.6180   -2.3460 C   0  0  0  0  0  0  0  0  0  0  0  0
   10.2440  -13.5930   -3.1130 C   0  0  0  0  0  0  0  0  0  0  0  0
   11.0860  -14.4350   -2.4920 C   0  0  0  0  0  0  0  0  0  0  0  0
   11.9400  -15.4280   -3.2160 C   0  0  0  0  0  0  0  0  0  0  0  0
   11.2660  -14.3620   -1.0170 C   0  0  0  0  0  0  0  0  0  0  0  0
   12.1460  -14.9910   -0.4450 O   0  0  0  0  0  0  0  0  0  0  0  0
   10.4290  -13.5310   -0.3440 O   0  0  0  0  0  0  0  0  0  0  0  0
    7.2082  -10.8457   -2.1178 H   0  0  0  0  0  0  0  0  0  0  0  0
    5.4215  -11.0286   -2.7533 H   0  0  0  0  0  0  0  0  0  0  0  0
    4.2272  -12.5293   -1.9265 H   0  0  0  0  0  0  0  0  0  0  0  0
    3.9241  -11.5656    1.0074 H   0  0  0  0  0  0  0  0  0  0  0  0
    3.3323  -10.7251   -0.4034 H   0  0  0  0  0  0  0  0  0  0  0  0
    2.2590  -12.9270   -1.8720 H   0  0  0  0  0  0  0  0  0  0  0  0
    2.1471  -11.8753    1.7679 H   0  0  0  0  0  0  0  0  0  0  0  0
    0.0637  -12.1387    3.4348 H   0  0  0  0  0  0  0  0  0  0  0  0
   -1.4231  -13.3705    4.5587 H   0  0  0  0  0  0  0  0  0  0  0  0
   -2.8244  -16.2626   -0.1043 H   0  0  0  0  0  0  0  0  0  0  0  0
   -3.1247  -14.8210   -1.1329 H   0  0  0  0  0  0  0  0  0  0  0  0
   -1.5077  -15.6032   -1.1329 H   0  0  0  0  0  0  0  0  0  0  0  0
   -3.1037  -12.8428    1.5748 H   0  0  0  0  0  0  0  0  0  0  0  0
   -2.3298  -12.3787    0.0216 H   0  0  0  0  0  0  0  0  0  0  0  0
   -3.7732  -13.4479    0.0216 H   0  0  0  0  0  0  0  0  0  0  0  0
   -0.3041  -13.7967   -0.5410 H   0  0  0  0  0  0  0  0  0  0  0  0
    0.0380  -16.1892    0.2074 H   0  0  0  0  0  0  0  0  0  0  0  0
   -0.3951  -18.3523    2.4327 H   0  0  0  0  0  0  0  0  0  0  0  0
   -0.4943  -17.2217    1.0403 H   0  0  0  0  0  0  0  0  0  0  0  0
    0.7239  -18.5417    1.0403 H   0  0  0  0  0  0  0  0  0  0  0  0
    2.4435  -16.1026   -0.1161 H   0  0  0  0  0  0  0  0  0  0  0  0
    1.5693  -14.8787   -1.1866 H   0  0  0  0  0  0  0  0  0  0  0  0
    2.8790  -14.2677    1.3713 H   0  0  0  0  0  0  0  0  0  0  0  0
    4.6869  -16.0144   -1.0795 H   0  0  0  0  0  0  0  0  0  0  0  0
    3.5701  -15.0482   -2.1022 H   0  0  0  0  0  0  0  0  0  0  0  0
    5.3293  -14.6847   -2.1022 H   0  0  0  0  0  0  0  0  0  0  0  0
    4.9806  -13.7838    1.7091 H   0  0  0  0  0  0  0  0  0  0  0  0
    5.2634  -15.4264    0.9661 H   0  0  0  0  0  0  0  0  0  0  0  0
    7.3665  -14.2128    1.3121 H   0  0  0  0  0  0  0  0  0  0  0  0
    6.9985  -14.5085   -0.4476 H   0  0  0  0  0  0  0  0  0  0  0  0
    5.9240  -10.9900    1.0580 H   0  0  0  0  0  0  0  0  0  0  0  0
    8.4444  -11.1812   -0.5803 H   0  0  0  0  0  0  0  0  0  0  0  0
    8.5126  -12.0933    2.1412 H   0  0  0  0  0  0  0  0  0  0  0  0
   10.0822  -12.4295    1.3347 H   0  0  0  0  0  0  0  0  0  0  0  0
    9.4111  -10.7632    1.3347 H   0  0  0  0  0  0  0  0  0  0  0  0
    8.5102  -14.0483   -1.0132 H   0  0  0  0  0  0  0  0  0  0  0  0
    8.4453  -12.4758   -2.8589 H   0  0  0  0  0  0  0  0  0  0  0  0
    9.9320  -11.6530   -2.2816 H   0  0  0  0  0  0  0  0  0  0  0  0
   10.1674  -13.6209   -4.2100 H   0  0  0  0  0  0  0  0  0  0  0  0
   12.4764  -16.0517   -2.4857 H   0  0  0  0  0  0  0  0  0  0  0  0
   11.3047  -16.0667   -3.8472 H   0  0  0  0  0  0  0  0  0  0  0  0
   12.6666  -14.8955   -3.8472 H   0  0  0  0  0  0  0  0  0  0  0  0
  1  2  2  0
  2  3  1  0
  3  4  1  0
  4  5  1  0
  5  6  1  6
  5  7  1  0
  7  8  1  0
  9  8  1  6
  9 10  1  0
 10 11  2  0
 11 12  1  0
 12 13  2  0
 12 14  1  0
 14 15  1  0
 15 16  1  0
 15 17  1  0
 15 18  1  0
 18 19  1  0
 19 20  1  0
 20 21  1  0
 21 22  1  0
 21 23  2  0
 19 24  1  0
 24 25  1  0
 25 26  1  0
 26 27  1  6
 26 28  1  0
 28 29  1  0
 29 30  1  0
 30 31  1  1
 30 32  1  0
 32 33  1  0
 32 34  1  0
 34 35  1  0
 35 36  1  0
 36 37  2  0
 37 38  1  0
 37 39  1  0
 39 40  2  0
 39 41  1  0
 30  2  1  0
 41 34  1  0
 26  3  1  0
 25  5  1  0
  9  7  1  0
 18  9  1  0
  1 42  1  0
  1 43  1  0
  3 44  1  6
  4 45  1  0
  4 46  1  0
  6 47  1  0
  7 48  1  1
 10 49  1  0
 11 50  1  0
 16 51  1  0
 16 52  1  0
 16 53  1  0
 17 54  1  0
 17 55  1  0
 17 56  1  0
 18 57  1  6
 19 58  1  6
 22 59  1  0
 22 60  1  0
 22 61  1  0
 24 62  1  0
 24 63  1  0
 25 64  1  1
 27 65  1  0
 27 66  1  0
 27 67  1  0
 28 68  1  0
 28 69  1  0
 29 70  1  0
 29 71  1  0
 31 72  1  0
 32 73  1  6
 33 74  1  0
 33 75  1  0
 33 76  1  0
 34 77  1  6
 35 78  1  0
 35 79  1  0
 36 80  1  0
 38 81  1  0
 38 82  1  0
 38 83  1  0
M  END
>  <meeko>  (7) 
{"is_sidechain": [false], "free_energy": -5.285, "intermolecular_energy": -9.405, "internal_energy": 0.936}

$$$$
LIB_GMJDBOQFBWJYSY__M_PUB_ALL__e8__s20260927
     RDKit          3D

 83 88  0  0  0  0  0  0  0  0999 V2000
    5.9150  -12.3590   -3.1210 C   0  0  0  0  0  0  0  0  0  0  0  0
    5.3230  -13.3530   -2.4310 C   0  0  0  0  0  0  0  0  0  0  0  0
    3.8580  -13.1550   -2.0410 C   0  0  2  0  0  0  0  0  0  0  0  0
    3.6290  -12.5790   -0.6410 C   0  0  0  0  0  0  0  0  0  0  0  0
    2.1080  -12.6830   -0.4910 C   0  0  2  0  0  0  0  0  0  0  0  0
    1.5210  -11.6710   -1.3110 O   0  0  0  0  0  0  0  0  0  0  0  0
    1.6650  -12.5320    0.9320 C   0  0  1  0  0  0  0  0  0  0  0  0
    0.8720  -11.3790    1.2160 O   0  0  0  0  0  0  0  0  0  0  0  0
    0.1970  -12.6530    1.3560 C   0  0  2  0  0  0  0  0  0  0  0  0
   -0.0120  -13.1980    2.7160 C   0  0  0  0  0  0  0  0  0  0  0  0
   -1.0770  -13.7640    3.2950 C   0  0  0  0  0  0  0  0  0  0  0  0
   -2.4320  -14.0790    2.7920 C   0  0  0  0  0  0  0  0  0  0  0  0
   -3.1650  -14.7800    3.4840 O   0  0  0  0  0  0  0  0  0  0  0  0
   -2.8620  -13.5870    1.6200 O   0  0  0  0  0  0  0  0  0  0  0  0
   -2.3040  -12.5010    0.8430 C   0  0  0  0  0  0  0  0  0  0  0  0
   -3.2990  -12.3390   -0.3340 C   0  0  0  0  0  0  0  0  0  0  0  0
   -2.3820  -11.1740    1.6270 C   0  0  0  0  0  0  0  0  0  0  0  0
   -0.8840  -12.8350    0.2880 C   0  0  2  0  0  0  0  0  0  0  0  0
   -0.7620  -14.2290   -0.4510 C   0  0  2  0  0  0  0  0  0  0  0  0
   -0.5300  -15.3080    0.4790 O   0  0  0  0  0  0  0  0  0  0  0  0
   -1.0690  -16.5180    0.1610 C   0  0  0  0  0  0  0  0  0  0  0  0
   -0.0410  -17.5940    0.3230 C   0  0  0  0  0  0  0  0  0  0  0  0
   -2.2160  -16.7090   -0.2150 O   0  0  0  0  0  0  0  0  0  0  0  0
    0.3350  -14.2380   -1.5420 C   0  0  0  0  0  0  0  0  0  0  0  0
    1.7810  -14.0880   -1.0430 C   0  0  1  0  0  0  0  0  0  0  0  0
    2.9230  -14.3970   -2.0970 C   0  0  1  0  0  0  0  0  0  0  0  0
    2.4250  -14.5870   -3.5430 C   0  0  0  0  0  0  0  0  0  0  0  0
    3.6680  -15.6740   -1.6360 C   0  0  0  0  0  0  0  0  0  0  0  0
    5.0310  -15.8500   -2.3030 C   0  0  0  0  0  0  0  0  0  0  0  0
    5.9940  -14.6690   -2.0220 C   0  0  2  0  0  0  0  0  0  0  0  0
    6.1490  -14.6100   -0.5930 O   0  0  0  0  0  0  0  0  0  0  0  0
    7.4140  -15.0280   -2.6130 C   0  0  1  0  0  0  0  0  0  0  0  0
    7.4440  -15.1510   -4.1470 C   0  0  0  0  0  0  0  0  0  0  0  0
    8.5680  -14.1430   -2.0400 C   0  0  1  0  0  0  0  0  0  0  0  0
    9.6240  -14.9790   -1.3050 C   0  0  0  0  0  0  0  0  0  0  0  0
   10.7650  -14.0960   -0.9110 C   0  0  0  0  0  0  0  0  0  0  0  0
   11.0560  -12.9790   -1.5980 C   0  0  0  0  0  0  0  0  0  0  0  0
   12.1850  -12.0640   -1.2400 C   0  0  0  0  0  0  0  0  0  0  0  0
   10.2920  -12.6340   -2.8260 C   0  0  0  0  0  0  0  0  0  0  0  0
   10.6420  -11.7240   -3.5670 O   0  0  0  0  0  0  0  0  0  0  0  0
    9.2100  -13.4050   -3.1050 O   0  0  0  0  0  0  0  0  0  0  0  0
    6.9679  -12.4522   -3.4256 H   0  0  0  0  0  0  0  0  0  0  0  0
    5.3456  -11.4541   -3.3798 H   0  0  0  0  0  0  0  0  0  0  0  0
    3.5918  -12.4476   -2.8402 H   0  0  0  0  0  0  0  0  0  0  0  0
    4.1467  -13.1753    0.1248 H   0  0  0  0  0  0  0  0  0  0  0  0
    4.0154  -11.5567   -0.5163 H   0  0  0  0  0  0  0  0  0  0  0  0
    1.6020  -11.9820   -2.2330 H   0  0  0  0  0  0  0  0  0  0  0  0
    2.5888  -13.0084    1.2920 H   0  0  0  0  0  0  0  0  0  0  0  0
    0.8692  -13.1242    3.3702 H   0  0  0  0  0  0  0  0  0  0  0  0
   -0.9141  -14.0494    4.3448 H   0  0  0  0  0  0  0  0  0  0  0  0
   -4.3118  -12.1741    0.0622 H   0  0  0  0  0  0  0  0  0  0  0  0
   -3.0014  -11.4775   -0.9498 H   0  0  0  0  0  0  0  0  0  0  0  0
   -3.2900  -13.2504   -0.9498 H   0  0  0  0  0  0  0  0  0  0  0  0
   -2.3696  -11.3847    2.7066 H   0  0  0  0  0  0  0  0  0  0  0  0
   -1.5194  -10.5430    1.3666 H   0  0  0  0  0  0  0  0  0  0  0  0
   -3.3126  -10.6484    1.3666 H   0  0  0  0  0  0  0  0  0  0  0  0
   -0.7129  -12.0931   -0.5059 H   0  0  0  0  0  0  0  0  0  0  0  0
   -1.7311  -14.3848   -0.9476 H   0  0  0  0  0  0  0  0  0  0  0  0
    0.1333  -17.7764    1.3937 H   0  0  0  0  0  0  0  0  0  0  0  0
   -0.3998  -18.5186   -0.1528 H   0  0  0  0  0  0  0  0  0  0  0  0
    0.8990  -17.2777   -0.1528 H   0  0  0  0  0  0  0  0  0  0  0  0
    0.2631  -15.1925   -2.0841 H   0  0  0  0  0  0  0  0  0  0  0  0
    0.1421  -13.3519   -2.1646 H   0  0  0  0  0  0  0  0  0  0  0  0
    1.7914  -14.8561   -0.2557 H   0  0  0  0  0  0  0  0  0  0  0  0
    1.3974  -14.9791   -3.5283 H   0  0  0  0  0  0  0  0  0  0  0  0
    2.4409  -13.6196   -4.0664 H   0  0  0  0  0  0  0  0  0  0  0  0
    3.0813  -15.2979   -4.0664 H   0  0  0  0  0  0  0  0  0  0  0  0
    3.8161  -15.6185   -0.5474 H   0  0  0  0  0  0  0  0  0  0  0  0
    3.0489  -16.5359   -1.9256 H   0  0  0  0  0  0  0  0  0  0  0  0
    5.4902  -16.7755   -1.9253 H   0  0  0  0  0  0  0  0  0  0  0  0
    4.8652  -15.8908   -3.3897 H   0  0  0  0  0  0  0  0  0  0  0  0
    5.2890  -14.8370   -0.1990 H   0  0  0  0  0  0  0  0  0  0  0  0
    7.6156  -16.0459   -2.2480 H   0  0  0  0  0  0  0  0  0  0  0  0
    7.6961  -16.1844   -4.4271 H   0  0  0  0  0  0  0  0  0  0  0  0
    6.4561  -14.8910   -4.5551 H   0  0  0  0  0  0  0  0  0  0  0  0
    8.2013  -14.4654   -4.5551 H   0  0  0  0  0  0  0  0  0  0  0  0
    8.1126  -13.4486   -1.3186 H   0  0  0  0  0  0  0  0  0  0  0  0
    9.1775  -15.4265   -0.4048 H   0  0  0  0  0  0  0  0  0  0  0  0
    9.9877  -15.7788   -1.9668 H   0  0  0  0  0  0  0  0  0  0  0  0
   11.3792  -14.3672   -0.0397 H   0  0  0  0  0  0  0  0  0  0  0  0
   12.2689  -11.9960   -0.1453 H   0  0  0  0  0  0  0  0  0  0  0  0
   13.1235  -12.4595   -1.6558 H   0  0  0  0  0  0  0  0  0  0  0  0
   11.9925  -11.0640   -1.6558 H   0  0  0  0  0  0  0  0  0  0  0  0
  1  2  2  0
  2  3  1  0
  3  4  1  0
  4  5  1  0
  5  6  1  6
  5  7  1  0
  7  8  1  0
  9  8  1  1
  9 10  1  0
 10 11  2  0
 11 12  1  0
 12 13  2  0
 12 14  1  0
 14 15  1  0
 15 16  1  0
 15 17  1  0
 15 18  1  0
 18 19  1  0
 19 20  1  0
 20 21  1  0
 21 22  1  0
 21 23  2  0
 19 24  1  0
 24 25  1  0
 25 26  1  0
 26 27  1  6
 26 28  1  0
 28 29  1  0
 29 30  1  0
 30 31  1  1
 30 32  1  0
 32 33  1  0
 32 34  1  0
 34 35  1  0
 35 36  1  0
 36 37  2  0
 37 38  1  0
 37 39  1  0
 39 40  2  0
 39 41  1  0
 30  2  1  0
 41 34  1  0
 26  3  1  0
 25  5  1  0
  9  7  1  0
 18  9  1  0
  1 42  1  0
  1 43  1  0
  3 44  1  6
  4 45  1  0
  4 46  1  0
  6 47  1  0
  7 48  1  1
 10 49  1  0
 11 50  1  0
 16 51  1  0
 16 52  1  0
 16 53  1  0
 17 54  1  0
 17 55  1  0
 17 56  1  0
 18 57  1  6
 19 58  1  6
 22 59  1  0
 22 60  1  0
 22 61  1  0
 24 62  1  0
 24 63  1  0
 25 64  1  1
 27 65  1  0
 27 66  1  0
 27 67  1  0
 28 68  1  0
 28 69  1  0
 29 70  1  0
 29 71  1  0
 31 72  1  0
 32 73  1  1
 33 74  1  0
 33 75  1  0
 33 76  1  0
 34 77  1  1
 35 78  1  0
 35 79  1  0
 36 80  1  0
 38 81  1  0
 38 82  1  0
 38 83  1  0
M  END
>  <meeko>  (8) 
{"is_sidechain": [false], "free_energy": -5.082, "intermolecular_energy": -9.536, "internal_energy": 1.424}

$$$$
LIB_GMJDBOQFBWJYSY__M_PUB_ALL__e8__s20260927
     RDKit          3D

 83 88  0  0  0  0  0  0  0  0999 V2000
    5.1760  -11.6070   -3.3820 C   0  0  0  0  0  0  0  0  0  0  0  0
    4.7870  -12.6800   -2.6660 C   0  0  0  0  0  0  0  0  0  0  0  0
    3.3470  -12.6920   -2.1530 C   0  0  2  0  0  0  0  0  0  0  0  0
    3.1600  -12.1660   -0.7270 C   0  0  0  0  0  0  0  0  0  0  0  0
    1.6860  -12.4830   -0.4550 C   0  0  2  0  0  0  0  0  0  0  0  0
    0.8970  -11.5560   -1.2030 O   0  0  0  0  0  0  0  0  0  0  0  0
    1.3470  -12.4080    1.0030 C   0  0  1  0  0  0  0  0  0  0  0  0
    0.4330  -11.3760    1.3740 O   0  0  0  0  0  0  0  0  0  0  0  0
   -0.0500  -12.7320    1.5430 C   0  0  2  0  0  0  0  0  0  0  0  0
   -0.0690  -13.3140    2.9030 C   0  0  0  0  0  0  0  0  0  0  0  0
   -0.9850  -14.0460    3.5460 C   0  0  0  0  0  0  0  0  0  0  0  0
   -2.3020  -14.5360    3.1300 C   0  0  0  0  0  0  0  0  0  0  0  0
   -2.8210  -15.4090    3.8200 O   0  0  0  0  0  0  0  0  0  0  0  0
   -2.9250  -14.0640    2.0390 O   0  0  0  0  0  0  0  0  0  0  0  0
   -2.5830  -12.9090    1.2380 C   0  0  0  0  0  0  0  0  0  0  0  0
   -3.6850  -12.8740    0.1490 C   0  0  0  0  0  0  0  0  0  0  0  0
   -2.7700  -11.6100    2.0480 C   0  0  0  0  0  0  0  0  0  0  0  0
   -1.1820  -13.0480    0.5630 C   0  0  2  0  0  0  0  0  0  0  0  0
   -0.9350  -14.3870   -0.2130 C   0  0  2  0  0  0  0  0  0  0  0  0
   -0.4990  -15.4290    0.6850 O   0  0  0  0  0  0  0  0  0  0  0  0
   -0.7910  -16.7100    0.3230 C   0  0  0  0  0  0  0  0  0  0  0  0
    0.4700  -17.5090    0.2070 C   0  0  0  0  0  0  0  0  0  0  0  0
   -1.9100  -17.1510    0.1110 O   0  0  0  0  0  0  0  0  0  0  0  0
    0.0630  -14.2610   -1.3890 C   0  0  0  0  0  0  0  0  0  0  0  0
    1.5110  -13.9150   -1.0070 C   0  0  1  0  0  0  0  0  0  0  0  0
    2.5920  -14.0520   -2.1580 C   0  0  1  0  0  0  0  0  0  0  0  0
    2.0050  -14.2970   -3.5610 C   0  0  0  0  0  0  0  0  0  0  0  0
    3.5420  -15.2160   -1.7860 C   0  0  0  0  0  0  0  0  0  0  0  0
    4.8550  -15.1940   -2.5660 C   0  0  0  0  0  0  0  0  0  0  0  0
    5.6660  -13.8920   -2.3410 C   0  0  2  0  0  0  0  0  0  0  0  0
    5.9320  -13.8260   -0.9290 O   0  0  0  0  0  0  0  0  0  0  0  0
    7.0680  -14.0440   -3.0540 C   0  0  1  0  0  0  0  0  0  0  0  0
    8.1850  -14.5740   -2.1370 C   0  0  0  0  0  0  0  0  0  0  0  0
    6.9890  -14.7860   -4.4280 C   0  0  1  0  0  0  0  0  0  0  0  0
    7.0280  -13.8110   -5.6120 C   0  0  0  0  0  0  0  0  0  0  0  0
    7.0960  -14.5880   -6.8870 C   0  0  0  0  0  0  0  0  0  0  0  0
    7.6280  -15.8200   -6.9310 C   0  0  0  0  0  0  0  0  0  0  0  0
    7.7160  -16.6360   -8.1820 C   0  0  0  0  0  0  0  0  0  0  0  0
    8.2410  -16.4150   -5.7120 C   0  0  0  0  0  0  0  0  0  0  0  0
    8.8840  -17.4550   -5.7580 O   0  0  0  0  0  0  0  0  0  0  0  0
    8.0830  -15.7230   -4.5540 O   0  0  0  0  0  0  0  0  0  0  0  0
    6.2023  -11.5499   -3.7738 H   0  0  0  0  0  0  0  0  0  0  0  0
    4.4673  -10.7881   -3.5747 H   0  0  0  0  0  0  0  0  0  0  0  0
    2.9182  -12.0216   -2.9124 H   0  0  0  0  0  0  0  0  0  0  0  0
    3.8180  -12.6910   -0.0189 H   0  0  0  0  0  0  0  0  0  0  0  0
    3.4106  -11.1010   -0.6131 H   0  0  0  0  0  0  0  0  0  0  0  0
    0.8270  -11.9190   -2.1070 H   0  0  0  0  0  0  0  0  0  0  0  0
    2.3532  -12.7582    1.2766 H   0  0  0  0  0  0  0  0  0  0  0  0
    0.8358  -13.1067    3.4932 H   0  0  0  0  0  0  0  0  0  0  0  0
   -0.6990  -14.3310    4.5692 H   0  0  0  0  0  0  0  0  0  0  0  0
   -4.6742  -12.8426    0.6292 H   0  0  0  0  0  0  0  0  0  0  0  0
   -3.5530  -11.9796   -0.4776 H   0  0  0  0  0  0  0  0  0  0  0  0
   -3.6100  -13.7750   -0.4776 H   0  0  0  0  0  0  0  0  0  0  0  0
   -2.7368  -11.8403    3.1231 H   0  0  0  0  0  0  0  0  0  0  0  0
   -1.9643  -10.9036    1.7993 H   0  0  0  0  0  0  0  0  0  0  0  0
   -3.7422  -11.1596    1.7993 H   0  0  0  0  0  0  0  0  0  0  0  0
   -1.1821  -12.2831   -0.2275 H   0  0  0  0  0  0  0  0  0  0  0  0
   -1.9079  -14.6504   -0.6536 H   0  0  0  0  0  0  0  0  0  0  0  0
    0.8467  -17.7477    1.2126 H   0  0  0  0  0  0  0  0  0  0  0  0
    0.2642  -18.4418   -0.3384 H   0  0  0  0  0  0  0  0  0  0  0  0
    1.2256  -16.9245   -0.3384 H   0  0  0  0  0  0  0  0  0  0  0  0
    0.0761  -15.2219   -1.9242 H   0  0  0  0  0  0  0  0  0  0  0  0
   -0.2953  -13.4150   -1.9939 H   0  0  0  0  0  0  0  0  0  0  0  0
    1.6936  -14.6809   -0.2388 H   0  0  0  0  0  0  0  0  0  0  0  0
    0.9936  -14.7191   -3.4667 H   0  0  0  0  0  0  0  0  0  0  0  0
    1.9552  -13.3446   -4.1091 H   0  0  0  0  0  0  0  0  0  0  0  0
    2.6471  -15.0023   -4.1091 H   0  0  0  0  0  0  0  0  0  0  0  0
    3.7721  -15.1500   -0.7124 H   0  0  0  0  0  0  0  0  0  0  0  0
    3.0259  -16.1533   -2.0412 H   0  0  0  0  0  0  0  0  0  0  0  0
    5.4680  -16.0495   -2.2463 H   0  0  0  0  0  0  0  0  0  0  0  0
    4.6054  -15.2479   -3.6360 H   0  0  0  0  0  0  0  0  0  0  0  0
    6.7520  -14.3230   -0.7640 H   0  0  0  0  0  0  0  0  0  0  0  0
    7.3703  -13.0139   -3.2937 H   0  0  0  0  0  0  0  0  0  0  0  0
    7.8929  -14.4354   -1.0856 H   0  0  0  0  0  0  0  0  0  0  0  0
    8.3451  -15.6441   -2.3351 H   0  0  0  0  0  0  0  0  0  0  0  0
    9.1152  -14.0212   -2.3351 H   0  0  0  0  0  0  0  0  0  0  0  0
    6.0274  -15.3196   -4.4510 H   0  0  0  0  0  0  0  0  0  0  0  0
    6.1198  -13.1903   -5.6075 H   0  0  0  0  0  0  0  0  0  0  0  0
    7.9122  -13.1622   -5.5272 H   0  0  0  0  0  0  0  0  0  0  0  0
    6.7010  -14.1401   -7.8108 H   0  0  0  0  0  0  0  0  0  0  0  0
    7.8305  -17.6981   -7.9197 H   0  0  0  0  0  0  0  0  0  0  0  0
    6.7981  -16.5012   -8.7730 H   0  0  0  0  0  0  0  0  0  0  0  0
    8.5840  -16.3086   -8.7730 H   0  0  0  0  0  0  0  0  0  0  0  0
  1  2  2  0
  2  3  1  0
  3  4  1  0
  4  5  1  0
  5  6  1  6
  5  7  1  0
  7  8  1  0
  9  8  1  1
  9 10  1  0
 10 11  2  0
 11 12  1  0
 12 13  2  0
 12 14  1  0
 14 15  1  0
 15 16  1  0
 15 17  1  0
 15 18  1  0
 18 19  1  0
 19 20  1  0
 20 21  1  0
 21 22  1  0
 21 23  2  0
 19 24  1  0
 24 25  1  0
 25 26  1  0
 26 27  1  6
 26 28  1  0
 28 29  1  0
 29 30  1  0
 30 31  1  1
 30 32  1  0
 32 33  1  0
 32 34  1  0
 34 35  1  0
 35 36  1  0
 36 37  2  0
 37 38  1  0
 37 39  1  0
 39 40  2  0
 39 41  1  0
 30  2  1  0
 41 34  1  0
 26  3  1  0
 25  5  1  0
  9  7  1  0
 18  9  1  0
  1 42  1  0
  1 43  1  0
  3 44  1  6
  4 45  1  0
  4 46  1  0
  6 47  1  0
  7 48  1  1
 10 49  1  0
 11 50  1  0
 16 51  1  0
 16 52  1  0
 16 53  1  0
 17 54  1  0
 17 55  1  0
 17 56  1  0
 18 57  1  6
 19 58  1  6
 22 59  1  0
 22 60  1  0
 22 61  1  0
 24 62  1  0
 24 63  1  0
 25 64  1  1
 27 65  1  0
 27 66  1  0
 27 67  1  0
 28 68  1  0
 28 69  1  0
 29 70  1  0
 29 71  1  0
 31 72  1  0
 32 73  1  6
 33 74  1  0
 33 75  1  0
 33 76  1  0
 34 77  1  1
 35 78  1  0
 35 79  1  0
 36 80  1  0
 38 81  1  0
 38 82  1  0
 38 83  1  0
M  END
>  <meeko>  (9) 
{"is_sidechain": [false], "free_energy": -4.973, "intermolecular_energy": -9.038, "internal_energy": 1.118}

$$$$
