LIB_WYYDKVUNYRLXHX__M_PUB_ALL__e8__s20260927
     RDKit          3D

 79 84  0  0  0  0  0  0  0  0999 V2000
   14.5820  -12.1220  -11.0250 C   0  0  0  0  0  0  0  0  0  0  0  0
   13.2260  -11.8960  -11.6240 N   0  0  0  0  0  0  0  0  0  0  0  0
   12.2980  -11.1650  -10.6540 C   0  0  0  0  0  0  0  0  0  0  0  0
   10.8190  -11.3160  -11.0570 C   0  0  0  0  0  0  0  0  0  0  0  0
   10.4320  -12.7330  -11.1080 N   0  0  0  0  0  0  0  0  0  0  0  0
    9.1180  -13.1110  -10.8590 C   0  0  0  0  0  0  0  0  0  0  0  0
    8.1050  -12.9380  -11.8160 C   0  0  0  0  0  0  0  0  0  0  0  0
    6.7860  -13.3350  -11.5720 C   0  0  0  0  0  0  0  0  0  0  0  0
    6.4440  -13.9170  -10.3560 C   0  0  0  0  0  0  0  0  0  0  0  0
    7.4170  -14.1000   -9.3720 C   0  0  0  0  0  0  0  0  0  0  0  0
    7.0820  -14.6850   -8.0850 C   0  0  0  0  0  0  0  0  0  0  0  0
    7.4400  -15.9350   -7.5420 C   0  0  0  0  0  0  0  0  0  0  0  0
    6.9230  -16.1570   -6.3360 N   0  0  0  0  0  0  0  0  0  0  0  0
    6.2160  -15.0180   -6.0590 N   0  0  0  0  0  0  0  0  0  0  0  0
    5.4700  -14.7480   -4.8780 C   0  0  0  0  0  0  0  0  0  0  0  0
    5.4600  -15.7350   -3.9130 N   0  0  0  0  0  0  0  0  0  0  0  0
    4.8200  -13.5650   -4.7920 C   0  0  0  0  0  0  0  0  0  0  0  0
    4.0090  -13.1470   -3.6430 C   0  0  0  0  0  0  0  0  0  0  0  0
    2.6430  -13.4400   -3.5850 C   0  0  0  0  0  0  0  0  0  0  0  0
    1.8820  -13.0440   -2.4800 C   0  0  0  0  0  0  0  0  0  0  0  0
    2.4700  -12.3510   -1.4150 C   0  0  0  0  0  0  0  0  0  0  0  0
    1.6340  -11.9880   -0.3410 N   0  0  0  0  0  0  0  0  0  0  0  0
    0.7610  -10.9230   -0.2740 C   0  0  0  0  0  0  0  0  0  0  0  0
    0.5610  -10.0880   -1.1450 O   0  0  0  0  0  0  0  0  0  0  0  0
    0.1000  -10.8940    0.9350 N   0  0  0  0  0  0  0  0  0  0  0  0
   -0.8770   -9.8680    1.2490 C   0  0  0  0  0  0  0  0  0  0  0  0
   -2.3210  -10.3870    1.1710 C   0  0  0  0  0  0  0  0  0  0  0  0
   -2.8290  -10.4300   -0.2800 C   0  0  0  0  0  0  0  0  0  0  0  0
   -4.2380  -11.0110   -0.3720 C   0  0  0  0  0  0  0  0  0  0  0  0
   -4.3240  -12.3870    0.2790 C   0  0  0  0  0  0  0  0  0  0  0  0
   -3.8250  -12.3560    1.7190 C   0  0  0  0  0  0  0  0  0  0  0  0
   -2.4140  -11.7800    1.8150 C   0  0  0  0  0  0  0  0  0  0  0  0
    3.8330  -12.0590   -1.4770 C   0  0  0  0  0  0  0  0  0  0  0  0
    4.5980  -12.4550   -2.5800 C   0  0  0  0  0  0  0  0  0  0  0  0
    4.9570  -12.6650   -5.9810 C   0  0  0  0  0  0  0  0  0  0  0  0
    5.6320  -12.8990   -7.0660 N   0  0  0  0  0  0  0  0  0  0  0  0
    6.2860  -14.0990   -7.1150 C   0  0  0  0  0  0  0  0  0  0  0  0
    8.7370  -13.6920   -9.6350 C   0  0  0  0  0  0  0  0  0  0  0  0
   11.4810  -13.7390  -11.3300 C   0  0  0  0  0  0  0  0  0  0  0  0
   12.6140  -13.1720  -12.2060 C   0  0  0  0  0  0  0  0  0  0  0  0
   14.5049  -12.1092   -9.9278 H   0  0  0  0  0  0  0  0  0  0  0  0
   14.9702  -13.0972  -11.3539 H   0  0  0  0  0  0  0  0  0  0  0  0
   15.2655  -11.3254  -11.3539 H   0  0  0  0  0  0  0  0  0  0  0  0
   13.3580  -11.2650  -12.4260 H   0  0  0  0  0  0  0  0  0  0  0  0
   12.4369  -11.5816   -9.6455 H   0  0  0  0  0  0  0  0  0  0  0  0
   12.5521  -10.0950  -10.6771 H   0  0  0  0  0  0  0  0  0  0  0  0
   10.1897  -10.7970  -10.3190 H   0  0  0  0  0  0  0  0  0  0  0  0
   10.6801  -10.8773  -12.0561 H   0  0  0  0  0  0  0  0  0  0  0  0
    8.3553  -12.4780  -12.7833 H   0  0  0  0  0  0  0  0  0  0  0  0
    6.0169  -13.1864  -12.3443 H   0  0  0  0  0  0  0  0  0  0  0  0
    5.4070  -14.2330  -10.1697 H   0  0  0  0  0  0  0  0  0  0  0  0
    8.0844  -16.6574   -8.0644 H   0  0  0  0  0  0  0  0  0  0  0  0
    5.6790  -15.4590   -2.9560 H   0  0  0  0  0  0  0  0  0  0  0  0
    5.3390  -16.7100   -4.1560 H   0  0  0  0  0  0  0  0  0  0  0  0
    2.1644  -13.9845   -4.4123 H   0  0  0  0  0  0  0  0  0  0  0  0
    0.8081  -13.2801   -2.4474 H   0  0  0  0  0  0  0  0  0  0  0  0
    1.6810  -12.5700    0.4800 H   0  0  0  0  0  0  0  0  0  0  0  0
    0.2710  -11.6100    1.6230 H   0  0  0  0  0  0  0  0  0  0  0  0
   -0.6884   -9.5016    2.2689 H   0  0  0  0  0  0  0  0  0  0  0  0
   -0.7697   -9.0653    0.5046 H   0  0  0  0  0  0  0  0  0  0  0  0
   -2.9643   -9.6885    1.7262 H   0  0  0  0  0  0  0  0  0  0  0  0
   -2.8389   -9.4069   -0.6840 H   0  0  0  0  0  0  0  0  0  0  0  0
   -2.1542  -11.0778   -0.8588 H   0  0  0  0  0  0  0  0  0  0  0  0
   -4.9377  -10.3316    0.1367 H   0  0  0  0  0  0  0  0  0  0  0  0
   -4.4960  -11.1182   -1.4359 H   0  0  0  0  0  0  0  0  0  0  0  0
   -5.3719  -12.7213    0.2710 H   0  0  0  0  0  0  0  0  0  0  0  0
   -3.6877  -13.0792   -0.2919 H   0  0  0  0  0  0  0  0  0  0  0  0
   -4.5056  -11.7340    2.3189 H   0  0  0  0  0  0  0  0  0  0  0  0
   -3.8002  -13.3891    2.0959 H   0  0  0  0  0  0  0  0  0  0  0  0
   -2.1329  -11.7015    2.8756 H   0  0  0  0  0  0  0  0  0  0  0  0
   -1.7324  -12.4530    1.2741 H   0  0  0  0  0  0  0  0  0  0  0  0
    4.3109  -11.5122   -0.6508 H   0  0  0  0  0  0  0  0  0  0  0  0
    5.6721  -12.2199   -2.6111 H   0  0  0  0  0  0  0  0  0  0  0  0
    4.4289  -11.7014   -5.9302 H   0  0  0  0  0  0  0  0  0  0  0  0
    9.5000  -13.8322   -8.8551 H   0  0  0  0  0  0  0  0  0  0  0  0
   11.8965  -14.0456  -10.3587 H   0  0  0  0  0  0  0  0  0  0  0  0
   11.0355  -14.6009  -11.8483 H   0  0  0  0  0  0  0  0  0  0  0  0
   13.4039  -13.9323  -12.2958 H   0  0  0  0  0  0  0  0  0  0  0  0
   12.1822  -12.9176  -13.1852 H   0  0  0  0  0  0  0  0  0  0  0  0
  1  2  1  0
  2  3  1  0
  3  4  1  0
  4  5  1  0
  5  6  1  0
  6  7  2  0
  7  8  1  0
  8  9  2  0
  9 10  1  0
 10 11  1  0
 11 12  1  0
 12 13  2  0
 13 14  1  0
 14 15  1  0
 15 16  1  0
 15 17  2  0
 17 18  1  0
 18 19  2  0
 19 20  1  0
 20 21  2  0
 21 22  1  0
 22 23  1  0
 23 24  2  0
 23 25  1  0
 25 26  1  0
 26 27  1  0
 27 28  1  0
 28 29  1  0
 29 30  1  0
 30 31  1  0
 31 32  1  0
 21 33  1  0
 33 34  2  0
 17 35  1  0
 35 36  2  0
 36 37  1  0
 10 38  2  0
  5 39  1  0
 39 40  1  0
 40  2  1  0
 38  6  1  0
 37 11  2  0
 37 14  1  0
 34 18  1  0
 32 27  1  0
  1 41  1  0
  1 42  1  0
  1 43  1  0
  2 44  1  0
  3 45  1  0
  3 46  1  0
  4 47  1  0
  4 48  1  0
  7 49  1  0
  8 50  1  0
  9 51  1  0
 12 52  1  0
 16 53  1  0
 16 54  1  0
 19 55  1  0
 20 56  1  0
 22 57  1  0
 25 58  1  0
 26 59  1  0
 26 60  1  0
 27 61  1  0
 28 62  1  0
 28 63  1  0
 29 64  1  0
 29 65  1  0
 30 66  1  0
 30 67  1  0
 31 68  1  0
 31 69  1  0
 32 70  1  0
 32 71  1  0
 33 72  1  0
 34 73  1  0
 35 74  1  0
 38 75  1  0
 39 76  1  0
 39 77  1  0
 40 78  1  0
 40 79  1  0
M  CHG  1   2   1
M  END
>  <meeko>  (1) 
{"is_sidechain": [false], "free_energy": -9.559, "intermolecular_energy": -13.191, "internal_energy": -1.065}

$$$$
LIB_WYYDKVUNYRLXHX__M_PUB_ALL__e8__s20260927
     RDKit          3D

 79 84  0  0  0  0  0  0  0  0999 V2000
   12.0660  -17.1910   -7.9890 C   0  0  0  0  0  0  0  0  0  0  0  0
   13.0510  -16.6700   -6.9860 N   0  0  0  0  0  0  0  0  0  0  0  0
   12.5370  -16.8360   -5.5560 C   0  0  0  0  0  0  0  0  0  0  0  0
   13.2990  -15.9340   -4.5680 C   0  0  0  0  0  0  0  0  0  0  0  0
   13.1840  -14.5190   -4.9530 N   0  0  0  0  0  0  0  0  0  0  0  0
   13.2440  -13.5220   -3.9880 C   0  0  0  0  0  0  0  0  0  0  0  0
   14.2560  -12.5480   -3.9910 C   0  0  0  0  0  0  0  0  0  0  0  0
   14.3060  -11.5340   -3.0300 C   0  0  0  0  0  0  0  0  0  0  0  0
   13.3390  -11.4680   -2.0320 C   0  0  0  0  0  0  0  0  0  0  0  0
   12.3200  -12.4190   -1.9850 C   0  0  0  0  0  0  0  0  0  0  0  0
   11.3100  -12.3860   -0.9400 C   0  0  0  0  0  0  0  0  0  0  0  0
   11.4530  -12.1750    0.4460 C   0  0  0  0  0  0  0  0  0  0  0  0
   10.3040  -12.2430    1.1140 N   0  0  0  0  0  0  0  0  0  0  0  0
    9.3670  -12.4880    0.1470 N   0  0  0  0  0  0  0  0  0  0  0  0
    7.9670  -12.6480    0.3410 C   0  0  0  0  0  0  0  0  0  0  0  0
    7.5070  -12.5440    1.6390 N   0  0  0  0  0  0  0  0  0  0  0  0
    7.1980  -12.9030   -0.7420 C   0  0  0  0  0  0  0  0  0  0  0  0
    5.7450  -13.0960   -0.6990 C   0  0  0  0  0  0  0  0  0  0  0  0
    4.8720  -12.0300   -0.9410 C   0  0  0  0  0  0  0  0  0  0  0  0
    3.4870  -12.2290   -0.9060 C   0  0  0  0  0  0  0  0  0  0  0  0
    2.9510  -13.4920   -0.6310 C   0  0  0  0  0  0  0  0  0  0  0  0
    1.5470  -13.6070   -0.6150 N   0  0  0  0  0  0  0  0  0  0  0  0
    0.7130  -13.6010    0.4830 C   0  0  0  0  0  0  0  0  0  0  0  0
    1.0500  -13.5010    1.6550 O   0  0  0  0  0  0  0  0  0  0  0  0
   -0.6080  -13.7230    0.1080 N   0  0  0  0  0  0  0  0  0  0  0  0
   -1.6820  -13.7390    1.0830 C   0  0  0  0  0  0  0  0  0  0  0  0
   -2.6470  -12.5540    0.9170 C   0  0  0  0  0  0  0  0  0  0  0  0
   -1.8920  -11.2520    0.6020 C   0  0  0  0  0  0  0  0  0  0  0  0
   -2.8490  -10.0850    0.3650 C   0  0  0  0  0  0  0  0  0  0  0  0
   -3.8680  -10.4040   -0.7230 C   0  0  0  0  0  0  0  0  0  0  0  0
   -4.6230  -11.6930   -0.4210 C   0  0  0  0  0  0  0  0  0  0  0  0
   -3.6700  -12.8630   -0.1870 C   0  0  0  0  0  0  0  0  0  0  0  0
    3.8240  -14.5530   -0.3890 C   0  0  0  0  0  0  0  0  0  0  0  0
    5.2100  -14.3590   -0.4240 C   0  0  0  0  0  0  0  0  0  0  0  0
    7.9300  -12.9990   -2.0450 C   0  0  0  0  0  0  0  0  0  0  0  0
    9.2060  -12.8580   -2.2380 N   0  0  0  0  0  0  0  0  0  0  0  0
    9.9530  -12.5900   -1.1230 C   0  0  0  0  0  0  0  0  0  0  0  0
   12.2880  -13.4340   -2.9590 C   0  0  0  0  0  0  0  0  0  0  0  0
   12.9070  -14.1970   -6.3610 C   0  0  0  0  0  0  0  0  0  0  0  0
   13.5250  -15.2500   -7.3000 C   0  0  0  0  0  0  0  0  0  0  0  0
   11.2118  -17.6428   -7.4635 H   0  0  0  0  0  0  0  0  0  0  0  0
   11.7118  -16.3623   -8.6197 H   0  0  0  0  0  0  0  0  0  0  0  0
   12.5517  -17.9501   -8.6197 H   0  0  0  0  0  0  0  0  0  0  0  0
   13.8900  -17.2620   -7.0600 H   0  0  0  0  0  0  0  0  0  0  0  0
   11.4693  -16.5727   -5.5283 H   0  0  0  0  0  0  0  0  0  0  0  0
   12.6932  -17.8824   -5.2551 H   0  0  0  0  0  0  0  0  0  0  0  0
   12.8790  -16.0683   -3.5603 H   0  0  0  0  0  0  0  0  0  0  0  0
   14.3619  -16.2167   -4.5821 H   0  0  0  0  0  0  0  0  0  0  0  0
   15.0307  -12.5841   -4.7711 H   0  0  0  0  0  0  0  0  0  0  0  0
   15.1121  -10.7863   -3.0630 H   0  0  0  0  0  0  0  0  0  0  0  0
   13.3781  -10.6660   -1.2802 H   0  0  0  0  0  0  0  0  0  0  0  0
   12.4206  -11.9736    0.9289 H   0  0  0  0  0  0  0  0  0  0  0  0
    7.6690  -13.3360    2.2600 H   0  0  0  0  0  0  0  0  0  0  0  0
    6.9420  -11.7590    1.9370 H   0  0  0  0  0  0  0  0  0  0  0  0
    5.2760  -11.0306   -1.1599 H   0  0  0  0  0  0  0  0  0  0  0  0
    2.8115  -11.3821   -1.0970 H   0  0  0  0  0  0  0  0  0  0  0  0
    1.0950  -13.7140   -1.5080 H   0  0  0  0  0  0  0  0  0  0  0  0
   -0.8540  -13.7810   -0.8670 H   0  0  0  0  0  0  0  0  0  0  0  0
   -2.2492  -14.6744    0.9674 H   0  0  0  0  0  0  0  0  0  0  0  0
   -1.2273  -13.6618    2.0817 H   0  0  0  0  0  0  0  0  0  0  0  0
   -3.1764  -12.4076    1.8700 H   0  0  0  0  0  0  0  0  0  0  0  0
   -1.2350  -11.0073    1.4496 H   0  0  0  0  0  0  0  0  0  0  0  0
   -1.3089  -11.4085   -0.3175 H   0  0  0  0  0  0  0  0  0  0  0  0
   -3.3836   -9.8665    1.3012 H   0  0  0  0  0  0  0  0  0  0  0  0
   -2.2575   -9.2174    0.0373 H   0  0  0  0  0  0  0  0  0  0  0  0
   -4.5884   -9.5756   -0.7919 H   0  0  0  0  0  0  0  0  0  0  0  0
   -3.3290  -10.5344   -1.6730 H   0  0  0  0  0  0  0  0  0  0  0  0
   -5.2345  -11.5451    0.4813 H   0  0  0  0  0  0  0  0  0  0  0  0
   -5.2542  -11.9327   -1.2894 H   0  0  0  0  0  0  0  0  0  0  0  0
   -4.2560  -13.7460    0.1077 H   0  0  0  0  0  0  0  0  0  0  0  0
   -3.1194  -13.0475   -1.1213 H   0  0  0  0  0  0  0  0  0  0  0  0
    3.4193  -15.5518   -0.1685 H   0  0  0  0  0  0  0  0  0  0  0  0
    5.8842  -15.2070   -0.2336 H   0  0  0  0  0  0  0  0  0  0  0  0
    7.3202  -13.2122   -2.9353 H   0  0  0  0  0  0  0  0  0  0  0  0
   11.4865  -14.1861   -2.9145 H   0  0  0  0  0  0  0  0  0  0  0  0
   11.8184  -14.1710   -6.5166 H   0  0  0  0  0  0  0  0  0  0  0  0
   13.3527  -13.2179   -6.5908 H   0  0  0  0  0  0  0  0  0  0  0  0
   13.2449  -15.0062   -8.3354 H   0  0  0  0  0  0  0  0  0  0  0  0
   14.6154  -15.2240   -7.1573 H   0  0  0  0  0  0  0  0  0  0  0  0
  1  2  1  0
  2  3  1  0
  3  4  1  0
  4  5  1  0
  5  6  1  0
  6  7  2  0
  7  8  1  0
  8  9  2  0
  9 10  1  0
 10 11  1  0
 11 12  1  0
 12 13  2  0
 13 14  1  0
 14 15  1  0
 15 16  1  0
 15 17  2  0
 17 18  1  0
 18 19  2  0
 19 20  1  0
 20 21  2  0
 21 22  1  0
 22 23  1  0
 23 24  2  0
 23 25  1  0
 25 26  1  0
 26 27  1  0
 27 28  1  0
 28 29  1  0
 29 30  1  0
 30 31  1  0
 31 32  1  0
 21 33  1  0
 33 34  2  0
 17 35  1  0
 35 36  2  0
 36 37  1  0
 10 38  2  0
  5 39  1  0
 39 40  1  0
 40  2  1  0
 38  6  1  0
 37 11  2  0
 37 14  1  0
 34 18  1  0
 32 27  1  0
  1 41  1  0
  1 42  1  0
  1 43  1  0
  2 44  1  0
  3 45  1  0
  3 46  1  0
  4 47  1  0
  4 48  1  0
  7 49  1  0
  8 50  1  0
  9 51  1  0
 12 52  1  0
 16 53  1  0
 16 54  1  0
 19 55  1  0
 20 56  1  0
 22 57  1  0
 25 58  1  0
 26 59  1  0
 26 60  1  0
 27 61  1  0
 28 62  1  0
 28 63  1  0
 29 64  1  0
 29 65  1  0
 30 66  1  0
 30 67  1  0
 31 68  1  0
 31 69  1  0
 32 70  1  0
 32 71  1  0
 33 72  1  0
 34 73  1  0
 35 74  1  0
 38 75  1  0
 39 76  1  0
 39 77  1  0
 40 78  1  0
 40 79  1  0
M  CHG  1   2   1
M  END
>  <meeko>  (2) 
{"is_sidechain": [false], "free_energy": -9.245, "intermolecular_energy": -12.964, "internal_energy": -0.859}

$$$$
LIB_WYYDKVUNYRLXHX__M_PUB_ALL__e8__s20260927
     RDKit          3D

 79 84  0  0  0  0  0  0  0  0999 V2000
   14.2620  -13.4720  -10.2250 C   0  0  0  0  0  0  0  0  0  0  0  0
   13.4080  -14.3190   -9.3290 N   0  0  0  0  0  0  0  0  0  0  0  0
   12.6190  -13.4670   -8.3350 C   0  0  0  0  0  0  0  0  0  0  0  0
   12.1020  -14.3050   -7.1510 C   0  0  0  0  0  0  0  0  0  0  0  0
   13.2130  -14.9560   -6.4430 N   0  0  0  0  0  0  0  0  0  0  0  0
   13.1090  -15.2440   -5.0880 C   0  0  0  0  0  0  0  0  0  0  0  0
   13.6650  -16.4080   -4.5340 C   0  0  0  0  0  0  0  0  0  0  0  0
   13.5750  -16.6900   -3.1660 C   0  0  0  0  0  0  0  0  0  0  0  0
   12.9200  -15.8080   -2.3130 C   0  0  0  0  0  0  0  0  0  0  0  0
   12.3440  -14.6430   -2.8210 C   0  0  0  0  0  0  0  0  0  0  0  0
   11.6360  -13.7170   -1.9540 C   0  0  0  0  0  0  0  0  0  0  0  0
   12.1170  -12.5990   -1.2440 C   0  0  0  0  0  0  0  0  0  0  0  0
   11.1840  -11.9910   -0.5160 N   0  0  0  0  0  0  0  0  0  0  0  0
   10.0450  -12.7110   -0.7600 N   0  0  0  0  0  0  0  0  0  0  0  0
    8.7540  -12.4690   -0.2170 C   0  0  0  0  0  0  0  0  0  0  0  0
    8.6360  -11.3950    0.6440 N   0  0  0  0  0  0  0  0  0  0  0  0
    7.7490  -13.3040   -0.5650 C   0  0  0  0  0  0  0  0  0  0  0  0
    6.3680  -13.1840   -0.0830 C   0  0  0  0  0  0  0  0  0  0  0  0
    5.4390  -12.3850   -0.7580 C   0  0  0  0  0  0  0  0  0  0  0  0
    4.1230  -12.2860   -0.2950 C   0  0  0  0  0  0  0  0  0  0  0  0
    3.7110  -12.9830    0.8470 C   0  0  0  0  0  0  0  0  0  0  0  0
    2.3680  -12.8290    1.2470 N   0  0  0  0  0  0  0  0  0  0  0  0
    1.2630  -13.4980    0.7650 C   0  0  0  0  0  0  0  0  0  0  0  0
    1.2510  -14.3500   -0.1130 O   0  0  0  0  0  0  0  0  0  0  0  0
    0.1140  -13.0910    1.4080 N   0  0  0  0  0  0  0  0  0  0  0  0
   -1.1840  -13.6510    1.0820 C   0  0  0  0  0  0  0  0  0  0  0  0
   -2.2790  -12.5760    0.9760 C   0  0  0  0  0  0  0  0  0  0  0  0
   -1.6970  -11.2170    0.5510 C   0  0  0  0  0  0  0  0  0  0  0  0
   -2.7880  -10.1630    0.3750 C   0  0  0  0  0  0  0  0  0  0  0  0
   -3.8680  -10.6260   -0.5970 C   0  0  0  0  0  0  0  0  0  0  0  0
   -4.4530  -11.9710   -0.1840 C   0  0  0  0  0  0  0  0  0  0  0  0
   -3.3650  -13.0290   -0.0120 C   0  0  0  0  0  0  0  0  0  0  0  0
    4.6400  -13.7780    1.5180 C   0  0  0  0  0  0  0  0  0  0  0  0
    5.9580  -13.8810    1.0580 C   0  0  0  0  0  0  0  0  0  0  0  0
    8.1260  -14.4170   -1.4930 C   0  0  0  0  0  0  0  0  0  0  0  0
    9.3000  -14.6520   -1.9950 N   0  0  0  0  0  0  0  0  0  0  0  0
   10.2910  -13.7820   -1.6310 C   0  0  0  0  0  0  0  0  0  0  0  0
   12.4430  -14.3790   -4.1990 C   0  0  0  0  0  0  0  0  0  0  0  0
   14.4640  -15.2010   -7.1750 C   0  0  0  0  0  0  0  0  0  0  0  0
   14.1880  -15.4580   -8.6690 C   0  0  0  0  0  0  0  0  0  0  0  0
   14.9107  -12.8287   -9.6123 H   0  0  0  0  0  0  0  0  0  0  0  0
   14.8833  -14.1208  -10.8599 H   0  0  0  0  0  0  0  0  0  0  0  0
   13.6184  -12.8454  -10.8599 H   0  0  0  0  0  0  0  0  0  0  0  0
   12.7120  -14.7770   -9.9320 H   0  0  0  0  0  0  0  0  0  0  0  0
   13.2733  -12.6712   -7.9496 H   0  0  0  0  0  0  0  0  0  0  0  0
   11.7504  -13.0434   -8.8604 H   0  0  0  0  0  0  0  0  0  0  0  0
   11.5657  -13.6470   -6.4514 H   0  0  0  0  0  0  0  0  0  0  0  0
   11.4292  -15.0837   -7.5395 H   0  0  0  0  0  0  0  0  0  0  0  0
   14.1858  -17.1180   -5.1933 H   0  0  0  0  0  0  0  0  0  0  0  0
   14.0231  -17.6109   -2.7647 H   0  0  0  0  0  0  0  0  0  0  0  0
   12.8560  -16.0290   -1.2373 H   0  0  0  0  0  0  0  0  0  0  0  0
   13.1630  -12.2614   -1.2874 H   0  0  0  0  0  0  0  0  0  0  0  0
    7.9490  -10.6800    0.4120 H   0  0  0  0  0  0  0  0  0  0  0  0
    9.2730  -11.2700    1.4210 H   0  0  0  0  0  0  0  0  0  0  0  0
    5.7453  -11.8315   -1.6579 H   0  0  0  0  0  0  0  0  0  0  0  0
    3.4032  -11.6530   -0.8346 H   0  0  0  0  0  0  0  0  0  0  0  0
    2.1900  -12.1460    1.9650 H   0  0  0  0  0  0  0  0  0  0  0  0
    0.1610  -12.4040    2.1430 H   0  0  0  0  0  0  0  0  0  0  0  0
   -1.1100  -14.1755    0.1179 H   0  0  0  0  0  0  0  0  0  0  0  0
   -1.4660  -14.3367    1.8946 H   0  0  0  0  0  0  0  0  0  0  0  0
   -2.7280  -12.4469    1.9718 H   0  0  0  0  0  0  0  0  0  0  0  0
   -0.9921  -10.8744    1.3229 H   0  0  0  0  0  0  0  0  0  0  0  0
   -1.1903  -11.3495   -0.4163 H   0  0  0  0  0  0  0  0  0  0  0  0
   -3.2506   -9.9621    1.3526 H   0  0  0  0  0  0  0  0  0  0  0  0
   -2.3238   -9.2542   -0.0357 H   0  0  0  0  0  0  0  0  0  0  0  0
   -4.6738   -9.8775   -0.6187 H   0  0  0  0  0  0  0  0  0  0  0  0
   -3.4113  -10.7394   -1.5912 H   0  0  0  0  0  0  0  0  0  0  0  0
   -4.9872  -11.8500    0.7700 H   0  0  0  0  0  0  0  0  0  0  0  0
   -5.1367  -12.3068   -0.9776 H   0  0  0  0  0  0  0  0  0  0  0  0
   -3.8249  -13.9546    0.3644 H   0  0  0  0  0  0  0  0  0  0  0  0
   -2.8899  -13.1928   -0.9905 H   0  0  0  0  0  0  0  0  0  0  0  0
    4.3335  -14.3302    2.4187 H   0  0  0  0  0  0  0  0  0  0  0  0
    6.6767  -14.5149    1.5980 H   0  0  0  0  0  0  0  0  0  0  0  0
    7.3217  -15.1102   -1.7803 H   0  0  0  0  0  0  0  0  0  0  0  0
   11.9829  -13.4625   -4.5969 H   0  0  0  0  0  0  0  0  0  0  0  0
   15.1170  -14.3214   -7.0759 H   0  0  0  0  0  0  0  0  0  0  0  0
   14.9502  -16.0915   -6.7501 H   0  0  0  0  0  0  0  0  0  0  0  0
   15.1499  -15.5741   -9.1898 H   0  0  0  0  0  0  0  0  0  0  0  0
   13.5739  -16.3677   -8.7421 H   0  0  0  0  0  0  0  0  0  0  0  0
  1  2  1  0
  2  3  1  0
  3  4  1  0
  4  5  1  0
  5  6  1  0
  6  7  2  0
  7  8  1  0
  8  9  2  0
  9 10  1  0
 10 11  1  0
 11 12  1  0
 12 13  2  0
 13 14  1  0
 14 15  1  0
 15 16  1  0
 15 17  2  0
 17 18  1  0
 18 19  2  0
 19 20  1  0
 20 21  2  0
 21 22  1  0
 22 23  1  0
 23 24  2  0
 23 25  1  0
 25 26  1  0
 26 27  1  0
 27 28  1  0
 28 29  1  0
 29 30  1  0
 30 31  1  0
 31 32  1  0
 21 33  1  0
 33 34  2  0
 17 35  1  0
 35 36  2  0
 36 37  1  0
 10 38  2  0
  5 39  1  0
 39 40  1  0
 40  2  1  0
 38  6  1  0
 37 11  2  0
 37 14  1  0
 34 18  1  0
 32 27  1  0
  1 41  1  0
  1 42  1  0
  1 43  1  0
  2 44  1  0
  3 45  1  0
  3 46  1  0
  4 47  1  0
  4 48  1  0
  7 49  1  0
  8 50  1  0
  9 51  1  0
 12 52  1  0
 16 53  1  0
 16 54  1  0
 19 55  1  0
 20 56  1  0
 22 57  1  0
 25 58  1  0
 26 59  1  0
 26 60  1  0
 27 61  1  0
 28 62  1  0
 28 63  1  0
 29 64  1  0
 29 65  1  0
 30 66  1  0
 30 67  1  0
 31 68  1  0
 31 69  1  0
 32 70  1  0
 32 71  1  0
 33 72  1  0
 34 73  1  0
 35 74  1  0
 38 75  1  0
 39 76  1  0
 39 77  1  0
 40 78  1  0
 40 79  1  0
M  CHG  1   2   1
M  END
>  <meeko>  (3) 
{"is_sidechain": [false], "free_energy": -8.814, "intermolecular_energy": -12.166, "internal_energy": -1.061}

$$$$
LIB_WYYDKVUNYRLXHX__M_PUB_ALL__e8__s20260927
     RDKit          3D

 79 84  0  0  0  0  0  0  0  0999 V2000
  -11.8530  -23.7100    9.2260 C   0  0  0  0  0  0  0  0  0  0  0  0
  -11.8690  -22.5290    8.3020 N   0  0  0  0  0  0  0  0  0  0  0  0
  -10.4750  -22.2310    7.7480 C   0  0  0  0  0  0  0  0  0  0  0  0
  -10.3830  -20.8040    7.1760 C   0  0  0  0  0  0  0  0  0  0  0  0
  -10.7120  -19.8040    8.2030 N   0  0  0  0  0  0  0  0  0  0  0  0
  -10.1570  -18.5310    8.1450 C   0  0  0  0  0  0  0  0  0  0  0  0
  -10.9550  -17.3760    8.1590 C   0  0  0  0  0  0  0  0  0  0  0  0
  -10.3960  -16.0940    8.1200 C   0  0  0  0  0  0  0  0  0  0  0  0
   -9.0150  -15.9350    8.0620 C   0  0  0  0  0  0  0  0  0  0  0  0
   -8.1840  -17.0550    8.0380 C   0  0  0  0  0  0  0  0  0  0  0  0
   -6.7400  -16.9160    7.9560 C   0  0  0  0  0  0  0  0  0  0  0  0
   -5.7790  -16.8660    8.9860 C   0  0  0  0  0  0  0  0  0  0  0  0
   -4.5360  -16.6990    8.5430 N   0  0  0  0  0  0  0  0  0  0  0  0
   -4.6670  -16.6550    7.1810 N   0  0  0  0  0  0  0  0  0  0  0  0
   -3.6210  -16.4900    6.2320 C   0  0  0  0  0  0  0  0  0  0  0  0
   -2.3410  -16.3630    6.7360 N   0  0  0  0  0  0  0  0  0  0  0  0
   -3.9500  -16.4550    4.9210 C   0  0  0  0  0  0  0  0  0  0  0  0
   -2.9840  -16.2870    3.8290 C   0  0  0  0  0  0  0  0  0  0  0  0
   -2.5710  -15.0120    3.4270 C   0  0  0  0  0  0  0  0  0  0  0  0
   -1.6440  -14.8640    2.3900 C   0  0  0  0  0  0  0  0  0  0  0  0
   -1.1130  -15.9840    1.7380 C   0  0  0  0  0  0  0  0  0  0  0  0
   -0.1840  -15.7480    0.7040 N   0  0  0  0  0  0  0  0  0  0  0  0
   -0.4430  -15.3120   -0.5770 C   0  0  0  0  0  0  0  0  0  0  0  0
   -1.5410  -15.0550   -1.0540 O   0  0  0  0  0  0  0  0  0  0  0  0
    0.7210  -15.1840   -1.3060 N   0  0  0  0  0  0  0  0  0  0  0  0
    0.7140  -14.7360   -2.6850 C   0  0  0  0  0  0  0  0  0  0  0  0
    1.8700  -13.7720   -2.9970 C   0  0  0  0  0  0  0  0  0  0  0  0
    1.7400  -13.1700   -4.4060 C   0  0  0  0  0  0  0  0  0  0  0  0
    2.8460  -12.1570   -4.6950 C   0  0  0  0  0  0  0  0  0  0  0  0
    2.9000  -11.0630   -3.6340 C   0  0  0  0  0  0  0  0  0  0  0  0
    3.0310  -11.6490   -2.2330 C   0  0  0  0  0  0  0  0  0  0  0  0
    1.9240  -12.6590   -1.9390 C   0  0  0  0  0  0  0  0  0  0  0  0
   -1.5280  -17.2530    2.1410 C   0  0  0  0  0  0  0  0  0  0  0  0
   -2.4550  -17.4050    3.1780 C   0  0  0  0  0  0  0  0  0  0  0  0
   -5.4110  -16.5850    4.6180 C   0  0  0  0  0  0  0  0  0  0  0  0
   -6.3760  -16.7340    5.4730 N   0  0  0  0  0  0  0  0  0  0  0  0
   -6.0080  -16.7770    6.7900 C   0  0  0  0  0  0  0  0  0  0  0  0
   -8.7650  -18.3360    8.0760 C   0  0  0  0  0  0  0  0  0  0  0  0
  -11.5550  -20.2130    9.3350 C   0  0  0  0  0  0  0  0  0  0  0  0
  -12.5550  -21.3060    8.9120 C   0  0  0  0  0  0  0  0  0  0  0  0
  -11.8577  -23.3598   10.2688 H   0  0  0  0  0  0  0  0  0  0  0  0
  -12.7428  -24.3304    9.0435 H   0  0  0  0  0  0  0  0  0  0  0  0
  -10.9467  -24.3061    9.0435 H   0  0  0  0  0  0  0  0  0  0  0  0
  -12.4480  -22.7940    7.4940 H   0  0  0  0  0  0  0  0  0  0  0  0
   -9.7388  -22.3385    8.5582 H   0  0  0  0  0  0  0  0  0  0  0  0
  -10.2706  -22.9411    6.9332 H   0  0  0  0  0  0  0  0  0  0  0  0
   -9.3592  -20.6261    6.8152 H   0  0  0  0  0  0  0  0  0  0  0  0
  -11.1036  -20.7095    6.3503 H   0  0  0  0  0  0  0  0  0  0  0  0
  -12.0491  -17.4818    8.2018 H   0  0  0  0  0  0  0  0  0  0  0  0
  -11.0499  -15.2096    8.1352 H   0  0  0  0  0  0  0  0  0  0  0  0
   -8.5784  -14.9257    8.0351 H   0  0  0  0  0  0  0  0  0  0  0  0
   -6.0324  -16.9563   10.0526 H   0  0  0  0  0  0  0  0  0  0  0  0
   -1.7390  -17.1840    6.7010 H   0  0  0  0  0  0  0  0  0  0  0  0
   -2.0440  -15.5220    7.2140 H   0  0  0  0  0  0  0  0  0  0  0  0
   -2.9774  -14.1216    3.9290 H   0  0  0  0  0  0  0  0  0  0  0  0
   -1.3283  -13.8560    2.0830 H   0  0  0  0  0  0  0  0  0  0  0  0
    0.7830  -15.9250    0.9220 H   0  0  0  0  0  0  0  0  0  0  0  0
    1.6100  -15.3820   -0.8770 H   0  0  0  0  0  0  0  0  0  0  0  0
    0.8002  -15.6143   -3.3416 H   0  0  0  0  0  0  0  0  0  0  0  0
   -0.2280  -14.1943   -2.8555 H   0  0  0  0  0  0  0  0  0  0  0  0
    2.8088  -14.3445   -2.9680 H   0  0  0  0  0  0  0  0  0  0  0  0
    1.7981  -13.9814   -5.1465 H   0  0  0  0  0  0  0  0  0  0  0  0
    0.7739  -12.6475   -4.4665 H   0  0  0  0  0  0  0  0  0  0  0  0
    3.8129  -12.6811   -4.7162 H   0  0  0  0  0  0  0  0  0  0  0  0
    2.6328  -11.6839   -5.6649 H   0  0  0  0  0  0  0  0  0  0  0  0
    3.7663  -10.4149   -3.8327 H   0  0  0  0  0  0  0  0  0  0  0  0
    1.9625  -10.4895   -3.6818 H   0  0  0  0  0  0  0  0  0  0  0  0
    4.0053  -12.1523   -2.1465 H   0  0  0  0  0  0  0  0  0  0  0  0
    2.9472  -10.8265   -1.5074 H   0  0  0  0  0  0  0  0  0  0  0  0
    2.1087  -13.1128   -0.9542 H   0  0  0  0  0  0  0  0  0  0  0  0
    0.9621  -12.1257   -1.9550 H   0  0  0  0  0  0  0  0  0  0  0  0
   -1.1224  -18.1435    1.6385 H   0  0  0  0  0  0  0  0  0  0  0  0
   -2.7703  -18.4135    3.4837 H   0  0  0  0  0  0  0  0  0  0  0  0
   -5.6970  -16.5505    3.5564 H   0  0  0  0  0  0  0  0  0  0  0  0
   -8.1071  -19.2172    8.0509 H   0  0  0  0  0  0  0  0  0  0  0  0
  -10.9135  -20.6039   10.1385 H   0  0  0  0  0  0  0  0  0  0  0  0
  -12.1206  -19.3370    9.6852 H   0  0  0  0  0  0  0  0  0  0  0  0
  -13.1222  -21.6262    9.7984 H   0  0  0  0  0  0  0  0  0  0  0  0
  -13.2123  -20.8752    8.1423 H   0  0  0  0  0  0  0  0  0  0  0  0
  1  2  1  0
  2  3  1  0
  3  4  1  0
  4  5  1  0
  5  6  1  0
  6  7  2  0
  7  8  1  0
  8  9  2  0
  9 10  1  0
 10 11  1  0
 11 12  1  0
 12 13  2  0
 13 14  1  0
 14 15  1  0
 15 16  1  0
 15 17  2  0
 17 18  1  0
 18 19  2  0
 19 20  1  0
 20 21  2  0
 21 22  1  0
 22 23  1  0
 23 24  2  0
 23 25  1  0
 25 26  1  0
 26 27  1  0
 27 28  1  0
 28 29  1  0
 29 30  1  0
 30 31  1  0
 31 32  1  0
 21 33  1  0
 33 34  2  0
 17 35  1  0
 35 36  2  0
 36 37  1  0
 10 38  2  0
  5 39  1  0
 39 40  1  0
 40  2  1  0
 38  6  1  0
 37 11  2  0
 37 14  1  0
 34 18  1  0
 32 27  1  0
  1 41  1  0
  1 42  1  0
  1 43  1  0
  2 44  1  0
  3 45  1  0
  3 46  1  0
  4 47  1  0
  4 48  1  0
  7 49  1  0
  8 50  1  0
  9 51  1  0
 12 52  1  0
 16 53  1  0
 16 54  1  0
 19 55  1  0
 20 56  1  0
 22 57  1  0
 25 58  1  0
 26 59  1  0
 26 60  1  0
 27 61  1  0
 28 62  1  0
 28 63  1  0
 29 64  1  0
 29 65  1  0
 30 66  1  0
 30 67  1  0
 31 68  1  0
 31 69  1  0
 32 70  1  0
 32 71  1  0
 33 72  1  0
 34 73  1  0
 35 74  1  0
 38 75  1  0
 39 76  1  0
 39 77  1  0
 40 78  1  0
 40 79  1  0
M  CHG  1   2   1
M  END
>  <meeko>  (4) 
{"is_sidechain": [false], "free_energy": -8.629, "intermolecular_energy": -11.955, "internal_energy": -1.017}

$$$$
LIB_WYYDKVUNYRLXHX__M_PUB_ALL__e8__s20260927
     RDKit          3D

 79 84  0  0  0  0  0  0  0  0999 V2000
   16.4490  -15.5870   -9.1770 C   0  0  0  0  0  0  0  0  0  0  0  0
   15.1400  -14.8610   -9.2520 N   0  0  0  0  0  0  0  0  0  0  0  0
   14.2740  -15.1350   -8.0230 C   0  0  0  0  0  0  0  0  0  0  0  0
   12.7970  -14.7790   -8.2750 C   0  0  0  0  0  0  0  0  0  0  0  0
   12.2610  -15.5380   -9.4130 N   0  0  0  0  0  0  0  0  0  0  0  0
   10.9080  -15.8530   -9.4730 C   0  0  0  0  0  0  0  0  0  0  0  0
   10.4580  -17.0980   -9.9380 C   0  0  0  0  0  0  0  0  0  0  0  0
    9.0980  -17.4210   -9.9810 C   0  0  0  0  0  0  0  0  0  0  0  0
    8.1460  -16.4990   -9.5590 C   0  0  0  0  0  0  0  0  0  0  0  0
    8.5480  -15.2440   -9.0980 C   0  0  0  0  0  0  0  0  0  0  0  0
    7.5730  -14.2540   -8.6720 C   0  0  0  0  0  0  0  0  0  0  0  0
    7.2210  -13.0240   -9.2610 C   0  0  0  0  0  0  0  0  0  0  0  0
    6.3000  -12.3520   -8.5740 N   0  0  0  0  0  0  0  0  0  0  0  0
    6.0170  -13.1620   -7.5080 N   0  0  0  0  0  0  0  0  0  0  0  0
    5.0870  -12.9000   -6.4650 C   0  0  0  0  0  0  0  0  0  0  0  0
    4.3970  -11.7060   -6.5360 N   0  0  0  0  0  0  0  0  0  0  0  0
    4.9550  -13.8200   -5.4830 C   0  0  0  0  0  0  0  0  0  0  0  0
    4.0430  -13.6880   -4.3410 C   0  0  0  0  0  0  0  0  0  0  0  0
    4.5240  -13.3470   -3.0730 C   0  0  0  0  0  0  0  0  0  0  0  0
    3.6440  -13.2160   -1.9940 C   0  0  0  0  0  0  0  0  0  0  0  0
    2.2690  -13.4210   -2.1620 C   0  0  0  0  0  0  0  0  0  0  0  0
    1.4510  -13.2690   -1.0250 N   0  0  0  0  0  0  0  0  0  0  0  0
    0.9800  -12.0960   -0.4760 C   0  0  0  0  0  0  0  0  0  0  0  0
    1.1980  -10.9620   -0.8790 O   0  0  0  0  0  0  0  0  0  0  0  0
    0.1940  -12.3420    0.6300 N   0  0  0  0  0  0  0  0  0  0  0  0
   -0.4230  -11.2670    1.3840 C   0  0  0  0  0  0  0  0  0  0  0  0
   -1.9380  -11.1730    1.1420 C   0  0  0  0  0  0  0  0  0  0  0  0
   -2.2650  -10.2300   -0.0280 C   0  0  0  0  0  0  0  0  0  0  0  0
   -3.7630  -10.1860   -0.3200 C   0  0  0  0  0  0  0  0  0  0  0  0
   -4.3310  -11.5800   -0.5650 C   0  0  0  0  0  0  0  0  0  0  0  0
   -4.0140  -12.5230    0.5900 C   0  0  0  0  0  0  0  0  0  0  0  0
   -2.5160  -12.5730    0.8820 C   0  0  0  0  0  0  0  0  0  0  0  0
    1.7920  -13.7620   -3.4280 C   0  0  0  0  0  0  0  0  0  0  0  0
    2.6700  -13.8940   -4.5100 C   0  0  0  0  0  0  0  0  0  0  0  0
    5.8330  -15.0270   -5.6060 C   0  0  0  0  0  0  0  0  0  0  0  0
    6.6880  -15.2790   -6.5500 N   0  0  0  0  0  0  0  0  0  0  0  0
    6.7880  -14.3340   -7.5340 C   0  0  0  0  0  0  0  0  0  0  0  0
    9.9200  -14.9380   -9.0640 C   0  0  0  0  0  0  0  0  0  0  0  0
   13.2000  -16.0380  -10.4280 C   0  0  0  0  0  0  0  0  0  0  0  0
   14.4070  -15.0920  -10.5750 C   0  0  0  0  0  0  0  0  0  0  0  0
   16.7239  -15.7394   -8.1229 H   0  0  0  0  0  0  0  0  0  0  0  0
   16.3563  -16.5626   -9.6765 H   0  0  0  0  0  0  0  0  0  0  0  0
   17.2276  -14.9918   -9.6765 H   0  0  0  0  0  0  0  0  0  0  0  0
   15.3570  -13.8560   -9.2310 H   0  0  0  0  0  0  0  0  0  0  0  0
   14.3447  -16.2027   -7.7682 H   0  0  0  0  0  0  0  0  0  0  0  0
   14.6417  -14.5072   -7.1980 H   0  0  0  0  0  0  0  0  0  0  0  0
   12.2107  -15.0171   -7.3752 H   0  0  0  0  0  0  0  0  0  0  0  0
   12.7289  -13.7056   -8.5054 H   0  0  0  0  0  0  0  0  0  0  0  0
   11.1951  -17.8403  -10.2780 H   0  0  0  0  0  0  0  0  0  0  0  0
    8.7802  -18.4074  -10.3498 H   0  0  0  0  0  0  0  0  0  0  0  0
    7.0774  -16.7584   -9.5884 H   0  0  0  0  0  0  0  0  0  0  0  0
    7.6641  -12.6546  -10.1976 H   0  0  0  0  0  0  0  0  0  0  0  0
    4.7910  -10.9060   -6.0410 H   0  0  0  0  0  0  0  0  0  0  0  0
    3.4880  -11.6470   -6.9760 H   0  0  0  0  0  0  0  0  0  0  0  0
    5.6010  -13.1808   -2.9234 H   0  0  0  0  0  0  0  0  0  0  0  0
    4.0365  -12.9488   -1.0018 H   0  0  0  0  0  0  0  0  0  0  0  0
    1.1810  -14.1160   -0.5510 H   0  0  0  0  0  0  0  0  0  0  0  0
    0.0150  -13.2890    0.9230 H   0  0  0  0  0  0  0  0  0  0  0  0
   -0.2470  -11.4415    2.4557 H   0  0  0  0  0  0  0  0  0  0  0  0
    0.0285  -10.3215    1.0489 H   0  0  0  0  0  0  0  0  0  0  0  0
   -2.4026  -10.7528    2.0462 H   0  0  0  0  0  0  0  0  0  0  0  0
   -1.9218   -9.2161    0.2254 H   0  0  0  0  0  0  0  0  0  0  0  0
   -1.7530  -10.6083   -0.9251 H   0  0  0  0  0  0  0  0  0  0  0  0
   -4.2808   -9.7361    0.5400 H   0  0  0  0  0  0  0  0  0  0  0  0
   -3.9176   -9.5879   -1.2301 H   0  0  0  0  0  0  0  0  0  0  0  0
   -5.4228  -11.5065   -0.6772 H   0  0  0  0  0  0  0  0  0  0  0  0
   -3.8701  -11.9851   -1.4779 H   0  0  0  0  0  0  0  0  0  0  0  0
   -4.5414  -12.1744    1.4902 H   0  0  0  0  0  0  0  0  0  0  0  0
   -4.3428  -13.5341    0.3079 H   0  0  0  0  0  0  0  0  0  0  0  0
   -2.3472  -13.1986    1.7709 H   0  0  0  0  0  0  0  0  0  0  0  0
   -2.0098  -12.9935    0.0006 H   0  0  0  0  0  0  0  0  0  0  0  0
    0.7150  -13.9288   -3.5773 H   0  0  0  0  0  0  0  0  0  0  0  0
    2.2768  -14.1620   -5.5017 H   0  0  0  0  0  0  0  0  0  0  0  0
    5.7439  -15.7816   -4.8106 H   0  0  0  0  0  0  0  0  0  0  0  0
   10.2327  -13.9466   -8.7044 H   0  0  0  0  0  0  0  0  0  0  0  0
   13.5577  -17.0340  -10.1279 H   0  0  0  0  0  0  0  0  0  0  0  0
   12.6767  -16.0922  -11.3940 H   0  0  0  0  0  0  0  0  0  0  0  0
   15.1123  -15.5306  -11.2963 H   0  0  0  0  0  0  0  0  0  0  0  0
   14.0267  -14.1188  -10.9188 H   0  0  0  0  0  0  0  0  0  0  0  0
  1  2  1  0
  2  3  1  0
  3  4  1  0
  4  5  1  0
  5  6  1  0
  6  7  2  0
  7  8  1  0
  8  9  2  0
  9 10  1  0
 10 11  1  0
 11 12  1  0
 12 13  2  0
 13 14  1  0
 14 15  1  0
 15 16  1  0
 15 17  2  0
 17 18  1  0
 18 19  2  0
 19 20  1  0
 20 21  2  0
 21 22  1  0
 22 23  1  0
 23 24  2  0
 23 25  1  0
 25 26  1  0
 26 27  1  0
 27 28  1  0
 28 29  1  0
 29 30  1  0
 30 31  1  0
 31 32  1  0
 21 33  1  0
 33 34  2  0
 17 35  1  0
 35 36  2  0
 36 37  1  0
 10 38  2  0
  5 39  1  0
 39 40  1  0
 40  2  1  0
 38  6  1  0
 37 11  2  0
 37 14  1  0
 34 18  1  0
 32 27  1  0
  1 41  1  0
  1 42  1  0
  1 43  1  0
  2 44  1  0
  3 45  1  0
  3 46  1  0
  4 47  1  0
  4 48  1  0
  7 49  1  0
  8 50  1  0
  9 51  1  0
 12 52  1  0
 16 53  1  0
 16 54  1  0
 19 55  1  0
 20 56  1  0
 22 57  1  0
 25 58  1  0
 26 59  1  0
 26 60  1  0
 27 61  1  0
 28 62  1  0
 28 63  1  0
 29 64  1  0
 29 65  1  0
 30 66  1  0
 30 67  1  0
 31 68  1  0
 31 69  1  0
 32 70  1  0
 32 71  1  0
 33 72  1  0
 34 73  1  0
 35 74  1  0
 38 75  1  0
 39 76  1  0
 39 77  1  0
 40 78  1  0
 40 79  1  0
M  CHG  1   2   1
M  END
>  <meeko>  (5) 
{"is_sidechain": [false], "free_energy": -8.619, "intermolecular_energy": -11.9, "internal_energy": -1.06}

$$$$
LIB_WYYDKVUNYRLXHX__M_PUB_ALL__e8__s20260927
     RDKit          3D

 79 84  0  0  0  0  0  0  0  0999 V2000
   -7.0740  -18.6030   11.4260 C   0  0  0  0  0  0  0  0  0  0  0  0
   -7.2810  -17.3750   10.5900 N   0  0  0  0  0  0  0  0  0  0  0  0
   -8.0710  -17.6880    9.3190 C   0  0  0  0  0  0  0  0  0  0  0  0
   -7.9120  -16.5790    8.2620 C   0  0  0  0  0  0  0  0  0  0  0  0
   -6.4980  -16.3910    7.9080 N   0  0  0  0  0  0  0  0  0  0  0  0
   -6.1460  -15.9320    6.6440 C   0  0  0  0  0  0  0  0  0  0  0  0
   -6.8260  -14.8710    6.0260 C   0  0  0  0  0  0  0  0  0  0  0  0
   -6.4610  -14.3980    4.7620 C   0  0  0  0  0  0  0  0  0  0  0  0
   -5.3990  -14.9800    4.0770 C   0  0  0  0  0  0  0  0  0  0  0  0
   -4.7000  -16.0440    4.6490 C   0  0  0  0  0  0  0  0  0  0  0  0
   -3.6010  -16.6840    3.9460 C   0  0  0  0  0  0  0  0  0  0  0  0
   -3.4410  -18.0290    3.5570 C   0  0  0  0  0  0  0  0  0  0  0  0
   -2.2810  -18.2710    2.9520 N   0  0  0  0  0  0  0  0  0  0  0  0
   -1.6580  -17.0530    2.9200 N   0  0  0  0  0  0  0  0  0  0  0  0
   -0.3770  -16.7680    2.3710 C   0  0  0  0  0  0  0  0  0  0  0  0
    0.3070  -17.8290    1.8110 N   0  0  0  0  0  0  0  0  0  0  0  0
    0.0810  -15.4980    2.4470 C   0  0  0  0  0  0  0  0  0  0  0  0
    1.3800  -15.0530    1.9310 C   0  0  0  0  0  0  0  0  0  0  0  0
    1.5430  -14.7300    0.5800 C   0  0  0  0  0  0  0  0  0  0  0  0
    2.7850  -14.2980    0.1020 C   0  0  0  0  0  0  0  0  0  0  0  0
    3.8830  -14.1810    0.9620 C   0  0  0  0  0  0  0  0  0  0  0  0
    5.0980  -13.7400    0.4000 N   0  0  0  0  0  0  0  0  0  0  0  0
    6.0650  -12.9550    0.9930 C   0  0  0  0  0  0  0  0  0  0  0  0
    6.0350  -12.4900    2.1250 O   0  0  0  0  0  0  0  0  0  0  0  0
    7.1250  -12.7390    0.1390 N   0  0  0  0  0  0  0  0  0  0  0  0
    8.2730  -11.9440    0.5310 C   0  0  0  0  0  0  0  0  0  0  0  0
    9.6060  -12.5940    0.1260 C   0  0  0  0  0  0  0  0  0  0  0  0
    9.8660  -12.4560   -1.3830 C   0  0  0  0  0  0  0  0  0  0  0  0
   11.2210  -13.0370   -1.7800 C   0  0  0  0  0  0  0  0  0  0  0  0
   12.3580  -12.4230   -0.9700 C   0  0  0  0  0  0  0  0  0  0  0  0
   12.1110  -12.5570    0.5280 C   0  0  0  0  0  0  0  0  0  0  0  0
   10.7590  -11.9720    0.9300 C   0  0  0  0  0  0  0  0  0  0  0  0
    3.7180  -14.5060    2.3080 C   0  0  0  0  0  0  0  0  0  0  0  0
    2.4760  -14.9370    2.7910 C   0  0  0  0  0  0  0  0  0  0  0  0
   -0.8310  -14.5230    3.1260 C   0  0  0  0  0  0  0  0  0  0  0  0
   -2.0000  -14.7680    3.6340 N   0  0  0  0  0  0  0  0  0  0  0  0
   -2.4380  -16.0600    3.5290 C   0  0  0  0  0  0  0  0  0  0  0  0
   -5.0850  -16.5070    5.9210 C   0  0  0  0  0  0  0  0  0  0  0  0
   -5.4720  -16.7900    8.8820 C   0  0  0  0  0  0  0  0  0  0  0  0
   -5.9810  -16.6120   10.3250 C   0  0  0  0  0  0  0  0  0  0  0  0
   -7.1195  -18.3332   12.4914 H   0  0  0  0  0  0  0  0  0  0  0  0
   -7.8610  -19.3375   11.1998 H   0  0  0  0  0  0  0  0  0  0  0  0
   -6.0897  -19.0389   11.1998 H   0  0  0  0  0  0  0  0  0  0  0  0
   -7.8660  -16.7360   11.1430 H   0  0  0  0  0  0  0  0  0  0  0  0
   -7.7073  -18.6368    8.8977 H   0  0  0  0  0  0  0  0  0  0  0  0
   -9.1360  -17.7577    9.5855 H   0  0  0  0  0  0  0  0  0  0  0  0
   -8.4752  -16.8583    7.3594 H   0  0  0  0  0  0  0  0  0  0  0  0
   -8.2980  -15.6374    8.6796 H   0  0  0  0  0  0  0  0  0  0  0  0
   -7.6695  -14.3985    6.5507 H   0  0  0  0  0  0  0  0  0  0  0  0
   -7.0150  -13.5633    4.3078 H   0  0  0  0  0  0  0  0  0  0  0  0
   -5.1105  -14.6018    3.0852 H   0  0  0  0  0  0  0  0  0  0  0  0
   -4.2013  -18.8035    3.7361 H   0  0  0  0  0  0  0  0  0  0  0  0
    1.0640  -17.6120    1.1650 H   0  0  0  0  0  0  0  0  0  0  0  0
    0.0070  -18.7850    1.9570 H   0  0  0  0  0  0  0  0  0  0  0  0
    0.6907  -14.8160   -0.1101 H   0  0  0  0  0  0  0  0  0  0  0  0
    2.8999  -14.0472   -0.9629 H   0  0  0  0  0  0  0  0  0  0  0  0
    5.2830  -14.0230   -0.5470 H   0  0  0  0  0  0  0  0  0  0  0  0
    7.1290  -13.1550   -0.7780 H   0  0  0  0  0  0  0  0  0  0  0  0
    8.2005  -10.9581    0.0486 H   0  0  0  0  0  0  0  0  0  0  0  0
    8.2621  -11.8598    1.6277 H   0  0  0  0  0  0  0  0  0  0  0  0
    9.5449  -13.6683    0.3544 H   0  0  0  0  0  0  0  0  0  0  0  0
    9.0754  -12.9896   -1.9309 H   0  0  0  0  0  0  0  0  0  0  0  0
    9.8664  -11.3849   -1.6335 H   0  0  0  0  0  0  0  0  0  0  0  0
   11.2071  -14.1234   -1.6080 H   0  0  0  0  0  0  0  0  0  0  0  0
   11.3942  -12.8079   -2.8418 H   0  0  0  0  0  0  0  0  0  0  0  0
   13.2967  -12.9366   -1.2250 H   0  0  0  0  0  0  0  0  0  0  0  0
   12.4186  -11.3525   -1.2159 H   0  0  0  0  0  0  0  0  0  0  0  0
   12.1336  -13.6227    0.7995 H   0  0  0  0  0  0  0  0  0  0  0  0
   12.8978  -11.9996    1.0574 H   0  0  0  0  0  0  0  0  0  0  0  0
   10.5916  -12.1648    1.9999 H   0  0  0  0  0  0  0  0  0  0  0  0
   10.7780  -10.8922    0.7210 H   0  0  0  0  0  0  0  0  0  0  0  0
    4.5715  -14.4231    2.9970 H   0  0  0  0  0  0  0  0  0  0  0  0
    2.3620  -15.1864    3.8563 H   0  0  0  0  0  0  0  0  0  0  0  0
   -0.4708  -13.4864    3.2025 H   0  0  0  0  0  0  0  0  0  0  0  0
   -4.5360  -17.3497    6.3664 H   0  0  0  0  0  0  0  0  0  0  0  0
   -5.2136  -17.8468    8.7196 H   0  0  0  0  0  0  0  0  0  0  0  0
   -4.5879  -16.1508    8.7411 H   0  0  0  0  0  0  0  0  0  0  0  0
   -5.2098  -16.9790   11.0182 H   0  0  0  0  0  0  0  0  0  0  0  0
   -6.1867  -15.5419   10.4756 H   0  0  0  0  0  0  0  0  0  0  0  0
  1  2  1  0
  2  3  1  0
  3  4  1  0
  4  5  1  0
  5  6  1  0
  6  7  2  0
  7  8  1  0
  8  9  2  0
  9 10  1  0
 10 11  1  0
 11 12  1  0
 12 13  2  0
 13 14  1  0
 14 15  1  0
 15 16  1  0
 15 17  2  0
 17 18  1  0
 18 19  2  0
 19 20  1  0
 20 21  2  0
 21 22  1  0
 22 23  1  0
 23 24  2  0
 23 25  1  0
 25 26  1  0
 26 27  1  0
 27 28  1  0
 28 29  1  0
 29 30  1  0
 30 31  1  0
 31 32  1  0
 21 33  1  0
 33 34  2  0
 17 35  1  0
 35 36  2  0
 36 37  1  0
 10 38  2  0
  5 39  1  0
 39 40  1  0
 40  2  1  0
 38  6  1  0
 37 11  2  0
 37 14  1  0
 34 18  1  0
 32 27  1  0
  1 41  1  0
  1 42  1  0
  1 43  1  0
  2 44  1  0
  3 45  1  0
  3 46  1  0
  4 47  1  0
  4 48  1  0
  7 49  1  0
  8 50  1  0
  9 51  1  0
 12 52  1  0
 16 53  1  0
 16 54  1  0
 19 55  1  0
 20 56  1  0
 22 57  1  0
 25 58  1  0
 26 59  1  0
 26 60  1  0
 27 61  1  0
 28 62  1  0
 28 63  1  0
 29 64  1  0
 29 65  1  0
 30 66  1  0
 30 67  1  0
 31 68  1  0
 31 69  1  0
 32 70  1  0
 32 71  1  0
 33 72  1  0
 34 73  1  0
 35 74  1  0
 38 75  1  0
 39 76  1  0
 39 77  1  0
 40 78  1  0
 40 79  1  0
M  CHG  1   2   1
M  END
>  <meeko>  (6) 
{"is_sidechain": [false], "free_energy": -8.386, "intermolecular_energy": -12.009, "internal_energy": -0.629}

$$$$
LIB_WYYDKVUNYRLXHX__M_PUB_ALL__e8__s20260927
     RDKit          3D

 79 84  0  0  0  0  0  0  0  0999 V2000
   13.2090  -16.1140  -10.2390 C   0  0  0  0  0  0  0  0  0  0  0  0
   13.8780  -15.2740   -9.1920 N   0  0  0  0  0  0  0  0  0  0  0  0
   14.1960  -16.0890   -7.9380 C   0  0  0  0  0  0  0  0  0  0  0  0
   14.4620  -15.1820   -6.7220 C   0  0  0  0  0  0  0  0  0  0  0  0
   13.3030  -14.3190   -6.4480 N   0  0  0  0  0  0  0  0  0  0  0  0
   13.0440  -13.8820   -5.1550 C   0  0  0  0  0  0  0  0  0  0  0  0
   13.8040  -12.8690   -4.5500 C   0  0  0  0  0  0  0  0  0  0  0  0
   13.5310  -12.4170   -3.2540 C   0  0  0  0  0  0  0  0  0  0  0  0
   12.4860  -12.9730   -2.5250 C   0  0  0  0  0  0  0  0  0  0  0  0
   11.7100  -13.9900   -3.0830 C   0  0  0  0  0  0  0  0  0  0  0  0
   10.6260  -14.6030   -2.3340 C   0  0  0  0  0  0  0  0  0  0  0  0
   10.4990  -15.9190   -1.8460 C   0  0  0  0  0  0  0  0  0  0  0  0
    9.3440  -16.1450   -1.2250 N   0  0  0  0  0  0  0  0  0  0  0  0
    8.6900  -14.9430   -1.2830 N   0  0  0  0  0  0  0  0  0  0  0  0
    7.4020  -14.6500   -0.7570 C   0  0  0  0  0  0  0  0  0  0  0  0
    6.7440  -15.6840   -0.1210 N   0  0  0  0  0  0  0  0  0  0  0  0
    6.9130  -13.4020   -0.9280 C   0  0  0  0  0  0  0  0  0  0  0  0
    5.6010  -12.9520   -0.4470 C   0  0  0  0  0  0  0  0  0  0  0  0
    5.4680  -12.3350    0.8010 C   0  0  0  0  0  0  0  0  0  0  0  0
    4.2140  -11.9030    1.2450 C   0  0  0  0  0  0  0  0  0  0  0  0
    3.0730  -12.0780    0.4530 C   0  0  0  0  0  0  0  0  0  0  0  0
    1.8480  -11.6150    0.9730 N   0  0  0  0  0  0  0  0  0  0  0  0
    0.9320  -10.7860    0.3610 C   0  0  0  0  0  0  0  0  0  0  0  0
    1.0240  -10.2930   -0.7550 O   0  0  0  0  0  0  0  0  0  0  0  0
   -0.1580  -10.5600    1.1750 N   0  0  0  0  0  0  0  0  0  0  0  0
   -1.2640   -9.7200    0.7550 C   0  0  0  0  0  0  0  0  0  0  0  0
   -2.6250  -10.4190    0.9110 C   0  0  0  0  0  0  0  0  0  0  0  0
   -3.2780  -10.6930   -0.4540 C   0  0  0  0  0  0  0  0  0  0  0  0
   -4.5970  -11.4500   -0.3100 C   0  0  0  0  0  0  0  0  0  0  0  0
   -4.4220  -12.7410    0.4820 C   0  0  0  0  0  0  0  0  0  0  0  0
   -3.7760  -12.4810    1.8380 C   0  0  0  0  0  0  0  0  0  0  0  0
   -2.4560  -11.7280    1.6980 C   0  0  0  0  0  0  0  0  0  0  0  0
    3.2100  -12.6950   -0.7910 C   0  0  0  0  0  0  0  0  0  0  0  0
    4.4630  -13.1280   -1.2390 C   0  0  0  0  0  0  0  0  0  0  0  0
    7.8010  -12.4570   -1.6780 C   0  0  0  0  0  0  0  0  0  0  0  0
    8.9770  -12.7100   -2.1660 N   0  0  0  0  0  0  0  0  0  0  0  0
    9.4470  -13.9790   -1.9650 C   0  0  0  0  0  0  0  0  0  0  0  0
   12.0010  -14.4330   -4.3860 C   0  0  0  0  0  0  0  0  0  0  0  0
   12.3800  -14.0150   -7.5500 C   0  0  0  0  0  0  0  0  0  0  0  0
   13.1230  -13.9770   -8.8990 C   0  0  0  0  0  0  0  0  0  0  0  0
   12.5944  -16.8857   -9.7524 H   0  0  0  0  0  0  0  0  0  0  0  0
   12.5684  -15.4767  -10.8663 H   0  0  0  0  0  0  0  0  0  0  0  0
   13.9735  -16.5957  -10.8663 H   0  0  0  0  0  0  0  0  0  0  0  0
   14.7840  -14.9820   -9.5820 H   0  0  0  0  0  0  0  0  0  0  0  0
   13.3423  -16.7453   -7.7133 H   0  0  0  0  0  0  0  0  0  0  0  0
   15.1048  -16.6774   -8.1325 H   0  0  0  0  0  0  0  0  0  0  0  0
   14.6600  -15.8099   -5.8407 H   0  0  0  0  0  0  0  0  0  0  0  0
   15.3309  -14.5444   -6.9422 H   0  0  0  0  0  0  0  0  0  0  0  0
   14.6368  -12.4181   -5.1097 H   0  0  0  0  0  0  0  0  0  0  0  0
   14.1452  -11.6193   -2.8108 H   0  0  0  0  0  0  0  0  0  0  0  0
   12.2708  -12.6115   -1.5086 H   0  0  0  0  0  0  0  0  0  0  0  0
   11.2791  -16.6851   -1.9667 H   0  0  0  0  0  0  0  0  0  0  0  0
    6.5820  -16.5370   -0.6540 H   0  0  0  0  0  0  0  0  0  0  0  0
    6.3480  -15.5680    0.8040 H   0  0  0  0  0  0  0  0  0  0  0  0
    6.3539  -12.1888    1.4365 H   0  0  0  0  0  0  0  0  0  0  0  0
    4.1232  -11.4196    2.2289 H   0  0  0  0  0  0  0  0  0  0  0  0
    1.6140  -11.9170    1.9040 H   0  0  0  0  0  0  0  0  0  0  0  0
   -0.2140  -10.9990    2.0790 H   0  0  0  0  0  0  0  0  0  0  0  0
   -1.2647   -8.8055    1.3663 H   0  0  0  0  0  0  0  0  0  0  0  0
   -1.1250   -9.4922   -0.3121 H   0  0  0  0  0  0  0  0  0  0  0  0
   -3.2922   -9.7457    1.4690 H   0  0  0  0  0  0  0  0  0  0  0  0
   -3.4712   -9.7332   -0.9554 H   0  0  0  0  0  0  0  0  0  0  0  0
   -2.5891  -11.3155   -1.0439 H   0  0  0  0  0  0  0  0  0  0  0  0
   -5.3219  -10.8074    0.2112 H   0  0  0  0  0  0  0  0  0  0  0  0
   -4.9546  -11.7110   -1.3170 H   0  0  0  0  0  0  0  0  0  0  0  0
   -5.4089  -13.2010    0.6385 H   0  0  0  0  0  0  0  0  0  0  0  0
   -3.7642  -13.4111   -0.0910 H   0  0  0  0  0  0  0  0  0  0  0  0
   -4.4647  -11.8824    2.4523 H   0  0  0  0  0  0  0  0  0  0  0  0
   -3.5689  -13.4520    2.3115 H   0  0  0  0  0  0  0  0  0  0  0  0
   -2.0724  -11.4927    2.7017 H   0  0  0  0  0  0  0  0  0  0  0  0
   -1.7537  -12.3699    1.1461 H   0  0  0  0  0  0  0  0  0  0  0  0
    2.3240  -12.8425   -1.4260 H   0  0  0  0  0  0  0  0  0  0  0  0
    4.5531  -13.6111   -2.2231 H   0  0  0  0  0  0  0  0  0  0  0  0
    7.4148  -11.4386   -1.8318 H   0  0  0  0  0  0  0  0  0  0  0  0
   11.3915  -15.2393   -4.8201 H   0  0  0  0  0  0  0  0  0  0  0  0
   11.6006  -14.7902   -7.5905 H   0  0  0  0  0  0  0  0  0  0  0  0
   11.9321  -13.0267   -7.3690 H   0  0  0  0  0  0  0  0  0  0  0  0
   12.3890  -13.8080   -9.7007 H   0  0  0  0  0  0  0  0  0  0  0  0
   13.8634  -13.1650   -8.8485 H   0  0  0  0  0  0  0  0  0  0  0  0
  1  2  1  0
  2  3  1  0
  3  4  1  0
  4  5  1  0
  5  6  1  0
  6  7  2  0
  7  8  1  0
  8  9  2  0
  9 10  1  0
 10 11  1  0
 11 12  1  0
 12 13  2  0
 13 14  1  0
 14 15  1  0
 15 16  1  0
 15 17  2  0
 17 18  1  0
 18 19  2  0
 19 20  1  0
 20 21  2  0
 21 22  1  0
 22 23  1  0
 23 24  2  0
 23 25  1  0
 25 26  1  0
 26 27  1  0
 27 28  1  0
 28 29  1  0
 29 30  1  0
 30 31  1  0
 31 32  1  0
 21 33  1  0
 33 34  2  0
 17 35  1  0
 35 36  2  0
 36 37  1  0
 10 38  2  0
  5 39  1  0
 39 40  1  0
 40  2  1  0
 38  6  1  0
 37 11  2  0
 37 14  1  0
 34 18  1  0
 32 27  1  0
  1 41  1  0
  1 42  1  0
  1 43  1  0
  2 44  1  0
  3 45  1  0
  3 46  1  0
  4 47  1  0
  4 48  1  0
  7 49  1  0
  8 50  1  0
  9 51  1  0
 12 52  1  0
 16 53  1  0
 16 54  1  0
 19 55  1  0
 20 56  1  0
 22 57  1  0
 25 58  1  0
 26 59  1  0
 26 60  1  0
 27 61  1  0
 28 62  1  0
 28 63  1  0
 29 64  1  0
 29 65  1  0
 30 66  1  0
 30 67  1  0
 31 68  1  0
 31 69  1  0
 32 70  1  0
 32 71  1  0
 33 72  1  0
 34 73  1  0
 35 74  1  0
 38 75  1  0
 39 76  1  0
 39 77  1  0
 40 78  1  0
 40 79  1  0
M  CHG  1   2   1
M  END
>  <meeko>  (7) 
{"is_sidechain": [false], "free_energy": -8.37, "intermolecular_energy": -11.704, "internal_energy": -0.912}

$$$$
LIB_WYYDKVUNYRLXHX__M_PUB_ALL__e8__s20260927
     RDKit          3D

 79 84  0  0  0  0  0  0  0  0999 V2000
    8.8300  -12.9420  -11.9580 C   0  0  0  0  0  0  0  0  0  0  0  0
    7.6090  -13.2150  -11.1310 N   0  0  0  0  0  0  0  0  0  0  0  0
    7.4960  -12.2420   -9.9580 C   0  0  0  0  0  0  0  0  0  0  0  0
    6.5340  -12.7660   -8.8740 C   0  0  0  0  0  0  0  0  0  0  0  0
    6.9760  -14.0730   -8.3680 N   0  0  0  0  0  0  0  0  0  0  0  0
    6.6760  -14.4600   -7.0670 C   0  0  0  0  0  0  0  0  0  0  0  0
    7.2010  -15.6340   -6.5050 C   0  0  0  0  0  0  0  0  0  0  0  0
    6.9130  -16.0140   -5.1900 C   0  0  0  0  0  0  0  0  0  0  0  0
    6.0850  -15.2250   -4.3990 C   0  0  0  0  0  0  0  0  0  0  0  0
    5.5330  -14.0540   -4.9200 C   0  0  0  0  0  0  0  0  0  0  0  0
    4.6470  -13.2220   -4.1220 C   0  0  0  0  0  0  0  0  0  0  0  0
    4.5680  -11.8180   -4.0300 C   0  0  0  0  0  0  0  0  0  0  0  0
    3.6500  -11.3950   -3.1660 N   0  0  0  0  0  0  0  0  0  0  0  0
    3.0880  -12.5450   -2.6810 N   0  0  0  0  0  0  0  0  0  0  0  0
    2.0450  -12.6420   -1.7190 C   0  0  0  0  0  0  0  0  0  0  0  0
    1.5470  -11.4520   -1.2240 N   0  0  0  0  0  0  0  0  0  0  0  0
    1.6300  -13.8750   -1.3500 C   0  0  0  0  0  0  0  0  0  0  0  0
    0.5710  -14.1330   -0.3680 C   0  0  0  0  0  0  0  0  0  0  0  0
    0.8260  -14.0400    1.0040 C   0  0  0  0  0  0  0  0  0  0  0  0
   -0.1940  -14.2810    1.9300 C   0  0  0  0  0  0  0  0  0  0  0  0
   -1.4850  -14.6170    1.5040 C   0  0  0  0  0  0  0  0  0  0  0  0
   -2.4550  -14.8430    2.5010 N   0  0  0  0  0  0  0  0  0  0  0  0
   -2.9390  -16.0550    2.9460 C   0  0  0  0  0  0  0  0  0  0  0  0
   -2.6140  -17.1630    2.5430 O   0  0  0  0  0  0  0  0  0  0  0  0
   -3.8740  -15.8820    3.9450 N   0  0  0  0  0  0  0  0  0  0  0  0
   -4.5300  -17.0090    4.5800 C   0  0  0  0  0  0  0  0  0  0  0  0
   -5.4890  -16.5760    5.7010 C   0  0  0  0  0  0  0  0  0  0  0  0
   -4.7390  -16.3290    7.0220 C   0  0  0  0  0  0  0  0  0  0  0  0
   -5.6750  -15.8300    8.1200 C   0  0  0  0  0  0  0  0  0  0  0  0
   -6.4420  -14.5860    7.6860 C   0  0  0  0  0  0  0  0  0  0  0  0
   -7.1910  -14.8200    6.3790 C   0  0  0  0  0  0  0  0  0  0  0  0
   -6.2580  -15.3150    5.2760 C   0  0  0  0  0  0  0  0  0  0  0  0
   -1.7350  -14.7100    0.1350 C   0  0  0  0  0  0  0  0  0  0  0  0
   -0.7170  -14.4700   -0.7950 C   0  0  0  0  0  0  0  0  0  0  0  0
    2.3420  -15.0180   -2.0050 C   0  0  0  0  0  0  0  0  0  0  0  0
    3.2960  -14.9460   -2.8820 N   0  0  0  0  0  0  0  0  0  0  0  0
    3.6840  -13.6840   -3.2420 C   0  0  0  0  0  0  0  0  0  0  0  0
    5.8330  -13.6900   -6.2450 C   0  0  0  0  0  0  0  0  0  0  0  0
    7.8210  -14.9100   -9.2310 C   0  0  0  0  0  0  0  0  0  0  0  0
    7.4880  -14.6830  -10.7180 C   0  0  0  0  0  0  0  0  0  0  0  0
    9.6866  -12.7505  -11.2950 H   0  0  0  0  0  0  0  0  0  0  0  0
    9.0454  -13.8142  -12.5928 H   0  0  0  0  0  0  0  0  0  0  0  0
    8.6535  -12.0611  -12.5928 H   0  0  0  0  0  0  0  0  0  0  0  0
    6.7960  -13.0320  -11.7350 H   0  0  0  0  0  0  0  0  0  0  0  0
    8.4924  -12.1024   -9.5132 H   0  0  0  0  0  0  0  0  0  0  0  0
    7.0978  -11.2900  -10.3390 H   0  0  0  0  0  0  0  0  0  0  0  0
    6.5049  -12.0483   -8.0409 H   0  0  0  0  0  0  0  0  0  0  0  0
    5.5339  -12.8807   -9.3174 H   0  0  0  0  0  0  0  0  0  0  0  0
    7.8567  -16.2726   -7.1151 H   0  0  0  0  0  0  0  0  0  0  0  0
    7.3429  -16.9399   -4.7803 H   0  0  0  0  0  0  0  0  0  0  0  0
    5.8653  -15.5237   -3.3634 H   0  0  0  0  0  0  0  0  0  0  0  0
    5.2039  -11.1381   -4.6160 H   0  0  0  0  0  0  0  0  0  0  0  0
    0.6830  -11.0990   -1.6320 H   0  0  0  0  0  0  0  0  0  0  0  0
    2.0680  -10.9000   -0.5550 H   0  0  0  0  0  0  0  0  0  0  0  0
    1.8340  -13.7760    1.3566 H   0  0  0  0  0  0  0  0  0  0  0  0
    0.0205  -14.2057    3.0063 H   0  0  0  0  0  0  0  0  0  0  0  0
   -2.8480  -14.0260    2.9380 H   0  0  0  0  0  0  0  0  0  0  0  0
   -4.1030  -14.9570    4.2690 H   0  0  0  0  0  0  0  0  0  0  0  0
   -5.1026  -17.5589    3.8186 H   0  0  0  0  0  0  0  0  0  0  0  0
   -3.7498  -17.6390    5.0320 H   0  0  0  0  0  0  0  0  0  0  0  0
   -6.2036  -17.3943    5.8734 H   0  0  0  0  0  0  0  0  0  0  0  0
   -4.2756  -17.2712    7.3500 H   0  0  0  0  0  0  0  0  0  0  0  0
   -3.9777  -15.5553    6.8437 H   0  0  0  0  0  0  0  0  0  0  0  0
   -6.3947  -16.6255    8.3634 H   0  0  0  0  0  0  0  0  0  0  0  0
   -5.0650  -15.5677    8.9970 H   0  0  0  0  0  0  0  0  0  0  0  0
   -7.1660  -14.3205    8.4704 H   0  0  0  0  0  0  0  0  0  0  0  0
   -5.7192  -13.7718    7.5289 H   0  0  0  0  0  0  0  0  0  0  0  0
   -7.9755  -15.5726    6.5471 H   0  0  0  0  0  0  0  0  0  0  0  0
   -7.6267  -13.8628    6.0566 H   0  0  0  0  0  0  0  0  0  0  0  0
   -6.8554  -15.5469    4.3820 H   0  0  0  0  0  0  0  0  0  0  0  0
   -5.5248  -14.5219    5.0674 H   0  0  0  0  0  0  0  0  0  0  0  0
   -2.7428  -14.9747   -0.2175 H   0  0  0  0  0  0  0  0  0  0  0  0
   -0.9321  -14.5472   -1.8710 H   0  0  0  0  0  0  0  0  0  0  0  0
    2.0217  -16.0284   -1.7109 H   0  0  0  0  0  0  0  0  0  0  0  0
    5.3921  -12.7689   -6.6538 H   0  0  0  0  0  0  0  0  0  0  0  0
    8.8768  -14.6559   -9.0560 H   0  0  0  0  0  0  0  0  0  0  0  0
    7.6331  -15.9661   -8.9872 H   0  0  0  0  0  0  0  0  0  0  0  0
    8.1815  -15.2792  -11.3292 H   0  0  0  0  0  0  0  0  0  0  0  0
    6.4430  -14.9881  -10.8755 H   0  0  0  0  0  0  0  0  0  0  0  0
  1  2  1  0
  2  3  1  0
  3  4  1  0
  4  5  1  0
  5  6  1  0
  6  7  2  0
  7  8  1  0
  8  9  2  0
  9 10  1  0
 10 11  1  0
 11 12  1  0
 12 13  2  0
 13 14  1  0
 14 15  1  0
 15 16  1  0
 15 17  2  0
 17 18  1  0
 18 19  2  0
 19 20  1  0
 20 21  2  0
 21 22  1  0
 22 23  1  0
 23 24  2  0
 23 25  1  0
 25 26  1  0
 26 27  1  0
 27 28  1  0
 28 29  1  0
 29 30  1  0
 30 31  1  0
 31 32  1  0
 21 33  1  0
 33 34  2  0
 17 35  1  0
 35 36  2  0
 36 37  1  0
 10 38  2  0
  5 39  1  0
 39 40  1  0
 40  2  1  0
 38  6  1  0
 37 11  2  0
 37 14  1  0
 34 18  1  0
 32 27  1  0
  1 41  1  0
  1 42  1  0
  1 43  1  0
  2 44  1  0
  3 45  1  0
  3 46  1  0
  4 47  1  0
  4 48  1  0
  7 49  1  0
  8 50  1  0
  9 51  1  0
 12 52  1  0
 16 53  1  0
 16 54  1  0
 19 55  1  0
 20 56  1  0
 22 57  1  0
 25 58  1  0
 26 59  1  0
 26 60  1  0
 27 61  1  0
 28 62  1  0
 28 63  1  0
 29 64  1  0
 29 65  1  0
 30 66  1  0
 30 67  1  0
 31 68  1  0
 31 69  1  0
 32 70  1  0
 32 71  1  0
 33 72  1  0
 34 73  1  0
 35 74  1  0
 38 75  1  0
 39 76  1  0
 39 77  1  0
 40 78  1  0
 40 79  1  0
M  CHG  1   2   1
M  END
>  <meeko>  (8) 
{"is_sidechain": [false], "free_energy": -8.173, "intermolecular_energy": -11.598, "internal_energy": -0.746}

$$$$
LIB_WYYDKVUNYRLXHX__M_PUB_ALL__e8__s20260927
     RDKit          3D

 79 84  0  0  0  0  0  0  0  0999 V2000
   11.9630  -12.3750   -3.2730 C   0  0  0  0  0  0  0  0  0  0  0  0
   10.7270  -13.2080   -3.1000 N   0  0  0  0  0  0  0  0  0  0  0  0
   10.2430  -13.7780   -4.4330 C   0  0  0  0  0  0  0  0  0  0  0  0
    8.7780  -14.2440   -4.3550 C   0  0  0  0  0  0  0  0  0  0  0  0
    7.8940  -13.1370   -3.9620 N   0  0  0  0  0  0  0  0  0  0  0  0
    6.5690  -13.1150   -4.3780 C   0  0  0  0  0  0  0  0  0  0  0  0
    6.1850  -13.5690   -5.6500 C   0  0  0  0  0  0  0  0  0  0  0  0
    4.8480  -13.5640   -6.0620 C   0  0  0  0  0  0  0  0  0  0  0  0
    3.8550  -13.0980   -5.2070 C   0  0  0  0  0  0  0  0  0  0  0  0
    4.1910  -12.6280   -3.9370 C   0  0  0  0  0  0  0  0  0  0  0  0
    3.1750  -12.1160   -3.0320 C   0  0  0  0  0  0  0  0  0  0  0  0
    2.7370  -10.7930   -2.8250 C   0  0  0  0  0  0  0  0  0  0  0  0
    1.8010  -10.6860   -1.8860 N   0  0  0  0  0  0  0  0  0  0  0  0
    1.5970  -11.9730   -1.4660 N   0  0  0  0  0  0  0  0  0  0  0  0
    0.6850  -12.4050   -0.4640 C   0  0  0  0  0  0  0  0  0  0  0  0
   -0.0720  -11.4260    0.1480 N   0  0  0  0  0  0  0  0  0  0  0  0
    0.6350  -13.7250   -0.1740 C   0  0  0  0  0  0  0  0  0  0  0  0
   -0.2480  -14.3190    0.8360 C   0  0  0  0  0  0  0  0  0  0  0  0
   -1.3790  -15.0500    0.4580 C   0  0  0  0  0  0  0  0  0  0  0  0
   -2.2090  -15.6190    1.4300 C   0  0  0  0  0  0  0  0  0  0  0  0
   -1.9240  -15.4700    2.7920 C   0  0  0  0  0  0  0  0  0  0  0  0
   -2.8100  -16.0750    3.7070 N   0  0  0  0  0  0  0  0  0  0  0  0
   -4.1130  -15.7160    3.9800 C   0  0  0  0  0  0  0  0  0  0  0  0
   -4.7370  -14.7920    3.4760 O   0  0  0  0  0  0  0  0  0  0  0  0
   -4.6720  -16.5490    4.9260 N   0  0  0  0  0  0  0  0  0  0  0  0
   -6.0390  -16.3800    5.3820 C   0  0  0  0  0  0  0  0  0  0  0  0
   -6.1180  -15.9380    6.8520 C   0  0  0  0  0  0  0  0  0  0  0  0
   -4.8060  -16.2270    7.6010 C   0  0  0  0  0  0  0  0  0  0  0  0
   -4.8530  -15.7250    9.0420 C   0  0  0  0  0  0  0  0  0  0  0  0
   -5.2080  -14.2440    9.1130 C   0  0  0  0  0  0  0  0  0  0  0  0
   -6.5080  -13.9460    8.3750 C   0  0  0  0  0  0  0  0  0  0  0  0
   -6.4640  -14.4420    6.9320 C   0  0  0  0  0  0  0  0  0  0  0  0
   -0.7960  -14.7400    3.1650 C   0  0  0  0  0  0  0  0  0  0  0  0
    0.0370  -14.1690    2.1960 C   0  0  0  0  0  0  0  0  0  0  0  0
    1.5760  -14.5920   -0.9520 C   0  0  0  0  0  0  0  0  0  0  0  0
    2.4150  -14.2130   -1.8680 N   0  0  0  0  0  0  0  0  0  0  0  0
    2.4310  -12.8730   -2.1440 C   0  0  0  0  0  0  0  0  0  0  0  0
    5.5410  -12.6390   -3.5420 C   0  0  0  0  0  0  0  0  0  0  0  0
    8.4710  -12.0140   -3.2090 C   0  0  0  0  0  0  0  0  0  0  0  0
    9.6310  -12.4880   -2.3130 C   0  0  0  0  0  0  0  0  0  0  0  0
   12.3642  -12.1046   -2.2851 H   0  0  0  0  0  0  0  0  0  0  0  0
   12.7174  -12.9496   -3.8304 H   0  0  0  0  0  0  0  0  0  0  0  0
   11.7135  -11.4601   -3.8304 H   0  0  0  0  0  0  0  0  0  0  0  0
   10.9940  -14.0160   -2.5220 H   0  0  0  0  0  0  0  0  0  0  0  0
   10.3288  -12.9997   -5.2056 H   0  0  0  0  0  0  0  0  0  0  0  0
   10.8672  -14.6494   -4.6800 H   0  0  0  0  0  0  0  0  0  0  0  0
    8.4671  -14.6202   -5.3408 H   0  0  0  0  0  0  0  0  0  0  0  0
    8.7025  -15.0388   -3.5983 H   0  0  0  0  0  0  0  0  0  0  0  0
    6.9565  -13.9387   -6.3415 H   0  0  0  0  0  0  0  0  0  0  0  0
    4.5815  -13.9296   -7.0647 H   0  0  0  0  0  0  0  0  0  0  0  0
    2.8042  -13.1000   -5.5322 H   0  0  0  0  0  0  0  0  0  0  0  0
    3.1308   -9.9323   -3.3854 H   0  0  0  0  0  0  0  0  0  0  0  0
   -0.8890  -11.7260    0.6780 H   0  0  0  0  0  0  0  0  0  0  0  0
    0.1140  -10.4420   -0.0040 H   0  0  0  0  0  0  0  0  0  0  0  0
   -1.6170  -15.1781   -0.6083 H   0  0  0  0  0  0  0  0  0  0  0  0
   -3.0963  -16.1904    1.1199 H   0  0  0  0  0  0  0  0  0  0  0  0
   -2.4510  -16.8570    4.2290 H   0  0  0  0  0  0  0  0  0  0  0  0
   -4.1390  -17.3150    5.3040 H   0  0  0  0  0  0  0  0  0  0  0  0
   -6.5276  -15.6176    4.7575 H   0  0  0  0  0  0  0  0  0  0  0  0
   -6.5425  -17.3544    5.2981 H   0  0  0  0  0  0  0  0  0  0  0  0
   -6.9131  -16.5203    7.3405 H   0  0  0  0  0  0  0  0  0  0  0  0
   -4.6318  -17.3131    7.6079 H   0  0  0  0  0  0  0  0  0  0  0  0
   -3.9926  -15.6992    7.0816 H   0  0  0  0  0  0  0  0  0  0  0  0
   -5.6104  -16.2999    9.5950 H   0  0  0  0  0  0  0  0  0  0  0  0
   -3.8548  -15.8595    9.4842 H   0  0  0  0  0  0  0  0  0  0  0  0
   -5.3210  -13.9535   10.1679 H   0  0  0  0  0  0  0  0  0  0  0  0
   -4.3999  -13.6717    8.6341 H   0  0  0  0  0  0  0  0  0  0  0  0
   -7.3374  -14.4444    8.8982 H   0  0  0  0  0  0  0  0  0  0  0  0
   -6.6511  -12.8555    8.3587 H   0  0  0  0  0  0  0  0  0  0  0  0
   -7.4487  -14.2792    6.4695 H   0  0  0  0  0  0  0  0  0  0  0  0
   -5.6802  -13.8812    6.4018 H   0  0  0  0  0  0  0  0  0  0  0  0
   -0.5585  -14.6116    4.2314 H   0  0  0  0  0  0  0  0  0  0  0  0
    0.9236  -13.5973    2.5075 H   0  0  0  0  0  0  0  0  0  0  0  0
    1.5542  -15.6676   -0.7225 H   0  0  0  0  0  0  0  0  0  0  0  0
    5.8033  -12.2616   -2.5426 H   0  0  0  0  0  0  0  0  0  0  0  0
    8.8480  -11.2617   -3.9175 H   0  0  0  0  0  0  0  0  0  0  0  0
    7.6877  -11.5821   -2.5688 H   0  0  0  0  0  0  0  0  0  0  0  0
   10.0724  -11.6118   -1.8156 H   0  0  0  0  0  0  0  0  0  0  0  0
    9.2190  -13.2032   -1.5859 H   0  0  0  0  0  0  0  0  0  0  0  0
  1  2  1  0
  2  3  1  0
  3  4  1  0
  4  5  1  0
  5  6  1  0
  6  7  2  0
  7  8  1  0
  8  9  2  0
  9 10  1  0
 10 11  1  0
 11 12  1  0
 12 13  2  0
 13 14  1  0
 14 15  1  0
 15 16  1  0
 15 17  2  0
 17 18  1  0
 18 19  2  0
 19 20  1  0
 20 21  2  0
 21 22  1  0
 22 23  1  0
 23 24  2  0
 23 25  1  0
 25 26  1  0
 26 27  1  0
 27 28  1  0
 28 29  1  0
 29 30  1  0
 30 31  1  0
 31 32  1  0
 21 33  1  0
 33 34  2  0
 17 35  1  0
 35 36  2  0
 36 37  1  0
 10 38  2  0
  5 39  1  0
 39 40  1  0
 40  2  1  0
 38  6  1  0
 37 11  2  0
 37 14  1  0
 34 18  1  0
 32 27  1  0
  1 41  1  0
  1 42  1  0
  1 43  1  0
  2 44  1  0
  3 45  1  0
  3 46  1  0
  4 47  1  0
  4 48  1  0
  7 49  1  0
  8 50  1  0
  9 51  1  0
 12 52  1  0
 16 53  1  0
 16 54  1  0
 19 55  1  0
 20 56  1  0
 22 57  1  0
 25 58  1  0
 26 59  1  0
 26 60  1  0
 27 61  1  0
 28 62  1  0
 28 63  1  0
 29 64  1  0
 29 65  1  0
 30 66  1  0
 30 67  1  0
 31 68  1  0
 31 69  1  0
 32 70  1  0
 32 71  1  0
 33 72  1  0
 34 73  1  0
 35 74  1  0
 38 75  1  0
 39 76  1  0
 39 77  1  0
 40 78  1  0
 40 79  1  0
M  CHG  1   2   1
M  END
>  <meeko>  (9) 
{"is_sidechain": [false], "free_energy": -8.114, "intermolecular_energy": -11.242, "internal_energy": -1.021}

$$$$
