LIB_SNCROWOTWGUING__M_PUB_ALL__e8__s20260927
     RDKit          3D

 56 59  0  0  0  0  0  0  0  0999 V2000
   13.2690  -16.1210   -7.7480 C   0  0  0  0  0  0  0  0  0  0  0  0
   14.2860  -15.3240   -6.5180 S   0  0  0  0  0  0  0  0  0  0  0  0
   15.5580  -15.0220   -7.1400 O   0  0  0  0  0  0  0  0  0  0  0  0
   14.2150  -16.0880   -5.2930 O   0  0  0  0  0  0  0  0  0  0  0  0
   13.5210  -13.8390   -6.3180 N   0  0  0  0  0  0  0  0  0  0  0  0
   13.0680  -13.4210   -5.0360 C   0  0  0  0  0  0  0  0  0  0  0  0
   11.7730  -13.7600   -4.6460 C   0  0  0  0  0  0  0  0  0  0  0  0
   11.2870  -13.3670   -3.3920 C   0  0  0  0  0  0  0  0  0  0  0  0
   12.0780  -12.6160   -2.5050 C   0  0  0  0  0  0  0  0  0  0  0  0
   11.5850  -12.1950   -1.1780 C   0  0  0  0  0  0  0  0  0  0  0  0
   12.3450  -11.4560   -0.2970 C   0  0  0  0  0  0  0  0  0  0  0  0
   11.7460  -11.1400    0.8960 C   0  0  0  0  0  0  0  0  0  0  0  0
   10.4960  -11.5100    1.2180 N   0  0  0  0  0  0  0  0  0  0  0  0
    9.8160  -12.2320    0.3170 C   0  0  0  0  0  0  0  0  0  0  0  0
    8.5160  -12.6710    0.5460 N   0  0  0  0  0  0  0  0  0  0  0  0
    7.3740  -12.7930   -0.2500 C   0  0  0  0  0  0  0  0  0  0  0  0
    6.6210  -11.7150   -0.7130 C   0  0  0  0  0  0  0  0  0  0  0  0
    5.4810  -11.9080   -1.5110 C   0  0  0  0  0  0  0  0  0  0  0  0
    5.0500  -13.1850   -1.8870 C   0  0  0  0  0  0  0  0  0  0  0  0
    3.9220  -13.4000   -2.6770 N   0  0  0  0  0  0  0  0  0  0  0  0
    2.6070  -13.5070   -2.0400 C   0  0  0  0  0  0  0  0  0  0  0  0
    1.6420  -14.2760   -2.9350 C   0  0  0  0  0  0  0  0  0  0  0  0
    1.5930  -13.6660   -4.3300 C   0  0  0  0  0  0  0  0  0  0  0  0
    0.7430  -14.4390   -5.1730 O   0  0  0  0  0  0  0  0  0  0  0  0
    2.9880  -13.6320   -4.9410 C   0  0  0  0  0  0  0  0  0  0  0  0
    3.9550  -12.8670   -4.0460 C   0  0  0  0  0  0  0  0  0  0  0  0
    5.8050  -14.2630   -1.4140 C   0  0  0  0  0  0  0  0  0  0  0  0
    6.9420  -14.0740   -0.6140 C   0  0  0  0  0  0  0  0  0  0  0  0
   10.3270  -12.5870   -0.8730 N   0  0  0  0  0  0  0  0  0  0  0  0
   13.3760  -12.2780   -2.9280 C   0  0  0  0  0  0  0  0  0  0  0  0
   13.8640  -12.6660   -4.1810 C   0  0  0  0  0  0  0  0  0  0  0  0
   12.4971  -16.7259   -7.2496 H   0  0  0  0  0  0  0  0  0  0  0  0
   12.7874  -15.3574   -8.3764 H   0  0  0  0  0  0  0  0  0  0  0  0
   13.8954  -16.7712   -8.3764 H   0  0  0  0  0  0  0  0  0  0  0  0
   12.9540  -13.5890   -7.1270 H   0  0  0  0  0  0  0  0  0  0  0  0
   11.1301  -14.3385   -5.3257 H   0  0  0  0  0  0  0  0  0  0  0  0
   10.2666  -13.6516   -3.0957 H   0  0  0  0  0  0  0  0  0  0  0  0
   13.3707  -11.1386   -0.5363 H   0  0  0  0  0  0  0  0  0  0  0  0
   12.3201  -10.5524    1.6276 H   0  0  0  0  0  0  0  0  0  0  0  0
    8.4310  -12.9480    1.5130 H   0  0  0  0  0  0  0  0  0  0  0  0
    6.9258  -10.6919   -0.4480 H   0  0  0  0  0  0  0  0  0  0  0  0
    4.9110  -11.0303   -1.8499 H   0  0  0  0  0  0  0  0  0  0  0  0
    2.7111  -14.0358   -1.0811 H   0  0  0  0  0  0  0  0  0  0  0  0
    2.2087  -12.4953   -1.8734 H   0  0  0  0  0  0  0  0  0  0  0  0
    1.9757  -15.3214   -3.0103 H   0  0  0  0  0  0  0  0  0  0  0  0
    0.6359  -14.2254   -2.4932 H   0  0  0  0  0  0  0  0  0  0  0  0
    1.2019  -12.6415   -4.2444 H   0  0  0  0  0  0  0  0  0  0  0  0
    1.2200  -14.6060   -6.0030 H   0  0  0  0  0  0  0  0  0  0  0  0
    3.3516  -14.6626   -5.0661 H   0  0  0  0  0  0  0  0  0  0  0  0
    2.9329  -13.1232   -5.9147 H   0  0  0  0  0  0  0  0  0  0  0  0
    4.9743  -12.9647   -4.4478 H   0  0  0  0  0  0  0  0  0  0  0  0
    3.6559  -11.8087   -4.0226 H   0  0  0  0  0  0  0  0  0  0  0  0
    5.4992  -15.2866   -1.6762 H   0  0  0  0  0  0  0  0  0  0  0  0
    7.5063  -14.9514   -0.2652 H   0  0  0  0  0  0  0  0  0  0  0  0
   14.0237  -11.6942   -2.2574 H   0  0  0  0  0  0  0  0  0  0  0  0
   14.8784  -12.3735   -4.4901 H   0  0  0  0  0  0  0  0  0  0  0  0
  1  2  1  0
  2  3  2  0
  2  4  2  0
  2  5  1  0
  5  6  1  0
  6  7  2  0
  7  8  1  0
  8  9  2  0
  9 10  1  0
 10 11  2  0
 11 12  1  0
 12 13  2  0
 13 14  1  0
 14 15  1  0
 15 16  1  0
 16 17  2  0
 17 18  1  0
 18 19  2  0
 19 20  1  0
 20 21  1  0
 21 22  1  0
 22 23  1  0
 23 24  1  0
 23 25  1  0
 25 26  1  0
 19 27  1  0
 27 28  2  0
 14 29  2  0
  9 30  1  0
 30 31  2  0
 31  6  1  0
 29 10  1  0
 28 16  1  0
 26 20  1  0
  1 32  1  0
  1 33  1  0
  1 34  1  0
  5 35  1  0
  7 36  1  0
  8 37  1  0
 11 38  1  0
 12 39  1  0
 15 40  1  0
 17 41  1  0
 18 42  1  0
 21 43  1  0
 21 44  1  0
 22 45  1  0
 22 46  1  0
 23 47  1  0
 24 48  1  0
 25 49  1  0
 25 50  1  0
 26 51  1  0
 26 52  1  0
 27 53  1  0
 28 54  1  0
 30 55  1  0
 31 56  1  0
M  END
>  <meeko>  (1) 
{"is_sidechain": [false], "free_energy": -7.823, "intermolecular_energy": -10.795, "internal_energy": -0.968}

$$$$
LIB_SNCROWOTWGUING__M_PUB_ALL__e8__s20260927
     RDKit          3D

 56 59  0  0  0  0  0  0  0  0999 V2000
   -1.3990  -11.0210    3.2370 C   0  0  0  0  0  0  0  0  0  0  0  0
   -1.4760   -9.8280    1.9130 S   0  0  0  0  0  0  0  0  0  0  0  0
   -1.9160   -8.5740    2.4860 O   0  0  0  0  0  0  0  0  0  0  0  0
   -2.1700  -10.4230    0.7930 O   0  0  0  0  0  0  0  0  0  0  0  0
    0.1470   -9.6010    1.5320 N   0  0  0  0  0  0  0  0  0  0  0  0
    0.7610  -10.3490    0.4890 C   0  0  0  0  0  0  0  0  0  0  0  0
    1.4610  -11.5070    0.8250 C   0  0  0  0  0  0  0  0  0  0  0  0
    2.0810  -12.2720   -0.1710 C   0  0  0  0  0  0  0  0  0  0  0  0
    2.0270  -11.8910   -1.5230 C   0  0  0  0  0  0  0  0  0  0  0  0
    2.6720  -12.6860   -2.5890 C   0  0  0  0  0  0  0  0  0  0  0  0
    2.1350  -12.8210   -3.8510 C   0  0  0  0  0  0  0  0  0  0  0  0
    2.8540  -13.5900   -4.7310 C   0  0  0  0  0  0  0  0  0  0  0  0
    4.0150  -14.1870   -4.4160 N   0  0  0  0  0  0  0  0  0  0  0  0
    4.4760  -14.0180   -3.1690 C   0  0  0  0  0  0  0  0  0  0  0  0
    5.6660  -14.5930   -2.7340 N   0  0  0  0  0  0  0  0  0  0  0  0
    6.9150  -14.0860   -2.3650 C   0  0  0  0  0  0  0  0  0  0  0  0
    8.0670  -14.1980   -3.1420 C   0  0  0  0  0  0  0  0  0  0  0  0
    9.2940  -13.6650   -2.7110 C   0  0  0  0  0  0  0  0  0  0  0  0
    9.4190  -12.9910   -1.4920 C   0  0  0  0  0  0  0  0  0  0  0  0
   10.6260  -12.4560   -1.0440 N   0  0  0  0  0  0  0  0  0  0  0  0
   10.8160  -12.2060    0.3860 C   0  0  0  0  0  0  0  0  0  0  0  0
   11.8910  -11.1470    0.6050 C   0  0  0  0  0  0  0  0  0  0  0  0
   13.1760  -11.5210   -0.1230 C   0  0  0  0  0  0  0  0  0  0  0  0
   14.1440  -10.4870    0.0320 O   0  0  0  0  0  0  0  0  0  0  0  0
   12.9040  -11.7190   -1.6080 C   0  0  0  0  0  0  0  0  0  0  0  0
   11.8280  -12.7740   -1.8280 C   0  0  0  0  0  0  0  0  0  0  0  0
    8.2620  -12.8890   -0.7130 C   0  0  0  0  0  0  0  0  0  0  0  0
    7.0360  -13.4220   -1.1390 C   0  0  0  0  0  0  0  0  0  0  0  0
    3.8350  -13.2860   -2.2450 N   0  0  0  0  0  0  0  0  0  0  0  0
    1.3250  -10.7130   -1.8330 C   0  0  0  0  0  0  0  0  0  0  0  0
    0.7070   -9.9450   -0.8400 C   0  0  0  0  0  0  0  0  0  0  0  0
   -1.4328  -10.4981    4.2042 H   0  0  0  0  0  0  0  0  0  0  0  0
   -2.2547  -11.7081    3.1616 H   0  0  0  0  0  0  0  0  0  0  0  0
   -0.4621  -11.5924    3.1616 H   0  0  0  0  0  0  0  0  0  0  0  0
    0.7070   -9.3880    2.3570 H   0  0  0  0  0  0  0  0  0  0  0  0
    1.5266  -11.8212    1.8771 H   0  0  0  0  0  0  0  0  0  0  0  0
    2.6205  -13.1885    0.1101 H   0  0  0  0  0  0  0  0  0  0  0  0
    1.1870  -12.3411   -4.1357 H   0  0  0  0  0  0  0  0  0  0  0  0
    2.4584  -13.7247   -5.7485 H   0  0  0  0  0  0  0  0  0  0  0  0
    5.5490  -15.5940   -2.6960 H   0  0  0  0  0  0  0  0  0  0  0  0
    8.0146  -14.7140   -4.1121 H   0  0  0  0  0  0  0  0  0  0  0  0
   10.1813  -13.7813   -3.3507 H   0  0  0  0  0  0  0  0  0  0  0  0
    9.8685  -11.8554    0.8212 H   0  0  0  0  0  0  0  0  0  0  0  0
   11.1334  -13.1407    0.8714 H   0  0  0  0  0  0  0  0  0  0  0  0
   11.5285  -10.1811    0.2234 H   0  0  0  0  0  0  0  0  0  0  0  0
   12.1035  -11.0782    1.6821 H   0  0  0  0  0  0  0  0  0  0  0  0
   13.5576  -12.4575    0.3097 H   0  0  0  0  0  0  0  0  0  0  0  0
   13.6750   -9.6770    0.2950 H   0  0  0  0  0  0  0  0  0  0  0  0
   12.5681  -10.7660   -2.0427 H   0  0  0  0  0  0  0  0  0  0  0  0
   13.8317  -12.0570   -2.0930 H   0  0  0  0  0  0  0  0  0  0  0  0
   11.5656  -12.8060   -2.8958 H   0  0  0  0  0  0  0  0  0  0  0  0
   12.2161  -13.7506   -1.5030 H   0  0  0  0  0  0  0  0  0  0  0  0
    8.3145  -12.3774    0.2594 H   0  0  0  0  0  0  0  0  0  0  0  0
    6.1505  -13.3156   -0.4952 H   0  0  0  0  0  0  0  0  0  0  0  0
    1.2600  -10.3872   -2.8816 H   0  0  0  0  0  0  0  0  0  0  0  0
    0.1775   -9.0199   -1.1115 H   0  0  0  0  0  0  0  0  0  0  0  0
  1  2  1  0
  2  3  2  0
  2  4  2  0
  2  5  1  0
  5  6  1  0
  6  7  2  0
  7  8  1  0
  8  9  2  0
  9 10  1  0
 10 11  2  0
 11 12  1  0
 12 13  2  0
 13 14  1  0
 14 15  1  0
 15 16  1  0
 16 17  2  0
 17 18  1  0
 18 19  2  0
 19 20  1  0
 20 21  1  0
 21 22  1  0
 22 23  1  0
 23 24  1  0
 23 25  1  0
 25 26  1  0
 19 27  1  0
 27 28  2  0
 14 29  2  0
  9 30  1  0
 30 31  2  0
 31  6  1  0
 29 10  1  0
 28 16  1  0
 26 20  1  0
  1 32  1  0
  1 33  1  0
  1 34  1  0
  5 35  1  0
  7 36  1  0
  8 37  1  0
 11 38  1  0
 12 39  1  0
 15 40  1  0
 17 41  1  0
 18 42  1  0
 21 43  1  0
 21 44  1  0
 22 45  1  0
 22 46  1  0
 23 47  1  0
 24 48  1  0
 25 49  1  0
 25 50  1  0
 26 51  1  0
 26 52  1  0
 27 53  1  0
 28 54  1  0
 30 55  1  0
 31 56  1  0
M  END
>  <meeko>  (2) 
{"is_sidechain": [false], "free_energy": -7.697, "intermolecular_energy": -10.784, "internal_energy": -0.806}

$$$$
LIB_SNCROWOTWGUING__M_PUB_ALL__e8__s20260927
     RDKit          3D

 56 59  0  0  0  0  0  0  0  0999 V2000
   20.7080  -26.3310    2.3960 C   0  0  0  0  0  0  0  0  0  0  0  0
   19.2620  -26.1070    1.3770 S   0  0  0  0  0  0  0  0  0  0  0  0
   18.1140  -26.0750    2.2570 O   0  0  0  0  0  0  0  0  0  0  0  0
   19.3290  -27.0310    0.2680 O   0  0  0  0  0  0  0  0  0  0  0  0
   19.4460  -24.5290    0.8250 N   0  0  0  0  0  0  0  0  0  0  0  0
   18.5720  -23.9960   -0.1640 C   0  0  0  0  0  0  0  0  0  0  0  0
   18.9160  -24.1480   -1.5060 C   0  0  0  0  0  0  0  0  0  0  0  0
   18.0830  -23.6390   -2.5110 C   0  0  0  0  0  0  0  0  0  0  0  0
   16.8950  -22.9560   -2.1980 C   0  0  0  0  0  0  0  0  0  0  0  0
   16.0020  -22.4140   -3.2430 C   0  0  0  0  0  0  0  0  0  0  0  0
   16.1770  -22.6740   -4.5850 C   0  0  0  0  0  0  0  0  0  0  0  0
   15.2640  -22.1000   -5.4320 C   0  0  0  0  0  0  0  0  0  0  0  0
   14.2480  -21.3280   -5.0140 N   0  0  0  0  0  0  0  0  0  0  0  0
   14.1420  -21.1110   -3.6960 C   0  0  0  0  0  0  0  0  0  0  0  0
   13.1300  -20.3260   -3.1530 N   0  0  0  0  0  0  0  0  0  0  0  0
   12.9950  -18.9630   -2.8760 C   0  0  0  0  0  0  0  0  0  0  0  0
   13.6910  -17.9550   -3.5400 C   0  0  0  0  0  0  0  0  0  0  0  0
   13.5090  -16.6010   -3.2130 C   0  0  0  0  0  0  0  0  0  0  0  0
   12.6180  -16.1970   -2.2130 C   0  0  0  0  0  0  0  0  0  0  0  0
   12.4220  -14.8600   -1.8700 N   0  0  0  0  0  0  0  0  0  0  0  0
   12.3230  -13.8530   -2.9280 C   0  0  0  0  0  0  0  0  0  0  0  0
   12.6770  -12.4730   -2.3860 C   0  0  0  0  0  0  0  0  0  0  0  0
   11.8460  -12.1440   -1.1530 C   0  0  0  0  0  0  0  0  0  0  0  0
   12.2410  -10.8840   -0.6180 O   0  0  0  0  0  0  0  0  0  0  0  0
   12.0390  -13.2120   -0.0850 C   0  0  0  0  0  0  0  0  0  0  0  0
   11.6880  -14.5920   -0.6260 C   0  0  0  0  0  0  0  0  0  0  0  0
   11.9270  -17.2130   -1.5440 C   0  0  0  0  0  0  0  0  0  0  0  0
   12.1090  -18.5660   -1.8670 C   0  0  0  0  0  0  0  0  0  0  0  0
   14.9930  -21.6320   -2.7980 N   0  0  0  0  0  0  0  0  0  0  0  0
   16.5770  -22.8070   -0.8360 C   0  0  0  0  0  0  0  0  0  0  0  0
   17.4080  -23.3120    0.1700 C   0  0  0  0  0  0  0  0  0  0  0  0
   20.4197  -26.2863    3.4566 H   0  0  0  0  0  0  0  0  0  0  0  0
   21.1607  -27.3100    2.1800 H   0  0  0  0  0  0  0  0  0  0  0  0
   21.4357  -25.5349    2.1800 H   0  0  0  0  0  0  0  0  0  0  0  0
   20.4250  -24.2450    0.7950 H   0  0  0  0  0  0  0  0  0  0  0  0
   19.8455  -24.6699   -1.7773 H   0  0  0  0  0  0  0  0  0  0  0  0
   18.3642  -23.7765   -3.5655 H   0  0  0  0  0  0  0  0  0  0  0  0
   16.9995  -23.3040   -4.9545 H   0  0  0  0  0  0  0  0  0  0  0  0
   15.3696  -22.2817   -6.5117 H   0  0  0  0  0  0  0  0  0  0  0  0
   12.3450  -20.9180   -2.9240 H   0  0  0  0  0  0  0  0  0  0  0  0
   14.3985  -18.2254   -4.3377 H   0  0  0  0  0  0  0  0  0  0  0  0
   14.0829  -15.8373   -3.7583 H   0  0  0  0  0  0  0  0  0  0  0  0
   13.0178  -14.1120   -3.7405 H   0  0  0  0  0  0  0  0  0  0  0  0
   11.2897  -13.8330   -3.3047 H   0  0  0  0  0  0  0  0  0  0  0  0
   13.7435  -12.4544   -2.1171 H   0  0  0  0  0  0  0  0  0  0  0  0
   12.4638  -11.7247   -3.1635 H   0  0  0  0  0  0  0  0  0  0  0  0
   10.7877  -12.1072   -1.4508 H   0  0  0  0  0  0  0  0  0  0  0  0
   13.1470  -10.7030   -0.9210 H   0  0  0  0  0  0  0  0  0  0  0  0
   13.0896  -13.2096    0.2409 H   0  0  0  0  0  0  0  0  0  0  0  0
   11.3734  -12.9868    0.7613 H   0  0  0  0  0  0  0  0  0  0  0  0
   11.9547  -15.3526    0.1225 H   0  0  0  0  0  0  0  0  0  0  0  0
   10.6087  -14.6275   -0.8355 H   0  0  0  0  0  0  0  0  0  0  0  0
   11.2223  -16.9438   -0.7435 H   0  0  0  0  0  0  0  0  0  0  0  0
   11.5434  -19.3316   -1.3157 H   0  0  0  0  0  0  0  0  0  0  0  0
   15.6528  -22.2808   -0.5550 H   0  0  0  0  0  0  0  0  0  0  0  0
   17.1402  -23.1678    1.2271 H   0  0  0  0  0  0  0  0  0  0  0  0
  1  2  1  0
  2  3  2  0
  2  4  2  0
  2  5  1  0
  5  6  1  0
  6  7  2  0
  7  8  1  0
  8  9  2  0
  9 10  1  0
 10 11  2  0
 11 12  1  0
 12 13  2  0
 13 14  1  0
 14 15  1  0
 15 16  1  0
 16 17  2  0
 17 18  1  0
 18 19  2  0
 19 20  1  0
 20 21  1  0
 21 22  1  0
 22 23  1  0
 23 24  1  0
 23 25  1  0
 25 26  1  0
 19 27  1  0
 27 28  2  0
 14 29  2  0
  9 30  1  0
 30 31  2  0
 31  6  1  0
 29 10  1  0
 28 16  1  0
 26 20  1  0
  1 32  1  0
  1 33  1  0
  1 34  1  0
  5 35  1  0
  7 36  1  0
  8 37  1  0
 11 38  1  0
 12 39  1  0
 15 40  1  0
 17 41  1  0
 18 42  1  0
 21 43  1  0
 21 44  1  0
 22 45  1  0
 22 46  1  0
 23 47  1  0
 24 48  1  0
 25 49  1  0
 25 50  1  0
 26 51  1  0
 26 52  1  0
 27 53  1  0
 28 54  1  0
 30 55  1  0
 31 56  1  0
M  END
>  <meeko>  (3) 
{"is_sidechain": [false], "free_energy": -7.661, "intermolecular_energy": -10.637, "internal_energy": -0.904}

$$$$
LIB_SNCROWOTWGUING__M_PUB_ALL__e8__s20260927
     RDKit          3D

 56 59  0  0  0  0  0  0  0  0999 V2000
   12.0340   -0.9670  -12.4720 C   0  0  0  0  0  0  0  0  0  0  0  0
   11.3590   -2.5030  -13.0770 S   0  0  0  0  0  0  0  0  0  0  0  0
   11.4390   -2.4710  -14.5220 O   0  0  0  0  0  0  0  0  0  0  0  0
   10.1050   -2.7550  -12.4030 O   0  0  0  0  0  0  0  0  0  0  0  0
   12.5120   -3.6260  -12.5890 N   0  0  0  0  0  0  0  0  0  0  0  0
   12.1510   -4.9810  -12.3460 C   0  0  0  0  0  0  0  0  0  0  0  0
   11.6740   -5.3250  -11.0820 C   0  0  0  0  0  0  0  0  0  0  0  0
   11.3080   -6.6480  -10.8010 C   0  0  0  0  0  0  0  0  0  0  0  0
   11.4230   -7.6590  -11.7710 C   0  0  0  0  0  0  0  0  0  0  0  0
   11.0410   -9.0590  -11.4950 C   0  0  0  0  0  0  0  0  0  0  0  0
    9.8050   -9.5760  -11.8220 C   0  0  0  0  0  0  0  0  0  0  0  0
    9.6020  -10.8940  -11.5030 C   0  0  0  0  0  0  0  0  0  0  0  0
   10.5280  -11.6640  -10.9090 N   0  0  0  0  0  0  0  0  0  0  0  0
   11.7050  -11.0950  -10.6130 C   0  0  0  0  0  0  0  0  0  0  0  0
   12.7350  -11.7980   -9.9970 N   0  0  0  0  0  0  0  0  0  0  0  0
   13.6260  -12.7890  -10.4160 C   0  0  0  0  0  0  0  0  0  0  0  0
   14.0780  -12.9350  -11.7260 C   0  0  0  0  0  0  0  0  0  0  0  0
   14.9760  -13.9550  -12.0820 C   0  0  0  0  0  0  0  0  0  0  0  0
   15.4680  -14.8670  -11.1420 C   0  0  0  0  0  0  0  0  0  0  0  0
   16.3580  -15.8870  -11.4720 N   0  0  0  0  0  0  0  0  0  0  0  0
   17.2580  -16.4170  -10.4450 C   0  0  0  0  0  0  0  0  0  0  0  0
   18.4780  -17.0670  -11.0890 C   0  0  0  0  0  0  0  0  0  0  0  0
   18.0580  -18.1030  -12.1230 C   0  0  0  0  0  0  0  0  0  0  0  0
   19.2080  -18.6470  -12.7660 O   0  0  0  0  0  0  0  0  0  0  0  0
   17.1640  -17.4650  -13.1780 C   0  0  0  0  0  0  0  0  0  0  0  0
   15.9460  -16.8130  -12.5360 C   0  0  0  0  0  0  0  0  0  0  0  0
   15.0060  -14.7210   -9.8290 C   0  0  0  0  0  0  0  0  0  0  0  0
   14.1070  -13.7050   -9.4720 C   0  0  0  0  0  0  0  0  0  0  0  0
   11.9860   -9.8120  -10.8880 N   0  0  0  0  0  0  0  0  0  0  0  0
   11.9190   -7.2870  -13.0330 C   0  0  0  0  0  0  0  0  0  0  0  0
   12.2880   -5.9670  -13.3170 C   0  0  0  0  0  0  0  0  0  0  0  0
   12.0312   -0.9733  -11.3720 H   0  0  0  0  0  0  0  0  0  0  0  0
   13.0658   -0.8515  -12.8354 H   0  0  0  0  0  0  0  0  0  0  0  0
   11.4213   -0.1288  -12.8354 H   0  0  0  0  0  0  0  0  0  0  0  0
   13.2230   -3.2090  -11.9890 H   0  0  0  0  0  0  0  0  0  0  0  0
   11.5846   -4.5545  -10.3020 H   0  0  0  0  0  0  0  0  0  0  0  0
   10.9232   -6.9005   -9.8019 H   0  0  0  0  0  0  0  0  0  0  0  0
    9.0288   -8.9677  -12.3093 H   0  0  0  0  0  0  0  0  0  0  0  0
    8.6286  -11.3447  -11.7467 H   0  0  0  0  0  0  0  0  0  0  0  0
   12.8120  -11.4890   -9.0390 H   0  0  0  0  0  0  0  0  0  0  0  0
   13.7239  -12.2363  -12.4983 H   0  0  0  0  0  0  0  0  0  0  0  0
   15.3015  -14.0390  -13.1294 H   0  0  0  0  0  0  0  0  0  0  0  0
   17.5876  -15.5947   -9.7930 H   0  0  0  0  0  0  0  0  0  0  0  0
   16.7199  -17.1747   -9.8565 H   0  0  0  0  0  0  0  0  0  0  0  0
   19.0821  -16.2907  -11.5814 H   0  0  0  0  0  0  0  0  0  0  0  0
   19.0639  -17.5694  -10.3053 H   0  0  0  0  0  0  0  0  0  0  0  0
   17.5064  -18.9018  -11.6056 H   0  0  0  0  0  0  0  0  0  0  0  0
   19.0970  -18.5290  -13.7250 H   0  0  0  0  0  0  0  0  0  0  0  0
   17.7377  -16.6998  -13.7214 H   0  0  0  0  0  0  0  0  0  0  0  0
   16.8200  -18.2493  -13.8683 H   0  0  0  0  0  0  0  0  0  0  0  0
   15.3867  -16.2572  -13.3029 H   0  0  0  0  0  0  0  0  0  0  0  0
   15.3119  -17.5980  -12.0982 H   0  0  0  0  0  0  0  0  0  0  0  0
   15.3570  -15.4213   -9.0567 H   0  0  0  0  0  0  0  0  0  0  0  0
   13.7723  -13.6260   -8.4271 H   0  0  0  0  0  0  0  0  0  0  0  0
   12.0195   -8.0524  -13.8166 H   0  0  0  0  0  0  0  0  0  0  0  0
   12.6868   -5.7093  -14.3093 H   0  0  0  0  0  0  0  0  0  0  0  0
  1  2  1  0
  2  3  2  0
  2  4  2  0
  2  5  1  0
  5  6  1  0
  6  7  2  0
  7  8  1  0
  8  9  2  0
  9 10  1  0
 10 11  2  0
 11 12  1  0
 12 13  2  0
 13 14  1  0
 14 15  1  0
 15 16  1  0
 16 17  2  0
 17 18  1  0
 18 19  2  0
 19 20  1  0
 20 21  1  0
 21 22  1  0
 22 23  1  0
 23 24  1  0
 23 25  1  0
 25 26  1  0
 19 27  1  0
 27 28  2  0
 14 29  2  0
  9 30  1  0
 30 31  2  0
 31  6  1  0
 29 10  1  0
 28 16  1  0
 26 20  1  0
  1 32  1  0
  1 33  1  0
  1 34  1  0
  5 35  1  0
  7 36  1  0
  8 37  1  0
 11 38  1  0
 12 39  1  0
 15 40  1  0
 17 41  1  0
 18 42  1  0
 21 43  1  0
 21 44  1  0
 22 45  1  0
 22 46  1  0
 23 47  1  0
 24 48  1  0
 25 49  1  0
 25 50  1  0
 26 51  1  0
 26 52  1  0
 27 53  1  0
 28 54  1  0
 30 55  1  0
 31 56  1  0
M  END
>  <meeko>  (4) 
{"is_sidechain": [false], "free_energy": -7.564, "intermolecular_energy": -10.62, "internal_energy": -0.787}

$$$$
LIB_SNCROWOTWGUING__M_PUB_ALL__e8__s20260927
     RDKit          3D

 56 59  0  0  0  0  0  0  0  0999 V2000
   13.1210  -16.0160   -7.8210 C   0  0  0  0  0  0  0  0  0  0  0  0
   14.2450  -15.2390   -6.6750 S   0  0  0  0  0  0  0  0  0  0  0  0
   15.4520  -14.9160   -7.4070 O   0  0  0  0  0  0  0  0  0  0  0  0
   14.2930  -16.0280   -5.4650 O   0  0  0  0  0  0  0  0  0  0  0  0
   13.4970  -13.7630   -6.3740 N   0  0  0  0  0  0  0  0  0  0  0  0
   12.8970  -13.4960   -5.1110 C   0  0  0  0  0  0  0  0  0  0  0  0
   13.6430  -12.8090   -4.1540 C   0  0  0  0  0  0  0  0  0  0  0  0
   13.0910  -12.5260   -2.8980 C   0  0  0  0  0  0  0  0  0  0  0  0
   11.7870  -12.9330   -2.5650 C   0  0  0  0  0  0  0  0  0  0  0  0
   11.1860  -12.6420   -1.2470 C   0  0  0  0  0  0  0  0  0  0  0  0
   11.9370  -12.4580   -0.1060 C   0  0  0  0  0  0  0  0  0  0  0  0
   11.2330  -12.1930    1.0410 C   0  0  0  0  0  0  0  0  0  0  0  0
    9.8930  -12.1090    1.0850 N   0  0  0  0  0  0  0  0  0  0  0  0
    9.2260  -12.3050   -0.0600 C   0  0  0  0  0  0  0  0  0  0  0  0
    7.8380  -12.2430   -0.1290 N   0  0  0  0  0  0  0  0  0  0  0  0
    6.8010  -13.0420    0.3590 C   0  0  0  0  0  0  0  0  0  0  0  0
    6.3250  -12.9970    1.6690 C   0  0  0  0  0  0  0  0  0  0  0  0
    5.2770  -13.8290    2.0960 C   0  0  0  0  0  0  0  0  0  0  0  0
    4.6540  -14.7340    1.2310 C   0  0  0  0  0  0  0  0  0  0  0  0
    3.6140  -15.5700    1.6330 N   0  0  0  0  0  0  0  0  0  0  0  0
    2.3220  -14.9860    2.0010 C   0  0  0  0  0  0  0  0  0  0  0  0
    1.5490  -15.9310    2.9140 C   0  0  0  0  0  0  0  0  0  0  0  0
    1.4350  -17.3160    2.2890 C   0  0  0  0  0  0  0  0  0  0  0  0
    0.7740  -18.2050    3.1860 O   0  0  0  0  0  0  0  0  0  0  0  0
    2.8180  -17.8720    1.9790 C   0  0  0  0  0  0  0  0  0  0  0  0
    3.5920  -16.9270    1.0690 C   0  0  0  0  0  0  0  0  0  0  0  0
    5.1390  -14.7800   -0.0800 C   0  0  0  0  0  0  0  0  0  0  0  0
    6.1870  -13.9530   -0.5090 C   0  0  0  0  0  0  0  0  0  0  0  0
    9.8350  -12.5720   -1.2260 N   0  0  0  0  0  0  0  0  0  0  0  0
   11.0610  -13.6340   -3.5440 C   0  0  0  0  0  0  0  0  0  0  0  0
   11.6110  -13.9210   -4.7990 C   0  0  0  0  0  0  0  0  0  0  0  0
   12.3417  -16.5547   -7.2620 H   0  0  0  0  0  0  0  0  0  0  0  0
   12.6533  -15.2475   -8.4539 H   0  0  0  0  0  0  0  0  0  0  0  0
   13.6747  -16.7251   -8.4539 H   0  0  0  0  0  0  0  0  0  0  0  0
   13.0400  -13.3880   -7.2040 H   0  0  0  0  0  0  0  0  0  0  0  0
   14.6691  -12.4880   -4.3863 H   0  0  0  0  0  0  0  0  0  0  0  0
   13.6894  -11.9746   -2.1578 H   0  0  0  0  0  0  0  0  0  0  0  0
   13.0352  -12.5200   -0.1147 H   0  0  0  0  0  0  0  0  0  0  0  0
   11.7954  -12.0412    1.9741 H   0  0  0  0  0  0  0  0  0  0  0  0
    7.5740  -11.4260   -0.6600 H   0  0  0  0  0  0  0  0  0  0  0  0
    6.7800  -12.2949    2.3832 H   0  0  0  0  0  0  0  0  0  0  0  0
    4.9368  -13.7669    3.1402 H   0  0  0  0  0  0  0  0  0  0  0  0
    2.4914  -14.0340    2.5254 H   0  0  0  0  0  0  0  0  0  0  0  0
    1.7351  -14.8161    1.0863 H   0  0  0  0  0  0  0  0  0  0  0  0
    2.0746  -16.0122    3.8769 H   0  0  0  0  0  0  0  0  0  0  0  0
    0.5366  -15.5273    3.0627 H   0  0  0  0  0  0  0  0  0  0  0  0
    0.8562  -17.2270    1.3578 H   0  0  0  0  0  0  0  0  0  0  0  0
    1.4240  -18.8640    3.4830 H   0  0  0  0  0  0  0  0  0  0  0  0
    3.3733  -18.0016    2.9197 H   0  0  0  0  0  0  0  0  0  0  0  0
    2.7016  -18.8378    1.4655 H   0  0  0  0  0  0  0  0  0  0  0  0
    4.6244  -17.2915    0.9631 H   0  0  0  0  0  0  0  0  0  0  0  0
    3.0976  -16.8954    0.0869 H   0  0  0  0  0  0  0  0  0  0  0  0
    4.6862  -15.4839   -0.7938 H   0  0  0  0  0  0  0  0  0  0  0  0
    6.5344  -14.0215   -1.5505 H   0  0  0  0  0  0  0  0  0  0  0  0
   10.0365  -13.9648   -3.3184 H   0  0  0  0  0  0  0  0  0  0  0  0
   11.0242  -14.4840   -5.5397 H   0  0  0  0  0  0  0  0  0  0  0  0
  1  2  1  0
  2  3  2  0
  2  4  2  0
  2  5  1  0
  5  6  1  0
  6  7  2  0
  7  8  1  0
  8  9  2  0
  9 10  1  0
 10 11  2  0
 11 12  1  0
 12 13  2  0
 13 14  1  0
 14 15  1  0
 15 16  1  0
 16 17  2  0
 17 18  1  0
 18 19  2  0
 19 20  1  0
 20 21  1  0
 21 22  1  0
 22 23  1  0
 23 24  1  0
 23 25  1  0
 25 26  1  0
 19 27  1  0
 27 28  2  0
 14 29  2  0
  9 30  1  0
 30 31  2  0
 31  6  1  0
 29 10  1  0
 28 16  1  0
 26 20  1  0
  1 32  1  0
  1 33  1  0
  1 34  1  0
  5 35  1  0
  7 36  1  0
  8 37  1  0
 11 38  1  0
 12 39  1  0
 15 40  1  0
 17 41  1  0
 18 42  1  0
 21 43  1  0
 21 44  1  0
 22 45  1  0
 22 46  1  0
 23 47  1  0
 24 48  1  0
 25 49  1  0
 25 50  1  0
 26 51  1  0
 26 52  1  0
 27 53  1  0
 28 54  1  0
 30 55  1  0
 31 56  1  0
M  END
>  <meeko>  (5) 
{"is_sidechain": [false], "free_energy": -7.155, "intermolecular_energy": -9.948, "internal_energy": -0.893}

$$$$
LIB_SNCROWOTWGUING__M_PUB_ALL__e8__s20260927
     RDKit          3D

 56 59  0  0  0  0  0  0  0  0999 V2000
    4.2820  -12.7170   -5.5960 C   0  0  0  0  0  0  0  0  0  0  0  0
    3.2800  -13.3580   -4.2680 S   0  0  0  0  0  0  0  0  0  0  0  0
    3.9090  -14.5750   -3.8010 O   0  0  0  0  0  0  0  0  0  0  0  0
    1.8950  -13.3440   -4.6820 O   0  0  0  0  0  0  0  0  0  0  0  0
    3.5280  -12.2290   -3.0460 N   0  0  0  0  0  0  0  0  0  0  0  0
    2.5050  -11.9440   -2.0980 C   0  0  0  0  0  0  0  0  0  0  0  0
    2.1470  -12.9380   -1.1890 C   0  0  0  0  0  0  0  0  0  0  0  0
    1.1440  -12.7000   -0.2400 C   0  0  0  0  0  0  0  0  0  0  0  0
    0.4680  -11.4690   -0.1860 C   0  0  0  0  0  0  0  0  0  0  0  0
   -0.5900  -11.1970    0.8090 C   0  0  0  0  0  0  0  0  0  0  0  0
   -0.5540  -10.1160    1.6640 C   0  0  0  0  0  0  0  0  0  0  0  0
   -1.6120   -9.9990    2.5290 C   0  0  0  0  0  0  0  0  0  0  0  0
   -2.6380  -10.8650    2.5660 N   0  0  0  0  0  0  0  0  0  0  0  0
   -2.6060  -11.8950    1.7110 C   0  0  0  0  0  0  0  0  0  0  0  0
   -3.6140  -12.8520    1.6640 N   0  0  0  0  0  0  0  0  0  0  0  0
   -4.2520  -13.6450    2.6220 C   0  0  0  0  0  0  0  0  0  0  0  0
   -3.7210  -14.8220    3.1460 C   0  0  0  0  0  0  0  0  0  0  0  0
   -4.4150  -15.5730    4.1090 C   0  0  0  0  0  0  0  0  0  0  0  0
   -5.6650  -15.1750    4.5970 C   0  0  0  0  0  0  0  0  0  0  0  0
   -6.3720  -15.9050    5.5500 N   0  0  0  0  0  0  0  0  0  0  0  0
   -6.0050  -15.7870    6.9630 C   0  0  0  0  0  0  0  0  0  0  0  0
   -6.4640  -17.0170    7.7380 C   0  0  0  0  0  0  0  0  0  0  0  0
   -7.9480  -17.2770    7.5140 C   0  0  0  0  0  0  0  0  0  0  0  0
   -8.3440  -18.4700    8.1860 O   0  0  0  0  0  0  0  0  0  0  0  0
   -8.2390  -17.4330    6.0270 C   0  0  0  0  0  0  0  0  0  0  0  0
   -7.7790  -16.2050    5.2520 C   0  0  0  0  0  0  0  0  0  0  0  0
   -6.1960  -13.9960    4.0620 C   0  0  0  0  0  0  0  0  0  0  0  0
   -5.5070  -13.2460    3.0980 C   0  0  0  0  0  0  0  0  0  0  0  0
   -1.6080  -12.0870    0.8330 N   0  0  0  0  0  0  0  0  0  0  0  0
    0.8400  -10.4880   -1.1220 C   0  0  0  0  0  0  0  0  0  0  0  0
    1.8400  -10.7240   -2.0740 C   0  0  0  0  0  0  0  0  0  0  0  0
    5.1388  -12.1689   -5.1772 H   0  0  0  0  0  0  0  0  0  0  0  0
    4.6467  -13.5499   -6.2151 H   0  0  0  0  0  0  0  0  0  0  0  0
    3.6787  -12.0367   -6.2151 H   0  0  0  0  0  0  0  0  0  0  0  0
    4.1190  -11.4570   -3.3520 H   0  0  0  0  0  0  0  0  0  0  0  0
    2.6541  -13.9137   -1.2167 H   0  0  0  0  0  0  0  0  0  0  0  0
    0.8806  -13.4919    0.4766 H   0  0  0  0  0  0  0  0  0  0  0  0
    0.2733   -9.3911    1.6531 H   0  0  0  0  0  0  0  0  0  0  0  0
   -1.6207   -9.1510    3.2296 H   0  0  0  0  0  0  0  0  0  0  0  0
   -3.9150  -12.9620    0.7070 H   0  0  0  0  0  0  0  0  0  0  0  0
   -2.7374  -15.1704    2.7981 H   0  0  0  0  0  0  0  0  0  0  0  0
   -3.9632  -16.5005    4.4906 H   0  0  0  0  0  0  0  0  0  0  0  0
   -4.9122  -15.6933    7.0466 H   0  0  0  0  0  0  0  0  0  0  0  0
   -6.4951  -14.8971    7.3849 H   0  0  0  0  0  0  0  0  0  0  0  0
   -5.8897  -17.8917    7.3987 H   0  0  0  0  0  0  0  0  0  0  0  0
   -6.2958  -16.8400    8.8106 H   0  0  0  0  0  0  0  0  0  0  0  0
   -8.5112  -16.4204    7.9126 H   0  0  0  0  0  0  0  0  0  0  0  0
   -7.5480  -19.0100    8.3260 H   0  0  0  0  0  0  0  0  0  0  0  0
   -7.7084  -18.3185    5.6470 H   0  0  0  0  0  0  0  0  0  0  0  0
   -9.3245  -17.5483    5.8912 H   0  0  0  0  0  0  0  0  0  0  0  0
   -7.8879  -16.3956    4.1741 H   0  0  0  0  0  0  0  0  0  0  0  0
   -8.3967  -15.3448    5.5497 H   0  0  0  0  0  0  0  0  0  0  0  0
   -7.1808  -13.6480    4.4071 H   0  0  0  0  0  0  0  0  0  0  0  0
   -5.9624  -12.3241    2.7072 H   0  0  0  0  0  0  0  0  0  0  0  0
    0.3335   -9.5117   -1.1063 H   0  0  0  0  0  0  0  0  0  0  0  0
    2.0993   -9.9426   -2.8036 H   0  0  0  0  0  0  0  0  0  0  0  0
  1  2  1  0
  2  3  2  0
  2  4  2  0
  2  5  1  0
  5  6  1  0
  6  7  2  0
  7  8  1  0
  8  9  2  0
  9 10  1  0
 10 11  2  0
 11 12  1  0
 12 13  2  0
 13 14  1  0
 14 15  1  0
 15 16  1  0
 16 17  2  0
 17 18  1  0
 18 19  2  0
 19 20  1  0
 20 21  1  0
 21 22  1  0
 22 23  1  0
 23 24  1  0
 23 25  1  0
 25 26  1  0
 19 27  1  0
 27 28  2  0
 14 29  2  0
  9 30  1  0
 30 31  2  0
 31  6  1  0
 29 10  1  0
 28 16  1  0
 26 20  1  0
  1 32  1  0
  1 33  1  0
  1 34  1  0
  5 35  1  0
  7 36  1  0
  8 37  1  0
 11 38  1  0
 12 39  1  0
 15 40  1  0
 17 41  1  0
 18 42  1  0
 21 43  1  0
 21 44  1  0
 22 45  1  0
 22 46  1  0
 23 47  1  0
 24 48  1  0
 25 49  1  0
 25 50  1  0
 26 51  1  0
 26 52  1  0
 27 53  1  0
 28 54  1  0
 30 55  1  0
 31 56  1  0
M  END
>  <meeko>  (6) 
{"is_sidechain": [false], "free_energy": -7.145, "intermolecular_energy": -9.946, "internal_energy": -0.882}

$$$$
LIB_SNCROWOTWGUING__M_PUB_ALL__e8__s20260927
     RDKit          3D

 56 59  0  0  0  0  0  0  0  0999 V2000
    8.4910  -10.8430  -11.5420 C   0  0  0  0  0  0  0  0  0  0  0  0
    9.2350  -12.4600  -11.6480 S   0  0  0  0  0  0  0  0  0  0  0  0
   10.1020  -12.6130  -10.4990 O   0  0  0  0  0  0  0  0  0  0  0  0
    9.7320  -12.6540  -12.9910 O   0  0  0  0  0  0  0  0  0  0  0  0
    7.9290  -13.4820  -11.3620 N   0  0  0  0  0  0  0  0  0  0  0  0
    7.5640  -13.8430  -10.0350 C   0  0  0  0  0  0  0  0  0  0  0  0
    6.6910  -13.0110   -9.3370 C   0  0  0  0  0  0  0  0  0  0  0  0
    6.3070  -13.3300   -8.0270 C   0  0  0  0  0  0  0  0  0  0  0  0
    6.7960  -14.4800   -7.3830 C   0  0  0  0  0  0  0  0  0  0  0  0
    6.4010  -14.8350   -6.0040 C   0  0  0  0  0  0  0  0  0  0  0  0
    7.2620  -15.4330   -5.1090 C   0  0  0  0  0  0  0  0  0  0  0  0
    6.7470  -15.6980   -3.8660 C   0  0  0  0  0  0  0  0  0  0  0  0
    5.4870  -15.4050   -3.5080 N   0  0  0  0  0  0  0  0  0  0  0  0
    4.7020  -14.8300   -4.4290 C   0  0  0  0  0  0  0  0  0  0  0  0
    3.3800  -14.4860   -4.1680 N   0  0  0  0  0  0  0  0  0  0  0  0
    2.7550  -13.6630   -3.2270 C   0  0  0  0  0  0  0  0  0  0  0  0
    2.8510  -12.2730   -3.2140 C   0  0  0  0  0  0  0  0  0  0  0  0
    2.1960  -11.5030   -2.2380 C   0  0  0  0  0  0  0  0  0  0  0  0
    1.4090  -12.0890   -1.2410 C   0  0  0  0  0  0  0  0  0  0  0  0
    0.7520  -11.3460   -0.2620 N   0  0  0  0  0  0  0  0  0  0  0  0
    0.5010   -9.9200   -0.4880 C   0  0  0  0  0  0  0  0  0  0  0  0
    0.3150   -9.1940    0.8390 C   0  0  0  0  0  0  0  0  0  0  0  0
   -0.7560   -9.8730    1.6830 C   0  0  0  0  0  0  0  0  0  0  0  0
   -0.8660   -9.2260    2.9480 O   0  0  0  0  0  0  0  0  0  0  0  0
   -0.4000  -11.3370    1.9110 C   0  0  0  0  0  0  0  0  0  0  0  0
   -0.2110  -12.0630    0.5860 C   0  0  0  0  0  0  0  0  0  0  0  0
    1.3220  -13.4850   -1.2540 C   0  0  0  0  0  0  0  0  0  0  0  0
    1.9770  -14.2560   -2.2250 C   0  0  0  0  0  0  0  0  0  0  0  0
    5.1240  -14.5390   -5.6700 N   0  0  0  0  0  0  0  0  0  0  0  0
    7.6840  -15.2950   -8.1060 C   0  0  0  0  0  0  0  0  0  0  0  0
    8.0720  -14.9780   -9.4130 C   0  0  0  0  0  0  0  0  0  0  0  0
    8.3638  -10.5665  -10.4849 H   0  0  0  0  0  0  0  0  0  0  0  0
    9.1410  -10.1071  -12.0378 H   0  0  0  0  0  0  0  0  0  0  0  0
    7.5092  -10.8579  -12.0378 H   0  0  0  0  0  0  0  0  0  0  0  0
    7.8280  -14.1870  -12.0910 H   0  0  0  0  0  0  0  0  0  0  0  0
    6.3016  -12.1004   -9.8157 H   0  0  0  0  0  0  0  0  0  0  0  0
    5.6097  -12.6678   -7.4928 H   0  0  0  0  0  0  0  0  0  0  0  0
    8.2996  -15.6826   -5.3757 H   0  0  0  0  0  0  0  0  0  0  0  0
    7.4015  -16.1763   -3.1225 H   0  0  0  0  0  0  0  0  0  0  0  0
    2.7830  -14.9620   -4.8270 H   0  0  0  0  0  0  0  0  0  0  0  0
    3.4523  -11.7677   -3.9841 H   0  0  0  0  0  0  0  0  0  0  0  0
    2.3052  -10.4086   -2.2585 H   0  0  0  0  0  0  0  0  0  0  0  0
    1.3564   -9.4822   -1.0233 H   0  0  0  0  0  0  0  0  0  0  0  0
   -0.4163   -9.8105   -1.0851 H   0  0  0  0  0  0  0  0  0  0  0  0
    1.2668   -9.2014    1.3904 H   0  0  0  0  0  0  0  0  0  0  0  0
   -0.0012   -8.1606    0.6337 H   0  0  0  0  0  0  0  0  0  0  0  0
   -1.7130   -9.8051    1.1450 H   0  0  0  0  0  0  0  0  0  0  0  0
   -0.4990   -9.8250    3.6210 H   0  0  0  0  0  0  0  0  0  0  0  0
    0.5337  -11.3947    2.4896 H   0  0  0  0  0  0  0  0  0  0  0  0
   -1.2229  -11.8173    2.4606 H   0  0  0  0  0  0  0  0  0  0  0  0
    0.1640  -13.0787    0.7802 H   0  0  0  0  0  0  0  0  0  0  0  0
   -1.1785  -12.1087    0.0646 H   0  0  0  0  0  0  0  0  0  0  0  0
    0.7239  -13.9914   -0.4821 H   0  0  0  0  0  0  0  0  0  0  0  0
    1.8774  -15.3512   -2.1990 H   0  0  0  0  0  0  0  0  0  0  0  0
    8.0838  -16.2042   -7.6332 H   0  0  0  0  0  0  0  0  0  0  0  0
    8.7797  -15.6277   -9.9487 H   0  0  0  0  0  0  0  0  0  0  0  0
  1  2  1  0
  2  3  2  0
  2  4  2  0
  2  5  1  0
  5  6  1  0
  6  7  2  0
  7  8  1  0
  8  9  2  0
  9 10  1  0
 10 11  2  0
 11 12  1  0
 12 13  2  0
 13 14  1  0
 14 15  1  0
 15 16  1  0
 16 17  2  0
 17 18  1  0
 18 19  2  0
 19 20  1  0
 20 21  1  0
 21 22  1  0
 22 23  1  0
 23 24  1  0
 23 25  1  0
 25 26  1  0
 19 27  1  0
 27 28  2  0
 14 29  2  0
  9 30  1  0
 30 31  2  0
 31  6  1  0
 29 10  1  0
 28 16  1  0
 26 20  1  0
  1 32  1  0
  1 33  1  0
  1 34  1  0
  5 35  1  0
  7 36  1  0
  8 37  1  0
 11 38  1  0
 12 39  1  0
 15 40  1  0
 17 41  1  0
 18 42  1  0
 21 43  1  0
 21 44  1  0
 22 45  1  0
 22 46  1  0
 23 47  1  0
 24 48  1  0
 25 49  1  0
 25 50  1  0
 26 51  1  0
 26 52  1  0
 27 53  1  0
 28 54  1  0
 30 55  1  0
 31 56  1  0
M  END
>  <meeko>  (7) 
{"is_sidechain": [false], "free_energy": -7.107, "intermolecular_energy": -9.977, "internal_energy": -0.798}

$$$$
LIB_SNCROWOTWGUING__M_PUB_ALL__e8__s20260927
     RDKit          3D

 56 59  0  0  0  0  0  0  0  0999 V2000
   -3.2220  -18.0880    3.1950 C   0  0  0  0  0  0  0  0  0  0  0  0
   -1.6970  -17.3040    2.7030 S   0  0  0  0  0  0  0  0  0  0  0  0
   -0.9800  -18.2430    1.8650 O   0  0  0  0  0  0  0  0  0  0  0  0
   -1.0780  -16.7200    3.8710 O   0  0  0  0  0  0  0  0  0  0  0  0
   -2.2290  -16.0930    1.6640 N   0  0  0  0  0  0  0  0  0  0  0  0
   -1.3900  -15.6070    0.6220 C   0  0  0  0  0  0  0  0  0  0  0  0
   -0.3690  -14.7180    0.9520 C   0  0  0  0  0  0  0  0  0  0  0  0
    0.4790  -14.2150   -0.0430 C   0  0  0  0  0  0  0  0  0  0  0  0
    0.3190  -14.5790   -1.3910 C   0  0  0  0  0  0  0  0  0  0  0  0
    1.2050  -14.0620   -2.4550 C   0  0  0  0  0  0  0  0  0  0  0  0
    1.0870  -14.4390   -3.7760 C   0  0  0  0  0  0  0  0  0  0  0  0
    1.9820  -13.8690   -4.6450 C   0  0  0  0  0  0  0  0  0  0  0  0
    2.9270  -12.9930   -4.2670 N   0  0  0  0  0  0  0  0  0  0  0  0
    2.9880  -12.6760   -2.9670 C   0  0  0  0  0  0  0  0  0  0  0  0
    3.9280  -11.7810   -2.4650 N   0  0  0  0  0  0  0  0  0  0  0  0
    5.2820  -11.8720   -2.1350 C   0  0  0  0  0  0  0  0  0  0  0  0
    6.3240  -11.7310   -3.0510 C   0  0  0  0  0  0  0  0  0  0  0  0
    7.6670  -11.8340   -2.6530 C   0  0  0  0  0  0  0  0  0  0  0  0
    8.0270  -12.0740   -1.3220 C   0  0  0  0  0  0  0  0  0  0  0  0
    9.3530  -12.1810   -0.9060 N   0  0  0  0  0  0  0  0  0  0  0  0
    9.6550  -12.2250    0.5270 C   0  0  0  0  0  0  0  0  0  0  0  0
   11.0900  -11.7800    0.7830 C   0  0  0  0  0  0  0  0  0  0  0  0
   12.0670  -12.5790   -0.0700 C   0  0  0  0  0  0  0  0  0  0  0  0
   13.3950  -12.1000    0.1270 O   0  0  0  0  0  0  0  0  0  0  0  0
   11.7130  -12.4450   -1.5450 C   0  0  0  0  0  0  0  0  0  0  0  0
   10.2780  -12.8870   -1.8020 C   0  0  0  0  0  0  0  0  0  0  0  0
    6.9780  -12.2210   -0.4090 C   0  0  0  0  0  0  0  0  0  0  0  0
    5.6360  -12.1220   -0.8040 C   0  0  0  0  0  0  0  0  0  0  0  0
    2.1540  -13.1880   -2.0490 N   0  0  0  0  0  0  0  0  0  0  0  0
   -0.7260  -15.4680   -1.6980 C   0  0  0  0  0  0  0  0  0  0  0  0
   -1.5770  -15.9700   -0.7070 C   0  0  0  0  0  0  0  0  0  0  0  0
   -3.2811  -18.1184    4.2930 H   0  0  0  0  0  0  0  0  0  0  0  0
   -4.0733  -17.5158    2.7977 H   0  0  0  0  0  0  0  0  0  0  0  0
   -3.2520  -19.1133    2.7977 H   0  0  0  0  0  0  0  0  0  0  0  0
   -2.8360  -15.4240    2.1350 H   0  0  0  0  0  0  0  0  0  0  0  0
   -0.2283  -14.4098    1.9985 H   0  0  0  0  0  0  0  0  0  0  0  0
    1.2859  -13.5215    0.2362 H   0  0  0  0  0  0  0  0  0  0  0  0
    0.3214  -15.1536   -4.1125 H   0  0  0  0  0  0  0  0  0  0  0  0
    1.9225  -14.1441   -5.7084 H   0  0  0  0  0  0  0  0  0  0  0  0
    3.4820  -10.8870   -2.3240 H   0  0  0  0  0  0  0  0  0  0  0  0
    6.0891  -11.5350   -4.1076 H   0  0  0  0  0  0  0  0  0  0  0  0
    8.4584  -11.7229   -3.4089 H   0  0  0  0  0  0  0  0  0  0  0  0
    8.9669  -11.5547    1.0629 H   0  0  0  0  0  0  0  0  0  0  0  0
    9.5331  -13.2579    0.8851 H   0  0  0  0  0  0  0  0  0  0  0  0
   11.1856  -10.7124    0.5357 H   0  0  0  0  0  0  0  0  0  0  0  0
   11.3274  -11.9514    1.8433 H   0  0  0  0  0  0  0  0  0  0  0  0
   12.0026  -13.6350    0.2311 H   0  0  0  0  0  0  0  0  0  0  0  0
   13.6470  -11.5880   -0.6600 H   0  0  0  0  0  0  0  0  0  0  0  0
   11.8258  -11.3937   -1.8484 H   0  0  0  0  0  0  0  0  0  0  0  0
   12.3886  -13.0879   -2.1284 H   0  0  0  0  0  0  0  0  0  0  0  0
   10.0120  -12.6635   -2.8457 H   0  0  0  0  0  0  0  0  0  0  0  0
   10.1999  -13.9679   -1.6133 H   0  0  0  0  0  0  0  0  0  0  0  0
    7.2117  -12.4196    0.6474 H   0  0  0  0  0  0  0  0  0  0  0  0
    4.8436  -12.2436   -0.0508 H   0  0  0  0  0  0  0  0  0  0  0  0
   -0.8784  -15.7765   -2.7428 H   0  0  0  0  0  0  0  0  0  0  0  0
   -2.3951  -16.6528   -0.9799 H   0  0  0  0  0  0  0  0  0  0  0  0
  1  2  1  0
  2  3  2  0
  2  4  2  0
  2  5  1  0
  5  6  1  0
  6  7  2  0
  7  8  1  0
  8  9  2  0
  9 10  1  0
 10 11  2  0
 11 12  1  0
 12 13  2  0
 13 14  1  0
 14 15  1  0
 15 16  1  0
 16 17  2  0
 17 18  1  0
 18 19  2  0
 19 20  1  0
 20 21  1  0
 21 22  1  0
 22 23  1  0
 23 24  1  0
 23 25  1  0
 25 26  1  0
 19 27  1  0
 27 28  2  0
 14 29  2  0
  9 30  1  0
 30 31  2  0
 31  6  1  0
 29 10  1  0
 28 16  1  0
 26 20  1  0
  1 32  1  0
  1 33  1  0
  1 34  1  0
  5 35  1  0
  7 36  1  0
  8 37  1  0
 11 38  1  0
 12 39  1  0
 15 40  1  0
 17 41  1  0
 18 42  1  0
 21 43  1  0
 21 44  1  0
 22 45  1  0
 22 46  1  0
 23 47  1  0
 24 48  1  0
 25 49  1  0
 25 50  1  0
 26 51  1  0
 26 52  1  0
 27 53  1  0
 28 54  1  0
 30 55  1  0
 31 56  1  0
M  END
>  <meeko>  (8) 
{"is_sidechain": [false], "free_energy": -7.034, "intermolecular_energy": -9.737, "internal_energy": -0.938}

$$$$
LIB_SNCROWOTWGUING__M_PUB_ALL__e8__s20260927
     RDKit          3D

 56 59  0  0  0  0  0  0  0  0999 V2000
   13.1240  -16.0540   -7.7630 C   0  0  0  0  0  0  0  0  0  0  0  0
   14.3060  -15.2830   -6.6720 S   0  0  0  0  0  0  0  0  0  0  0  0
   15.4770  -14.9620   -7.4610 O   0  0  0  0  0  0  0  0  0  0  0  0
   14.4110  -16.0760   -5.4680 O   0  0  0  0  0  0  0  0  0  0  0  0
   13.5780  -13.8060   -6.3290 N   0  0  0  0  0  0  0  0  0  0  0  0
   13.0160  -13.5520   -5.0470 C   0  0  0  0  0  0  0  0  0  0  0  0
   13.7380  -12.7660   -4.1500 C   0  0  0  0  0  0  0  0  0  0  0  0
   13.2220  -12.4910   -2.8770 C   0  0  0  0  0  0  0  0  0  0  0  0
   11.9790  -13.0060   -2.4660 C   0  0  0  0  0  0  0  0  0  0  0  0
   11.4170  -12.7260   -1.1290 C   0  0  0  0  0  0  0  0  0  0  0  0
   12.1330  -12.9000    0.0350 C   0  0  0  0  0  0  0  0  0  0  0  0
   11.4720  -12.5940    1.1980 C   0  0  0  0  0  0  0  0  0  0  0  0
   10.2060  -12.1500    1.2360 N   0  0  0  0  0  0  0  0  0  0  0  0
    9.5670  -12.0100    0.0670 C   0  0  0  0  0  0  0  0  0  0  0  0
    8.2530  -11.5590   -0.0110 N   0  0  0  0  0  0  0  0  0  0  0  0
    7.0290  -12.1670   -0.3010 C   0  0  0  0  0  0  0  0  0  0  0  0
    6.4870  -13.2240    0.4280 C   0  0  0  0  0  0  0  0  0  0  0  0
    5.2490  -13.7910    0.0840 C   0  0  0  0  0  0  0  0  0  0  0  0
    4.4960  -13.3200   -0.9970 C   0  0  0  0  0  0  0  0  0  0  0  0
    3.2660  -13.8680   -1.3580 N   0  0  0  0  0  0  0  0  0  0  0  0
    3.0800  -14.3900   -2.7140 C   0  0  0  0  0  0  0  0  0  0  0  0
    1.6010  -14.4080   -3.0810 C   0  0  0  0  0  0  0  0  0  0  0  0
    0.7890  -15.1500   -2.0280 C   0  0  0  0  0  0  0  0  0  0  0  0
   -0.5980  -15.0930   -2.3490 O   0  0  0  0  0  0  0  0  0  0  0  0
    1.0000  -14.5200   -0.6570 C   0  0  0  0  0  0  0  0  0  0  0  0
    2.4780  -14.4990   -0.2900 C   0  0  0  0  0  0  0  0  0  0  0  0
    5.0480  -12.2640   -1.7290 C   0  0  0  0  0  0  0  0  0  0  0  0
    6.2850  -11.6970   -1.3900 C   0  0  0  0  0  0  0  0  0  0  0  0
   10.1370  -12.2880   -1.1160 N   0  0  0  0  0  0  0  0  0  0  0  0
   11.2780  -13.8060   -3.3860 C   0  0  0  0  0  0  0  0  0  0  0  0
   11.7920  -14.0840   -4.6580 C   0  0  0  0  0  0  0  0  0  0  0  0
   12.3498  -16.5590   -7.1668 H   0  0  0  0  0  0  0  0  0  0  0  0
   12.6560  -15.2870   -8.3975 H   0  0  0  0  0  0  0  0  0  0  0  0
   13.6374  -16.7915   -8.3975 H   0  0  0  0  0  0  0  0  0  0  0  0
   13.1010  -13.4170   -7.1420 H   0  0  0  0  0  0  0  0  0  0  0  0
   14.7173  -12.3599   -4.4432 H   0  0  0  0  0  0  0  0  0  0  0  0
   13.7998  -11.8602   -2.1854 H   0  0  0  0  0  0  0  0  0  0  0  0
   13.1716  -13.2623    0.0323 H   0  0  0  0  0  0  0  0  0  0  0  0
   12.0085  -12.7193    2.1501 H   0  0  0  0  0  0  0  0  0  0  0  0
    8.2360  -10.5700    0.1910 H   0  0  0  0  0  0  0  0  0  0  0  0
    7.0405  -13.6226    1.2910 H   0  0  0  0  0  0  0  0  0  0  0  0
    4.8605  -14.6290    0.6813 H   0  0  0  0  0  0  0  0  0  0  0  0
    3.6218  -13.7498   -3.4258 H   0  0  0  0  0  0  0  0  0  0  0  0
    3.4694  -15.4179   -2.7559 H   0  0  0  0  0  0  0  0  0  0  0  0
    1.2355  -13.3731   -3.1544 H   0  0  0  0  0  0  0  0  0  0  0  0
    1.4842  -14.9259   -4.0444 H   0  0  0  0  0  0  0  0  0  0  0  0
    1.1249  -16.1973   -2.0092 H   0  0  0  0  0  0  0  0  0  0  0  0
   -0.7310  -14.3550   -2.9670 H   0  0  0  0  0  0  0  0  0  0  0  0
    0.6180  -13.4886   -0.6720 H   0  0  0  0  0  0  0  0  0  0  0  0
    0.4605  -15.1188    0.0916 H   0  0  0  0  0  0  0  0  0  0  0  0
    2.6112  -13.9303    0.6421 H   0  0  0  0  0  0  0  0  0  0  0  0
    2.8255  -15.5341   -0.1564 H   0  0  0  0  0  0  0  0  0  0  0  0
    4.4968  -11.8673   -2.5943 H   0  0  0  0  0  0  0  0  0  0  0  0
    6.6792  -10.8653   -1.9925 H   0  0  0  0  0  0  0  0  0  0  0  0
   10.3017  -14.2236   -3.0989 H   0  0  0  0  0  0  0  0  0  0  0  0
   11.2265  -14.7244   -5.3509 H   0  0  0  0  0  0  0  0  0  0  0  0
  1  2  1  0
  2  3  2  0
  2  4  2  0
  2  5  1  0
  5  6  1  0
  6  7  2  0
  7  8  1  0
  8  9  2  0
  9 10  1  0
 10 11  2  0
 11 12  1  0
 12 13  2  0
 13 14  1  0
 14 15  1  0
 15 16  1  0
 16 17  2  0
 17 18  1  0
 18 19  2  0
 19 20  1  0
 20 21  1  0
 21 22  1  0
 22 23  1  0
 23 24  1  0
 23 25  1  0
 25 26  1  0
 19 27  1  0
 27 28  2  0
 14 29  2  0
  9 30  1  0
 30 31  2  0
 31  6  1  0
 29 10  1  0
 28 16  1  0
 26 20  1  0
  1 32  1  0
  1 33  1  0
  1 34  1  0
  5 35  1  0
  7 36  1  0
  8 37  1  0
 11 38  1  0
 12 39  1  0
 15 40  1  0
 17 41  1  0
 18 42  1  0
 21 43  1  0
 21 44  1  0
 22 45  1  0
 22 46  1  0
 23 47  1  0
 24 48  1  0
 25 49  1  0
 25 50  1  0
 26 51  1  0
 26 52  1  0
 27 53  1  0
 28 54  1  0
 30 55  1  0
 31 56  1  0
M  END
>  <meeko>  (9) 
{"is_sidechain": [false], "free_energy": -7.001, "intermolecular_energy": -9.716, "internal_energy": -0.914}

$$$$
