LIB_XIRVGXCPGRAYMH__M_PUB_ALL__e8__s20260927
     RDKit          3D

 54 58  0  0  0  0  0  0  0  0999 V2000
    2.5060  -16.3630   -1.3830 C   0  0  0  0  0  0  0  0  0  0  0  0
    3.3480  -15.5820   -0.5090 N   0  0  0  0  0  0  0  0  0  0  0  0
    3.5460  -15.8610    0.8140 C   0  0  0  0  0  0  0  0  0  0  0  0
    4.4140  -15.0420    1.3570 N   0  0  0  0  0  0  0  0  0  0  0  0
    4.7720  -14.1690    0.3510 C   0  0  0  0  0  0  0  0  0  0  0  0
    5.7300  -13.0980    0.5820 C   0  0  0  0  0  0  0  0  0  0  0  0
    5.3520  -11.8640    1.1180 C   0  0  0  0  0  0  0  0  0  0  0  0
    6.3040  -10.8630    1.3110 C   0  0  0  0  0  0  0  0  0  0  0  0
    7.6450  -11.0910    0.9860 C   0  0  0  0  0  0  0  0  0  0  0  0
    8.0480  -12.3240    0.4740 C   0  0  0  0  0  0  0  0  0  0  0  0
    9.3800  -12.6490    0.1440 N   0  0  0  0  0  0  0  0  0  0  0  0
   10.0090  -12.5150   -1.0840 C   0  0  0  0  0  0  0  0  0  0  0  0
    9.4660  -12.1470   -2.1170 O   0  0  0  0  0  0  0  0  0  0  0  0
   11.3460  -12.8640   -0.9840 N   0  0  0  0  0  0  0  0  0  0  0  0
   12.3120  -12.9110   -2.0130 C   0  0  0  0  0  0  0  0  0  0  0  0
   12.4700  -13.9720   -2.9080 C   0  0  0  0  0  0  0  0  0  0  0  0
   13.4660  -13.9330   -3.9030 C   0  0  0  0  0  0  0  0  0  0  0  0
   13.6050  -15.0880   -4.8700 C   0  0  0  0  0  0  0  0  0  0  0  0
   14.5590  -14.8750   -5.8160 F   0  0  0  0  0  0  0  0  0  0  0  0
   12.4560  -15.3510   -5.5560 F   0  0  0  0  0  0  0  0  0  0  0  0
   13.9390  -16.2500   -4.2460 F   0  0  0  0  0  0  0  0  0  0  0  0
   14.3010  -12.8080   -3.9990 C   0  0  0  0  0  0  0  0  0  0  0  0
   14.1530  -11.7460   -3.1080 C   0  0  0  0  0  0  0  0  0  0  0  0
   13.1670  -11.8080   -2.1290 C   0  0  0  0  0  0  0  0  0  0  0  0
   13.0350  -10.7790   -1.2760 F   0  0  0  0  0  0  0  0  0  0  0  0
    7.0830  -13.3240    0.2820 C   0  0  0  0  0  0  0  0  0  0  0  0
    4.1360  -14.4980   -0.8410 C   0  0  0  0  0  0  0  0  0  0  0  0
    4.2630  -13.9410   -2.1580 C   0  0  0  0  0  0  0  0  0  0  0  0
    3.8620  -12.6810   -2.5580 C   0  0  0  0  0  0  0  0  0  0  0  0
    4.0990  -12.4340   -3.9520 C   0  0  0  0  0  0  0  0  0  0  0  0
    3.8620  -11.3330   -4.7900 C   0  0  0  0  0  0  0  0  0  0  0  0
    3.2810  -10.1630   -4.3650 N   0  0  0  0  0  0  0  0  0  0  0  0
    4.2140  -11.4070   -6.0870 N   0  0  0  0  0  0  0  0  0  0  0  0
    4.7740  -12.5430   -6.5340 C   0  0  0  0  0  0  0  0  0  0  0  0
    5.0430  -13.6520   -5.8390 N   0  0  0  0  0  0  0  0  0  0  0  0
    4.6790  -13.5390   -4.5510 C   0  0  0  0  0  0  0  0  0  0  0  0
    4.9100  -14.8320   -3.4670 S   0  0  0  0  0  0  0  0  0  0  0  0
    1.8316  -16.9885   -0.7798 H   0  0  0  0  0  0  0  0  0  0  0  0
    1.9115  -15.6894   -2.0177 H   0  0  0  0  0  0  0  0  0  0  0  0
    3.1331  -17.0064   -2.0177 H   0  0  0  0  0  0  0  0  0  0  0  0
    3.0395  -16.6728    1.3566 H   0  0  0  0  0  0  0  0  0  0  0  0
    4.3014  -11.6817    1.3883 H   0  0  0  0  0  0  0  0  0  0  0  0
    5.9984   -9.8891    1.7210 H   0  0  0  0  0  0  0  0  0  0  0  0
    8.3867  -10.2925    1.1352 H   0  0  0  0  0  0  0  0  0  0  0  0
    9.9260  -13.0540    0.8900 H   0  0  0  0  0  0  0  0  0  0  0  0
   11.7020  -13.0830   -0.0630 H   0  0  0  0  0  0  0  0  0  0  0  0
   11.8088  -14.8481   -2.8347 H   0  0  0  0  0  0  0  0  0  0  0  0
   15.0745  -12.7646   -4.7799 H   0  0  0  0  0  0  0  0  0  0  0  0
   14.8102  -10.8668   -3.1786 H   0  0  0  0  0  0  0  0  0  0  0  0
    7.3921  -14.3038   -0.1110 H   0  0  0  0  0  0  0  0  0  0  0  0
    3.4084  -11.9439   -1.8791 H   0  0  0  0  0  0  0  0  0  0  0  0
    3.2080  -10.0330   -3.3660 H   0  0  0  0  0  0  0  0  0  0  0  0
    3.0080   -9.4340   -5.0010 H   0  0  0  0  0  0  0  0  0  0  0  0
    5.0435  -12.5628   -7.6003 H   0  0  0  0  0  0  0  0  0  0  0  0
  1  2  1  0
  2  3  1  0
  3  4  2  0
  4  5  1  0
  5  6  1  0
  6  7  2  0
  7  8  1  0
  8  9  2  0
  9 10  1  0
 10 11  1  0
 11 12  1  0
 12 13  2  0
 12 14  1  0
 14 15  1  0
 15 16  2  0
 16 17  1  0
 17 18  1  0
 18 19  1  0
 18 20  1  0
 18 21  1  0
 17 22  2  0
 22 23  1  0
 23 24  2  0
 24 25  1  0
 10 26  2  0
  5 27  2  0
 27 28  1  0
 28 29  2  0
 29 30  1  0
 30 31  2  0
 31 32  1  0
 31 33  1  0
 33 34  2  0
 34 35  1  0
 35 36  2  0
 36 37  1  0
 27  2  1  0
 37 28  1  0
 26  6  1  0
 36 30  1  0
 24 15  1  0
  1 38  1  0
  1 39  1  0
  1 40  1  0
  3 41  1  0
  7 42  1  0
  8 43  1  0
  9 44  1  0
 11 45  1  0
 14 46  1  0
 16 47  1  0
 22 48  1  0
 23 49  1  0
 26 50  1  0
 29 51  1  0
 32 52  1  0
 32 53  1  0
 34 54  1  0
M  END
>  <meeko>  (1) 
{"is_sidechain": [false], "free_energy": -8.987, "intermolecular_energy": -11.877, "internal_energy": -1.438}

$$$$
LIB_XIRVGXCPGRAYMH__M_PUB_ALL__e8__s20260927
     RDKit          3D

 54 58  0  0  0  0  0  0  0  0999 V2000
    3.3300  -14.4570    2.3780 C   0  0  0  0  0  0  0  0  0  0  0  0
    2.8430  -13.8400    1.1670 N   0  0  0  0  0  0  0  0  0  0  0  0
    1.5210  -13.7390    0.8380 C   0  0  0  0  0  0  0  0  0  0  0  0
    1.3490  -13.0690   -0.2760 N   0  0  0  0  0  0  0  0  0  0  0  0
    2.6180  -12.7480   -0.7090 C   0  0  0  0  0  0  0  0  0  0  0  0
    2.8330  -11.9950   -1.9360 C   0  0  0  0  0  0  0  0  0  0  0  0
    2.0510  -10.8870   -2.2740 C   0  0  0  0  0  0  0  0  0  0  0  0
    2.2860  -10.2020   -3.4670 C   0  0  0  0  0  0  0  0  0  0  0  0
    3.3120  -10.6100   -4.3250 C   0  0  0  0  0  0  0  0  0  0  0  0
    4.1200  -11.6980   -3.9940 C   0  0  0  0  0  0  0  0  0  0  0  0
    5.1920  -12.1600   -4.7860 N   0  0  0  0  0  0  0  0  0  0  0  0
    5.1260  -12.8480   -5.9870 C   0  0  0  0  0  0  0  0  0  0  0  0
    4.0960  -13.2300   -6.5250 O   0  0  0  0  0  0  0  0  0  0  0  0
    6.3980  -13.0530   -6.4980 N   0  0  0  0  0  0  0  0  0  0  0  0
    6.7630  -13.7510   -7.6690 C   0  0  0  0  0  0  0  0  0  0  0  0
    6.7850  -13.1960   -8.9510 C   0  0  0  0  0  0  0  0  0  0  0  0
    7.1600  -13.9720  -10.0660 C   0  0  0  0  0  0  0  0  0  0  0  0
    7.1920  -13.3420  -11.4410 C   0  0  0  0  0  0  0  0  0  0  0  0
    8.4380  -13.3280  -11.9880 F   0  0  0  0  0  0  0  0  0  0  0  0
    6.7720  -12.0440  -11.4430 F   0  0  0  0  0  0  0  0  0  0  0  0
    6.3930  -13.9930  -12.3290 F   0  0  0  0  0  0  0  0  0  0  0  0
    7.5240  -15.3150   -9.8800 C   0  0  0  0  0  0  0  0  0  0  0  0
    7.5020  -15.8780   -8.6050 C   0  0  0  0  0  0  0  0  0  0  0  0
    7.1220  -15.0960   -7.5190 C   0  0  0  0  0  0  0  0  0  0  0  0
    7.1030  -15.6510   -6.2960 F   0  0  0  0  0  0  0  0  0  0  0  0
    3.8760  -12.3800   -2.7940 C   0  0  0  0  0  0  0  0  0  0  0  0
    3.5780  -13.1980    0.1910 C   0  0  0  0  0  0  0  0  0  0  0  0
    5.0030  -13.0230    0.2110 C   0  0  0  0  0  0  0  0  0  0  0  0
    5.9400  -13.8600   -0.3640 C   0  0  0  0  0  0  0  0  0  0  0  0
    7.2890  -13.4260   -0.1420 C   0  0  0  0  0  0  0  0  0  0  0  0
    8.5420  -13.9370   -0.5180 C   0  0  0  0  0  0  0  0  0  0  0  0
    8.7060  -15.0910   -1.2440 N   0  0  0  0  0  0  0  0  0  0  0  0
    9.6570  -13.2770   -0.1550 N   0  0  0  0  0  0  0  0  0  0  0  0
    9.5280  -12.1510    0.5650 C   0  0  0  0  0  0  0  0  0  0  0  0
    8.3990  -11.5730    0.9850 N   0  0  0  0  0  0  0  0  0  0  0  0
    7.3100  -12.2590    0.6020 C   0  0  0  0  0  0  0  0  0  0  0  0
    5.7510  -11.7220    1.0310 S   0  0  0  0  0  0  0  0  0  0  0  0
    2.9147  -13.9309    3.2502 H   0  0  0  0  0  0  0  0  0  0  0  0
    3.0182  -15.5116    2.4032 H   0  0  0  0  0  0  0  0  0  0  0  0
    4.4282  -14.3987    2.4032 H   0  0  0  0  0  0  0  0  0  0  0  0
    0.7016  -14.1670    1.4342 H   0  0  0  0  0  0  0  0  0  0  0  0
    1.2490  -10.5543   -1.5986 H   0  0  0  0  0  0  0  0  0  0  0  0
    1.6611   -9.3369   -3.7337 H   0  0  0  0  0  0  0  0  0  0  0  0
    3.4832  -10.0693   -5.2675 H   0  0  0  0  0  0  0  0  0  0  0  0
    6.1130  -11.9900   -4.4110 H   0  0  0  0  0  0  0  0  0  0  0  0
    7.1710  -12.6280   -6.0040 H   0  0  0  0  0  0  0  0  0  0  0  0
    6.5064  -12.1412   -9.0916 H   0  0  0  0  0  0  0  0  0  0  0  0
    7.8276  -15.9252  -10.7434 H   0  0  0  0  0  0  0  0  0  0  0  0
    7.7827  -16.9315   -8.4588 H   0  0  0  0  0  0  0  0  0  0  0  0
    4.5137  -13.2331   -2.5190 H   0  0  0  0  0  0  0  0  0  0  0  0
    5.6787  -14.7647   -0.9326 H   0  0  0  0  0  0  0  0  0  0  0  0
    9.5880  -15.2000   -1.7250 H   0  0  0  0  0  0  0  0  0  0  0  0
    8.0250  -15.8310   -1.2450 H   0  0  0  0  0  0  0  0  0  0  0  0
   10.4638  -11.6437    0.8422 H   0  0  0  0  0  0  0  0  0  0  0  0
  1  2  1  0
  2  3  1  0
  3  4  2  0
  4  5  1  0
  5  6  1  0
  6  7  2  0
  7  8  1  0
  8  9  2  0
  9 10  1  0
 10 11  1  0
 11 12  1  0
 12 13  2  0
 12 14  1  0
 14 15  1  0
 15 16  2  0
 16 17  1  0
 17 18  1  0
 18 19  1  0
 18 20  1  0
 18 21  1  0
 17 22  2  0
 22 23  1  0
 23 24  2  0
 24 25  1  0
 10 26  2  0
  5 27  2  0
 27 28  1  0
 28 29  2  0
 29 30  1  0
 30 31  2  0
 31 32  1  0
 31 33  1  0
 33 34  2  0
 34 35  1  0
 35 36  2  0
 36 37  1  0
 27  2  1  0
 37 28  1  0
 26  6  1  0
 36 30  1  0
 24 15  1  0
  1 38  1  0
  1 39  1  0
  1 40  1  0
  3 41  1  0
  7 42  1  0
  8 43  1  0
  9 44  1  0
 11 45  1  0
 14 46  1  0
 16 47  1  0
 22 48  1  0
 23 49  1  0
 26 50  1  0
 29 51  1  0
 32 52  1  0
 32 53  1  0
 34 54  1  0
M  END
>  <meeko>  (2) 
{"is_sidechain": [false], "free_energy": -8.976, "intermolecular_energy": -11.998, "internal_energy": -1.303}

$$$$
LIB_XIRVGXCPGRAYMH__M_PUB_ALL__e8__s20260927
     RDKit          3D

 54 58  0  0  0  0  0  0  0  0999 V2000
    3.0260  -11.0840   -5.0680 C   0  0  0  0  0  0  0  0  0  0  0  0
    3.1980  -11.4730   -3.6890 N   0  0  0  0  0  0  0  0  0  0  0  0
    2.4420  -10.9900   -2.6580 C   0  0  0  0  0  0  0  0  0  0  0  0
    2.7540  -11.5630   -1.5200 N   0  0  0  0  0  0  0  0  0  0  0  0
    3.7820  -12.4330   -1.8180 C   0  0  0  0  0  0  0  0  0  0  0  0
    4.4000  -13.2560   -0.7890 C   0  0  0  0  0  0  0  0  0  0  0  0
    3.6730  -14.1930   -0.0500 C   0  0  0  0  0  0  0  0  0  0  0  0
    4.3070  -14.9520    0.9350 C   0  0  0  0  0  0  0  0  0  0  0  0
    5.6740  -14.7920    1.1800 C   0  0  0  0  0  0  0  0  0  0  0  0
    6.4220  -13.8790    0.4370 C   0  0  0  0  0  0  0  0  0  0  0  0
    7.8080  -13.6720    0.6000 N   0  0  0  0  0  0  0  0  0  0  0  0
    8.6570  -12.9300   -0.2070 C   0  0  0  0  0  0  0  0  0  0  0  0
    8.3350  -12.3820   -1.2530 O   0  0  0  0  0  0  0  0  0  0  0  0
    9.9330  -12.9000    0.3320 N   0  0  0  0  0  0  0  0  0  0  0  0
   11.0900  -12.2950   -0.2060 C   0  0  0  0  0  0  0  0  0  0  0  0
   11.6890  -12.6600   -1.4140 C   0  0  0  0  0  0  0  0  0  0  0  0
   12.8480  -12.0020   -1.8730 C   0  0  0  0  0  0  0  0  0  0  0  0
   13.4660  -12.4050   -3.1920 C   0  0  0  0  0  0  0  0  0  0  0  0
   12.6350  -12.2020   -4.2510 F   0  0  0  0  0  0  0  0  0  0  0  0
   13.8110  -13.7230   -3.2400 F   0  0  0  0  0  0  0  0  0  0  0  0
   14.6060  -11.7130   -3.4650 F   0  0  0  0  0  0  0  0  0  0  0  0
   13.3970  -10.9610   -1.1070 C   0  0  0  0  0  0  0  0  0  0  0  0
   12.8090  -10.5930    0.1020 C   0  0  0  0  0  0  0  0  0  0  0  0
   11.6690  -11.2600    0.5380 C   0  0  0  0  0  0  0  0  0  0  0  0
   11.1120  -10.8970    1.7050 F   0  0  0  0  0  0  0  0  0  0  0  0
    5.7770  -13.1210   -0.5500 C   0  0  0  0  0  0  0  0  0  0  0  0
    4.0670  -12.4170   -3.1780 C   0  0  0  0  0  0  0  0  0  0  0  0
    4.9800  -13.2060   -3.9560 C   0  0  0  0  0  0  0  0  0  0  0  0
    4.7880  -14.5090   -4.3740 C   0  0  0  0  0  0  0  0  0  0  0  0
    5.9040  -15.0300   -5.1110 C   0  0  0  0  0  0  0  0  0  0  0  0
    6.1650  -16.2700   -5.7170 C   0  0  0  0  0  0  0  0  0  0  0  0
    5.2900  -17.3280   -5.6930 N   0  0  0  0  0  0  0  0  0  0  0  0
    7.3330  -16.4540   -6.3600 N   0  0  0  0  0  0  0  0  0  0  0  0
    8.2130  -15.4400   -6.3900 C   0  0  0  0  0  0  0  0  0  0  0  0
    8.0810  -14.2240   -5.8490 N   0  0  0  0  0  0  0  0  0  0  0  0
    6.9040  -14.0790   -5.2190 C   0  0  0  0  0  0  0  0  0  0  0  0
    6.5110  -12.6170   -4.4390 S   0  0  0  0  0  0  0  0  0  0  0  0
    2.5815  -10.0788   -5.1127 H   0  0  0  0  0  0  0  0  0  0  0  0
    4.0041  -11.0751   -5.5712 H   0  0  0  0  0  0  0  0  0  0  0  0
    2.3612  -11.8016   -5.5712 H   0  0  0  0  0  0  0  0  0  0  0  0
    1.6677  -10.2165   -2.7687 H   0  0  0  0  0  0  0  0  0  0  0  0
    2.5994  -14.3327   -0.2448 H   0  0  0  0  0  0  0  0  0  0  0  0
    3.7278  -15.6801    1.5218 H   0  0  0  0  0  0  0  0  0  0  0  0
    6.1626  -15.3898    1.9635 H   0  0  0  0  0  0  0  0  0  0  0  0
    8.2300  -14.1480    1.3830 H   0  0  0  0  0  0  0  0  0  0  0  0
   10.0660  -13.3270    1.2380 H   0  0  0  0  0  0  0  0  0  0  0  0
   11.2509  -13.4709   -2.0144 H   0  0  0  0  0  0  0  0  0  0  0  0
   14.2946  -10.4339   -1.4625 H   0  0  0  0  0  0  0  0  0  0  0  0
   13.2427   -9.7823    0.7059 H   0  0  0  0  0  0  0  0  0  0  0  0
    6.3609  -12.4066   -1.1489 H   0  0  0  0  0  0  0  0  0  0  0  0
    3.8756  -15.0864   -4.1640 H   0  0  0  0  0  0  0  0  0  0  0  0
    4.7740  -17.4680   -4.8360 H   0  0  0  0  0  0  0  0  0  0  0  0
    5.1070  -17.8960   -6.5030 H   0  0  0  0  0  0  0  0  0  0  0  0
    9.1554  -15.6327   -6.9235 H   0  0  0  0  0  0  0  0  0  0  0  0
  1  2  1  0
  2  3  1  0
  3  4  2  0
  4  5  1  0
  5  6  1  0
  6  7  2  0
  7  8  1  0
  8  9  2  0
  9 10  1  0
 10 11  1  0
 11 12  1  0
 12 13  2  0
 12 14  1  0
 14 15  1  0
 15 16  2  0
 16 17  1  0
 17 18  1  0
 18 19  1  0
 18 20  1  0
 18 21  1  0
 17 22  2  0
 22 23  1  0
 23 24  2  0
 24 25  1  0
 10 26  2  0
  5 27  2  0
 27 28  1  0
 28 29  2  0
 29 30  1  0
 30 31  2  0
 31 32  1  0
 31 33  1  0
 33 34  2  0
 34 35  1  0
 35 36  2  0
 36 37  1  0
 27  2  1  0
 37 28  1  0
 26  6  1  0
 36 30  1  0
 24 15  1  0
  1 38  1  0
  1 39  1  0
  1 40  1  0
  3 41  1  0
  7 42  1  0
  8 43  1  0
  9 44  1  0
 11 45  1  0
 14 46  1  0
 16 47  1  0
 22 48  1  0
 23 49  1  0
 26 50  1  0
 29 51  1  0
 32 52  1  0
 32 53  1  0
 34 54  1  0
M  END
>  <meeko>  (3) 
{"is_sidechain": [false], "free_energy": -8.831, "intermolecular_energy": -12.063, "internal_energy": -1.046}

$$$$
LIB_XIRVGXCPGRAYMH__M_PUB_ALL__e8__s20260927
     RDKit          3D

 54 58  0  0  0  0  0  0  0  0999 V2000
    2.4010  -14.8280    2.8020 C   0  0  0  0  0  0  0  0  0  0  0  0
    2.9920  -14.1470    1.6750 N   0  0  0  0  0  0  0  0  0  0  0  0
    4.3320  -14.1300    1.4090 C   0  0  0  0  0  0  0  0  0  0  0  0
    4.5950  -13.5050    0.2860 N   0  0  0  0  0  0  0  0  0  0  0  0
    3.3740  -13.0670   -0.1820 C   0  0  0  0  0  0  0  0  0  0  0  0
    3.2640  -12.3180   -1.4250 C   0  0  0  0  0  0  0  0  0  0  0  0
    2.2410  -11.3920   -1.6470 C   0  0  0  0  0  0  0  0  0  0  0  0
    2.1690  -10.7050   -2.8600 C   0  0  0  0  0  0  0  0  0  0  0  0
    3.1260  -10.9270   -3.8550 C   0  0  0  0  0  0  0  0  0  0  0  0
    4.1690  -11.8280   -3.6440 C   0  0  0  0  0  0  0  0  0  0  0  0
    5.1900  -12.0930   -4.5800 N   0  0  0  0  0  0  0  0  0  0  0  0
    5.1370  -12.9350   -5.6800 C   0  0  0  0  0  0  0  0  0  0  0  0
    4.1890  -13.6500   -5.9750 O   0  0  0  0  0  0  0  0  0  0  0  0
    6.3170  -12.8620   -6.4030 N   0  0  0  0  0  0  0  0  0  0  0  0
    6.6790  -13.5940   -7.5550 C   0  0  0  0  0  0  0  0  0  0  0  0
    6.6950  -13.0770   -8.8520 C   0  0  0  0  0  0  0  0  0  0  0  0
    7.0670  -13.8850   -9.9460 C   0  0  0  0  0  0  0  0  0  0  0  0
    7.0930  -13.2960  -11.3380 C   0  0  0  0  0  0  0  0  0  0  0  0
    6.2750  -13.9520  -12.2060 F   0  0  0  0  0  0  0  0  0  0  0  0
    8.3320  -13.3220  -11.9060 F   0  0  0  0  0  0  0  0  0  0  0  0
    6.7020  -11.9930  -11.3580 F   0  0  0  0  0  0  0  0  0  0  0  0
    7.4340  -15.2220   -9.7210 C   0  0  0  0  0  0  0  0  0  0  0  0
    7.4170  -15.7470   -8.4300 C   0  0  0  0  0  0  0  0  0  0  0  0
    7.0410  -14.9330   -7.3660 C   0  0  0  0  0  0  0  0  0  0  0  0
    7.0270  -15.4510   -6.1270 F   0  0  0  0  0  0  0  0  0  0  0  0
    4.2320  -12.5140   -2.4230 C   0  0  0  0  0  0  0  0  0  0  0  0
    2.3440  -13.4770    0.6580 C   0  0  0  0  0  0  0  0  0  0  0  0
    0.9200  -13.3370    0.5350 C   0  0  0  0  0  0  0  0  0  0  0  0
    0.1440  -12.3380    1.0910 C   0  0  0  0  0  0  0  0  0  0  0  0
   -1.2550  -12.4960    0.8110 C   0  0  0  0  0  0  0  0  0  0  0  0
   -2.3970  -11.7550    1.1550 C   0  0  0  0  0  0  0  0  0  0  0  0
   -2.3640  -10.6170    1.9230 N   0  0  0  0  0  0  0  0  0  0  0  0
   -3.6030  -12.1670    0.7200 N   0  0  0  0  0  0  0  0  0  0  0  0
   -3.6680  -13.2830   -0.0240 C   0  0  0  0  0  0  0  0  0  0  0  0
   -2.6580  -14.0700   -0.4090 N   0  0  0  0  0  0  0  0  0  0  0  0
   -1.4740  -13.6260    0.0420 C   0  0  0  0  0  0  0  0  0  0  0  0
   -0.0390  -14.4730   -0.3100 S   0  0  0  0  0  0  0  0  0  0  0  0
    2.7816  -14.3894    3.7362 H   0  0  0  0  0  0  0  0  0  0  0  0
    1.3071  -14.7181    2.7644 H   0  0  0  0  0  0  0  0  0  0  0  0
    2.6638  -15.8955    2.7644 H   0  0  0  0  0  0  0  0  0  0  0  0
    5.0962  -14.5844    2.0567 H   0  0  0  0  0  0  0  0  0  0  0  0
    1.4912  -11.2042   -0.8644 H   0  0  0  0  0  0  0  0  0  0  0  0
    1.3554   -9.9854   -3.0340 H   0  0  0  0  0  0  0  0  0  0  0  0
    3.0555  -10.3871   -4.8108 H   0  0  0  0  0  0  0  0  0  0  0  0
    6.0700  -11.6330   -4.4040 H   0  0  0  0  0  0  0  0  0  0  0  0
    7.0030  -12.1810   -6.1060 H   0  0  0  0  0  0  0  0  0  0  0  0
    6.4141  -12.0272   -9.0222 H   0  0  0  0  0  0  0  0  0  0  0  0
    7.7360  -15.8571  -10.5669 H   0  0  0  0  0  0  0  0  0  0  0  0
    7.6984  -16.7957   -8.2538 H   0  0  0  0  0  0  0  0  0  0  0  0
    5.0562  -13.2199   -2.2432 H   0  0  0  0  0  0  0  0  0  0  0  0
    0.5551  -11.5089    1.6856 H   0  0  0  0  0  0  0  0  0  0  0  0
   -1.7190   -9.8950    1.6330 H   0  0  0  0  0  0  0  0  0  0  0  0
   -2.9950  -10.4660    2.6910 H   0  0  0  0  0  0  0  0  0  0  0  0
   -4.6719  -13.5858   -0.3563 H   0  0  0  0  0  0  0  0  0  0  0  0
  1  2  1  0
  2  3  1  0
  3  4  2  0
  4  5  1  0
  5  6  1  0
  6  7  2  0
  7  8  1  0
  8  9  2  0
  9 10  1  0
 10 11  1  0
 11 12  1  0
 12 13  2  0
 12 14  1  0
 14 15  1  0
 15 16  2  0
 16 17  1  0
 17 18  1  0
 18 19  1  0
 18 20  1  0
 18 21  1  0
 17 22  2  0
 22 23  1  0
 23 24  2  0
 24 25  1  0
 10 26  2  0
  5 27  2  0
 27 28  1  0
 28 29  2  0
 29 30  1  0
 30 31  2  0
 31 32  1  0
 31 33  1  0
 33 34  2  0
 34 35  1  0
 35 36  2  0
 36 37  1  0
 27  2  1  0
 37 28  1  0
 26  6  1  0
 36 30  1  0
 24 15  1  0
  1 38  1  0
  1 39  1  0
  1 40  1  0
  3 41  1  0
  7 42  1  0
  8 43  1  0
  9 44  1  0
 11 45  1  0
 14 46  1  0
 16 47  1  0
 22 48  1  0
 23 49  1  0
 26 50  1  0
 29 51  1  0
 32 52  1  0
 32 53  1  0
 34 54  1  0
M  END
>  <meeko>  (4) 
{"is_sidechain": [false], "free_energy": -8.826, "intermolecular_energy": -12.057, "internal_energy": -1.045}

$$$$
LIB_XIRVGXCPGRAYMH__M_PUB_ALL__e8__s20260927
     RDKit          3D

 54 58  0  0  0  0  0  0  0  0999 V2000
   -0.5810  -12.0540    1.7610 C   0  0  0  0  0  0  0  0  0  0  0  0
    0.1830  -11.6180    0.6170 N   0  0  0  0  0  0  0  0  0  0  0  0
    0.1440  -10.3510    0.1080 C   0  0  0  0  0  0  0  0  0  0  0  0
    0.9890  -10.2010   -0.8830 N   0  0  0  0  0  0  0  0  0  0  0  0
    1.5820  -11.4350   -1.0480 C   0  0  0  0  0  0  0  0  0  0  0  0
    2.5890  -11.6610   -2.0740 C   0  0  0  0  0  0  0  0  0  0  0  0
    2.3450  -11.4040   -3.4260 C   0  0  0  0  0  0  0  0  0  0  0  0
    3.3380  -11.6460   -4.3760 C   0  0  0  0  0  0  0  0  0  0  0  0
    4.5880  -12.1330   -3.9820 C   0  0  0  0  0  0  0  0  0  0  0  0
    4.8610  -12.3720   -2.6360 C   0  0  0  0  0  0  0  0  0  0  0  0
    6.1000  -12.8380   -2.1480 N   0  0  0  0  0  0  0  0  0  0  0  0
    7.2690  -12.1140   -1.9690 C   0  0  0  0  0  0  0  0  0  0  0  0
    7.4260  -10.9410   -2.2800 O   0  0  0  0  0  0  0  0  0  0  0  0
    8.2450  -12.9080   -1.3900 N   0  0  0  0  0  0  0  0  0  0  0  0
    9.5820  -12.5640   -1.0910 C   0  0  0  0  0  0  0  0  0  0  0  0
   10.6260  -12.5510   -2.0180 C   0  0  0  0  0  0  0  0  0  0  0  0
   11.9330  -12.1970   -1.6270 C   0  0  0  0  0  0  0  0  0  0  0  0
   13.0430  -12.1760   -2.6540 C   0  0  0  0  0  0  0  0  0  0  0  0
   14.0970  -11.4010   -2.2800 F   0  0  0  0  0  0  0  0  0  0  0  0
   12.6400  -11.6940   -3.8650 F   0  0  0  0  0  0  0  0  0  0  0  0
   13.5490  -13.4150   -2.8980 F   0  0  0  0  0  0  0  0  0  0  0  0
   12.1800  -11.8430   -0.2910 C   0  0  0  0  0  0  0  0  0  0  0  0
   11.1450  -11.8550    0.6420 C   0  0  0  0  0  0  0  0  0  0  0  0
    9.8640  -12.2150    0.2350 C   0  0  0  0  0  0  0  0  0  0  0  0
    8.8750  -12.2240    1.1440 F   0  0  0  0  0  0  0  0  0  0  0  0
    3.8570  -12.1270   -1.6890 C   0  0  0  0  0  0  0  0  0  0  0  0
    1.1130  -12.3410   -0.1030 C   0  0  0  0  0  0  0  0  0  0  0  0
    1.4980  -13.6970    0.1700 C   0  0  0  0  0  0  0  0  0  0  0  0
    0.9110  -14.8360   -0.3490 C   0  0  0  0  0  0  0  0  0  0  0  0
    1.5060  -16.0450    0.1430 C   0  0  0  0  0  0  0  0  0  0  0  0
    1.2550  -17.4070   -0.0880 C   0  0  0  0  0  0  0  0  0  0  0  0
    0.2660  -17.8690   -0.9210 N   0  0  0  0  0  0  0  0  0  0  0  0
    2.0130  -18.3300    0.5340 N   0  0  0  0  0  0  0  0  0  0  0  0
    2.9810  -17.9090    1.3640 C   0  0  0  0  0  0  0  0  0  0  0  0
    3.3090  -16.6490    1.6660 N   0  0  0  0  0  0  0  0  0  0  0  0
    2.5330  -15.7590    1.0260 C   0  0  0  0  0  0  0  0  0  0  0  0
    2.7540  -14.0870    1.2620 S   0  0  0  0  0  0  0  0  0  0  0  0
   -0.0611  -11.7573    2.6838 H   0  0  0  0  0  0  0  0  0  0  0  0
   -1.5773  -11.5885    1.7356 H   0  0  0  0  0  0  0  0  0  0  0  0
   -0.6870  -13.1486    1.7356 H   0  0  0  0  0  0  0  0  0  0  0  0
   -0.5153   -9.5545    0.4835 H   0  0  0  0  0  0  0  0  0  0  0  0
    1.3678  -11.0100   -3.7419 H   0  0  0  0  0  0  0  0  0  0  0  0
    3.1364  -11.4527   -5.4400 H   0  0  0  0  0  0  0  0  0  0  0  0
    5.3613  -12.3289   -4.7393 H   0  0  0  0  0  0  0  0  0  0  0  0
    6.1400  -13.8230   -1.9350 H   0  0  0  0  0  0  0  0  0  0  0  0
    7.9800  -13.8420   -1.1090 H   0  0  0  0  0  0  0  0  0  0  0  0
   10.4261  -12.8202   -3.0657 H   0  0  0  0  0  0  0  0  0  0  0  0
   13.1949  -11.5549    0.0206 H   0  0  0  0  0  0  0  0  0  0  0  0
   11.3388  -11.5826    1.6900 H   0  0  0  0  0  0  0  0  0  0  0  0
    4.0662  -12.3031   -0.6235 H   0  0  0  0  0  0  0  0  0  0  0  0
    0.0754  -14.8172   -1.0641 H   0  0  0  0  0  0  0  0  0  0  0  0
    0.5680  -18.3530   -1.7550 H   0  0  0  0  0  0  0  0  0  0  0  0
   -0.7100  -17.8020   -0.6890 H   0  0  0  0  0  0  0  0  0  0  0  0
    3.5748  -18.6948    1.8538 H   0  0  0  0  0  0  0  0  0  0  0  0
  1  2  1  0
  2  3  1  0
  3  4  2  0
  4  5  1  0
  5  6  1  0
  6  7  2  0
  7  8  1  0
  8  9  2  0
  9 10  1  0
 10 11  1  0
 11 12  1  0
 12 13  2  0
 12 14  1  0
 14 15  1  0
 15 16  2  0
 16 17  1  0
 17 18  1  0
 18 19  1  0
 18 20  1  0
 18 21  1  0
 17 22  2  0
 22 23  1  0
 23 24  2  0
 24 25  1  0
 10 26  2  0
  5 27  2  0
 27 28  1  0
 28 29  2  0
 29 30  1  0
 30 31  2  0
 31 32  1  0
 31 33  1  0
 33 34  2  0
 34 35  1  0
 35 36  2  0
 36 37  1  0
 27  2  1  0
 37 28  1  0
 26  6  1  0
 36 30  1  0
 24 15  1  0
  1 38  1  0
  1 39  1  0
  1 40  1  0
  3 41  1  0
  7 42  1  0
  8 43  1  0
  9 44  1  0
 11 45  1  0
 14 46  1  0
 16 47  1  0
 22 48  1  0
 23 49  1  0
 26 50  1  0
 29 51  1  0
 32 52  1  0
 32 53  1  0
 34 54  1  0
M  END
>  <meeko>  (5) 
{"is_sidechain": [false], "free_energy": -8.706, "intermolecular_energy": -11.593, "internal_energy": -1.35}

$$$$
LIB_XIRVGXCPGRAYMH__M_PUB_ALL__e8__s20260927
     RDKit          3D

 54 58  0  0  0  0  0  0  0  0999 V2000
    0.3080  -15.5590    0.0070 C   0  0  0  0  0  0  0  0  0  0  0  0
   -0.2960  -16.1870    1.1580 N   0  0  0  0  0  0  0  0  0  0  0  0
   -0.1770  -17.5150    1.4550 C   0  0  0  0  0  0  0  0  0  0  0  0
   -0.7580  -17.8100    2.5930 N   0  0  0  0  0  0  0  0  0  0  0  0
   -1.3090  -16.6270    3.0400 C   0  0  0  0  0  0  0  0  0  0  0  0
   -2.0480  -16.5610    4.2920 C   0  0  0  0  0  0  0  0  0  0  0  0
   -1.4100  -16.4010    5.5250 C   0  0  0  0  0  0  0  0  0  0  0  0
   -2.1600  -16.3540    6.7010 C   0  0  0  0  0  0  0  0  0  0  0  0
   -3.5540  -16.4530    6.6540 C   0  0  0  0  0  0  0  0  0  0  0  0
   -4.2120  -16.5880    5.4320 C   0  0  0  0  0  0  0  0  0  0  0  0
   -5.6130  -16.6670    5.2900 N   0  0  0  0  0  0  0  0  0  0  0  0
   -6.5540  -16.9250    6.2750 C   0  0  0  0  0  0  0  0  0  0  0  0
   -6.2980  -17.1990    7.4400 O   0  0  0  0  0  0  0  0  0  0  0  0
   -7.8350  -16.8370    5.7550 N   0  0  0  0  0  0  0  0  0  0  0  0
   -9.0600  -17.0770    6.4150 C   0  0  0  0  0  0  0  0  0  0  0  0
   -9.7180  -16.1520    7.2290 C   0  0  0  0  0  0  0  0  0  0  0  0
  -10.9380  -16.4800    7.8530 C   0  0  0  0  0  0  0  0  0  0  0  0
  -11.6380  -15.4540    8.7160 C   0  0  0  0  0  0  0  0  0  0  0  0
  -12.0040  -15.9450    9.9310 F   0  0  0  0  0  0  0  0  0  0  0  0
  -12.7830  -14.9720    8.1510 F   0  0  0  0  0  0  0  0  0  0  0  0
  -10.8600  -14.3650    8.9630 F   0  0  0  0  0  0  0  0  0  0  0  0
  -11.5000  -17.7490    7.6420 C   0  0  0  0  0  0  0  0  0  0  0  0
  -10.8490  -18.6800    6.8340 C   0  0  0  0  0  0  0  0  0  0  0  0
   -9.6420  -18.3360    6.2330 C   0  0  0  0  0  0  0  0  0  0  0  0
   -9.0240  -19.2430    5.4580 F   0  0  0  0  0  0  0  0  0  0  0  0
   -3.4500  -16.6350    4.2560 C   0  0  0  0  0  0  0  0  0  0  0  0
   -1.0140  -15.5830    2.1710 C   0  0  0  0  0  0  0  0  0  0  0  0
   -1.2920  -14.1770    2.2620 C   0  0  0  0  0  0  0  0  0  0  0  0
   -2.0510  -13.4320    1.3800 C   0  0  0  0  0  0  0  0  0  0  0  0
   -2.1150  -12.0430    1.7320 C   0  0  0  0  0  0  0  0  0  0  0  0
   -2.7450  -10.9290    1.1540 C   0  0  0  0  0  0  0  0  0  0  0  0
   -3.4920  -10.9890    0.0030 N   0  0  0  0  0  0  0  0  0  0  0  0
   -2.6220   -9.7250    1.7430 N   0  0  0  0  0  0  0  0  0  0  0  0
   -1.8890   -9.6330    2.8640 C   0  0  0  0  0  0  0  0  0  0  0  0
   -1.2410  -10.6140    3.5020 N   0  0  0  0  0  0  0  0  0  0  0  0
   -1.3890  -11.7980    2.8860 C   0  0  0  0  0  0  0  0  0  0  0  0
   -0.6440  -13.1980    3.5050 S   0  0  0  0  0  0  0  0  0  0  0  0
    1.0346  -14.8035    0.3406 H   0  0  0  0  0  0  0  0  0  0  0  0
    0.8221  -16.3201   -0.5983 H   0  0  0  0  0  0  0  0  0  0  0  0
   -0.4725  -15.0749   -0.5983 H   0  0  0  0  0  0  0  0  0  0  0  0
    0.3420  -18.2465    0.8183 H   0  0  0  0  0  0  0  0  0  0  0  0
   -0.3145  -16.3119    5.5687 H   0  0  0  0  0  0  0  0  0  0  0  0
   -1.6520  -16.2385    7.6698 H   0  0  0  0  0  0  0  0  0  0  0  0
   -4.1355  -16.4242    7.5873 H   0  0  0  0  0  0  0  0  0  0  0  0
   -5.9610  -16.5500    4.3500 H   0  0  0  0  0  0  0  0  0  0  0  0
   -7.9280  -16.5320    4.7950 H   0  0  0  0  0  0  0  0  0  0  0  0
   -9.2785  -15.1557    7.3847 H   0  0  0  0  0  0  0  0  0  0  0  0
  -12.4577  -18.0098    8.1161 H   0  0  0  0  0  0  0  0  0  0  0  0
  -11.2852  -19.6769    6.6731 H   0  0  0  0  0  0  0  0  0  0  0  0
   -3.9602  -16.7317    3.2863 H   0  0  0  0  0  0  0  0  0  0  0  0
   -2.5536  -13.8594    0.4999 H   0  0  0  0  0  0  0  0  0  0  0  0
   -3.9320  -10.1300   -0.2950 H   0  0  0  0  0  0  0  0  0  0  0  0
   -3.5440  -11.8180   -0.5640 H   0  0  0  0  0  0  0  0  0  0  0  0
   -1.8121   -8.6310    3.3114 H   0  0  0  0  0  0  0  0  0  0  0  0
  1  2  1  0
  2  3  1  0
  3  4  2  0
  4  5  1  0
  5  6  1  0
  6  7  2  0
  7  8  1  0
  8  9  2  0
  9 10  1  0
 10 11  1  0
 11 12  1  0
 12 13  2  0
 12 14  1  0
 14 15  1  0
 15 16  2  0
 16 17  1  0
 17 18  1  0
 18 19  1  0
 18 20  1  0
 18 21  1  0
 17 22  2  0
 22 23  1  0
 23 24  2  0
 24 25  1  0
 10 26  2  0
  5 27  2  0
 27 28  1  0
 28 29  2  0
 29 30  1  0
 30 31  2  0
 31 32  1  0
 31 33  1  0
 33 34  2  0
 34 35  1  0
 35 36  2  0
 36 37  1  0
 27  2  1  0
 37 28  1  0
 26  6  1  0
 36 30  1  0
 24 15  1  0
  1 38  1  0
  1 39  1  0
  1 40  1  0
  3 41  1  0
  7 42  1  0
  8 43  1  0
  9 44  1  0
 11 45  1  0
 14 46  1  0
 16 47  1  0
 22 48  1  0
 23 49  1  0
 26 50  1  0
 29 51  1  0
 32 52  1  0
 32 53  1  0
 34 54  1  0
M  END
>  <meeko>  (6) 
{"is_sidechain": [false], "free_energy": -8.657, "intermolecular_energy": -12.045, "internal_energy": -0.833}

$$$$
LIB_XIRVGXCPGRAYMH__M_PUB_ALL__e8__s20260927
     RDKit          3D

 54 58  0  0  0  0  0  0  0  0999 V2000
    0.3960  -11.6780    0.7320 C   0  0  0  0  0  0  0  0  0  0  0  0
    1.0450  -11.5370   -0.5490 N   0  0  0  0  0  0  0  0  0  0  0  0
    1.0490  -10.3840   -1.2820 C   0  0  0  0  0  0  0  0  0  0  0  0
    1.7730  -10.5040   -2.3690 N   0  0  0  0  0  0  0  0  0  0  0  0
    2.2330  -11.8040   -2.3600 C   0  0  0  0  0  0  0  0  0  0  0  0
    3.0810  -12.3150   -3.4270 C   0  0  0  0  0  0  0  0  0  0  0  0
    2.5690  -13.0730   -4.4850 C   0  0  0  0  0  0  0  0  0  0  0  0
    3.4220  -13.5510   -5.4800 C   0  0  0  0  0  0  0  0  0  0  0  0
    4.7900  -13.2650   -5.4360 C   0  0  0  0  0  0  0  0  0  0  0  0
    5.3170  -12.4900   -4.4030 C   0  0  0  0  0  0  0  0  0  0  0  0
    6.6760  -12.1320   -4.2940 N   0  0  0  0  0  0  0  0  0  0  0  0
    7.6850  -12.8120   -3.6280 C   0  0  0  0  0  0  0  0  0  0  0  0
    7.5280  -13.8230   -2.9570 O   0  0  0  0  0  0  0  0  0  0  0  0
    8.9030  -12.1830   -3.8230 N   0  0  0  0  0  0  0  0  0  0  0  0
   10.1590  -12.5310   -3.2780 C   0  0  0  0  0  0  0  0  0  0  0  0
   10.5970  -12.1750   -2.0010 C   0  0  0  0  0  0  0  0  0  0  0  0
   11.8710  -12.5640   -1.5410 C   0  0  0  0  0  0  0  0  0  0  0  0
   12.3150  -12.1790   -0.1480 C   0  0  0  0  0  0  0  0  0  0  0  0
   11.3570  -11.5060    0.5460 F   0  0  0  0  0  0  0  0  0  0  0  0
   13.4140  -11.3700   -0.1410 F   0  0  0  0  0  0  0  0  0  0  0  0
   12.6460  -13.2600    0.6100 F   0  0  0  0  0  0  0  0  0  0  0  0
   12.7010  -13.3290   -2.3770 C   0  0  0  0  0  0  0  0  0  0  0  0
   12.2730  -13.6870   -3.6540 C   0  0  0  0  0  0  0  0  0  0  0  0
   11.0140  -13.2860   -4.0900 C   0  0  0  0  0  0  0  0  0  0  0  0
   10.6140  -13.6360   -5.3230 F   0  0  0  0  0  0  0  0  0  0  0  0
    4.4520  -12.0150   -3.4070 C   0  0  0  0  0  0  0  0  0  0  0  0
    1.8120  -12.4720   -1.2160 C   0  0  0  0  0  0  0  0  0  0  0  0
    2.1120  -13.7910   -0.7330 C   0  0  0  0  0  0  0  0  0  0  0  0
    1.3380  -14.9220   -0.9070 C   0  0  0  0  0  0  0  0  0  0  0  0
    1.8970  -16.0840   -0.2760 C   0  0  0  0  0  0  0  0  0  0  0  0
    1.4830  -17.4220   -0.1790 C   0  0  0  0  0  0  0  0  0  0  0  0
    0.3210  -17.9020   -0.7320 N   0  0  0  0  0  0  0  0  0  0  0  0
    2.2510  -18.3010    0.4910 N   0  0  0  0  0  0  0  0  0  0  0  0
    3.3880  -17.8590    1.0520 C   0  0  0  0  0  0  0  0  0  0  0  0
    3.8810  -16.6160    1.0330 N   0  0  0  0  0  0  0  0  0  0  0  0
    3.0890  -15.7710    0.3540 C   0  0  0  0  0  0  0  0  0  0  0  0
    3.5030  -14.1260    0.2030 S   0  0  0  0  0  0  0  0  0  0  0  0
    1.1308  -11.5184    1.5349 H   0  0  0  0  0  0  0  0  0  0  0  0
   -0.4095  -10.9339    0.8188 H   0  0  0  0  0  0  0  0  0  0  0  0
   -0.0281  -12.6892    0.8188 H   0  0  0  0  0  0  0  0  0  0  0  0
    0.5113   -9.4680   -0.9958 H   0  0  0  0  0  0  0  0  0  0  0  0
    1.4922  -13.2926   -4.5326 H   0  0  0  0  0  0  0  0  0  0  0  0
    3.0161  -14.1564   -6.3039 H   0  0  0  0  0  0  0  0  0  0  0  0
    5.4550  -13.6538   -6.2213 H   0  0  0  0  0  0  0  0  0  0  0  0
    6.9320  -11.2590   -4.7310 H   0  0  0  0  0  0  0  0  0  0  0  0
    8.9250  -11.3960   -4.4570 H   0  0  0  0  0  0  0  0  0  0  0  0
    9.9399  -11.5839   -1.3462 H   0  0  0  0  0  0  0  0  0  0  0  0
   13.6926  -13.6467   -2.0224 H   0  0  0  0  0  0  0  0  0  0  0  0
   12.9247  -14.2813   -4.3114 H   0  0  0  0  0  0  0  0  0  0  0  0
    4.8560  -11.3946   -2.5934 H   0  0  0  0  0  0  0  0  0  0  0  0
    0.3929  -14.9312   -1.4698 H   0  0  0  0  0  0  0  0  0  0  0  0
   -0.5420  -17.6140   -0.2910 H   0  0  0  0  0  0  0  0  0  0  0  0
    0.3100  -18.4500   -1.5750 H   0  0  0  0  0  0  0  0  0  0  0  0
    3.9852  -18.6088    1.5916 H   0  0  0  0  0  0  0  0  0  0  0  0
  1  2  1  0
  2  3  1  0
  3  4  2  0
  4  5  1  0
  5  6  1  0
  6  7  2  0
  7  8  1  0
  8  9  2  0
  9 10  1  0
 10 11  1  0
 11 12  1  0
 12 13  2  0
 12 14  1  0
 14 15  1  0
 15 16  2  0
 16 17  1  0
 17 18  1  0
 18 19  1  0
 18 20  1  0
 18 21  1  0
 17 22  2  0
 22 23  1  0
 23 24  2  0
 24 25  1  0
 10 26  2  0
  5 27  2  0
 27 28  1  0
 28 29  2  0
 29 30  1  0
 30 31  2  0
 31 32  1  0
 31 33  1  0
 33 34  2  0
 34 35  1  0
 35 36  2  0
 36 37  1  0
 27  2  1  0
 37 28  1  0
 26  6  1  0
 36 30  1  0
 24 15  1  0
  1 38  1  0
  1 39  1  0
  1 40  1  0
  3 41  1  0
  7 42  1  0
  8 43  1  0
  9 44  1  0
 11 45  1  0
 14 46  1  0
 16 47  1  0
 22 48  1  0
 23 49  1  0
 26 50  1  0
 29 51  1  0
 32 52  1  0
 32 53  1  0
 34 54  1  0
M  END
>  <meeko>  (7) 
{"is_sidechain": [false], "free_energy": -8.64, "intermolecular_energy": -11.357, "internal_energy": -1.499}

$$$$
LIB_XIRVGXCPGRAYMH__M_PUB_ALL__e8__s20260927
     RDKit          3D

 54 58  0  0  0  0  0  0  0  0999 V2000
    0.5730  -14.5250   -4.7800 C   0  0  0  0  0  0  0  0  0  0  0  0
    1.6700  -14.0080   -3.9980 N   0  0  0  0  0  0  0  0  0  0  0  0
    2.6490  -13.1960   -4.4960 C   0  0  0  0  0  0  0  0  0  0  0  0
    3.4810  -12.8090   -3.5590 N   0  0  0  0  0  0  0  0  0  0  0  0
    3.0420  -13.4230   -2.4050 C   0  0  0  0  0  0  0  0  0  0  0  0
    3.7290  -13.2300   -1.1360 C   0  0  0  0  0  0  0  0  0  0  0  0
    3.0450  -12.9060    0.0380 C   0  0  0  0  0  0  0  0  0  0  0  0
    3.7470  -12.7190    1.2290 C   0  0  0  0  0  0  0  0  0  0  0  0
    5.1370  -12.8700    1.2610 C   0  0  0  0  0  0  0  0  0  0  0  0
    5.8360  -13.2180    0.1060 C   0  0  0  0  0  0  0  0  0  0  0  0
    7.2310  -13.4160    0.0530 N   0  0  0  0  0  0  0  0  0  0  0  0
    8.2080  -12.4970   -0.2960 C   0  0  0  0  0  0  0  0  0  0  0  0
    7.9950  -11.3580   -0.6900 O   0  0  0  0  0  0  0  0  0  0  0  0
    9.4700  -13.0490   -0.1450 N   0  0  0  0  0  0  0  0  0  0  0  0
   10.7180  -12.4600   -0.4400 C   0  0  0  0  0  0  0  0  0  0  0  0
   11.4470  -12.6860   -1.6100 C   0  0  0  0  0  0  0  0  0  0  0  0
   12.6910  -12.0560   -1.8190 C   0  0  0  0  0  0  0  0  0  0  0  0
   13.4520  -12.3060   -3.1010 C   0  0  0  0  0  0  0  0  0  0  0  0
   13.8120  -13.6090   -3.2590 F   0  0  0  0  0  0  0  0  0  0  0  0
   14.6090  -11.5890   -3.1840 F   0  0  0  0  0  0  0  0  0  0  0  0
   12.7300  -11.9740   -4.2060 F   0  0  0  0  0  0  0  0  0  0  0  0
   13.1930  -11.1830   -0.8400 C   0  0  0  0  0  0  0  0  0  0  0  0
   12.4740  -10.9540    0.3320 C   0  0  0  0  0  0  0  0  0  0  0  0
   11.2520  -11.5910    0.5190 C   0  0  0  0  0  0  0  0  0  0  0  0
   10.5700  -11.3630    1.6530 F   0  0  0  0  0  0  0  0  0  0  0  0
    5.1220  -13.4030   -1.0860 C   0  0  0  0  0  0  0  0  0  0  0  0
    1.8910  -14.1650   -2.6440 C   0  0  0  0  0  0  0  0  0  0  0  0
    1.0380  -14.8920   -1.7460 C   0  0  0  0  0  0  0  0  0  0  0  0
   -0.2330  -14.5260   -1.3460 C   0  0  0  0  0  0  0  0  0  0  0  0
   -0.8140  -15.4510   -0.4150 C   0  0  0  0  0  0  0  0  0  0  0  0
   -2.0480  -15.5000    0.2540 C   0  0  0  0  0  0  0  0  0  0  0  0
   -3.0250  -14.5440    0.1190 N   0  0  0  0  0  0  0  0  0  0  0  0
   -2.3070  -16.5300    1.0790 N   0  0  0  0  0  0  0  0  0  0  0  0
   -1.3660  -17.4750    1.2390 C   0  0  0  0  0  0  0  0  0  0  0  0
   -0.1600  -17.5340    0.6660 N   0  0  0  0  0  0  0  0  0  0  0  0
    0.0610  -16.4910   -0.1500 C   0  0  0  0  0  0  0  0  0  0  0  0
    1.5370  -16.3400   -0.9860 S   0  0  0  0  0  0  0  0  0  0  0  0
   -0.2141  -14.8960   -4.1071 H   0  0  0  0  0  0  0  0  0  0  0  0
    0.1656  -13.7241   -5.4145 H   0  0  0  0  0  0  0  0  0  0  0  0
    0.9313  -15.3490   -5.4145 H   0  0  0  0  0  0  0  0  0  0  0  0
    2.7296  -12.9027   -5.5531 H   0  0  0  0  0  0  0  0  0  0  0  0
    1.9504  -12.7981    0.0234 H   0  0  0  0  0  0  0  0  0  0  0  0
    3.2044  -12.4514    2.1477 H   0  0  0  0  0  0  0  0  0  0  0  0
    5.6822  -12.7132    2.2034 H   0  0  0  0  0  0  0  0  0  0  0  0
    7.5460  -14.3500    0.2690 H   0  0  0  0  0  0  0  0  0  0  0  0
    9.5270  -13.9750    0.2570 H   0  0  0  0  0  0  0  0  0  0  0  0
   11.0456  -13.3638   -2.3777 H   0  0  0  0  0  0  0  0  0  0  0  0
   14.1573  -10.6780   -0.9987 H   0  0  0  0  0  0  0  0  0  0  0  0
   12.8697  -10.2755    1.1021 H   0  0  0  0  0  0  0  0  0  0  0  0
    5.6631  -13.6892   -1.9999 H   0  0  0  0  0  0  0  0  0  0  0  0
   -0.7456  -13.6208   -1.7035 H   0  0  0  0  0  0  0  0  0  0  0  0
   -2.9020  -13.6950    0.6530 H   0  0  0  0  0  0  0  0  0  0  0  0
   -3.7880  -14.6390   -0.5290 H   0  0  0  0  0  0  0  0  0  0  0  0
   -1.6180  -18.2986    1.9232 H   0  0  0  0  0  0  0  0  0  0  0  0
  1  2  1  0
  2  3  1  0
  3  4  2  0
  4  5  1  0
  5  6  1  0
  6  7  2  0
  7  8  1  0
  8  9  2  0
  9 10  1  0
 10 11  1  0
 11 12  1  0
 12 13  2  0
 12 14  1  0
 14 15  1  0
 15 16  2  0
 16 17  1  0
 17 18  1  0
 18 19  1  0
 18 20  1  0
 18 21  1  0
 17 22  2  0
 22 23  1  0
 23 24  2  0
 24 25  1  0
 10 26  2  0
  5 27  2  0
 27 28  1  0
 28 29  2  0
 29 30  1  0
 30 31  2  0
 31 32  1  0
 31 33  1  0
 33 34  2  0
 34 35  1  0
 35 36  2  0
 36 37  1  0
 27  2  1  0
 37 28  1  0
 26  6  1  0
 36 30  1  0
 24 15  1  0
  1 38  1  0
  1 39  1  0
  1 40  1  0
  3 41  1  0
  7 42  1  0
  8 43  1  0
  9 44  1  0
 11 45  1  0
 14 46  1  0
 16 47  1  0
 22 48  1  0
 23 49  1  0
 26 50  1  0
 29 51  1  0
 32 52  1  0
 32 53  1  0
 34 54  1  0
M  END
>  <meeko>  (8) 
{"is_sidechain": [false], "free_energy": -8.603, "intermolecular_energy": -11.687, "internal_energy": -1.121}

$$$$
LIB_XIRVGXCPGRAYMH__M_PUB_ALL__e8__s20260927
     RDKit          3D

 54 58  0  0  0  0  0  0  0  0999 V2000
    3.1120  -15.8110    1.1790 C   0  0  0  0  0  0  0  0  0  0  0  0
    2.6650  -15.0680    0.0260 N   0  0  0  0  0  0  0  0  0  0  0  0
    1.4190  -15.1830   -0.5230 C   0  0  0  0  0  0  0  0  0  0  0  0
    1.2470  -14.3420   -1.5150 N   0  0  0  0  0  0  0  0  0  0  0  0
    2.4460  -13.6730   -1.6380 C   0  0  0  0  0  0  0  0  0  0  0  0
    2.6400  -12.6460   -2.6520 C   0  0  0  0  0  0  0  0  0  0  0  0
    2.3240  -11.3040   -2.4210 C   0  0  0  0  0  0  0  0  0  0  0  0
    2.5170  -10.3570   -3.4270 C   0  0  0  0  0  0  0  0  0  0  0  0
    3.0390  -10.7390   -4.6670 C   0  0  0  0  0  0  0  0  0  0  0  0
    3.3840  -12.0680   -4.9090 C   0  0  0  0  0  0  0  0  0  0  0  0
    3.9410  -12.5350   -6.1170 N   0  0  0  0  0  0  0  0  0  0  0  0
    5.2820  -12.6210   -6.4590 C   0  0  0  0  0  0  0  0  0  0  0  0
    6.2110  -12.2290   -5.7670 O   0  0  0  0  0  0  0  0  0  0  0  0
    5.4270  -13.2110   -7.7040 N   0  0  0  0  0  0  0  0  0  0  0  0
    6.6190  -13.4350   -8.4270 C   0  0  0  0  0  0  0  0  0  0  0  0
    7.0600  -12.6500   -9.4950 C   0  0  0  0  0  0  0  0  0  0  0  0
    8.2650  -12.9510  -10.1620 C   0  0  0  0  0  0  0  0  0  0  0  0
    8.7270  -12.0760  -11.3050 C   0  0  0  0  0  0  0  0  0  0  0  0
    9.9670  -11.5520  -11.1030 F   0  0  0  0  0  0  0  0  0  0  0  0
    7.9060  -11.0100  -11.5280 F   0  0  0  0  0  0  0  0  0  0  0  0
    8.7870  -12.7520  -12.4850 F   0  0  0  0  0  0  0  0  0  0  0  0
    9.0320  -14.0470   -9.7360 C   0  0  0  0  0  0  0  0  0  0  0  0
    8.5990  -14.8370   -8.6730 C   0  0  0  0  0  0  0  0  0  0  0  0
    7.4040  -14.5260   -8.0330 C   0  0  0  0  0  0  0  0  0  0  0  0
    6.9960  -15.2960   -7.0110 F   0  0  0  0  0  0  0  0  0  0  0  0
    3.1870  -13.0130   -3.8920 C   0  0  0  0  0  0  0  0  0  0  0  0
    3.3490  -14.0900   -0.6670 C   0  0  0  0  0  0  0  0  0  0  0  0
    4.6700  -13.6230   -0.3500 C   0  0  0  0  0  0  0  0  0  0  0  0
    4.9890  -12.4550    0.3160 C   0  0  0  0  0  0  0  0  0  0  0  0
    6.4030  -12.2560    0.4510 C   0  0  0  0  0  0  0  0  0  0  0  0
    7.1840  -11.2450    1.0330 C   0  0  0  0  0  0  0  0  0  0  0  0
    6.6580  -10.1300    1.6380 N   0  0  0  0  0  0  0  0  0  0  0  0
    8.5250  -11.3520    1.0060 N   0  0  0  0  0  0  0  0  0  0  0  0
    9.0690  -12.4270    0.4110 C   0  0  0  0  0  0  0  0  0  0  0  0
    8.4350  -13.4450   -0.1780 N   0  0  0  0  0  0  0  0  0  0  0  0
    7.1000  -13.3030   -0.1290 C   0  0  0  0  0  0  0  0  0  0  0  0
    6.0760  -14.4710   -0.8270 S   0  0  0  0  0  0  0  0  0  0  0  0
    2.7983  -15.2896    2.0954 H   0  0  0  0  0  0  0  0  0  0  0  0
    2.6697  -16.8180    1.1604 H   0  0  0  0  0  0  0  0  0  0  0  0
    4.2089  -15.8920    1.1604 H   0  0  0  0  0  0  0  0  0  0  0  0
    0.6542  -15.8934   -0.1758 H   0  0  0  0  0  0  0  0  0  0  0  0
    1.9227  -10.9943   -1.4448 H   0  0  0  0  0  0  0  0  0  0  0  0
    2.2572   -9.3039   -3.2439 H   0  0  0  0  0  0  0  0  0  0  0  0
    3.1783   -9.9859   -5.4566 H   0  0  0  0  0  0  0  0  0  0  0  0
    3.2750  -12.8110   -6.8240 H   0  0  0  0  0  0  0  0  0  0  0  0
    4.5920  -13.5630   -8.1530 H   0  0  0  0  0  0  0  0  0  0  0  0
    6.4601  -11.7869   -9.8194 H   0  0  0  0  0  0  0  0  0  0  0  0
    9.9789  -14.2831  -10.2436 H   0  0  0  0  0  0  0  0  0  0  0  0
    9.1971  -15.6991   -8.3429 H   0  0  0  0  0  0  0  0  0  0  0  0
    3.4664  -14.0621   -4.0690 H   0  0  0  0  0  0  0  0  0  0  0  0
    4.2370  -11.7513    0.7023 H   0  0  0  0  0  0  0  0  0  0  0  0
    5.6970  -10.1940    1.9460 H   0  0  0  0  0  0  0  0  0  0  0  0
    7.2100   -9.3130    1.8390 H   0  0  0  0  0  0  0  0  0  0  0  0
   10.1680  -12.4746    0.4085 H   0  0  0  0  0  0  0  0  0  0  0  0
  1  2  1  0
  2  3  1  0
  3  4  2  0
  4  5  1  0
  5  6  1  0
  6  7  2  0
  7  8  1  0
  8  9  2  0
  9 10  1  0
 10 11  1  0
 11 12  1  0
 12 13  2  0
 12 14  1  0
 14 15  1  0
 15 16  2  0
 16 17  1  0
 17 18  1  0
 18 19  1  0
 18 20  1  0
 18 21  1  0
 17 22  2  0
 22 23  1  0
 23 24  2  0
 24 25  1  0
 10 26  2  0
  5 27  2  0
 27 28  1  0
 28 29  2  0
 29 30  1  0
 30 31  2  0
 31 32  1  0
 31 33  1  0
 33 34  2  0
 34 35  1  0
 35 36  2  0
 36 37  1  0
 27  2  1  0
 37 28  1  0
 26  6  1  0
 36 30  1  0
 24 15  1  0
  1 38  1  0
  1 39  1  0
  1 40  1  0
  3 41  1  0
  7 42  1  0
  8 43  1  0
  9 44  1  0
 11 45  1  0
 14 46  1  0
 16 47  1  0
 22 48  1  0
 23 49  1  0
 26 50  1  0
 29 51  1  0
 32 52  1  0
 32 53  1  0
 34 54  1  0
M  END
>  <meeko>  (9) 
{"is_sidechain": [false], "free_energy": -8.597, "intermolecular_energy": -11.234, "internal_energy": -1.565}

$$$$
