LIB_DKFAHLYMYSORAF__M_PUB_ALL__e8__s20260927
     RDKit          3D

 74 78  0  0  0  0  0  0  0  0999 V2000
   -2.2500   -9.0580    1.7300 C   0  0  0  0  0  0  0  0  0  0  0  0
   -0.8450   -9.6080    1.9360 C   0  0  2  0  0  0  0  0  0  0  0  0
    0.0980   -8.6260    1.4940 O   0  0  0  0  0  0  0  0  0  0  0  0
   -0.6060  -10.9440    1.2040 C   0  0  0  0  0  0  0  0  0  0  0  0
    0.0270  -11.9010    2.0900 N   0  0  0  0  0  0  0  0  0  0  0  0
   -0.6730  -12.9660    2.5870 C   0  0  0  0  0  0  0  0  0  0  0  0
   -1.9390  -13.1780    2.2180 N   0  0  0  0  0  0  0  0  0  0  0  0
   -2.5660  -14.2300    2.7660 C   0  0  0  0  0  0  0  0  0  0  0  0
   -1.9730  -15.0930    3.6550 C   0  0  0  0  0  0  0  0  0  0  0  0
   -0.6580  -14.8220    3.9620 C   0  0  0  0  0  0  0  0  0  0  0  0
    0.0850  -15.6290    4.8810 N   0  0  0  0  0  0  0  0  0  0  0  0
   -0.0790  -15.5600    6.2530 C   0  0  0  0  0  0  0  0  0  0  0  0
    0.6830  -16.5650    6.7850 C   0  0  0  0  0  0  0  0  0  0  0  0
    1.3660  -17.2170    5.8020 N   0  0  0  0  0  0  0  0  0  0  0  0
    1.0620  -16.6040    4.6670 C   0  0  0  0  0  0  0  0  0  0  0  0
    1.7500  -16.9020    3.4110 C   0  0  0  0  0  0  0  0  0  0  0  0
    1.8690  -18.2210    2.9580 C   0  0  0  0  0  0  0  0  0  0  0  0
    2.5010  -18.4880    1.7450 C   0  0  0  0  0  0  0  0  0  0  0  0
    3.0040  -17.4360    0.9750 C   0  0  0  0  0  0  0  0  0  0  0  0
    2.8800  -16.1080    1.4060 C   0  0  0  0  0  0  0  0  0  0  0  0
    3.4010  -15.1060    0.5550 N   0  0  0  0  0  0  0  0  0  0  0  0
    2.6980  -14.0830   -0.0540 C   0  0  0  0  0  0  0  0  0  0  0  0
    1.4990  -13.8540    0.0430 O   0  0  0  0  0  0  0  0  0  0  0  0
    3.4950  -13.1920   -0.9470 C   0  0  0  0  0  0  0  0  0  0  0  0
    4.8550  -13.0150   -0.6380 C   0  0  0  0  0  0  0  0  0  0  0  0
    5.7020  -12.2130   -1.4160 C   0  0  0  0  0  0  0  0  0  0  0  0
    7.0460  -12.0760   -1.0890 N   0  0  0  0  0  0  0  0  0  0  0  0
    8.0830  -12.1860   -2.1260 C   0  0  0  0  0  0  0  0  0  0  0  0
    9.4140  -12.6910   -1.5250 C   0  0  0  0  0  0  0  0  0  0  0  0
    9.8260  -11.8420   -0.3270 N   0  0  0  0  0  0  0  0  0  0  0  0
   11.1470  -12.2690    0.2360 C   0  0  0  0  0  0  0  0  0  0  0  0
    8.7270  -11.8480    0.7310 C   0  0  0  0  0  0  0  0  0  0  0  0
    7.4000  -11.3330    0.1360 C   0  0  0  0  0  0  0  0  0  0  0  0
    5.1310  -11.5970   -2.5390 C   0  0  0  0  0  0  0  0  0  0  0  0
    3.7720  -11.7610   -2.8770 C   0  0  0  0  0  0  0  0  0  0  0  0
    3.2170  -11.1000   -4.1170 C   0  0  0  0  0  0  0  0  0  0  0  0
    4.0710  -11.1550   -5.1740 F   0  0  0  0  0  0  0  0  0  0  0  0
    2.0560  -11.6720   -4.5390 F   0  0  0  0  0  0  0  0  0  0  0  0
    2.9400   -9.7840   -3.9150 F   0  0  0  0  0  0  0  0  0  0  0  0
    2.9580  -12.5760   -2.0770 C   0  0  0  0  0  0  0  0  0  0  0  0
    2.2450  -15.8510    2.6230 C   0  0  0  0  0  0  0  0  0  0  0  0
   -0.0110  -13.7490    3.4440 N   0  0  0  0  0  0  0  0  0  0  0  0
   -2.7189   -8.8744    2.7080 H   0  0  0  0  0  0  0  0  0  0  0  0
   -2.1956   -8.1148    1.1666 H   0  0  0  0  0  0  0  0  0  0  0  0
   -2.8504   -9.7875    1.1666 H   0  0  0  0  0  0  0  0  0  0  0  0
   -0.7180   -9.8190    3.0081 H   0  0  0  0  0  0  0  0  0  0  0  0
   -0.2080   -8.3240    0.6160 H   0  0  0  0  0  0  0  0  0  0  0  0
   -1.5708  -11.3483    0.8640 H   0  0  0  0  0  0  0  0  0  0  0  0
    0.0543  -10.7651    0.3426 H   0  0  0  0  0  0  0  0  0  0  0  0
    1.0300  -12.0140    2.1310 H   0  0  0  0  0  0  0  0  0  0  0  0
   -3.6145  -14.4117    2.4875 H   0  0  0  0  0  0  0  0  0  0  0  0
   -2.5132  -15.9451    4.0932 H   0  0  0  0  0  0  0  0  0  0  0  0
   -0.6992  -14.8399    6.8069 H   0  0  0  0  0  0  0  0  0  0  0  0
    0.7366  -16.8118    7.8556 H   0  0  0  0  0  0  0  0  0  0  0  0
    1.4633  -19.0475    3.5599 H   0  0  0  0  0  0  0  0  0  0  0  0
    2.6038  -19.5255    1.3942 H   0  0  0  0  0  0  0  0  0  0  0  0
    3.5033  -17.6527    0.0191 H   0  0  0  0  0  0  0  0  0  0  0  0
    4.3890  -15.1860    0.3570 H   0  0  0  0  0  0  0  0  0  0  0  0
    5.2691  -13.5235    0.2451 H   0  0  0  0  0  0  0  0  0  0  0  0
    7.7459  -12.8927   -2.8986 H   0  0  0  0  0  0  0  0  0  0  0  0
    8.2503  -11.1901   -2.5621 H   0  0  0  0  0  0  0  0  0  0  0  0
    9.2900  -13.7349   -1.2012 H   0  0  0  0  0  0  0  0  0  0  0  0
   10.1973  -12.6181   -2.2939 H   0  0  0  0  0  0  0  0  0  0  0  0
    9.9240  -10.8730   -0.6580 H   0  0  0  0  0  0  0  0  0  0  0  0
   11.0995  -12.2536    1.3349 H   0  0  0  0  0  0  0  0  0  0  0  0
   11.3795  -13.2881   -0.1067 H   0  0  0  0  0  0  0  0  0  0  0  0
   11.9320  -11.5788   -0.1067 H   0  0  0  0  0  0  0  0  0  0  0  0
    8.5843  -12.8749    1.0986 H   0  0  0  0  0  0  0  0  0  0  0  0
    9.0260  -11.1869    1.5577 H   0  0  0  0  0  0  0  0  0  0  0  0
    6.5989  -11.4615    0.8788 H   0  0  0  0  0  0  0  0  0  0  0  0
    7.5203  -10.2703   -0.1212 H   0  0  0  0  0  0  0  0  0  0  0  0
    5.7648  -10.9644   -3.1778 H   0  0  0  0  0  0  0  0  0  0  0  0
    1.9008  -12.7287   -2.3397 H   0  0  0  0  0  0  0  0  0  0  0  0
    2.1314  -14.8128    2.9682 H   0  0  0  0  0  0  0  0  0  0  0  0
  1  2  1  0
  2  3  1  0
  2  4  1  0
  4  5  1  0
  5  6  1  0
  6  7  2  0
  7  8  1  0
  8  9  2  0
  9 10  1  0
 10 11  1  0
 11 12  1  0
 12 13  2  0
 13 14  1  0
 14 15  2  0
 15 16  1  0
 16 17  2  0
 17 18  1  0
 18 19  2  0
 19 20  1  0
 20 21  1  0
 21 22  1  0
 22 23  2  0
 22 24  1  0
 24 25  2  0
 25 26  1  0
 26 27  1  0
 27 28  1  0
 28 29  1  0
 29 30  1  0
 30 31  1  0
 30 32  1  0
 32 33  1  0
 26 34  2  0
 34 35  1  0
 35 36  1  0
 36 37  1  0
 36 38  1  0
 36 39  1  0
 35 40  2  0
 20 41  2  0
 10 42  2  0
 42  6  1  0
 15 11  1  0
 41 16  1  0
 40 24  1  0
 33 27  1  0
  1 43  1  0
  1 44  1  0
  1 45  1  0
  2 46  1  1
  3 47  1  0
  4 48  1  0
  4 49  1  0
  5 50  1  0
  8 51  1  0
  9 52  1  0
 12 53  1  0
 13 54  1  0
 17 55  1  0
 18 56  1  0
 19 57  1  0
 21 58  1  0
 25 59  1  0
 28 60  1  0
 28 61  1  0
 29 62  1  0
 29 63  1  0
 30 64  1  0
 31 65  1  0
 31 66  1  0
 31 67  1  0
 32 68  1  0
 32 69  1  0
 33 70  1  0
 33 71  1  0
 34 72  1  0
 40 73  1  0
 41 74  1  0
M  CHG  1  30   1
M  END
>  <meeko>  (1) 
{"is_sidechain": [false], "free_energy": -8.718, "intermolecular_energy": -13.56, "internal_energy": -1.862}

$$$$
LIB_DKFAHLYMYSORAF__M_PUB_ALL__e8__s20260927
     RDKit          3D

 74 78  0  0  0  0  0  0  0  0999 V2000
   12.7890  -11.5480    0.0550 C   0  0  0  0  0  0  0  0  0  0  0  0
   11.3610  -11.9880    0.3500 C   0  0  2  0  0  0  0  0  0  0  0  0
   11.3680  -12.7920    1.5340 O   0  0  0  0  0  0  0  0  0  0  0  0
   10.7150  -12.7630   -0.8160 C   0  0  0  0  0  0  0  0  0  0  0  0
    9.3950  -12.2360   -1.1040 N   0  0  0  0  0  0  0  0  0  0  0  0
    8.2900  -13.0390   -1.0380 C   0  0  0  0  0  0  0  0  0  0  0  0
    7.8340  -13.4720    0.1410 N   0  0  0  0  0  0  0  0  0  0  0  0
    6.7580  -14.2740    0.1210 C   0  0  0  0  0  0  0  0  0  0  0  0
    6.1050  -14.6460   -1.0280 C   0  0  0  0  0  0  0  0  0  0  0  0
    6.6200  -14.1350   -2.1980 C   0  0  0  0  0  0  0  0  0  0  0  0
    6.0500  -14.4450   -3.4730 N   0  0  0  0  0  0  0  0  0  0  0  0
    6.5850  -15.3880   -4.3340 C   0  0  0  0  0  0  0  0  0  0  0  0
    5.7010  -15.5110   -5.3710 C   0  0  0  0  0  0  0  0  0  0  0  0
    4.6670  -14.6350   -5.2240 N   0  0  0  0  0  0  0  0  0  0  0  0
    4.9180  -13.9440   -4.1220 C   0  0  0  0  0  0  0  0  0  0  0  0
    4.1250  -12.7780   -3.7350 C   0  0  0  0  0  0  0  0  0  0  0  0
    4.0500  -11.6570   -4.5700 C   0  0  0  0  0  0  0  0  0  0  0  0
    3.2670  -10.5640   -4.2030 C   0  0  0  0  0  0  0  0  0  0  0  0
    2.5470  -10.5940   -3.0060 C   0  0  0  0  0  0  0  0  0  0  0  0
    2.5980  -11.7140   -2.1660 C   0  0  0  0  0  0  0  0  0  0  0  0
    1.8230  -11.6660   -0.9840 N   0  0  0  0  0  0  0  0  0  0  0  0
    1.2290  -12.7320   -0.3330 C   0  0  0  0  0  0  0  0  0  0  0  0
    1.2780  -13.9120   -0.6580 O   0  0  0  0  0  0  0  0  0  0  0  0
    0.4210  -12.3860    0.8720 C   0  0  0  0  0  0  0  0  0  0  0  0
    0.3000  -13.3640    1.8730 C   0  0  0  0  0  0  0  0  0  0  0  0
   -0.4220  -13.1430    3.0550 C   0  0  0  0  0  0  0  0  0  0  0  0
   -0.5040  -14.1290    4.0300 N   0  0  0  0  0  0  0  0  0  0  0  0
   -0.0210  -13.8730    5.3960 C   0  0  0  0  0  0  0  0  0  0  0  0
    0.4390  -15.1820    6.0740 C   0  0  0  0  0  0  0  0  0  0  0  0
   -0.6500  -16.2470    5.9940 N   0  0  0  0  0  0  0  0  0  0  0  0
   -0.2550  -17.5090    6.7010 C   0  0  0  0  0  0  0  0  0  0  0  0
   -1.0330  -16.5070    4.5400 C   0  0  0  0  0  0  0  0  0  0  0  0
   -1.5040  -15.2030    3.8640 C   0  0  0  0  0  0  0  0  0  0  0  0
   -1.0170  -11.8820    3.2030 C   0  0  0  0  0  0  0  0  0  0  0  0
   -0.9070  -10.8780    2.2190 C   0  0  0  0  0  0  0  0  0  0  0  0
   -1.5400   -9.5250    2.4460 C   0  0  0  0  0  0  0  0  0  0  0  0
   -2.0480   -9.3820    3.6990 F   0  0  0  0  0  0  0  0  0  0  0  0
   -0.6600   -8.5010    2.2760 F   0  0  0  0  0  0  0  0  0  0  0  0
   -2.5660   -9.2890    1.5860 F   0  0  0  0  0  0  0  0  0  0  0  0
   -0.1710  -11.1360    1.0530 C   0  0  0  0  0  0  0  0  0  0  0  0
    3.3850  -12.8040   -2.5420 C   0  0  0  0  0  0  0  0  0  0  0  0
    7.7220  -13.3450   -2.2080 N   0  0  0  0  0  0  0  0  0  0  0  0
   13.3247  -11.3829    1.0014 H   0  0  0  0  0  0  0  0  0  0  0  0
   13.3013  -12.3300   -0.5247 H   0  0  0  0  0  0  0  0  0  0  0  0
   12.7723  -10.6133   -0.5247 H   0  0  0  0  0  0  0  0  0  0  0  0
   10.7508  -11.0840    0.4929 H   0  0  0  0  0  0  0  0  0  0  0  0
   12.1700  -12.5430    2.0340 H   0  0  0  0  0  0  0  0  0  0  0  0
   11.3474  -12.6651   -1.7107 H   0  0  0  0  0  0  0  0  0  0  0  0
   10.6222  -13.8218   -0.5325 H   0  0  0  0  0  0  0  0  0  0  0  0
    9.1890  -11.2490   -1.0560 H   0  0  0  0  0  0  0  0  0  0  0  0
    6.3775  -14.6551    1.0802 H   0  0  0  0  0  0  0  0  0  0  0  0
    5.2275  -15.3092   -1.0146 H   0  0  0  0  0  0  0  0  0  0  0  0
    7.5334  -15.9311   -4.2090 H   0  0  0  0  0  0  0  0  0  0  0  0
    5.8095  -16.2180   -6.2066 H   0  0  0  0  0  0  0  0  0  0  0  0
    4.6096  -11.6387   -5.5168 H   0  0  0  0  0  0  0  0  0  0  0  0
    3.2160   -9.6792   -4.8546 H   0  0  0  0  0  0  0  0  0  0  0  0
    1.9326   -9.7277   -2.7197 H   0  0  0  0  0  0  0  0  0  0  0  0
    1.6690  -10.7380   -0.6110 H   0  0  0  0  0  0  0  0  0  0  0  0
    0.7890  -14.3381    1.7246 H   0  0  0  0  0  0  0  0  0  0  0  0
    0.8265  -13.1731    5.3528 H   0  0  0  0  0  0  0  0  0  0  0  0
   -0.8451  -13.4439    5.9848 H   0  0  0  0  0  0  0  0  0  0  0  0
    1.3427  -15.5519    5.5675 H   0  0  0  0  0  0  0  0  0  0  0  0
    0.6508  -14.9741    7.1332 H   0  0  0  0  0  0  0  0  0  0  0  0
   -1.4820  -15.8710    6.4650 H   0  0  0  0  0  0  0  0  0  0  0  0
   -0.3045  -17.3509    7.7885 H   0  0  0  0  0  0  0  0  0  0  0  0
   -0.9425  -18.3192    6.4166 H   0  0  0  0  0  0  0  0  0  0  0  0
    0.7718  -17.7826    6.4166 H   0  0  0  0  0  0  0  0  0  0  0  0
   -0.1587  -16.8994    4.0000 H   0  0  0  0  0  0  0  0  0  0  0  0
   -1.8544  -17.2381    4.5137 H   0  0  0  0  0  0  0  0  0  0  0  0
   -1.6569  -15.3892    2.7907 H   0  0  0  0  0  0  0  0  0  0  0  0
   -2.4438  -14.8827    4.3376 H   0  0  0  0  0  0  0  0  0  0  0  0
   -1.5891  -11.6687    4.1180 H   0  0  0  0  0  0  0  0  0  0  0  0
   -0.0612  -10.3562    0.2850 H   0  0  0  0  0  0  0  0  0  0  0  0
    3.4259  -13.6935   -1.8962 H   0  0  0  0  0  0  0  0  0  0  0  0
  1  2  1  0
  2  3  1  0
  2  4  1  0
  4  5  1  0
  5  6  1  0
  6  7  2  0
  7  8  1  0
  8  9  2  0
  9 10  1  0
 10 11  1  0
 11 12  1  0
 12 13  2  0
 13 14  1  0
 14 15  2  0
 15 16  1  0
 16 17  2  0
 17 18  1  0
 18 19  2  0
 19 20  1  0
 20 21  1  0
 21 22  1  0
 22 23  2  0
 22 24  1  0
 24 25  2  0
 25 26  1  0
 26 27  1  0
 27 28  1  0
 28 29  1  0
 29 30  1  0
 30 31  1  0
 30 32  1  0
 32 33  1  0
 26 34  2  0
 34 35  1  0
 35 36  1  0
 36 37  1  0
 36 38  1  0
 36 39  1  0
 35 40  2  0
 20 41  2  0
 10 42  2  0
 42  6  1  0
 15 11  1  0
 41 16  1  0
 40 24  1  0
 33 27  1  0
  1 43  1  0
  1 44  1  0
  1 45  1  0
  2 46  1  1
  3 47  1  0
  4 48  1  0
  4 49  1  0
  5 50  1  0
  8 51  1  0
  9 52  1  0
 12 53  1  0
 13 54  1  0
 17 55  1  0
 18 56  1  0
 19 57  1  0
 21 58  1  0
 25 59  1  0
 28 60  1  0
 28 61  1  0
 29 62  1  0
 29 63  1  0
 30 64  1  0
 31 65  1  0
 31 66  1  0
 31 67  1  0
 32 68  1  0
 32 69  1  0
 33 70  1  0
 33 71  1  0
 34 72  1  0
 40 73  1  0
 41 74  1  0
M  CHG  1  30   1
M  END
>  <meeko>  (2) 
{"is_sidechain": [false], "free_energy": -8.647, "intermolecular_energy": -14.012, "internal_energy": -1.299}

$$$$
LIB_DKFAHLYMYSORAF__M_PUB_ALL__e8__s20260927
     RDKit          3D

 74 78  0  0  0  0  0  0  0  0999 V2000
   -0.0950  -10.1420   -0.0090 C   0  0  0  0  0  0  0  0  0  0  0  0
   -0.5960   -9.3820    1.2120 C   0  0  2  0  0  0  0  0  0  0  0  0
    0.4620   -8.5480    1.6940 O   0  0  0  0  0  0  0  0  0  0  0  0
   -1.0990  -10.3080    2.3360 C   0  0  0  0  0  0  0  0  0  0  0  0
   -2.4930  -10.6500    2.1270 N   0  0  0  0  0  0  0  0  0  0  0  0
   -2.8520  -11.9010    1.7070 C   0  0  0  0  0  0  0  0  0  0  0  0
   -3.0770  -12.1440    0.4130 N   0  0  0  0  0  0  0  0  0  0  0  0
   -3.4470  -13.3910    0.0830 C   0  0  0  0  0  0  0  0  0  0  0  0
   -3.5840  -14.4120    0.9910 C   0  0  0  0  0  0  0  0  0  0  0  0
   -3.3060  -14.0870    2.3000 C   0  0  0  0  0  0  0  0  0  0  0  0
   -3.4160  -15.0450    3.3560 N   0  0  0  0  0  0  0  0  0  0  0  0
   -4.6240  -15.5730    3.7780 C   0  0  0  0  0  0  0  0  0  0  0  0
   -4.3230  -16.5470    4.6900 C   0  0  0  0  0  0  0  0  0  0  0  0
   -2.9780  -16.6040    4.9020 N   0  0  0  0  0  0  0  0  0  0  0  0
   -2.4430  -15.6500    4.1550 C   0  0  0  0  0  0  0  0  0  0  0  0
   -1.0320  -15.2780    4.2580 C   0  0  0  0  0  0  0  0  0  0  0  0
   -0.3300  -15.4650    5.4540 C   0  0  0  0  0  0  0  0  0  0  0  0
    1.0220  -15.1330    5.5290 C   0  0  0  0  0  0  0  0  0  0  0  0
    1.6780  -14.6260    4.4050 C   0  0  0  0  0  0  0  0  0  0  0  0
    0.9950  -14.4470    3.1950 C   0  0  0  0  0  0  0  0  0  0  0  0
    1.7420  -13.9460    2.1040 N   0  0  0  0  0  0  0  0  0  0  0  0
    1.2570  -13.5770    0.8620 C   0  0  0  0  0  0  0  0  0  0  0  0
    0.0910  -13.6060    0.4890 O   0  0  0  0  0  0  0  0  0  0  0  0
    2.2820  -13.1270   -0.1250 C   0  0  0  0  0  0  0  0  0  0  0  0
    3.6090  -13.0170    0.3240 C   0  0  0  0  0  0  0  0  0  0  0  0
    4.6550  -12.6190   -0.5210 C   0  0  0  0  0  0  0  0  0  0  0  0
    5.9580  -12.5380   -0.0450 N   0  0  0  0  0  0  0  0  0  0  0  0
    6.2960  -11.6260    1.0590 C   0  0  0  0  0  0  0  0  0  0  0  0
    7.7700  -11.1740    0.9700 C   0  0  0  0  0  0  0  0  0  0  0  0
    8.7020  -12.3760    0.8560 N   0  0  0  0  0  0  0  0  0  0  0  0
   10.1440  -11.9690    0.8330 C   0  0  0  0  0  0  0  0  0  0  0  0
    8.3300  -13.2220   -0.3590 C   0  0  0  0  0  0  0  0  0  0  0  0
    6.8620  -13.6840   -0.2660 C   0  0  0  0  0  0  0  0  0  0  0  0
    4.3190  -12.3440   -1.8540 C   0  0  0  0  0  0  0  0  0  0  0  0
    2.9980  -12.4530   -2.3350 C   0  0  0  0  0  0  0  0  0  0  0  0
    2.6990  -12.1770   -3.7890 C   0  0  0  0  0  0  0  0  0  0  0  0
    1.5700  -12.7970   -4.2260 F   0  0  0  0  0  0  0  0  0  0  0  0
    2.5230  -10.8510   -4.0440 F   0  0  0  0  0  0  0  0  0  0  0  0
    3.7040  -12.5900   -4.6060 F   0  0  0  0  0  0  0  0  0  0  0  0
    1.9800  -12.8600   -1.4600 C   0  0  0  0  0  0  0  0  0  0  0  0
   -0.3590  -14.7820    3.1290 C   0  0  0  0  0  0  0  0  0  0  0  0
   -2.9580  -12.8280    2.6630 N   0  0  0  0  0  0  0  0  0  0  0  0
    0.4832  -11.0192    0.3169 H   0  0  0  0  0  0  0  0  0  0  0  0
   -0.9531  -10.4722   -0.6129 H   0  0  0  0  0  0  0  0  0  0  0  0
    0.5467   -9.4836   -0.6129 H   0  0  0  0  0  0  0  0  0  0  0  0
   -1.4621   -8.7783    0.9030 H   0  0  0  0  0  0  0  0  0  0  0  0
    1.2240   -8.6950    1.1000 H   0  0  0  0  0  0  0  0  0  0  0  0
   -0.4974  -11.2289    2.3427 H   0  0  0  0  0  0  0  0  0  0  0  0
   -1.0017   -9.7844    3.2985 H   0  0  0  0  0  0  0  0  0  0  0  0
   -3.2430  -10.1290    2.5560 H   0  0  0  0  0  0  0  0  0  0  0  0
   -3.6523  -13.6078   -0.9757 H   0  0  0  0  0  0  0  0  0  0  0  0
   -3.8956  -15.4237    0.6922 H   0  0  0  0  0  0  0  0  0  0  0  0
   -5.6276  -15.2693    3.4456 H   0  0  0  0  0  0  0  0  0  0  0  0
   -5.0633  -17.1940    5.1834 H   0  0  0  0  0  0  0  0  0  0  0  0
   -0.8452  -15.8742    6.3355 H   0  0  0  0  0  0  0  0  0  0  0  0
    1.5713  -15.2702    6.4721 H   0  0  0  0  0  0  0  0  0  0  0  0
    2.7443  -14.3640    4.4707 H   0  0  0  0  0  0  0  0  0  0  0  0
    2.7400  -13.8930    2.2580 H   0  0  0  0  0  0  0  0  0  0  0  0
    3.8351  -13.2512    1.3747 H   0  0  0  0  0  0  0  0  0  0  0  0
    5.6444  -10.7412    1.0074 H   0  0  0  0  0  0  0  0  0  0  0  0
    6.1486  -12.1573    2.0109 H   0  0  0  0  0  0  0  0  0  0  0  0
    7.8976  -10.5341    0.0844 H   0  0  0  0  0  0  0  0  0  0  0  0
    8.0231  -10.6186    1.8851 H   0  0  0  0  0  0  0  0  0  0  0  0
    8.5540  -12.9590    1.6890 H   0  0  0  0  0  0  0  0  0  0  0  0
   10.5122  -11.8651    1.8643 H   0  0  0  0  0  0  0  0  0  0  0  0
   10.7331  -12.7359    0.3089 H   0  0  0  0  0  0  0  0  0  0  0  0
   10.2452  -11.0072    0.3089 H   0  0  0  0  0  0  0  0  0  0  0  0
    8.4639  -12.6231   -1.2719 H   0  0  0  0  0  0  0  0  0  0  0  0
    8.9808  -14.1083   -0.3882 H   0  0  0  0  0  0  0  0  0  0  0  0
    6.5831  -14.1861   -1.2042 H   0  0  0  0  0  0  0  0  0  0  0  0
    6.7659  -14.3744    0.5849 H   0  0  0  0  0  0  0  0  0  0  0  0
    5.1131  -12.0325   -2.5485 H   0  0  0  0  0  0  0  0  0  0  0  0
    0.9481  -12.9681   -1.8252 H   0  0  0  0  0  0  0  0  0  0  0  0
   -0.9048  -14.6561    2.1823 H   0  0  0  0  0  0  0  0  0  0  0  0
  1  2  1  0
  2  3  1  0
  2  4  1  0
  4  5  1  0
  5  6  1  0
  6  7  2  0
  7  8  1  0
  8  9  2  0
  9 10  1  0
 10 11  1  0
 11 12  1  0
 12 13  2  0
 13 14  1  0
 14 15  2  0
 15 16  1  0
 16 17  2  0
 17 18  1  0
 18 19  2  0
 19 20  1  0
 20 21  1  0
 21 22  1  0
 22 23  2  0
 22 24  1  0
 24 25  2  0
 25 26  1  0
 26 27  1  0
 27 28  1  0
 28 29  1  0
 29 30  1  0
 30 31  1  0
 30 32  1  0
 32 33  1  0
 26 34  2  0
 34 35  1  0
 35 36  1  0
 36 37  1  0
 36 38  1  0
 36 39  1  0
 35 40  2  0
 20 41  2  0
 10 42  2  0
 42  6  1  0
 15 11  1  0
 41 16  1  0
 40 24  1  0
 33 27  1  0
  1 43  1  0
  1 44  1  0
  1 45  1  0
  2 46  1  6
  3 47  1  0
  4 48  1  0
  4 49  1  0
  5 50  1  0
  8 51  1  0
  9 52  1  0
 12 53  1  0
 13 54  1  0
 17 55  1  0
 18 56  1  0
 19 57  1  0
 21 58  1  0
 25 59  1  0
 28 60  1  0
 28 61  1  0
 29 62  1  0
 29 63  1  0
 30 64  1  0
 31 65  1  0
 31 66  1  0
 31 67  1  0
 32 68  1  0
 32 69  1  0
 33 70  1  0
 33 71  1  0
 34 72  1  0
 40 73  1  0
 41 74  1  0
M  CHG  1  30   1
M  END
>  <meeko>  (3) 
{"is_sidechain": [false], "free_energy": -8.586, "intermolecular_energy": -13.527, "internal_energy": -1.689}

$$$$
LIB_DKFAHLYMYSORAF__M_PUB_ALL__e8__s20260927
     RDKit          3D

 74 78  0  0  0  0  0  0  0  0999 V2000
    2.7300  -17.7080   -0.9440 C   0  0  0  0  0  0  0  0  0  0  0  0
    1.5120  -16.9440   -0.4420 C   0  0  2  0  0  0  0  0  0  0  0  0
    1.7090  -15.5510   -0.7040 O   0  0  0  0  0  0  0  0  0  0  0  0
    1.2330  -17.1700    1.0570 C   0  0  0  0  0  0  0  0  0  0  0  0
    1.8690  -16.1380    1.8530 N   0  0  0  0  0  0  0  0  0  0  0  0
    1.1740  -15.4770    2.8280 C   0  0  0  0  0  0  0  0  0  0  0  0
    1.7080  -15.2960    4.0390 N   0  0  0  0  0  0  0  0  0  0  0  0
    0.9560  -14.6580    4.9480 C   0  0  0  0  0  0  0  0  0  0  0  0
   -0.3040  -14.1730    4.6920 C   0  0  0  0  0  0  0  0  0  0  0  0
   -0.7700  -14.3750    3.4120 C   0  0  0  0  0  0  0  0  0  0  0  0
   -2.0690  -13.9350    3.0040 N   0  0  0  0  0  0  0  0  0  0  0  0
   -3.2030  -14.7220    3.1060 C   0  0  0  0  0  0  0  0  0  0  0  0
   -4.2600  -13.9240    2.7600 C   0  0  0  0  0  0  0  0  0  0  0  0
   -3.8230  -12.6890    2.3840 N   0  0  0  0  0  0  0  0  0  0  0  0
   -2.5010  -12.7220    2.4600 C   0  0  0  0  0  0  0  0  0  0  0  0
   -1.6630  -11.6360    1.9540 C   0  0  0  0  0  0  0  0  0  0  0  0
   -1.9090  -10.3100    2.3300 C   0  0  0  0  0  0  0  0  0  0  0  0
   -1.0850   -9.2880    1.8630 C   0  0  0  0  0  0  0  0  0  0  0  0
   -0.0050   -9.5890    1.0300 C   0  0  0  0  0  0  0  0  0  0  0  0
    0.2660  -10.9120    0.6560 C   0  0  0  0  0  0  0  0  0  0  0  0
    1.3900  -11.1280   -0.1740 N   0  0  0  0  0  0  0  0  0  0  0  0
    2.3400  -12.1250   -0.0480 C   0  0  0  0  0  0  0  0  0  0  0  0
    2.3700  -13.0090    0.8000 O   0  0  0  0  0  0  0  0  0  0  0  0
    3.4550  -12.0860   -1.0380 C   0  0  0  0  0  0  0  0  0  0  0  0
    4.7620  -12.2500   -0.5480 C   0  0  0  0  0  0  0  0  0  0  0  0
    5.8840  -12.2470   -1.3890 C   0  0  0  0  0  0  0  0  0  0  0  0
    7.1600  -12.4290   -0.8690 N   0  0  0  0  0  0  0  0  0  0  0  0
    7.3970  -12.3410    0.5790 C   0  0  0  0  0  0  0  0  0  0  0  0
    8.8420  -11.8850    0.8770 C   0  0  0  0  0  0  0  0  0  0  0  0
    9.8500  -12.7590    0.1390 N   0  0  0  0  0  0  0  0  0  0  0  0
   11.2640  -12.3800    0.4600 C   0  0  0  0  0  0  0  0  0  0  0  0
    9.5800  -12.7290   -1.3630 C   0  0  0  0  0  0  0  0  0  0  0  0
    8.1410  -13.1950   -1.6630 C   0  0  0  0  0  0  0  0  0  0  0  0
    5.6430  -12.0840   -2.7610 C   0  0  0  0  0  0  0  0  0  0  0  0
    4.3420  -11.9240   -3.2820 C   0  0  0  0  0  0  0  0  0  0  0  0
    4.1380  -11.7860   -4.7730 C   0  0  0  0  0  0  0  0  0  0  0  0
    3.6440  -10.5700   -5.1290 F   0  0  0  0  0  0  0  0  0  0  0  0
    5.2940  -11.9440   -5.4750 F   0  0  0  0  0  0  0  0  0  0  0  0
    3.2700  -12.7120   -5.2590 F   0  0  0  0  0  0  0  0  0  0  0  0
    3.2450  -11.9390   -2.4090 C   0  0  0  0  0  0  0  0  0  0  0  0
   -0.5650  -11.9300    1.1290 C   0  0  0  0  0  0  0  0  0  0  0  0
   -0.0420  -15.0420    2.4830 N   0  0  0  0  0  0  0  0  0  0  0  0
    3.3129  -18.0736   -0.0857 H   0  0  0  0  0  0  0  0  0  0  0  0
    2.4012  -18.5620   -1.5544 H   0  0  0  0  0  0  0  0  0  0  0  0
    3.3557  -17.0403   -1.5544 H   0  0  0  0  0  0  0  0  0  0  0  0
    0.6296  -17.3232   -0.9783 H   0  0  0  0  0  0  0  0  0  0  0  0
    2.2610  -15.4950   -1.5080 H   0  0  0  0  0  0  0  0  0  0  0  0
    0.1472  -17.1439    1.2311 H   0  0  0  0  0  0  0  0  0  0  0  0
    1.6407  -18.1483    1.3513 H   0  0  0  0  0  0  0  0  0  0  0  0
    2.8710  -16.0760    1.9490 H   0  0  0  0  0  0  0  0  0  0  0  0
    1.3717  -14.5148    5.9563 H   0  0  0  0  0  0  0  0  0  0  0  0
   -0.9009  -13.6575    5.4588 H   0  0  0  0  0  0  0  0  0  0  0  0
   -3.2463  -15.7795    3.4058 H   0  0  0  0  0  0  0  0  0  0  0  0
   -5.3146  -14.2359    2.7823 H   0  0  0  0  0  0  0  0  0  0  0  0
   -2.7534  -10.0748    2.9946 H   0  0  0  0  0  0  0  0  0  0  0  0
   -1.2849   -8.2451    2.1501 H   0  0  0  0  0  0  0  0  0  0  0  0
    0.6407   -8.7776    0.6631 H   0  0  0  0  0  0  0  0  0  0  0  0
    1.5130  -10.4470   -0.9110 H   0  0  0  0  0  0  0  0  0  0  0  0
    4.9100  -12.3855    0.5335 H   0  0  0  0  0  0  0  0  0  0  0  0
    6.6939  -11.6161    1.0151 H   0  0  0  0  0  0  0  0  0  0  0  0
    7.2462  -13.3375    1.0198 H   0  0  0  0  0  0  0  0  0  0  0  0
    8.9646  -10.8411    0.5527 H   0  0  0  0  0  0  0  0  0  0  0  0
    9.0235  -11.9746    1.9582 H   0  0  0  0  0  0  0  0  0  0  0  0
    9.7060  -13.7270    0.4540 H   0  0  0  0  0  0  0  0  0  0  0  0
   11.3954  -12.3448    1.5516 H   0  0  0  0  0  0  0  0  0  0  0  0
   11.9498  -13.1260    0.0320 H   0  0  0  0  0  0  0  0  0  0  0  0
   11.4847  -11.3910    0.0320 H   0  0  0  0  0  0  0  0  0  0  0  0
    9.7126  -11.7020   -1.7341 H   0  0  0  0  0  0  0  0  0  0  0  0
   10.2854  -13.4078   -1.8647 H   0  0  0  0  0  0  0  0  0  0  0  0
    7.9311  -13.0481   -2.7327 H   0  0  0  0  0  0  0  0  0  0  0  0
    8.0543  -14.2584   -1.3955 H   0  0  0  0  0  0  0  0  0  0  0  0
    6.4972  -12.0808   -3.4540 H   0  0  0  0  0  0  0  0  0  0  0  0
    2.2234  -11.8353   -2.8035 H   0  0  0  0  0  0  0  0  0  0  0  0
   -0.3572  -12.9741    0.8522 H   0  0  0  0  0  0  0  0  0  0  0  0
  1  2  1  0
  2  3  1  0
  2  4  1  0
  4  5  1  0
  5  6  1  0
  6  7  2  0
  7  8  1  0
  8  9  2  0
  9 10  1  0
 10 11  1  0
 11 12  1  0
 12 13  2  0
 13 14  1  0
 14 15  2  0
 15 16  1  0
 16 17  2  0
 17 18  1  0
 18 19  2  0
 19 20  1  0
 20 21  1  0
 21 22  1  0
 22 23  2  0
 22 24  1  0
 24 25  2  0
 25 26  1  0
 26 27  1  0
 27 28  1  0
 28 29  1  0
 29 30  1  0
 30 31  1  0
 30 32  1  0
 32 33  1  0
 26 34  2  0
 34 35  1  0
 35 36  1  0
 36 37  1  0
 36 38  1  0
 36 39  1  0
 35 40  2  0
 20 41  2  0
 10 42  2  0
 42  6  1  0
 15 11  1  0
 41 16  1  0
 40 24  1  0
 33 27  1  0
  1 43  1  0
  1 44  1  0
  1 45  1  0
  2 46  1  6
  3 47  1  0
  4 48  1  0
  4 49  1  0
  5 50  1  0
  8 51  1  0
  9 52  1  0
 12 53  1  0
 13 54  1  0
 17 55  1  0
 18 56  1  0
 19 57  1  0
 21 58  1  0
 25 59  1  0
 28 60  1  0
 28 61  1  0
 29 62  1  0
 29 63  1  0
 30 64  1  0
 31 65  1  0
 31 66  1  0
 31 67  1  0
 32 68  1  0
 32 69  1  0
 33 70  1  0
 33 71  1  0
 34 72  1  0
 40 73  1  0
 41 74  1  0
M  CHG  1  30   1
M  END
>  <meeko>  (4) 
{"is_sidechain": [false], "free_energy": -8.516, "intermolecular_energy": -12.865, "internal_energy": -2.242}

$$$$
LIB_DKFAHLYMYSORAF__M_PUB_ALL__e8__s20260927
     RDKit          3D

 74 78  0  0  0  0  0  0  0  0999 V2000
    7.0120  -14.3330   -6.2810 C   0  0  0  0  0  0  0  0  0  0  0  0
    7.9690  -14.6740   -5.1470 C   0  0  2  0  0  0  0  0  0  0  0  0
    8.4340  -13.4530   -4.5620 O   0  0  0  0  0  0  0  0  0  0  0  0
    9.1640  -15.5350   -5.6030 C   0  0  0  0  0  0  0  0  0  0  0  0
    9.4550  -16.5590   -4.6180 N   0  0  0  0  0  0  0  0  0  0  0  0
   10.4870  -16.4060   -3.7320 C   0  0  0  0  0  0  0  0  0  0  0  0
   10.8630  -17.4190   -2.9480 N   0  0  0  0  0  0  0  0  0  0  0  0
   11.8680  -17.1850   -2.0900 C   0  0  0  0  0  0  0  0  0  0  0  0
   12.5270  -15.9830   -1.9970 C   0  0  0  0  0  0  0  0  0  0  0  0
   12.0980  -15.0000   -2.8600 C   0  0  0  0  0  0  0  0  0  0  0  0
   12.6830  -13.6950   -2.8680 N   0  0  0  0  0  0  0  0  0  0  0  0
   13.8270  -13.3810   -3.5820 C   0  0  0  0  0  0  0  0  0  0  0  0
   13.9980  -12.0280   -3.4660 C   0  0  0  0  0  0  0  0  0  0  0  0
   13.0420  -11.4950   -2.6540 N   0  0  0  0  0  0  0  0  0  0  0  0
   12.2980  -12.5090   -2.2370 C   0  0  0  0  0  0  0  0  0  0  0  0
   11.2810  -12.3550   -1.1970 C   0  0  0  0  0  0  0  0  0  0  0  0
   11.6480  -12.2410    0.1490 C   0  0  0  0  0  0  0  0  0  0  0  0
   10.6700  -12.0650    1.1260 C   0  0  0  0  0  0  0  0  0  0  0  0
    9.3240  -11.9900    0.7590 C   0  0  0  0  0  0  0  0  0  0  0  0
    8.9400  -12.0870   -0.5850 C   0  0  0  0  0  0  0  0  0  0  0  0
    7.5580  -11.9820   -0.8670 N   0  0  0  0  0  0  0  0  0  0  0  0
    6.7550  -12.9370   -1.4620 C   0  0  0  0  0  0  0  0  0  0  0  0
    7.0940  -14.0510   -1.8410 O   0  0  0  0  0  0  0  0  0  0  0  0
    5.3350  -12.5390   -1.6870 C   0  0  0  0  0  0  0  0  0  0  0  0
    4.4240  -12.7700   -0.6410 C   0  0  0  0  0  0  0  0  0  0  0  0
    3.0690  -12.4220   -0.7370 C   0  0  0  0  0  0  0  0  0  0  0  0
    2.2030  -12.6490    0.3250 N   0  0  0  0  0  0  0  0  0  0  0  0
    2.4870  -13.7040    1.3100 C   0  0  0  0  0  0  0  0  0  0  0  0
    1.1820  -14.2470    1.9320 C   0  0  0  0  0  0  0  0  0  0  0  0
    0.3250  -13.1090    2.4760 N   0  0  0  0  0  0  0  0  0  0  0  0
   -0.9190  -13.6120    3.1440 C   0  0  0  0  0  0  0  0  0  0  0  0
    0.0120  -12.1040    1.3710 C   0  0  0  0  0  0  0  0  0  0  0  0
    1.3140  -11.5530    0.7570 C   0  0  0  0  0  0  0  0  0  0  0  0
    2.6570  -11.8140   -1.9320 C   0  0  0  0  0  0  0  0  0  0  0  0
    3.5490  -11.5640   -2.9950 C   0  0  0  0  0  0  0  0  0  0  0  0
    3.0580  -10.8760   -4.2470 C   0  0  0  0  0  0  0  0  0  0  0  0
    4.0310  -10.7210   -5.1840 F   0  0  0  0  0  0  0  0  0  0  0  0
    2.0510  -11.5600   -4.8570 F   0  0  0  0  0  0  0  0  0  0  0  0
    2.5690   -9.6340   -3.9890 F   0  0  0  0  0  0  0  0  0  0  0  0
    4.8990  -11.9220   -2.8590 C   0  0  0  0  0  0  0  0  0  0  0  0
    9.9270  -12.2630   -1.5570 C   0  0  0  0  0  0  0  0  0  0  0  0
   11.0660  -15.2020   -3.7160 N   0  0  0  0  0  0  0  0  0  0  0  0
    6.0539  -13.9916   -5.8621 H   0  0  0  0  0  0  0  0  0  0  0  0
    7.4468  -13.5345   -6.9001 H   0  0  0  0  0  0  0  0  0  0  0  0
    6.8439  -15.2266   -6.9001 H   0  0  0  0  0  0  0  0  0  0  0  0
    7.4195  -15.2785   -4.4103 H   0  0  0  0  0  0  0  0  0  0  0  0
    9.1900  -13.1550   -5.1050 H   0  0  0  0  0  0  0  0  0  0  0  0
    8.9201  -16.0142   -6.5626 H   0  0  0  0  0  0  0  0  0  0  0  0
   10.0466  -14.8884   -5.7166 H   0  0  0  0  0  0  0  0  0  0  0  0
    8.7690  -17.2420   -4.3350 H   0  0  0  0  0  0  0  0  0  0  0  0
   12.1819  -18.0018   -1.4234 H   0  0  0  0  0  0  0  0  0  0  0  0
   13.3442  -15.8169   -1.2796 H   0  0  0  0  0  0  0  0  0  0  0  0
   14.4715  -14.0811   -4.1338 H   0  0  0  0  0  0  0  0  0  0  0  0
   14.7950  -11.4518   -3.9588 H   0  0  0  0  0  0  0  0  0  0  0  0
   12.7088  -12.2904    0.4357 H   0  0  0  0  0  0  0  0  0  0  0  0
   10.9574  -11.9852    2.1848 H   0  0  0  0  0  0  0  0  0  0  0  0
    8.5563  -11.8531    1.5348 H   0  0  0  0  0  0  0  0  0  0  0  0
    7.1410  -11.0910   -0.6320 H   0  0  0  0  0  0  0  0  0  0  0  0
    4.7870  -13.2401    0.2849 H   0  0  0  0  0  0  0  0  0  0  0  0
    3.0178  -14.5283    0.8112 H   0  0  0  0  0  0  0  0  0  0  0  0
    3.1060  -13.2764    2.1125 H   0  0  0  0  0  0  0  0  0  0  0  0
    0.6141  -14.7893    1.1617 H   0  0  0  0  0  0  0  0  0  0  0  0
    1.4415  -14.9201    2.7624 H   0  0  0  0  0  0  0  0  0  0  0  0
    0.8840  -12.6170    3.1850 H   0  0  0  0  0  0  0  0  0  0  0  0
   -0.7948  -13.5618    4.2358 H   0  0  0  0  0  0  0  0  0  0  0  0
   -1.7742  -12.9890    2.8432 H   0  0  0  0  0  0  0  0  0  0  0  0
   -1.1009  -14.6543    2.8432 H   0  0  0  0  0  0  0  0  0  0  0  0
   -0.5764  -12.6011    0.5857 H   0  0  0  0  0  0  0  0  0  0  0  0
   -0.5593  -11.2685    1.8017 H   0  0  0  0  0  0  0  0  0  0  0  0
    1.0645  -10.9285   -0.1135 H   0  0  0  0  0  0  0  0  0  0  0  0
    1.8370  -10.9596    1.5214 H   0  0  0  0  0  0  0  0  0  0  0  0
    1.6023  -11.5223   -2.0437 H   0  0  0  0  0  0  0  0  0  0  0  0
    5.6099  -11.7169   -3.6730 H   0  0  0  0  0  0  0  0  0  0  0  0
    9.6404  -12.3303   -2.6169 H   0  0  0  0  0  0  0  0  0  0  0  0
  1  2  1  0
  2  3  1  0
  2  4  1  0
  4  5  1  0
  5  6  1  0
  6  7  2  0
  7  8  1  0
  8  9  2  0
  9 10  1  0
 10 11  1  0
 11 12  1  0
 12 13  2  0
 13 14  1  0
 14 15  2  0
 15 16  1  0
 16 17  2  0
 17 18  1  0
 18 19  2  0
 19 20  1  0
 20 21  1  0
 21 22  1  0
 22 23  2  0
 22 24  1  0
 24 25  2  0
 25 26  1  0
 26 27  1  0
 27 28  1  0
 28 29  1  0
 29 30  1  0
 30 31  1  0
 30 32  1  0
 32 33  1  0
 26 34  2  0
 34 35  1  0
 35 36  1  0
 36 37  1  0
 36 38  1  0
 36 39  1  0
 35 40  2  0
 20 41  2  0
 10 42  2  0
 42  6  1  0
 15 11  1  0
 41 16  1  0
 40 24  1  0
 33 27  1  0
  1 43  1  0
  1 44  1  0
  1 45  1  0
  2 46  1  1
  3 47  1  0
  4 48  1  0
  4 49  1  0
  5 50  1  0
  8 51  1  0
  9 52  1  0
 12 53  1  0
 13 54  1  0
 17 55  1  0
 18 56  1  0
 19 57  1  0
 21 58  1  0
 25 59  1  0
 28 60  1  0
 28 61  1  0
 29 62  1  0
 29 63  1  0
 30 64  1  0
 31 65  1  0
 31 66  1  0
 31 67  1  0
 32 68  1  0
 32 69  1  0
 33 70  1  0
 33 71  1  0
 34 72  1  0
 40 73  1  0
 41 74  1  0
M  CHG  1  30   1
M  END
>  <meeko>  (5) 
{"is_sidechain": [false], "free_energy": -8.445, "intermolecular_energy": -12.529, "internal_energy": -2.467}

$$$$
LIB_DKFAHLYMYSORAF__M_PUB_ALL__e8__s20260927
     RDKit          3D

 74 78  0  0  0  0  0  0  0  0999 V2000
   13.8370  -11.6220   -3.0250 C   0  0  0  0  0  0  0  0  0  0  0  0
   13.9810  -12.9230   -3.8040 C   0  0  2  0  0  0  0  0  0  0  0  0
   13.7450  -12.6530   -5.1890 O   0  0  0  0  0  0  0  0  0  0  0  0
   13.0330  -14.0330   -3.3080 C   0  0  0  0  0  0  0  0  0  0  0  0
   12.4970  -13.6950   -2.0030 N   0  0  0  0  0  0  0  0  0  0  0  0
   11.2470  -14.1070   -1.6310 C   0  0  0  0  0  0  0  0  0  0  0  0
   10.9020  -15.3950   -1.7210 N   0  0  0  0  0  0  0  0  0  0  0  0
    9.6510  -15.7170   -1.3570 C   0  0  0  0  0  0  0  0  0  0  0  0
    8.7340  -14.8080   -0.8890 C   0  0  0  0  0  0  0  0  0  0  0  0
    9.1770  -13.5080   -0.7990 C   0  0  0  0  0  0  0  0  0  0  0  0
    8.3300  -12.4510   -0.3390 N   0  0  0  0  0  0  0  0  0  0  0  0
    8.5510  -11.7610    0.8400 C   0  0  0  0  0  0  0  0  0  0  0  0
    7.6340  -10.7450    0.8720 C   0  0  0  0  0  0  0  0  0  0  0  0
    6.8060  -10.8150   -0.2090 N   0  0  0  0  0  0  0  0  0  0  0  0
    7.1800  -11.8850   -0.8950 C   0  0  0  0  0  0  0  0  0  0  0  0
    6.4050  -12.3960   -2.0250 C   0  0  0  0  0  0  0  0  0  0  0  0
    5.0540  -12.7310   -1.8720 C   0  0  0  0  0  0  0  0  0  0  0  0
    4.3200  -13.1880   -2.9650 C   0  0  0  0  0  0  0  0  0  0  0  0
    4.9310  -13.3010   -4.2160 C   0  0  0  0  0  0  0  0  0  0  0  0
    6.2770  -12.9560   -4.3920 C   0  0  0  0  0  0  0  0  0  0  0  0
    6.8080  -13.0830   -5.6960 N   0  0  0  0  0  0  0  0  0  0  0  0
    7.2540  -14.2410   -6.3040 C   0  0  0  0  0  0  0  0  0  0  0  0
    7.2590  -15.3690   -5.8260 O   0  0  0  0  0  0  0  0  0  0  0  0
    7.8160  -14.0780   -7.6770 C   0  0  0  0  0  0  0  0  0  0  0  0
    9.1800  -14.3640   -7.8570 C   0  0  0  0  0  0  0  0  0  0  0  0
    9.8090  -14.2590   -9.1060 C   0  0  0  0  0  0  0  0  0  0  0  0
   11.1570  -14.5680   -9.2470 N   0  0  0  0  0  0  0  0  0  0  0  0
   11.6100  -15.4630  -10.3230 C   0  0  0  0  0  0  0  0  0  0  0  0
   12.9050  -16.2020   -9.9180 C   0  0  0  0  0  0  0  0  0  0  0  0
   13.9680  -15.2160   -9.4460 N   0  0  0  0  0  0  0  0  0  0  0  0
   15.2590  -15.9000   -9.1080 C   0  0  0  0  0  0  0  0  0  0  0  0
   13.4420  -14.3850   -8.2790 C   0  0  0  0  0  0  0  0  0  0  0  0
   12.1560  -13.6380   -8.6850 C   0  0  0  0  0  0  0  0  0  0  0  0
    9.0060  -13.8650  -10.1850 C   0  0  0  0  0  0  0  0  0  0  0  0
    7.6340  -13.5780  -10.0360 C   0  0  0  0  0  0  0  0  0  0  0  0
    6.8090  -13.1890  -11.2410 C   0  0  0  0  0  0  0  0  0  0  0  0
    5.5730  -13.7550  -11.2420 F   0  0  0  0  0  0  0  0  0  0  0  0
    6.6090  -11.8440  -11.3250 F   0  0  0  0  0  0  0  0  0  0  0  0
    7.4020  -13.5570  -12.4070 F   0  0  0  0  0  0  0  0  0  0  0  0
    7.0390  -13.6990   -8.7720 C   0  0  0  0  0  0  0  0  0  0  0  0
    7.0040  -12.4980   -3.2910 C   0  0  0  0  0  0  0  0  0  0  0  0
   10.4260  -13.1510   -1.1860 N   0  0  0  0  0  0  0  0  0  0  0  0
   13.8607  -11.8360   -1.9463 H   0  0  0  0  0  0  0  0  0  0  0  0
   14.6659  -10.9464   -3.2831 H   0  0  0  0  0  0  0  0  0  0  0  0
   12.8805  -11.1440   -3.2831 H   0  0  0  0  0  0  0  0  0  0  0  0
   15.0023  -13.3001   -3.6464 H   0  0  0  0  0  0  0  0  0  0  0  0
   12.7890  -12.4730   -5.2780 H   0  0  0  0  0  0  0  0  0  0  0  0
   12.2039  -14.1472   -4.0218 H   0  0  0  0  0  0  0  0  0  0  0  0
   13.5965  -14.9744   -3.2292 H   0  0  0  0  0  0  0  0  0  0  0  0
   13.0910  -13.4340   -1.2300 H   0  0  0  0  0  0  0  0  0  0  0  0
    9.3423  -16.7697   -1.4382 H   0  0  0  0  0  0  0  0  0  0  0  0
    7.7122  -15.0999   -0.6047 H   0  0  0  0  0  0  0  0  0  0  0  0
    9.3130  -11.9847    1.6011 H   0  0  0  0  0  0  0  0  0  0  0  0
    7.5736   -9.9794    1.6595 H   0  0  0  0  0  0  0  0  0  0  0  0
    4.5716  -12.6334   -0.8882 H   0  0  0  0  0  0  0  0  0  0  0  0
    3.2610  -13.4593   -2.8427 H   0  0  0  0  0  0  0  0  0  0  0  0
    4.3474  -13.6657   -5.0742 H   0  0  0  0  0  0  0  0  0  0  0  0
    6.8940  -12.2150   -6.2090 H   0  0  0  0  0  0  0  0  0  0  0  0
    9.7751  -14.6813   -6.9880 H   0  0  0  0  0  0  0  0  0  0  0  0
   10.8232  -16.2031  -10.5308 H   0  0  0  0  0  0  0  0  0  0  0  0
   11.8161  -14.8588  -11.2188 H   0  0  0  0  0  0  0  0  0  0  0  0
   12.6787  -16.9053   -9.1031 H   0  0  0  0  0  0  0  0  0  0  0  0
   13.2908  -16.7423  -10.7951 H   0  0  0  0  0  0  0  0  0  0  0  0
   14.1510  -14.5670  -10.2230 H   0  0  0  0  0  0  0  0  0  0  0  0
   15.3681  -15.9578   -8.0150 H   0  0  0  0  0  0  0  0  0  0  0  0
   15.2575  -16.9156   -9.5306 H   0  0  0  0  0  0  0  0  0  0  0  0
   16.0984  -15.3283   -9.5306 H   0  0  0  0  0  0  0  0  0  0  0  0
   13.2219  -15.0502   -7.4310 H   0  0  0  0  0  0  0  0  0  0  0  0
   14.2069  -13.6477   -7.9938 H   0  0  0  0  0  0  0  0  0  0  0  0
   11.7304  -13.1467   -7.7976 H   0  0  0  0  0  0  0  0  0  0  0  0
   12.4118  -12.8935   -9.4533 H   0  0  0  0  0  0  0  0  0  0  0  0
    9.4620  -13.7767  -11.1821 H   0  0  0  0  0  0  0  0  0  0  0  0
    5.9654  -13.4962   -8.6445 H   0  0  0  0  0  0  0  0  0  0  0  0
    8.0591  -12.2136   -3.4171 H   0  0  0  0  0  0  0  0  0  0  0  0
  1  2  1  0
  2  3  1  0
  2  4  1  0
  4  5  1  0
  5  6  1  0
  6  7  2  0
  7  8  1  0
  8  9  2  0
  9 10  1  0
 10 11  1  0
 11 12  1  0
 12 13  2  0
 13 14  1  0
 14 15  2  0
 15 16  1  0
 16 17  2  0
 17 18  1  0
 18 19  2  0
 19 20  1  0
 20 21  1  0
 21 22  1  0
 22 23  2  0
 22 24  1  0
 24 25  2  0
 25 26  1  0
 26 27  1  0
 27 28  1  0
 28 29  1  0
 29 30  1  0
 30 31  1  0
 30 32  1  0
 32 33  1  0
 26 34  2  0
 34 35  1  0
 35 36  1  0
 36 37  1  0
 36 38  1  0
 36 39  1  0
 35 40  2  0
 20 41  2  0
 10 42  2  0
 42  6  1  0
 15 11  1  0
 41 16  1  0
 40 24  1  0
 33 27  1  0
  1 43  1  0
  1 44  1  0
  1 45  1  0
  2 46  1  6
  3 47  1  0
  4 48  1  0
  4 49  1  0
  5 50  1  0
  8 51  1  0
  9 52  1  0
 12 53  1  0
 13 54  1  0
 17 55  1  0
 18 56  1  0
 19 57  1  0
 21 58  1  0
 25 59  1  0
 28 60  1  0
 28 61  1  0
 29 62  1  0
 29 63  1  0
 30 64  1  0
 31 65  1  0
 31 66  1  0
 31 67  1  0
 32 68  1  0
 32 69  1  0
 33 70  1  0
 33 71  1  0
 34 72  1  0
 40 73  1  0
 41 74  1  0
M  CHG  1  30   1
M  END
>  <meeko>  (6) 
{"is_sidechain": [false], "free_energy": -8.396, "intermolecular_energy": -12.94, "internal_energy": -1.98}

$$$$
LIB_DKFAHLYMYSORAF__M_PUB_ALL__e8__s20260927
     RDKit          3D

 74 78  0  0  0  0  0  0  0  0999 V2000
   12.6470  -11.5440   -0.1960 C   0  0  0  0  0  0  0  0  0  0  0  0
   11.5490  -12.4500    0.3460 C   0  0  2  0  0  0  0  0  0  0  0  0
   12.1230  -13.7220    0.6610 O   0  0  0  0  0  0  0  0  0  0  0  0
   10.3710  -12.6240   -0.6330 C   0  0  0  0  0  0  0  0  0  0  0  0
    9.2660  -13.3000    0.0180 N   0  0  0  0  0  0  0  0  0  0  0  0
    8.0850  -12.6500    0.2500 C   0  0  0  0  0  0  0  0  0  0  0  0
    8.0790  -11.3820    0.6690 N   0  0  0  0  0  0  0  0  0  0  0  0
    6.8820  -10.8210    0.8960 C   0  0  0  0  0  0  0  0  0  0  0  0
    5.6860  -11.4690    0.7030 C   0  0  0  0  0  0  0  0  0  0  0  0
    5.7780  -12.7640    0.2430 C   0  0  0  0  0  0  0  0  0  0  0  0
    4.6170  -13.5650    0.0070 N   0  0  0  0  0  0  0  0  0  0  0  0
    4.2600  -14.6360    0.8080 C   0  0  0  0  0  0  0  0  0  0  0  0
    3.0360  -15.0600    0.3640 C   0  0  0  0  0  0  0  0  0  0  0  0
    2.6460  -14.3360   -0.7240 N   0  0  0  0  0  0  0  0  0  0  0  0
    3.6320  -13.4890   -0.9810 C   0  0  0  0  0  0  0  0  0  0  0  0
    3.6610  -12.6710   -2.1930 C   0  0  0  0  0  0  0  0  0  0  0  0
    2.8860  -11.5090   -2.2880 C   0  0  0  0  0  0  0  0  0  0  0  0
    2.9450  -10.7230   -3.4370 C   0  0  0  0  0  0  0  0  0  0  0  0
    3.7880  -11.0890   -4.4890 C   0  0  0  0  0  0  0  0  0  0  0  0
    4.5830  -12.2400   -4.4040 C   0  0  0  0  0  0  0  0  0  0  0  0
    5.4200  -12.5250   -5.5080 N   0  0  0  0  0  0  0  0  0  0  0  0
    5.6870  -13.7670   -6.0520 C   0  0  0  0  0  0  0  0  0  0  0  0
    5.2360  -14.8450   -5.6830 O   0  0  0  0  0  0  0  0  0  0  0  0
    6.6540  -13.7830   -7.1890 C   0  0  0  0  0  0  0  0  0  0  0  0
    7.9810  -14.1480   -6.9050 C   0  0  0  0  0  0  0  0  0  0  0  0
    8.9700  -14.2120   -7.8970 C   0  0  0  0  0  0  0  0  0  0  0  0
   10.2670  -14.5940   -7.5810 N   0  0  0  0  0  0  0  0  0  0  0  0
   10.5130  -15.7000   -6.6430 C   0  0  0  0  0  0  0  0  0  0  0  0
   11.8650  -15.5210   -5.9180 C   0  0  0  0  0  0  0  0  0  0  0  0
   12.9930  -15.2980   -6.9200 N   0  0  0  0  0  0  0  0  0  0  0  0
   14.3280  -15.1840   -6.2470 C   0  0  0  0  0  0  0  0  0  0  0  0
   12.6930  -14.0860   -7.7980 C   0  0  0  0  0  0  0  0  0  0  0  0
   11.3490  -14.2690   -8.5310 C   0  0  0  0  0  0  0  0  0  0  0  0
    8.5700  -13.9030   -9.2060 C   0  0  0  0  0  0  0  0  0  0  0  0
    7.2440  -13.5400   -9.5210 C   0  0  0  0  0  0  0  0  0  0  0  0
    6.8620  -13.2510  -10.9540 C   0  0  0  0  0  0  0  0  0  0  0  0
    7.7660  -13.7280  -11.8510 F   0  0  0  0  0  0  0  0  0  0  0  0
    5.6640  -13.8000  -11.2960 F   0  0  0  0  0  0  0  0  0  0  0  0
    6.7500  -11.9170  -11.1940 F   0  0  0  0  0  0  0  0  0  0  0  0
    6.2830  -13.4940   -8.5010 C   0  0  0  0  0  0  0  0  0  0  0  0
    4.5170  -13.0210   -3.2490 C   0  0  0  0  0  0  0  0  0  0  0  0
    6.9760  -13.3630    0.0330 N   0  0  0  0  0  0  0  0  0  0  0  0
   13.1959  -11.0910    0.6427 H   0  0  0  0  0  0  0  0  0  0  0  0
   13.3406  -12.1361   -0.8111 H   0  0  0  0  0  0  0  0  0  0  0  0
   12.1974  -10.7506   -0.8111 H   0  0  0  0  0  0  0  0  0  0  0  0
   11.1312  -11.9746    1.2457 H   0  0  0  0  0  0  0  0  0  0  0  0
   11.4170  -14.2470    1.0870 H   0  0  0  0  0  0  0  0  0  0  0  0
   10.0374  -11.6341   -0.9777 H   0  0  0  0  0  0  0  0  0  0  0  0
   10.7052  -13.2302   -1.4879 H   0  0  0  0  0  0  0  0  0  0  0  0
    9.1930  -14.3070    0.0440 H   0  0  0  0  0  0  0  0  0  0  0  0
    6.8564   -9.7824    1.2575 H   0  0  0  0  0  0  0  0  0  0  0  0
    4.7184  -10.9853    0.9027 H   0  0  0  0  0  0  0  0  0  0  0  0
    4.8440  -15.0621    1.6371 H   0  0  0  0  0  0  0  0  0  0  0  0
    2.4496  -15.8708    0.8208 H   0  0  0  0  0  0  0  0  0  0  0  0
    2.2300  -11.2163   -1.4550 H   0  0  0  0  0  0  0  0  0  0  0  0
    2.3285   -9.8154   -3.5156 H   0  0  0  0  0  0  0  0  0  0  0  0
    3.8283  -10.4664   -5.3949 H   0  0  0  0  0  0  0  0  0  0  0  0
    5.8920  -11.7230   -5.9040 H   0  0  0  0  0  0  0  0  0  0  0  0
    8.2536  -14.3922   -5.8677 H   0  0  0  0  0  0  0  0  0  0  0  0
    9.7053  -15.7251   -5.8967 H   0  0  0  0  0  0  0  0  0  0  0  0
   10.5422  -16.6414   -7.2113 H   0  0  0  0  0  0  0  0  0  0  0  0
   11.8018  -14.6516   -5.2471 H   0  0  0  0  0  0  0  0  0  0  0  0
   12.0799  -16.4341   -5.3434 H   0  0  0  0  0  0  0  0  0  0  0  0
   13.0220  -16.1200   -7.5370 H   0  0  0  0  0  0  0  0  0  0  0  0
   14.1907  -15.1957   -5.1557 H   0  0  0  0  0  0  0  0  0  0  0  0
   14.9628  -16.0312   -6.5458 H   0  0  0  0  0  0  0  0  0  0  0  0
   14.8100  -14.2414   -6.5458 H   0  0  0  0  0  0  0  0  0  0  0  0
   12.6417  -13.1861   -7.1674 H   0  0  0  0  0  0  0  0  0  0  0  0
   13.4938  -13.9810   -8.5447 H   0  0  0  0  0  0  0  0  0  0  0  0
   11.0969  -13.3368   -9.0578 H   0  0  0  0  0  0  0  0  0  0  0  0
   11.4498  -15.1003   -9.2443 H   0  0  0  0  0  0  0  0  0  0  0  0
    9.3156  -13.9453  -10.0136 H   0  0  0  0  0  0  0  0  0  0  0  0
    5.2409  -13.2310   -8.7353 H   0  0  0  0  0  0  0  0  0  0  0  0
    5.1432  -13.9215   -3.1653 H   0  0  0  0  0  0  0  0  0  0  0  0
  1  2  1  0
  2  3  1  0
  2  4  1  0
  4  5  1  0
  5  6  1  0
  6  7  2  0
  7  8  1  0
  8  9  2  0
  9 10  1  0
 10 11  1  0
 11 12  1  0
 12 13  2  0
 13 14  1  0
 14 15  2  0
 15 16  1  0
 16 17  2  0
 17 18  1  0
 18 19  2  0
 19 20  1  0
 20 21  1  0
 21 22  1  0
 22 23  2  0
 22 24  1  0
 24 25  2  0
 25 26  1  0
 26 27  1  0
 27 28  1  0
 28 29  1  0
 29 30  1  0
 30 31  1  0
 30 32  1  0
 32 33  1  0
 26 34  2  0
 34 35  1  0
 35 36  1  0
 36 37  1  0
 36 38  1  0
 36 39  1  0
 35 40  2  0
 20 41  2  0
 10 42  2  0
 42  6  1  0
 15 11  1  0
 41 16  1  0
 40 24  1  0
 33 27  1  0
  1 43  1  0
  1 44  1  0
  1 45  1  0
  2 46  1  1
  3 47  1  0
  4 48  1  0
  4 49  1  0
  5 50  1  0
  8 51  1  0
  9 52  1  0
 12 53  1  0
 13 54  1  0
 17 55  1  0
 18 56  1  0
 19 57  1  0
 21 58  1  0
 25 59  1  0
 28 60  1  0
 28 61  1  0
 29 62  1  0
 29 63  1  0
 30 64  1  0
 31 65  1  0
 31 66  1  0
 31 67  1  0
 32 68  1  0
 32 69  1  0
 33 70  1  0
 33 71  1  0
 34 72  1  0
 40 73  1  0
 41 74  1  0
M  CHG  1  30   1
M  END
>  <meeko>  (7) 
{"is_sidechain": [false], "free_energy": -8.334, "intermolecular_energy": -13.174, "internal_energy": -1.65}

$$$$
LIB_DKFAHLYMYSORAF__M_PUB_ALL__e8__s20260927
     RDKit          3D

 74 78  0  0  0  0  0  0  0  0999 V2000
    8.7510  -14.2350   -0.9310 C   0  0  0  0  0  0  0  0  0  0  0  0
    9.2040  -12.8970   -0.3610 C   0  0  2  0  0  0  0  0  0  0  0  0
    8.7580  -11.8550   -1.2350 O   0  0  0  0  0  0  0  0  0  0  0  0
   10.7300  -12.8100   -0.1630 C   0  0  0  0  0  0  0  0  0  0  0  0
   11.3090  -11.8610   -1.0940 N   0  0  0  0  0  0  0  0  0  0  0  0
   12.2260  -12.2640   -2.0250 C   0  0  0  0  0  0  0  0  0  0  0  0
   13.0830  -11.3880   -2.5570 N   0  0  0  0  0  0  0  0  0  0  0  0
   13.9380  -11.8550   -3.4800 C   0  0  0  0  0  0  0  0  0  0  0  0
   13.9840  -13.1670   -3.8820 C   0  0  0  0  0  0  0  0  0  0  0  0
   13.0880  -14.0110   -3.2660 C   0  0  0  0  0  0  0  0  0  0  0  0
   13.0140  -15.4020   -3.5910 N   0  0  0  0  0  0  0  0  0  0  0  0
   13.9260  -16.3370   -3.1330 C   0  0  0  0  0  0  0  0  0  0  0  0
   13.4550  -17.5610   -3.5250 C   0  0  0  0  0  0  0  0  0  0  0  0
   12.3190  -17.4210   -4.2660 N   0  0  0  0  0  0  0  0  0  0  0  0
   12.0990  -16.1190   -4.3670 C   0  0  0  0  0  0  0  0  0  0  0  0
   11.0700  -15.5680   -5.2480 C   0  0  0  0  0  0  0  0  0  0  0  0
   11.3020  -15.4390   -6.6230 C   0  0  0  0  0  0  0  0  0  0  0  0
   10.3020  -14.9400   -7.4550 C   0  0  0  0  0  0  0  0  0  0  0  0
    9.0630  -14.5810   -6.9190 C   0  0  0  0  0  0  0  0  0  0  0  0
    8.8080  -14.7180   -5.5470 C   0  0  0  0  0  0  0  0  0  0  0  0
    7.5200  -14.3480   -5.0940 N   0  0  0  0  0  0  0  0  0  0  0  0
    7.2020  -13.2870   -4.2660 C   0  0  0  0  0  0  0  0  0  0  0  0
    7.9780  -12.4700   -3.7870 O   0  0  0  0  0  0  0  0  0  0  0  0
    5.7610  -13.1590   -3.9030 C   0  0  0  0  0  0  0  0  0  0  0  0
    5.1690  -14.2300   -3.2130 C   0  0  0  0  0  0  0  0  0  0  0  0
    3.8260  -14.2110   -2.8090 C   0  0  0  0  0  0  0  0  0  0  0  0
    3.2810  -15.2830   -2.1130 N   0  0  0  0  0  0  0  0  0  0  0  0
    1.8280  -15.3810   -1.9080 C   0  0  0  0  0  0  0  0  0  0  0  0
    1.5030  -16.1630   -0.6170 C   0  0  0  0  0  0  0  0  0  0  0  0
    2.2200  -17.5090   -0.6020 N   0  0  0  0  0  0  0  0  0  0  0  0
    1.8720  -18.3190    0.6100 C   0  0  0  0  0  0  0  0  0  0  0  0
    3.7260  -17.3100   -0.7410 C   0  0  0  0  0  0  0  0  0  0  0  0
    4.0530  -16.5390   -2.0350 C   0  0  0  0  0  0  0  0  0  0  0  0
    3.0920  -13.0560   -3.1150 C   0  0  0  0  0  0  0  0  0  0  0  0
    3.6610  -11.9630   -3.8000 C   0  0  0  0  0  0  0  0  0  0  0  0
    2.8320  -10.7300   -4.0740 C   0  0  0  0  0  0  0  0  0  0  0  0
    2.2360  -10.2330   -2.9570 F   0  0  0  0  0  0  0  0  0  0  0  0
    3.5690   -9.7100   -4.5940 F   0  0  0  0  0  0  0  0  0  0  0  0
    1.8360  -10.9710   -4.9660 F   0  0  0  0  0  0  0  0  0  0  0  0
    5.0090  -12.0180   -4.1830 C   0  0  0  0  0  0  0  0  0  0  0  0
    9.8160  -15.2190   -4.7210 C   0  0  0  0  0  0  0  0  0  0  0  0
   12.1950  -13.5590   -2.3510 N   0  0  0  0  0  0  0  0  0  0  0  0
    8.5175  -14.9246   -0.1065 H   0  0  0  0  0  0  0  0  0  0  0  0
    7.8535  -14.0853   -1.5491 H   0  0  0  0  0  0  0  0  0  0  0  0
    9.5549  -14.6613   -1.5491 H   0  0  0  0  0  0  0  0  0  0  0  0
    8.7590  -12.7873    0.6390 H   0  0  0  0  0  0  0  0  0  0  0  0
    8.5240  -11.0960   -0.6650 H   0  0  0  0  0  0  0  0  0  0  0  0
   10.9437  -12.4844    0.8658 H   0  0  0  0  0  0  0  0  0  0  0  0
   11.1698  -13.8016   -0.3457 H   0  0  0  0  0  0  0  0  0  0  0  0
   10.8640  -10.9810   -1.3090 H   0  0  0  0  0  0  0  0  0  0  0  0
   14.6420  -11.1463   -3.9407 H   0  0  0  0  0  0  0  0  0  0  0  0
   14.6911  -13.5207   -4.6468 H   0  0  0  0  0  0  0  0  0  0  0  0
   14.8471  -16.1362   -2.5661 H   0  0  0  0  0  0  0  0  0  0  0  0
   13.9270  -18.5231   -3.2769 H   0  0  0  0  0  0  0  0  0  0  0  0
   12.2741  -15.7318   -7.0464 H   0  0  0  0  0  0  0  0  0  0  0  0
   10.4881  -14.8288   -8.5334 H   0  0  0  0  0  0  0  0  0  0  0  0
    8.2782  -14.1862   -7.5810 H   0  0  0  0  0  0  0  0  0  0  0  0
    6.7710  -14.9600   -5.3900 H   0  0  0  0  0  0  0  0  0  0  0  0
    5.7803  -15.1147   -2.9814 H   0  0  0  0  0  0  0  0  0  0  0  0
    1.4065  -14.3679   -1.8307 H   0  0  0  0  0  0  0  0  0  0  0  0
    1.3888  -15.9169   -2.7624 H   0  0  0  0  0  0  0  0  0  0  0  0
    1.8266  -15.5727    0.2529 H   0  0  0  0  0  0  0  0  0  0  0  0
    0.4183  -16.3417   -0.5775 H   0  0  0  0  0  0  0  0  0  0  0  0
    1.9050  -18.0330   -1.4290 H   0  0  0  0  0  0  0  0  0  0  0  0
    2.1179  -17.7466    1.5166 H   0  0  0  0  0  0  0  0  0  0  0  0
    0.7961  -18.5479    0.6015 H   0  0  0  0  0  0  0  0  0  0  0  0
    2.4465  -19.2570    0.6015 H   0  0  0  0  0  0  0  0  0  0  0  0
    4.0968  -16.7396    0.1234 H   0  0  0  0  0  0  0  0  0  0  0  0
    4.2121  -18.2959   -0.7825 H   0  0  0  0  0  0  0  0  0  0  0  0
    5.1271  -16.3024   -2.0509 H   0  0  0  0  0  0  0  0  0  0  0  0
    3.7840  -17.1693   -2.8955 H   0  0  0  0  0  0  0  0  0  0  0  0
    2.0365  -13.0009   -2.8102 H   0  0  0  0  0  0  0  0  0  0  0  0
    5.4712  -11.1653   -4.7018 H   0  0  0  0  0  0  0  0  0  0  0  0
    9.6256  -15.3418   -3.6446 H   0  0  0  0  0  0  0  0  0  0  0  0
  1  2  1  0
  2  3  1  0
  2  4  1  0
  4  5  1  0
  5  6  1  0
  6  7  2  0
  7  8  1  0
  8  9  2  0
  9 10  1  0
 10 11  1  0
 11 12  1  0
 12 13  2  0
 13 14  1  0
 14 15  2  0
 15 16  1  0
 16 17  2  0
 17 18  1  0
 18 19  2  0
 19 20  1  0
 20 21  1  0
 21 22  1  0
 22 23  2  0
 22 24  1  0
 24 25  2  0
 25 26  1  0
 26 27  1  0
 27 28  1  0
 28 29  1  0
 29 30  1  0
 30 31  1  0
 30 32  1  0
 32 33  1  0
 26 34  2  0
 34 35  1  0
 35 36  1  0
 36 37  1  0
 36 38  1  0
 36 39  1  0
 35 40  2  0
 20 41  2  0
 10 42  2  0
 42  6  1  0
 15 11  1  0
 41 16  1  0
 40 24  1  0
 33 27  1  0
  1 43  1  0
  1 44  1  0
  1 45  1  0
  2 46  1  1
  3 47  1  0
  4 48  1  0
  4 49  1  0
  5 50  1  0
  8 51  1  0
  9 52  1  0
 12 53  1  0
 13 54  1  0
 17 55  1  0
 18 56  1  0
 19 57  1  0
 21 58  1  0
 25 59  1  0
 28 60  1  0
 28 61  1  0
 29 62  1  0
 29 63  1  0
 30 64  1  0
 31 65  1  0
 31 66  1  0
 31 67  1  0
 32 68  1  0
 32 69  1  0
 33 70  1  0
 33 71  1  0
 34 72  1  0
 40 73  1  0
 41 74  1  0
M  CHG  1  30   1
M  END
>  <meeko>  (8) 
{"is_sidechain": [false], "free_energy": -8.274, "intermolecular_energy": -12.084, "internal_energy": -2.647}

$$$$
LIB_DKFAHLYMYSORAF__M_PUB_ALL__e8__s20260927
     RDKit          3D

 74 78  0  0  0  0  0  0  0  0999 V2000
    2.8850  -10.3270   -3.9570 C   0  0  0  0  0  0  0  0  0  0  0  0
    3.8960  -11.4550   -3.7980 C   0  0  2  0  0  0  0  0  0  0  0  0
    4.9070  -11.0330   -2.8780 O   0  0  0  0  0  0  0  0  0  0  0  0
    4.5360  -11.8840   -5.1340 C   0  0  0  0  0  0  0  0  0  0  0  0
    4.5310  -13.3290   -5.2560 N   0  0  0  0  0  0  0  0  0  0  0  0
    5.4410  -14.0930   -4.5790 C   0  0  0  0  0  0  0  0  0  0  0  0
    5.1420  -15.3440   -4.2170 N   0  0  0  0  0  0  0  0  0  0  0  0
    6.0790  -16.0220   -3.5360 C   0  0  0  0  0  0  0  0  0  0  0  0
    7.3120  -15.5080   -3.2170 C   0  0  0  0  0  0  0  0  0  0  0  0
    7.5520  -14.2230   -3.6510 C   0  0  0  0  0  0  0  0  0  0  0  0
    8.7880  -13.5540   -3.3820 N   0  0  0  0  0  0  0  0  0  0  0  0
    9.8900  -13.6350   -4.2150 C   0  0  0  0  0  0  0  0  0  0  0  0
   10.8180  -12.7620   -3.7150 C   0  0  0  0  0  0  0  0  0  0  0  0
   10.3630  -12.1880   -2.5650 N   0  0  0  0  0  0  0  0  0  0  0  0
    9.1740  -12.7220   -2.3280 C   0  0  0  0  0  0  0  0  0  0  0  0
    8.4510  -12.4920   -1.0770 C   0  0  0  0  0  0  0  0  0  0  0  0
    9.1450  -12.2460    0.1130 C   0  0  0  0  0  0  0  0  0  0  0  0
    8.4420  -11.9990    1.2910 C   0  0  0  0  0  0  0  0  0  0  0  0
    7.0460  -11.9850    1.2800 C   0  0  0  0  0  0  0  0  0  0  0  0
    6.3350  -12.2140    0.0950 C   0  0  0  0  0  0  0  0  0  0  0  0
    4.9240  -12.1620    0.1720 N   0  0  0  0  0  0  0  0  0  0  0  0
    4.0450  -13.2240    0.0670 C   0  0  0  0  0  0  0  0  0  0  0  0
    4.3320  -14.4030   -0.1000 O   0  0  0  0  0  0  0  0  0  0  0  0
    2.5960  -12.8750    0.1340 C   0  0  0  0  0  0  0  0  0  0  0  0
    1.7090  -13.8740    0.5700 C   0  0  0  0  0  0  0  0  0  0  0  0
    0.3290  -13.6520    0.6880 C   0  0  0  0  0  0  0  0  0  0  0  0
   -0.5140  -14.6600    1.1390 N   0  0  0  0  0  0  0  0  0  0  0  0
   -1.2640  -14.5020    2.3950 C   0  0  0  0  0  0  0  0  0  0  0  0
   -1.5470  -15.8730    3.0470 C   0  0  0  0  0  0  0  0  0  0  0  0
   -2.2050  -16.8220    2.0510 N   0  0  0  0  0  0  0  0  0  0  0  0
   -2.5500  -18.1410    2.6750 C   0  0  0  0  0  0  0  0  0  0  0  0
   -1.3240  -16.9900    0.8150 C   0  0  0  0  0  0  0  0  0  0  0  0
   -1.0500  -15.6230    0.1570 C   0  0  0  0  0  0  0  0  0  0  0  0
   -0.1330  -12.3700    0.3590 C   0  0  0  0  0  0  0  0  0  0  0  0
    0.7340  -11.3460   -0.0740 C   0  0  0  0  0  0  0  0  0  0  0  0
    0.1850   -9.9720   -0.3830 C   0  0  0  0  0  0  0  0  0  0  0  0
    0.5800   -9.5040   -1.5970 F   0  0  0  0  0  0  0  0  0  0  0  0
   -1.1760   -9.9440   -0.3930 F   0  0  0  0  0  0  0  0  0  0  0  0
    0.5770   -9.0470    0.5320 F   0  0  0  0  0  0  0  0  0  0  0  0
    2.1090  -11.6050   -0.1730 C   0  0  0  0  0  0  0  0  0  0  0  0
    7.0470  -12.4600   -1.0810 C   0  0  0  0  0  0  0  0  0  0  0  0
    6.6130  -13.5070   -4.3150 N   0  0  0  0  0  0  0  0  0  0  0  0
    2.5694   -9.9748   -2.9639 H   0  0  0  0  0  0  0  0  0  0  0  0
    3.3466   -9.4963   -4.5110 H   0  0  0  0  0  0  0  0  0  0  0  0
    2.0089  -10.6952   -4.5110 H   0  0  0  0  0  0  0  0  0  0  0  0
    3.3623  -12.3378   -3.4162 H   0  0  0  0  0  0  0  0  0  0  0  0
    5.7620  -11.3250   -3.2510 H   0  0  0  0  0  0  0  0  0  0  0  0
    3.9641  -11.4480   -5.9664 H   0  0  0  0  0  0  0  0  0  0  0  0
    5.5761  -11.5271   -5.1622 H   0  0  0  0  0  0  0  0  0  0  0  0
    3.7170  -13.8390   -5.5670 H   0  0  0  0  0  0  0  0  0  0  0  0
    5.8461  -17.0480   -3.2150 H   0  0  0  0  0  0  0  0  0  0  0  0
    8.0590  -16.0848   -2.6519 H   0  0  0  0  0  0  0  0  0  0  0  0
    9.9987  -14.2745   -5.1034 H   0  0  0  0  0  0  0  0  0  0  0  0
   11.7944  -12.5527   -4.1764 H   0  0  0  0  0  0  0  0  0  0  0  0
   10.2450  -12.2476    0.1188 H   0  0  0  0  0  0  0  0  0  0  0  0
    8.9868  -11.8152    2.2288 H   0  0  0  0  0  0  0  0  0  0  0  0
    6.4975  -11.7917    2.2137 H   0  0  0  0  0  0  0  0  0  0  0  0
    4.5360  -11.2350    0.2800 H   0  0  0  0  0  0  0  0  0  0  0  0
    2.1110  -14.8649    0.8278 H   0  0  0  0  0  0  0  0  0  0  0  0
   -0.6743  -13.8875    3.0912 H   0  0  0  0  0  0  0  0  0  0  0  0
   -2.2248  -14.0157    2.1706 H   0  0  0  0  0  0  0  0  0  0  0  0
   -0.5984  -16.3116    3.3901 H   0  0  0  0  0  0  0  0  0  0  0  0
   -2.2302  -15.7247    3.8963 H   0  0  0  0  0  0  0  0  0  0  0  0
   -3.0810  -16.3830    1.7410 H   0  0  0  0  0  0  0  0  0  0  0  0
   -2.5251  -18.0460    3.7706 H   0  0  0  0  0  0  0  0  0  0  0  0
   -3.5579  -18.4451    2.3561 H   0  0  0  0  0  0  0  0  0  0  0  0
   -1.8201  -18.8996    2.3561 H   0  0  0  0  0  0  0  0  0  0  0  0
   -0.3683  -17.4472    1.1111 H   0  0  0  0  0  0  0  0  0  0  0  0
   -1.8450  -17.6347    0.0919 H   0  0  0  0  0  0  0  0  0  0  0  0
   -0.3184  -15.7545   -0.6538 H   0  0  0  0  0  0  0  0  0  0  0  0
   -1.9977  -15.2287   -0.2385 H   0  0  0  0  0  0  0  0  0  0  0  0
   -1.2088  -12.1557    0.4415 H   0  0  0  0  0  0  0  0  0  0  0  0
    2.7997  -10.8102   -0.4912 H   0  0  0  0  0  0  0  0  0  0  0  0
    6.5019  -12.6306   -2.0211 H   0  0  0  0  0  0  0  0  0  0  0  0
  1  2  1  0
  2  3  1  0
  2  4  1  0
  4  5  1  0
  5  6  1  0
  6  7  2  0
  7  8  1  0
  8  9  2  0
  9 10  1  0
 10 11  1  0
 11 12  1  0
 12 13  2  0
 13 14  1  0
 14 15  2  0
 15 16  1  0
 16 17  2  0
 17 18  1  0
 18 19  2  0
 19 20  1  0
 20 21  1  0
 21 22  1  0
 22 23  2  0
 22 24  1  0
 24 25  2  0
 25 26  1  0
 26 27  1  0
 27 28  1  0
 28 29  1  0
 29 30  1  0
 30 31  1  0
 30 32  1  0
 32 33  1  0
 26 34  2  0
 34 35  1  0
 35 36  1  0
 36 37  1  0
 36 38  1  0
 36 39  1  0
 35 40  2  0
 20 41  2  0
 10 42  2  0
 42  6  1  0
 15 11  1  0
 41 16  1  0
 40 24  1  0
 33 27  1  0
  1 43  1  0
  1 44  1  0
  1 45  1  0
  2 46  1  1
  3 47  1  0
  4 48  1  0
  4 49  1  0
  5 50  1  0
  8 51  1  0
  9 52  1  0
 12 53  1  0
 13 54  1  0
 17 55  1  0
 18 56  1  0
 19 57  1  0
 21 58  1  0
 25 59  1  0
 28 60  1  0
 28 61  1  0
 29 62  1  0
 29 63  1  0
 30 64  1  0
 31 65  1  0
 31 66  1  0
 31 67  1  0
 32 68  1  0
 32 69  1  0
 33 70  1  0
 33 71  1  0
 34 72  1  0
 40 73  1  0
 41 74  1  0
M  CHG  1  30   1
M  END
>  <meeko>  (9) 
{"is_sidechain": [false], "free_energy": -8.143, "intermolecular_energy": -12.332, "internal_energy": -2.195}

$$$$
