LIB_VULLSLYDWNGNKZ__M_PUB_ALL__e8__s20260927
     RDKit          3D

 83 87  0  0  0  0  0  0  0  0999 V2000
   -1.7770  -10.0740    1.1920 C   0  0  0  0  0  0  0  0  0  0  0  0
   -1.1860  -11.2990    0.4790 C   0  0  2  0  0  0  0  0  0  0  0  0
   -1.4880  -12.5390    1.3310 C   0  0  0  0  0  0  0  0  0  0  0  0
   -1.0790  -13.8120    0.6060 C   0  0  0  0  0  0  0  0  0  0  0  0
    0.4070  -13.8430    0.1730 C   0  0  2  0  0  0  0  0  0  0  0  0
    0.3480  -15.0610   -0.8160 C   0  0  0  0  0  0  0  0  0  0  0  0
    0.3650  -14.7810   -2.0500 O   0  0  0  0  0  0  0  0  0  0  0  0
    0.2280  -16.2020   -0.2810 O   0  0  0  0  0  0  0  0  0  0  0  0
    1.3210  -14.1210    1.3750 C   0  0  0  0  0  0  0  0  0  0  0  0
    2.7770  -14.3150    0.9530 C   0  0  0  0  0  0  0  0  0  0  0  0
    3.3690  -13.2070    0.0290 C   0  0  2  0  0  0  0  0  0  0  0  0
    3.8600  -12.0640    0.9700 C   0  0  0  0  0  0  0  0  0  0  0  0
    2.3330  -12.5560   -0.9110 C   0  0  0  0  0  0  0  0  0  0  0  0
    2.7150  -12.0520   -2.1050 C   0  0  0  0  0  0  0  0  0  0  0  0
    4.1080  -12.0320   -2.6550 C   0  0  0  0  0  0  0  0  0  0  0  0
    5.1900  -12.6570   -1.7430 C   0  0  2  0  0  0  0  0  0  0  0  0
    6.5820  -12.9310   -2.4760 C   0  0  1  0  0  0  0  0  0  0  0  0
    6.4360  -13.9260   -3.6600 C   0  0  0  0  0  0  0  0  0  0  0  0
    7.1410  -11.5920   -3.0690 C   0  0  1  0  0  0  0  0  0  0  0  0
    7.0900  -10.5380   -2.0940 O   0  0  0  0  0  0  0  0  0  0  0  0
    8.5990  -11.6930   -3.5440 C   0  0  1  0  0  0  0  0  0  0  0  0
    9.0410  -10.3780   -3.9470 O   0  0  0  0  0  0  0  0  0  0  0  0
    9.5290  -12.1960   -2.4320 C   0  0  2  0  0  0  0  0  0  0  0  0
   10.8690  -12.2300   -2.9590 O   0  0  0  0  0  0  0  0  0  0  0  0
    9.1000  -13.5560   -1.8090 C   0  0  0  0  0  0  0  0  0  0  0  0
    9.3950  -14.7390   -2.7530 C   0  0  0  0  0  0  0  0  0  0  0  0
    9.9910  -13.7800   -0.5550 C   0  0  0  0  0  0  0  0  0  0  0  0
    7.5860  -13.4520   -1.3730 C   0  0  2  0  0  0  0  0  0  0  0  0
    7.0330  -14.7150   -0.6770 C   0  0  0  0  0  0  0  0  0  0  0  0
    5.7060  -14.4330    0.0300 C   0  0  0  0  0  0  0  0  0  0  0  0
    4.5950  -13.8240   -0.8700 C   0  0  1  0  0  0  0  0  0  0  0  0
    4.0610  -14.9800   -1.7780 C   0  0  0  0  0  0  0  0  0  0  0  0
    0.8330  -12.5310   -0.5380 C   0  0  2  0  0  0  0  0  0  0  0  0
    0.3420  -11.2030    0.1810 C   0  0  1  0  0  0  0  0  0  0  0  0
    0.6460   -9.9670   -0.6900 C   0  0  0  0  0  0  0  0  0  0  0  0
    1.0100  -11.0060    1.4330 O   0  0  0  0  0  0  0  0  0  0  0  0
   -1.7089  -10.2152    2.2808 H   0  0  0  0  0  0  0  0  0  0  0  0
   -1.2138   -9.1744    0.9030 H   0  0  0  0  0  0  0  0  0  0  0  0
   -2.8317   -9.9549    0.9030 H   0  0  0  0  0  0  0  0  0  0  0  0
   -1.6616  -11.3601   -0.5110 H   0  0  0  0  0  0  0  0  0  0  0  0
   -0.9314  -12.4694    2.2772 H   0  0  0  0  0  0  0  0  0  0  0  0
   -2.5706  -12.5773    1.5223 H   0  0  0  0  0  0  0  0  0  0  0  0
   -1.2614  -14.6650    1.2761 H   0  0  0  0  0  0  0  0  0  0  0  0
   -1.6788  -13.8593   -0.3148 H   0  0  0  0  0  0  0  0  0  0  0  0
    1.2628  -13.2703    2.0699 H   0  0  0  0  0  0  0  0  0  0  0  0
    0.9791  -15.0500    1.8547 H   0  0  0  0  0  0  0  0  0  0  0  0
    3.3901  -14.3568    1.8653 H   0  0  0  0  0  0  0  0  0  0  0  0
    2.7952  -15.2407    0.3590 H   0  0  0  0  0  0  0  0  0  0  0  0
    3.7285  -12.3702    2.0183 H   0  0  0  0  0  0  0  0  0  0  0  0
    4.9241  -11.8624    0.7776 H   0  0  0  0  0  0  0  0  0  0  0  0
    3.2737  -11.1534    0.7776 H   0  0  0  0  0  0  0  0  0  0  0  0
    1.9263  -11.6138   -2.7343 H   0  0  0  0  0  0  0  0  0  0  0  0
    4.1053  -12.5844   -3.6062 H   0  0  0  0  0  0  0  0  0  0  0  0
    4.3769  -10.9707   -2.7612 H   0  0  0  0  0  0  0  0  0  0  0  0
    5.4964  -11.8989   -1.0072 H   0  0  0  0  0  0  0  0  0  0  0  0
    6.2868  -14.9429   -3.2681 H   0  0  0  0  0  0  0  0  0  0  0  0
    5.5703  -13.6394   -4.2752 H   0  0  0  0  0  0  0  0  0  0  0  0
    7.3475  -13.9002   -4.2752 H   0  0  0  0  0  0  0  0  0  0  0  0
    6.4969  -11.3764   -3.9343 H   0  0  0  0  0  0  0  0  0  0  0  0
    6.1820  -10.5770   -1.7330 H   0  0  0  0  0  0  0  0  0  0  0  0
    8.6396  -12.4091   -4.3780 H   0  0  0  0  0  0  0  0  0  0  0  0
    8.3390  -10.0420   -4.5390 H   0  0  0  0  0  0  0  0  0  0  0  0
    9.4694  -11.4968   -1.5849 H   0  0  0  0  0  0  0  0  0  0  0  0
   11.4200  -12.7520   -2.3510 H   0  0  0  0  0  0  0  0  0  0  0  0
    9.6188  -15.6364   -2.1574 H   0  0  0  0  0  0  0  0  0  0  0  0
    8.5169  -14.9296   -3.3875 H   0  0  0  0  0  0  0  0  0  0  0  0
   10.2598  -14.4950   -3.3875 H   0  0  0  0  0  0  0  0  0  0  0  0
    9.3898  -13.6289    0.3537 H   0  0  0  0  0  0  0  0  0  0  0  0
   10.3879  -14.8059   -0.5657 H   0  0  0  0  0  0  0  0  0  0  0  0
   10.8258  -13.0638   -0.5657 H   0  0  0  0  0  0  0  0  0  0  0  0
    7.6360  -12.6535   -0.6181 H   0  0  0  0  0  0  0  0  0  0  0  0
    6.8755  -15.4989   -1.4325 H   0  0  0  0  0  0  0  0  0  0  0  0
    7.7635  -15.0390    0.0789 H   0  0  0  0  0  0  0  0  0  0  0  0
    5.3301  -15.3820    0.4400 H   0  0  0  0  0  0  0  0  0  0  0  0
    5.9239  -13.6783    0.8000 H   0  0  0  0  0  0  0  0  0  0  0  0
    3.6833  -15.7976   -1.1465 H   0  0  0  0  0  0  0  0  0  0  0  0
    3.2467  -14.6011   -2.4131 H   0  0  0  0  0  0  0  0  0  0  0  0
    4.8774  -15.3544   -2.4131 H   0  0  0  0  0  0  0  0  0  0  0  0
    0.2833  -12.4950   -1.4901 H   0  0  0  0  0  0  0  0  0  0  0  0
    0.8582   -9.1044   -0.0412 H   0  0  0  0  0  0  0  0  0  0  0  0
    1.5205  -10.1720   -1.3250 H   0  0  0  0  0  0  0  0  0  0  0  0
   -0.2238   -9.7430   -1.3250 H   0  0  0  0  0  0  0  0  0  0  0  0
    1.7190  -10.3580    1.3030 H   0  0  0  0  0  0  0  0  0  0  0  0
  1  2  1  0
  2  3  1  0
  3  4  1  0
  4  5  1  0
  5  6  1  6
  6  7  2  0
  6  8  1  0
  5  9  1  0
  9 10  1  0
 10 11  1  0
 11 12  1  1
 11 13  1  0
 13 14  2  0
 14 15  1  0
 15 16  1  0
 16 17  1  0
 17 18  1  6
 17 19  1  0
 19 20  1  0
 19 21  1  0
 21 22  1  0
 21 23  1  0
 23 24  1  0
 23 25  1  0
 25 26  1  0
 25 27  1  0
 25 28  1  0
 28 29  1  0
 29 30  1  0
 30 31  1  0
 31 32  1  6
 13 33  1  0
 33 34  1  0
 34 35  1  0
 34 36  1  1
 34  2  1  0
 33  5  1  0
 31 11  1  0
 31 16  1  0
 28 17  1  0
  1 37  1  0
  1 38  1  0
  1 39  1  0
  2 40  1  6
  3 41  1  0
  3 42  1  0
  4 43  1  0
  4 44  1  0
  9 45  1  0
  9 46  1  0
 10 47  1  0
 10 48  1  0
 12 49  1  0
 12 50  1  0
 12 51  1  0
 14 52  1  0
 15 53  1  0
 15 54  1  0
 16 55  1  1
 18 56  1  0
 18 57  1  0
 18 58  1  0
 19 59  1  6
 20 60  1  0
 21 61  1  6
 22 62  1  0
 23 63  1  1
 24 64  1  0
 26 65  1  0
 26 66  1  0
 26 67  1  0
 27 68  1  0
 27 69  1  0
 27 70  1  0
 28 71  1  1
 29 72  1  0
 29 73  1  0
 30 74  1  0
 30 75  1  0
 32 76  1  0
 32 77  1  0
 32 78  1  0
 33 79  1  6
 35 80  1  0
 35 81  1  0
 35 82  1  0
 36 83  1  0
M  CHG  1   8  -1
M  END
>  <meeko>  (1) 
{"is_sidechain": [false], "free_energy": -8.893, "intermolecular_energy": -10.452, "internal_energy": -0.142}

$$$$
LIB_VULLSLYDWNGNKZ__M_PUB_ALL__e8__s20260927
     RDKit          3D

 83 87  0  0  0  0  0  0  0  0999 V2000
    1.0500  -13.5840   -5.0990 C   0  0  0  0  0  0  0  0  0  0  0  0
    1.9290  -14.3630   -4.1100 C   0  0  2  0  0  0  0  0  0  0  0  0
    1.1940  -14.4210   -2.7630 C   0  0  0  0  0  0  0  0  0  0  0  0
    1.9280  -15.3210   -1.7800 C   0  0  0  0  0  0  0  0  0  0  0  0
    3.4030  -14.9200   -1.5370 C   0  0  2  0  0  0  0  0  0  0  0  0
    3.8950  -16.2260   -0.8160 C   0  0  0  0  0  0  0  0  0  0  0  0
    4.4040  -17.1160   -1.5570 O   0  0  0  0  0  0  0  0  0  0  0  0
    3.6780  -16.2830    0.4300 O   0  0  0  0  0  0  0  0  0  0  0  0
    3.4920  -13.6890   -0.6230 C   0  0  0  0  0  0  0  0  0  0  0  0
    4.9360  -13.3670   -0.2370 C   0  0  0  0  0  0  0  0  0  0  0  0
    5.9490  -13.2770   -1.4180 C   0  0  2  0  0  0  0  0  0  0  0  0
    5.8430  -11.8260   -1.9810 C   0  0  0  0  0  0  0  0  0  0  0  0
    5.6160  -14.2090   -2.6030 C   0  0  0  0  0  0  0  0  0  0  0  0
    6.6010  -14.6900   -3.3920 C   0  0  0  0  0  0  0  0  0  0  0  0
    8.0650  -14.4010   -3.2600 C   0  0  0  0  0  0  0  0  0  0  0  0
    8.4530  -13.4560   -2.0970 C   0  0  2  0  0  0  0  0  0  0  0  0
   10.0150  -13.4350   -1.7680 C   0  0  1  0  0  0  0  0  0  0  0  0
   10.5450  -14.8300   -1.3400 C   0  0  0  0  0  0  0  0  0  0  0  0
   10.8200  -13.0120   -3.0460 C   0  0  1  0  0  0  0  0  0  0  0  0
   10.2430  -11.8440   -3.6520 O   0  0  0  0  0  0  0  0  0  0  0  0
   12.2940  -12.6870   -2.7610 C   0  0  1  0  0  0  0  0  0  0  0  0
   12.8960  -12.1910   -3.9770 O   0  0  0  0  0  0  0  0  0  0  0  0
   12.4460  -11.6150   -1.6740 C   0  0  2  0  0  0  0  0  0  0  0  0
   13.8520  -11.3590   -1.4990 O   0  0  0  0  0  0  0  0  0  0  0  0
   11.7320  -11.9600   -0.3350 C   0  0  0  0  0  0  0  0  0  0  0  0
   12.4930  -13.0410    0.4600 C   0  0  0  0  0  0  0  0  0  0  0  0
   11.7740  -10.6790    0.5430 C   0  0  0  0  0  0  0  0  0  0  0  0
   10.2320  -12.3400   -0.6500 C   0  0  2  0  0  0  0  0  0  0  0  0
    9.3760  -12.6500    0.5970 C   0  0  0  0  0  0  0  0  0  0  0  0
    7.8820  -12.6550    0.2680 C   0  0  0  0  0  0  0  0  0  0  0  0
    7.4640  -13.6130   -0.8820 C   0  0  1  0  0  0  0  0  0  0  0  0
    7.5170  -15.0660   -0.3070 C   0  0  0  0  0  0  0  0  0  0  0  0
    4.1620  -14.6630   -2.8650 C   0  0  2  0  0  0  0  0  0  0  0  0
    3.3650  -13.7840   -3.9210 C   0  0  1  0  0  0  0  0  0  0  0  0
    4.1110  -13.7420   -5.2690 C   0  0  0  0  0  0  0  0  0  0  0  0
    3.2250  -12.4300   -3.4770 O   0  0  0  0  0  0  0  0  0  0  0  0
    0.3402  -12.9549   -4.5419 H   0  0  0  0  0  0  0  0  0  0  0  0
    1.6858  -12.9473   -5.7318 H   0  0  0  0  0  0  0  0  0  0  0  0
    0.4944  -14.2917   -5.7318 H   0  0  0  0  0  0  0  0  0  0  0  0
    2.0848  -15.3665   -4.5328 H   0  0  0  0  0  0  0  0  0  0  0  0
    1.1310  -13.4061   -2.3436 H   0  0  0  0  0  0  0  0  0  0  0  0
    0.1874  -14.8319   -2.9303 H   0  0  0  0  0  0  0  0  0  0  0  0
    1.3973  -15.2863   -0.8171 H   0  0  0  0  0  0  0  0  0  0  0  0
    1.9415  -16.3285   -2.2212 H   0  0  0  0  0  0  0  0  0  0  0  0
    3.0635  -12.8236   -1.1497 H   0  0  0  0  0  0  0  0  0  0  0  0
    2.9341  -13.9088    0.2992 H   0  0  0  0  0  0  0  0  0  0  0  0
    4.9382  -12.3983    0.2843 H   0  0  0  0  0  0  0  0  0  0  0  0
    5.2746  -14.2095    0.3839 H   0  0  0  0  0  0  0  0  0  0  0  0
    5.7908  -11.1117   -1.1461 H   0  0  0  0  0  0  0  0  0  0  0  0
    6.7275  -11.6062   -2.5969 H   0  0  0  0  0  0  0  0  0  0  0  0
    4.9360  -11.7370   -2.5969 H   0  0  0  0  0  0  0  0  0  0  0  0
    6.2989  -15.3590   -4.2112 H   0  0  0  0  0  0  0  0  0  0  0  0
    8.5874  -15.3572   -3.1090 H   0  0  0  0  0  0  0  0  0  0  0  0
    8.3555  -13.8796   -4.1840 H   0  0  0  0  0  0  0  0  0  0  0  0
    8.3048  -12.4194   -2.4338 H   0  0  0  0  0  0  0  0  0  0  0  0
   10.5686  -14.8922   -0.2420 H   0  0  0  0  0  0  0  0  0  0  0  0
    9.8814  -15.6121   -1.7374 H   0  0  0  0  0  0  0  0  0  0  0  0
   11.5605  -14.9741   -1.7374 H   0  0  0  0  0  0  0  0  0  0  0  0
   10.7683  -13.8841   -3.7144 H   0  0  0  0  0  0  0  0  0  0  0  0
   10.3380  -11.1410   -2.9770 H   0  0  0  0  0  0  0  0  0  0  0  0
   12.7851  -13.6059   -2.4083 H   0  0  0  0  0  0  0  0  0  0  0  0
   13.8060  -11.9330   -3.7270 H   0  0  0  0  0  0  0  0  0  0  0  0
   11.9316  -10.7026   -2.0100 H   0  0  0  0  0  0  0  0  0  0  0  0
   13.9570  -10.7500   -0.7480 H   0  0  0  0  0  0  0  0  0  0  0  0
   12.3662  -12.8609    1.5377 H   0  0  0  0  0  0  0  0  0  0  0  0
   12.0933  -14.0335    0.2046 H   0  0  0  0  0  0  0  0  0  0  0  0
   13.5621  -12.9995    0.2046 H   0  0  0  0  0  0  0  0  0  0  0  0
   11.7647  -10.9625    1.6058 H   0  0  0  0  0  0  0  0  0  0  0  0
   12.6912  -10.1132    0.3224 H   0  0  0  0  0  0  0  0  0  0  0  0
   10.8959  -10.0543    0.3224 H   0  0  0  0  0  0  0  0  0  0  0  0
    9.8601  -11.3990   -1.0814 H   0  0  0  0  0  0  0  0  0  0  0  0
    9.6588  -13.6388    0.9872 H   0  0  0  0  0  0  0  0  0  0  0  0
    9.5608  -11.8648    1.3448 H   0  0  0  0  0  0  0  0  0  0  0  0
    7.3343  -12.9515    1.1747 H   0  0  0  0  0  0  0  0  0  0  0  0
    7.6406  -11.6387   -0.0766 H   0  0  0  0  0  0  0  0  0  0  0  0
    7.5155  -15.0256    0.7923 H   0  0  0  0  0  0  0  0  0  0  0  0
    6.6388  -15.6301   -0.6544 H   0  0  0  0  0  0  0  0  0  0  0  0
    8.4339  -15.5646   -0.6544 H   0  0  0  0  0  0  0  0  0  0  0  0
    4.2337  -15.6330   -3.3787 H   0  0  0  0  0  0  0  0  0  0  0  0
    5.1941  -13.6810   -5.0869 H   0  0  0  0  0  0  0  0  0  0  0  0
    3.8861  -14.6542   -5.8411 H   0  0  0  0  0  0  0  0  0  0  0  0
    3.7852  -12.8608   -5.8411 H   0  0  0  0  0  0  0  0  0  0  0  0
    2.4430  -12.0480   -3.9030 H   0  0  0  0  0  0  0  0  0  0  0  0
  1  2  1  0
  2  3  1  0
  3  4  1  0
  4  5  1  0
  5  6  1  1
  6  7  2  0
  6  8  1  0
  5  9  1  0
  9 10  1  0
 10 11  1  0
 11 12  1  6
 11 13  1  0
 13 14  2  0
 14 15  1  0
 15 16  1  0
 16 17  1  0
 17 18  1  1
 17 19  1  0
 19 20  1  0
 19 21  1  0
 21 22  1  0
 21 23  1  0
 23 24  1  0
 23 25  1  0
 25 26  1  0
 25 27  1  0
 25 28  1  0
 28 29  1  0
 29 30  1  0
 30 31  1  0
 31 32  1  1
 13 33  1  0
 33 34  1  0
 34 35  1  0
 34 36  1  1
 34  2  1  0
 33  5  1  0
 31 11  1  0
 31 16  1  0
 28 17  1  0
  1 37  1  0
  1 38  1  0
  1 39  1  0
  2 40  1  6
  3 41  1  0
  3 42  1  0
  4 43  1  0
  4 44  1  0
  9 45  1  0
  9 46  1  0
 10 47  1  0
 10 48  1  0
 12 49  1  0
 12 50  1  0
 12 51  1  0
 14 52  1  0
 15 53  1  0
 15 54  1  0
 16 55  1  6
 18 56  1  0
 18 57  1  0
 18 58  1  0
 19 59  1  6
 20 60  1  0
 21 61  1  1
 22 62  1  0
 23 63  1  6
 24 64  1  0
 26 65  1  0
 26 66  1  0
 26 67  1  0
 27 68  1  0
 27 69  1  0
 27 70  1  0
 28 71  1  6
 29 72  1  0
 29 73  1  0
 30 74  1  0
 30 75  1  0
 32 76  1  0
 32 77  1  0
 32 78  1  0
 33 79  1  6
 35 80  1  0
 35 81  1  0
 35 82  1  0
 36 83  1  0
M  CHG  1   8  -1
M  END
>  <meeko>  (2) 
{"is_sidechain": [false], "free_energy": -8.777, "intermolecular_energy": -10.326, "internal_energy": -0.131}

$$$$
LIB_VULLSLYDWNGNKZ__M_PUB_ALL__e8__s20260927
     RDKit          3D

 83 87  0  0  0  0  0  0  0  0999 V2000
    0.8400  -15.8970   -0.9750 C   0  0  0  0  0  0  0  0  0  0  0  0
    1.7030  -14.7640   -1.5520 C   0  0  2  0  0  0  0  0  0  0  0  0
    1.1560  -14.4090   -2.9420 C   0  0  0  0  0  0  0  0  0  0  0  0
    1.8560  -13.1820   -3.5060 C   0  0  0  0  0  0  0  0  0  0  0  0
    3.3970  -13.3140   -3.5840 C   0  0  2  0  0  0  0  0  0  0  0  0
    3.7580  -11.8070   -3.8340 C   0  0  0  0  0  0  0  0  0  0  0  0
    4.1710  -11.1560   -2.8300 O   0  0  0  0  0  0  0  0  0  0  0  0
    3.5440  -11.3740   -5.0050 O   0  0  0  0  0  0  0  0  0  0  0  0
    3.8090  -14.2090   -4.7620 C   0  0  0  0  0  0  0  0  0  0  0  0
    5.3250  -14.2290   -4.9610 C   0  0  0  0  0  0  0  0  0  0  0  0
    6.1720  -14.5330   -3.6880 C   0  0  2  0  0  0  0  0  0  0  0  0
    6.2320  -16.0860   -3.5590 C   0  0  0  0  0  0  0  0  0  0  0  0
    5.5330  -14.0300   -2.3760 C   0  0  0  0  0  0  0  0  0  0  0  0
    6.3100  -13.6820   -1.3270 C   0  0  0  0  0  0  0  0  0  0  0  0
    7.8060  -13.7420   -1.2730 C   0  0  0  0  0  0  0  0  0  0  0  0
    8.4970  -14.2560   -2.5580 C   0  0  2  0  0  0  0  0  0  0  0  0
   10.0710  -13.9920   -2.6030 C   0  0  1  0  0  0  0  0  0  0  0  0
   10.4160  -12.4800   -2.5450 C   0  0  0  0  0  0  0  0  0  0  0  0
   10.7560  -14.6670   -1.3630 C   0  0  1  0  0  0  0  0  0  0  0  0
   10.3040  -16.0200   -1.2010 O   0  0  0  0  0  0  0  0  0  0  0  0
   12.2890  -14.7140   -1.4610 C   0  0  1  0  0  0  0  0  0  0  0  0
   12.7950  -15.4640   -0.3350 O   0  0  0  0  0  0  0  0  0  0  0  0
   12.7590  -15.4010   -2.7500 C   0  0  2  0  0  0  0  0  0  0  0  0
   14.1990  -15.4230   -2.7380 O   0  0  0  0  0  0  0  0  0  0  0  0
   12.1840  -14.7720   -4.0530 C   0  0  0  0  0  0  0  0  0  0  0  0
   12.8570  -13.4240   -4.3850 C   0  0  0  0  0  0  0  0  0  0  0  0
   12.5550  -15.7310   -5.2190 C   0  0  0  0  0  0  0  0  0  0  0  0
   10.6140  -14.6830   -3.9160 C   0  0  2  0  0  0  0  0  0  0  0  0
    9.8940  -14.1320   -5.1660 C   0  0  0  0  0  0  0  0  0  0  0  0
    8.3890  -14.4030   -5.1140 C   0  0  0  0  0  0  0  0  0  0  0  0
    7.6680  -13.8760   -3.8420 C   0  0  1  0  0  0  0  0  0  0  0  0
    7.5570  -12.3240   -3.9910 C   0  0  0  0  0  0  0  0  0  0  0  0
    4.0020  -13.8500   -2.2610 C   0  0  2  0  0  0  0  0  0  0  0  0
    3.2270  -15.0860   -1.6330 C   0  0  1  0  0  0  0  0  0  0  0  0
    3.7820  -15.4260   -0.2360 C   0  0  0  0  0  0  0  0  0  0  0  0
    3.3730  -16.2610   -2.4390 O   0  0  0  0  0  0  0  0  0  0  0  0
    0.8700  -15.8576    0.1239 H   0  0  0  0  0  0  0  0  0  0  0  0
   -0.1984  -15.7780   -1.3179 H   0  0  0  0  0  0  0  0  0  0  0  0
    1.2306  -16.8665   -1.3179 H   0  0  0  0  0  0  0  0  0  0  0  0
    1.6323  -13.9137   -0.8577 H   0  0  0  0  0  0  0  0  0  0  0  0
    1.3184  -15.2595   -3.6205 H   0  0  0  0  0  0  0  0  0  0  0  0
    0.0822  -14.1888   -2.8504 H   0  0  0  0  0  0  0  0  0  0  0  0
    1.4728  -13.0016   -4.5212 H   0  0  0  0  0  0  0  0  0  0  0  0
    1.6430  -12.3506   -2.8179 H   0  0  0  0  0  0  0  0  0  0  0  0
    3.4625  -15.2347   -4.5673 H   0  0  0  0  0  0  0  0  0  0  0  0
    3.3510  -13.8019   -5.6755 H   0  0  0  0  0  0  0  0  0  0  0  0
    5.5567  -14.9983   -5.7123 H   0  0  0  0  0  0  0  0  0  0  0  0
    5.5999  -13.2086   -5.2663 H   0  0  0  0  0  0  0  0  0  0  0  0
    6.2428  -16.3654   -2.4951 H   0  0  0  0  0  0  0  0  0  0  0  0
    5.3503  -16.5287   -4.0454 H   0  0  0  0  0  0  0  0  0  0  0  0
    7.1452  -16.4593   -4.0454 H   0  0  0  0  0  0  0  0  0  0  0  0
    5.7944  -13.3196   -0.4254 H   0  0  0  0  0  0  0  0  0  0  0  0
    8.1791  -12.7273   -1.0699 H   0  0  0  0  0  0  0  0  0  0  0  0
    8.0516  -14.4696   -0.4854 H   0  0  0  0  0  0  0  0  0  0  0  0
    8.4780  -15.3557   -2.5390 H   0  0  0  0  0  0  0  0  0  0  0  0
   10.4889  -12.1606   -1.4949 H   0  0  0  0  0  0  0  0  0  0  0  0
   11.3775  -12.3037   -3.0495 H   0  0  0  0  0  0  0  0  0  0  0  0
    9.6262  -11.9041   -3.0495 H   0  0  0  0  0  0  0  0  0  0  0  0
   10.4713  -14.0391   -0.5058 H   0  0  0  0  0  0  0  0  0  0  0  0
    9.8240  -16.2240   -2.0290 H   0  0  0  0  0  0  0  0  0  0  0  0
   12.6653  -13.6804   -1.4646 H   0  0  0  0  0  0  0  0  0  0  0  0
   13.6750  -15.7870   -0.6170 H   0  0  0  0  0  0  0  0  0  0  0  0
   12.3615  -16.4266   -2.7641 H   0  0  0  0  0  0  0  0  0  0  0  0
   14.5150  -14.9320   -3.5160 H   0  0  0  0  0  0  0  0  0  0  0  0
   13.1166  -12.9040   -3.4511 H   0  0  0  0  0  0  0  0  0  0  0  0
   13.7707  -13.6047   -4.9703 H   0  0  0  0  0  0  0  0  0  0  0  0
   12.1635  -12.8023   -4.9703 H   0  0  0  0  0  0  0  0  0  0  0  0
   12.9231  -16.6826   -4.8081 H   0  0  0  0  0  0  0  0  0  0  0  0
   11.6645  -15.9185   -5.8370 H   0  0  0  0  0  0  0  0  0  0  0  0
   13.3398  -15.2704   -5.8370 H   0  0  0  0  0  0  0  0  0  0  0  0
   10.3479  -15.7462   -3.8220 H   0  0  0  0  0  0  0  0  0  0  0  0
   10.0594  -13.0460   -5.2237 H   0  0  0  0  0  0  0  0  0  0  0  0
   10.3047  -14.6394   -6.0514 H   0  0  0  0  0  0  0  0  0  0  0  0
    7.9263  -13.9257   -5.9904 H   0  0  0  0  0  0  0  0  0  0  0  0
    8.2749  -15.4970   -5.0998 H   0  0  0  0  0  0  0  0  0  0  0  0
    7.5239  -11.8613   -2.9936 H   0  0  0  0  0  0  0  0  0  0  0  0
    8.4303  -11.9452   -4.5421 H   0  0  0  0  0  0  0  0  0  0  0  0
    6.6386  -12.0733   -4.5421 H   0  0  0  0  0  0  0  0  0  0  0  0
    3.8423  -13.0687   -1.5033 H   0  0  0  0  0  0  0  0  0  0  0  0
    3.1124  -15.0158    0.5343 H   0  0  0  0  0  0  0  0  0  0  0  0
    3.8457  -16.5183   -0.1226 H   0  0  0  0  0  0  0  0  0  0  0  0
    4.7840  -14.9866   -0.1226 H   0  0  0  0  0  0  0  0  0  0  0  0
    4.3190  -16.4170   -2.5820 H   0  0  0  0  0  0  0  0  0  0  0  0
  1  2  1  0
  2  3  1  0
  3  4  1  0
  4  5  1  0
  5  6  1  6
  6  7  2  0
  6  8  1  0
  5  9  1  0
  9 10  1  0
 10 11  1  0
 11 12  1  1
 11 13  1  0
 13 14  2  0
 14 15  1  0
 15 16  1  0
 16 17  1  0
 17 18  1  6
 17 19  1  0
 19 20  1  0
 19 21  1  0
 21 22  1  0
 21 23  1  0
 23 24  1  0
 23 25  1  0
 25 26  1  0
 25 27  1  0
 25 28  1  0
 28 29  1  0
 29 30  1  0
 30 31  1  0
 31 32  1  6
 13 33  1  0
 33 34  1  0
 34 35  1  0
 34 36  1  6
 34  2  1  0
 33  5  1  0
 31 11  1  0
 31 16  1  0
 28 17  1  0
  1 37  1  0
  1 38  1  0
  1 39  1  0
  2 40  1  1
  3 41  1  0
  3 42  1  0
  4 43  1  0
  4 44  1  0
  9 45  1  0
  9 46  1  0
 10 47  1  0
 10 48  1  0
 12 49  1  0
 12 50  1  0
 12 51  1  0
 14 52  1  0
 15 53  1  0
 15 54  1  0
 16 55  1  1
 18 56  1  0
 18 57  1  0
 18 58  1  0
 19 59  1  1
 20 60  1  0
 21 61  1  1
 22 62  1  0
 23 63  1  1
 24 64  1  0
 26 65  1  0
 26 66  1  0
 26 67  1  0
 27 68  1  0
 27 69  1  0
 27 70  1  0
 28 71  1  1
 29 72  1  0
 29 73  1  0
 30 74  1  0
 30 75  1  0
 32 76  1  0
 32 77  1  0
 32 78  1  0
 33 79  1  1
 35 80  1  0
 35 81  1  0
 35 82  1  0
 36 83  1  0
M  CHG  1   8  -1
M  END
>  <meeko>  (3) 
{"is_sidechain": [false], "free_energy": -8.306, "intermolecular_energy": -9.756, "internal_energy": -0.148}

$$$$
LIB_VULLSLYDWNGNKZ__M_PUB_ALL__e8__s20260927
     RDKit          3D

 83 87  0  0  0  0  0  0  0  0999 V2000
   -1.0600  -16.7780    5.0310 C   0  0  0  0  0  0  0  0  0  0  0  0
   -1.1800  -16.2670    3.5880 C   0  0  2  0  0  0  0  0  0  0  0  0
   -1.7550  -17.3990    2.7260 C   0  0  0  0  0  0  0  0  0  0  0  0
   -2.0590  -16.9120    1.3170 C   0  0  0  0  0  0  0  0  0  0  0  0
   -0.8440  -16.2870    0.5900 C   0  0  2  0  0  0  0  0  0  0  0  0
   -1.6010  -15.6010   -0.6020 C   0  0  0  0  0  0  0  0  0  0  0  0
   -2.0660  -14.4450   -0.3790 O   0  0  0  0  0  0  0  0  0  0  0  0
   -1.7240  -16.2970   -1.6530 O   0  0  0  0  0  0  0  0  0  0  0  0
    0.1240  -17.3770    0.1070 C   0  0  0  0  0  0  0  0  0  0  0  0
    1.2500  -16.8010   -0.7520 C   0  0  0  0  0  0  0  0  0  0  0  0
    2.0140  -15.5860   -0.1440 C   0  0  2  0  0  0  0  0  0  0  0  0
    3.1150  -16.1800    0.7880 C   0  0  0  0  0  0  0  0  0  0  0  0
    1.1440  -14.6870    0.7600 C   0  0  0  0  0  0  0  0  0  0  0  0
    1.4210  -13.3710    0.8850 C   0  0  0  0  0  0  0  0  0  0  0  0
    2.5470  -12.6350    0.2270 C   0  0  0  0  0  0  0  0  0  0  0  0
    3.4630  -13.4940   -0.6770 C   0  0  2  0  0  0  0  0  0  0  0  0
    4.4300  -12.6440   -1.6220 C   0  0  1  0  0  0  0  0  0  0  0  0
    3.6420  -11.7350   -2.6040 C   0  0  0  0  0  0  0  0  0  0  0  0
    5.3310  -11.7040   -0.7480 C   0  0  1  0  0  0  0  0  0  0  0  0
    5.9210  -12.4270    0.3430 O   0  0  0  0  0  0  0  0  0  0  0  0
    6.4830  -11.0570   -1.5320 C   0  0  1  0  0  0  0  0  0  0  0  0
    7.3120  -10.3230   -0.6050 O   0  0  0  0  0  0  0  0  0  0  0  0
    7.3560  -12.1060   -2.2350 C   0  0  2  0  0  0  0  0  0  0  0  0
    8.4180  -11.4110   -2.9150 O   0  0  0  0  0  0  0  0  0  0  0  0
    6.5690  -13.0610   -3.1790 C   0  0  0  0  0  0  0  0  0  0  0  0
    6.1520  -12.3590   -4.4880 C   0  0  0  0  0  0  0  0  0  0  0  0
    7.5500  -14.1910   -3.5970 C   0  0  0  0  0  0  0  0  0  0  0  0
    5.3600  -13.6770   -2.3740 C   0  0  2  0  0  0  0  0  0  0  0  0
    4.5180  -14.6990   -3.1670 C   0  0  0  0  0  0  0  0  0  0  0  0
    3.6060  -15.5140   -2.2480 C   0  0  0  0  0  0  0  0  0  0  0  0
    2.6600  -14.6740   -1.3440 C   0  0  1  0  0  0  0  0  0  0  0  0
    1.5240  -14.1200   -2.2650 C   0  0  0  0  0  0  0  0  0  0  0  0
   -0.0990  -15.2580    1.4800 C   0  0  2  0  0  0  0  0  0  0  0  0
    0.1530  -15.7390    2.9730 C   0  0  1  0  0  0  0  0  0  0  0  0
    0.7230  -14.5890    3.8270 C   0  0  0  0  0  0  0  0  0  0  0  0
    1.1020  -16.8100    3.0260 O   0  0  0  0  0  0  0  0  0  0  0  0
   -1.2542  -15.9512    5.7301 H   0  0  0  0  0  0  0  0  0  0  0  0
   -1.7943  -17.5798    5.1983 H   0  0  0  0  0  0  0  0  0  0  0  0
   -0.0456  -17.1691    5.1983 H   0  0  0  0  0  0  0  0  0  0  0  0
   -1.8467  -15.3923    3.6073 H   0  0  0  0  0  0  0  0  0  0  0  0
   -1.0227  -18.2181    2.6731 H   0  0  0  0  0  0  0  0  0  0  0  0
   -2.6916  -17.7478    3.1855 H   0  0  0  0  0  0  0  0  0  0  0  0
   -2.4136  -17.7681    0.7243 H   0  0  0  0  0  0  0  0  0  0  0  0
   -2.8154  -16.1189    1.4112 H   0  0  0  0  0  0  0  0  0  0  0  0
    0.5646  -17.8748    0.9834 H   0  0  0  0  0  0  0  0  0  0  0  0
   -0.4447  -18.0885   -0.5096 H   0  0  0  0  0  0  0  0  0  0  0  0
    1.9808  -17.6031   -0.9324 H   0  0  0  0  0  0  0  0  0  0  0  0
    0.7658  -16.4229   -1.6645 H   0  0  0  0  0  0  0  0  0  0  0  0
    2.8285  -16.0254    1.8387 H   0  0  0  0  0  0  0  0  0  0  0  0
    3.2200  -17.2572    0.5912 H   0  0  0  0  0  0  0  0  0  0  0  0
    4.0729  -15.6763    0.5912 H   0  0  0  0  0  0  0  0  0  0  0  0
    0.7548  -12.7827    1.5331 H   0  0  0  0  0  0  0  0  0  0  0  0
    2.1140  -11.8348   -0.3913 H   0  0  0  0  0  0  0  0  0  0  0  0
    3.1860  -12.2665    1.0430 H   0  0  0  0  0  0  0  0  0  0  0  0
    4.2014  -13.9976   -0.0358 H   0  0  0  0  0  0  0  0  0  0  0  0
    3.0264  -11.0248   -2.0325 H   0  0  0  0  0  0  0  0  0  0  0  0
    4.3494  -11.1798   -3.2376 H   0  0  0  0  0  0  0  0  0  0  0  0
    2.9921  -12.3564   -3.2376 H   0  0  0  0  0  0  0  0  0  0  0  0
    4.6525  -10.9148   -0.3919 H   0  0  0  0  0  0  0  0  0  0  0  0
    6.3960  -13.1720   -0.0790 H   0  0  0  0  0  0  0  0  0  0  0  0
    6.0490  -10.3985   -2.2989 H   0  0  0  0  0  0  0  0  0  0  0  0
    6.8430  -10.3710    0.2520 H   0  0  0  0  0  0  0  0  0  0  0  0
    7.7691  -12.7837   -1.4734 H   0  0  0  0  0  0  0  0  0  0  0  0
    9.2280  -11.9450   -2.8370 H   0  0  0  0  0  0  0  0  0  0  0  0
    5.6035  -11.4356   -4.2502 H   0  0  0  0  0  0  0  0  0  0  0  0
    7.0498  -12.1117   -5.0735 H   0  0  0  0  0  0  0  0  0  0  0  0
    5.5054  -13.0291   -5.0735 H   0  0  0  0  0  0  0  0  0  0  0  0
    7.9644  -14.6684   -2.6968 H   0  0  0  0  0  0  0  0  0  0  0  0
    7.0118  -14.9411   -4.1951 H   0  0  0  0  0  0  0  0  0  0  0  0
    8.3683  -13.7635   -4.1951 H   0  0  0  0  0  0  0  0  0  0  0  0
    5.8904  -14.2279   -1.5833 H   0  0  0  0  0  0  0  0  0  0  0  0
    3.8977  -14.1595   -3.8978 H   0  0  0  0  0  0  0  0  0  0  0  0
    5.2063  -15.3933   -3.6711 H   0  0  0  0  0  0  0  0  0  0  0  0
    2.9843  -16.1677   -2.8774 H   0  0  0  0  0  0  0  0  0  0  0  0
    4.2710  -16.0652   -1.5669 H   0  0  0  0  0  0  0  0  0  0  0  0
    0.7087  -13.7224   -1.6428 H   0  0  0  0  0  0  0  0  0  0  0  0
    1.9258  -13.3167   -2.9000 H   0  0  0  0  0  0  0  0  0  0  0  0
    1.1385  -14.9312   -2.9000 H   0  0  0  0  0  0  0  0  0  0  0  0
   -0.7848  -14.4097    1.6218 H   0  0  0  0  0  0  0  0  0  0  0  0
    0.6034  -14.8302    4.8935 H   0  0  0  0  0  0  0  0  0  0  0  0
    1.7909  -14.4570    3.5984 H   0  0  0  0  0  0  0  0  0  0  0  0
    0.1814  -13.6593    3.5984 H   0  0  0  0  0  0  0  0  0  0  0  0
    0.9340  -17.4040    2.2790 H   0  0  0  0  0  0  0  0  0  0  0  0
  1  2  1  0
  2  3  1  0
  3  4  1  0
  4  5  1  0
  5  6  1  6
  6  7  2  0
  6  8  1  0
  5  9  1  0
  9 10  1  0
 10 11  1  0
 11 12  1  1
 11 13  1  0
 13 14  2  0
 14 15  1  0
 15 16  1  0
 16 17  1  0
 17 18  1  6
 17 19  1  0
 19 20  1  0
 19 21  1  0
 21 22  1  0
 21 23  1  0
 23 24  1  0
 23 25  1  0
 25 26  1  0
 25 27  1  0
 25 28  1  0
 28 29  1  0
 29 30  1  0
 30 31  1  0
 31 32  1  6
 13 33  1  0
 33 34  1  0
 34 35  1  0
 34 36  1  6
 34  2  1  0
 33  5  1  0
 31 11  1  0
 31 16  1  0
 28 17  1  0
  1 37  1  0
  1 38  1  0
  1 39  1  0
  2 40  1  1
  3 41  1  0
  3 42  1  0
  4 43  1  0
  4 44  1  0
  9 45  1  0
  9 46  1  0
 10 47  1  0
 10 48  1  0
 12 49  1  0
 12 50  1  0
 12 51  1  0
 14 52  1  0
 15 53  1  0
 15 54  1  0
 16 55  1  1
 18 56  1  0
 18 57  1  0
 18 58  1  0
 19 59  1  1
 20 60  1  0
 21 61  1  6
 22 62  1  0
 23 63  1  1
 24 64  1  0
 26 65  1  0
 26 66  1  0
 26 67  1  0
 27 68  1  0
 27 69  1  0
 27 70  1  0
 28 71  1  1
 29 72  1  0
 29 73  1  0
 30 74  1  0
 30 75  1  0
 32 76  1  0
 32 77  1  0
 32 78  1  0
 33 79  1  1
 35 80  1  0
 35 81  1  0
 35 82  1  0
 36 83  1  0
M  CHG  1   8  -1
M  END
>  <meeko>  (4) 
{"is_sidechain": [false], "free_energy": -8.05, "intermolecular_energy": -9.504, "internal_energy": -0.1}

$$$$
LIB_VULLSLYDWNGNKZ__M_PUB_ALL__e8__s20260927
     RDKit          3D

 83 87  0  0  0  0  0  0  0  0999 V2000
   -4.1960  -17.8400    4.2570 C   0  0  0  0  0  0  0  0  0  0  0  0
   -2.7320  -17.3850    4.3290 C   0  0  2  0  0  0  0  0  0  0  0  0
   -2.5920  -16.4130    5.5100 C   0  0  0  0  0  0  0  0  0  0  0  0
   -1.1340  -16.0490    5.7470 C   0  0  0  0  0  0  0  0  0  0  0  0
   -0.4230  -15.4500    4.5090 C   0  0  2  0  0  0  0  0  0  0  0  0
    1.0620  -15.5600    5.0040 C   0  0  0  0  0  0  0  0  0  0  0  0
    1.7500  -16.4980    4.5070 O   0  0  0  0  0  0  0  0  0  0  0  0
    1.4090  -14.7330    5.8990 O   0  0  0  0  0  0  0  0  0  0  0  0
   -0.8500  -13.9910    4.2870 C   0  0  0  0  0  0  0  0  0  0  0  0
   -0.0470  -13.3250    3.1700 C   0  0  0  0  0  0  0  0  0  0  0  0
    0.0260  -14.1100    1.8260 C   0  0  2  0  0  0  0  0  0  0  0  0
   -1.2650  -13.7430    1.0300 C   0  0  0  0  0  0  0  0  0  0  0  0
   -0.0100  -15.6440    1.9930 C   0  0  0  0  0  0  0  0  0  0  0  0
    0.5980  -16.4450    1.0910 C   0  0  0  0  0  0  0  0  0  0  0  0
    1.3330  -16.0000   -0.1360 C   0  0  0  0  0  0  0  0  0  0  0  0
    1.3840  -14.4700   -0.3620 C   0  0  2  0  0  0  0  0  0  0  0  0
    2.4430  -14.0090   -1.4640 C   0  0  1  0  0  0  0  0  0  0  0  0
    3.8960  -14.4030   -1.0850 C   0  0  0  0  0  0  0  0  0  0  0  0
    2.1210  -14.7050   -2.8320 C   0  0  1  0  0  0  0  0  0  0  0  0
    0.7250  -14.5910   -3.1500 O   0  0  0  0  0  0  0  0  0  0  0  0
    2.9010  -14.1160   -4.0180 C   0  0  1  0  0  0  0  0  0  0  0  0
    2.4310  -14.7440   -5.2310 O   0  0  0  0  0  0  0  0  0  0  0  0
    2.6900  -12.6010   -4.1450 C   0  0  2  0  0  0  0  0  0  0  0  0
    3.4320  -12.1480   -5.2930 O   0  0  0  0  0  0  0  0  0  0  0  0
    3.0380  -11.7990   -2.8570 C   0  0  0  0  0  0  0  0  0  0  0  0
    4.5610  -11.6890   -2.6430 C   0  0  0  0  0  0  0  0  0  0  0  0
    2.5330  -10.3460   -3.0800 C   0  0  0  0  0  0  0  0  0  0  0  0
    2.2700  -12.4480   -1.6400 C   0  0  2  0  0  0  0  0  0  0  0  0
    2.4690  -11.7170   -0.2950 C   0  0  0  0  0  0  0  0  0  0  0  0
    1.4410  -12.1610    0.7460 C   0  0  0  0  0  0  0  0  0  0  0  0
    1.3850  -13.6920    1.0070 C   0  0  1  0  0  0  0  0  0  0  0  0
    2.6500  -14.0570    1.8510 C   0  0  0  0  0  0  0  0  0  0  0  0
   -0.6780  -16.2880    3.2300 C   0  0  2  0  0  0  0  0  0  0  0  0
   -2.1890  -16.7310    3.0210 C   0  0  1  0  0  0  0  0  0  0  0  0
   -2.3120  -17.7100    1.8370 C   0  0  0  0  0  0  0  0  0  0  0  0
   -3.0280  -15.6090    2.7240 O   0  0  0  0  0  0  0  0  0  0  0  0
   -4.5922  -17.9631    5.2757 H   0  0  0  0  0  0  0  0  0  0  0  0
   -4.7891  -17.0838    3.7218 H   0  0  0  0  0  0  0  0  0  0  0  0
   -4.2560  -18.7992    3.7218 H   0  0  0  0  0  0  0  0  0  0  0  0
   -2.1177  -18.2869    4.4680 H   0  0  0  0  0  0  0  0  0  0  0  0
   -3.1604  -15.4970    5.2912 H   0  0  0  0  0  0  0  0  0  0  0  0
   -2.9824  -16.9022    6.4146 H   0  0  0  0  0  0  0  0  0  0  0  0
   -1.0902  -15.3109    6.5614 H   0  0  0  0  0  0  0  0  0  0  0  0
   -0.6094  -16.9841    5.9927 H   0  0  0  0  0  0  0  0  0  0  0  0
   -1.9167  -13.9696    4.0193 H   0  0  0  0  0  0  0  0  0  0  0  0
   -0.6632  -13.4360    5.2182 H   0  0  0  0  0  0  0  0  0  0  0  0
   -0.5033  -12.3455    2.9643 H   0  0  0  0  0  0  0  0  0  0  0  0
    0.9876  -13.2682    3.5391 H   0  0  0  0  0  0  0  0  0  0  0  0
   -2.0772  -13.5121    1.7350 H   0  0  0  0  0  0  0  0  0  0  0  0
   -1.0683  -12.8652    0.3970 H   0  0  0  0  0  0  0  0  0  0  0  0
   -1.5595  -14.5930    0.3970 H   0  0  0  0  0  0  0  0  0  0  0  0
    0.5486  -17.5283    1.2753 H   0  0  0  0  0  0  0  0  0  0  0  0
    2.3675  -16.3668   -0.0634 H   0  0  0  0  0  0  0  0  0  0  0  0
    0.7756  -16.4136   -0.9894 H   0  0  0  0  0  0  0  0  0  0  0  0
    0.4449  -14.1636   -0.8459 H   0  0  0  0  0  0  0  0  0  0  0  0
    3.9948  -14.4298    0.0102 H   0  0  0  0  0  0  0  0  0  0  0  0
    4.1263  -15.3960   -1.4983 H   0  0  0  0  0  0  0  0  0  0  0  0
    4.5964  -13.6623   -1.4983 H   0  0  0  0  0  0  0  0  0  0  0  0
    2.4209  -15.7541   -2.6922 H   0  0  0  0  0  0  0  0  0  0  0  0
    0.4590  -15.4910   -3.4270 H   0  0  0  0  0  0  0  0  0  0  0  0
    3.9722  -14.3026   -3.8516 H   0  0  0  0  0  0  0  0  0  0  0  0
    2.0640  -15.6060   -4.9480 H   0  0  0  0  0  0  0  0  0  0  0  0
    1.6159  -12.4082   -4.2834 H   0  0  0  0  0  0  0  0  0  0  0  0
    2.7970  -11.9580   -6.0060 H   0  0  0  0  0  0  0  0  0  0  0  0
    4.7796  -11.6732   -1.5651 H   0  0  0  0  0  0  0  0  0  0  0  0
    5.0597  -12.5535   -3.1056 H   0  0  0  0  0  0  0  0  0  0  0  0
    4.9303  -10.7618   -3.1056 H   0  0  0  0  0  0  0  0  0  0  0  0
    2.3650   -9.8627   -2.1062 H   0  0  0  0  0  0  0  0  0  0  0  0
    3.2867   -9.7787   -3.6458 H   0  0  0  0  0  0  0  0  0  0  0  0
    1.5899  -10.3684   -3.6458 H   0  0  0  0  0  0  0  0  0  0  0  0
    1.2238  -12.2992   -1.9456 H   0  0  0  0  0  0  0  0  0  0  0  0
    3.4781  -11.9360    0.0842 H   0  0  0  0  0  0  0  0  0  0  0  0
    2.3390  -10.6385   -0.4678 H   0  0  0  0  0  0  0  0  0  0  0  0
    1.6813  -11.6620    1.6964 H   0  0  0  0  0  0  0  0  0  0  0  0
    0.4564  -11.8833    0.3416 H   0  0  0  0  0  0  0  0  0  0  0  0
    2.4088  -13.9874    2.9220 H   0  0  0  0  0  0  0  0  0  0  0  0
    2.9665  -15.0831    1.6123 H   0  0  0  0  0  0  0  0  0  0  0  0
    3.4645  -13.3572    1.6123 H   0  0  0  0  0  0  0  0  0  0  0  0
   -0.1730  -17.2534    3.3816 H   0  0  0  0  0  0  0  0  0  0  0  0
   -2.4406  -18.7334    2.2193 H   0  0  0  0  0  0  0  0  0  0  0  0
   -3.1827  -17.4357    1.2234 H   0  0  0  0  0  0  0  0  0  0  0  0
   -1.4005  -17.6596    1.2234 H   0  0  0  0  0  0  0  0  0  0  0  0
   -2.5900  -15.0700    2.0490 H   0  0  0  0  0  0  0  0  0  0  0  0
  1  2  1  0
  2  3  1  0
  3  4  1  0
  4  5  1  0
  5  6  1  1
  6  7  2  0
  6  8  1  0
  5  9  1  0
  9 10  1  0
 10 11  1  0
 11 12  1  6
 11 13  1  0
 13 14  2  0
 14 15  1  0
 15 16  1  0
 16 17  1  0
 17 18  1  1
 17 19  1  0
 19 20  1  0
 19 21  1  0
 21 22  1  0
 21 23  1  0
 23 24  1  0
 23 25  1  0
 25 26  1  0
 25 27  1  0
 25 28  1  0
 28 29  1  0
 29 30  1  0
 30 31  1  0
 31 32  1  1
 13 33  1  0
 33 34  1  0
 34 35  1  0
 34 36  1  6
 34  2  1  0
 33  5  1  0
 31 11  1  0
 31 16  1  0
 28 17  1  0
  1 37  1  0
  1 38  1  0
  1 39  1  0
  2 40  1  1
  3 41  1  0
  3 42  1  0
  4 43  1  0
  4 44  1  0
  9 45  1  0
  9 46  1  0
 10 47  1  0
 10 48  1  0
 12 49  1  0
 12 50  1  0
 12 51  1  0
 14 52  1  0
 15 53  1  0
 15 54  1  0
 16 55  1  6
 18 56  1  0
 18 57  1  0
 18 58  1  0
 19 59  1  1
 20 60  1  0
 21 61  1  1
 22 62  1  0
 23 63  1  6
 24 64  1  0
 26 65  1  0
 26 66  1  0
 26 67  1  0
 27 68  1  0
 27 69  1  0
 27 70  1  0
 28 71  1  6
 29 72  1  0
 29 73  1  0
 30 74  1  0
 30 75  1  0
 32 76  1  0
 32 77  1  0
 32 78  1  0
 33 79  1  1
 35 80  1  0
 35 81  1  0
 35 82  1  0
 36 83  1  0
M  CHG  1   8  -1
M  END
>  <meeko>  (5) 
{"is_sidechain": [false], "free_energy": -8.042, "intermolecular_energy": -9.451, "internal_energy": -0.143}

$$$$
LIB_VULLSLYDWNGNKZ__M_PUB_ALL__e8__s20260927
     RDKit          3D

 83 87  0  0  0  0  0  0  0  0999 V2000
   15.3410  -15.7340  -13.3040 C   0  0  0  0  0  0  0  0  0  0  0  0
   14.9210  -16.5670  -12.0850 C   0  0  2  0  0  0  0  0  0  0  0  0
   13.7600  -17.4790  -12.5070 C   0  0  0  0  0  0  0  0  0  0  0  0
   13.4010  -18.4540  -11.3950 C   0  0  0  0  0  0  0  0  0  0  0  0
   13.0490  -17.7740  -10.0500 C   0  0  2  0  0  0  0  0  0  0  0  0
   13.1100  -19.0350   -9.1170 C   0  0  0  0  0  0  0  0  0  0  0  0
   14.1740  -19.1860   -8.4480 O   0  0  0  0  0  0  0  0  0  0  0  0
   12.1110  -19.8110   -9.1700 O   0  0  0  0  0  0  0  0  0  0  0  0
   11.6410  -17.1610  -10.0980 C   0  0  0  0  0  0  0  0  0  0  0  0
   11.2050  -16.6240   -8.7360 C   0  0  0  0  0  0  0  0  0  0  0  0
   12.2170  -15.6760   -8.0250 C   0  0  2  0  0  0  0  0  0  0  0  0
   11.9610  -14.2480   -8.5980 C   0  0  0  0  0  0  0  0  0  0  0  0
   13.6950  -15.9900   -8.3350 C   0  0  0  0  0  0  0  0  0  0  0  0
   14.6590  -15.7070   -7.4320 C   0  0  0  0  0  0  0  0  0  0  0  0
   14.4590  -15.0700   -6.0910 C   0  0  0  0  0  0  0  0  0  0  0  0
   12.9940  -14.7170   -5.7360 C   0  0  2  0  0  0  0  0  0  0  0  0
   12.7640  -14.3640   -4.1960 C   0  0  1  0  0  0  0  0  0  0  0  0
   13.1240  -15.5500   -3.2600 C   0  0  0  0  0  0  0  0  0  0  0  0
   13.6820  -13.1600   -3.7860 C   0  0  1  0  0  0  0  0  0  0  0  0
   13.5870  -12.0940   -4.7430 O   0  0  0  0  0  0  0  0  0  0  0  0
   13.3330  -12.5640   -2.4130 C   0  0  1  0  0  0  0  0  0  0  0  0
   14.1520  -11.3930   -2.2020 O   0  0  0  0  0  0  0  0  0  0  0  0
   11.8590  -12.1440   -2.3300 C   0  0  2  0  0  0  0  0  0  0  0  0
   11.6360  -11.5740   -1.0270 O   0  0  0  0  0  0  0  0  0  0  0  0
   10.8520  -13.2840   -2.6620 C   0  0  0  0  0  0  0  0  0  0  0  0
   10.7470  -14.3090   -1.5150 C   0  0  0  0  0  0  0  0  0  0  0  0
    9.4480  -12.6270   -2.7750 C   0  0  0  0  0  0  0  0  0  0  0  0
   11.2540  -13.9200   -4.0490 C   0  0  2  0  0  0  0  0  0  0  0  0
   10.3030  -15.0310   -4.5430 C   0  0  0  0  0  0  0  0  0  0  0  0
   10.5280  -15.3500   -6.0220 C   0  0  0  0  0  0  0  0  0  0  0  0
   11.9870  -15.7290   -6.4010 C   0  0  1  0  0  0  0  0  0  0  0  0
   12.2310  -17.1810   -5.8740 C   0  0  0  0  0  0  0  0  0  0  0  0
   14.0930  -16.6990   -9.6500 C   0  0  2  0  0  0  0  0  0  0  0  0
   14.5230  -15.7270  -10.8310 C   0  0  1  0  0  0  0  0  0  0  0  0
   15.6930  -14.8230  -10.3940 C   0  0  0  0  0  0  0  0  0  0  0  0
   13.4490  -14.8630  -11.2190 O   0  0  0  0  0  0  0  0  0  0  0  0
   15.8121  -14.7996  -12.9649 H   0  0  0  0  0  0  0  0  0  0  0  0
   16.0579  -16.3071  -13.9103 H   0  0  0  0  0  0  0  0  0  0  0  0
   14.4540  -15.4984  -13.9103 H   0  0  0  0  0  0  0  0  0  0  0  0
   15.8001  -17.1474  -11.7684 H   0  0  0  0  0  0  0  0  0  0  0  0
   12.8816  -16.8590  -12.7394 H   0  0  0  0  0  0  0  0  0  0  0  0
   14.0700  -18.0547  -13.3916 H   0  0  0  0  0  0  0  0  0  0  0  0
   12.5329  -19.0457  -11.7209 H   0  0  0  0  0  0  0  0  0  0  0  0
   14.2923  -19.0729  -11.2147 H   0  0  0  0  0  0  0  0  0  0  0  0
   11.6380  -16.3342  -10.8235 H   0  0  0  0  0  0  0  0  0  0  0  0
   10.9356  -17.9516  -10.3936 H   0  0  0  0  0  0  0  0  0  0  0  0
   10.2652  -16.0699   -8.8768 H   0  0  0  0  0  0  0  0  0  0  0  0
   11.1118  -17.5047   -8.0836 H   0  0  0  0  0  0  0  0  0  0  0  0
   11.8336  -13.5373   -7.7681 H   0  0  0  0  0  0  0  0  0  0  0  0
   12.8185  -13.9413   -9.2150 H   0  0  0  0  0  0  0  0  0  0  0  0
   11.0504  -14.2583   -9.2150 H   0  0  0  0  0  0  0  0  0  0  0  0
   15.6908  -15.9698   -7.7081 H   0  0  0  0  0  0  0  0  0  0  0  0
   14.8359  -15.7645   -5.3257 H   0  0  0  0  0  0  0  0  0  0  0  0
   15.0016  -14.1138   -6.1255 H   0  0  0  0  0  0  0  0  0  0  0  0
   12.7517  -13.7504   -6.2018 H   0  0  0  0  0  0  0  0  0  0  0  0
   13.0275  -15.2319   -2.2114 H   0  0  0  0  0  0  0  0  0  0  0  0
   12.4403  -16.3899   -3.4528 H   0  0  0  0  0  0  0  0  0  0  0  0
   14.1592  -15.8681   -3.4528 H   0  0  0  0  0  0  0  0  0  0  0  0
   14.6981  -13.5795   -3.7460 H   0  0  0  0  0  0  0  0  0  0  0  0
   14.0590  -12.4260   -5.5330 H   0  0  0  0  0  0  0  0  0  0  0  0
   13.5165  -13.3328   -1.6479 H   0  0  0  0  0  0  0  0  0  0  0  0
   13.6370  -10.8260   -1.5930 H   0  0  0  0  0  0  0  0  0  0  0  0
   11.6644  -11.3957   -3.1125 H   0  0  0  0  0  0  0  0  0  0  0  0
   12.3860  -11.8180   -0.4580 H   0  0  0  0  0  0  0  0  0  0  0  0
   10.8007  -13.7853   -0.5492 H   0  0  0  0  0  0  0  0  0  0  0  0
    9.7892  -14.8450   -1.5888 H   0  0  0  0  0  0  0  0  0  0  0  0
   11.5762  -15.0280   -1.5888 H   0  0  0  0  0  0  0  0  0  0  0  0
    9.0485  -12.4400   -1.7673 H   0  0  0  0  0  0  0  0  0  0  0  0
    9.5316  -11.6745   -3.3188 H   0  0  0  0  0  0  0  0  0  0  0  0
    8.7703  -13.3015   -3.3188 H   0  0  0  0  0  0  0  0  0  0  0  0
   11.1323  -13.0579   -4.7213 H   0  0  0  0  0  0  0  0  0  0  0  0
   10.4795  -15.9411   -3.9509 H   0  0  0  0  0  0  0  0  0  0  0  0
    9.2686  -14.6770   -4.4214 H   0  0  0  0  0  0  0  0  0  0  0  0
    9.8759  -16.1939   -6.2915 H   0  0  0  0  0  0  0  0  0  0  0  0
   10.2991  -14.4257   -6.5727 H   0  0  0  0  0  0  0  0  0  0  0  0
   12.2303  -17.1768   -4.7740 H   0  0  0  0  0  0  0  0  0  0  0  0
   11.4314  -17.8426   -6.2386 H   0  0  0  0  0  0  0  0  0  0  0  0
   13.2029  -17.5449   -6.2386 H   0  0  0  0  0  0  0  0  0  0  0  0
   15.0298  -17.2345   -9.4361 H   0  0  0  0  0  0  0  0  0  0  0  0
   15.7386  -14.7877   -9.2955 H   0  0  0  0  0  0  0  0  0  0  0  0
   16.6367  -15.2289  -10.7874 H   0  0  0  0  0  0  0  0  0  0  0  0
   15.5384  -13.8074  -10.7874 H   0  0  0  0  0  0  0  0  0  0  0  0
   13.8270  -14.0370  -11.5550 H   0  0  0  0  0  0  0  0  0  0  0  0
  1  2  1  0
  2  3  1  0
  3  4  1  0
  4  5  1  0
  5  6  1  1
  6  7  2  0
  6  8  1  0
  5  9  1  0
  9 10  1  0
 10 11  1  0
 11 12  1  6
 11 13  1  0
 13 14  2  0
 14 15  1  0
 15 16  1  0
 16 17  1  0
 17 18  1  1
 17 19  1  0
 19 20  1  0
 19 21  1  0
 21 22  1  0
 21 23  1  0
 23 24  1  0
 23 25  1  0
 25 26  1  0
 25 27  1  0
 25 28  1  0
 28 29  1  0
 29 30  1  0
 30 31  1  0
 31 32  1  1
 13 33  1  0
 33 34  1  0
 34 35  1  0
 34 36  1  6
 34  2  1  0
 33  5  1  0
 31 11  1  0
 31 16  1  0
 28 17  1  0
  1 37  1  0
  1 38  1  0
  1 39  1  0
  2 40  1  1
  3 41  1  0
  3 42  1  0
  4 43  1  0
  4 44  1  0
  9 45  1  0
  9 46  1  0
 10 47  1  0
 10 48  1  0
 12 49  1  0
 12 50  1  0
 12 51  1  0
 14 52  1  0
 15 53  1  0
 15 54  1  0
 16 55  1  6
 18 56  1  0
 18 57  1  0
 18 58  1  0
 19 59  1  1
 20 60  1  0
 21 61  1  1
 22 62  1  0
 23 63  1  6
 24 64  1  0
 26 65  1  0
 26 66  1  0
 26 67  1  0
 27 68  1  0
 27 69  1  0
 27 70  1  0
 28 71  1  6
 29 72  1  0
 29 73  1  0
 30 74  1  0
 30 75  1  0
 32 76  1  0
 32 77  1  0
 32 78  1  0
 33 79  1  1
 35 80  1  0
 35 81  1  0
 35 82  1  0
 36 83  1  0
M  CHG  1   8  -1
M  END
>  <meeko>  (6) 
{"is_sidechain": [false], "free_energy": -7.863, "intermolecular_energy": -9.238, "internal_energy": -0.145}

$$$$
LIB_VULLSLYDWNGNKZ__M_PUB_ALL__e8__s20260927
     RDKit          3D

 83 87  0  0  0  0  0  0  0  0999 V2000
    1.8770  -11.4750   -2.2320 C   0  0  0  0  0  0  0  0  0  0  0  0
    2.9360  -12.3580   -1.5560 C   0  0  2  0  0  0  0  0  0  0  0  0
    3.1700  -11.8210   -0.1370 C   0  0  0  0  0  0  0  0  0  0  0  0
    4.0850  -12.7450    0.6520 C   0  0  0  0  0  0  0  0  0  0  0  0
    5.4530  -13.0070   -0.0240 C   0  0  2  0  0  0  0  0  0  0  0  0
    5.9230  -14.2280    0.8440 C   0  0  0  0  0  0  0  0  0  0  0  0
    5.5170  -15.3680    0.4730 O   0  0  0  0  0  0  0  0  0  0  0  0
    6.6140  -13.9460    1.8670 O   0  0  0  0  0  0  0  0  0  0  0  0
    6.3820  -11.7950    0.1350 C   0  0  0  0  0  0  0  0  0  0  0  0
    7.7910  -12.0840   -0.3810 C   0  0  0  0  0  0  0  0  0  0  0  0
    7.8770  -12.6860   -1.8170 C   0  0  2  0  0  0  0  0  0  0  0  0
    7.8310  -11.4790   -2.8040 C   0  0  0  0  0  0  0  0  0  0  0  0
    6.6770  -13.5790   -2.1950 C   0  0  0  0  0  0  0  0  0  0  0  0
    6.8290  -14.5920   -3.0750 C   0  0  0  0  0  0  0  0  0  0  0  0
    8.0930  -14.9680   -3.7860 C   0  0  0  0  0  0  0  0  0  0  0  0
    9.3250  -14.0910   -3.4560 C   0  0  2  0  0  0  0  0  0  0  0  0
   10.7140  -14.7070   -3.9490 C   0  0  1  0  0  0  0  0  0  0  0  0
   11.0150  -16.0800   -3.2900 C   0  0  0  0  0  0  0  0  0  0  0  0
   10.6680  -14.9420   -5.4990 C   0  0  1  0  0  0  0  0  0  0  0  0
   10.1670  -13.7820   -6.1800 O   0  0  0  0  0  0  0  0  0  0  0  0
   12.0410  -15.2630   -6.1100 C   0  0  1  0  0  0  0  0  0  0  0  0
   11.8970  -15.3320   -7.5460 O   0  0  0  0  0  0  0  0  0  0  0  0
   13.0810  -14.1840   -5.7800 C   0  0  2  0  0  0  0  0  0  0  0  0
   14.3180  -14.5550   -6.4160 O   0  0  0  0  0  0  0  0  0  0  0  0
   13.2520  -13.9090   -4.2580 C   0  0  0  0  0  0  0  0  0  0  0  0
   14.0290  -15.0400   -3.5540 C   0  0  0  0  0  0  0  0  0  0  0  0
   14.1370  -12.6380   -4.1250 C   0  0  0  0  0  0  0  0  0  0  0  0
   11.8280  -13.6320   -3.6350 C   0  0  2  0  0  0  0  0  0  0  0  0
   11.8450  -13.2800   -2.1320 C   0  0  0  0  0  0  0  0  0  0  0  0
   10.5130  -12.6800   -1.6780 C   0  0  0  0  0  0  0  0  0  0  0  0
    9.2620  -13.5520   -1.9780 C   0  0  1  0  0  0  0  0  0  0  0  0
    9.2740  -14.7340   -0.9550 C   0  0  0  0  0  0  0  0  0  0  0  0
    5.3000  -13.3780   -1.5220 C   0  0  2  0  0  0  0  0  0  0  0  0
    4.2870  -12.4570   -2.3290 C   0  0  1  0  0  0  0  0  0  0  0  0
    4.0580  -13.0130   -3.7490 C   0  0  0  0  0  0  0  0  0  0  0  0
    4.7940  -11.1260   -2.4780 O   0  0  0  0  0  0  0  0  0  0  0  0
    1.2735  -10.9718   -1.4622 H   0  0  0  0  0  0  0  0  0  0  0  0
    2.3746  -10.7205   -2.8590 H   0  0  0  0  0  0  0  0  0  0  0  0
    1.2243  -12.1002   -2.8590 H   0  0  0  0  0  0  0  0  0  0  0  0
    2.5435  -13.3855   -1.5423 H   0  0  0  0  0  0  0  0  0  0  0  0
    3.6330  -10.8253   -0.2011 H   0  0  0  0  0  0  0  0  0  0  0  0
    2.2007  -11.7630    0.3798 H   0  0  0  0  0  0  0  0  0  0  0  0
    4.2677  -12.2915    1.6374 H   0  0  0  0  0  0  0  0  0  0  0  0
    3.5733  -13.7163    0.7200 H   0  0  0  0  0  0  0  0  0  0  0  0
    5.9630  -10.9495   -0.4302 H   0  0  0  0  0  0  0  0  0  0  0  0
    6.4538  -11.5594    1.2071 H   0  0  0  0  0  0  0  0  0  0  0  0
    8.3525  -11.1381   -0.3773 H   0  0  0  0  0  0  0  0  0  0  0  0
    8.2037  -12.8516    0.2902 H   0  0  0  0  0  0  0  0  0  0  0  0
    7.7952  -10.5395   -2.2329 H   0  0  0  0  0  0  0  0  0  0  0  0
    8.7302  -11.4889   -3.4375 H   0  0  0  0  0  0  0  0  0  0  0  0
    6.9352  -11.5574   -3.4375 H   0  0  0  0  0  0  0  0  0  0  0  0
    5.9382  -15.2002   -3.2907 H   0  0  0  0  0  0  0  0  0  0  0  0
    8.3354  -16.0077   -3.5208 H   0  0  0  0  0  0  0  0  0  0  0  0
    7.8938  -14.8208   -4.8577 H   0  0  0  0  0  0  0  0  0  0  0  0
    9.2751  -13.1838   -4.0761 H   0  0  0  0  0  0  0  0  0  0  0  0
   10.9918  -15.9743   -2.1953 H   0  0  0  0  0  0  0  0  0  0  0  0
   10.2559  -16.8116   -3.6039 H   0  0  0  0  0  0  0  0  0  0  0  0
   12.0105  -16.4270   -3.6039 H   0  0  0  0  0  0  0  0  0  0  0  0
   10.0041  -15.8087   -5.6335 H   0  0  0  0  0  0  0  0  0  0  0  0
    9.5920  -14.1370   -6.8870 H   0  0  0  0  0  0  0  0  0  0  0  0
   12.3894  -16.2176   -5.6889 H   0  0  0  0  0  0  0  0  0  0  0  0
   12.3410  -16.1630   -7.8090 H   0  0  0  0  0  0  0  0  0  0  0  0
   12.7232  -13.2214   -6.1743 H   0  0  0  0  0  0  0  0  0  0  0  0
   14.9050  -13.7790   -6.4100 H   0  0  0  0  0  0  0  0  0  0  0  0
   13.9457  -14.9187   -2.4639 H   0  0  0  0  0  0  0  0  0  0  0  0
   13.6075  -16.0126   -3.8480 H   0  0  0  0  0  0  0  0  0  0  0  0
   15.0880  -14.9954   -3.8480 H   0  0  0  0  0  0  0  0  0  0  0  0
   14.2950  -12.4110   -3.0603 H   0  0  0  0  0  0  0  0  0  0  0  0
   15.1082  -12.8150   -4.6103 H   0  0  0  0  0  0  0  0  0  0  0  0
   13.6340  -11.7886   -4.6103 H   0  0  0  0  0  0  0  0  0  0  0  0
   11.5285  -12.7266   -4.1832 H   0  0  0  0  0  0  0  0  0  0  0  0
   12.0398  -14.1951   -1.5534 H   0  0  0  0  0  0  0  0  0  0  0  0
   12.6340  -12.5324   -1.9631 H   0  0  0  0  0  0  0  0  0  0  0  0
   10.5641  -12.5196   -0.5910 H   0  0  0  0  0  0  0  0  0  0  0  0
   10.3838  -11.7504   -2.2518 H   0  0  0  0  0  0  0  0  0  0  0  0
    9.2699  -14.3326    0.0691 H   0  0  0  0  0  0  0  0  0  0  0  0
    8.3822  -15.3597   -1.1071 H   0  0  0  0  0  0  0  0  0  0  0  0
   10.1784  -15.3414   -1.1071 H   0  0  0  0  0  0  0  0  0  0  0  0
    4.7996  -14.3570   -1.5544 H   0  0  0  0  0  0  0  0  0  0  0  0
    3.6399  -14.0282   -3.6822 H   0  0  0  0  0  0  0  0  0  0  0  0
    3.3549  -12.3616   -4.2888 H   0  0  0  0  0  0  0  0  0  0  0  0
    5.0159  -13.0457   -4.2888 H   0  0  0  0  0  0  0  0  0  0  0  0
    4.0660  -10.5040   -2.3270 H   0  0  0  0  0  0  0  0  0  0  0  0
  1  2  1  0
  2  3  1  0
  3  4  1  0
  4  5  1  0
  5  6  1  1
  6  7  2  0
  6  8  1  0
  5  9  1  0
  9 10  1  0
 10 11  1  0
 11 12  1  6
 11 13  1  0
 13 14  2  0
 14 15  1  0
 15 16  1  0
 16 17  1  0
 17 18  1  1
 17 19  1  0
 19 20  1  0
 19 21  1  0
 21 22  1  0
 21 23  1  0
 23 24  1  0
 23 25  1  0
 25 26  1  0
 25 27  1  0
 25 28  1  0
 28 29  1  0
 29 30  1  0
 30 31  1  0
 31 32  1  1
 13 33  1  0
 33 34  1  0
 34 35  1  0
 34 36  1  6
 34  2  1  0
 33  5  1  0
 31 11  1  0
 31 16  1  0
 28 17  1  0
  1 37  1  0
  1 38  1  0
  1 39  1  0
  2 40  1  1
  3 41  1  0
  3 42  1  0
  4 43  1  0
  4 44  1  0
  9 45  1  0
  9 46  1  0
 10 47  1  0
 10 48  1  0
 12 49  1  0
 12 50  1  0
 12 51  1  0
 14 52  1  0
 15 53  1  0
 15 54  1  0
 16 55  1  6
 18 56  1  0
 18 57  1  0
 18 58  1  0
 19 59  1  1
 20 60  1  0
 21 61  1  1
 22 62  1  0
 23 63  1  6
 24 64  1  0
 26 65  1  0
 26 66  1  0
 26 67  1  0
 27 68  1  0
 27 69  1  0
 27 70  1  0
 28 71  1  6
 29 72  1  0
 29 73  1  0
 30 74  1  0
 30 75  1  0
 32 76  1  0
 32 77  1  0
 32 78  1  0
 33 79  1  1
 35 80  1  0
 35 81  1  0
 35 82  1  0
 36 83  1  0
M  CHG  1   8  -1
M  END
>  <meeko>  (7) 
{"is_sidechain": [false], "free_energy": -7.859, "intermolecular_energy": -9.28, "internal_energy": -0.098}

$$$$
LIB_VULLSLYDWNGNKZ__M_PUB_ALL__e8__s20260927
     RDKit          3D

 83 87  0  0  0  0  0  0  0  0999 V2000
   10.7970  -12.5070   -0.1890 C   0  0  0  0  0  0  0  0  0  0  0  0
   10.8670  -13.7490   -1.0890 C   0  0  2  0  0  0  0  0  0  0  0  0
   11.9740  -14.6660   -0.5510 C   0  0  0  0  0  0  0  0  0  0  0  0
   11.9900  -15.9950   -1.2920 C   0  0  0  0  0  0  0  0  0  0  0  0
   12.1420  -15.8600   -2.8260 C   0  0  2  0  0  0  0  0  0  0  0  0
   11.7510  -17.3230   -3.2390 C   0  0  0  0  0  0  0  0  0  0  0  0
   10.5980  -17.4740   -3.7380 O   0  0  0  0  0  0  0  0  0  0  0  0
   12.6070  -18.2190   -2.9770 O   0  0  0  0  0  0  0  0  0  0  0  0
   13.5930  -15.5230   -3.2040 C   0  0  0  0  0  0  0  0  0  0  0  0
   13.8080  -15.5420   -4.7170 C   0  0  0  0  0  0  0  0  0  0  0  0
   12.7910  -14.7110   -5.5570 C   0  0  2  0  0  0  0  0  0  0  0  0
   13.3190  -13.2430   -5.5630 C   0  0  0  0  0  0  0  0  0  0  0  0
   11.3780  -14.6420   -4.9400 C   0  0  0  0  0  0  0  0  0  0  0  0
   10.2920  -14.5000   -5.7320 C   0  0  0  0  0  0  0  0  0  0  0  0
   10.2930  -14.3770   -7.2250 C   0  0  0  0  0  0  0  0  0  0  0  0
   11.6880  -14.4220   -7.8940 C   0  0  2  0  0  0  0  0  0  0  0  0
   11.6460  -14.6320   -9.4760 C   0  0  1  0  0  0  0  0  0  0  0  0
   10.9720  -15.9730   -9.8730 C   0  0  0  0  0  0  0  0  0  0  0  0
   10.8100  -13.4840  -10.1410 C   0  0  1  0  0  0  0  0  0  0  0  0
   11.2160  -12.1990   -9.6430 O   0  0  0  0  0  0  0  0  0  0  0  0
   10.9450  -13.4340  -11.6700 C   0  0  1  0  0  0  0  0  0  0  0  0
   10.2410  -12.2690  -12.1540 O   0  0  0  0  0  0  0  0  0  0  0  0
   12.4110  -13.3310  -12.1130 C   0  0  2  0  0  0  0  0  0  0  0  0
   12.4340  -13.2620  -13.5510 O   0  0  0  0  0  0  0  0  0  0  0  0
   13.3250  -14.4620  -11.5560 C   0  0  0  0  0  0  0  0  0  0  0  0
   13.0800  -15.8050  -12.2740 C   0  0  0  0  0  0  0  0  0  0  0  0
   14.7900  -14.0630  -11.8900 C   0  0  0  0  0  0  0  0  0  0  0  0
   13.1370  -14.5330   -9.9910 C   0  0  2  0  0  0  0  0  0  0  0  0
   14.0330  -15.5750   -9.2860 C   0  0  0  0  0  0  0  0  0  0  0  0
   14.0720  -15.3530   -7.7730 C   0  0  0  0  0  0  0  0  0  0  0  0
   12.6840  -15.3260   -7.0740 C   0  0  1  0  0  0  0  0  0  0  0  0
   12.1740  -16.8020   -7.0170 C   0  0  0  0  0  0  0  0  0  0  0  0
   11.1710  -14.8050   -3.4170 C   0  0  2  0  0  0  0  0  0  0  0  0
   11.1000  -13.4440   -2.6000 C   0  0  1  0  0  0  0  0  0  0  0  0
    9.9800  -12.5380   -3.1480 C   0  0  0  0  0  0  0  0  0  0  0  0
   12.3230  -12.7060   -2.7040 O   0  0  0  0  0  0  0  0  0  0  0  0
   10.8145  -12.8173    0.8662 H   0  0  0  0  0  0  0  0  0  0  0  0
   11.6599  -11.8564   -0.3942 H   0  0  0  0  0  0  0  0  0  0  0  0
    9.8665  -11.9575   -0.3942 H   0  0  0  0  0  0  0  0  0  0  0  0
    9.8812  -14.2354   -1.0501 H   0  0  0  0  0  0  0  0  0  0  0  0
   12.9470  -14.1698   -0.6814 H   0  0  0  0  0  0  0  0  0  0  0  0
   11.7803  -14.8612    0.5141 H   0  0  0  0  0  0  0  0  0  0  0  0
   12.8322  -16.5923   -0.9124 H   0  0  0  0  0  0  0  0  0  0  0  0
   11.0156  -16.4719   -1.1101 H   0  0  0  0  0  0  0  0  0  0  0  0
   13.8357  -14.5200   -2.8231 H   0  0  0  0  0  0  0  0  0  0  0  0
   14.2472  -16.2864   -2.7576 H   0  0  0  0  0  0  0  0  0  0  0  0
   14.8148  -15.1481   -4.9198 H   0  0  0  0  0  0  0  0  0  0  0  0
   13.6664  -16.5882   -5.0259 H   0  0  0  0  0  0  0  0  0  0  0  0
   13.4444  -12.8942   -4.5273 H   0  0  0  0  0  0  0  0  0  0  0  0
   14.2876  -13.2038   -6.0830 H   0  0  0  0  0  0  0  0  0  0  0  0
   12.5973  -12.5959   -6.0830 H   0  0  0  0  0  0  0  0  0  0  0  0
    9.3127  -14.4720   -5.2319 H   0  0  0  0  0  0  0  0  0  0  0  0
    9.6937  -15.2038   -7.6340 H   0  0  0  0  0  0  0  0  0  0  0  0
    9.8823  -13.3811   -7.4473 H   0  0  0  0  0  0  0  0  0  0  0  0
   12.1276  -13.4153   -7.8371 H   0  0  0  0  0  0  0  0  0  0  0  0
   10.6937  -16.5267   -8.9642 H   0  0  0  0  0  0  0  0  0  0  0  0
   10.0699  -15.7679  -10.4681 H   0  0  0  0  0  0  0  0  0  0  0  0
   11.6748  -16.5746  -10.4681 H   0  0  0  0  0  0  0  0  0  0  0  0
    9.7652  -13.7093   -9.8810 H   0  0  0  0  0  0  0  0  0  0  0  0
   11.3380  -11.6490  -10.4430 H   0  0  0  0  0  0  0  0  0  0  0  0
   10.5250  -14.3638  -12.0812 H   0  0  0  0  0  0  0  0  0  0  0  0
    9.6920  -11.9710  -11.4020 H   0  0  0  0  0  0  0  0  0  0  0  0
   12.8430  -12.4164  -11.6807 H   0  0  0  0  0  0  0  0  0  0  0  0
   12.0700  -12.4000  -13.8180 H   0  0  0  0  0  0  0  0  0  0  0  0
   12.9351  -16.5992  -11.5268 H   0  0  0  0  0  0  0  0  0  0  0  0
   12.1815  -15.7256  -12.9036 H   0  0  0  0  0  0  0  0  0  0  0  0
   13.9486  -16.0480  -12.9036 H   0  0  0  0  0  0  0  0  0  0  0  0
   15.3505  -13.9103  -10.9559 H   0  0  0  0  0  0  0  0  0  0  0  0
   15.2641  -14.8647  -12.4752 H   0  0  0  0  0  0  0  0  0  0  0  0
   14.7920  -13.1316  -12.4752 H   0  0  0  0  0  0  0  0  0  0  0  0
   13.4887  -13.5355   -9.6890 H   0  0  0  0  0  0  0  0  0  0  0  0
   13.6378  -16.5813   -9.4890 H   0  0  0  0  0  0  0  0  0  0  0  0
   15.0561  -15.4686   -9.6757 H   0  0  0  0  0  0  0  0  0  0  0  0
   14.6634  -16.1649   -7.3247 H   0  0  0  0  0  0  0  0  0  0  0  0
   14.5106  -14.3557   -7.6212 H   0  0  0  0  0  0  0  0  0  0  0  0
   12.0667  -17.1126   -5.9672 H   0  0  0  0  0  0  0  0  0  0  0  0
   11.1993  -16.8729   -7.5218 H   0  0  0  0  0  0  0  0  0  0  0  0
   12.8971  -17.4595   -7.5218 H   0  0  0  0  0  0  0  0  0  0  0  0
   10.1545  -15.2053   -3.2889 H   0  0  0  0  0  0  0  0  0  0  0  0
    9.4269  -12.0906   -2.3090 H   0  0  0  0  0  0  0  0  0  0  0  0
   10.4218  -11.7401   -3.7630 H   0  0  0  0  0  0  0  0  0  0  0  0
    9.2920  -13.1367   -3.7630 H   0  0  0  0  0  0  0  0  0  0  0  0
   12.1850  -11.9710   -3.3200 H   0  0  0  0  0  0  0  0  0  0  0  0
  1  2  1  0
  2  3  1  0
  3  4  1  0
  4  5  1  0
  5  6  1  6
  6  7  2  0
  6  8  1  0
  5  9  1  0
  9 10  1  0
 10 11  1  0
 11 12  1  6
 11 13  1  0
 13 14  2  0
 14 15  1  0
 15 16  1  0
 16 17  1  0
 17 18  1  1
 17 19  1  0
 19 20  1  0
 19 21  1  0
 21 22  1  0
 21 23  1  0
 23 24  1  0
 23 25  1  0
 25 26  1  0
 25 27  1  0
 25 28  1  0
 28 29  1  0
 29 30  1  0
 30 31  1  0
 31 32  1  1
 13 33  1  0
 33 34  1  0
 34 35  1  0
 34 36  1  1
 34  2  1  0
 33  5  1  0
 31 11  1  0
 31 16  1  0
 28 17  1  0
  1 37  1  0
  1 38  1  0
  1 39  1  0
  2 40  1  6
  3 41  1  0
  3 42  1  0
  4 43  1  0
  4 44  1  0
  9 45  1  0
  9 46  1  0
 10 47  1  0
 10 48  1  0
 12 49  1  0
 12 50  1  0
 12 51  1  0
 14 52  1  0
 15 53  1  0
 15 54  1  0
 16 55  1  6
 18 56  1  0
 18 57  1  0
 18 58  1  0
 19 59  1  6
 20 60  1  0
 21 61  1  6
 22 62  1  0
 23 63  1  1
 24 64  1  0
 26 65  1  0
 26 66  1  0
 26 67  1  0
 27 68  1  0
 27 69  1  0
 27 70  1  0
 28 71  1  1
 29 72  1  0
 29 73  1  0
 30 74  1  0
 30 75  1  0
 32 76  1  0
 32 77  1  0
 32 78  1  0
 33 79  1  6
 35 80  1  0
 35 81  1  0
 35 82  1  0
 36 83  1  0
M  CHG  1   8  -1
M  END
>  <meeko>  (8) 
{"is_sidechain": [false], "free_energy": -7.828, "intermolecular_energy": -9.201, "internal_energy": -0.142}

$$$$
LIB_VULLSLYDWNGNKZ__M_PUB_ALL__e8__s20260927
     RDKit          3D

 83 87  0  0  0  0  0  0  0  0999 V2000
   -1.4000   -9.2170    1.6710 C   0  0  0  0  0  0  0  0  0  0  0  0
   -1.6700  -10.6340    1.1440 C   0  0  2  0  0  0  0  0  0  0  0  0
   -2.8840  -11.2000    1.8950 C   0  0  0  0  0  0  0  0  0  0  0  0
   -3.3140  -12.5360    1.3090 C   0  0  0  0  0  0  0  0  0  0  0  0
   -2.1930  -13.6020    1.2790 C   0  0  2  0  0  0  0  0  0  0  0  0
   -2.8700  -14.6410    0.3160 C   0  0  0  0  0  0  0  0  0  0  0  0
   -3.4750  -15.6050    0.8700 O   0  0  0  0  0  0  0  0  0  0  0  0
   -2.6940  -14.4440   -0.9220 O   0  0  0  0  0  0  0  0  0  0  0  0
   -1.9550  -14.1850    2.6800 C   0  0  0  0  0  0  0  0  0  0  0  0
   -0.9670  -15.3510    2.6540 C   0  0  0  0  0  0  0  0  0  0  0  0
    0.3760  -15.0850    1.9100 C   0  0  2  0  0  0  0  0  0  0  0  0
    1.3210  -14.3910    2.9400 C   0  0  0  0  0  0  0  0  0  0  0  0
    0.2540  -14.1000    0.7290 C   0  0  0  0  0  0  0  0  0  0  0  0
    1.0920  -14.1920   -0.3270 C   0  0  0  0  0  0  0  0  0  0  0  0
    2.2040  -15.1820   -0.4940 C   0  0  0  0  0  0  0  0  0  0  0  0
    2.3820  -16.1830    0.6720 C   0  0  2  0  0  0  0  0  0  0  0  0
    3.3280  -17.4230    0.3290 C   0  0  1  0  0  0  0  0  0  0  0  0
    2.7760  -18.2760   -0.8460 C   0  0  0  0  0  0  0  0  0  0  0  0
    4.7430  -16.9040   -0.1050 C   0  0  1  0  0  0  0  0  0  0  0  0
    5.2330  -15.9180    0.8160 O   0  0  0  0  0  0  0  0  0  0  0  0
    5.8040  -18.0130   -0.1820 C   0  0  1  0  0  0  0  0  0  0  0  0
    7.0830  -17.4030   -0.4630 O   0  0  0  0  0  0  0  0  0  0  0  0
    5.9180  -18.7890    1.1370 C   0  0  2  0  0  0  0  0  0  0  0  0
    6.9510  -19.7800    0.9780 O   0  0  0  0  0  0  0  0  0  0  0  0
    4.5770  -19.4010    1.6340 C   0  0  0  0  0  0  0  0  0  0  0  0
    4.1670  -20.6360    0.8060 C   0  0  0  0  0  0  0  0  0  0  0  0
    4.8250  -19.9190    3.0780 C   0  0  0  0  0  0  0  0  0  0  0  0
    3.4850  -18.2610    1.6590 C   0  0  2  0  0  0  0  0  0  0  0  0
    2.1070  -18.7080    2.1940 C   0  0  0  0  0  0  0  0  0  0  0  0
    1.2170  -17.5100    2.5290 C   0  0  0  0  0  0  0  0  0  0  0  0
    1.0040  -16.5000    1.3660 C   0  0  1  0  0  0  0  0  0  0  0  0
    0.0160  -17.1690    0.3570 C   0  0  0  0  0  0  0  0  0  0  0  0
   -0.8700  -13.0400    0.6970 C   0  0  2  0  0  0  0  0  0  0  0  0
   -0.4590  -11.6100    1.2550 C   0  0  1  0  0  0  0  0  0  0  0  0
    0.7560  -11.0530    0.4860 C   0  0  0  0  0  0  0  0  0  0  0  0
   -0.0870  -11.6740    2.6370 O   0  0  0  0  0  0  0  0  0  0  0  0
   -1.4021   -9.2283    2.7709 H   0  0  0  0  0  0  0  0  0  0  0  0
   -0.4200   -8.8720    1.3098 H   0  0  0  0  0  0  0  0  0  0  0  0
   -2.1845   -8.5358    1.3098 H   0  0  0  0  0  0  0  0  0  0  0  0
   -1.8634  -10.5482    0.0645 H   0  0  0  0  0  0  0  0  0  0  0  0
   -2.6188  -11.3402    2.9533 H   0  0  0  0  0  0  0  0  0  0  0  0
   -3.7184  -10.4899    1.7972 H   0  0  0  0  0  0  0  0  0  0  0  0
   -4.1462  -12.9265    1.9131 H   0  0  0  0  0  0  0  0  0  0  0  0
   -3.6003  -12.3469    0.2639 H   0  0  0  0  0  0  0  0  0  0  0  0
   -1.5539  -13.3939    3.3306 H   0  0  0  0  0  0  0  0  0  0  0  0
   -2.9162  -14.5622    3.0592 H   0  0  0  0  0  0  0  0  0  0  0  0
   -0.7296  -15.6155    3.6950 H   0  0  0  0  0  0  0  0  0  0  0  0
   -1.4665  -16.1535    2.0914 H   0  0  0  0  0  0  0  0  0  0  0  0
    0.9913  -14.6331    3.9611 H   0  0  0  0  0  0  0  0  0  0  0  0
    2.3505  -14.7493    2.7924 H   0  0  0  0  0  0  0  0  0  0  0  0
    1.2872  -13.3015    2.7924 H   0  0  0  0  0  0  0  0  0  0  0  0
    0.9433  -13.4699   -1.1433 H   0  0  0  0  0  0  0  0  0  0  0  0
    2.0098  -15.7591   -1.4101 H   0  0  0  0  0  0  0  0  0  0  0  0
    3.1318  -14.5922   -0.5314 H   0  0  0  0  0  0  0  0  0  0  0  0
    2.9737  -15.6907    1.4578 H   0  0  0  0  0  0  0  0  0  0  0  0
    2.2195  -19.1359   -0.4450 H   0  0  0  0  0  0  0  0  0  0  0  0
    2.1048  -17.6601   -1.4625 H   0  0  0  0  0  0  0  0  0  0  0  0
    3.6128  -18.6360   -1.4625 H   0  0  0  0  0  0  0  0  0  0  0  0
    4.5931  -16.4810   -1.1093 H   0  0  0  0  0  0  0  0  0  0  0  0
    5.3080  -15.0980    0.2870 H   0  0  0  0  0  0  0  0  0  0  0  0
    5.5066  -18.7182   -0.9721 H   0  0  0  0  0  0  0  0  0  0  0  0
    7.1420  -17.3690   -1.4390 H   0  0  0  0  0  0  0  0  0  0  0  0
    6.1871  -18.0820    1.9356 H   0  0  0  0  0  0  0  0  0  0  0  0
    6.5530  -20.6560    1.1190 H   0  0  0  0  0  0  0  0  0  0  0  0
    3.8941  -21.4580    1.4841 H   0  0  0  0  0  0  0  0  0  0  0  0
    3.3048  -20.3824    0.1717 H   0  0  0  0  0  0  0  0  0  0  0  0
    5.0096  -20.9484    0.1717 H   0  0  0  0  0  0  0  0  0  0  0  0
    4.4674  -19.1720    3.8020 H   0  0  0  0  0  0  0  0  0  0  0  0
    4.2815  -20.8637    3.2271 H   0  0  0  0  0  0  0  0  0  0  0  0
    5.9017  -20.0880    3.2271 H   0  0  0  0  0  0  0  0  0  0  0  0
    3.9173  -17.5679    2.3957 H   0  0  0  0  0  0  0  0  0  0  0  0
    1.6082  -19.3201    1.4281 H   0  0  0  0  0  0  0  0  0  0  0  0
    2.2671  -19.2860    3.1161 H   0  0  0  0  0  0  0  0  0  0  0  0
    0.2314  -17.8923    2.8330 H   0  0  0  0  0  0  0  0  0  0  0  0
    1.7366  -16.9557    3.3244 H   0  0  0  0  0  0  0  0  0  0  0  0
   -0.7703  -17.7014    0.9121 H   0  0  0  0  0  0  0  0  0  0  0  0
   -0.4422  -16.3946   -0.2757 H   0  0  0  0  0  0  0  0  0  0  0  0
    0.5650  -17.8819   -0.2757 H   0  0  0  0  0  0  0  0  0  0  0  0
   -1.0590  -12.8288   -0.3659 H   0  0  0  0  0  0  0  0  0  0  0  0
    1.5150  -10.7050    1.2021 H   0  0  0  0  0  0  0  0  0  0  0  0
    1.1841  -11.8448   -0.1463 H   0  0  0  0  0  0  0  0  0  0  0  0
    0.4356  -10.2119   -0.1463 H   0  0  0  0  0  0  0  0  0  0  0  0
    0.4520  -12.4680    2.7710 H   0  0  0  0  0  0  0  0  0  0  0  0
  1  2  1  0
  2  3  1  0
  3  4  1  0
  4  5  1  0
  5  6  1  6
  6  7  2  0
  6  8  1  0
  5  9  1  0
  9 10  1  0
 10 11  1  0
 11 12  1  1
 11 13  1  0
 13 14  2  0
 14 15  1  0
 15 16  1  0
 16 17  1  0
 17 18  1  6
 17 19  1  0
 19 20  1  0
 19 21  1  0
 21 22  1  0
 21 23  1  0
 23 24  1  0
 23 25  1  0
 25 26  1  0
 25 27  1  0
 25 28  1  0
 28 29  1  0
 29 30  1  0
 30 31  1  0
 31 32  1  6
 13 33  1  0
 33 34  1  0
 34 35  1  0
 34 36  1  1
 34  2  1  0
 33  5  1  0
 31 11  1  0
 31 16  1  0
 28 17  1  0
  1 37  1  0
  1 38  1  0
  1 39  1  0
  2 40  1  6
  3 41  1  0
  3 42  1  0
  4 43  1  0
  4 44  1  0
  9 45  1  0
  9 46  1  0
 10 47  1  0
 10 48  1  0
 12 49  1  0
 12 50  1  0
 12 51  1  0
 14 52  1  0
 15 53  1  0
 15 54  1  0
 16 55  1  1
 18 56  1  0
 18 57  1  0
 18 58  1  0
 19 59  1  6
 20 60  1  0
 21 61  1  6
 22 62  1  0
 23 63  1  1
 24 64  1  0
 26 65  1  0
 26 66  1  0
 26 67  1  0
 27 68  1  0
 27 69  1  0
 27 70  1  0
 28 71  1  1
 29 72  1  0
 29 73  1  0
 30 74  1  0
 30 75  1  0
 32 76  1  0
 32 77  1  0
 32 78  1  0
 33 79  1  6
 35 80  1  0
 35 81  1  0
 35 82  1  0
 36 83  1  0
M  CHG  1   8  -1
M  END
>  <meeko>  (9) 
{"is_sidechain": [false], "free_energy": -7.823, "intermolecular_energy": -9.278, "internal_energy": -0.059}

$$$$
