LIB_LBORYVQDGDVAMG__M_PUB_ALL__e8__s20260927
     RDKit          3D

 59 63  0  0  0  0  0  0  0  0999 V2000
   -1.7140   -9.2070    2.0520 C   0  0  0  0  0  0  0  0  0  0  0  0
   -1.4180  -10.6270    1.9150 N   0  0  0  0  0  0  0  0  0  0  0  0
   -2.2700  -11.5700    2.6280 C   0  0  0  0  0  0  0  0  0  0  0  0
   -0.3720  -11.0690    1.1120 C   0  0  0  0  0  0  0  0  0  0  0  0
    0.1080  -10.3140    0.0290 C   0  0  0  0  0  0  0  0  0  0  0  0
    1.1650  -10.7540   -0.7850 C   0  0  0  0  0  0  0  0  0  0  0  0
    1.7890  -11.9780   -0.5480 C   0  0  0  0  0  0  0  0  0  0  0  0
    2.8990  -12.4460   -1.3640 C   0  0  0  0  0  0  0  0  0  0  0  0
    4.2600  -12.5850   -1.0280 C   0  0  0  0  0  0  0  0  0  0  0  0
    5.0060  -13.0620   -2.0200 N   0  0  0  0  0  0  0  0  0  0  0  0
    4.1320  -13.2460   -3.0500 N   0  0  0  0  0  0  0  0  0  0  0  0
    4.4030  -13.7360   -4.3450 C   0  0  0  0  0  0  0  0  0  0  0  0
    5.7610  -14.1420   -4.7700 C   0  0  0  0  0  0  0  0  0  0  0  0
    5.9390  -15.1640   -5.7100 C   0  0  0  0  0  0  0  0  0  0  0  0
    7.2200  -15.5440   -6.1090 C   0  0  0  0  0  0  0  0  0  0  0  0
    8.3370  -14.8990   -5.5760 C   0  0  0  0  0  0  0  0  0  0  0  0
    8.1850  -13.8680   -4.6420 C   0  0  0  0  0  0  0  0  0  0  0  0
    9.3620  -13.2660   -4.1490 N   0  0  0  0  0  0  0  0  0  0  0  0
   10.1760  -13.7330   -3.1320 C   0  0  0  0  0  0  0  0  0  0  0  0
    9.9600  -14.6900   -2.3990 O   0  0  0  0  0  0  0  0  0  0  0  0
   11.4090  -12.9280   -2.8940 C   0  0  0  0  0  0  0  0  0  0  0  0
   12.4240  -12.8380   -3.8550 C   0  0  0  0  0  0  0  0  0  0  0  0
   13.5670  -12.0840   -3.5900 C   0  0  0  0  0  0  0  0  0  0  0  0
   13.7050  -11.4240   -2.3660 C   0  0  0  0  0  0  0  0  0  0  0  0
   12.7010  -11.5130   -1.3890 C   0  0  0  0  0  0  0  0  0  0  0  0
   12.8630  -10.8310   -0.0520 C   0  0  0  0  0  0  0  0  0  0  0  0
   11.9870  -11.2980    0.8780 F   0  0  0  0  0  0  0  0  0  0  0  0
   12.6680   -9.4850   -0.1140 F   0  0  0  0  0  0  0  0  0  0  0  0
   14.1040  -11.0000    0.4840 F   0  0  0  0  0  0  0  0  0  0  0  0
   11.5570  -12.2810   -1.6610 C   0  0  0  0  0  0  0  0  0  0  0  0
    6.8980  -13.5040   -4.2390 C   0  0  0  0  0  0  0  0  0  0  0  0
    3.3870  -13.8570   -5.2210 C   0  0  0  0  0  0  0  0  0  0  0  0
    2.0500  -13.4450   -4.7310 C   0  0  0  0  0  0  0  0  0  0  0  0
    1.7700  -12.9880   -3.5500 N   0  0  0  0  0  0  0  0  0  0  0  0
    2.8240  -12.8780   -2.6780 C   0  0  0  0  0  0  0  0  0  0  0  0
    1.3310  -12.7450    0.5250 C   0  0  0  0  0  0  0  0  0  0  0  0
    0.2740  -12.2960    1.3330 C   0  0  0  0  0  0  0  0  0  0  0  0
   -1.7686   -8.9451    3.1190 H   0  0  0  0  0  0  0  0  0  0  0  0
   -0.9192   -8.6186    1.5702 H   0  0  0  0  0  0  0  0  0  0  0  0
   -2.6777   -8.9852    1.5702 H   0  0  0  0  0  0  0  0  0  0  0  0
   -2.1442  -11.4308    3.7119 H   0  0  0  0  0  0  0  0  0  0  0  0
   -3.3209  -11.3934    2.3552 H   0  0  0  0  0  0  0  0  0  0  0  0
   -1.9880  -12.5977    2.3552 H   0  0  0  0  0  0  0  0  0  0  0  0
   -0.3607   -9.3432   -0.1896 H   0  0  0  0  0  0  0  0  0  0  0  0
    1.5049  -10.1244   -1.6205 H   0  0  0  0  0  0  0  0  0  0  0  0
    4.6666  -12.3240   -0.0398 H   0  0  0  0  0  0  0  0  0  0  0  0
    5.0614  -15.6713   -6.1372 H   0  0  0  0  0  0  0  0  0  0  0  0
    7.3501  -16.3521   -6.8438 H   0  0  0  0  0  0  0  0  0  0  0  0
    9.3454  -15.2036   -5.8927 H   0  0  0  0  0  0  0  0  0  0  0  0
    9.5980  -12.3700   -4.5540 H   0  0  0  0  0  0  0  0  0  0  0  0
   12.3198  -13.3611   -4.8170 H   0  0  0  0  0  0  0  0  0  0  0  0
   14.3620  -12.0086   -4.3465 H   0  0  0  0  0  0  0  0  0  0  0  0
   14.6086  -10.8293   -2.1663 H   0  0  0  0  0  0  0  0  0  0  0  0
   10.7699  -12.3751   -0.8983 H   0  0  0  0  0  0  0  0  0  0  0  0
    6.7708  -12.7050   -3.4938 H   0  0  0  0  0  0  0  0  0  0  0  0
    3.5405  -14.2394   -6.2409 H   0  0  0  0  0  0  0  0  0  0  0  0
    1.2129  -13.5358   -5.4388 H   0  0  0  0  0  0  0  0  0  0  0  0
    1.8046  -13.7142    0.7403 H   0  0  0  0  0  0  0  0  0  0  0  0
   -0.0599  -12.9281    2.1690 H   0  0  0  0  0  0  0  0  0  0  0  0
  1  2  1  0
  2  3  1  0
  2  4  1  0
  4  5  2  0
  5  6  1  0
  6  7  2  0
  7  8  1  0
  8  9  1  0
  9 10  2  0
 10 11  1  0
 11 12  1  0
 12 13  1  0
 13 14  2  0
 14 15  1  0
 15 16  2  0
 16 17  1  0
 17 18  1  0
 18 19  1  0
 19 20  2  0
 19 21  1  0
 21 22  2  0
 22 23  1  0
 23 24  2  0
 24 25  1  0
 25 26  1  0
 26 27  1  0
 26 28  1  0
 26 29  1  0
 25 30  2  0
 17 31  2  0
 12 32  2  0
 32 33  1  0
 33 34  2  0
 34 35  1  0
  7 36  1  0
 36 37  2  0
 37  4  1  0
 35  8  2  0
 35 11  1  0
 31 13  1  0
 30 21  1  0
  1 38  1  0
  1 39  1  0
  1 40  1  0
  3 41  1  0
  3 42  1  0
  3 43  1  0
  5 44  1  0
  6 45  1  0
  9 46  1  0
 14 47  1  0
 15 48  1  0
 16 49  1  0
 18 50  1  0
 22 51  1  0
 23 52  1  0
 24 53  1  0
 30 54  1  0
 31 55  1  0
 32 56  1  0
 33 57  1  0
 36 58  1  0
 37 59  1  0
M  END
>  <meeko>  (1) 
{"is_sidechain": [false], "free_energy": -9.255, "intermolecular_energy": -12.502, "internal_energy": -0.706}

$$$$
LIB_LBORYVQDGDVAMG__M_PUB_ALL__e8__s20260927
     RDKit          3D

 59 63  0  0  0  0  0  0  0  0999 V2000
   17.6270   -6.3290   10.9520 C   0  0  0  0  0  0  0  0  0  0  0  0
   16.3360   -6.4580   11.6150 N   0  0  0  0  0  0  0  0  0  0  0  0
   15.7050   -5.2420   12.1120 C   0  0  0  0  0  0  0  0  0  0  0  0
   15.7180   -7.6950   11.7490 C   0  0  0  0  0  0  0  0  0  0  0  0
   16.3520   -8.7860   12.3660 C   0  0  0  0  0  0  0  0  0  0  0  0
   15.7320  -10.0380   12.5040 C   0  0  0  0  0  0  0  0  0  0  0  0
   14.4410  -10.2540   12.0260 C   0  0  0  0  0  0  0  0  0  0  0  0
   13.7680  -11.5350   12.1760 C   0  0  0  0  0  0  0  0  0  0  0  0
   13.8660  -12.6960   11.3840 C   0  0  0  0  0  0  0  0  0  0  0  0
   13.1170  -13.7030   11.8220 N   0  0  0  0  0  0  0  0  0  0  0  0
   12.4950  -13.2120   12.9320 N   0  0  0  0  0  0  0  0  0  0  0  0
   11.5840  -13.8720   13.7830 C   0  0  0  0  0  0  0  0  0  0  0  0
   11.1660  -15.2740   13.5610 C   0  0  0  0  0  0  0  0  0  0  0  0
   11.8550  -16.3290   14.1730 C   0  0  0  0  0  0  0  0  0  0  0  0
   11.4590  -17.6490   13.9620 C   0  0  0  0  0  0  0  0  0  0  0  0
   10.3640  -17.9270   13.1420 C   0  0  0  0  0  0  0  0  0  0  0  0
    9.6540  -16.8900   12.5270 C   0  0  0  0  0  0  0  0  0  0  0  0
    8.5600  -17.2520   11.7120 N   0  0  0  0  0  0  0  0  0  0  0  0
    7.3180  -17.6970   12.1290 C   0  0  0  0  0  0  0  0  0  0  0  0
    6.9820  -17.9660   13.2760 O   0  0  0  0  0  0  0  0  0  0  0  0
    6.3280  -17.9120   11.0360 C   0  0  0  0  0  0  0  0  0  0  0  0
    6.7290  -18.2400    9.7340 C   0  0  0  0  0  0  0  0  0  0  0  0
    5.7720  -18.4220    8.7360 C   0  0  0  0  0  0  0  0  0  0  0  0
    4.4150  -18.2700    9.0290 C   0  0  0  0  0  0  0  0  0  0  0  0
    3.9970  -17.9310   10.3260 C   0  0  0  0  0  0  0  0  0  0  0  0
    2.5330  -17.7320   10.6370 C   0  0  0  0  0  0  0  0  0  0  0  0
    2.0030  -18.7780   11.3260 F   0  0  0  0  0  0  0  0  0  0  0  0
    1.7670  -17.5850    9.5220 F   0  0  0  0  0  0  0  0  0  0  0  0
    2.2970  -16.6250   11.3970 F   0  0  0  0  0  0  0  0  0  0  0  0
    4.9680  -17.7420   11.3230 C   0  0  0  0  0  0  0  0  0  0  0  0
   10.0670  -15.5720   12.7330 C   0  0  0  0  0  0  0  0  0  0  0  0
   11.0900  -13.2100   14.8460 C   0  0  0  0  0  0  0  0  0  0  0  0
   11.5560  -11.8130   15.0200 C   0  0  0  0  0  0  0  0  0  0  0  0
   12.3880  -11.1790   14.2540 N   0  0  0  0  0  0  0  0  0  0  0  0
   12.8770  -11.8790   13.1800 C   0  0  0  0  0  0  0  0  0  0  0  0
   13.7870   -9.1840   11.4100 C   0  0  0  0  0  0  0  0  0  0  0  0
   14.4170   -7.9360   11.2770 C   0  0  0  0  0  0  0  0  0  0  0  0
   18.4215   -6.2496   11.7087 H   0  0  0  0  0  0  0  0  0  0  0  0
   17.8064   -7.2137   10.3234 H   0  0  0  0  0  0  0  0  0  0  0  0
   17.6278   -5.4263   10.3234 H   0  0  0  0  0  0  0  0  0  0  0  0
   15.7091   -5.2500   13.2120 H   0  0  0  0  0  0  0  0  0  0  0  0
   16.2620   -4.3654   11.7496 H   0  0  0  0  0  0  0  0  0  0  0  0
   14.6676   -5.1928   11.7496 H   0  0  0  0  0  0  0  0  0  0  0  0
   17.3723   -8.6545   12.7556 H   0  0  0  0  0  0  0  0  0  0  0  0
   16.2727  -10.8598   12.9962 H   0  0  0  0  0  0  0  0  0  0  0  0
   14.5016  -12.7628   10.4887 H   0  0  0  0  0  0  0  0  0  0  0  0
   12.7147  -16.1144   14.8248 H   0  0  0  0  0  0  0  0  0  0  0  0
   12.0095  -18.4716   14.4418 H   0  0  0  0  0  0  0  0  0  0  0  0
   10.0567  -18.9704   12.9779 H   0  0  0  0  0  0  0  0  0  0  0  0
    8.7310  -17.2300   10.7160 H   0  0  0  0  0  0  0  0  0  0  0  0
    7.7976  -18.3538    9.4993 H   0  0  0  0  0  0  0  0  0  0  0  0
    6.0868  -18.6859    7.7156 H   0  0  0  0  0  0  0  0  0  0  0  0
    3.6666  -18.4172    8.2364 H   0  0  0  0  0  0  0  0  0  0  0  0
    4.6572  -17.4577   12.3391 H   0  0  0  0  0  0  0  0  0  0  0  0
    9.5241  -14.7523   12.2397 H   0  0  0  0  0  0  0  0  0  0  0  0
   10.3816  -13.6783   15.5452 H   0  0  0  0  0  0  0  0  0  0  0  0
   11.1567  -11.2606   15.8834 H   0  0  0  0  0  0  0  0  0  0  0  0
   12.7659   -9.3208   11.0244 H   0  0  0  0  0  0  0  0  0  0  0  0
   13.8717   -7.1170   10.7851 H   0  0  0  0  0  0  0  0  0  0  0  0
  1  2  1  0
  2  3  1  0
  2  4  1  0
  4  5  2  0
  5  6  1  0
  6  7  2  0
  7  8  1  0
  8  9  1  0
  9 10  2  0
 10 11  1  0
 11 12  1  0
 12 13  1  0
 13 14  2  0
 14 15  1  0
 15 16  2  0
 16 17  1  0
 17 18  1  0
 18 19  1  0
 19 20  2  0
 19 21  1  0
 21 22  2  0
 22 23  1  0
 23 24  2  0
 24 25  1  0
 25 26  1  0
 26 27  1  0
 26 28  1  0
 26 29  1  0
 25 30  2  0
 17 31  2  0
 12 32  2  0
 32 33  1  0
 33 34  2  0
 34 35  1  0
  7 36  1  0
 36 37  2  0
 37  4  1  0
 35  8  2  0
 35 11  1  0
 31 13  1  0
 30 21  1  0
  1 38  1  0
  1 39  1  0
  1 40  1  0
  3 41  1  0
  3 42  1  0
  3 43  1  0
  5 44  1  0
  6 45  1  0
  9 46  1  0
 14 47  1  0
 15 48  1  0
 16 49  1  0
 18 50  1  0
 22 51  1  0
 23 52  1  0
 24 53  1  0
 30 54  1  0
 31 55  1  0
 32 56  1  0
 33 57  1  0
 36 58  1  0
 37 59  1  0
M  END
>  <meeko>  (2) 
{"is_sidechain": [false], "free_energy": -9.093, "intermolecular_energy": -11.892, "internal_energy": -1.097}

$$$$
LIB_LBORYVQDGDVAMG__M_PUB_ALL__e8__s20260927
     RDKit          3D

 59 63  0  0  0  0  0  0  0  0999 V2000
   17.5220   -6.2600   10.7510 C   0  0  0  0  0  0  0  0  0  0  0  0
   16.2920   -6.4190   11.5150 N   0  0  0  0  0  0  0  0  0  0  0  0
   15.7020   -5.2260   12.1080 C   0  0  0  0  0  0  0  0  0  0  0  0
   15.6900   -7.6640   11.6550 C   0  0  0  0  0  0  0  0  0  0  0  0
   16.3420   -8.7460   12.2690 C   0  0  0  0  0  0  0  0  0  0  0  0
   15.7390  -10.0060   12.4140 C   0  0  0  0  0  0  0  0  0  0  0  0
   14.4470  -10.2390   11.9450 C   0  0  0  0  0  0  0  0  0  0  0  0
   13.7920  -11.5290   12.1010 C   0  0  0  0  0  0  0  0  0  0  0  0
   13.9090  -12.6930   11.3170 C   0  0  0  0  0  0  0  0  0  0  0  0
   13.1720  -13.7080   11.7590 N   0  0  0  0  0  0  0  0  0  0  0  0
   12.5400  -13.2170   12.8640 N   0  0  0  0  0  0  0  0  0  0  0  0
   11.6350  -13.8840   13.7170 C   0  0  0  0  0  0  0  0  0  0  0  0
   11.2380  -15.2940   13.5030 C   0  0  0  0  0  0  0  0  0  0  0  0
   11.9940  -16.3390   14.0490 C   0  0  0  0  0  0  0  0  0  0  0  0
   11.6160  -17.6650   13.8460 C   0  0  0  0  0  0  0  0  0  0  0  0
   10.4740  -17.9610   13.1000 C   0  0  0  0  0  0  0  0  0  0  0  0
    9.6970  -16.9340   12.5520 C   0  0  0  0  0  0  0  0  0  0  0  0
    8.5590  -17.3130   11.8100 N   0  0  0  0  0  0  0  0  0  0  0  0
    7.3350  -17.7220   12.3080 C   0  0  0  0  0  0  0  0  0  0  0  0
    7.0540  -17.9400   13.4800 O   0  0  0  0  0  0  0  0  0  0  0  0
    6.2870  -17.9670   11.2760 C   0  0  0  0  0  0  0  0  0  0  0  0
    4.9220  -17.8500   11.5710 C   0  0  0  0  0  0  0  0  0  0  0  0
    3.9730  -18.0990   10.5810 C   0  0  0  0  0  0  0  0  0  0  0  0
    4.3780  -18.4710    9.2970 C   0  0  0  0  0  0  0  0  0  0  0  0
    5.7420  -18.6040    8.9880 C   0  0  0  0  0  0  0  0  0  0  0  0
    6.1820  -19.0410    7.6120 C   0  0  0  0  0  0  0  0  0  0  0  0
    7.0650  -18.1730    7.0500 F   0  0  0  0  0  0  0  0  0  0  0  0
    5.1480  -19.1530    6.7330 F   0  0  0  0  0  0  0  0  0  0  0  0
    6.7990  -20.2560    7.6120 F   0  0  0  0  0  0  0  0  0  0  0  0
    6.6910  -18.3590    9.9940 C   0  0  0  0  0  0  0  0  0  0  0  0
   10.0910  -15.6080   12.7490 C   0  0  0  0  0  0  0  0  0  0  0  0
   11.1290  -13.2220   14.7740 C   0  0  0  0  0  0  0  0  0  0  0  0
   11.5750  -11.8180   14.9400 C   0  0  0  0  0  0  0  0  0  0  0  0
   12.4010  -11.1770   14.1720 N   0  0  0  0  0  0  0  0  0  0  0  0
   12.9030  -11.8780   13.1040 C   0  0  0  0  0  0  0  0  0  0  0  0
   13.7760   -9.1780   11.3310 C   0  0  0  0  0  0  0  0  0  0  0  0
   14.3890   -7.9230   11.1910 C   0  0  0  0  0  0  0  0  0  0  0  0
   18.3711   -6.1502   11.4417 H   0  0  0  0  0  0  0  0  0  0  0  0
   17.6770   -7.1456   10.1172 H   0  0  0  0  0  0  0  0  0  0  0  0
   17.4467   -5.3641   10.1172 H   0  0  0  0  0  0  0  0  0  0  0  0
   15.7406   -5.3041   13.2045 H   0  0  0  0  0  0  0  0  0  0  0  0
   16.2650   -4.3385   11.7836 H   0  0  0  0  0  0  0  0  0  0  0  0
   14.6549   -5.1348   11.7836 H   0  0  0  0  0  0  0  0  0  0  0  0
   17.3634   -8.6010   12.6507 H   0  0  0  0  0  0  0  0  0  0  0  0
   16.2935  -10.8198   12.9041 H   0  0  0  0  0  0  0  0  0  0  0  0
   14.5488  -12.7566   10.4244 H   0  0  0  0  0  0  0  0  0  0  0  0
   12.8921  -16.1116   14.6420 H   0  0  0  0  0  0  0  0  0  0  0  0
   12.2185  -18.4795   14.2743 H   0  0  0  0  0  0  0  0  0  0  0  0
   10.1824  -19.0097   12.9416 H   0  0  0  0  0  0  0  0  0  0  0  0
    8.6780  -17.3330   10.8060 H   0  0  0  0  0  0  0  0  0  0  0  0
    4.5999  -17.5620   12.5826 H   0  0  0  0  0  0  0  0  0  0  0  0
    2.9018  -18.0023   10.8116 H   0  0  0  0  0  0  0  0  0  0  0  0
    3.6222  -18.6615    8.5208 H   0  0  0  0  0  0  0  0  0  0  0  0
    7.7621  -18.4762    9.7725 H   0  0  0  0  0  0  0  0  0  0  0  0
    9.4950  -14.7956   12.3076 H   0  0  0  0  0  0  0  0  0  0  0  0
   10.4251  -13.6954   15.4743 H   0  0  0  0  0  0  0  0  0  0  0  0
   11.1654  -11.2656   15.7985 H   0  0  0  0  0  0  0  0  0  0  0  0
   12.7542   -9.3283   10.9525 H   0  0  0  0  0  0  0  0  0  0  0  0
   13.8305   -7.1124   10.7000 H   0  0  0  0  0  0  0  0  0  0  0  0
  1  2  1  0
  2  3  1  0
  2  4  1  0
  4  5  2  0
  5  6  1  0
  6  7  2  0
  7  8  1  0
  8  9  1  0
  9 10  2  0
 10 11  1  0
 11 12  1  0
 12 13  1  0
 13 14  2  0
 14 15  1  0
 15 16  2  0
 16 17  1  0
 17 18  1  0
 18 19  1  0
 19 20  2  0
 19 21  1  0
 21 22  2  0
 22 23  1  0
 23 24  2  0
 24 25  1  0
 25 26  1  0
 26 27  1  0
 26 28  1  0
 26 29  1  0
 25 30  2  0
 17 31  2  0
 12 32  2  0
 32 33  1  0
 33 34  2  0
 34 35  1  0
  7 36  1  0
 36 37  2  0
 37  4  1  0
 35  8  2  0
 35 11  1  0
 31 13  1  0
 30 21  1  0
  1 38  1  0
  1 39  1  0
  1 40  1  0
  3 41  1  0
  3 42  1  0
  3 43  1  0
  5 44  1  0
  6 45  1  0
  9 46  1  0
 14 47  1  0
 15 48  1  0
 16 49  1  0
 18 50  1  0
 22 51  1  0
 23 52  1  0
 24 53  1  0
 30 54  1  0
 31 55  1  0
 32 56  1  0
 33 57  1  0
 36 58  1  0
 37 59  1  0
M  END
>  <meeko>  (3) 
{"is_sidechain": [false], "free_energy": -9.047, "intermolecular_energy": -11.773, "internal_energy": -1.153}

$$$$
LIB_LBORYVQDGDVAMG__M_PUB_ALL__e8__s20260927
     RDKit          3D

 59 63  0  0  0  0  0  0  0  0999 V2000
   15.2800  -18.1930  -11.1600 C   0  0  0  0  0  0  0  0  0  0  0  0
   15.8950  -17.0930  -10.4280 N   0  0  0  0  0  0  0  0  0  0  0  0
   17.1420  -16.5470  -10.9450 C   0  0  0  0  0  0  0  0  0  0  0  0
   15.2980  -16.5680   -9.2870 C   0  0  0  0  0  0  0  0  0  0  0  0
   15.9890  -15.7220   -8.4040 C   0  0  0  0  0  0  0  0  0  0  0  0
   15.3900  -15.1870   -7.2510 C   0  0  0  0  0  0  0  0  0  0  0  0
   14.0660  -15.4800   -6.9310 C   0  0  0  0  0  0  0  0  0  0  0  0
   13.4180  -14.9210   -5.7540 C   0  0  0  0  0  0  0  0  0  0  0  0
   12.7980  -13.6680   -5.5840 C   0  0  0  0  0  0  0  0  0  0  0  0
   12.2870  -13.4880   -4.3690 N   0  0  0  0  0  0  0  0  0  0  0  0
   12.5710  -14.6440   -3.7030 N   0  0  0  0  0  0  0  0  0  0  0  0
   12.2500  -14.9820   -2.3710 C   0  0  0  0  0  0  0  0  0  0  0  0
   11.5140  -14.0610   -1.4760 C   0  0  0  0  0  0  0  0  0  0  0  0
   12.1810  -13.3760   -0.4520 C   0  0  0  0  0  0  0  0  0  0  0  0
   11.4850  -12.5100    0.3890 C   0  0  0  0  0  0  0  0  0  0  0  0
   10.1150  -12.3130    0.2110 C   0  0  0  0  0  0  0  0  0  0  0  0
    9.4280  -12.9780   -0.8110 C   0  0  0  0  0  0  0  0  0  0  0  0
    8.0440  -12.7280   -0.9260 N   0  0  0  0  0  0  0  0  0  0  0  0
    7.4030  -12.0280   -1.9320 C   0  0  0  0  0  0  0  0  0  0  0  0
    7.9300  -11.4000   -2.8420 O   0  0  0  0  0  0  0  0  0  0  0  0
    5.9150  -12.0100   -1.8350 C   0  0  0  0  0  0  0  0  0  0  0  0
    5.2420  -12.5670   -0.7400 C   0  0  0  0  0  0  0  0  0  0  0  0
    3.8490  -12.5410   -0.6930 C   0  0  0  0  0  0  0  0  0  0  0  0
    3.1220  -11.9670   -1.7380 C   0  0  0  0  0  0  0  0  0  0  0  0
    3.7800  -11.4130   -2.8480 C   0  0  0  0  0  0  0  0  0  0  0  0
    2.9960  -10.8240   -3.9950 C   0  0  0  0  0  0  0  0  0  0  0  0
    2.1030  -11.7070   -4.5190 F   0  0  0  0  0  0  0  0  0  0  0  0
    3.7850  -10.4240   -5.0300 F   0  0  0  0  0  0  0  0  0  0  0  0
    2.2710   -9.7270   -3.6370 F   0  0  0  0  0  0  0  0  0  0  0  0
    5.1830  -11.4520   -2.8910 C   0  0  0  0  0  0  0  0  0  0  0  0
   10.1310  -13.8550   -1.6400 C   0  0  0  0  0  0  0  0  0  0  0  0
   12.6090  -16.1910   -1.9020 C   0  0  0  0  0  0  0  0  0  0  0  0
   13.3330  -17.0720   -2.8500 C   0  0  0  0  0  0  0  0  0  0  0  0
   13.6450  -16.7880   -4.0770 N   0  0  0  0  0  0  0  0  0  0  0  0
   13.2640  -15.5500   -4.5290 C   0  0  0  0  0  0  0  0  0  0  0  0
   13.3570  -16.3170   -7.7950 C   0  0  0  0  0  0  0  0  0  0  0  0
   13.9650  -16.8470   -8.9450 C   0  0  0  0  0  0  0  0  0  0  0  0
   14.8711  -18.9244  -10.4474 H   0  0  0  0  0  0  0  0  0  0  0  0
   14.4684  -17.8041  -11.7926 H   0  0  0  0  0  0  0  0  0  0  0  0
   16.0363  -18.6807  -11.7926 H   0  0  0  0  0  0  0  0  0  0  0  0
   17.7933  -16.2618  -10.1057 H   0  0  0  0  0  0  0  0  0  0  0  0
   17.6476  -17.3061  -11.5599 H   0  0  0  0  0  0  0  0  0  0  0  0
   16.9271  -15.6606  -11.5599 H   0  0  0  0  0  0  0  0  0  0  0  0
   17.0369  -15.4691   -8.6230 H   0  0  0  0  0  0  0  0  0  0  0  0
   15.9743  -14.5279   -6.5921 H   0  0  0  0  0  0  0  0  0  0  0  0
   12.7417  -12.9106   -6.3797 H   0  0  0  0  0  0  0  0  0  0  0  0
   13.2620  -13.5229   -0.3109 H   0  0  0  0  0  0  0  0  0  0  0  0
   12.0161  -11.9811    1.1941 H   0  0  0  0  0  0  0  0  0  0  0  0
    9.5707  -11.6296    0.8793 H   0  0  0  0  0  0  0  0  0  0  0  0
    7.4740  -13.0570   -0.1580 H   0  0  0  0  0  0  0  0  0  0  0  0
    5.8121  -13.0245    0.0820 H   0  0  0  0  0  0  0  0  0  0  0  0
    3.3211  -12.9738    0.1696 H   0  0  0  0  0  0  0  0  0  0  0  0
    2.0231  -11.9486   -1.6912 H   0  0  0  0  0  0  0  0  0  0  0  0
    5.7126  -11.0402   -3.7627 H   0  0  0  0  0  0  0  0  0  0  0  0
    9.5948  -14.3941   -2.4349 H   0  0  0  0  0  0  0  0  0  0  0  0
   12.3786  -16.5078   -0.8741 H   0  0  0  0  0  0  0  0  0  0  0  0
   13.6347  -18.0619   -2.4770 H   0  0  0  0  0  0  0  0  0  0  0  0
   12.3086  -16.5646   -7.5722 H   0  0  0  0  0  0  0  0  0  0  0  0
   13.3757  -17.5043   -9.6013 H   0  0  0  0  0  0  0  0  0  0  0  0
  1  2  1  0
  2  3  1  0
  2  4  1  0
  4  5  2  0
  5  6  1  0
  6  7  2  0
  7  8  1  0
  8  9  1  0
  9 10  2  0
 10 11  1  0
 11 12  1  0
 12 13  1  0
 13 14  2  0
 14 15  1  0
 15 16  2  0
 16 17  1  0
 17 18  1  0
 18 19  1  0
 19 20  2  0
 19 21  1  0
 21 22  2  0
 22 23  1  0
 23 24  2  0
 24 25  1  0
 25 26  1  0
 26 27  1  0
 26 28  1  0
 26 29  1  0
 25 30  2  0
 17 31  2  0
 12 32  2  0
 32 33  1  0
 33 34  2  0
 34 35  1  0
  7 36  1  0
 36 37  2  0
 37  4  1  0
 35  8  2  0
 35 11  1  0
 31 13  1  0
 30 21  1  0
  1 38  1  0
  1 39  1  0
  1 40  1  0
  3 41  1  0
  3 42  1  0
  3 43  1  0
  5 44  1  0
  6 45  1  0
  9 46  1  0
 14 47  1  0
 15 48  1  0
 16 49  1  0
 18 50  1  0
 22 51  1  0
 23 52  1  0
 24 53  1  0
 30 54  1  0
 31 55  1  0
 32 56  1  0
 33 57  1  0
 36 58  1  0
 37 59  1  0
M  END
>  <meeko>  (4) 
{"is_sidechain": [false], "free_energy": -8.976, "intermolecular_energy": -11.674, "internal_energy": -1.157}

$$$$
LIB_LBORYVQDGDVAMG__M_PUB_ALL__e8__s20260927
     RDKit          3D

 59 63  0  0  0  0  0  0  0  0999 V2000
  -11.9490  -15.1700    8.0240 C   0  0  0  0  0  0  0  0  0  0  0  0
  -11.1900  -16.3630    7.6720 N   0  0  0  0  0  0  0  0  0  0  0  0
  -11.7980  -17.6590    7.9440 C   0  0  0  0  0  0  0  0  0  0  0  0
   -9.9380  -16.2670    7.0750 C   0  0  0  0  0  0  0  0  0  0  0  0
   -9.7280  -16.5870    5.7230 C   0  0  0  0  0  0  0  0  0  0  0  0
   -8.4660  -16.4910    5.1140 C   0  0  0  0  0  0  0  0  0  0  0  0
   -7.3530  -16.0680    5.8380 C   0  0  0  0  0  0  0  0  0  0  0  0
   -6.0400  -15.9400    5.2240 C   0  0  0  0  0  0  0  0  0  0  0  0
   -4.9030  -16.7610    5.3620 C   0  0  0  0  0  0  0  0  0  0  0  0
   -3.8640  -16.3560    4.6380 N   0  0  0  0  0  0  0  0  0  0  0  0
   -4.3060  -15.2350    3.9990 N   0  0  0  0  0  0  0  0  0  0  0  0
   -3.5990  -14.4080    3.1020 C   0  0  0  0  0  0  0  0  0  0  0  0
   -2.1950  -14.6780    2.7150 C   0  0  0  0  0  0  0  0  0  0  0  0
   -1.3360  -15.3640    3.5820 C   0  0  0  0  0  0  0  0  0  0  0  0
   -0.0150  -15.6160    3.2150 C   0  0  0  0  0  0  0  0  0  0  0  0
    0.4580  -15.1920    1.9730 C   0  0  0  0  0  0  0  0  0  0  0  0
   -0.3830  -14.5120    1.0850 C   0  0  0  0  0  0  0  0  0  0  0  0
    0.1690  -14.1140   -0.1510 N   0  0  0  0  0  0  0  0  0  0  0  0
    0.6530  -14.9360   -1.1530 C   0  0  0  0  0  0  0  0  0  0  0  0
    0.7970  -16.1510   -1.1020 O   0  0  0  0  0  0  0  0  0  0  0  0
    1.0890  -14.2270   -2.3910 C   0  0  0  0  0  0  0  0  0  0  0  0
    0.8820  -14.7740   -3.6630 C   0  0  0  0  0  0  0  0  0  0  0  0
    1.3140  -14.0850   -4.7960 C   0  0  0  0  0  0  0  0  0  0  0  0
    1.9600  -12.8540   -4.6640 C   0  0  0  0  0  0  0  0  0  0  0  0
    2.1850  -12.2960   -3.3950 C   0  0  0  0  0  0  0  0  0  0  0  0
    2.9150  -10.9830   -3.2470 C   0  0  0  0  0  0  0  0  0  0  0  0
    3.3170  -10.4770   -4.4440 F   0  0  0  0  0  0  0  0  0  0  0  0
    4.0360  -11.0800   -2.4810 F   0  0  0  0  0  0  0  0  0  0  0  0
    2.1530  -10.0130   -2.6670 F   0  0  0  0  0  0  0  0  0  0  0  0
    1.7540  -13.0010   -2.2590 C   0  0  0  0  0  0  0  0  0  0  0  0
   -1.7020  -14.2520    1.4680 C   0  0  0  0  0  0  0  0  0  0  0  0
   -4.2260  -13.3460    2.5620 C   0  0  0  0  0  0  0  0  0  0  0  0
   -5.6330  -13.1360    2.9800 C   0  0  0  0  0  0  0  0  0  0  0  0
   -6.3080  -13.8760    3.8040 N   0  0  0  0  0  0  0  0  0  0  0  0
   -5.6440  -14.9520    4.3370 C   0  0  0  0  0  0  0  0  0  0  0  0
   -7.5360  -15.7410    7.1830 C   0  0  0  0  0  0  0  0  0  0  0  0
   -8.8020  -15.8410    7.7830 C   0  0  0  0  0  0  0  0  0  0  0  0
  -12.0055  -15.0812    9.1190 H   0  0  0  0  0  0  0  0  0  0  0  0
  -11.4495  -14.2820    7.6094 H   0  0  0  0  0  0  0  0  0  0  0  0
  -12.9650  -15.2462    7.6094 H   0  0  0  0  0  0  0  0  0  0  0  0
  -11.8688  -17.8099    9.0313 H   0  0  0  0  0  0  0  0  0  0  0  0
  -12.8052  -17.6913    7.5030 H   0  0  0  0  0  0  0  0  0  0  0  0
  -11.1790  -18.4542    7.5030 H   0  0  0  0  0  0  0  0  0  0  0  0
  -10.5833  -16.9251    5.1195 H   0  0  0  0  0  0  0  0  0  0  0  0
   -8.3547  -16.7532    4.0515 H   0  0  0  0  0  0  0  0  0  0  0  0
   -4.8775  -17.6517    6.0070 H   0  0  0  0  0  0  0  0  0  0  0  0
   -1.7061  -15.7065    4.5596 H   0  0  0  0  0  0  0  0  0  0  0  0
    0.6549  -16.1496    3.9053 H   0  0  0  0  0  0  0  0  0  0  0  0
    1.5014  -15.3940    1.6892 H   0  0  0  0  0  0  0  0  0  0  0  0
    0.2630  -13.1160   -0.2860 H   0  0  0  0  0  0  0  0  0  0  0  0
    0.3790  -15.7465   -3.7687 H   0  0  0  0  0  0  0  0  0  0  0  0
    1.1455  -14.5121   -5.7956 H   0  0  0  0  0  0  0  0  0  0  0  0
    2.2959  -12.3161   -5.5628 H   0  0  0  0  0  0  0  0  0  0  0  0
    1.9403  -12.5869   -1.2571 H   0  0  0  0  0  0  0  0  0  0  0  0
   -2.3660  -13.7049    0.7826 H   0  0  0  0  0  0  0  0  0  0  0  0
   -3.7235  -12.6730    1.8517 H   0  0  0  0  0  0  0  0  0  0  0  0
   -6.1549  -12.2686    2.5496 H   0  0  0  0  0  0  0  0  0  0  0  0
   -6.6775  -15.4006    7.7805 H   0  0  0  0  0  0  0  0  0  0  0  0
   -8.9077  -15.5762    8.8454 H   0  0  0  0  0  0  0  0  0  0  0  0
  1  2  1  0
  2  3  1  0
  2  4  1  0
  4  5  2  0
  5  6  1  0
  6  7  2  0
  7  8  1  0
  8  9  1  0
  9 10  2  0
 10 11  1  0
 11 12  1  0
 12 13  1  0
 13 14  2  0
 14 15  1  0
 15 16  2  0
 16 17  1  0
 17 18  1  0
 18 19  1  0
 19 20  2  0
 19 21  1  0
 21 22  2  0
 22 23  1  0
 23 24  2  0
 24 25  1  0
 25 26  1  0
 26 27  1  0
 26 28  1  0
 26 29  1  0
 25 30  2  0
 17 31  2  0
 12 32  2  0
 32 33  1  0
 33 34  2  0
 34 35  1  0
  7 36  1  0
 36 37  2  0
 37  4  1  0
 35  8  2  0
 35 11  1  0
 31 13  1  0
 30 21  1  0
  1 38  1  0
  1 39  1  0
  1 40  1  0
  3 41  1  0
  3 42  1  0
  3 43  1  0
  5 44  1  0
  6 45  1  0
  9 46  1  0
 14 47  1  0
 15 48  1  0
 16 49  1  0
 18 50  1  0
 22 51  1  0
 23 52  1  0
 24 53  1  0
 30 54  1  0
 31 55  1  0
 32 56  1  0
 33 57  1  0
 36 58  1  0
 37 59  1  0
M  END
>  <meeko>  (5) 
{"is_sidechain": [false], "free_energy": -8.962, "intermolecular_energy": -12.319, "internal_energy": -0.493}

$$$$
LIB_LBORYVQDGDVAMG__M_PUB_ALL__e8__s20260927
     RDKit          3D

 59 63  0  0  0  0  0  0  0  0999 V2000
    0.0190  -17.0440    6.9290 C   0  0  0  0  0  0  0  0  0  0  0  0
    1.0180  -17.5420    5.9930 N   0  0  0  0  0  0  0  0  0  0  0  0
    1.6880  -18.7940    6.3190 C   0  0  0  0  0  0  0  0  0  0  0  0
    1.3030  -16.8580    4.8170 C   0  0  0  0  0  0  0  0  0  0  0  0
    1.1160  -15.4710    4.6950 C   0  0  0  0  0  0  0  0  0  0  0  0
    1.4050  -14.7740    3.5100 C   0  0  0  0  0  0  0  0  0  0  0  0
    1.8940  -15.4410    2.3880 C   0  0  0  0  0  0  0  0  0  0  0  0
    2.2210  -14.7390    1.1560 C   0  0  0  0  0  0  0  0  0  0  0  0
    3.3060  -13.8870    0.8720 C   0  0  0  0  0  0  0  0  0  0  0  0
    3.3060  -13.4240   -0.3740 N   0  0  0  0  0  0  0  0  0  0  0  0
    2.1940  -13.9710   -0.9440 N   0  0  0  0  0  0  0  0  0  0  0  0
    1.7200  -13.8050   -2.2620 C   0  0  0  0  0  0  0  0  0  0  0  0
    2.4220  -12.9610   -3.2560 C   0  0  0  0  0  0  0  0  0  0  0  0
    2.3270  -11.5650   -3.2000 C   0  0  0  0  0  0  0  0  0  0  0  0
    2.9900  -10.7740   -4.1370 C   0  0  0  0  0  0  0  0  0  0  0  0
    3.7610  -11.3700   -5.1360 C   0  0  0  0  0  0  0  0  0  0  0  0
    3.8790  -12.7630   -5.2070 C   0  0  0  0  0  0  0  0  0  0  0  0
    4.6740  -13.2910   -6.2460 N   0  0  0  0  0  0  0  0  0  0  0  0
    6.0090  -13.6490   -6.1760 C   0  0  0  0  0  0  0  0  0  0  0  0
    6.7710  -13.4650   -5.2350 O   0  0  0  0  0  0  0  0  0  0  0  0
    6.5580  -14.2700   -7.4150 C   0  0  0  0  0  0  0  0  0  0  0  0
    7.1560  -15.5370   -7.4000 C   0  0  0  0  0  0  0  0  0  0  0  0
    7.6680  -16.0790   -8.5780 C   0  0  0  0  0  0  0  0  0  0  0  0
    7.5920  -15.3590   -9.7730 C   0  0  0  0  0  0  0  0  0  0  0  0
    7.0050  -14.0840   -9.8030 C   0  0  0  0  0  0  0  0  0  0  0  0
    6.9540  -13.2880  -11.0850 C   0  0  0  0  0  0  0  0  0  0  0  0
    6.7570  -11.9610  -10.8640 F   0  0  0  0  0  0  0  0  0  0  0  0
    5.9540  -13.6860  -11.9190 F   0  0  0  0  0  0  0  0  0  0  0  0
    8.1020  -13.3800  -11.8140 F   0  0  0  0  0  0  0  0  0  0  0  0
    6.5000  -13.5420   -8.6100 C   0  0  0  0  0  0  0  0  0  0  0  0
    3.1990  -13.5480   -4.2710 C   0  0  0  0  0  0  0  0  0  0  0  0
    0.6000  -14.4500   -2.6380 C   0  0  0  0  0  0  0  0  0  0  0  0
   -0.0500  -15.2880   -1.6010 C   0  0  0  0  0  0  0  0  0  0  0  0
    0.3590  -15.4570   -0.3820 N   0  0  0  0  0  0  0  0  0  0  0  0
    1.5040  -14.7890   -0.0280 C   0  0  0  0  0  0  0  0  0  0  0  0
    2.0910  -16.8210    2.4850 C   0  0  0  0  0  0  0  0  0  0  0  0
    1.7990  -17.5080    3.6750 C   0  0  0  0  0  0  0  0  0  0  0  0
    0.3639  -17.2159    7.9593 H   0  0  0  0  0  0  0  0  0  0  0  0
   -0.1299  -15.9662    6.7673 H   0  0  0  0  0  0  0  0  0  0  0  0
   -0.9313  -17.5738    6.7673 H   0  0  0  0  0  0  0  0  0  0  0  0
    1.7471  -18.9045    7.4118 H   0  0  0  0  0  0  0  0  0  0  0  0
    1.1195  -19.6352    5.8956 H   0  0  0  0  0  0  0  0  0  0  0  0
    2.7032  -18.7876    5.8956 H   0  0  0  0  0  0  0  0  0  0  0  0
    0.7292  -14.9104    5.5588 H   0  0  0  0  0  0  0  0  0  0  0  0
    1.2431  -13.6868    3.4670 H   0  0  0  0  0  0  0  0  0  0  0  0
    4.0794  -13.6294    1.6106 H   0  0  0  0  0  0  0  0  0  0  0  0
    1.7253  -11.0895   -2.4115 H   0  0  0  0  0  0  0  0  0  0  0  0
    2.9053   -9.6783   -4.0889 H   0  0  0  0  0  0  0  0  0  0  0  0
    4.2801  -10.7401   -5.8734 H   0  0  0  0  0  0  0  0  0  0  0  0
    4.2240  -13.3630   -7.1480 H   0  0  0  0  0  0  0  0  0  0  0  0
    7.2215  -16.1036   -6.4594 H   0  0  0  0  0  0  0  0  0  0  0  0
    8.1329  -17.0759   -8.5666 H   0  0  0  0  0  0  0  0  0  0  0  0
    7.9957  -15.7951  -10.6987 H   0  0  0  0  0  0  0  0  0  0  0  0
    6.0547  -12.5362   -8.6141 H   0  0  0  0  0  0  0  0  0  0  0  0
    3.2729  -14.6440   -4.3294 H   0  0  0  0  0  0  0  0  0  0  0  0
    0.1906  -14.3608   -3.6551 H   0  0  0  0  0  0  0  0  0  0  0  0
   -0.9683  -15.8177   -1.8945 H   0  0  0  0  0  0  0  0  0  0  0  0
    2.4796  -17.3763    1.6186 H   0  0  0  0  0  0  0  0  0  0  0  0
    1.9649  -18.5947    3.7139 H   0  0  0  0  0  0  0  0  0  0  0  0
  1  2  1  0
  2  3  1  0
  2  4  1  0
  4  5  2  0
  5  6  1  0
  6  7  2  0
  7  8  1  0
  8  9  1  0
  9 10  2  0
 10 11  1  0
 11 12  1  0
 12 13  1  0
 13 14  2  0
 14 15  1  0
 15 16  2  0
 16 17  1  0
 17 18  1  0
 18 19  1  0
 19 20  2  0
 19 21  1  0
 21 22  2  0
 22 23  1  0
 23 24  2  0
 24 25  1  0
 25 26  1  0
 26 27  1  0
 26 28  1  0
 26 29  1  0
 25 30  2  0
 17 31  2  0
 12 32  2  0
 32 33  1  0
 33 34  2  0
 34 35  1  0
  7 36  1  0
 36 37  2  0
 37  4  1  0
 35  8  2  0
 35 11  1  0
 31 13  1  0
 30 21  1  0
  1 38  1  0
  1 39  1  0
  1 40  1  0
  3 41  1  0
  3 42  1  0
  3 43  1  0
  5 44  1  0
  6 45  1  0
  9 46  1  0
 14 47  1  0
 15 48  1  0
 16 49  1  0
 18 50  1  0
 22 51  1  0
 23 52  1  0
 24 53  1  0
 30 54  1  0
 31 55  1  0
 32 56  1  0
 33 57  1  0
 36 58  1  0
 37 59  1  0
M  END
>  <meeko>  (6) 
{"is_sidechain": [false], "free_energy": -8.928, "intermolecular_energy": -11.618, "internal_energy": -1.147}

$$$$
LIB_LBORYVQDGDVAMG__M_PUB_ALL__e8__s20260927
     RDKit          3D

 59 63  0  0  0  0  0  0  0  0999 V2000
  -12.5990  -25.6580   12.3930 C   0  0  0  0  0  0  0  0  0  0  0  0
  -12.3710  -25.4430   10.9700 N   0  0  0  0  0  0  0  0  0  0  0  0
  -12.8820  -26.4430   10.0420 C   0  0  0  0  0  0  0  0  0  0  0  0
  -11.7100  -24.3090   10.5130 C   0  0  0  0  0  0  0  0  0  0  0  0
  -11.7310  -23.9260    9.1620 C   0  0  0  0  0  0  0  0  0  0  0  0
  -11.0650  -22.7810    8.6930 C   0  0  0  0  0  0  0  0  0  0  0  0
  -10.3440  -21.9660    9.5640 C   0  0  0  0  0  0  0  0  0  0  0  0
   -9.6640  -20.7630    9.1080 C   0  0  0  0  0  0  0  0  0  0  0  0
   -8.4150  -20.2390    9.4960 C   0  0  0  0  0  0  0  0  0  0  0  0
   -8.0880  -19.1190    8.8580 N   0  0  0  0  0  0  0  0  0  0  0  0
   -9.1400  -18.8780    8.0250 N   0  0  0  0  0  0  0  0  0  0  0  0
   -9.3060  -17.8090    7.1190 C   0  0  0  0  0  0  0  0  0  0  0  0
   -8.2870  -16.7490    6.9510 C   0  0  0  0  0  0  0  0  0  0  0  0
   -8.2490  -15.6510    7.8190 C   0  0  0  0  0  0  0  0  0  0  0  0
   -7.2880  -14.6540    7.6580 C   0  0  0  0  0  0  0  0  0  0  0  0
   -6.3490  -14.7490    6.6300 C   0  0  0  0  0  0  0  0  0  0  0  0
   -6.3600  -15.8410    5.7550 C   0  0  0  0  0  0  0  0  0  0  0  0
   -5.3800  -15.8640    4.7400 N   0  0  0  0  0  0  0  0  0  0  0  0
   -4.2600  -16.6750    4.6790 C   0  0  0  0  0  0  0  0  0  0  0  0
   -3.8560  -17.4360    5.5490 O   0  0  0  0  0  0  0  0  0  0  0  0
   -3.4550  -16.5400    3.4320 C   0  0  0  0  0  0  0  0  0  0  0  0
   -2.7160  -17.6120    2.9130 C   0  0  0  0  0  0  0  0  0  0  0  0
   -1.9660  -17.4420    1.7500 C   0  0  0  0  0  0  0  0  0  0  0  0
   -1.9430  -16.2030    1.1050 C   0  0  0  0  0  0  0  0  0  0  0  0
   -2.6690  -15.1160    1.6170 C   0  0  0  0  0  0  0  0  0  0  0  0
   -2.6170  -13.7670    0.9420 C   0  0  0  0  0  0  0  0  0  0  0  0
   -1.3480  -13.3910    0.6320 F   0  0  0  0  0  0  0  0  0  0  0  0
   -3.1320  -12.7670    1.7090 F   0  0  0  0  0  0  0  0  0  0  0  0
   -3.3150  -13.7310   -0.2290 F   0  0  0  0  0  0  0  0  0  0  0  0
   -3.4150  -15.2940    2.7940 C   0  0  0  0  0  0  0  0  0  0  0  0
   -7.3360  -16.8280    5.9160 C   0  0  0  0  0  0  0  0  0  0  0  0
  -10.4220  -17.7600    6.3680 C   0  0  0  0  0  0  0  0  0  0  0  0
  -11.3980  -18.8560    6.5750 C   0  0  0  0  0  0  0  0  0  0  0  0
  -11.2760  -19.8490    7.4010 N   0  0  0  0  0  0  0  0  0  0  0  0
  -10.1280  -19.8740    8.1520 C   0  0  0  0  0  0  0  0  0  0  0  0
  -10.3100  -22.3250   10.9140 C   0  0  0  0  0  0  0  0  0  0  0  0
  -10.9780  -23.4720   11.3710 C   0  0  0  0  0  0  0  0  0  0  0  0
  -11.9195  -25.0172   12.9741 H   0  0  0  0  0  0  0  0  0  0  0  0
  -13.6410  -25.4061   12.6396 H   0  0  0  0  0  0  0  0  0  0  0  0
  -12.4086  -26.7130   12.6396 H   0  0  0  0  0  0  0  0  0  0  0  0
  -13.3112  -27.2830   10.6079 H   0  0  0  0  0  0  0  0  0  0  0  0
  -13.6601  -25.9919    9.4087 H   0  0  0  0  0  0  0  0  0  0  0  0
  -12.0605  -26.8092    9.4087 H   0  0  0  0  0  0  0  0  0  0  0  0
  -12.2894  -24.5452    8.4445 H   0  0  0  0  0  0  0  0  0  0  0  0
  -11.1133  -22.5245    7.6244 H   0  0  0  0  0  0  0  0  0  0  0  0
   -7.7722  -20.7109   10.2537 H   0  0  0  0  0  0  0  0  0  0  0  0
   -8.9833  -15.5745    8.6345 H   0  0  0  0  0  0  0  0  0  0  0  0
   -7.2699  -13.7922    8.3414 H   0  0  0  0  0  0  0  0  0  0  0  0
   -5.5938  -13.9588    6.5065 H   0  0  0  0  0  0  0  0  0  0  0  0
   -5.4900  -15.1740    4.0100 H   0  0  0  0  0  0  0  0  0  0  0  0
   -2.7277  -18.5866    3.4228 H   0  0  0  0  0  0  0  0  0  0  0  0
   -1.3912  -18.2852    1.3395 H   0  0  0  0  0  0  0  0  0  0  0  0
   -1.3502  -16.0779    0.1869 H   0  0  0  0  0  0  0  0  0  0  0  0
   -3.9731  -14.4465    3.2186 H   0  0  0  0  0  0  0  0  0  0  0  0
   -7.3617  -17.6812    5.2222 H   0  0  0  0  0  0  0  0  0  0  0  0
  -10.5995  -16.9527    5.6422 H   0  0  0  0  0  0  0  0  0  0  0  0
  -12.3155  -18.8244    5.9691 H   0  0  0  0  0  0  0  0  0  0  0  0
   -9.7526  -21.7008   11.6279 H   0  0  0  0  0  0  0  0  0  0  0  0
  -10.9262  -23.7245   12.4404 H   0  0  0  0  0  0  0  0  0  0  0  0
  1  2  1  0
  2  3  1  0
  2  4  1  0
  4  5  2  0
  5  6  1  0
  6  7  2  0
  7  8  1  0
  8  9  1  0
  9 10  2  0
 10 11  1  0
 11 12  1  0
 12 13  1  0
 13 14  2  0
 14 15  1  0
 15 16  2  0
 16 17  1  0
 17 18  1  0
 18 19  1  0
 19 20  2  0
 19 21  1  0
 21 22  2  0
 22 23  1  0
 23 24  2  0
 24 25  1  0
 25 26  1  0
 26 27  1  0
 26 28  1  0
 26 29  1  0
 25 30  2  0
 17 31  2  0
 12 32  2  0
 32 33  1  0
 33 34  2  0
 34 35  1  0
  7 36  1  0
 36 37  2  0
 37  4  1  0
 35  8  2  0
 35 11  1  0
 31 13  1  0
 30 21  1  0
  1 38  1  0
  1 39  1  0
  1 40  1  0
  3 41  1  0
  3 42  1  0
  3 43  1  0
  5 44  1  0
  6 45  1  0
  9 46  1  0
 14 47  1  0
 15 48  1  0
 16 49  1  0
 18 50  1  0
 22 51  1  0
 23 52  1  0
 24 53  1  0
 30 54  1  0
 31 55  1  0
 32 56  1  0
 33 57  1  0
 36 58  1  0
 37 59  1  0
M  END
>  <meeko>  (7) 
{"is_sidechain": [false], "free_energy": -8.636, "intermolecular_energy": -11.385, "internal_energy": -0.986}

$$$$
LIB_LBORYVQDGDVAMG__M_PUB_ALL__e8__s20260927
     RDKit          3D

 59 63  0  0  0  0  0  0  0  0999 V2000
    7.1620  -15.2440   -8.9720 C   0  0  0  0  0  0  0  0  0  0  0  0
    7.5150  -14.8330   -7.6190 N   0  0  0  0  0  0  0  0  0  0  0  0
    8.9260  -14.8350   -7.2560 C   0  0  0  0  0  0  0  0  0  0  0  0
    6.5400  -14.4300   -6.7140 C   0  0  0  0  0  0  0  0  0  0  0  0
    6.0670  -15.2770   -5.6980 C   0  0  0  0  0  0  0  0  0  0  0  0
    5.0830  -14.8750   -4.7800 C   0  0  0  0  0  0  0  0  0  0  0  0
    4.5260  -13.5990   -4.8410 C   0  0  0  0  0  0  0  0  0  0  0  0
    3.5210  -13.1520   -3.8880 C   0  0  0  0  0  0  0  0  0  0  0  0
    2.1460  -12.9160   -4.0830 C   0  0  0  0  0  0  0  0  0  0  0  0
    1.5130  -12.5260   -2.9800 N   0  0  0  0  0  0  0  0  0  0  0  0
    2.4820  -12.4930   -2.0210 N   0  0  0  0  0  0  0  0  0  0  0  0
    2.3480  -12.1420   -0.6610 C   0  0  0  0  0  0  0  0  0  0  0  0
    1.0510  -11.7440   -0.0690 C   0  0  0  0  0  0  0  0  0  0  0  0
    0.5350  -10.4590   -0.2810 C   0  0  0  0  0  0  0  0  0  0  0  0
   -0.6870  -10.0880    0.2770 C   0  0  0  0  0  0  0  0  0  0  0  0
   -1.4100  -10.9990    1.0480 C   0  0  0  0  0  0  0  0  0  0  0  0
   -0.9190  -12.2920    1.2670 C   0  0  0  0  0  0  0  0  0  0  0  0
   -1.7070  -13.1550    2.0580 N   0  0  0  0  0  0  0  0  0  0  0  0
   -2.8160  -13.8780    1.6550 C   0  0  0  0  0  0  0  0  0  0  0  0
   -3.3830  -13.8100    0.5720 O   0  0  0  0  0  0  0  0  0  0  0  0
   -3.3870  -14.7820    2.6930 C   0  0  0  0  0  0  0  0  0  0  0  0
   -2.8020  -16.0200    2.9930 C   0  0  0  0  0  0  0  0  0  0  0  0
   -3.3730  -16.8420    3.9640 C   0  0  0  0  0  0  0  0  0  0  0  0
   -4.5310  -16.4390    4.6330 C   0  0  0  0  0  0  0  0  0  0  0  0
   -5.1360  -15.2060    4.3360 C   0  0  0  0  0  0  0  0  0  0  0  0
   -6.4070  -14.7840    5.0320 C   0  0  0  0  0  0  0  0  0  0  0  0
   -6.4160  -13.4580    5.3350 F   0  0  0  0  0  0  0  0  0  0  0  0
   -6.6160  -15.4420    6.2050 F   0  0  0  0  0  0  0  0  0  0  0  0
   -7.5230  -15.0040    4.2800 F   0  0  0  0  0  0  0  0  0  0  0  0
   -4.5580  -14.3880    3.3520 C   0  0  0  0  0  0  0  0  0  0  0  0
    0.3130  -12.6510    0.7140 C   0  0  0  0  0  0  0  0  0  0  0  0
    3.4350  -12.1890    0.1330 C   0  0  0  0  0  0  0  0  0  0  0  0
    4.7010  -12.6060   -0.5160 C   0  0  0  0  0  0  0  0  0  0  0  0
    4.8550  -12.9300   -1.7620 N   0  0  0  0  0  0  0  0  0  0  0  0
    3.7310  -12.8760   -2.5470 C   0  0  0  0  0  0  0  0  0  0  0  0
    4.9810  -12.7370   -5.8410 C   0  0  0  0  0  0  0  0  0  0  0  0
    5.9650  -13.1490   -6.7540 C   0  0  0  0  0  0  0  0  0  0  0  0
    6.4459  -16.0778   -8.9269 H   0  0  0  0  0  0  0  0  0  0  0  0
    6.7055  -14.3970   -9.5052 H   0  0  0  0  0  0  0  0  0  0  0  0
    8.0682  -15.5674   -9.5052 H   0  0  0  0  0  0  0  0  0  0  0  0
    9.0227  -14.8351   -6.1603 H   0  0  0  0  0  0  0  0  0  0  0  0
    9.4090  -15.7338   -7.6668 H   0  0  0  0  0  0  0  0  0  0  0  0
    9.4116  -13.9375   -7.6668 H   0  0  0  0  0  0  0  0  0  0  0  0
    6.4826  -16.2924   -5.6185 H   0  0  0  0  0  0  0  0  0  0  0  0
    4.7474  -15.5768   -4.0023 H   0  0  0  0  0  0  0  0  0  0  0  0
    1.6442  -13.0421   -5.0537 H   0  0  0  0  0  0  0  0  0  0  0  0
    1.0980   -9.7381   -0.8919 H   0  0  0  0  0  0  0  0  0  0  0  0
   -1.0823   -9.0752    0.1093 H   0  0  0  0  0  0  0  0  0  0  0  0
   -2.3730  -10.6992    1.4871 H   0  0  0  0  0  0  0  0  0  0  0  0
   -1.4550  -13.2030    3.0360 H   0  0  0  0  0  0  0  0  0  0  0  0
   -1.8936  -16.3427    2.4631 H   0  0  0  0  0  0  0  0  0  0  0  0
   -2.9101  -17.8106    4.2038 H   0  0  0  0  0  0  0  0  0  0  0  0
   -4.9733  -17.0927    5.3992 H   0  0  0  0  0  0  0  0  0  0  0  0
   -5.0299  -13.4279    3.0962 H   0  0  0  0  0  0  0  0  0  0  0  0
    0.7128  -13.6599    0.8938 H   0  0  0  0  0  0  0  0  0  0  0  0
    3.3862  -11.9327    1.2016 H   0  0  0  0  0  0  0  0  0  0  0  0
    5.5967  -12.6443    0.1214 H   0  0  0  0  0  0  0  0  0  0  0  0
    4.5631  -11.7221   -5.9144 H   0  0  0  0  0  0  0  0  0  0  0  0
    6.2978  -12.4428   -7.5289 H   0  0  0  0  0  0  0  0  0  0  0  0
  1  2  1  0
  2  3  1  0
  2  4  1  0
  4  5  2  0
  5  6  1  0
  6  7  2  0
  7  8  1  0
  8  9  1  0
  9 10  2  0
 10 11  1  0
 11 12  1  0
 12 13  1  0
 13 14  2  0
 14 15  1  0
 15 16  2  0
 16 17  1  0
 17 18  1  0
 18 19  1  0
 19 20  2  0
 19 21  1  0
 21 22  2  0
 22 23  1  0
 23 24  2  0
 24 25  1  0
 25 26  1  0
 26 27  1  0
 26 28  1  0
 26 29  1  0
 25 30  2  0
 17 31  2  0
 12 32  2  0
 32 33  1  0
 33 34  2  0
 34 35  1  0
  7 36  1  0
 36 37  2  0
 37  4  1  0
 35  8  2  0
 35 11  1  0
 31 13  1  0
 30 21  1  0
  1 38  1  0
  1 39  1  0
  1 40  1  0
  3 41  1  0
  3 42  1  0
  3 43  1  0
  5 44  1  0
  6 45  1  0
  9 46  1  0
 14 47  1  0
 15 48  1  0
 16 49  1  0
 18 50  1  0
 22 51  1  0
 23 52  1  0
 24 53  1  0
 30 54  1  0
 31 55  1  0
 32 56  1  0
 33 57  1  0
 36 58  1  0
 37 59  1  0
M  END
>  <meeko>  (8) 
{"is_sidechain": [false], "free_energy": -8.591, "intermolecular_energy": -11.228, "internal_energy": -1.082}

$$$$
LIB_LBORYVQDGDVAMG__M_PUB_ALL__e8__s20260927
     RDKit          3D

 59 63  0  0  0  0  0  0  0  0999 V2000
   -6.7960  -17.2520    9.1430 C   0  0  0  0  0  0  0  0  0  0  0  0
   -6.8320  -16.5390    7.8730 N   0  0  0  0  0  0  0  0  0  0  0  0
   -8.0420  -15.7970    7.5460 C   0  0  0  0  0  0  0  0  0  0  0  0
   -5.7390  -16.5470    7.0140 C   0  0  0  0  0  0  0  0  0  0  0  0
   -5.8800  -16.7150    5.6270 C   0  0  0  0  0  0  0  0  0  0  0  0
   -4.7800  -16.7230    4.7530 C   0  0  0  0  0  0  0  0  0  0  0  0
   -3.4820  -16.5640    5.2360 C   0  0  0  0  0  0  0  0  0  0  0  0
   -2.3280  -16.5470    4.3500 C   0  0  0  0  0  0  0  0  0  0  0  0
   -2.1770  -17.1080    3.0670 C   0  0  0  0  0  0  0  0  0  0  0  0
   -0.9810  -16.8880    2.5280 N   0  0  0  0  0  0  0  0  0  0  0  0
   -0.3080  -16.1660    3.4700 N   0  0  0  0  0  0  0  0  0  0  0  0
    1.0100  -15.6680    3.4060 C   0  0  0  0  0  0  0  0  0  0  0  0
    1.8810  -15.8800    2.2280 C   0  0  0  0  0  0  0  0  0  0  0  0
    2.5810  -17.0820    2.0650 C   0  0  0  0  0  0  0  0  0  0  0  0
    3.4000  -17.2790    0.9550 C   0  0  0  0  0  0  0  0  0  0  0  0
    3.5220  -16.2780   -0.0100 C   0  0  0  0  0  0  0  0  0  0  0  0
    2.8260  -15.0720    0.1250 C   0  0  0  0  0  0  0  0  0  0  0  0
    3.0020  -14.1080   -0.8900 N   0  0  0  0  0  0  0  0  0  0  0  0
    2.1390  -13.8290   -1.9360 C   0  0  0  0  0  0  0  0  0  0  0  0
    1.1240  -14.4450   -2.2350 O   0  0  0  0  0  0  0  0  0  0  0  0
    2.5500  -12.6860   -2.8010 C   0  0  0  0  0  0  0  0  0  0  0  0
    2.1720  -11.3700   -2.5100 C   0  0  0  0  0  0  0  0  0  0  0  0
    2.5680  -10.3300   -3.3510 C   0  0  0  0  0  0  0  0  0  0  0  0
    3.3340  -10.5990   -4.4870 C   0  0  0  0  0  0  0  0  0  0  0  0
    3.7130  -11.9150   -4.7990 C   0  0  0  0  0  0  0  0  0  0  0  0
    4.5110  -12.2130   -6.0450 C   0  0  0  0  0  0  0  0  0  0  0  0
    4.0840  -13.3390   -6.6760 F   0  0  0  0  0  0  0  0  0  0  0  0
    5.8370  -12.3970   -5.7970 F   0  0  0  0  0  0  0  0  0  0  0  0
    4.4430  -11.2150   -6.9710 F   0  0  0  0  0  0  0  0  0  0  0  0
    3.3030  -12.9560   -3.9510 C   0  0  0  0  0  0  0  0  0  0  0  0
    2.0180  -14.8790    1.2490 C   0  0  0  0  0  0  0  0  0  0  0  0
    1.4890  -14.9580    4.4450 C   0  0  0  0  0  0  0  0  0  0  0  0
    0.5650  -14.7710    5.5890 C   0  0  0  0  0  0  0  0  0  0  0  0
   -0.6490  -15.2190    5.6780 N   0  0  0  0  0  0  0  0  0  0  0  0
   -1.1110  -15.9360    4.6040 C   0  0  0  0  0  0  0  0  0  0  0  0
   -3.3160  -16.3930    6.6130 C   0  0  0  0  0  0  0  0  0  0  0  0
   -4.4230  -16.3870    7.4770 C   0  0  0  0  0  0  0  0  0  0  0  0
   -6.8325  -16.5285    9.9708 H   0  0  0  0  0  0  0  0  0  0  0  0
   -7.6611  -17.9282    9.2085 H   0  0  0  0  0  0  0  0  0  0  0  0
   -5.8671  -17.8376    9.2085 H   0  0  0  0  0  0  0  0  0  0  0  0
   -8.5451  -15.4885    8.4743 H   0  0  0  0  0  0  0  0  0  0  0  0
   -7.7778  -14.9054    6.9584 H   0  0  0  0  0  0  0  0  0  0  0  0
   -8.7169  -16.4367    6.9584 H   0  0  0  0  0  0  0  0  0  0  0  0
   -6.8892  -16.8452    5.2092 H   0  0  0  0  0  0  0  0  0  0  0  0
   -4.9451  -16.8564    3.6737 H   0  0  0  0  0  0  0  0  0  0  0  0
   -2.9720  -17.6739    2.5593 H   0  0  0  0  0  0  0  0  0  0  0  0
    2.4835  -17.8768    2.8191 H   0  0  0  0  0  0  0  0  0  0  0  0
    3.9508  -18.2241    0.8392 H   0  0  0  0  0  0  0  0  0  0  0  0
    4.1707  -16.4387   -0.8837 H   0  0  0  0  0  0  0  0  0  0  0  0
    3.8810  -13.6100   -0.8720 H   0  0  0  0  0  0  0  0  0  0  0  0
    1.5633  -11.1562   -1.6190 H   0  0  0  0  0  0  0  0  0  0  0  0
    2.2761   -9.2952   -3.1187 H   0  0  0  0  0  0  0  0  0  0  0  0
    3.6435   -9.7726   -5.1437 H   0  0  0  0  0  0  0  0  0  0  0  0
    3.5758  -13.9940   -4.1920 H   0  0  0  0  0  0  0  0  0  0  0  0
    1.4796  -13.9275    1.3703 H   0  0  0  0  0  0  0  0  0  0  0  0
    2.5069  -14.5409    4.4449 H   0  0  0  0  0  0  0  0  0  0  0  0
    0.9461  -14.1963    6.4460 H   0  0  0  0  0  0  0  0  0  0  0  0
   -2.3048  -16.2614    7.0255 H   0  0  0  0  0  0  0  0  0  0  0  0
   -4.2531  -16.2521    8.5554 H   0  0  0  0  0  0  0  0  0  0  0  0
  1  2  1  0
  2  3  1  0
  2  4  1  0
  4  5  2  0
  5  6  1  0
  6  7  2  0
  7  8  1  0
  8  9  1  0
  9 10  2  0
 10 11  1  0
 11 12  1  0
 12 13  1  0
 13 14  2  0
 14 15  1  0
 15 16  2  0
 16 17  1  0
 17 18  1  0
 18 19  1  0
 19 20  2  0
 19 21  1  0
 21 22  2  0
 22 23  1  0
 23 24  2  0
 24 25  1  0
 25 26  1  0
 26 27  1  0
 26 28  1  0
 26 29  1  0
 25 30  2  0
 17 31  2  0
 12 32  2  0
 32 33  1  0
 33 34  2  0
 34 35  1  0
  7 36  1  0
 36 37  2  0
 37  4  1  0
 35  8  2  0
 35 11  1  0
 31 13  1  0
 30 21  1  0
  1 38  1  0
  1 39  1  0
  1 40  1  0
  3 41  1  0
  3 42  1  0
  3 43  1  0
  5 44  1  0
  6 45  1  0
  9 46  1  0
 14 47  1  0
 15 48  1  0
 16 49  1  0
 18 50  1  0
 22 51  1  0
 23 52  1  0
 24 53  1  0
 30 54  1  0
 31 55  1  0
 32 56  1  0
 33 57  1  0
 36 58  1  0
 37 59  1  0
M  END
>  <meeko>  (9) 
{"is_sidechain": [false], "free_energy": -8.575, "intermolecular_energy": -11.498, "internal_energy": -0.791}

$$$$
