LIB_XSSPOOYIFPEICN__M_PUB_ALL__e8__s20260927
     RDKit          3D

 85 90  0  0  0  0  0  0  0  0999 V2000
    3.3150  -11.8950   -3.5840 C   0  0  0  0  0  0  0  0  0  0  0  0
    3.9720  -12.6180   -2.6620 C   0  0  0  0  0  0  0  0  0  0  0  0
    3.3660  -13.2880   -1.4270 C   0  0  2  0  0  0  0  0  0  0  0  0
    1.8210  -13.2740   -1.1420 C   0  0  1  0  0  0  0  0  0  0  0  0
    1.2270  -14.6330   -0.7520 C   0  0  0  0  0  0  0  0  0  0  0  0
    1.3890  -12.1170   -0.1950 C   0  0  1  0  0  0  0  0  0  0  0  0
    0.8910  -10.9070   -0.9950 C   0  0  0  0  0  0  0  0  0  0  0  0
    0.3630   -9.8750   -0.0510 C   0  0  0  0  0  0  0  0  0  0  0  0
   -0.1170  -10.2130    1.1570 C   0  0  0  0  0  0  0  0  0  0  0  0
   -0.6510   -9.2180    2.1390 C   0  0  0  0  0  0  0  0  0  0  0  0
   -0.2110  -11.6450    1.5510 C   0  0  0  0  0  0  0  0  0  0  0  0
   -0.8050  -11.9960    2.5630 O   0  0  0  0  0  0  0  0  0  0  0  0
    0.3510  -12.5450    0.7050 O   0  0  0  0  0  0  0  0  0  0  0  0
    4.1390  -12.8110   -0.1730 C   0  0  0  0  0  0  0  0  0  0  0  0
    5.6490  -13.0450   -0.2930 C   0  0  0  0  0  0  0  0  0  0  0  0
    6.2780  -12.3870   -1.5540 C   0  0  1  0  0  0  0  0  0  0  0  0
    6.2790  -10.8570   -1.3610 C   0  0  0  0  0  0  0  0  0  0  0  0
    7.6990  -13.0230   -1.8200 C   0  0  2  0  0  0  0  0  0  0  0  0
    8.7580  -12.0190   -2.3110 C   0  0  0  0  0  0  0  0  0  0  0  0
   10.2000  -12.5270   -2.3820 C   0  0  1  0  0  0  0  0  0  0  0  0
   10.5290  -13.2650   -1.1960 O   0  0  0  0  0  0  0  0  0  0  0  0
   10.8280  -12.5520   -0.0770 C   0  0  0  0  0  0  0  0  0  0  0  0
   12.2140  -11.9940   -0.1730 C   0  0  0  0  0  0  0  0  0  0  0  0
   10.0730  -12.3700    0.8700 O   0  0  0  0  0  0  0  0  0  0  0  0
   10.6200  -13.3230   -3.6600 C   0  0  1  0  0  0  0  0  0  0  0  0
   12.2250  -13.6210   -3.6850 C   0  0  0  0  0  0  0  0  0  0  0  0
   12.7800  -14.1170   -5.0330 C   0  0  0  0  0  0  0  0  0  0  0  0
   12.9850  -12.2900   -3.4250 C   0  0  0  0  0  0  0  0  0  0  0  0
   12.6990  -14.4760   -2.6120 O   0  0  0  0  0  0  0  0  0  0  0  0
   12.1310  -15.5770   -2.0910 C   0  0  0  0  0  0  0  0  0  0  0  0
   12.4460  -15.9510   -0.9630 O   0  0  0  0  0  0  0  0  0  0  0  0
   11.1860  -16.3780   -2.9260 C   0  0  0  0  0  0  0  0  0  0  0  0
    9.8110  -15.7820   -3.1390 C   0  0  1  0  0  0  0  0  0  0  0  0
    9.1650  -15.5130   -1.8990 O   0  0  0  0  0  0  0  0  0  0  0  0
    7.7340  -15.4690   -2.1970 O   0  0  0  0  0  0  0  0  0  0  0  0
    7.4560  -14.1990   -2.8150 C   0  0  1  0  0  0  0  0  0  0  0  0
    5.9370  -14.1980   -3.1030 C   0  0  0  0  0  0  0  0  0  0  0  0
    5.4810  -12.7710   -2.8140 C   0  0  1  0  0  0  0  0  0  0  0  0
    8.2210  -14.1460   -4.1470 C   0  0  0  0  0  0  0  0  0  0  0  0
    9.7150  -14.5370   -4.0400 C   0  0  1  0  0  0  0  0  0  0  0  0
   10.0910  -14.9100   -5.3850 O   0  0  0  0  0  0  0  0  0  0  0  0
    3.8616  -11.4600   -4.4337 H   0  0  0  0  0  0  0  0  0  0  0  0
    2.2304  -11.7379   -3.4893 H   0  0  0  0  0  0  0  0  0  0  0  0
    3.4899  -14.3499   -1.6861 H   0  0  0  0  0  0  0  0  0  0  0  0
    1.3645  -13.0566   -2.1189 H   0  0  0  0  0  0  0  0  0  0  0  0
    1.1906  -14.7163    0.3442 H   0  0  0  0  0  0  0  0  0  0  0  0
    0.2092  -14.7191   -1.1602 H   0  0  0  0  0  0  0  0  0  0  0  0
    1.8551  -15.4385   -1.1602 H   0  0  0  0  0  0  0  0  0  0  0  0
    2.2758  -11.8263    0.3874 H   0  0  0  0  0  0  0  0  0  0  0  0
    1.7232  -10.4825   -1.5757 H   0  0  0  0  0  0  0  0  0  0  0  0
    0.0915  -11.2224   -1.6815 H   0  0  0  0  0  0  0  0  0  0  0  0
    0.3677   -8.8170   -0.3520 H   0  0  0  0  0  0  0  0  0  0  0  0
   -0.4600   -9.5739    3.1622 H   0  0  0  0  0  0  0  0  0  0  0  0
   -0.1514   -8.2497    1.9883 H   0  0  0  0  0  0  0  0  0  0  0  0
   -1.7341   -9.0991    1.9883 H   0  0  0  0  0  0  0  0  0  0  0  0
    3.9582  -11.7348   -0.0348 H   0  0  0  0  0  0  0  0  0  0  0  0
    3.7766  -13.3943    0.6863 H   0  0  0  0  0  0  0  0  0  0  0  0
    6.1385  -12.6273    0.5991 H   0  0  0  0  0  0  0  0  0  0  0  0
    5.8032  -14.1305   -0.3822 H   0  0  0  0  0  0  0  0  0  0  0  0
    6.2792  -10.6230   -0.2862 H   0  0  0  0  0  0  0  0  0  0  0  0
    7.1774  -10.4289   -1.8296 H   0  0  0  0  0  0  0  0  0  0  0  0
    5.3811  -10.4277   -1.8296 H   0  0  0  0  0  0  0  0  0  0  0  0
    8.1384  -13.3823   -0.8778 H   0  0  0  0  0  0  0  0  0  0  0  0
    8.4679  -11.6946   -3.3213 H   0  0  0  0  0  0  0  0  0  0  0  0
    8.7689  -11.2165   -1.5588 H   0  0  0  0  0  0  0  0  0  0  0  0
   10.7931  -11.6036   -2.4557 H   0  0  0  0  0  0  0  0  0  0  0  0
   12.6151  -11.8325    0.8384 H   0  0  0  0  0  0  0  0  0  0  0  0
   12.8580  -12.7029   -0.7140 H   0  0  0  0  0  0  0  0  0  0  0  0
   12.1872  -11.0366   -0.7140 H   0  0  0  0  0  0  0  0  0  0  0  0
   10.4172  -12.6441   -4.5014 H   0  0  0  0  0  0  0  0  0  0  0  0
   13.5891  -14.8401   -4.8527 H   0  0  0  0  0  0  0  0  0  0  0  0
   11.9752  -14.6023   -5.6046 H   0  0  0  0  0  0  0  0  0  0  0  0
   13.1722  -13.2629   -5.6046 H   0  0  0  0  0  0  0  0  0  0  0  0
   13.0782  -12.1267   -2.3412 H   0  0  0  0  0  0  0  0  0  0  0  0
   13.9872  -12.3461   -3.8749 H   0  0  0  0  0  0  0  0  0  0  0  0
   12.4273  -11.4554   -3.8749 H   0  0  0  0  0  0  0  0  0  0  0  0
   11.6478  -16.5178   -3.9145 H   0  0  0  0  0  0  0  0  0  0  0  0
   11.0187  -17.3109   -2.3677 H   0  0  0  0  0  0  0  0  0  0  0  0
    9.2953  -16.5756   -3.6996 H   0  0  0  0  0  0  0  0  0  0  0  0
    5.7425  -14.4608   -4.1533 H   0  0  0  0  0  0  0  0  0  0  0  0
    5.3997  -14.9357   -2.4890 H   0  0  0  0  0  0  0  0  0  0  0  0
    5.6816  -12.0936   -3.6571 H   0  0  0  0  0  0  0  0  0  0  0  0
    7.7340  -14.8362   -4.8516 H   0  0  0  0  0  0  0  0  0  0  0  0
    8.1928  -13.0995   -4.4848 H   0  0  0  0  0  0  0  0  0  0  0  0
   10.9070  -15.4420   -5.3590 H   0  0  0  0  0  0  0  0  0  0  0  0
  1  2  2  0
  2  3  1  0
  3  4  1  0
  4  5  1  0
  4  6  1  0
  6  7  1  0
  7  8  1  0
  8  9  2  0
  9 10  1  0
  9 11  1  0
 11 12  2  0
 11 13  1  0
  3 14  1  0
 14 15  1  0
 15 16  1  0
 16 17  1  1
 16 18  1  0
 18 19  1  0
 19 20  1  0
 20 21  1  0
 21 22  1  0
 22 23  1  0
 22 24  2  0
 20 25  1  0
 25 26  1  0
 26 27  1  0
 26 28  1  0
 26 29  1  0
 29 30  1  0
 30 31  2  0
 30 32  1  0
 32 33  1  0
 33 34  1  0
 34 35  1  0
 36 35  1  1
 36 37  1  0
 37 38  1  0
 36 39  1  0
 39 40  1  0
 40 41  1  6
 38  2  1  0
 13  6  1  0
 38 16  1  0
 36 18  1  0
 40 25  1  0
 40 33  1  0
  1 42  1  0
  1 43  1  0
  3 44  1  6
  4 45  1  6
  5 46  1  0
  5 47  1  0
  5 48  1  0
  6 49  1  1
  7 50  1  0
  7 51  1  0
  8 52  1  0
 10 53  1  0
 10 54  1  0
 10 55  1  0
 14 56  1  0
 14 57  1  0
 15 58  1  0
 15 59  1  0
 17 60  1  0
 17 61  1  0
 17 62  1  0
 18 63  1  1
 19 64  1  0
 19 65  1  0
 20 66  1  1
 23 67  1  0
 23 68  1  0
 23 69  1  0
 25 70  1  6
 27 71  1  0
 27 72  1  0
 27 73  1  0
 28 74  1  0
 28 75  1  0
 28 76  1  0
 32 77  1  0
 32 78  1  0
 33 79  1  6
 37 80  1  0
 37 81  1  0
 38 82  1  6
 39 83  1  0
 39 84  1  0
 41 85  1  0
M  END
>  <meeko>  (1) 
{"is_sidechain": [false], "free_energy": -6.54, "intermolecular_energy": -10.937, "internal_energy": 1.463}

$$$$
LIB_XSSPOOYIFPEICN__M_PUB_ALL__e8__s20260927
     RDKit          3D

 85 90  0  0  0  0  0  0  0  0999 V2000
    2.9530  -11.1050   -4.6760 C   0  0  0  0  0  0  0  0  0  0  0  0
    3.2570  -11.9170   -3.6510 C   0  0  0  0  0  0  0  0  0  0  0  0
    4.6210  -12.5510   -3.3650 C   0  0  2  0  0  0  0  0  0  0  0  0
    5.8910  -12.2300   -4.2330 C   0  0  1  0  0  0  0  0  0  0  0  0
    7.1770  -12.0000   -3.4300 C   0  0  0  0  0  0  0  0  0  0  0  0
    6.0740  -13.2140   -5.4250 C   0  0  1  0  0  0  0  0  0  0  0  0
    5.7890  -12.5190   -6.7620 C   0  0  0  0  0  0  0  0  0  0  0  0
    6.1060  -13.4560   -7.8820 C   0  0  0  0  0  0  0  0  0  0  0  0
    7.0080  -14.4400   -7.7370 C   0  0  0  0  0  0  0  0  0  0  0  0
    7.3560  -15.4070   -8.8250 C   0  0  0  0  0  0  0  0  0  0  0  0
    7.7800  -14.5660   -6.4710 C   0  0  0  0  0  0  0  0  0  0  0  0
    8.7290  -15.3340   -6.3700 O   0  0  0  0  0  0  0  0  0  0  0  0
    7.4090  -13.7530   -5.4500 O   0  0  0  0  0  0  0  0  0  0  0  0
    4.4390  -14.0830   -3.2390 C   0  0  0  0  0  0  0  0  0  0  0  0
    3.3790  -14.4640   -2.2000 C   0  0  0  0  0  0  0  0  0  0  0  0
    1.9930  -13.8120   -2.4650 C   0  0  1  0  0  0  0  0  0  0  0  0
    1.3680  -14.4750   -3.7090 C   0  0  0  0  0  0  0  0  0  0  0  0
    1.1150  -13.9020   -1.1540 C   0  0  2  0  0  0  0  0  0  0  0  0
   -0.3750  -14.1920   -1.4110 C   0  0  0  0  0  0  0  0  0  0  0  0
   -1.2320  -14.5010   -0.1810 C   0  0  1  0  0  0  0  0  0  0  0  0
   -0.5740  -15.4300    0.6930 O   0  0  0  0  0  0  0  0  0  0  0  0
   -0.6590  -16.7520    0.3820 C   0  0  0  0  0  0  0  0  0  0  0  0
   -1.6160  -17.4400    1.3050 C   0  0  0  0  0  0  0  0  0  0  0  0
   -0.0610  -17.3040   -0.5320 O   0  0  0  0  0  0  0  0  0  0  0  0
   -1.7920  -13.2860    0.6280 C   0  0  1  0  0  0  0  0  0  0  0  0
   -2.8230  -13.7330    1.7720 C   0  0  0  0  0  0  0  0  0  0  0  0
   -3.6150  -12.6070    2.4620 C   0  0  0  0  0  0  0  0  0  0  0  0
   -3.9170  -14.6280    1.1250 C   0  0  0  0  0  0  0  0  0  0  0  0
   -2.2400  -14.6100    2.7710 O   0  0  0  0  0  0  0  0  0  0  0  0
   -1.0810  -14.4840    3.4370 C   0  0  0  0  0  0  0  0  0  0  0  0
   -0.6140  -15.4500    4.0380 O   0  0  0  0  0  0  0  0  0  0  0  0
   -0.4180  -13.1470    3.5060 C   0  0  0  0  0  0  0  0  0  0  0  0
    0.2110  -12.6450    2.2240 C   0  0  1  0  0  0  0  0  0  0  0  0
    1.1660  -13.5710    1.7170 O   0  0  0  0  0  0  0  0  0  0  0  0
    2.0530  -12.7950    0.8510 O   0  0  0  0  0  0  0  0  0  0  0  0
    1.3600  -12.5650   -0.3890 C   0  0  1  0  0  0  0  0  0  0  0  0
    2.3370  -11.7520   -1.2690 C   0  0  0  0  0  0  0  0  0  0  0  0
    2.1440  -12.2950   -2.6800 C   0  0  1  0  0  0  0  0  0  0  0  0
    0.1220  -11.7060   -0.0850 C   0  0  0  0  0  0  0  0  0  0  0  0
   -0.7420  -12.2270    1.0890 C   0  0  1  0  0  0  0  0  0  0  0  0
   -1.5000  -11.0750    1.5220 O   0  0  0  0  0  0  0  0  0  0  0  0
    1.9324  -10.7080   -4.7791 H   0  0  0  0  0  0  0  0  0  0  0  0
    3.7246  -10.8367   -5.4127 H   0  0  0  0  0  0  0  0  0  0  0  0
    4.9029  -12.0283   -2.4391 H   0  0  0  0  0  0  0  0  0  0  0  0
    5.6789  -11.2464   -4.6774 H   0  0  0  0  0  0  0  0  0  0  0  0
    6.9499  -12.0406   -2.3545 H   0  0  0  0  0  0  0  0  0  0  0  0
    7.9099  -12.7813   -3.6798 H   0  0  0  0  0  0  0  0  0  0  0  0
    7.5937  -11.0131   -3.6798 H   0  0  0  0  0  0  0  0  0  0  0  0
    5.3547  -14.0340   -5.2827 H   0  0  0  0  0  0  0  0  0  0  0  0
    4.7274  -12.2349   -6.8097 H   0  0  0  0  0  0  0  0  0  0  0  0
    6.4117  -11.6164   -6.8487 H   0  0  0  0  0  0  0  0  0  0  0  0
    5.5894  -13.3371   -8.8458 H   0  0  0  0  0  0  0  0  0  0  0  0
    7.6965  -16.3533   -8.3794 H   0  0  0  0  0  0  0  0  0  0  0  0
    6.4685  -15.5933   -9.4476 H   0  0  0  0  0  0  0  0  0  0  0  0
    8.1587  -14.9851   -9.4476 H   0  0  0  0  0  0  0  0  0  0  0  0
    4.1345  -14.4838   -4.2171 H   0  0  0  0  0  0  0  0  0  0  0  0
    5.3985  -14.5078   -2.9091 H   0  0  0  0  0  0  0  0  0  0  0  0
    3.2578  -15.5573   -2.2102 H   0  0  0  0  0  0  0  0  0  0  0  0
    3.7312  -14.0940   -1.2258 H   0  0  0  0  0  0  0  0  0  0  0  0
    0.6455  -15.2415   -3.3920 H   0  0  0  0  0  0  0  0  0  0  0  0
    0.8528  -13.7122   -4.3112 H   0  0  0  0  0  0  0  0  0  0  0  0
    2.1599  -14.9443   -4.3112 H   0  0  0  0  0  0  0  0  0  0  0  0
    1.4198  -14.7690   -0.5495 H   0  0  0  0  0  0  0  0  0  0  0  0
   -0.8067  -13.3098   -1.9062 H   0  0  0  0  0  0  0  0  0  0  0  0
   -0.3929  -15.1100   -2.0168 H   0  0  0  0  0  0  0  0  0  0  0  0
   -2.1327  -14.9536   -0.6214 H   0  0  0  0  0  0  0  0  0  0  0  0
   -1.3312  -17.2353    2.3476 H   0  0  0  0  0  0  0  0  0  0  0  0
   -2.6343  -17.0659    1.1228 H   0  0  0  0  0  0  0  0  0  0  0  0
   -1.5857  -18.5244    1.1228 H   0  0  0  0  0  0  0  0  0  0  0  0
   -2.3758  -12.7180   -0.1113 H   0  0  0  0  0  0  0  0  0  0  0  0
   -3.5362  -12.7190    3.5534 H   0  0  0  0  0  0  0  0  0  0  0  0
   -3.2026  -11.6321    2.1627 H   0  0  0  0  0  0  0  0  0  0  0  0
   -4.6719  -12.6655    2.1627 H   0  0  0  0  0  0  0  0  0  0  0  0
   -4.5091  -15.1124    1.9154 H   0  0  0  0  0  0  0  0  0  0  0  0
   -4.5767  -14.0073    0.5009 H   0  0  0  0  0  0  0  0  0  0  0  0
   -3.4393  -15.3976    0.5009 H   0  0  0  0  0  0  0  0  0  0  0  0
   -1.1753  -12.4128    3.8180 H   0  0  0  0  0  0  0  0  0  0  0  0
    0.4149  -13.2681    4.2143 H   0  0  0  0  0  0  0  0  0  0  0  0
    0.6897  -11.7092    2.5483 H   0  0  0  0  0  0  0  0  0  0  0  0
    2.0915  -10.6804   -1.2304 H   0  0  0  0  0  0  0  0  0  0  0  0
    3.3783  -11.8496   -0.9281 H   0  0  0  0  0  0  0  0  0  0  0  0
    1.2666  -11.8541   -3.1757 H   0  0  0  0  0  0  0  0  0  0  0  0
    0.4605  -10.6888    0.1613 H   0  0  0  0  0  0  0  0  0  0  0  0
   -0.5129  -11.7396   -0.9826 H   0  0  0  0  0  0  0  0  0  0  0  0
   -2.4310  -11.1780    1.2520 H   0  0  0  0  0  0  0  0  0  0  0  0
  1  2  2  0
  2  3  1  0
  3  4  1  0
  4  5  1  0
  4  6  1  0
  6  7  1  0
  7  8  1  0
  8  9  2  0
  9 10  1  0
  9 11  1  0
 11 12  2  0
 11 13  1  0
  3 14  1  0
 14 15  1  0
 15 16  1  0
 16 17  1  6
 16 18  1  0
 18 19  1  0
 19 20  1  0
 20 21  1  0
 21 22  1  0
 22 23  1  0
 22 24  2  0
 20 25  1  0
 25 26  1  0
 26 27  1  0
 26 28  1  0
 26 29  1  0
 29 30  1  0
 30 31  2  0
 30 32  1  0
 32 33  1  0
 33 34  1  0
 34 35  1  0
 36 35  1  1
 36 37  1  0
 37 38  1  0
 36 39  1  0
 39 40  1  0
 40 41  1  1
 38  2  1  0
 13  6  1  0
 38 16  1  0
 36 18  1  0
 40 25  1  0
 40 33  1  0
  1 42  1  0
  1 43  1  0
  3 44  1  1
  4 45  1  6
  5 46  1  0
  5 47  1  0
  5 48  1  0
  6 49  1  1
  7 50  1  0
  7 51  1  0
  8 52  1  0
 10 53  1  0
 10 54  1  0
 10 55  1  0
 14 56  1  0
 14 57  1  0
 15 58  1  0
 15 59  1  0
 17 60  1  0
 17 61  1  0
 17 62  1  0
 18 63  1  1
 19 64  1  0
 19 65  1  0
 20 66  1  6
 23 67  1  0
 23 68  1  0
 23 69  1  0
 25 70  1  6
 27 71  1  0
 27 72  1  0
 27 73  1  0
 28 74  1  0
 28 75  1  0
 28 76  1  0
 32 77  1  0
 32 78  1  0
 33 79  1  1
 37 80  1  0
 37 81  1  0
 38 82  1  6
 39 83  1  0
 39 84  1  0
 41 85  1  0
M  END
>  <meeko>  (2) 
{"is_sidechain": [false], "free_energy": -6.199, "intermolecular_energy": -10.577, "internal_energy": 1.674}

$$$$
LIB_XSSPOOYIFPEICN__M_PUB_ALL__e8__s20260927
     RDKit          3D

 85 90  0  0  0  0  0  0  0  0999 V2000
    2.0660  -14.7630    2.3830 C   0  0  0  0  0  0  0  0  0  0  0  0
    1.0460  -15.5190    2.8200 C   0  0  0  0  0  0  0  0  0  0  0  0
   -0.3360  -15.6470    2.1720 C   0  0  2  0  0  0  0  0  0  0  0  0
   -0.6910  -14.9430    0.8140 C   0  0  1  0  0  0  0  0  0  0  0  0
   -1.5370  -15.7880   -0.1470 C   0  0  0  0  0  0  0  0  0  0  0  0
   -1.2330  -13.4960    1.0050 C   0  0  1  0  0  0  0  0  0  0  0  0
   -0.2140  -12.4570    0.5210 C   0  0  0  0  0  0  0  0  0  0  0  0
   -0.8240  -11.0950    0.5960 C   0  0  0  0  0  0  0  0  0  0  0  0
   -2.1540  -10.9200    0.5210 C   0  0  0  0  0  0  0  0  0  0  0  0
   -2.8140   -9.5790    0.5970 C   0  0  0  0  0  0  0  0  0  0  0  0
   -3.0490  -12.0820    0.2740 C   0  0  0  0  0  0  0  0  0  0  0  0
   -4.2390  -11.9350    0.0220 O   0  0  0  0  0  0  0  0  0  0  0  0
   -2.4700  -13.3090    0.2920 O   0  0  0  0  0  0  0  0  0  0  0  0
   -1.4140  -15.3220    3.2350 C   0  0  0  0  0  0  0  0  0  0  0  0
   -1.2690  -16.1790    4.4970 C   0  0  0  0  0  0  0  0  0  0  0  0
    0.1350  -16.0750    5.1560 C   0  0  1  0  0  0  0  0  0  0  0  0
    0.2790  -14.6770    5.7890 C   0  0  0  0  0  0  0  0  0  0  0  0
    0.3310  -17.2810    6.1590 C   0  0  2  0  0  0  0  0  0  0  0  0
    1.0830  -16.9110    7.4510 C   0  0  0  0  0  0  0  0  0  0  0  0
    1.1280  -17.9640    8.5430 C   0  0  1  0  0  0  0  0  0  0  0  0
   -0.1750  -18.5370    8.7260 O   0  0  0  0  0  0  0  0  0  0  0  0
   -1.0410  -17.8780    9.5420 C   0  0  0  0  0  0  0  0  0  0  0  0
   -2.1250  -17.2330    8.7350 C   0  0  0  0  0  0  0  0  0  0  0  0
   -0.9670  -17.8300   10.7630 O   0  0  0  0  0  0  0  0  0  0  0  0
    2.2120  -19.0860    8.4410 C   0  0  1  0  0  0  0  0  0  0  0  0
    2.2190  -20.0270    9.7420 C   0  0  0  0  0  0  0  0  0  0  0  0
    3.3450  -21.0710    9.8620 C   0  0  0  0  0  0  0  0  0  0  0  0
    2.3770  -19.1470   11.0150 C   0  0  0  0  0  0  0  0  0  0  0  0
    0.9310  -20.6640    9.9500 O   0  0  0  0  0  0  0  0  0  0  0  0
    0.2330  -21.4550    9.1190 C   0  0  0  0  0  0  0  0  0  0  0  0
   -0.8860  -21.8450    9.4440 O   0  0  0  0  0  0  0  0  0  0  0  0
    0.8640  -21.9180    7.8460 C   0  0  0  0  0  0  0  0  0  0  0  0
    1.1290  -20.8520    6.8040 C   0  0  1  0  0  0  0  0  0  0  0  0
   -0.0550  -20.1250    6.4930 O   0  0  0  0  0  0  0  0  0  0  0  0
    0.1700  -19.5440    5.1700 O   0  0  0  0  0  0  0  0  0  0  0  0
    1.0340  -18.4040    5.3360 C   0  0  1  0  0  0  0  0  0  0  0  0
    1.2350  -17.8230    3.9190 C   0  0  0  0  0  0  0  0  0  0  0  0
    1.2390  -16.3100    4.1090 C   0  0  1  0  0  0  0  0  0  0  0  0
    2.3840  -18.9100    5.8700 C   0  0  0  0  0  0  0  0  0  0  0  0
    2.2720  -19.8610    7.0870 C   0  0  1  0  0  0  0  0  0  0  0  0
    3.5220  -20.5860    7.0960 O   0  0  0  0  0  0  0  0  0  0  0  0
    3.0176  -14.7511    2.9347 H   0  0  0  0  0  0  0  0  0  0  0  0
    1.9500  -14.1555    1.4733 H   0  0  0  0  0  0  0  0  0  0  0  0
   -0.3078  -16.6913    1.8275 H   0  0  0  0  0  0  0  0  0  0  0  0
    0.2745  -14.8430    0.2965 H   0  0  0  0  0  0  0  0  0  0  0  0
   -2.1989  -16.4491    0.4317 H   0  0  0  0  0  0  0  0  0  0  0  0
   -2.1441  -15.1250   -0.7809 H   0  0  0  0  0  0  0  0  0  0  0  0
   -0.8747  -16.3959   -0.7809 H   0  0  0  0  0  0  0  0  0  0  0  0
   -1.4100  -13.3552    2.0815 H   0  0  0  0  0  0  0  0  0  0  0  0
    0.6808  -12.4946    1.1597 H   0  0  0  0  0  0  0  0  0  0  0  0
    0.0707  -12.6765   -0.5186 H   0  0  0  0  0  0  0  0  0  0  0  0
   -0.1709  -10.2179    0.7150 H   0  0  0  0  0  0  0  0  0  0  0  0
   -2.9524   -9.2977    1.6514 H   0  0  0  0  0  0  0  0  0  0  0  0
   -2.1815   -8.8302    0.0977 H   0  0  0  0  0  0  0  0  0  0  0  0
   -3.7932   -9.6234    0.0977 H   0  0  0  0  0  0  0  0  0  0  0  0
   -1.3246  -14.2622    3.5158 H   0  0  0  0  0  0  0  0  0  0  0  0
   -2.3971  -15.5410    2.7927 H   0  0  0  0  0  0  0  0  0  0  0  0
   -2.0227  -15.8525    5.2287 H   0  0  0  0  0  0  0  0  0  0  0  0
   -1.4092  -17.2275    4.1953 H   0  0  0  0  0  0  0  0  0  0  0  0
    0.2696  -14.7681    6.8852 H   0  0  0  0  0  0  0  0  0  0  0  0
    1.2285  -14.2246    5.4668 H   0  0  0  0  0  0  0  0  0  0  0  0
   -0.5583  -14.0406    5.4668 H   0  0  0  0  0  0  0  0  0  0  0  0
   -0.6420  -17.6191    6.5449 H   0  0  0  0  0  0  0  0  0  0  0  0
    2.1210  -16.6733    7.1752 H   0  0  0  0  0  0  0  0  0  0  0  0
    0.5168  -16.0728    7.8831 H   0  0  0  0  0  0  0  0  0  0  0  0
    1.4561  -17.3957    9.4258 H   0  0  0  0  0  0  0  0  0  0  0  0
   -2.8707  -16.7893    9.4110 H   0  0  0  0  0  0  0  0  0  0  0  0
   -1.6910  -16.4461    8.1006 H   0  0  0  0  0  0  0  0  0  0  0  0
   -2.6095  -17.9898    8.1006 H   0  0  0  0  0  0  0  0  0  0  0  0
    3.1714  -18.5480    8.4288 H   0  0  0  0  0  0  0  0  0  0  0  0
    3.5538  -21.2646   10.9245 H   0  0  0  0  0  0  0  0  0  0  0  0
    3.0320  -22.0056    9.3736 H   0  0  0  0  0  0  0  0  0  0  0  0
    4.2533  -20.6884    9.3736 H   0  0  0  0  0  0  0  0  0  0  0  0
    2.2643  -19.7749   11.9111 H   0  0  0  0  0  0  0  0  0  0  0  0
    3.3732  -18.6806   11.0170 H   0  0  0  0  0  0  0  0  0  0  0  0
    1.6052  -18.3632   11.0170 H   0  0  0  0  0  0  0  0  0  0  0  0
    1.8267  -22.3859    8.0996 H   0  0  0  0  0  0  0  0  0  0  0  0
    0.1343  -22.6019    7.3879 H   0  0  0  0  0  0  0  0  0  0  0  0
    1.4761  -21.4443    5.9445 H   0  0  0  0  0  0  0  0  0  0  0  0
    2.1916  -18.1618    3.4945 H   0  0  0  0  0  0  0  0  0  0  0  0
    0.4481  -18.1497    3.2233 H   0  0  0  0  0  0  0  0  0  0  0  0
    2.2185  -15.9388    4.4447 H   0  0  0  0  0  0  0  0  0  0  0  0
    2.8957  -19.4480    5.0584 H   0  0  0  0  0  0  0  0  0  0  0  0
    2.9392  -18.0243    6.2124 H   0  0  0  0  0  0  0  0  0  0  0  0
    3.4970  -21.2670    7.7940 H   0  0  0  0  0  0  0  0  0  0  0  0
  1  2  2  0
  2  3  1  0
  3  4  1  0
  4  5  1  0
  4  6  1  0
  6  7  1  0
  7  8  1  0
  8  9  2  0
  9 10  1  0
  9 11  1  0
 11 12  2  0
 11 13  1  0
  3 14  1  0
 14 15  1  0
 15 16  1  0
 16 17  1  1
 16 18  1  0
 18 19  1  0
 19 20  1  0
 20 21  1  0
 21 22  1  0
 22 23  1  0
 22 24  2  0
 20 25  1  0
 25 26  1  0
 26 27  1  0
 26 28  1  0
 26 29  1  0
 29 30  1  0
 30 31  2  0
 30 32  1  0
 32 33  1  0
 33 34  1  0
 34 35  1  0
 36 35  1  6
 36 37  1  0
 37 38  1  0
 36 39  1  0
 39 40  1  0
 40 41  1  1
 38  2  1  0
 13  6  1  0
 38 16  1  0
 36 18  1  0
 40 25  1  0
 40 33  1  0
  1 42  1  0
  1 43  1  0
  3 44  1  6
  4 45  1  6
  5 46  1  0
  5 47  1  0
  5 48  1  0
  6 49  1  1
  7 50  1  0
  7 51  1  0
  8 52  1  0
 10 53  1  0
 10 54  1  0
 10 55  1  0
 14 56  1  0
 14 57  1  0
 15 58  1  0
 15 59  1  0
 17 60  1  0
 17 61  1  0
 17 62  1  0
 18 63  1  1
 19 64  1  0
 19 65  1  0
 20 66  1  1
 23 67  1  0
 23 68  1  0
 23 69  1  0
 25 70  1  1
 27 71  1  0
 27 72  1  0
 27 73  1  0
 28 74  1  0
 28 75  1  0
 28 76  1  0
 32 77  1  0
 32 78  1  0
 33 79  1  6
 37 80  1  0
 37 81  1  0
 38 82  1  1
 39 83  1  0
 39 84  1  0
 41 85  1  0
M  END
>  <meeko>  (3) 
{"is_sidechain": [false], "free_energy": -6.03, "intermolecular_energy": -10.254, "internal_energy": 1.632}

$$$$
LIB_XSSPOOYIFPEICN__M_PUB_ALL__e8__s20260927
     RDKit          3D

 85 90  0  0  0  0  0  0  0  0999 V2000
    7.8620  -12.5890   -2.8680 C   0  0  0  0  0  0  0  0  0  0  0  0
    7.6380  -13.5090   -1.9160 C   0  0  0  0  0  0  0  0  0  0  0  0
    8.6910  -14.3780   -1.2230 C   0  0  2  0  0  0  0  0  0  0  0  0
   10.2280  -14.2130   -1.5040 C   0  0  1  0  0  0  0  0  0  0  0  0
   10.6640  -14.5800   -2.9280 C   0  0  0  0  0  0  0  0  0  0  0  0
   10.7890  -12.8440   -1.0190 C   0  0  1  0  0  0  0  0  0  0  0  0
   10.8200  -12.7720    0.5120 C   0  0  0  0  0  0  0  0  0  0  0  0
   11.4870  -11.5020    0.9320 C   0  0  0  0  0  0  0  0  0  0  0  0
   12.3860  -10.8910    0.1440 C   0  0  0  0  0  0  0  0  0  0  0  0
   13.0770   -9.6160    0.5160 C   0  0  0  0  0  0  0  0  0  0  0  0
   12.8020  -11.5150   -1.1410 C   0  0  0  0  0  0  0  0  0  0  0  0
   13.7430  -11.0790   -1.7940 O   0  0  0  0  0  0  0  0  0  0  0  0
   12.1170  -12.6210   -1.5280 O   0  0  0  0  0  0  0  0  0  0  0  0
    8.2830  -15.8640   -1.3700 C   0  0  0  0  0  0  0  0  0  0  0  0
    6.8630  -16.1350   -0.8610 C   0  0  0  0  0  0  0  0  0  0  0  0
    5.7840  -15.2460   -1.5400 C   0  0  1  0  0  0  0  0  0  0  0  0
    5.6140  -15.7090   -3.0010 C   0  0  0  0  0  0  0  0  0  0  0  0
    4.4610  -15.2790   -0.6770 C   0  0  2  0  0  0  0  0  0  0  0  0
    3.1650  -15.3000   -1.5070 C   0  0  0  0  0  0  0  0  0  0  0  0
    1.8630  -15.5510   -0.7330 C   0  0  1  0  0  0  0  0  0  0  0  0
    2.0750  -16.6020    0.2200 O   0  0  0  0  0  0  0  0  0  0  0  0
    1.7220  -17.8640   -0.1480 C   0  0  0  0  0  0  0  0  0  0  0  0
    2.6350  -18.8650    0.4900 C   0  0  0  0  0  0  0  0  0  0  0  0
    0.7820  -18.1510   -0.8780 O   0  0  0  0  0  0  0  0  0  0  0  0
    1.1930  -14.3160   -0.0490 C   0  0  1  0  0  0  0  0  0  0  0  0
   -0.2650  -14.6770    0.5740 C   0  0  0  0  0  0  0  0  0  0  0  0
   -1.1210  -13.5010    1.0800 C   0  0  0  0  0  0  0  0  0  0  0  0
   -1.1330  -15.3300   -0.5380 C   0  0  0  0  0  0  0  0  0  0  0  0
   -0.2050  -15.7150    1.5860 O   0  0  0  0  0  0  0  0  0  0  0  0
    0.6070  -15.8140    2.6520 C   0  0  0  0  0  0  0  0  0  0  0  0
    0.6820  -16.8770    3.2650 O   0  0  0  0  0  0  0  0  0  0  0  0
    1.3440  -14.6050    3.1270 C   0  0  0  0  0  0  0  0  0  0  0  0
    2.4800  -14.1260    2.2480 C   0  0  1  0  0  0  0  0  0  0  0  0
    3.4310  -15.1600    2.0210 O   0  0  0  0  0  0  0  0  0  0  0  0
    4.6760  -14.4840    1.6570 O   0  0  0  0  0  0  0  0  0  0  0  0
    4.5560  -14.0570    0.2880 C   0  0  1  0  0  0  0  0  0  0  0  0
    5.8920  -13.3580   -0.0510 C   0  0  0  0  0  0  0  0  0  0  0  0
    6.1970  -13.7630   -1.4890 C   0  0  1  0  0  0  0  0  0  0  0  0
    3.4150  -13.0280    0.2140 C   0  0  0  0  0  0  0  0  0  0  0  0
    2.1050  -13.4790    0.9020 C   0  0  1  0  0  0  0  0  0  0  0  0
    1.3900  -12.2500    1.1630 O   0  0  0  0  0  0  0  0  0  0  0  0
    7.0209  -12.0227   -3.2944 H   0  0  0  0  0  0  0  0  0  0  0  0
    8.8866  -12.4016   -3.2216 H   0  0  0  0  0  0  0  0  0  0  0  0
    8.6531  -13.9736   -0.2007 H   0  0  0  0  0  0  0  0  0  0  0  0
   10.7061  -14.9795   -0.8764 H   0  0  0  0  0  0  0  0  0  0  0  0
   11.5049  -15.2878   -2.8831 H   0  0  0  0  0  0  0  0  0  0  0  0
    9.8215  -15.0448   -3.4611 H   0  0  0  0  0  0  0  0  0  0  0  0
   10.9783  -13.6706   -3.4611 H   0  0  0  0  0  0  0  0  0  0  0  0
   10.1172  -12.0626   -1.4038 H   0  0  0  0  0  0  0  0  0  0  0  0
    9.7917  -12.7937    0.9020 H   0  0  0  0  0  0  0  0  0  0  0  0
   11.3786  -13.6316    0.9107 H   0  0  0  0  0  0  0  0  0  0  0  0
   11.2361  -11.0588    1.9070 H   0  0  0  0  0  0  0  0  0  0  0  0
   13.1234   -9.5303    1.6117 H   0  0  0  0  0  0  0  0  0  0  0  0
   14.0973   -9.6184    0.1048 H   0  0  0  0  0  0  0  0  0  0  0  0
   12.5180   -8.7625    0.1048 H   0  0  0  0  0  0  0  0  0  0  0  0
    8.3356  -16.1409   -2.4333 H   0  0  0  0  0  0  0  0  0  0  0  0
    8.9765  -16.4631   -0.7617 H   0  0  0  0  0  0  0  0  0  0  0  0
    6.6184  -17.1898   -1.0550 H   0  0  0  0  0  0  0  0  0  0  0  0
    6.8518  -15.8964    0.2128 H   0  0  0  0  0  0  0  0  0  0  0  0
    5.2349  -16.7415   -3.0167 H   0  0  0  0  0  0  0  0  0  0  0  0
    4.8998  -15.0483   -3.5143 H   0  0  0  0  0  0  0  0  0  0  0  0
    6.5860  -15.6675   -3.5143 H   0  0  0  0  0  0  0  0  0  0  0  0
    4.3937  -16.2244   -0.1187 H   0  0  0  0  0  0  0  0  0  0  0  0
    3.0733  -14.3256   -2.0092 H   0  0  0  0  0  0  0  0  0  0  0  0
    3.2689  -16.1562   -2.1897 H   0  0  0  0  0  0  0  0  0  0  0  0
    1.1319  -15.8361   -1.5039 H   0  0  0  0  0  0  0  0  0  0  0  0
    2.5608  -18.7836    1.5845 H   0  0  0  0  0  0  0  0  0  0  0  0
    2.3438  -19.8786    0.1771 H   0  0  0  0  0  0  0  0  0  0  0  0
    3.6710  -18.6681    0.1771 H   0  0  0  0  0  0  0  0  0  0  0  0
    1.0201  -13.6084   -0.8733 H   0  0  0  0  0  0  0  0  0  0  0  0
   -1.1243  -13.4965    2.1800 H   0  0  0  0  0  0  0  0  0  0  0  0
   -0.6989  -12.5547    0.7107 H   0  0  0  0  0  0  0  0  0  0  0  0
   -2.1512  -13.6118    0.7107 H   0  0  0  0  0  0  0  0  0  0  0  0
   -1.9306  -15.9300   -0.0756 H   0  0  0  0  0  0  0  0  0  0  0  0
   -1.5813  -14.5433   -1.1626 H   0  0  0  0  0  0  0  0  0  0  0  0
   -0.5014  -15.9787   -1.1626 H   0  0  0  0  0  0  0  0  0  0  0  0
    0.6185  -13.7829    3.2153 H   0  0  0  0  0  0  0  0  0  0  0  0
    1.8120  -14.9003    4.0777 H   0  0  0  0  0  0  0  0  0  0  0  0
    2.9083  -13.3067    2.8441 H   0  0  0  0  0  0  0  0  0  0  0  0
    5.7879  -12.2659    0.0290 H   0  0  0  0  0  0  0  0  0  0  0  0
    6.6971  -13.6496    0.6395 H   0  0  0  0  0  0  0  0  0  0  0  0
    5.6455  -13.1498   -2.2169 H   0  0  0  0  0  0  0  0  0  0  0  0
    3.7559  -12.1003    0.6969 H   0  0  0  0  0  0  0  0  0  0  0  0
    3.1806  -12.8939   -0.8523 H   0  0  0  0  0  0  0  0  0  0  0  0
    0.7240  -12.4030    1.8580 H   0  0  0  0  0  0  0  0  0  0  0  0
  1  2  2  0
  2  3  1  0
  3  4  1  0
  4  5  1  0
  4  6  1  0
  6  7  1  0
  7  8  1  0
  8  9  2  0
  9 10  1  0
  9 11  1  0
 11 12  2  0
 11 13  1  0
  3 14  1  0
 14 15  1  0
 15 16  1  0
 16 17  1  6
 16 18  1  0
 18 19  1  0
 19 20  1  0
 20 21  1  0
 21 22  1  0
 22 23  1  0
 22 24  2  0
 20 25  1  0
 25 26  1  0
 26 27  1  0
 26 28  1  0
 26 29  1  0
 29 30  1  0
 30 31  2  0
 30 32  1  0
 32 33  1  0
 33 34  1  0
 34 35  1  0
 36 35  1  1
 36 37  1  0
 37 38  1  0
 36 39  1  0
 39 40  1  0
 40 41  1  1
 38  2  1  0
 13  6  1  0
 38 16  1  0
 36 18  1  0
 40 25  1  0
 40 33  1  0
  1 42  1  0
  1 43  1  0
  3 44  1  1
  4 45  1  1
  5 46  1  0
  5 47  1  0
  5 48  1  0
  6 49  1  6
  7 50  1  0
  7 51  1  0
  8 52  1  0
 10 53  1  0
 10 54  1  0
 10 55  1  0
 14 56  1  0
 14 57  1  0
 15 58  1  0
 15 59  1  0
 17 60  1  0
 17 61  1  0
 17 62  1  0
 18 63  1  1
 19 64  1  0
 19 65  1  0
 20 66  1  6
 23 67  1  0
 23 68  1  0
 23 69  1  0
 25 70  1  6
 27 71  1  0
 27 72  1  0
 27 73  1  0
 28 74  1  0
 28 75  1  0
 28 76  1  0
 32 77  1  0
 32 78  1  0
 33 79  1  1
 37 80  1  0
 37 81  1  0
 38 82  1  6
 39 83  1  0
 39 84  1  0
 41 85  1  0
M  END
>  <meeko>  (4) 
{"is_sidechain": [false], "free_energy": -6.021, "intermolecular_energy": -10.253, "internal_energy": 1.646}

$$$$
LIB_XSSPOOYIFPEICN__M_PUB_ALL__e8__s20260927
     RDKit          3D

 85 90  0  0  0  0  0  0  0  0999 V2000
   15.3160  -14.4540  -10.3050 C   0  0  0  0  0  0  0  0  0  0  0  0
   14.7930  -15.4280   -9.5420 C   0  0  0  0  0  0  0  0  0  0  0  0
   14.8400  -16.9330   -9.8260 C   0  0  2  0  0  0  0  0  0  0  0  0
   15.6200  -17.5280  -11.0530 C   0  0  1  0  0  0  0  0  0  0  0  0
   17.0810  -17.0750  -11.1670 C   0  0  0  0  0  0  0  0  0  0  0  0
   15.4360  -19.0660  -11.1990 C   0  0  1  0  0  0  0  0  0  0  0  0
   16.3430  -19.6280  -12.3010 C   0  0  0  0  0  0  0  0  0  0  0  0
   16.2350  -21.1180  -12.3170 C   0  0  0  0  0  0  0  0  0  0  0  0
   15.8970  -21.8060  -11.2140 C   0  0  0  0  0  0  0  0  0  0  0  0
   15.7700  -23.2970  -11.1800 C   0  0  0  0  0  0  0  0  0  0  0  0
   15.7020  -21.0980   -9.9200 C   0  0  0  0  0  0  0  0  0  0  0  0
   15.5700  -21.7080   -8.8660 O   0  0  0  0  0  0  0  0  0  0  0  0
   15.7270  -19.7420   -9.9610 O   0  0  0  0  0  0  0  0  0  0  0  0
   13.3960  -17.4880   -9.7970 C   0  0  0  0  0  0  0  0  0  0  0  0
   12.6660  -17.1540   -8.4910 C   0  0  0  0  0  0  0  0  0  0  0  0
   12.6270  -15.6320   -8.1780 C   0  0  1  0  0  0  0  0  0  0  0  0
   11.6700  -14.9490   -9.1770 C   0  0  0  0  0  0  0  0  0  0  0  0
   12.2560  -15.4220   -6.6560 C   0  0  2  0  0  0  0  0  0  0  0  0
   11.3270  -14.2220   -6.3920 C   0  0  0  0  0  0  0  0  0  0  0  0
   10.7670  -14.0890   -4.9810 C   0  0  1  0  0  0  0  0  0  0  0  0
   10.3230  -15.3750   -4.5250 O   0  0  0  0  0  0  0  0  0  0  0  0
    9.0840  -15.7840   -4.9120 C   0  0  0  0  0  0  0  0  0  0  0  0
    8.7880  -17.1400   -4.3480 C   0  0  0  0  0  0  0  0  0  0  0  0
    8.3080  -15.1380   -5.6030 O   0  0  0  0  0  0  0  0  0  0  0  0
   11.6670  -13.4030   -3.9030 C   0  0  1  0  0  0  0  0  0  0  0  0
   10.8520  -13.2000   -2.5170 C   0  0  0  0  0  0  0  0  0  0  0  0
   11.5250  -12.3060   -1.4600 C   0  0  0  0  0  0  0  0  0  0  0  0
    9.5130  -12.4750   -2.8340 C   0  0  0  0  0  0  0  0  0  0  0  0
   10.4090  -14.4400   -1.9050 O   0  0  0  0  0  0  0  0  0  0  0  0
   11.1030  -15.5650   -1.6710 C   0  0  0  0  0  0  0  0  0  0  0  0
   10.5090  -16.5970   -1.3640 O   0  0  0  0  0  0  0  0  0  0  0  0
   12.5960  -15.5250   -1.7050 C   0  0  0  0  0  0  0  0  0  0  0  0
   13.2300  -15.3610   -3.0710 C   0  0  1  0  0  0  0  0  0  0  0  0
   12.7790  -16.3650   -3.9750 O   0  0  0  0  0  0  0  0  0  0  0  0
   13.8010  -16.4480   -5.0180 O   0  0  0  0  0  0  0  0  0  0  0  0
   13.6170  -15.3260   -5.9000 C   0  0  1  0  0  0  0  0  0  0  0  0
   14.7100  -15.4630   -6.9840 C   0  0  0  0  0  0  0  0  0  0  0  0
   14.0380  -15.0250   -8.2810 C   0  0  1  0  0  0  0  0  0  0  0  0
   13.8680  -14.0440   -5.0900 C   0  0  0  0  0  0  0  0  0  0  0  0
   13.1080  -13.9820   -3.7430 C   0  0  1  0  0  0  0  0  0  0  0  0
   13.8410  -13.0170   -2.9560 O   0  0  0  0  0  0  0  0  0  0  0  0
   15.2192  -13.4024   -9.9972 H   0  0  0  0  0  0  0  0  0  0  0  0
   15.8411  -14.7080  -11.2376 H   0  0  0  0  0  0  0  0  0  0  0  0
   15.4976  -17.2773   -9.0143 H   0  0  0  0  0  0  0  0  0  0  0  0
   15.1358  -17.0771  -11.9318 H   0  0  0  0  0  0  0  0  0  0  0  0
   17.5039  -16.9439  -10.1600 H   0  0  0  0  0  0  0  0  0  0  0  0
   17.6594  -17.8360  -11.7114 H   0  0  0  0  0  0  0  0  0  0  0  0
   17.1275  -16.1203  -11.7114 H   0  0  0  0  0  0  0  0  0  0  0  0
   14.3846  -19.2422  -11.4700 H   0  0  0  0  0  0  0  0  0  0  0  0
   16.0291  -19.2263  -13.2757 H   0  0  0  0  0  0  0  0  0  0  0  0
   17.3853  -19.3361  -12.1050 H   0  0  0  0  0  0  0  0  0  0  0  0
   16.4364  -21.6628  -13.2512 H   0  0  0  0  0  0  0  0  0  0  0  0
   15.7409  -23.6388  -10.1348 H   0  0  0  0  0  0  0  0  0  0  0  0
   14.8430  -23.5978  -11.6901 H   0  0  0  0  0  0  0  0  0  0  0  0
   16.6328  -23.7502  -11.6901 H   0  0  0  0  0  0  0  0  0  0  0  0
   12.8339  -17.0533  -10.6367 H   0  0  0  0  0  0  0  0  0  0  0  0
   13.4568  -18.5835   -9.8757 H   0  0  0  0  0  0  0  0  0  0  0  0
   11.6318  -17.5213   -8.5657 H   0  0  0  0  0  0  0  0  0  0  0  0
   13.2214  -17.6394   -7.6750 H   0  0  0  0  0  0  0  0  0  0  0  0
   10.8960  -14.3966   -8.6241 H   0  0  0  0  0  0  0  0  0  0  0  0
   12.2376  -14.2507   -9.8096 H   0  0  0  0  0  0  0  0  0  0  0  0
   11.1941  -15.7128   -9.8096 H   0  0  0  0  0  0  0  0  0  0  0  0
   11.6542  -16.2668   -6.2897 H   0  0  0  0  0  0  0  0  0  0  0  0
   11.8943  -13.3059   -6.6134 H   0  0  0  0  0  0  0  0  0  0  0  0
   10.4512  -14.3864   -7.0369 H   0  0  0  0  0  0  0  0  0  0  0  0
    9.9366  -13.3756   -5.0879 H   0  0  0  0  0  0  0  0  0  0  0  0
    8.7988  -17.0904   -3.2492 H   0  0  0  0  0  0  0  0  0  0  0  0
    7.7964  -17.4711   -4.6904 H   0  0  0  0  0  0  0  0  0  0  0  0
    9.5514  -17.8541   -4.6904 H   0  0  0  0  0  0  0  0  0  0  0  0
   11.8950  -12.4009   -4.2953 H   0  0  0  0  0  0  0  0  0  0  0  0
   11.2570  -12.6620   -0.4543 H   0  0  0  0  0  0  0  0  0  0  0  0
   12.6170  -12.3487   -1.5852 H   0  0  0  0  0  0  0  0  0  0  0  0
   11.1819  -11.2684   -1.5852 H   0  0  0  0  0  0  0  0  0  0  0  0
    9.0115  -12.2034   -1.8934 H   0  0  0  0  0  0  0  0  0  0  0  0
    9.7179  -11.5646   -3.4164 H   0  0  0  0  0  0  0  0  0  0  0  0
    8.8626  -13.1442   -3.4164 H   0  0  0  0  0  0  0  0  0  0  0  0
   12.9234  -14.6814   -1.0796 H   0  0  0  0  0  0  0  0  0  0  0  0
   12.9251  -16.5107   -1.3443 H   0  0  0  0  0  0  0  0  0  0  0  0
   14.3016  -15.4701   -2.8478 H   0  0  0  0  0  0  0  0  0  0  0  0
   15.5665  -14.8123   -6.7536 H   0  0  0  0  0  0  0  0  0  0  0  0
   15.1016  -16.4889   -7.0480 H   0  0  0  0  0  0  0  0  0  0  0  0
   14.0154  -13.9302   -8.3851 H   0  0  0  0  0  0  0  0  0  0  0  0
   14.9457  -13.9742   -4.8809 H   0  0  0  0  0  0  0  0  0  0  0  0
   13.4956  -13.2080   -5.7003 H   0  0  0  0  0  0  0  0  0  0  0  0
   14.0410  -12.2350   -3.5040 H   0  0  0  0  0  0  0  0  0  0  0  0
  1  2  2  0
  2  3  1  0
  3  4  1  0
  4  5  1  0
  4  6  1  0
  6  7  1  0
  7  8  1  0
  8  9  2  0
  9 10  1  0
  9 11  1  0
 11 12  2  0
 11 13  1  0
  3 14  1  0
 14 15  1  0
 15 16  1  0
 16 17  1  6
 16 18  1  0
 18 19  1  0
 19 20  1  0
 20 21  1  0
 21 22  1  0
 22 23  1  0
 22 24  2  0
 20 25  1  0
 25 26  1  0
 26 27  1  0
 26 28  1  0
 26 29  1  0
 29 30  1  0
 30 31  2  0
 30 32  1  0
 32 33  1  0
 33 34  1  0
 34 35  1  0
 36 35  1  1
 36 37  1  0
 37 38  1  0
 36 39  1  0
 39 40  1  0
 40 41  1  1
 38  2  1  0
 13  6  1  0
 38 16  1  0
 36 18  1  0
 40 25  1  0
 40 33  1  0
  1 42  1  0
  1 43  1  0
  3 44  1  1
  4 45  1  6
  5 46  1  0
  5 47  1  0
  5 48  1  0
  6 49  1  6
  7 50  1  0
  7 51  1  0
  8 52  1  0
 10 53  1  0
 10 54  1  0
 10 55  1  0
 14 56  1  0
 14 57  1  0
 15 58  1  0
 15 59  1  0
 17 60  1  0
 17 61  1  0
 17 62  1  0
 18 63  1  1
 19 64  1  0
 19 65  1  0
 20 66  1  6
 23 67  1  0
 23 68  1  0
 23 69  1  0
 25 70  1  6
 27 71  1  0
 27 72  1  0
 27 73  1  0
 28 74  1  0
 28 75  1  0
 28 76  1  0
 32 77  1  0
 32 78  1  0
 33 79  1  1
 37 80  1  0
 37 81  1  0
 38 82  1  1
 39 83  1  0
 39 84  1  0
 41 85  1  0
M  END
>  <meeko>  (5) 
{"is_sidechain": [false], "free_energy": -6.006, "intermolecular_energy": -10.528, "internal_energy": 1.947}

$$$$
LIB_XSSPOOYIFPEICN__M_PUB_ALL__e8__s20260927
     RDKit          3D

 85 90  0  0  0  0  0  0  0  0999 V2000
   -1.4700  -16.8950    1.7400 C   0  0  0  0  0  0  0  0  0  0  0  0
   -1.4690  -16.3970    2.9870 C   0  0  0  0  0  0  0  0  0  0  0  0
   -1.9300  -15.0000    3.4110 C   0  0  2  0  0  0  0  0  0  0  0  0
   -2.5650  -13.9850    2.3950 C   0  0  1  0  0  0  0  0  0  0  0  0
   -3.9730  -13.5010    2.7640 C   0  0  0  0  0  0  0  0  0  0  0  0
   -1.5960  -12.8300    2.0060 C   0  0  1  0  0  0  0  0  0  0  0  0
   -1.0510  -13.0230    0.5860 C   0  0  0  0  0  0  0  0  0  0  0  0
   -0.2360  -11.8300    0.2040 C   0  0  0  0  0  0  0  0  0  0  0  0
   -0.4610  -10.6250    0.7540 C   0  0  0  0  0  0  0  0  0  0  0  0
    0.3300   -9.4020    0.4110 C   0  0  0  0  0  0  0  0  0  0  0  0
   -1.5920  -10.4340    1.7020 C   0  0  0  0  0  0  0  0  0  0  0  0
   -1.9330   -9.3200    2.0800 O   0  0  0  0  0  0  0  0  0  0  0  0
   -2.2560  -11.5530    2.0870 O   0  0  0  0  0  0  0  0  0  0  0  0
   -0.7830  -14.3160    4.1950 C   0  0  0  0  0  0  0  0  0  0  0  0
   -0.2940  -15.1620    5.3750 C   0  0  0  0  0  0  0  0  0  0  0  0
    0.1590  -16.5920    4.9640 C   0  0  1  0  0  0  0  0  0  0  0  0
    1.4800  -16.4810    4.1770 C   0  0  0  0  0  0  0  0  0  0  0  0
    0.2290  -17.5070    6.2510 C   0  0  2  0  0  0  0  0  0  0  0  0
    1.4090  -18.4960    6.2590 C   0  0  0  0  0  0  0  0  0  0  0  0
    1.6550  -19.2630    7.5330 C   0  0  1  0  0  0  0  0  0  0  0  0
    1.6080  -18.3680    8.6530 O   0  0  0  0  0  0  0  0  0  0  0  0
    2.7890  -17.8680    9.1080 C   0  0  0  0  0  0  0  0  0  0  0  0
    2.5730  -17.1000   10.3750 C   0  0  0  0  0  0  0  0  0  0  0  0
    3.8790  -18.0340    8.5770 O   0  0  0  0  0  0  0  0  0  0  0  0
    0.8040  -20.5440    7.8160 C   0  0  1  0  0  0  0  0  0  0  0  0
    1.2990  -21.2910    9.1400 C   0  0  0  0  0  0  0  0  0  0  0  0
    0.6960  -22.6800    9.4230 C   0  0  0  0  0  0  0  0  0  0  0  0
    2.8270  -21.5540    9.0290 C   0  0  0  0  0  0  0  0  0  0  0  0
    1.2010  -20.4590   10.3250 O   0  0  0  0  0  0  0  0  0  0  0  0
    0.1340  -19.8110   10.8200 C   0  0  0  0  0  0  0  0  0  0  0  0
    0.2680  -19.0590   11.7840 O   0  0  0  0  0  0  0  0  0  0  0  0
   -1.2180  -20.0780   10.2420 C   0  0  0  0  0  0  0  0  0  0  0  0
   -1.4460  -19.6000    8.8240 C   0  0  1  0  0  0  0  0  0  0  0  0
   -1.1500  -18.2140    8.6900 O   0  0  0  0  0  0  0  0  0  0  0  0
   -1.8870  -17.7620    7.5100 O   0  0  0  0  0  0  0  0  0  0  0  0
   -1.1620  -18.2050    6.3480 C   0  0  1  0  0  0  0  0  0  0  0  0
   -1.9720  -17.6990    5.1330 C   0  0  0  0  0  0  0  0  0  0  0  0
   -0.9250  -17.2740    4.1090 C   0  0  1  0  0  0  0  0  0  0  0  0
   -1.1650  -19.7430    6.3500 C   0  0  0  0  0  0  0  0  0  0  0  0
   -0.7440  -20.3790    7.6970 C   0  0  1  0  0  0  0  0  0  0  0  0
   -1.2860  -21.7180    7.6520 O   0  0  0  0  0  0  0  0  0  0  0  0
   -1.1129  -17.9191    1.5565 H   0  0  0  0  0  0  0  0  0  0  0  0
   -1.8280  -16.2789    0.9020 H   0  0  0  0  0  0  0  0  0  0  0  0
   -2.8265  -15.2470    3.9985 H   0  0  0  0  0  0  0  0  0  0  0  0
   -2.7212  -14.5748    1.4797 H   0  0  0  0  0  0  0  0  0  0  0  0
   -4.0736  -13.4664    3.8588 H   0  0  0  0  0  0  0  0  0  0  0  0
   -4.1356  -12.4954    2.3489 H   0  0  0  0  0  0  0  0  0  0  0  0
   -4.7195  -14.1941    2.3489 H   0  0  0  0  0  0  0  0  0  0  0  0
   -0.7601  -12.8522    2.7207 H   0  0  0  0  0  0  0  0  0  0  0  0
   -0.4211  -13.9242    0.5534 H   0  0  0  0  0  0  0  0  0  0  0  0
   -1.8884  -13.1382   -0.1179 H   0  0  0  0  0  0  0  0  0  0  0  0
    0.5643  -11.9407   -0.5425 H   0  0  0  0  0  0  0  0  0  0  0  0
    0.6529   -8.9027    1.3364 H   0  0  0  0  0  0  0  0  0  0  0  0
    1.2134   -9.6899   -0.1778 H   0  0  0  0  0  0  0  0  0  0  0  0
   -0.2949   -8.7144   -0.1778 H   0  0  0  0  0  0  0  0  0  0  0  0
    0.0603  -14.1455    3.5096 H   0  0  0  0  0  0  0  0  0  0  0  0
   -1.1721  -13.3702    4.6000 H   0  0  0  0  0  0  0  0  0  0  0  0
    0.5580  -14.6475    5.8435 H   0  0  0  0  0  0  0  0  0  0  0  0
   -1.1420  -15.2761    6.0662 H   0  0  0  0  0  0  0  0  0  0  0  0
    2.3217  -16.4103    4.8816 H   0  0  0  0  0  0  0  0  0  0  0  0
    1.6056  -17.3718    3.5439 H   0  0  0  0  0  0  0  0  0  0  0  0
    1.4552  -15.5818    3.5439 H   0  0  0  0  0  0  0  0  0  0  0  0
    0.4320  -16.8964    7.1432 H   0  0  0  0  0  0  0  0  0  0  0  0
    1.2310  -19.2303    5.4595 H   0  0  0  0  0  0  0  0  0  0  0  0
    2.3044  -17.8709    6.1264 H   0  0  0  0  0  0  0  0  0  0  0  0
    2.6574  -19.6877    7.3752 H   0  0  0  0  0  0  0  0  0  0  0  0
    2.7577  -17.7568   11.2379 H   0  0  0  0  0  0  0  0  0  0  0  0
    3.2659  -16.2463   10.4090 H   0  0  0  0  0  0  0  0  0  0  0  0
    1.5367  -16.7327   10.4090 H   0  0  0  0  0  0  0  0  0  0  0  0
    1.0074  -21.2201    6.9725 H   0  0  0  0  0  0  0  0  0  0  0  0
    0.6283  -22.8358   10.5098 H   0  0  0  0  0  0  0  0  0  0  0  0
   -0.3093  -22.7403    8.9806 H   0  0  0  0  0  0  0  0  0  0  0  0
    1.3384  -23.4557    8.9806 H   0  0  0  0  0  0  0  0  0  0  0  0
    3.2604  -21.6286   10.0373 H   0  0  0  0  0  0  0  0  0  0  0  0
    2.9986  -22.4949    8.4856 H   0  0  0  0  0  0  0  0  0  0  0  0
    3.3033  -20.7246    8.4856 H   0  0  0  0  0  0  0  0  0  0  0  0
   -1.3815  -21.1656   10.2597 H   0  0  0  0  0  0  0  0  0  0  0  0
   -1.9216  -19.5036   10.8625 H   0  0  0  0  0  0  0  0  0  0  0  0
   -2.5179  -19.7997    8.6785 H   0  0  0  0  0  0  0  0  0  0  0  0
   -2.6044  -18.5029    4.7283 H   0  0  0  0  0  0  0  0  0  0  0  0
   -2.6462  -16.8724    5.4016 H   0  0  0  0  0  0  0  0  0  0  0  0
   -0.5320  -18.1300    3.5409 H   0  0  0  0  0  0  0  0  0  0  0  0
   -2.1823  -20.0858    6.1102 H   0  0  0  0  0  0  0  0  0  0  0  0
   -0.4202  -20.0605    5.6053 H   0  0  0  0  0  0  0  0  0  0  0  0
   -1.4350  -22.0390    8.5600 H   0  0  0  0  0  0  0  0  0  0  0  0
  1  2  2  0
  2  3  1  0
  3  4  1  0
  4  5  1  0
  4  6  1  0
  6  7  1  0
  7  8  1  0
  8  9  2  0
  9 10  1  0
  9 11  1  0
 11 12  2  0
 11 13  1  0
  3 14  1  0
 14 15  1  0
 15 16  1  0
 16 17  1  6
 16 18  1  0
 18 19  1  0
 19 20  1  0
 20 21  1  0
 21 22  1  0
 22 23  1  0
 22 24  2  0
 20 25  1  0
 25 26  1  0
 26 27  1  0
 26 28  1  0
 26 29  1  0
 29 30  1  0
 30 31  2  0
 30 32  1  0
 32 33  1  0
 33 34  1  0
 34 35  1  0
 36 35  1  1
 36 37  1  0
 37 38  1  0
 36 39  1  0
 39 40  1  0
 40 41  1  6
 38  2  1  0
 13  6  1  0
 38 16  1  0
 36 18  1  0
 40 25  1  0
 40 33  1  0
  1 42  1  0
  1 43  1  0
  3 44  1  1
  4 45  1  6
  5 46  1  0
  5 47  1  0
  5 48  1  0
  6 49  1  1
  7 50  1  0
  7 51  1  0
  8 52  1  0
 10 53  1  0
 10 54  1  0
 10 55  1  0
 14 56  1  0
 14 57  1  0
 15 58  1  0
 15 59  1  0
 17 60  1  0
 17 61  1  0
 17 62  1  0
 18 63  1  1
 19 64  1  0
 19 65  1  0
 20 66  1  6
 23 67  1  0
 23 68  1  0
 23 69  1  0
 25 70  1  6
 27 71  1  0
 27 72  1  0
 27 73  1  0
 28 74  1  0
 28 75  1  0
 28 76  1  0
 32 77  1  0
 32 78  1  0
 33 79  1  6
 37 80  1  0
 37 81  1  0
 38 82  1  6
 39 83  1  0
 39 84  1  0
 41 85  1  0
M  END
>  <meeko>  (6) 
{"is_sidechain": [false], "free_energy": -5.984, "intermolecular_energy": -10.075, "internal_energy": 1.531}

$$$$
LIB_XSSPOOYIFPEICN__M_PUB_ALL__e8__s20260927
     RDKit          3D

 85 90  0  0  0  0  0  0  0  0999 V2000
    6.3360  -12.0710   -1.7420 C   0  0  0  0  0  0  0  0  0  0  0  0
    5.6760  -13.2290   -1.9030 C   0  0  0  0  0  0  0  0  0  0  0  0
    5.9720  -14.3090   -2.9470 C   0  0  2  0  0  0  0  0  0  0  0  0
    7.1950  -14.2110   -3.9280 C   0  0  1  0  0  0  0  0  0  0  0  0
    8.3550  -15.1610   -3.6070 C   0  0  0  0  0  0  0  0  0  0  0  0
    6.7730  -14.2340   -5.4270 C   0  0  1  0  0  0  0  0  0  0  0  0
    6.1280  -12.9050   -5.8390 C   0  0  0  0  0  0  0  0  0  0  0  0
    5.8620  -12.9210   -7.3090 C   0  0  0  0  0  0  0  0  0  0  0  0
    6.5920  -13.6790   -8.1430 C   0  0  0  0  0  0  0  0  0  0  0  0
    6.3630  -13.7340   -9.6210 C   0  0  0  0  0  0  0  0  0  0  0  0
    7.7450  -14.4640   -7.6260 C   0  0  0  0  0  0  0  0  0  0  0  0
    8.5350  -15.0200   -8.3790 O   0  0  0  0  0  0  0  0  0  0  0  0
    7.9050  -14.4900   -6.2780 O   0  0  0  0  0  0  0  0  0  0  0  0
    4.6760  -14.5970   -3.7440 C   0  0  0  0  0  0  0  0  0  0  0  0
    3.4980  -14.9600   -2.8340 C   0  0  0  0  0  0  0  0  0  0  0  0
    3.1960  -13.8820   -1.7550 C   0  0  1  0  0  0  0  0  0  0  0  0
    2.5980  -12.6440   -2.4510 C   0  0  0  0  0  0  0  0  0  0  0  0
    2.2870  -14.5130   -0.6270 C   0  0  2  0  0  0  0  0  0  0  0  0
    1.2100  -13.5590   -0.0780 C   0  0  0  0  0  0  0  0  0  0  0  0
    0.1720  -14.1640    0.8570 C   0  0  1  0  0  0  0  0  0  0  0  0
   -0.2830  -15.4130    0.3170 O   0  0  0  0  0  0  0  0  0  0  0  0
   -1.3680  -15.3840   -0.5040 C   0  0  0  0  0  0  0  0  0  0  0  0
   -0.9320  -15.3160   -1.9350 C   0  0  0  0  0  0  0  0  0  0  0  0
   -2.5350  -15.4270   -0.1370 O   0  0  0  0  0  0  0  0  0  0  0  0
    0.5510  -14.3220    2.3650 C   0  0  1  0  0  0  0  0  0  0  0  0
   -0.7130  -14.8260    3.2350 C   0  0  0  0  0  0  0  0  0  0  0  0
   -0.5340  -14.7980    4.7640 C   0  0  0  0  0  0  0  0  0  0  0  0
   -1.9200  -13.8820    2.9750 C   0  0  0  0  0  0  0  0  0  0  0  0
   -1.2220  -16.1210    2.8210 O   0  0  0  0  0  0  0  0  0  0  0  0
   -0.5540  -17.2680    2.6190 C   0  0  0  0  0  0  0  0  0  0  0  0
   -1.1190  -18.2150    2.0730 O   0  0  0  0  0  0  0  0  0  0  0  0
    0.8400  -17.4060    3.1380 C   0  0  0  0  0  0  0  0  0  0  0  0
    1.9000  -16.5900    2.4300 C   0  0  1  0  0  0  0  0  0  0  0  0
    1.9060  -16.8500    1.0300 O   0  0  0  0  0  0  0  0  0  0  0  0
    3.2370  -16.4660    0.5590 O   0  0  0  0  0  0  0  0  0  0  0  0
    3.2690  -15.0300    0.4680 C   0  0  1  0  0  0  0  0  0  0  0  0
    4.6860  -14.6760   -0.0380 C   0  0  0  0  0  0  0  0  0  0  0  0
    4.4830  -13.5070   -0.9960 C   0  0  1  0  0  0  0  0  0  0  0  0
    3.0840  -14.4640    1.8850 C   0  0  0  0  0  0  0  0  0  0  0  0
    1.8900  -15.0690    2.6620 C   0  0  1  0  0  0  0  0  0  0  0  0
    2.1920  -14.8110    4.0520 O   0  0  0  0  0  0  0  0  0  0  0  0
    6.0303  -11.3689   -0.9523 H   0  0  0  0  0  0  0  0  0  0  0  0
    7.1824  -11.8243   -2.3998 H   0  0  0  0  0  0  0  0  0  0  0  0
    6.3263  -15.1278   -2.3035 H   0  0  0  0  0  0  0  0  0  0  0  0
    7.6154  -13.2114   -3.7434 H   0  0  0  0  0  0  0  0  0  0  0  0
    8.4644  -15.2506   -2.5161 H   0  0  0  0  0  0  0  0  0  0  0  0
    8.1473  -16.1518   -4.0373 H   0  0  0  0  0  0  0  0  0  0  0  0
    9.2854  -14.7621   -4.0373 H   0  0  0  0  0  0  0  0  0  0  0  0
    6.0389  -15.0447   -5.5451 H   0  0  0  0  0  0  0  0  0  0  0  0
    5.1810  -12.7719   -5.2955 H   0  0  0  0  0  0  0  0  0  0  0  0
    6.8071  -12.0745   -5.5961 H   0  0  0  0  0  0  0  0  0  0  0  0
    5.0514  -12.2990   -7.7165 H   0  0  0  0  0  0  0  0  0  0  0  0
    5.3110  -13.9867   -9.8199 H   0  0  0  0  0  0  0  0  0  0  0  0
    6.5951  -12.7546  -10.0647 H   0  0  0  0  0  0  0  0  0  0  0  0
    7.0146  -14.5012  -10.0647 H   0  0  0  0  0  0  0  0  0  0  0  0
    4.4112  -13.7003   -4.3235 H   0  0  0  0  0  0  0  0  0  0  0  0
    4.8705  -15.4584   -4.3998 H   0  0  0  0  0  0  0  0  0  0  0  0
    2.6017  -15.0888   -3.4586 H   0  0  0  0  0  0  0  0  0  0  0  0
    3.7708  -15.8837   -2.3026 H   0  0  0  0  0  0  0  0  0  0  0  0
    2.2520  -11.9277   -1.6913 H   0  0  0  0  0  0  0  0  0  0  0  0
    3.3663  -12.1697   -3.0793 H   0  0  0  0  0  0  0  0  0  0  0  0
    1.7488  -12.9510   -3.0793 H   0  0  0  0  0  0  0  0  0  0  0  0
    1.6825  -15.3343   -1.0393 H   0  0  0  0  0  0  0  0  0  0  0  0
    1.7244  -12.7560    0.4702 H   0  0  0  0  0  0  0  0  0  0  0  0
    0.6440  -13.2244   -0.9599 H   0  0  0  0  0  0  0  0  0  0  0  0
   -0.6269  -13.4086    0.8908 H   0  0  0  0  0  0  0  0  0  0  0  0
    0.1540  -15.1466   -1.9798 H   0  0  0  0  0  0  0  0  0  0  0  0
   -1.1764  -16.2631   -2.4382 H   0  0  0  0  0  0  0  0  0  0  0  0
   -1.4532  -14.4883   -2.4382 H   0  0  0  0  0  0  0  0  0  0  0  0
    0.7978  -13.3079    2.7123 H   0  0  0  0  0  0  0  0  0  0  0  0
   -1.5089  -14.9505    5.2502 H   0  0  0  0  0  0  0  0  0  0  0  0
    0.1562  -15.5991    5.0671 H   0  0  0  0  0  0  0  0  0  0  0  0
   -0.1214  -13.8244    5.0671 H   0  0  0  0  0  0  0  0  0  0  0  0
   -2.3414  -13.5524    3.9361 H   0  0  0  0  0  0  0  0  0  0  0  0
   -1.5831  -13.0053    2.4024 H   0  0  0  0  0  0  0  0  0  0  0  0
   -2.6897  -14.4202    2.4024 H   0  0  0  0  0  0  0  0  0  0  0  0
    0.8356  -17.1050    4.1960 H   0  0  0  0  0  0  0  0  0  0  0  0
    1.1150  -18.4574    2.9677 H   0  0  0  0  0  0  0  0  0  0  0  0
    2.8252  -16.9413    2.9101 H   0  0  0  0  0  0  0  0  0  0  0  0
    5.3333  -14.3804    0.8008 H   0  0  0  0  0  0  0  0  0  0  0  0
    5.1752  -15.5310   -0.5276 H   0  0  0  0  0  0  0  0  0  0  0  0
    4.3899  -12.5488   -0.4639 H   0  0  0  0  0  0  0  0  0  0  0  0
    4.0026  -14.6609    2.4572 H   0  0  0  0  0  0  0  0  0  0  0  0
    2.8735  -13.3905    1.7702 H   0  0  0  0  0  0  0  0  0  0  0  0
    2.9800  -15.3210    4.3130 H   0  0  0  0  0  0  0  0  0  0  0  0
  1  2  2  0
  2  3  1  0
  3  4  1  0
  4  5  1  0
  4  6  1  0
  6  7  1  0
  7  8  1  0
  8  9  2  0
  9 10  1  0
  9 11  1  0
 11 12  2  0
 11 13  1  0
  3 14  1  0
 14 15  1  0
 15 16  1  0
 16 17  1  6
 16 18  1  0
 18 19  1  0
 19 20  1  0
 20 21  1  0
 21 22  1  0
 22 23  1  0
 22 24  2  0
 20 25  1  0
 25 26  1  0
 26 27  1  0
 26 28  1  0
 26 29  1  0
 29 30  1  0
 30 31  2  0
 30 32  1  0
 32 33  1  0
 33 34  1  0
 34 35  1  0
 36 35  1  1
 36 37  1  0
 37 38  1  0
 36 39  1  0
 39 40  1  0
 40 41  1  1
 38  2  1  0
 13  6  1  0
 38 16  1  0
 36 18  1  0
 40 25  1  0
 40 33  1  0
  1 42  1  0
  1 43  1  0
  3 44  1  1
  4 45  1  1
  5 46  1  0
  5 47  1  0
  5 48  1  0
  6 49  1  1
  7 50  1  0
  7 51  1  0
  8 52  1  0
 10 53  1  0
 10 54  1  0
 10 55  1  0
 14 56  1  0
 14 57  1  0
 15 58  1  0
 15 59  1  0
 17 60  1  0
 17 61  1  0
 17 62  1  0
 18 63  1  6
 19 64  1  0
 19 65  1  0
 20 66  1  1
 23 67  1  0
 23 68  1  0
 23 69  1  0
 25 70  1  1
 27 71  1  0
 27 72  1  0
 27 73  1  0
 28 74  1  0
 28 75  1  0
 28 76  1  0
 32 77  1  0
 32 78  1  0
 33 79  1  1
 37 80  1  0
 37 81  1  0
 38 82  1  1
 39 83  1  0
 39 84  1  0
 41 85  1  0
M  END
>  <meeko>  (7) 
{"is_sidechain": [false], "free_energy": -5.749, "intermolecular_energy": -10.085, "internal_energy": 1.935}

$$$$
LIB_XSSPOOYIFPEICN__M_PUB_ALL__e8__s20260927
     RDKit          3D

 85 90  0  0  0  0  0  0  0  0999 V2000
   -0.9040  -17.0870    0.3100 C   0  0  0  0  0  0  0  0  0  0  0  0
   -0.1770  -16.4790    1.2620 C   0  0  0  0  0  0  0  0  0  0  0  0
    0.4440  -15.0820    1.1820 C   0  0  2  0  0  0  0  0  0  0  0  0
    0.2110  -14.1340   -0.0480 C   0  0  1  0  0  0  0  0  0  0  0  0
   -0.3610  -14.8230   -1.2930 C   0  0  0  0  0  0  0  0  0  0  0  0
   -0.5370  -12.8220    0.3310 C   0  0  1  0  0  0  0  0  0  0  0  0
   -1.4310  -13.0330    1.5590 C   0  0  0  0  0  0  0  0  0  0  0  0
   -2.0230  -11.7230    1.9680 C   0  0  0  0  0  0  0  0  0  0  0  0
   -1.4110  -10.5610    1.6890 C   0  0  0  0  0  0  0  0  0  0  0  0
   -1.9650   -9.2250    2.0710 C   0  0  0  0  0  0  0  0  0  0  0  0
   -0.0750  -10.5580    1.0330 C   0  0  0  0  0  0  0  0  0  0  0  0
    0.5870   -9.5330    0.9260 O   0  0  0  0  0  0  0  0  0  0  0  0
    0.3930  -11.7570    0.6030 O   0  0  0  0  0  0  0  0  0  0  0  0
    1.9590  -15.1960    1.4830 C   0  0  0  0  0  0  0  0  0  0  0  0
    2.2390  -15.8930    2.8190 C   0  0  0  0  0  0  0  0  0  0  0  0
    1.5980  -17.3050    2.9250 C   0  0  1  0  0  0  0  0  0  0  0  0
    2.3560  -18.2610    1.9830 C   0  0  0  0  0  0  0  0  0  0  0  0
    1.5680  -17.7520    4.4400 C   0  0  2  0  0  0  0  0  0  0  0  0
    1.8630  -19.2470    4.6640 C   0  0  0  0  0  0  0  0  0  0  0  0
    2.0570  -19.6950    6.1120 C   0  0  1  0  0  0  0  0  0  0  0  0
    2.9020  -18.7680    6.8090 O   0  0  0  0  0  0  0  0  0  0  0  0
    4.2060  -19.1160    6.9830 C   0  0  0  0  0  0  0  0  0  0  0  0
    4.5730  -20.2320    6.0540 C   0  0  0  0  0  0  0  0  0  0  0  0
    4.9820  -18.5850    7.7670 O   0  0  0  0  0  0  0  0  0  0  0  0
    0.7740  -20.0060    6.9490 C   0  0  1  0  0  0  0  0  0  0  0  0
    1.1290  -20.6330    8.3740 C   0  0  0  0  0  0  0  0  0  0  0  0
   -0.0500  -21.2100    9.1790 C   0  0  0  0  0  0  0  0  0  0  0  0
    2.0700  -21.8500    8.1490 C   0  0  0  0  0  0  0  0  0  0  0  0
    1.9260  -19.7630    9.2190 O   0  0  0  0  0  0  0  0  0  0  0  0
    1.7440  -18.4640    9.5080 C   0  0  0  0  0  0  0  0  0  0  0  0
    2.6520  -17.8220   10.0320 O   0  0  0  0  0  0  0  0  0  0  0  0
    0.4080  -17.8400    9.2660 C   0  0  0  0  0  0  0  0  0  0  0  0
    0.0220  -17.6290    7.8170 C   0  0  1  0  0  0  0  0  0  0  0  0
    0.9980  -16.8540    7.1280 O   0  0  0  0  0  0  0  0  0  0  0  0
    0.3060  -16.2760    5.9760 O   0  0  0  0  0  0  0  0  0  0  0  0
    0.1740  -17.3100    4.9830 C   0  0  1  0  0  0  0  0  0  0  0  0
   -0.5520  -16.6520    3.7880 C   0  0  0  0  0  0  0  0  0  0  0  0
    0.1060  -17.2470    2.5480 C   0  0  1  0  0  0  0  0  0  0  0  0
   -0.7200  -18.4150    5.5700 C   0  0  0  0  0  0  0  0  0  0  0  0
   -0.3090  -18.8820    6.9870 C   0  0  1  0  0  0  0  0  0  0  0  0
   -1.5010  -19.4940    7.5280 O   0  0  0  0  0  0  0  0  0  0  0  0
   -1.3005  -18.0984    0.4827 H   0  0  0  0  0  0  0  0  0  0  0  0
   -1.1028  -16.5734   -0.6422 H   0  0  0  0  0  0  0  0  0  0  0  0
   -0.1513  -14.5452    1.9353 H   0  0  0  0  0  0  0  0  0  0  0  0
    1.2228  -13.8321   -0.3564 H   0  0  0  0  0  0  0  0  0  0  0  0
   -1.0355  -15.6355   -0.9851 H   0  0  0  0  0  0  0  0  0  0  0  0
   -0.9199  -14.0901   -1.8935 H   0  0  0  0  0  0  0  0  0  0  0  0
    0.4622  -15.2375   -1.8935 H   0  0  0  0  0  0  0  0  0  0  0  0
   -1.1635  -12.5446   -0.5295 H   0  0  0  0  0  0  0  0  0  0  0  0
   -2.2369  -13.7391    1.3102 H   0  0  0  0  0  0  0  0  0  0  0  0
   -0.8318  -13.4416    2.3860 H   0  0  0  0  0  0  0  0  0  0  0  0
   -2.9806  -11.7106    2.5092 H   0  0  0  0  0  0  0  0  0  0  0  0
   -1.9993   -9.1422    3.1673 H   0  0  0  0  0  0  0  0  0  0  0  0
   -1.3219   -8.4312    1.6633 H   0  0  0  0  0  0  0  0  0  0  0  0
   -2.9812   -9.1192    1.6633 H   0  0  0  0  0  0  0  0  0  0  0  0
    2.4368  -15.7723    0.6770 H   0  0  0  0  0  0  0  0  0  0  0  0
    2.3660  -14.1760    1.5454 H   0  0  0  0  0  0  0  0  0  0  0  0
    3.3278  -15.9946    2.9378 H   0  0  0  0  0  0  0  0  0  0  0  0
    1.7906  -15.2727    3.6090 H   0  0  0  0  0  0  0  0  0  0  0  0
    2.9301  -18.9851    2.5798 H   0  0  0  0  0  0  0  0  0  0  0  0
    1.6357  -18.7981    1.3485 H   0  0  0  0  0  0  0  0  0  0  0  0
    3.0432  -17.6821    1.3485 H   0  0  0  0  0  0  0  0  0  0  0  0
    2.3846  -17.2686    4.9964 H   0  0  0  0  0  0  0  0  0  0  0  0
    1.0215  -19.8197    4.2471 H   0  0  0  0  0  0  0  0  0  0  0  0
    2.8293  -19.4297    4.1712 H   0  0  0  0  0  0  0  0  0  0  0  0
    2.5350  -20.6809    6.0140 H   0  0  0  0  0  0  0  0  0  0  0  0
    4.8638  -21.1163    6.6400 H   0  0  0  0  0  0  0  0  0  0  0  0
    3.7092  -20.4802    5.4198 H   0  0  0  0  0  0  0  0  0  0  0  0
    5.4156  -19.9191    5.4198 H   0  0  0  0  0  0  0  0  0  0  0  0
    0.2530  -20.7905    6.3806 H   0  0  0  0  0  0  0  0  0  0  0  0
    0.1562  -21.1091   10.2548 H   0  0  0  0  0  0  0  0  0  0  0  0
   -0.9691  -20.6598    8.9287 H   0  0  0  0  0  0  0  0  0  0  0  0
   -0.1794  -22.2733    8.9287 H   0  0  0  0  0  0  0  0  0  0  0  0
    2.3837  -22.2557    9.1221 H   0  0  0  0  0  0  0  0  0  0  0  0
    1.5355  -22.6270    7.5828 H   0  0  0  0  0  0  0  0  0  0  0  0
    2.9565  -21.5283    7.5828 H   0  0  0  0  0  0  0  0  0  0  0  0
   -0.3532  -18.4877    9.7253 H   0  0  0  0  0  0  0  0  0  0  0  0
    0.4694  -16.8329    9.7043 H   0  0  0  0  0  0  0  0  0  0  0  0
   -0.9329  -17.0900    7.9043 H   0  0  0  0  0  0  0  0  0  0  0  0
   -1.6253  -16.8918    3.8085 H   0  0  0  0  0  0  0  0  0  0  0  0
   -0.4731  -15.5551    3.8107 H   0  0  0  0  0  0  0  0  0  0  0  0
   -0.3010  -18.2383    2.2997 H   0  0  0  0  0  0  0  0  0  0  0  0
   -1.7510  -18.0345    5.6183 H   0  0  0  0  0  0  0  0  0  0  0  0
   -0.6167  -19.2879    4.9087 H   0  0  0  0  0  0  0  0  0  0  0  0
   -2.0630  -19.8120    6.7980 H   0  0  0  0  0  0  0  0  0  0  0  0
  1  2  2  0
  2  3  1  0
  3  4  1  0
  4  5  1  0
  4  6  1  0
  6  7  1  0
  7  8  1  0
  8  9  2  0
  9 10  1  0
  9 11  1  0
 11 12  2  0
 11 13  1  0
  3 14  1  0
 14 15  1  0
 15 16  1  0
 16 17  1  6
 16 18  1  0
 18 19  1  0
 19 20  1  0
 20 21  1  0
 21 22  1  0
 22 23  1  0
 22 24  2  0
 20 25  1  0
 25 26  1  0
 26 27  1  0
 26 28  1  0
 26 29  1  0
 29 30  1  0
 30 31  2  0
 30 32  1  0
 32 33  1  0
 33 34  1  0
 34 35  1  0
 36 35  1  1
 36 37  1  0
 37 38  1  0
 36 39  1  0
 39 40  1  0
 40 41  1  1
 38  2  1  0
 13  6  1  0
 38 16  1  0
 36 18  1  0
 40 25  1  0
 40 33  1  0
  1 42  1  0
  1 43  1  0
  3 44  1  1
  4 45  1  6
  5 46  1  0
  5 47  1  0
  5 48  1  0
  6 49  1  6
  7 50  1  0
  7 51  1  0
  8 52  1  0
 10 53  1  0
 10 54  1  0
 10 55  1  0
 14 56  1  0
 14 57  1  0
 15 58  1  0
 15 59  1  0
 17 60  1  0
 17 61  1  0
 17 62  1  0
 18 63  1  1
 19 64  1  0
 19 65  1  0
 20 66  1  6
 23 67  1  0
 23 68  1  0
 23 69  1  0
 25 70  1  6
 27 71  1  0
 27 72  1  0
 27 73  1  0
 28 74  1  0
 28 75  1  0
 28 76  1  0
 32 77  1  0
 32 78  1  0
 33 79  1  1
 37 80  1  0
 37 81  1  0
 38 82  1  6
 39 83  1  0
 39 84  1  0
 41 85  1  0
M  END
>  <meeko>  (8) 
{"is_sidechain": [false], "free_energy": -5.58, "intermolecular_energy": -10.325, "internal_energy": 2.457}

$$$$
LIB_XSSPOOYIFPEICN__M_PUB_ALL__e8__s20260927
     RDKit          3D

 85 90  0  0  0  0  0  0  0  0999 V2000
   -4.0030  -15.6920    3.9620 C   0  0  0  0  0  0  0  0  0  0  0  0
   -2.6720  -15.8660    3.9320 C   0  0  0  0  0  0  0  0  0  0  0  0
   -1.7030  -15.3090    2.8850 C   0  0  2  0  0  0  0  0  0  0  0  0
   -2.1780  -14.3570    1.7290 C   0  0  1  0  0  0  0  0  0  0  0  0
   -3.3880  -14.8650    0.9340 C   0  0  0  0  0  0  0  0  0  0  0  0
   -2.3150  -12.8740    2.1830 C   0  0  1  0  0  0  0  0  0  0  0  0
   -1.2120  -12.4980    3.1790 C   0  0  0  0  0  0  0  0  0  0  0  0
   -1.2990  -11.0380    3.4840 C   0  0  0  0  0  0  0  0  0  0  0  0
   -1.8300  -10.1710    2.6060 C   0  0  0  0  0  0  0  0  0  0  0  0
   -1.9460   -8.7020    2.8660 C   0  0  0  0  0  0  0  0  0  0  0  0
   -2.2720  -10.6410    1.2650 C   0  0  0  0  0  0  0  0  0  0  0  0
   -2.5930   -9.8550    0.3820 O   0  0  0  0  0  0  0  0  0  0  0  0
   -2.2540  -11.9810    1.0550 O   0  0  0  0  0  0  0  0  0  0  0  0
   -0.8790  -16.4810    2.2990 C   0  0  0  0  0  0  0  0  0  0  0  0
   -0.1710  -17.2990    3.3860 C   0  0  0  0  0  0  0  0  0  0  0  0
   -1.1380  -17.8550    4.4680 C   0  0  1  0  0  0  0  0  0  0  0  0
   -1.9930  -18.9710    3.8370 C   0  0  0  0  0  0  0  0  0  0  0  0
   -0.3040  -18.2950    5.7360 C   0  0  2  0  0  0  0  0  0  0  0  0
   -0.8180  -19.5790    6.4150 C   0  0  0  0  0  0  0  0  0  0  0  0
    0.0790  -20.1730    7.5140 C   0  0  1  0  0  0  0  0  0  0  0  0
    1.4530  -20.1640    7.1000 O   0  0  0  0  0  0  0  0  0  0  0  0
    1.8880  -21.2090    6.3460 C   0  0  0  0  0  0  0  0  0  0  0  0
    2.9960  -20.7680    5.4400 C   0  0  0  0  0  0  0  0  0  0  0  0
    1.4580  -22.3540    6.4060 O   0  0  0  0  0  0  0  0  0  0  0  0
   -0.0670  -19.5710    8.9490 C   0  0  1  0  0  0  0  0  0  0  0  0
    0.7660  -20.3980   10.0320 C   0  0  0  0  0  0  0  0  0  0  0  0
    0.4990  -20.0100   11.4980 C   0  0  0  0  0  0  0  0  0  0  0  0
    0.3750  -21.9010    9.9570 C   0  0  0  0  0  0  0  0  0  0  0  0
    2.1960  -20.4260    9.7820 O   0  0  0  0  0  0  0  0  0  0  0  0
    3.0210  -19.4140    9.4670 C   0  0  0  0  0  0  0  0  0  0  0  0
    4.1390  -19.6560    9.0150 O   0  0  0  0  0  0  0  0  0  0  0  0
    2.5990  -18.0090    9.7520 C   0  0  0  0  0  0  0  0  0  0  0  0
    1.5030  -17.4490    8.8710 C   0  0  1  0  0  0  0  0  0  0  0  0
    1.8560  -17.5220    7.4940 O   0  0  0  0  0  0  0  0  0  0  0  0
    1.0340  -16.5170    6.8190 O   0  0  0  0  0  0  0  0  0  0  0  0
   -0.2930  -17.0580    6.6850 C   0  0  1  0  0  0  0  0  0  0  0  0
   -1.1170  -15.9680    5.9630 C   0  0  0  0  0  0  0  0  0  0  0  0
   -2.0370  -16.7300    5.0150 C   0  0  1  0  0  0  0  0  0  0  0  0
   -0.8610  -17.2660    8.0980 C   0  0  0  0  0  0  0  0  0  0  0  0
    0.0860  -18.0210    9.0620 C   0  0  1  0  0  0  0  0  0  0  0  0
   -0.3820  -17.6680   10.3830 O   0  0  0  0  0  0  0  0  0  0  0  0
   -4.5986  -16.1434    4.7691 H   0  0  0  0  0  0  0  0  0  0  0  0
   -4.4978  -15.0980    3.1795 H   0  0  0  0  0  0  0  0  0  0  0  0
   -1.1371  -14.5855    3.4902 H   0  0  0  0  0  0  0  0  0  0  0  0
   -1.3552  -14.3791    0.9993 H   0  0  0  0  0  0  0  0  0  0  0  0
   -4.1726  -15.1944    1.6310 H   0  0  0  0  0  0  0  0  0  0  0  0
   -3.7771  -14.0543    0.3005 H   0  0  0  0  0  0  0  0  0  0  0  0
   -3.0818  -15.7105    0.3005 H   0  0  0  0  0  0  0  0  0  0  0  0
   -3.2946  -12.7736    2.6731 H   0  0  0  0  0  0  0  0  0  0  0  0
   -1.3417  -13.0755    4.1062 H   0  0  0  0  0  0  0  0  0  0  0  0
   -0.2282  -12.7253    2.7426 H   0  0  0  0  0  0  0  0  0  0  0  0
   -0.9205  -10.6654    4.4473 H   0  0  0  0  0  0  0  0  0  0  0  0
   -1.9602   -8.5217    3.9510 H   0  0  0  0  0  0  0  0  0  0  0  0
   -1.0862   -8.1815    2.4191 H   0  0  0  0  0  0  0  0  0  0  0  0
   -2.8769   -8.3229    2.4191 H   0  0  0  0  0  0  0  0  0  0  0  0
   -1.5562  -17.1451    1.7419 H   0  0  0  0  0  0  0  0  0  0  0  0
   -0.1056  -16.0528    1.6444 H   0  0  0  0  0  0  0  0  0  0  0  0
    0.3406  -18.1467    2.9068 H   0  0  0  0  0  0  0  0  0  0  0  0
    0.5319  -16.6231    3.8950 H   0  0  0  0  0  0  0  0  0  0  0  0
   -2.4547  -19.5736    4.6330 H   0  0  0  0  0  0  0  0  0  0  0  0
   -2.7803  -18.5218    3.2138 H   0  0  0  0  0  0  0  0  0  0  0  0
   -1.3544  -19.6142    3.2138 H   0  0  0  0  0  0  0  0  0  0  0  0
    0.7167  -18.5799    5.4410 H   0  0  0  0  0  0  0  0  0  0  0  0
   -1.7952  -19.3517    6.8661 H   0  0  0  0  0  0  0  0  0  0  0  0
   -0.8511  -20.3387    5.6202 H   0  0  0  0  0  0  0  0  0  0  0  0
   -0.2926  -21.2022    7.6265 H   0  0  0  0  0  0  0  0  0  0  0  0
    3.8502  -20.4280    6.0440 H   0  0  0  0  0  0  0  0  0  0  0  0
    3.3079  -21.6105    4.8053 H   0  0  0  0  0  0  0  0  0  0  0  0
    2.6437  -19.9416    4.8053 H   0  0  0  0  0  0  0  0  0  0  0  0
   -1.1299  -19.7045    9.1989 H   0  0  0  0  0  0  0  0  0  0  0  0
    0.9952  -20.7310   12.1643 H   0  0  0  0  0  0  0  0  0  0  0  0
    0.8954  -19.0018   11.6885 H   0  0  0  0  0  0  0  0  0  0  0  0
   -0.5843  -20.0201   11.6885 H   0  0  0  0  0  0  0  0  0  0  0  0
    0.2702  -22.3039   10.9752 H   0  0  0  0  0  0  0  0  0  0  0  0
   -0.5801  -22.0051    9.4214 H   0  0  0  0  0  0  0  0  0  0  0  0
    1.1583  -22.4574    9.4214 H   0  0  0  0  0  0  0  0  0  0  0  0
    2.2461  -17.9692   10.7931 H   0  0  0  0  0  0  0  0  0  0  0  0
    3.4848  -17.3888    9.5503 H   0  0  0  0  0  0  0  0  0  0  0  0
    1.4347  -16.4063    9.2147 H   0  0  0  0  0  0  0  0  0  0  0  0
   -1.7053  -15.3852    6.6871 H   0  0  0  0  0  0  0  0  0  0  0  0
   -0.4754  -15.2519    5.4286 H   0  0  0  0  0  0  0  0  0  0  0  0
   -2.9283  -17.1192    5.5289 H   0  0  0  0  0  0  0  0  0  0  0  0
   -1.0769  -16.2782    8.5311 H   0  0  0  0  0  0  0  0  0  0  0  0
   -1.7596  -17.8906    7.9868 H   0  0  0  0  0  0  0  0  0  0  0  0
   -0.8070  -18.4420   10.7940 H   0  0  0  0  0  0  0  0  0  0  0  0
  1  2  2  0
  2  3  1  0
  3  4  1  0
  4  5  1  0
  4  6  1  0
  6  7  1  0
  7  8  1  0
  8  9  2  0
  9 10  1  0
  9 11  1  0
 11 12  2  0
 11 13  1  0
  3 14  1  0
 14 15  1  0
 15 16  1  0
 16 17  1  6
 16 18  1  0
 18 19  1  0
 19 20  1  0
 20 21  1  0
 21 22  1  0
 22 23  1  0
 22 24  2  0
 20 25  1  0
 25 26  1  0
 26 27  1  0
 26 28  1  0
 26 29  1  0
 29 30  1  0
 30 31  2  0
 30 32  1  0
 32 33  1  0
 33 34  1  0
 34 35  1  0
 36 35  1  1
 36 37  1  0
 37 38  1  0
 36 39  1  0
 39 40  1  0
 40 41  1  1
 38  2  1  0
 13  6  1  0
 38 16  1  0
 36 18  1  0
 40 25  1  0
 40 33  1  0
  1 42  1  0
  1 43  1  0
  3 44  1  1
  4 45  1  6
  5 46  1  0
  5 47  1  0
  5 48  1  0
  6 49  1  1
  7 50  1  0
  7 51  1  0
  8 52  1  0
 10 53  1  0
 10 54  1  0
 10 55  1  0
 14 56  1  0
 14 57  1  0
 15 58  1  0
 15 59  1  0
 17 60  1  0
 17 61  1  0
 17 62  1  0
 18 63  1  6
 19 64  1  0
 19 65  1  0
 20 66  1  1
 23 67  1  0
 23 68  1  0
 23 69  1  0
 25 70  1  1
 27 71  1  0
 27 72  1  0
 27 73  1  0
 28 74  1  0
 28 75  1  0
 28 76  1  0
 32 77  1  0
 32 78  1  0
 33 79  1  1
 37 80  1  0
 37 81  1  0
 38 82  1  1
 39 83  1  0
 39 84  1  0
 41 85  1  0
M  END
>  <meeko>  (9) 
{"is_sidechain": [false], "free_energy": -5.579, "intermolecular_energy": -9.668, "internal_energy": 1.802}

$$$$
