LIB_QPSCCNWGOLMGKW__M_PUB_ALL__e8__s20260927
     RDKit          3D

 69 74  0  0  0  0  0  0  0  0999 V2000
   13.2090  -11.1010   -0.8480 C   0  0  0  0  0  0  0  0  0  0  0  0
   12.8040  -12.5330   -0.6670 N   0  0  0  0  0  0  0  0  0  0  0  0
   12.0250  -12.7900    0.6190 C   0  0  0  0  0  0  0  0  0  0  0  0
   10.5840  -12.2510    0.5400 C   0  0  0  0  0  0  0  0  0  0  0  0
    9.9000  -12.7370   -0.6680 N   0  0  0  0  0  0  0  0  0  0  0  0
    8.5050  -12.7140   -0.7140 C   0  0  0  0  0  0  0  0  0  0  0  0
    7.7640  -13.4930   -1.6140 C   0  0  0  0  0  0  0  0  0  0  0  0
    6.3630  -13.4610   -1.6350 C   0  0  0  0  0  0  0  0  0  0  0  0
    5.6500  -12.6400   -0.7580 C   0  0  0  0  0  0  0  0  0  0  0  0
    4.1960  -12.5900   -0.7710 C   0  0  0  0  0  0  0  0  0  0  0  0
    3.3290  -11.8910   -1.6370 C   0  0  0  0  0  0  0  0  0  0  0  0
    2.0420  -12.0550   -1.3430 N   0  0  0  0  0  0  0  0  0  0  0  0
    2.0470  -12.8790   -0.2520 N   0  0  0  0  0  0  0  0  0  0  0  0
    0.9100  -13.3480    0.4610 C   0  0  0  0  0  0  0  0  0  0  0  0
   -0.3220  -12.9200    0.0070 N   0  0  0  0  0  0  0  0  0  0  0  0
    1.1130  -14.1530    1.5290 C   0  0  0  0  0  0  0  0  0  0  0  0
    0.0430  -14.7120    2.3640 C   0  0  0  0  0  0  0  0  0  0  0  0
   -0.5480  -15.9330    2.0250 C   0  0  0  0  0  0  0  0  0  0  0  0
   -1.5780  -16.4680    2.8090 C   0  0  0  0  0  0  0  0  0  0  0  0
   -2.0310  -15.7910    3.9430 C   0  0  0  0  0  0  0  0  0  0  0  0
   -3.0570  -16.2640    4.7780 N   0  0  0  0  0  0  0  0  0  0  0  0
   -2.9690  -16.6900    6.0800 C   0  0  0  0  0  0  0  0  0  0  0  0
   -1.9620  -16.7460    6.7700 O   0  0  0  0  0  0  0  0  0  0  0  0
   -4.2440  -17.0620    6.4930 O   0  0  0  0  0  0  0  0  0  0  0  0
   -5.0110  -16.0350    7.0540 C   0  0  0  0  0  0  0  0  0  0  0  0
   -4.7340  -15.5660    8.3370 C   0  0  0  0  0  0  0  0  0  0  0  0
   -5.4790  -14.5030    8.8470 C   0  0  0  0  0  0  0  0  0  0  0  0
   -6.4770  -13.9120    8.0700 C   0  0  0  0  0  0  0  0  0  0  0  0
   -6.7320  -14.3790    6.7780 C   0  0  0  0  0  0  0  0  0  0  0  0
   -5.9910  -15.4410    6.2620 C   0  0  0  0  0  0  0  0  0  0  0  0
   -1.4380  -14.5700    4.2830 C   0  0  0  0  0  0  0  0  0  0  0  0
   -0.4100  -14.0340    3.5000 C   0  0  0  0  0  0  0  0  0  0  0  0
    2.5460  -14.4550    1.8430 C   0  0  0  0  0  0  0  0  0  0  0  0
    3.5950  -14.0360    1.2020 N   0  0  0  0  0  0  0  0  0  0  0  0
    3.3520  -13.2270    0.1240 C   0  0  0  0  0  0  0  0  0  0  0  0
    6.3740  -11.8420    0.1310 C   0  0  0  0  0  0  0  0  0  0  0  0
    7.7760  -11.8820    0.1490 C   0  0  0  0  0  0  0  0  0  0  0  0
   10.6070  -12.5800   -1.9520 C   0  0  0  0  0  0  0  0  0  0  0  0
   12.0530  -13.1090   -1.8630 C   0  0  0  0  0  0  0  0  0  0  0  0
   13.3421  -10.6303    0.1372 H   0  0  0  0  0  0  0  0  0  0  0  0
   14.1553  -11.0554   -1.4070 H   0  0  0  0  0  0  0  0  0  0  0  0
   12.4268  -10.5666   -1.4070 H   0  0  0  0  0  0  0  0  0  0  0  0
   13.6730  -13.0740   -0.5880 H   0  0  0  0  0  0  0  0  0  0  0  0
   11.9889  -13.8742    0.8014 H   0  0  0  0  0  0  0  0  0  0  0  0
   12.5391  -12.2650    1.4376 H   0  0  0  0  0  0  0  0  0  0  0  0
   10.0265  -12.5857    1.4272 H   0  0  0  0  0  0  0  0  0  0  0  0
   10.6247  -11.1525    0.4992 H   0  0  0  0  0  0  0  0  0  0  0  0
    8.2958  -14.1459   -2.3217 H   0  0  0  0  0  0  0  0  0  0  0  0
    5.8170  -14.0914   -2.3523 H   0  0  0  0  0  0  0  0  0  0  0  0
    3.6827  -11.2708   -2.4738 H   0  0  0  0  0  0  0  0  0  0  0  0
   -0.9880  -13.6350   -0.2830 H   0  0  0  0  0  0  0  0  0  0  0  0
   -0.5150  -11.9400   -0.1540 H   0  0  0  0  0  0  0  0  0  0  0  0
   -0.2010  -16.4782    1.1348 H   0  0  0  0  0  0  0  0  0  0  0  0
   -2.0337  -17.4292    2.5291 H   0  0  0  0  0  0  0  0  0  0  0  0
   -3.9940  -16.3100    4.4000 H   0  0  0  0  0  0  0  0  0  0  0  0
   -3.9382  -16.0283    8.9394 H   0  0  0  0  0  0  0  0  0  0  0  0
   -5.2800  -14.1299    9.8625 H   0  0  0  0  0  0  0  0  0  0  0  0
   -7.0647  -13.0757    8.4764 H   0  0  0  0  0  0  0  0  0  0  0  0
   -7.5174  -13.9087    6.1681 H   0  0  0  0  0  0  0  0  0  0  0  0
   -6.1780  -15.8058    5.2412 H   0  0  0  0  0  0  0  0  0  0  0  0
   -1.7835  -14.0263    5.1746 H   0  0  0  0  0  0  0  0  0  0  0  0
    0.0451  -13.0725    3.7799 H   0  0  0  0  0  0  0  0  0  0  0  0
    2.7303  -15.1032    2.7124 H   0  0  0  0  0  0  0  0  0  0  0  0
    5.8393  -11.1756    0.8238 H   0  0  0  0  0  0  0  0  0  0  0  0
    8.3195  -11.2427    0.8602 H   0  0  0  0  0  0  0  0  0  0  0  0
   10.0673  -13.1409   -2.7293 H   0  0  0  0  0  0  0  0  0  0  0  0
   10.6434  -11.5089   -2.1999 H   0  0  0  0  0  0  0  0  0  0  0  0
   12.0244  -14.2046   -1.7692 H   0  0  0  0  0  0  0  0  0  0  0  0
   12.5829  -12.7993   -2.7758 H   0  0  0  0  0  0  0  0  0  0  0  0
  1  2  1  0
  2  3  1  0
  3  4  1  0
  4  5  1  0
  5  6  1  0
  6  7  2  0
  7  8  1  0
  8  9  2  0
  9 10  1  0
 10 11  1  0
 11 12  2  0
 12 13  1  0
 13 14  1  0
 14 15  1  0
 14 16  2  0
 16 17  1  0
 17 18  2  0
 18 19  1  0
 19 20  2  0
 20 21  1  0
 21 22  1  0
 22 23  2  0
 22 24  1  0
 24 25  1  0
 25 26  2  0
 26 27  1  0
 27 28  2  0
 28 29  1  0
 29 30  2  0
 20 31  1  0
 31 32  2  0
 16 33  1  0
 33 34  2  0
 34 35  1  0
  9 36  1  0
 36 37  2  0
  5 38  1  0
 38 39  1  0
 39  2  1  0
 37  6  1  0
 35 10  2  0
 35 13  1  0
 32 17  1  0
 30 25  1  0
  1 40  1  0
  1 41  1  0
  1 42  1  0
  2 43  1  0
  3 44  1  0
  3 45  1  0
  4 46  1  0
  4 47  1  0
  7 48  1  0
  8 49  1  0
 11 50  1  0
 15 51  1  0
 15 52  1  0
 18 53  1  0
 19 54  1  0
 21 55  1  0
 26 56  1  0
 27 57  1  0
 28 58  1  0
 29 59  1  0
 30 60  1  0
 31 61  1  0
 32 62  1  0
 33 63  1  0
 36 64  1  0
 37 65  1  0
 38 66  1  0
 38 67  1  0
 39 68  1  0
 39 69  1  0
M  CHG  1   2   1
M  END
>  <meeko>  (1) 
{"is_sidechain": [false], "free_energy": -8.761, "intermolecular_energy": -12.09, "internal_energy": -0.905}

$$$$
LIB_QPSCCNWGOLMGKW__M_PUB_ALL__e8__s20260927
     RDKit          3D

 69 74  0  0  0  0  0  0  0  0999 V2000
    9.3330  -13.6510  -11.0200 C   0  0  0  0  0  0  0  0  0  0  0  0
    7.9410  -14.2050  -11.0430 N   0  0  0  0  0  0  0  0  0  0  0  0
    7.7330  -15.3750  -10.0870 C   0  0  0  0  0  0  0  0  0  0  0  0
    7.6700  -14.9170   -8.6170 C   0  0  0  0  0  0  0  0  0  0  0  0
    6.6930  -13.8310   -8.4400 N   0  0  0  0  0  0  0  0  0  0  0  0
    6.1920  -13.5710   -7.1630 C   0  0  0  0  0  0  0  0  0  0  0  0
    5.2130  -12.5990   -6.9180 C   0  0  0  0  0  0  0  0  0  0  0  0
    4.7170  -12.3620   -5.6280 C   0  0  0  0  0  0  0  0  0  0  0  0
    5.1900  -13.0880   -4.5330 C   0  0  0  0  0  0  0  0  0  0  0  0
    4.6910  -12.8500   -3.1870 C   0  0  0  0  0  0  0  0  0  0  0  0
    5.2240  -12.0430   -2.1600 C   0  0  0  0  0  0  0  0  0  0  0  0
    4.5130  -12.0770   -1.0360 N   0  0  0  0  0  0  0  0  0  0  0  0
    3.4810  -12.9290   -1.3160 N   0  0  0  0  0  0  0  0  0  0  0  0
    2.4390  -13.3170   -0.4290 C   0  0  0  0  0  0  0  0  0  0  0  0
    2.4810  -12.7820    0.8440 N   0  0  0  0  0  0  0  0  0  0  0  0
    1.5060  -14.1840   -0.8820 C   0  0  0  0  0  0  0  0  0  0  0  0
    0.3750  -14.6790   -0.0880 C   0  0  0  0  0  0  0  0  0  0  0  0
   -0.7900  -13.9150    0.0310 C   0  0  0  0  0  0  0  0  0  0  0  0
   -1.8690  -14.3730    0.7980 C   0  0  0  0  0  0  0  0  0  0  0  0
   -1.8000  -15.6020    1.4560 C   0  0  0  0  0  0  0  0  0  0  0  0
   -2.8390  -16.1290    2.2410 N   0  0  0  0  0  0  0  0  0  0  0  0
   -2.9700  -16.1080    3.6070 C   0  0  0  0  0  0  0  0  0  0  0  0
   -2.1910  -15.6250    4.4150 O   0  0  0  0  0  0  0  0  0  0  0  0
   -4.1620  -16.7490    3.9300 O   0  0  0  0  0  0  0  0  0  0  0  0
   -5.0060  -16.0370    4.7900 C   0  0  0  0  0  0  0  0  0  0  0  0
   -5.6350  -14.8710    4.3570 C   0  0  0  0  0  0  0  0  0  0  0  0
   -6.5140  -14.2140    5.2160 C   0  0  0  0  0  0  0  0  0  0  0  0
   -6.7670  -14.7330    6.4880 C   0  0  0  0  0  0  0  0  0  0  0  0
   -6.1450  -15.9130    6.9030 C   0  0  0  0  0  0  0  0  0  0  0  0
   -5.2640  -16.5750    6.0480 C   0  0  0  0  0  0  0  0  0  0  0  0
   -0.6340  -16.3680    1.3360 C   0  0  0  0  0  0  0  0  0  0  0  0
    0.4450  -15.9110    0.5720 C   0  0  0  0  0  0  0  0  0  0  0  0
    1.6900  -14.6480   -2.2940 C   0  0  0  0  0  0  0  0  0  0  0  0
    2.6340  -14.3030   -3.1170 N   0  0  0  0  0  0  0  0  0  0  0  0
    3.5600  -13.4200   -2.6260 C   0  0  0  0  0  0  0  0  0  0  0  0
    6.1810  -14.0460   -4.7570 C   0  0  0  0  0  0  0  0  0  0  0  0
    6.6700  -14.2810   -6.0510 C   0  0  0  0  0  0  0  0  0  0  0  0
    6.7860  -12.6840   -9.3610 C   0  0  0  0  0  0  0  0  0  0  0  0
    6.8610  -13.1490  -10.8290 C   0  0  0  0  0  0  0  0  0  0  0  0
    9.6588  -13.5213   -9.9774 H   0  0  0  0  0  0  0  0  0  0  0  0
   10.0131  -14.3470  -11.5329 H   0  0  0  0  0  0  0  0  0  0  0  0
    9.3489  -12.6780  -11.5329 H   0  0  0  0  0  0  0  0  0  0  0  0
    7.7920  -14.5790  -11.9880 H   0  0  0  0  0  0  0  0  0  0  0  0
    6.7890  -15.8786  -10.3426 H   0  0  0  0  0  0  0  0  0  0  0  0
    8.5899  -16.0565  -10.1935 H   0  0  0  0  0  0  0  0  0  0  0  0
    7.3764  -15.7700   -7.9876 H   0  0  0  0  0  0  0  0  0  0  0  0
    8.6628  -14.5437   -8.3254 H   0  0  0  0  0  0  0  0  0  0  0  0
    4.8236  -12.0067   -7.7591 H   0  0  0  0  0  0  0  0  0  0  0  0
    3.9446  -11.5936   -5.4766 H   0  0  0  0  0  0  0  0  0  0  0  0
    6.1389  -11.4436   -2.2772 H   0  0  0  0  0  0  0  0  0  0  0  0
    1.8120  -12.0450    1.0620 H   0  0  0  0  0  0  0  0  0  0  0  0
    3.2220  -13.0160    1.4910 H   0  0  0  0  0  0  0  0  0  0  0  0
   -0.8599  -12.9448   -0.4827 H   0  0  0  0  0  0  0  0  0  0  0  0
   -2.7779  -13.7592    0.8824 H   0  0  0  0  0  0  0  0  0  0  0  0
   -3.6040  -16.5900    1.7670 H   0  0  0  0  0  0  0  0  0  0  0  0
   -5.4400  -14.4743    3.3497 H   0  0  0  0  0  0  0  0  0  0  0  0
   -7.0088  -13.2864    4.8923 H   0  0  0  0  0  0  0  0  0  0  0  0
   -7.4586  -14.2106    7.1654 H   0  0  0  0  0  0  0  0  0  0  0  0
   -6.3500  -16.3201    7.9041 H   0  0  0  0  0  0  0  0  0  0  0  0
   -4.7791  -17.5105    6.3637 H   0  0  0  0  0  0  0  0  0  0  0  0
   -0.5658  -17.3393    1.8479 H   0  0  0  0  0  0  0  0  0  0  0  0
    1.3545  -16.5241    0.4895 H   0  0  0  0  0  0  0  0  0  0  0  0
    0.9433  -15.3595   -2.6764 H   0  0  0  0  0  0  0  0  0  0  0  0
    6.5824  -14.6223   -3.9104 H   0  0  0  0  0  0  0  0  0  0  0  0
    7.4497  -15.0429   -6.1978 H   0  0  0  0  0  0  0  0  0  0  0  0
    5.8981  -12.0477   -9.2316 H   0  0  0  0  0  0  0  0  0  0  0  0
    7.7035  -12.1242   -9.1268 H   0  0  0  0  0  0  0  0  0  0  0  0
    5.8879  -13.5738  -11.1165 H   0  0  0  0  0  0  0  0  0  0  0  0
    7.1143  -12.2757  -11.4480 H   0  0  0  0  0  0  0  0  0  0  0  0
  1  2  1  0
  2  3  1  0
  3  4  1  0
  4  5  1  0
  5  6  1  0
  6  7  2  0
  7  8  1  0
  8  9  2  0
  9 10  1  0
 10 11  1  0
 11 12  2  0
 12 13  1  0
 13 14  1  0
 14 15  1  0
 14 16  2  0
 16 17  1  0
 17 18  2  0
 18 19  1  0
 19 20  2  0
 20 21  1  0
 21 22  1  0
 22 23  2  0
 22 24  1  0
 24 25  1  0
 25 26  2  0
 26 27  1  0
 27 28  2  0
 28 29  1  0
 29 30  2  0
 20 31  1  0
 31 32  2  0
 16 33  1  0
 33 34  2  0
 34 35  1  0
  9 36  1  0
 36 37  2  0
  5 38  1  0
 38 39  1  0
 39  2  1  0
 37  6  1  0
 35 10  2  0
 35 13  1  0
 32 17  1  0
 30 25  1  0
  1 40  1  0
  1 41  1  0
  1 42  1  0
  2 43  1  0
  3 44  1  0
  3 45  1  0
  4 46  1  0
  4 47  1  0
  7 48  1  0
  8 49  1  0
 11 50  1  0
 15 51  1  0
 15 52  1  0
 18 53  1  0
 19 54  1  0
 21 55  1  0
 26 56  1  0
 27 57  1  0
 28 58  1  0
 29 59  1  0
 30 60  1  0
 31 61  1  0
 32 62  1  0
 33 63  1  0
 36 64  1  0
 37 65  1  0
 38 66  1  0
 38 67  1  0
 39 68  1  0
 39 69  1  0
M  CHG  1   2   1
M  END
>  <meeko>  (2) 
{"is_sidechain": [false], "free_energy": -8.558, "intermolecular_energy": -11.657, "internal_energy": -1.059}

$$$$
LIB_QPSCCNWGOLMGKW__M_PUB_ALL__e8__s20260927
     RDKit          3D

 69 74  0  0  0  0  0  0  0  0999 V2000
   -1.5490  -16.4500    2.4640 C   0  0  0  0  0  0  0  0  0  0  0  0
   -0.5600  -17.5510    2.2270 N   0  0  0  0  0  0  0  0  0  0  0  0
    0.0110  -17.5660    0.8130 C   0  0  0  0  0  0  0  0  0  0  0  0
    1.0220  -16.4260    0.5850 C   0  0  0  0  0  0  0  0  0  0  0  0
    2.0530  -16.4120    1.6350 N   0  0  0  0  0  0  0  0  0  0  0  0
    3.2590  -15.7510    1.3930 C   0  0  0  0  0  0  0  0  0  0  0  0
    4.4490  -16.4330    1.1050 C   0  0  0  0  0  0  0  0  0  0  0  0
    5.6470  -15.7490    0.8550 C   0  0  0  0  0  0  0  0  0  0  0  0
    5.6980  -14.3540    0.8910 C   0  0  0  0  0  0  0  0  0  0  0  0
    6.9340  -13.6280    0.6400 C   0  0  0  0  0  0  0  0  0  0  0  0
    7.4510  -12.4840    1.2830 C   0  0  0  0  0  0  0  0  0  0  0  0
    8.6090  -12.0690    0.7760 N   0  0  0  0  0  0  0  0  0  0  0  0
    8.8710  -12.9540   -0.2330 N   0  0  0  0  0  0  0  0  0  0  0  0
    9.9970  -12.9380   -1.1020 C   0  0  0  0  0  0  0  0  0  0  0  0
   10.9110  -11.9200   -0.9090 N   0  0  0  0  0  0  0  0  0  0  0  0
   10.0820  -13.8940   -2.0550 C   0  0  0  0  0  0  0  0  0  0  0  0
   11.1780  -14.0070   -3.0250 C   0  0  0  0  0  0  0  0  0  0  0  0
   10.9940  -13.5870   -4.3460 C   0  0  0  0  0  0  0  0  0  0  0  0
   12.0300  -13.7030   -5.2810 C   0  0  0  0  0  0  0  0  0  0  0  0
   13.2640  -14.2390   -4.9100 C   0  0  0  0  0  0  0  0  0  0  0  0
   14.3490  -14.3860   -5.7900 N   0  0  0  0  0  0  0  0  0  0  0  0
   14.5810  -15.3890   -6.6980 C   0  0  0  0  0  0  0  0  0  0  0  0
   13.8790  -16.3660   -6.9130 O   0  0  0  0  0  0  0  0  0  0  0  0
   15.7800  -15.1090   -7.3440 O   0  0  0  0  0  0  0  0  0  0  0  0
   15.7240  -15.1420   -8.7420 C   0  0  0  0  0  0  0  0  0  0  0  0
   14.8120  -14.3420   -9.4310 C   0  0  0  0  0  0  0  0  0  0  0  0
   14.8170  -14.3530  -10.8250 C   0  0  0  0  0  0  0  0  0  0  0  0
   15.7360  -15.1470  -11.5150 C   0  0  0  0  0  0  0  0  0  0  0  0
   16.6570  -15.9290  -10.8130 C   0  0  0  0  0  0  0  0  0  0  0  0
   16.6570  -15.9230   -9.4190 C   0  0  0  0  0  0  0  0  0  0  0  0
   13.4480  -14.6580   -3.5880 C   0  0  0  0  0  0  0  0  0  0  0  0
   12.4140  -14.5450   -2.6520 C   0  0  0  0  0  0  0  0  0  0  0  0
    8.9500  -14.8740   -2.0840 C   0  0  0  0  0  0  0  0  0  0  0  0
    7.9160  -14.9040   -1.2980 N   0  0  0  0  0  0  0  0  0  0  0  0
    7.8650  -13.9230   -0.3430 C   0  0  0  0  0  0  0  0  0  0  0  0
    4.5240  -13.6600    1.1960 C   0  0  0  0  0  0  0  0  0  0  0  0
    3.3280  -14.3510    1.4420 C   0  0  0  0  0  0  0  0  0  0  0  0
    1.5900  -16.4530    3.0340 C   0  0  0  0  0  0  0  0  0  0  0  0
    0.5680  -17.5870    3.2530 C   0  0  0  0  0  0  0  0  0  0  0  0
   -1.6814  -16.3027    3.5460 H   0  0  0  0  0  0  0  0  0  0  0  0
   -1.1776  -15.5195    2.0100 H   0  0  0  0  0  0  0  0  0  0  0  0
   -2.5139  -16.7198    2.0100 H   0  0  0  0  0  0  0  0  0  0  0  0
   -1.0750  -18.4330    2.3370 H   0  0  0  0  0  0  0  0  0  0  0  0
    0.5171  -18.5281    0.6449 H   0  0  0  0  0  0  0  0  0  0  0  0
   -0.8226  -17.4257    0.1092 H   0  0  0  0  0  0  0  0  0  0  0  0
    1.5069  -16.5664   -0.3923 H   0  0  0  0  0  0  0  0  0  0  0  0
    0.4808  -15.4688    0.6151 H   0  0  0  0  0  0  0  0  0  0  0  0
    4.4429  -17.5326    1.0743 H   0  0  0  0  0  0  0  0  0  0  0  0
    6.5596  -16.3193    0.6273 H   0  0  0  0  0  0  0  0  0  0  0  0
    6.9458  -11.9835    2.1222 H   0  0  0  0  0  0  0  0  0  0  0  0
   11.2250  -11.4120   -1.7340 H   0  0  0  0  0  0  0  0  0  0  0  0
   11.3500  -11.7670   -0.0110 H   0  0  0  0  0  0  0  0  0  0  0  0
   10.0272  -13.1618   -4.6534 H   0  0  0  0  0  0  0  0  0  0  0  0
   11.8698  -13.3688   -6.3167 H   0  0  0  0  0  0  0  0  0  0  0  0
   15.0710  -13.6780   -5.7750 H   0  0  0  0  0  0  0  0  0  0  0  0
   14.0982  -13.7107   -8.8814 H   0  0  0  0  0  0  0  0  0  0  0  0
   14.0966  -13.7359  -11.3820 H   0  0  0  0  0  0  0  0  0  0  0  0
   15.7347  -15.1567  -12.6150 H   0  0  0  0  0  0  0  0  0  0  0  0
   17.3820  -16.5493  -11.3604 H   0  0  0  0  0  0  0  0  0  0  0  0
   17.3858  -16.5284   -8.8602 H   0  0  0  0  0  0  0  0  0  0  0  0
   14.4160  -15.0809   -3.2810 H   0  0  0  0  0  0  0  0  0  0  0  0
   12.5741  -14.8812   -1.6170 H   0  0  0  0  0  0  0  0  0  0  0  0
    8.9995  -15.6553   -2.8567 H   0  0  0  0  0  0  0  0  0  0  0  0
    4.5377  -12.5611    1.2437 H   0  0  0  0  0  0  0  0  0  0  0  0
    2.4191  -13.7789    1.6799 H   0  0  0  0  0  0  0  0  0  0  0  0
    2.4551  -16.6181    3.6930 H   0  0  0  0  0  0  0  0  0  0  0  0
    1.1011  -15.4954    3.2661 H   0  0  0  0  0  0  0  0  0  0  0  0
    1.0882  -18.5530    3.1741 H   0  0  0  0  0  0  0  0  0  0  0  0
    0.1227  -17.4529    4.2498 H   0  0  0  0  0  0  0  0  0  0  0  0
  1  2  1  0
  2  3  1  0
  3  4  1  0
  4  5  1  0
  5  6  1  0
  6  7  2  0
  7  8  1  0
  8  9  2  0
  9 10  1  0
 10 11  1  0
 11 12  2  0
 12 13  1  0
 13 14  1  0
 14 15  1  0
 14 16  2  0
 16 17  1  0
 17 18  2  0
 18 19  1  0
 19 20  2  0
 20 21  1  0
 21 22  1  0
 22 23  2  0
 22 24  1  0
 24 25  1  0
 25 26  2  0
 26 27  1  0
 27 28  2  0
 28 29  1  0
 29 30  2  0
 20 31  1  0
 31 32  2  0
 16 33  1  0
 33 34  2  0
 34 35  1  0
  9 36  1  0
 36 37  2  0
  5 38  1  0
 38 39  1  0
 39  2  1  0
 37  6  1  0
 35 10  2  0
 35 13  1  0
 32 17  1  0
 30 25  1  0
  1 40  1  0
  1 41  1  0
  1 42  1  0
  2 43  1  0
  3 44  1  0
  3 45  1  0
  4 46  1  0
  4 47  1  0
  7 48  1  0
  8 49  1  0
 11 50  1  0
 15 51  1  0
 15 52  1  0
 18 53  1  0
 19 54  1  0
 21 55  1  0
 26 56  1  0
 27 57  1  0
 28 58  1  0
 29 59  1  0
 30 60  1  0
 31 61  1  0
 32 62  1  0
 33 63  1  0
 36 64  1  0
 37 65  1  0
 38 66  1  0
 38 67  1  0
 39 68  1  0
 39 69  1  0
M  CHG  1   2   1
M  END
>  <meeko>  (3) 
{"is_sidechain": [false], "free_energy": -8.503, "intermolecular_energy": -11.889, "internal_energy": -0.75}

$$$$
LIB_QPSCCNWGOLMGKW__M_PUB_ALL__e8__s20260927
     RDKit          3D

 69 74  0  0  0  0  0  0  0  0999 V2000
   14.3770  -17.0930   -8.9590 C   0  0  0  0  0  0  0  0  0  0  0  0
   14.6330  -15.6250   -8.7910 N   0  0  0  0  0  0  0  0  0  0  0  0
   13.3810  -14.7660   -8.9370 C   0  0  0  0  0  0  0  0  0  0  0  0
   12.4530  -14.8820   -7.7120 C   0  0  0  0  0  0  0  0  0  0  0  0
   13.1900  -14.6390   -6.4630 N   0  0  0  0  0  0  0  0  0  0  0  0
   12.4790  -14.2910   -5.3130 C   0  0  0  0  0  0  0  0  0  0  0  0
   11.1220  -13.9420   -5.3390 C   0  0  0  0  0  0  0  0  0  0  0  0
   10.4250  -13.6050   -4.1700 C   0  0  0  0  0  0  0  0  0  0  0  0
   11.0660  -13.5990   -2.9300 C   0  0  0  0  0  0  0  0  0  0  0  0
   10.3590  -13.2450   -1.7080 C   0  0  0  0  0  0  0  0  0  0  0  0
   10.8710  -12.8090   -0.4680 C   0  0  0  0  0  0  0  0  0  0  0  0
    9.9300  -12.5960    0.4480 N   0  0  0  0  0  0  0  0  0  0  0  0
    8.7610  -12.9000   -0.1930 N   0  0  0  0  0  0  0  0  0  0  0  0
    7.4520  -12.8480    0.3620 C   0  0  0  0  0  0  0  0  0  0  0  0
    7.3580  -12.4580    1.6840 N   0  0  0  0  0  0  0  0  0  0  0  0
    6.4100  -13.1980   -0.4250 C   0  0  0  0  0  0  0  0  0  0  0  0
    5.0070  -13.1990    0.0040 C   0  0  0  0  0  0  0  0  0  0  0  0
    4.4970  -14.2710    0.7420 C   0  0  0  0  0  0  0  0  0  0  0  0
    3.1550  -14.2860    1.1440 C   0  0  0  0  0  0  0  0  0  0  0  0
    2.3050  -13.2300    0.8160 C   0  0  0  0  0  0  0  0  0  0  0  0
    0.9500  -13.1730    1.1840 N   0  0  0  0  0  0  0  0  0  0  0  0
   -0.1440  -13.6070    0.4790 C   0  0  0  0  0  0  0  0  0  0  0  0
   -0.1500  -14.1300   -0.6260 O   0  0  0  0  0  0  0  0  0  0  0  0
   -1.2760  -13.3430    1.2440 O   0  0  0  0  0  0  0  0  0  0  0  0
   -2.1700  -12.4230    0.6840 C   0  0  0  0  0  0  0  0  0  0  0  0
   -1.8290  -11.0740    0.5920 C   0  0  0  0  0  0  0  0  0  0  0  0
   -2.7160  -10.1900   -0.0210 C   0  0  0  0  0  0  0  0  0  0  0  0
   -3.9210  -10.6610   -0.5460 C   0  0  0  0  0  0  0  0  0  0  0  0
   -4.2420  -12.0180   -0.4640 C   0  0  0  0  0  0  0  0  0  0  0  0
   -3.3600  -12.9070    0.1480 C   0  0  0  0  0  0  0  0  0  0  0  0
    2.8150  -12.1550    0.0790 C   0  0  0  0  0  0  0  0  0  0  0  0
    4.1540  -12.1400   -0.3260 C   0  0  0  0  0  0  0  0  0  0  0  0
    6.7690  -13.6140   -1.8180 C   0  0  0  0  0  0  0  0  0  0  0  0
    7.9570  -13.6660   -2.3410 N   0  0  0  0  0  0  0  0  0  0  0  0
    8.9880  -13.3010   -1.5160 C   0  0  0  0  0  0  0  0  0  0  0  0
   12.4230  -13.9240   -2.8890 C   0  0  0  0  0  0  0  0  0  0  0  0
   13.1140  -14.2630   -4.0620 C   0  0  0  0  0  0  0  0  0  0  0  0
   14.4450  -15.3880   -6.2630 C   0  0  0  0  0  0  0  0  0  0  0  0
   15.3630  -15.2790   -7.4970 C   0  0  0  0  0  0  0  0  0  0  0  0
   14.2944  -17.5664   -7.9695 H   0  0  0  0  0  0  0  0  0  0  0  0
   13.4396  -17.2404   -9.5154 H   0  0  0  0  0  0  0  0  0  0  0  0
   15.2092  -17.5490   -9.5154 H   0  0  0  0  0  0  0  0  0  0  0  0
   15.2600  -15.3490   -9.5560 H   0  0  0  0  0  0  0  0  0  0  0  0
   13.6835  -13.7150   -9.0547 H   0  0  0  0  0  0  0  0  0  0  0  0
   12.8262  -15.1223   -9.8175 H   0  0  0  0  0  0  0  0  0  0  0  0
   11.6451  -14.1409   -7.8021 H   0  0  0  0  0  0  0  0  0  0  0  0
   12.0415  -15.9017   -7.6814 H   0  0  0  0  0  0  0  0  0  0  0  0
   10.5898  -13.9322   -6.3016 H   0  0  0  0  0  0  0  0  0  0  0  0
    9.3587  -13.3418   -4.2309 H   0  0  0  0  0  0  0  0  0  0  0  0
   11.9439  -12.6596   -0.2770 H   0  0  0  0  0  0  0  0  0  0  0  0
    6.8170  -11.6180    1.8850 H   0  0  0  0  0  0  0  0  0  0  0  0
    7.9040  -12.9060    2.4080 H   0  0  0  0  0  0  0  0  0  0  0  0
    5.1554  -15.1106    1.0096 H   0  0  0  0  0  0  0  0  0  0  0  0
    2.7685  -15.1376    1.7231 H   0  0  0  0  0  0  0  0  0  0  0  0
    0.7180  -12.7620    2.0790 H   0  0  0  0  0  0  0  0  0  0  0  0
   -0.8728  -10.7120    0.9977 H   0  0  0  0  0  0  0  0  0  0  0  0
   -2.4663   -9.1210   -0.0910 H   0  0  0  0  0  0  0  0  0  0  0  0
   -4.6203   -9.9607   -1.0261 H   0  0  0  0  0  0  0  0  0  0  0  0
   -5.1908  -12.3850   -0.8824 H   0  0  0  0  0  0  0  0  0  0  0  0
   -3.6015  -13.9786    0.2067 H   0  0  0  0  0  0  0  0  0  0  0  0
    2.1568  -11.3139   -0.1843 H   0  0  0  0  0  0  0  0  0  0  0  0
    4.5390  -11.2897   -0.9080 H   0  0  0  0  0  0  0  0  0  0  0  0
    5.9340  -13.9082   -2.4709 H   0  0  0  0  0  0  0  0  0  0  0  0
   12.9561  -13.9142   -1.9269 H   0  0  0  0  0  0  0  0  0  0  0  0
   14.1832  -14.5138   -3.9993 H   0  0  0  0  0  0  0  0  0  0  0  0
   14.9709  -14.9794   -5.3875 H   0  0  0  0  0  0  0  0  0  0  0  0
   14.1964  -16.4481   -6.1067 H   0  0  0  0  0  0  0  0  0  0  0  0
   15.7402  -14.2481   -7.5679 H   0  0  0  0  0  0  0  0  0  0  0  0
   16.1853  -15.9986   -7.3706 H   0  0  0  0  0  0  0  0  0  0  0  0
  1  2  1  0
  2  3  1  0
  3  4  1  0
  4  5  1  0
  5  6  1  0
  6  7  2  0
  7  8  1  0
  8  9  2  0
  9 10  1  0
 10 11  1  0
 11 12  2  0
 12 13  1  0
 13 14  1  0
 14 15  1  0
 14 16  2  0
 16 17  1  0
 17 18  2  0
 18 19  1  0
 19 20  2  0
 20 21  1  0
 21 22  1  0
 22 23  2  0
 22 24  1  0
 24 25  1  0
 25 26  2  0
 26 27  1  0
 27 28  2  0
 28 29  1  0
 29 30  2  0
 20 31  1  0
 31 32  2  0
 16 33  1  0
 33 34  2  0
 34 35  1  0
  9 36  1  0
 36 37  2  0
  5 38  1  0
 38 39  1  0
 39  2  1  0
 37  6  1  0
 35 10  2  0
 35 13  1  0
 32 17  1  0
 30 25  1  0
  1 40  1  0
  1 41  1  0
  1 42  1  0
  2 43  1  0
  3 44  1  0
  3 45  1  0
  4 46  1  0
  4 47  1  0
  7 48  1  0
  8 49  1  0
 11 50  1  0
 15 51  1  0
 15 52  1  0
 18 53  1  0
 19 54  1  0
 21 55  1  0
 26 56  1  0
 27 57  1  0
 28 58  1  0
 29 59  1  0
 30 60  1  0
 31 61  1  0
 32 62  1  0
 33 63  1  0
 36 64  1  0
 37 65  1  0
 38 66  1  0
 38 67  1  0
 39 68  1  0
 39 69  1  0
M  CHG  1   2   1
M  END
>  <meeko>  (4) 
{"is_sidechain": [false], "free_energy": -8.229, "intermolecular_energy": -11.563, "internal_energy": -0.698}

$$$$
LIB_QPSCCNWGOLMGKW__M_PUB_ALL__e8__s20260927
     RDKit          3D

 69 74  0  0  0  0  0  0  0  0999 V2000
   -8.0400  -16.5380    5.8650 C   0  0  0  0  0  0  0  0  0  0  0  0
   -6.8700  -15.8080    6.4520 N   0  0  0  0  0  0  0  0  0  0  0  0
   -5.5940  -16.6420    6.5070 C   0  0  0  0  0  0  0  0  0  0  0  0
   -4.9580  -16.8190    5.1150 C   0  0  0  0  0  0  0  0  0  0  0  0
   -4.7840  -15.5230    4.4410 N   0  0  0  0  0  0  0  0  0  0  0  0
   -3.8720  -15.4230    3.3890 C   0  0  0  0  0  0  0  0  0  0  0  0
   -3.6540  -14.2280    2.6890 C   0  0  0  0  0  0  0  0  0  0  0  0
   -2.7250  -14.1470    1.6410 C   0  0  0  0  0  0  0  0  0  0  0  0
   -1.9840  -15.2650    1.2520 C   0  0  0  0  0  0  0  0  0  0  0  0
   -1.0220  -15.2010    0.1630 C   0  0  0  0  0  0  0  0  0  0  0  0
   -1.2370  -15.2310   -1.2310 C   0  0  0  0  0  0  0  0  0  0  0  0
   -0.1150  -15.1750   -1.9420 N   0  0  0  0  0  0  0  0  0  0  0  0
    0.8770  -15.1080   -1.0030 N   0  0  0  0  0  0  0  0  0  0  0  0
    2.2760  -15.0450   -1.2510 C   0  0  0  0  0  0  0  0  0  0  0  0
    2.6690  -15.0600   -2.5750 N   0  0  0  0  0  0  0  0  0  0  0  0
    3.1110  -14.9960   -0.1880 C   0  0  0  0  0  0  0  0  0  0  0  0
    4.5740  -14.9310   -0.2830 C   0  0  0  0  0  0  0  0  0  0  0  0
    5.3080  -16.0710   -0.6270 C   0  0  0  0  0  0  0  0  0  0  0  0
    6.7050  -16.0220   -0.7070 C   0  0  0  0  0  0  0  0  0  0  0  0
    7.3890  -14.8340   -0.4450 C   0  0  0  0  0  0  0  0  0  0  0  0
    8.7870  -14.7060   -0.5050 N   0  0  0  0  0  0  0  0  0  0  0  0
    9.5340  -13.8840   -1.3110 C   0  0  0  0  0  0  0  0  0  0  0  0
    9.1190  -13.0970   -2.1490 O   0  0  0  0  0  0  0  0  0  0  0  0
   10.8760  -14.1030   -1.0160 O   0  0  0  0  0  0  0  0  0  0  0  0
   11.6270  -12.9470   -0.7740 C   0  0  0  0  0  0  0  0  0  0  0  0
   12.6010  -12.5350   -1.6830 C   0  0  0  0  0  0  0  0  0  0  0  0
   13.2950  -11.3500   -1.4440 C   0  0  0  0  0  0  0  0  0  0  0  0
   13.0010  -10.5830   -0.3140 C   0  0  0  0  0  0  0  0  0  0  0  0
   12.0100  -10.9970    0.5780 C   0  0  0  0  0  0  0  0  0  0  0  0
   11.3130  -12.1820    0.3460 C   0  0  0  0  0  0  0  0  0  0  0  0
    6.6550  -13.6930   -0.1010 C   0  0  0  0  0  0  0  0  0  0  0  0
    5.2590  -13.7410   -0.0190 C   0  0  0  0  0  0  0  0  0  0  0  0
    2.4460  -15.0200    1.1530 C   0  0  0  0  0  0  0  0  0  0  0  0
    1.1710  -15.0770    1.3970 N   0  0  0  0  0  0  0  0  0  0  0  0
    0.3550  -15.1210    0.2980 C   0  0  0  0  0  0  0  0  0  0  0  0
   -2.2050  -16.4680    1.9260 C   0  0  0  0  0  0  0  0  0  0  0  0
   -3.1330  -16.5410    2.9750 C   0  0  0  0  0  0  0  0  0  0  0  0
   -5.9530  -14.6270    4.3920 C   0  0  0  0  0  0  0  0  0  0  0  0
   -6.5930  -14.4640    5.7850 C   0  0  0  0  0  0  0  0  0  0  0  0
   -8.6708  -16.9316    6.6756 H   0  0  0  0  0  0  0  0  0  0  0  0
   -8.6294  -15.8471    5.2443 H   0  0  0  0  0  0  0  0  0  0  0  0
   -7.6785  -17.3711    5.2443 H   0  0  0  0  0  0  0  0  0  0  0  0
   -7.1160  -15.5980    7.4270 H   0  0  0  0  0  0  0  0  0  0  0  0
   -4.8705  -16.1405    7.1666 H   0  0  0  0  0  0  0  0  0  0  0  0
   -5.8570  -17.6394    6.8890 H   0  0  0  0  0  0  0  0  0  0  0  0
   -3.9750  -17.2995    5.2281 H   0  0  0  0  0  0  0  0  0  0  0  0
   -5.6264  -17.4428    4.5034 H   0  0  0  0  0  0  0  0  0  0  0  0
   -4.2260  -13.3310    2.9687 H   0  0  0  0  0  0  0  0  0  0  0  0
   -2.5782  -13.1901    1.1187 H   0  0  0  0  0  0  0  0  0  0  0  0
   -2.2366  -15.2946   -1.6858 H   0  0  0  0  0  0  0  0  0  0  0  0
    3.5800  -14.6600   -2.7960 H   0  0  0  0  0  0  0  0  0  0  0  0
    2.0330  -15.3350   -3.3120 H   0  0  0  0  0  0  0  0  0  0  0  0
    4.7829  -17.0146   -0.8366 H   0  0  0  0  0  0  0  0  0  0  0  0
    7.2680  -16.9272   -0.9785 H   0  0  0  0  0  0  0  0  0  0  0  0
    9.3430  -15.2830    0.1120 H   0  0  0  0  0  0  0  0  0  0  0  0
   12.8188  -13.1375   -2.5772 H   0  0  0  0  0  0  0  0  0  0  0  0
   14.0747  -11.0186   -2.1456 H   0  0  0  0  0  0  0  0  0  0  0  0
   13.5522   -9.6497   -0.1264 H   0  0  0  0  0  0  0  0  0  0  0  0
   11.7790  -10.3879    1.4644 H   0  0  0  0  0  0  0  0  0  0  0  0
   10.5243  -12.5086    1.0397 H   0  0  0  0  0  0  0  0  0  0  0  0
    7.1807  -12.7494    0.1069 H   0  0  0  0  0  0  0  0  0  0  0  0
    4.6965  -12.8363    0.2551 H   0  0  0  0  0  0  0  0  0  0  0  0
    3.1104  -14.9856    2.0290 H   0  0  0  0  0  0  0  0  0  0  0  0
   -1.6453  -17.3678    1.6310 H   0  0  0  0  0  0  0  0  0  0  0  0
   -3.2856  -17.5022    3.4876 H   0  0  0  0  0  0  0  0  0  0  0  0
   -5.6328  -13.6399    4.0271 H   0  0  0  0  0  0  0  0  0  0  0  0
   -6.7004  -15.0682    3.7162 H   0  0  0  0  0  0  0  0  0  0  0  0
   -5.9092  -13.8856    6.4237 H   0  0  0  0  0  0  0  0  0  0  0  0
   -7.5547  -13.9458    5.6566 H   0  0  0  0  0  0  0  0  0  0  0  0
  1  2  1  0
  2  3  1  0
  3  4  1  0
  4  5  1  0
  5  6  1  0
  6  7  2  0
  7  8  1  0
  8  9  2  0
  9 10  1  0
 10 11  1  0
 11 12  2  0
 12 13  1  0
 13 14  1  0
 14 15  1  0
 14 16  2  0
 16 17  1  0
 17 18  2  0
 18 19  1  0
 19 20  2  0
 20 21  1  0
 21 22  1  0
 22 23  2  0
 22 24  1  0
 24 25  1  0
 25 26  2  0
 26 27  1  0
 27 28  2  0
 28 29  1  0
 29 30  2  0
 20 31  1  0
 31 32  2  0
 16 33  1  0
 33 34  2  0
 34 35  1  0
  9 36  1  0
 36 37  2  0
  5 38  1  0
 38 39  1  0
 39  2  1  0
 37  6  1  0
 35 10  2  0
 35 13  1  0
 32 17  1  0
 30 25  1  0
  1 40  1  0
  1 41  1  0
  1 42  1  0
  2 43  1  0
  3 44  1  0
  3 45  1  0
  4 46  1  0
  4 47  1  0
  7 48  1  0
  8 49  1  0
 11 50  1  0
 15 51  1  0
 15 52  1  0
 18 53  1  0
 19 54  1  0
 21 55  1  0
 26 56  1  0
 27 57  1  0
 28 58  1  0
 29 59  1  0
 30 60  1  0
 31 61  1  0
 32 62  1  0
 33 63  1  0
 36 64  1  0
 37 65  1  0
 38 66  1  0
 38 67  1  0
 39 68  1  0
 39 69  1  0
M  CHG  1   2   1
M  END
>  <meeko>  (5) 
{"is_sidechain": [false], "free_energy": -8.085, "intermolecular_energy": -11.179, "internal_energy": -0.884}

$$$$
LIB_QPSCCNWGOLMGKW__M_PUB_ALL__e8__s20260927
     RDKit          3D

 69 74  0  0  0  0  0  0  0  0999 V2000
   14.3040  -15.6890  -10.6090 C   0  0  0  0  0  0  0  0  0  0  0  0
   14.7430  -16.6350   -9.5330 N   0  0  0  0  0  0  0  0  0  0  0  0
   15.6650  -15.9990   -8.4980 C   0  0  0  0  0  0  0  0  0  0  0  0
   14.9040  -15.0560   -7.5460 C   0  0  0  0  0  0  0  0  0  0  0  0
   13.7340  -15.7250   -6.9580 N   0  0  0  0  0  0  0  0  0  0  0  0
   13.1730  -15.2070   -5.7890 C   0  0  0  0  0  0  0  0  0  0  0  0
   13.6170  -15.5740   -4.5110 C   0  0  0  0  0  0  0  0  0  0  0  0
   13.0450  -15.0330   -3.3500 C   0  0  0  0  0  0  0  0  0  0  0  0
   12.0020  -14.1080   -3.4280 C   0  0  0  0  0  0  0  0  0  0  0  0
   11.3940  -13.5420   -2.2330 C   0  0  0  0  0  0  0  0  0  0  0  0
   11.9970  -12.8600   -1.1550 C   0  0  0  0  0  0  0  0  0  0  0  0
   11.1340  -12.4970   -0.2090 N   0  0  0  0  0  0  0  0  0  0  0  0
    9.9260  -12.9490   -0.6630 N   0  0  0  0  0  0  0  0  0  0  0  0
    8.6720  -12.8240   -0.0040 C   0  0  0  0  0  0  0  0  0  0  0  0
    8.6810  -12.1860    1.2220 N   0  0  0  0  0  0  0  0  0  0  0  0
    7.5800  -13.3460   -0.6050 C   0  0  0  0  0  0  0  0  0  0  0  0
    6.2220  -13.2990   -0.0490 C   0  0  0  0  0  0  0  0  0  0  0  0
    5.6930  -14.4130    0.6110 C   0  0  0  0  0  0  0  0  0  0  0  0
    4.3940  -14.3810    1.1330 C   0  0  0  0  0  0  0  0  0  0  0  0
    3.6050  -13.2370    1.0050 C   0  0  0  0  0  0  0  0  0  0  0  0
    2.2960  -13.1290    1.5020 N   0  0  0  0  0  0  0  0  0  0  0  0
    1.1140  -13.1430    0.8040 C   0  0  0  0  0  0  0  0  0  0  0  0
    0.9740  -13.2470   -0.4060 O   0  0  0  0  0  0  0  0  0  0  0  0
    0.0760  -13.0090    1.7200 O   0  0  0  0  0  0  0  0  0  0  0  0
   -0.3730  -11.6990    1.9220 C   0  0  0  0  0  0  0  0  0  0  0  0
    0.1760  -10.6430    1.1950 C   0  0  0  0  0  0  0  0  0  0  0  0
   -0.3300   -9.3580    1.3770 C   0  0  0  0  0  0  0  0  0  0  0  0
   -1.3850   -9.1410    2.2660 C   0  0  0  0  0  0  0  0  0  0  0  0
   -1.9400  -10.2100    2.9740 C   0  0  0  0  0  0  0  0  0  0  0  0
   -1.4380  -11.4980    2.7970 C   0  0  0  0  0  0  0  0  0  0  0  0
    4.1360  -12.1220    0.3460 C   0  0  0  0  0  0  0  0  0  0  0  0
    5.4320  -12.1520   -0.1780 C   0  0  0  0  0  0  0  0  0  0  0  0
    7.8290  -14.0160   -1.9210 C   0  0  0  0  0  0  0  0  0  0  0  0
    8.9660  -14.1390   -2.5370 N   0  0  0  0  0  0  0  0  0  0  0  0
   10.0500  -13.5940   -1.9020 C   0  0  0  0  0  0  0  0  0  0  0  0
   11.5350  -13.7470   -4.6940 C   0  0  0  0  0  0  0  0  0  0  0  0
   12.1140  -14.2900   -5.8510 C   0  0  0  0  0  0  0  0  0  0  0  0
   12.8170  -16.4160   -7.8820 C   0  0  0  0  0  0  0  0  0  0  0  0
   13.5850  -17.3480   -8.8410 C   0  0  0  0  0  0  0  0  0  0  0  0
   13.8831  -14.7820  -10.1505 H   0  0  0  0  0  0  0  0  0  0  0  0
   15.1680  -15.4172  -11.2332 H   0  0  0  0  0  0  0  0  0  0  0  0
   13.5386  -16.1733  -11.2332 H   0  0  0  0  0  0  0  0  0  0  0  0
   15.2940  -17.3680   -9.9950 H   0  0  0  0  0  0  0  0  0  0  0  0
   16.1366  -16.7966   -7.9052 H   0  0  0  0  0  0  0  0  0  0  0  0
   16.4176  -15.4032   -9.0352 H   0  0  0  0  0  0  0  0  0  0  0  0
   15.5801  -14.7397   -6.7381 H   0  0  0  0  0  0  0  0  0  0  0  0
   14.5550  -14.1865   -8.1224 H   0  0  0  0  0  0  0  0  0  0  0  0
   14.4341  -16.3043   -4.4162 H   0  0  0  0  0  0  0  0  0  0  0  0
   13.4234  -15.3418   -2.3644 H   0  0  0  0  0  0  0  0  0  0  0  0
   13.0752  -12.6489   -1.1016 H   0  0  0  0  0  0  0  0  0  0  0  0
    8.2740  -11.2530    1.2660 H   0  0  0  0  0  0  0  0  0  0  0  0
    9.1830  -12.5680    2.0130 H   0  0  0  0  0  0  0  0  0  0  0  0
    6.3026  -15.3220    0.7209 H   0  0  0  0  0  0  0  0  0  0  0  0
    3.9919  -15.2656    1.6486 H   0  0  0  0  0  0  0  0  0  0  0  0
    2.1750  -13.0240    2.5010 H   0  0  0  0  0  0  0  0  0  0  0  0
    0.9983  -10.8226    0.4868 H   0  0  0  0  0  0  0  0  0  0  0  0
    0.1018   -8.5134    0.8200 H   0  0  0  0  0  0  0  0  0  0  0  0
   -1.7805   -8.1246    2.4093 H   0  0  0  0  0  0  0  0  0  0  0  0
   -2.7729  -10.0351    3.6709 H   0  0  0  0  0  0  0  0  0  0  0  0
   -1.8778  -12.3462    3.3421 H   0  0  0  0  0  0  0  0  0  0  0  0
    3.5270  -11.2122    0.2392 H   0  0  0  0  0  0  0  0  0  0  0  0
    5.8329  -11.2677   -0.6951 H   0  0  0  0  0  0  0  0  0  0  0  0
    6.9519  -14.4523   -2.4214 H   0  0  0  0  0  0  0  0  0  0  0  0
   10.7055  -13.0303   -4.7848 H   0  0  0  0  0  0  0  0  0  0  0  0
   11.7260  -13.9877   -6.8349 H   0  0  0  0  0  0  0  0  0  0  0  0
   12.1023  -17.0137   -7.2972 H   0  0  0  0  0  0  0  0  0  0  0  0
   12.2916  -15.6579   -8.4813 H   0  0  0  0  0  0  0  0  0  0  0  0
   13.9842  -18.1967   -8.2662 H   0  0  0  0  0  0  0  0  0  0  0  0
   12.8834  -17.6855   -9.6180 H   0  0  0  0  0  0  0  0  0  0  0  0
  1  2  1  0
  2  3  1  0
  3  4  1  0
  4  5  1  0
  5  6  1  0
  6  7  2  0
  7  8  1  0
  8  9  2  0
  9 10  1  0
 10 11  1  0
 11 12  2  0
 12 13  1  0
 13 14  1  0
 14 15  1  0
 14 16  2  0
 16 17  1  0
 17 18  2  0
 18 19  1  0
 19 20  2  0
 20 21  1  0
 21 22  1  0
 22 23  2  0
 22 24  1  0
 24 25  1  0
 25 26  2  0
 26 27  1  0
 27 28  2  0
 28 29  1  0
 29 30  2  0
 20 31  1  0
 31 32  2  0
 16 33  1  0
 33 34  2  0
 34 35  1  0
  9 36  1  0
 36 37  2  0
  5 38  1  0
 38 39  1  0
 39  2  1  0
 37  6  1  0
 35 10  2  0
 35 13  1  0
 32 17  1  0
 30 25  1  0
  1 40  1  0
  1 41  1  0
  1 42  1  0
  2 43  1  0
  3 44  1  0
  3 45  1  0
  4 46  1  0
  4 47  1  0
  7 48  1  0
  8 49  1  0
 11 50  1  0
 15 51  1  0
 15 52  1  0
 18 53  1  0
 19 54  1  0
 21 55  1  0
 26 56  1  0
 27 57  1  0
 28 58  1  0
 29 59  1  0
 30 60  1  0
 31 61  1  0
 32 62  1  0
 33 63  1  0
 36 64  1  0
 37 65  1  0
 38 66  1  0
 38 67  1  0
 39 68  1  0
 39 69  1  0
M  CHG  1   2   1
M  END
>  <meeko>  (6) 
{"is_sidechain": [false], "free_energy": -8.06, "intermolecular_energy": -11.413, "internal_energy": -0.613}

$$$$
LIB_QPSCCNWGOLMGKW__M_PUB_ALL__e8__s20260927
     RDKit          3D

 69 74  0  0  0  0  0  0  0  0999 V2000
  -11.2860  -17.4180    9.6750 C   0  0  0  0  0  0  0  0  0  0  0  0
  -11.3650  -16.9230    8.2630 N   0  0  0  0  0  0  0  0  0  0  0  0
  -10.6760  -15.5790    8.0470 C   0  0  0  0  0  0  0  0  0  0  0  0
   -9.1400  -15.7080    8.0580 C   0  0  0  0  0  0  0  0  0  0  0  0
   -8.6880  -16.7570    7.1310 N   0  0  0  0  0  0  0  0  0  0  0  0
   -7.3630  -16.7470    6.6900 C   0  0  0  0  0  0  0  0  0  0  0  0
   -6.9960  -17.1260    5.3920 C   0  0  0  0  0  0  0  0  0  0  0  0
   -5.6590  -17.0990    4.9670 C   0  0  0  0  0  0  0  0  0  0  0  0
   -4.6400  -16.6960    5.8320 C   0  0  0  0  0  0  0  0  0  0  0  0
   -3.2480  -16.6680    5.4100 C   0  0  0  0  0  0  0  0  0  0  0  0
   -2.1220  -17.2950    5.9830 C   0  0  0  0  0  0  0  0  0  0  0  0
   -0.9850  -17.0320    5.3430 N   0  0  0  0  0  0  0  0  0  0  0  0
   -1.3590  -16.2070    4.3190 N   0  0  0  0  0  0  0  0  0  0  0  0
   -0.5030  -15.6260    3.3430 C   0  0  0  0  0  0  0  0  0  0  0  0
    0.8430  -15.9230    3.4480 N   0  0  0  0  0  0  0  0  0  0  0  0
   -1.0540  -14.8210    2.4070 C   0  0  0  0  0  0  0  0  0  0  0  0
   -0.3020  -14.1490    1.3400 C   0  0  0  0  0  0  0  0  0  0  0  0
   -0.0140  -14.8240    0.1500 C   0  0  0  0  0  0  0  0  0  0  0  0
    0.7140  -14.1950   -0.8680 C   0  0  0  0  0  0  0  0  0  0  0  0
    1.1630  -12.8830   -0.7120 C   0  0  0  0  0  0  0  0  0  0  0  0
    1.8970  -12.1860   -1.6860 N   0  0  0  0  0  0  0  0  0  0  0  0
    3.2450  -11.9300   -1.7180 C   0  0  0  0  0  0  0  0  0  0  0  0
    4.0780  -12.2600   -0.8870 O   0  0  0  0  0  0  0  0  0  0  0  0
    3.5140  -11.2100   -2.8770 O   0  0  0  0  0  0  0  0  0  0  0  0
    4.1430  -11.9350   -3.8950 C   0  0  0  0  0  0  0  0  0  0  0  0
    3.3910  -12.5200   -4.9140 C   0  0  0  0  0  0  0  0  0  0  0  0
    4.0490  -13.1880   -5.9450 C   0  0  0  0  0  0  0  0  0  0  0  0
    5.4440  -13.2540   -5.9580 C   0  0  0  0  0  0  0  0  0  0  0  0
    6.1860  -12.6470   -4.9420 C   0  0  0  0  0  0  0  0  0  0  0  0
    5.5350  -11.9770   -3.9070 C   0  0  0  0  0  0  0  0  0  0  0  0
    0.8740  -12.2070    0.4790 C   0  0  0  0  0  0  0  0  0  0  0  0
    0.1490  -12.8340    1.4980 C   0  0  0  0  0  0  0  0  0  0  0  0
   -2.5350  -14.6280    2.5170 C   0  0  0  0  0  0  0  0  0  0  0  0
   -3.3320  -15.1500    3.4010 N   0  0  0  0  0  0  0  0  0  0  0  0
   -2.7400  -15.9640    4.3300 C   0  0  0  0  0  0  0  0  0  0  0  0
   -4.9870  -16.3350    7.1360 C   0  0  0  0  0  0  0  0  0  0  0  0
   -6.3270  -16.3610    7.5530 C   0  0  0  0  0  0  0  0  0  0  0  0
   -9.3420  -18.0740    7.2320 C   0  0  0  0  0  0  0  0  0  0  0  0
  -10.8780  -17.9380    7.2330 C   0  0  0  0  0  0  0  0  0  0  0  0
  -11.4207  -16.5740   10.3675 H   0  0  0  0  0  0  0  0  0  0  0  0
  -12.0766  -18.1632    9.8471 H   0  0  0  0  0  0  0  0  0  0  0  0
  -10.3027  -17.8801    9.8471 H   0  0  0  0  0  0  0  0  0  0  0  0
  -12.3610  -16.7680    8.0630 H   0  0  0  0  0  0  0  0  0  0  0  0
  -10.9910  -15.1708    7.0753 H   0  0  0  0  0  0  0  0  0  0  0  0
  -10.9664  -14.9123    8.8723 H   0  0  0  0  0  0  0  0  0  0  0  0
   -8.6970  -14.7474    7.7564 H   0  0  0  0  0  0  0  0  0  0  0  0
   -8.8204  -15.9801    9.0748 H   0  0  0  0  0  0  0  0  0  0  0  0
   -7.7757  -17.4530    4.6883 H   0  0  0  0  0  0  0  0  0  0  0  0
   -5.4104  -17.3994    3.9384 H   0  0  0  0  0  0  0  0  0  0  0  0
   -2.1781  -17.9392    6.8729 H   0  0  0  0  0  0  0  0  0  0  0  0
    1.3080  -15.6760    4.3200 H   0  0  0  0  0  0  0  0  0  0  0  0
    1.3750  -16.2510    2.6530 H   0  0  0  0  0  0  0  0  0  0  0  0
   -0.3622  -15.8583    0.0120 H   0  0  0  0  0  0  0  0  0  0  0  0
    0.9336  -14.7397   -1.7981 H   0  0  0  0  0  0  0  0  0  0  0  0
    1.3940  -11.8100   -2.4790 H   0  0  0  0  0  0  0  0  0  0  0  0
    2.2930  -12.4549   -4.9038 H   0  0  0  0  0  0  0  0  0  0  0  0
    3.4690  -13.6638   -6.7495 H   0  0  0  0  0  0  0  0  0  0  0  0
    5.9601  -13.7857   -6.7710 H   0  0  0  0  0  0  0  0  0  0  0  0
    7.2847  -12.6976   -4.9585 H   0  0  0  0  0  0  0  0  0  0  0  0
    6.1137  -11.4876   -3.1098 H   0  0  0  0  0  0  0  0  0  0  0  0
    1.2205  -11.1719    0.6152 H   0  0  0  0  0  0  0  0  0  0  0  0
   -0.0678  -12.2899    2.4291 H   0  0  0  0  0  0  0  0  0  0  0  0
   -2.9998  -13.9717    1.7665 H   0  0  0  0  0  0  0  0  0  0  0  0
   -4.2025  -16.0273    7.8430 H   0  0  0  0  0  0  0  0  0  0  0  0
   -6.5714  -16.0705    8.5854 H   0  0  0  0  0  0  0  0  0  0  0  0
   -9.0375  -18.6920    6.3745 H   0  0  0  0  0  0  0  0  0  0  0  0
   -9.0343  -18.5429    8.1783 H   0  0  0  0  0  0  0  0  0  0  0  0
  -11.2058  -17.6145    6.2341 H   0  0  0  0  0  0  0  0  0  0  0  0
  -11.3040  -18.9175    7.4958 H   0  0  0  0  0  0  0  0  0  0  0  0
  1  2  1  0
  2  3  1  0
  3  4  1  0
  4  5  1  0
  5  6  1  0
  6  7  2  0
  7  8  1  0
  8  9  2  0
  9 10  1  0
 10 11  1  0
 11 12  2  0
 12 13  1  0
 13 14  1  0
 14 15  1  0
 14 16  2  0
 16 17  1  0
 17 18  2  0
 18 19  1  0
 19 20  2  0
 20 21  1  0
 21 22  1  0
 22 23  2  0
 22 24  1  0
 24 25  1  0
 25 26  2  0
 26 27  1  0
 27 28  2  0
 28 29  1  0
 29 30  2  0
 20 31  1  0
 31 32  2  0
 16 33  1  0
 33 34  2  0
 34 35  1  0
  9 36  1  0
 36 37  2  0
  5 38  1  0
 38 39  1  0
 39  2  1  0
 37  6  1  0
 35 10  2  0
 35 13  1  0
 32 17  1  0
 30 25  1  0
  1 40  1  0
  1 41  1  0
  1 42  1  0
  2 43  1  0
  3 44  1  0
  3 45  1  0
  4 46  1  0
  4 47  1  0
  7 48  1  0
  8 49  1  0
 11 50  1  0
 15 51  1  0
 15 52  1  0
 18 53  1  0
 19 54  1  0
 21 55  1  0
 26 56  1  0
 27 57  1  0
 28 58  1  0
 29 59  1  0
 30 60  1  0
 31 61  1  0
 32 62  1  0
 33 63  1  0
 36 64  1  0
 37 65  1  0
 38 66  1  0
 38 67  1  0
 39 68  1  0
 39 69  1  0
M  CHG  1   2   1
M  END
>  <meeko>  (7) 
{"is_sidechain": [false], "free_energy": -7.91, "intermolecular_energy": -10.934, "internal_energy": -0.887}

$$$$
LIB_QPSCCNWGOLMGKW__M_PUB_ALL__e8__s20260927
     RDKit          3D

 69 74  0  0  0  0  0  0  0  0999 V2000
   13.1800  -15.4830   -2.6580 C   0  0  0  0  0  0  0  0  0  0  0  0
   12.7320  -15.6220   -1.2340 N   0  0  0  0  0  0  0  0  0  0  0  0
   11.9770  -14.4050   -0.7090 C   0  0  0  0  0  0  0  0  0  0  0  0
   10.5520  -14.3140   -1.2910 C   0  0  0  0  0  0  0  0  0  0  0  0
    9.8240  -15.5790   -1.1140 N   0  0  0  0  0  0  0  0  0  0  0  0
    8.4290  -15.5740   -1.1850 C   0  0  0  0  0  0  0  0  0  0  0  0
    7.7030  -16.5680   -1.8550 C   0  0  0  0  0  0  0  0  0  0  0  0
    6.3020  -16.5490   -1.9050 C   0  0  0  0  0  0  0  0  0  0  0  0
    5.5760  -15.5280   -1.2890 C   0  0  0  0  0  0  0  0  0  0  0  0
    4.1220  -15.4890   -1.3360 C   0  0  0  0  0  0  0  0  0  0  0  0
    3.2660  -15.1880   -2.4160 C   0  0  0  0  0  0  0  0  0  0  0  0
    1.9750  -15.2250   -2.0960 N   0  0  0  0  0  0  0  0  0  0  0  0
    1.9670  -15.5560   -0.7690 N   0  0  0  0  0  0  0  0  0  0  0  0
    0.8210  -15.7090    0.0590 C   0  0  0  0  0  0  0  0  0  0  0  0
   -0.4060  -15.4950   -0.5400 N   0  0  0  0  0  0  0  0  0  0  0  0
    1.0100  -16.0300    1.3590 C   0  0  0  0  0  0  0  0  0  0  0  0
   -0.0700  -16.2190    2.3350 C   0  0  0  0  0  0  0  0  0  0  0  0
   -0.2720  -15.2790    3.3500 C   0  0  0  0  0  0  0  0  0  0  0  0
   -1.2920  -15.4580    4.2940 C   0  0  0  0  0  0  0  0  0  0  0  0
   -2.1240  -16.5770    4.2360 C   0  0  0  0  0  0  0  0  0  0  0  0
   -3.1670  -16.8250    5.1440 N   0  0  0  0  0  0  0  0  0  0  0  0
   -4.4720  -16.4060    5.0780 C   0  0  0  0  0  0  0  0  0  0  0  0
   -4.9840  -15.7200    4.2050 O   0  0  0  0  0  0  0  0  0  0  0  0
   -5.1340  -16.8960    6.1990 O   0  0  0  0  0  0  0  0  0  0  0  0
   -5.3220  -15.9700    7.2310 C   0  0  0  0  0  0  0  0  0  0  0  0
   -4.4510  -15.9400    8.3200 C   0  0  0  0  0  0  0  0  0  0  0  0
   -4.6290  -14.9700    9.3050 C   0  0  0  0  0  0  0  0  0  0  0  0
   -5.6590  -14.0340    9.1870 C   0  0  0  0  0  0  0  0  0  0  0  0
   -6.5130  -14.0630    8.0810 C   0  0  0  0  0  0  0  0  0  0  0  0
   -6.3410  -15.0310    7.0930 C   0  0  0  0  0  0  0  0  0  0  0  0
   -1.9220  -17.5160    3.2180 C   0  0  0  0  0  0  0  0  0  0  0  0
   -0.9030  -17.3410    2.2760 C   0  0  0  0  0  0  0  0  0  0  0  0
    2.4390  -16.1820    1.7810 C   0  0  0  0  0  0  0  0  0  0  0  0
    3.4960  -16.0460    1.0390 N   0  0  0  0  0  0  0  0  0  0  0  0
    3.2670  -15.7260   -0.2730 C   0  0  0  0  0  0  0  0  0  0  0  0
    6.2850  -14.5190   -0.6340 C   0  0  0  0  0  0  0  0  0  0  0  0
    7.6870  -14.5460   -0.5850 C   0  0  0  0  0  0  0  0  0  0  0  0
   10.5040  -16.8150   -1.5420 C   0  0  0  0  0  0  0  0  0  0  0  0
   11.9330  -16.8940   -0.9690 C   0  0  0  0  0  0  0  0  0  0  0  0
   14.2303  -15.1571   -2.6818 H   0  0  0  0  0  0  0  0  0  0  0  0
   13.0853  -16.4528   -3.1685 H   0  0  0  0  0  0  0  0  0  0  0  0
   12.5530  -14.7371   -3.1685 H   0  0  0  0  0  0  0  0  0  0  0  0
   13.5850  -15.6960   -0.6660 H   0  0  0  0  0  0  0  0  0  0  0  0
   11.9093  -14.4745    0.3867 H   0  0  0  0  0  0  0  0  0  0  0  0
   12.5281  -13.5043   -1.0173 H   0  0  0  0  0  0  0  0  0  0  0  0
   10.0050  -13.5101   -0.7767 H   0  0  0  0  0  0  0  0  0  0  0  0
   10.6282  -14.1036   -2.3680 H   0  0  0  0  0  0  0  0  0  0  0  0
    8.2462  -17.3839   -2.3544 H   0  0  0  0  0  0  0  0  0  0  0  0
    5.7674  -17.3497   -2.4370 H   0  0  0  0  0  0  0  0  0  0  0  0
    3.6305  -14.9461   -3.4252 H   0  0  0  0  0  0  0  0  0  0  0  0
   -0.6100  -16.0240   -1.3870 H   0  0  0  0  0  0  0  0  0  0  0  0
   -1.0230  -14.7560   -0.2310 H   0  0  0  0  0  0  0  0  0  0  0  0
    0.3752  -14.3914    3.4080 H   0  0  0  0  0  0  0  0  0  0  0  0
   -1.4382  -14.7103    5.0874 H   0  0  0  0  0  0  0  0  0  0  0  0
   -2.9610  -17.3790    5.9630 H   0  0  0  0  0  0  0  0  0  0  0  0
   -3.6342  -16.6724    8.4004 H   0  0  0  0  0  0  0  0  0  0  0  0
   -3.9578  -14.9416   10.1760 H   0  0  0  0  0  0  0  0  0  0  0  0
   -5.7985  -13.2713    9.9673 H   0  0  0  0  0  0  0  0  0  0  0  0
   -7.3208  -13.3219    7.9903 H   0  0  0  0  0  0  0  0  0  0  0  0
   -7.0025  -15.0529    6.2144 H   0  0  0  0  0  0  0  0  0  0  0  0
   -2.5719  -18.4015    3.1581 H   0  0  0  0  0  0  0  0  0  0  0  0
   -0.7559  -18.0902    1.4841 H   0  0  0  0  0  0  0  0  0  0  0  0
    2.6124  -16.4372    2.8368 H   0  0  0  0  0  0  0  0  0  0  0  0
    5.7390  -13.6948   -0.1517 H   0  0  0  0  0  0  0  0  0  0  0  0
    8.2192  -13.7382   -0.0613 H   0  0  0  0  0  0  0  0  0  0  0  0
    9.9274  -17.6824   -1.1882 H   0  0  0  0  0  0  0  0  0  0  0  0
   10.5693  -16.8135   -2.6401 H   0  0  0  0  0  0  0  0  0  0  0  0
   11.8705  -17.0530    0.1177 H   0  0  0  0  0  0  0  0  0  0  0  0
   12.4505  -17.7273   -1.4668 H   0  0  0  0  0  0  0  0  0  0  0  0
  1  2  1  0
  2  3  1  0
  3  4  1  0
  4  5  1  0
  5  6  1  0
  6  7  2  0
  7  8  1  0
  8  9  2  0
  9 10  1  0
 10 11  1  0
 11 12  2  0
 12 13  1  0
 13 14  1  0
 14 15  1  0
 14 16  2  0
 16 17  1  0
 17 18  2  0
 18 19  1  0
 19 20  2  0
 20 21  1  0
 21 22  1  0
 22 23  2  0
 22 24  1  0
 24 25  1  0
 25 26  2  0
 26 27  1  0
 27 28  2  0
 28 29  1  0
 29 30  2  0
 20 31  1  0
 31 32  2  0
 16 33  1  0
 33 34  2  0
 34 35  1  0
  9 36  1  0
 36 37  2  0
  5 38  1  0
 38 39  1  0
 39  2  1  0
 37  6  1  0
 35 10  2  0
 35 13  1  0
 32 17  1  0
 30 25  1  0
  1 40  1  0
  1 41  1  0
  1 42  1  0
  2 43  1  0
  3 44  1  0
  3 45  1  0
  4 46  1  0
  4 47  1  0
  7 48  1  0
  8 49  1  0
 11 50  1  0
 15 51  1  0
 15 52  1  0
 18 53  1  0
 19 54  1  0
 21 55  1  0
 26 56  1  0
 27 57  1  0
 28 58  1  0
 29 59  1  0
 30 60  1  0
 31 61  1  0
 32 62  1  0
 33 63  1  0
 36 64  1  0
 37 65  1  0
 38 66  1  0
 38 67  1  0
 39 68  1  0
 39 69  1  0
M  CHG  1   2   1
M  END
>  <meeko>  (8) 
{"is_sidechain": [false], "free_energy": -7.901, "intermolecular_energy": -10.939, "internal_energy": -0.869}

$$$$
LIB_QPSCCNWGOLMGKW__M_PUB_ALL__e8__s20260927
     RDKit          3D

 69 74  0  0  0  0  0  0  0  0999 V2000
    0.6780  -20.0280    8.6090 C   0  0  0  0  0  0  0  0  0  0  0  0
   -0.7170  -19.7300    8.1470 N   0  0  0  0  0  0  0  0  0  0  0  0
   -1.1960  -18.3280    8.5110 C   0  0  0  0  0  0  0  0  0  0  0  0
   -0.5300  -17.2450    7.6400 C   0  0  0  0  0  0  0  0  0  0  0  0
   -0.6640  -17.5590    6.2080 N   0  0  0  0  0  0  0  0  0  0  0  0
   -0.5100  -16.5340    5.2730 C   0  0  0  0  0  0  0  0  0  0  0  0
   -1.0320  -16.6110    3.9740 C   0  0  0  0  0  0  0  0  0  0  0  0
   -0.8740  -15.5650    3.0540 C   0  0  0  0  0  0  0  0  0  0  0  0
   -0.1790  -14.4040    3.4000 C   0  0  0  0  0  0  0  0  0  0  0  0
   -0.0010  -13.3120    2.4550 C   0  0  0  0  0  0  0  0  0  0  0  0
   -0.5370  -12.0070    2.4780 C   0  0  0  0  0  0  0  0  0  0  0  0
   -0.1810  -11.2690    1.4290 N   0  0  0  0  0  0  0  0  0  0  0  0
    0.6100  -12.1010    0.6850 N   0  0  0  0  0  0  0  0  0  0  0  0
    1.2360  -11.7900   -0.5530 C   0  0  0  0  0  0  0  0  0  0  0  0
    1.0150  -10.5220   -1.0550 N   0  0  0  0  0  0  0  0  0  0  0  0
    1.9760  -12.7500   -1.1530 C   0  0  0  0  0  0  0  0  0  0  0  0
    2.6780  -12.5820   -2.4310 C   0  0  0  0  0  0  0  0  0  0  0  0
    2.1800  -13.1810   -3.5920 C   0  0  0  0  0  0  0  0  0  0  0  0
    2.8500  -13.0370   -4.8130 C   0  0  0  0  0  0  0  0  0  0  0  0
    4.0280  -12.2920   -4.8920 C   0  0  0  0  0  0  0  0  0  0  0  0
    4.7550  -12.1010   -6.0790 N   0  0  0  0  0  0  0  0  0  0  0  0
    5.4570  -13.0290   -6.8070 C   0  0  0  0  0  0  0  0  0  0  0  0
    5.5900  -14.2170   -6.5550 O   0  0  0  0  0  0  0  0  0  0  0  0
    6.0100  -12.3780   -7.9050 O   0  0  0  0  0  0  0  0  0  0  0  0
    6.7110  -13.2020   -8.7930 C   0  0  0  0  0  0  0  0  0  0  0  0
    6.2900  -13.3330  -10.1160 C   0  0  0  0  0  0  0  0  0  0  0  0
    7.0390  -14.1150  -10.9930 C   0  0  0  0  0  0  0  0  0  0  0  0
    8.2040  -14.7450  -10.5470 C   0  0  0  0  0  0  0  0  0  0  0  0
    8.6250  -14.5900   -9.2250 C   0  0  0  0  0  0  0  0  0  0  0  0
    7.8800  -13.8090   -8.3420 C   0  0  0  0  0  0  0  0  0  0  0  0
    4.5260  -11.6910   -3.7300 C   0  0  0  0  0  0  0  0  0  0  0  0
    3.8580  -11.8350   -2.5090 C   0  0  0  0  0  0  0  0  0  0  0  0
    2.0440  -14.0570   -0.4260 C   0  0  0  0  0  0  0  0  0  0  0  0
    1.4790  -14.3570    0.7050 N   0  0  0  0  0  0  0  0  0  0  0  0
    0.7410  -13.3600    1.2860 C   0  0  0  0  0  0  0  0  0  0  0  0
    0.3640  -14.3200    4.6830 C   0  0  0  0  0  0  0  0  0  0  0  0
    0.2000  -15.3690    5.6000 C   0  0  0  0  0  0  0  0  0  0  0  0
   -0.2770  -18.9140    5.7760 C   0  0  0  0  0  0  0  0  0  0  0  0
   -0.9340  -19.9920    6.6600 C   0  0  0  0  0  0  0  0  0  0  0  0
    0.7066  -20.0341    9.7086 H   0  0  0  0  0  0  0  0  0  0  0  0
    0.9878  -21.0126    8.2287 H   0  0  0  0  0  0  0  0  0  0  0  0
    1.3630  -19.2559    8.2287 H   0  0  0  0  0  0  0  0  0  0  0  0
   -1.3350  -20.3820    8.6450 H   0  0  0  0  0  0  0  0  0  0  0  0
   -2.2856  -18.2772    8.3691 H   0  0  0  0  0  0  0  0  0  0  0  0
   -0.9214  -18.1370    9.5589 H   0  0  0  0  0  0  0  0  0  0  0  0
   -1.0105  -16.2763    7.8417 H   0  0  0  0  0  0  0  0  0  0  0  0
    0.5405  -17.2056    7.8900 H   0  0  0  0  0  0  0  0  0  0  0  0
   -1.5794  -17.5151    3.6690 H   0  0  0  0  0  0  0  0  0  0  0  0
   -1.3033  -15.6600    2.0457 H   0  0  0  0  0  0  0  0  0  0  0  0
   -1.1861  -11.6355    3.2846 H   0  0  0  0  0  0  0  0  0  0  0  0
    0.8410   -9.7780   -0.3820 H   0  0  0  0  0  0  0  0  0  0  0  0
    0.9020  -10.3580   -2.0470 H   0  0  0  0  0  0  0  0  0  0  0  0
    1.2528  -13.7711   -3.5458 H   0  0  0  0  0  0  0  0  0  0  0  0
    2.4449  -13.5147   -5.7173 H   0  0  0  0  0  0  0  0  0  0  0  0
    4.7860  -11.1700   -6.4720 H   0  0  0  0  0  0  0  0  0  0  0  0
    5.3779  -12.8253  -10.4630 H   0  0  0  0  0  0  0  0  0  0  0  0
    6.7132  -14.2365  -12.0366 H   0  0  0  0  0  0  0  0  0  0  0  0
    8.7914  -15.3652  -11.2401 H   0  0  0  0  0  0  0  0  0  0  0  0
    9.5450  -15.0843   -8.8796 H   0  0  0  0  0  0  0  0  0  0  0  0
    8.2119  -13.6742   -7.3020 H   0  0  0  0  0  0  0  0  0  0  0  0
    5.4521  -11.0994   -3.7773 H   0  0  0  0  0  0  0  0  0  0  0  0
    4.2634  -11.3577   -1.6047 H   0  0  0  0  0  0  0  0  0  0  0  0
    2.6380  -14.8512   -0.9019 H   0  0  0  0  0  0  0  0  0  0  0  0
    0.9264  -13.4219    4.9783 H   0  0  0  0  0  0  0  0  0  0  0  0
    0.6405  -15.2754    6.6036 H   0  0  0  0  0  0  0  0  0  0  0  0
   -0.5953  -19.0624    4.7336 H   0  0  0  0  0  0  0  0  0  0  0  0
    0.8152  -19.0088    5.8664 H   0  0  0  0  0  0  0  0  0  0  0  0
   -2.0150  -20.0058    6.4570 H   0  0  0  0  0  0  0  0  0  0  0  0
   -0.4680  -20.9581    6.4162 H   0  0  0  0  0  0  0  0  0  0  0  0
  1  2  1  0
  2  3  1  0
  3  4  1  0
  4  5  1  0
  5  6  1  0
  6  7  2  0
  7  8  1  0
  8  9  2  0
  9 10  1  0
 10 11  1  0
 11 12  2  0
 12 13  1  0
 13 14  1  0
 14 15  1  0
 14 16  2  0
 16 17  1  0
 17 18  2  0
 18 19  1  0
 19 20  2  0
 20 21  1  0
 21 22  1  0
 22 23  2  0
 22 24  1  0
 24 25  1  0
 25 26  2  0
 26 27  1  0
 27 28  2  0
 28 29  1  0
 29 30  2  0
 20 31  1  0
 31 32  2  0
 16 33  1  0
 33 34  2  0
 34 35  1  0
  9 36  1  0
 36 37  2  0
  5 38  1  0
 38 39  1  0
 39  2  1  0
 37  6  1  0
 35 10  2  0
 35 13  1  0
 32 17  1  0
 30 25  1  0
  1 40  1  0
  1 41  1  0
  1 42  1  0
  2 43  1  0
  3 44  1  0
  3 45  1  0
  4 46  1  0
  4 47  1  0
  7 48  1  0
  8 49  1  0
 11 50  1  0
 15 51  1  0
 15 52  1  0
 18 53  1  0
 19 54  1  0
 21 55  1  0
 26 56  1  0
 27 57  1  0
 28 58  1  0
 29 59  1  0
 30 60  1  0
 31 61  1  0
 32 62  1  0
 33 63  1  0
 36 64  1  0
 37 65  1  0
 38 66  1  0
 38 67  1  0
 39 68  1  0
 39 69  1  0
M  CHG  1   2   1
M  END
>  <meeko>  (9) 
{"is_sidechain": [false], "free_energy": -7.567, "intermolecular_energy": -10.82, "internal_energy": -0.528}

$$$$
