LIB_FCRHJSNRFAAYQD__M_PUB_ALL__e8__s20260927
     RDKit          3D

 65 70  0  0  0  0  0  0  0  0999 V2000
    4.0220  -13.4180   -6.2290 O   0  0  0  0  0  0  0  0  0  0  0  0
    5.0560  -13.0050   -5.7190 C   0  0  0  0  0  0  0  0  0  0  0  0
    6.3380  -13.3010   -6.1640 N   0  0  0  0  0  0  0  0  0  0  0  0
    6.7080  -14.0480   -7.3020 C   0  0  0  0  0  0  0  0  0  0  0  0
    7.2210  -15.3470   -7.2560 C   0  0  0  0  0  0  0  0  0  0  0  0
    7.5680  -16.0170   -8.4350 C   0  0  0  0  0  0  0  0  0  0  0  0
    7.3960  -15.4000   -9.6710 C   0  0  0  0  0  0  0  0  0  0  0  0
    6.8600  -14.1170   -9.7270 C   0  0  0  0  0  0  0  0  0  0  0  0
    6.7380  -13.5440  -10.9730 O   0  0  0  0  0  0  0  0  0  0  0  0
    7.4880  -12.4190  -11.2260 C   0  0  0  0  0  0  0  0  0  0  0  0
    6.8590  -11.1850  -11.0580 C   0  0  0  0  0  0  0  0  0  0  0  0
    7.5730  -10.0060  -11.2700 C   0  0  0  0  0  0  0  0  0  0  0  0
    8.9190  -10.0610  -11.6360 C   0  0  0  0  0  0  0  0  0  0  0  0
    9.5530  -11.2960  -11.7810 C   0  0  0  0  0  0  0  0  0  0  0  0
    8.8420  -12.4780  -11.5690 C   0  0  0  0  0  0  0  0  0  0  0  0
    6.5350  -13.4340   -8.5500 C   0  0  0  0  0  0  0  0  0  0  0  0
    5.1130  -12.1670   -4.6130 N   0  0  0  0  0  0  0  0  0  0  0  0
    4.0400  -11.7350   -3.8040 C   0  0  0  0  0  0  0  0  0  0  0  0
    3.3640  -10.5760   -4.2040 C   0  0  0  0  0  0  0  0  0  0  0  0
    2.2970  -10.0820   -3.4550 C   0  0  0  0  0  0  0  0  0  0  0  0
    1.8940  -10.7460   -2.2970 C   0  0  0  0  0  0  0  0  0  0  0  0
    2.5500  -11.9100   -1.8730 C   0  0  0  0  0  0  0  0  0  0  0  0
    2.1090  -12.5880   -0.6270 C   0  0  0  0  0  0  0  0  0  0  0  0
    2.7140  -13.7290   -0.2310 C   0  0  0  0  0  0  0  0  0  0  0  0
    2.2700  -14.3370    0.9230 N   0  0  0  0  0  0  0  0  0  0  0  0
    2.6640  -15.4710    1.5780 C   0  0  0  0  0  0  0  0  0  0  0  0
    1.8350  -15.5550    2.6780 C   0  0  0  0  0  0  0  0  0  0  0  0
    0.9450  -14.5090    2.7130 N   0  0  0  0  0  0  0  0  0  0  0  0
    1.2400  -13.8000    1.6420 C   0  0  0  0  0  0  0  0  0  0  0  0
    0.6120  -12.5780    1.1740 C   0  0  0  0  0  0  0  0  0  0  0  0
   -0.4270  -12.0200    1.8770 N   0  0  0  0  0  0  0  0  0  0  0  0
   -1.0900  -10.8020    1.5030 C   0  0  0  0  0  0  0  0  0  0  0  0
   -2.4130  -11.1260    0.8600 C   0  0  0  0  0  0  0  0  0  0  0  0
   -2.9310  -10.3200   -0.1590 C   0  0  0  0  0  0  0  0  0  0  0  0
   -4.1640  -10.6460   -0.7010 C   0  0  0  0  0  0  0  0  0  0  0  0
   -4.9080  -11.6980   -0.2990 N   0  0  0  0  0  0  0  0  0  0  0  0
   -4.3990  -12.4540    0.6960 C   0  0  0  0  0  0  0  0  0  0  0  0
   -3.1760  -12.2120    1.3030 C   0  0  0  0  0  0  0  0  0  0  0  0
    1.0480  -12.0150    0.0700 N   0  0  0  0  0  0  0  0  0  0  0  0
    3.6360  -12.3830   -2.6320 C   0  0  0  0  0  0  0  0  0  0  0  0
    7.0980  -12.9870   -5.5820 H   0  0  0  0  0  0  0  0  0  0  0  0
    7.3532  -15.8472   -6.2853 H   0  0  0  0  0  0  0  0  0  0  0  0
    7.9787  -17.0362   -8.3846 H   0  0  0  0  0  0  0  0  0  0  0  0
    7.6815  -15.9224  -10.5960 H   0  0  0  0  0  0  0  0  0  0  0  0
    5.8014  -11.1421  -10.7587 H   0  0  0  0  0  0  0  0  0  0  0  0
    7.0754   -9.0325  -11.1488 H   0  0  0  0  0  0  0  0  0  0  0  0
    9.4800   -9.1310  -11.8101 H   0  0  0  0  0  0  0  0  0  0  0  0
   10.6154  -11.3377  -12.0630 H   0  0  0  0  0  0  0  0  0  0  0  0
    9.3444  -13.4512  -11.6713 H   0  0  0  0  0  0  0  0  0  0  0  0
    6.1411  -12.4084   -8.6044 H   0  0  0  0  0  0  0  0  0  0  0  0
    6.0110  -11.7600   -4.4050 H   0  0  0  0  0  0  0  0  0  0  0  0
    3.6778  -10.0502   -5.1179 H   0  0  0  0  0  0  0  0  0  0  0  0
    1.7737   -9.1696   -3.7771 H   0  0  0  0  0  0  0  0  0  0  0  0
    1.0517  -10.3519   -1.7095 H   0  0  0  0  0  0  0  0  0  0  0  0
    3.5399  -14.1616   -0.8148 H   0  0  0  0  0  0  0  0  0  0  0  0
    3.4672  -16.1653    1.2905 H   0  0  0  0  0  0  0  0  0  0  0  0
    1.8809  -16.3564    3.4301 H   0  0  0  0  0  0  0  0  0  0  0  0
   -0.7150  -12.4980    2.7250 H   0  0  0  0  0  0  0  0  0  0  0  0
   -1.2590  -10.1867    2.3990 H   0  0  0  0  0  0  0  0  0  0  0  0
   -0.4623  -10.2476    0.7898 H   0  0  0  0  0  0  0  0  0  0  0  0
   -2.3713   -9.4456   -0.5226 H   0  0  0  0  0  0  0  0  0  0  0  0
   -4.5598  -10.0099   -1.5064 H   0  0  0  0  0  0  0  0  0  0  0  0
   -4.9894  -13.3134    1.0465 H   0  0  0  0  0  0  0  0  0  0  0  0
   -2.8136  -12.8596    2.1150 H   0  0  0  0  0  0  0  0  0  0  0  0
    4.1780  -13.2798   -2.2973 H   0  0  0  0  0  0  0  0  0  0  0  0
  1  2  2  0
  2  3  1  0
  3  4  1  0
  4  5  2  0
  5  6  1  0
  6  7  2  0
  7  8  1  0
  8  9  1  0
  9 10  1  0
 10 11  2  0
 11 12  1  0
 12 13  2  0
 13 14  1  0
 14 15  2  0
  8 16  2  0
  2 17  1  0
 17 18  1  0
 18 19  2  0
 19 20  1  0
 20 21  2  0
 21 22  1  0
 22 23  1  0
 23 24  2  0
 24 25  1  0
 25 26  1  0
 26 27  2  0
 27 28  1  0
 28 29  2  0
 29 30  1  0
 30 31  1  0
 31 32  1  0
 32 33  1  0
 33 34  2  0
 34 35  1  0
 35 36  2  0
 36 37  1  0
 37 38  2  0
 30 39  2  0
 22 40  2  0
 16  4  1  0
 40 18  1  0
 15 10  1  0
 39 23  1  0
 29 25  1  0
 38 33  1  0
  3 41  1  0
  5 42  1  0
  6 43  1  0
  7 44  1  0
 11 45  1  0
 12 46  1  0
 13 47  1  0
 14 48  1  0
 15 49  1  0
 16 50  1  0
 17 51  1  0
 19 52  1  0
 20 53  1  0
 21 54  1  0
 24 55  1  0
 26 56  1  0
 27 57  1  0
 31 58  1  0
 32 59  1  0
 32 60  1  0
 34 61  1  0
 35 62  1  0
 37 63  1  0
 38 64  1  0
 40 65  1  0
M  END
>  <meeko>  (1) 
{"is_sidechain": [false], "free_energy": -10.019, "intermolecular_energy": -14.119, "internal_energy": -1.361}

$$$$
LIB_FCRHJSNRFAAYQD__M_PUB_ALL__e8__s20260927
     RDKit          3D

 65 70  0  0  0  0  0  0  0  0999 V2000
    1.2900  -13.6990   -1.3520 O   0  0  0  0  0  0  0  0  0  0  0  0
    0.8490  -14.4220   -2.2360 C   0  0  0  0  0  0  0  0  0  0  0  0
   -0.1550  -15.3660   -2.0690 N   0  0  0  0  0  0  0  0  0  0  0  0
   -0.9090  -15.6300   -0.9050 C   0  0  0  0  0  0  0  0  0  0  0  0
   -0.6830  -16.7130   -0.0510 C   0  0  0  0  0  0  0  0  0  0  0  0
   -1.4820  -16.9050    1.0820 C   0  0  0  0  0  0  0  0  0  0  0  0
   -2.5070  -16.0110    1.3790 C   0  0  0  0  0  0  0  0  0  0  0  0
   -2.7220  -14.9140    0.5480 C   0  0  0  0  0  0  0  0  0  0  0  0
   -3.7660  -14.0790    0.8740 O   0  0  0  0  0  0  0  0  0  0  0  0
   -3.6020  -12.7360    0.6210 C   0  0  0  0  0  0  0  0  0  0  0  0
   -2.7040  -12.0430    1.4340 C   0  0  0  0  0  0  0  0  0  0  0  0
   -2.4700  -10.6860    1.2110 C   0  0  0  0  0  0  0  0  0  0  0  0
   -3.1230  -10.0280    0.1680 C   0  0  0  0  0  0  0  0  0  0  0  0
   -4.0030  -10.7270   -0.6590 C   0  0  0  0  0  0  0  0  0  0  0  0
   -4.2390  -12.0850   -0.4380 C   0  0  0  0  0  0  0  0  0  0  0  0
   -1.9410  -14.7330   -0.5990 C   0  0  0  0  0  0  0  0  0  0  0  0
    1.2800  -14.4100   -3.5570 N   0  0  0  0  0  0  0  0  0  0  0  0
    2.3590  -13.6810   -4.1040 C   0  0  0  0  0  0  0  0  0  0  0  0
    2.2130  -12.2910   -4.1870 C   0  0  0  0  0  0  0  0  0  0  0  0
    3.2300  -11.5010   -4.7210 C   0  0  0  0  0  0  0  0  0  0  0  0
    4.4070  -12.0960   -5.1730 C   0  0  0  0  0  0  0  0  0  0  0  0
    4.5830  -13.4850   -5.0990 C   0  0  0  0  0  0  0  0  0  0  0  0
    5.8420  -14.0930   -5.6030 C   0  0  0  0  0  0  0  0  0  0  0  0
    6.6500  -14.7660   -4.7560 C   0  0  0  0  0  0  0  0  0  0  0  0
    7.8140  -15.3070   -5.2560 N   0  0  0  0  0  0  0  0  0  0  0  0
    8.8190  -16.0300   -4.6750 C   0  0  0  0  0  0  0  0  0  0  0  0
    9.7140  -16.2820   -5.6940 C   0  0  0  0  0  0  0  0  0  0  0  0
    9.2880  -15.7330   -6.8800 N   0  0  0  0  0  0  0  0  0  0  0  0
    8.1430  -15.1560   -6.5730 C   0  0  0  0  0  0  0  0  0  0  0  0
    7.2510  -14.4150   -7.4450 C   0  0  0  0  0  0  0  0  0  0  0  0
    7.5590  -14.2480   -8.7720 N   0  0  0  0  0  0  0  0  0  0  0  0
    6.7260  -13.5530   -9.7130 C   0  0  0  0  0  0  0  0  0  0  0  0
    7.5810  -12.6870  -10.6000 C   0  0  0  0  0  0  0  0  0  0  0  0
    8.6110  -13.2420  -11.3650 C   0  0  0  0  0  0  0  0  0  0  0  0
    9.3860  -12.3990  -12.1460 C   0  0  0  0  0  0  0  0  0  0  0  0
    9.2110  -11.0620  -12.2100 N   0  0  0  0  0  0  0  0  0  0  0  0
    8.2230  -10.5430  -11.4530 C   0  0  0  0  0  0  0  0  0  0  0  0
    7.3940  -11.3010  -10.6400 C   0  0  0  0  0  0  0  0  0  0  0  0
    6.1450  -13.9060   -6.9490 N   0  0  0  0  0  0  0  0  0  0  0  0
    3.5370  -14.2670   -4.5750 C   0  0  0  0  0  0  0  0  0  0  0  0
   -0.3390  -15.9700   -2.8540 H   0  0  0  0  0  0  0  0  0  0  0  0
    0.1299  -17.4206   -0.2712 H   0  0  0  0  0  0  0  0  0  0  0  0
   -1.2992  -17.7665    1.7410 H   0  0  0  0  0  0  0  0  0  0  0  0
   -3.1421  -16.1697    2.2630 H   0  0  0  0  0  0  0  0  0  0  0  0
   -2.1818  -12.5657    2.2489 H   0  0  0  0  0  0  0  0  0  0  0  0
   -1.7709  -10.1348    1.8571 H   0  0  0  0  0  0  0  0  0  0  0  0
   -2.9437   -8.9562   -0.0025 H   0  0  0  0  0  0  0  0  0  0  0  0
   -4.5108  -10.2079   -1.4852 H   0  0  0  0  0  0  0  0  0  0  0  0
   -4.9241  -12.6404   -1.0954 H   0  0  0  0  0  0  0  0  0  0  0  0
   -2.1387  -13.8803   -1.2652 H   0  0  0  0  0  0  0  0  0  0  0  0
    0.7180  -14.9230   -4.2170 H   0  0  0  0  0  0  0  0  0  0  0  0
    1.2873  -11.8179   -3.8275 H   0  0  0  0  0  0  0  0  0  0  0  0
    3.1040  -10.4102   -4.7856 H   0  0  0  0  0  0  0  0  0  0  0  0
    5.2070  -11.4683   -5.5926 H   0  0  0  0  0  0  0  0  0  0  0  0
    6.3856  -14.8793   -3.6943 H   0  0  0  0  0  0  0  0  0  0  0  0
    8.8968  -16.3427   -3.6233 H   0  0  0  0  0  0  0  0  0  0  0  0
   10.6486  -16.8494   -5.5730 H   0  0  0  0  0  0  0  0  0  0  0  0
    8.4240  -14.6690   -9.0980 H   0  0  0  0  0  0  0  0  0  0  0  0
    6.1814  -14.2835  -10.3293 H   0  0  0  0  0  0  0  0  0  0  0  0
    6.0074  -12.9223   -9.1691 H   0  0  0  0  0  0  0  0  0  0  0  0
    8.8025  -14.3251  -11.3475 H   0  0  0  0  0  0  0  0  0  0  0  0
   10.1905  -12.8455  -12.7488 H   0  0  0  0  0  0  0  0  0  0  0  0
    8.0655   -9.4547  -11.4822 H   0  0  0  0  0  0  0  0  0  0  0  0
    6.6062  -10.8229  -10.0394 H   0  0  0  0  0  0  0  0  0  0  0  0
    3.6487  -15.3606   -4.5354 H   0  0  0  0  0  0  0  0  0  0  0  0
  1  2  2  0
  2  3  1  0
  3  4  1  0
  4  5  2  0
  5  6  1  0
  6  7  2  0
  7  8  1  0
  8  9  1  0
  9 10  1  0
 10 11  2  0
 11 12  1  0
 12 13  2  0
 13 14  1  0
 14 15  2  0
  8 16  2  0
  2 17  1  0
 17 18  1  0
 18 19  2  0
 19 20  1  0
 20 21  2  0
 21 22  1  0
 22 23  1  0
 23 24  2  0
 24 25  1  0
 25 26  1  0
 26 27  2  0
 27 28  1  0
 28 29  2  0
 29 30  1  0
 30 31  1  0
 31 32  1  0
 32 33  1  0
 33 34  2  0
 34 35  1  0
 35 36  2  0
 36 37  1  0
 37 38  2  0
 30 39  2  0
 22 40  2  0
 16  4  1  0
 40 18  1  0
 15 10  1  0
 39 23  1  0
 29 25  1  0
 38 33  1  0
  3 41  1  0
  5 42  1  0
  6 43  1  0
  7 44  1  0
 11 45  1  0
 12 46  1  0
 13 47  1  0
 14 48  1  0
 15 49  1  0
 16 50  1  0
 17 51  1  0
 19 52  1  0
 20 53  1  0
 21 54  1  0
 24 55  1  0
 26 56  1  0
 27 57  1  0
 31 58  1  0
 32 59  1  0
 32 60  1  0
 34 61  1  0
 35 62  1  0
 37 63  1  0
 38 64  1  0
 40 65  1  0
M  END
>  <meeko>  (2) 
{"is_sidechain": [false], "free_energy": -9.413, "intermolecular_energy": -13.457, "internal_energy": -1.169}

$$$$
LIB_FCRHJSNRFAAYQD__M_PUB_ALL__e8__s20260927
     RDKit          3D

 65 70  0  0  0  0  0  0  0  0999 V2000
    2.0790  -13.4850   -2.6540 O   0  0  0  0  0  0  0  0  0  0  0  0
    2.9550  -12.8450   -2.0880 C   0  0  0  0  0  0  0  0  0  0  0  0
    2.9750  -12.5450   -0.7330 N   0  0  0  0  0  0  0  0  0  0  0  0
    2.0630  -12.9630    0.2600 C   0  0  0  0  0  0  0  0  0  0  0  0
    2.1220  -14.1970    0.9120 C   0  0  0  0  0  0  0  0  0  0  0  0
    1.1720  -14.5350    1.8820 C   0  0  0  0  0  0  0  0  0  0  0  0
    0.1600  -13.6390    2.2180 C   0  0  0  0  0  0  0  0  0  0  0  0
    0.1100  -12.3960    1.5920 C   0  0  0  0  0  0  0  0  0  0  0  0
   -0.9280  -11.5620    1.9420 O   0  0  0  0  0  0  0  0  0  0  0  0
   -2.0250  -11.5400    1.1130 C   0  0  0  0  0  0  0  0  0  0  0  0
   -2.3320  -10.3250    0.4970 C   0  0  0  0  0  0  0  0  0  0  0  0
   -3.4140  -10.2430   -0.3780 C   0  0  0  0  0  0  0  0  0  0  0  0
   -4.1810  -11.3780   -0.6480 C   0  0  0  0  0  0  0  0  0  0  0  0
   -3.8590  -12.5970   -0.0510 C   0  0  0  0  0  0  0  0  0  0  0  0
   -2.7760  -12.6830    0.8250 C   0  0  0  0  0  0  0  0  0  0  0  0
    1.0430  -12.0650    0.6030 C   0  0  0  0  0  0  0  0  0  0  0  0
    4.0800  -12.3210   -2.7120 N   0  0  0  0  0  0  0  0  0  0  0  0
    4.3710  -12.3080   -4.0940 C   0  0  0  0  0  0  0  0  0  0  0  0
    3.8390  -11.2550   -4.8480 C   0  0  0  0  0  0  0  0  0  0  0  0
    4.0760  -11.1740   -6.2200 C   0  0  0  0  0  0  0  0  0  0  0  0
    4.8520  -12.1470   -6.8500 C   0  0  0  0  0  0  0  0  0  0  0  0
    5.4000  -13.2100   -6.1200 C   0  0  0  0  0  0  0  0  0  0  0  0
    6.2100  -14.2400   -6.8200 C   0  0  0  0  0  0  0  0  0  0  0  0
    6.8060  -15.2230   -6.1120 C   0  0  0  0  0  0  0  0  0  0  0  0
    7.5600  -16.1540   -6.7940 N   0  0  0  0  0  0  0  0  0  0  0  0
    8.2710  -17.2470   -6.3800 C   0  0  0  0  0  0  0  0  0  0  0  0
    8.8120  -17.7790   -7.5330 C   0  0  0  0  0  0  0  0  0  0  0  0
    8.4560  -17.0420   -8.6380 N   0  0  0  0  0  0  0  0  0  0  0  0
    7.7040  -16.0760   -8.1500 C   0  0  0  0  0  0  0  0  0  0  0  0
    7.0540  -14.9960   -8.8690 C   0  0  0  0  0  0  0  0  0  0  0  0
    7.1850  -14.8940  -10.2320 N   0  0  0  0  0  0  0  0  0  0  0  0
    6.5590  -13.8760  -11.0280 C   0  0  0  0  0  0  0  0  0  0  0  0
    7.5410  -12.7630  -11.2880 C   0  0  0  0  0  0  0  0  0  0  0  0
    7.1960  -11.4310  -11.0430 C   0  0  0  0  0  0  0  0  0  0  0  0
    8.1270  -10.4420  -11.3230 C   0  0  0  0  0  0  0  0  0  0  0  0
    9.3540  -10.6870  -11.8280 N   0  0  0  0  0  0  0  0  0  0  0  0
    9.6630  -11.9770  -12.0730 C   0  0  0  0  0  0  0  0  0  0  0  0
    8.8030  -13.0360  -11.8280 C   0  0  0  0  0  0  0  0  0  0  0  0
    6.3410  -14.1170   -8.2010 N   0  0  0  0  0  0  0  0  0  0  0  0
    5.1340  -13.2850   -4.7400 C   0  0  0  0  0  0  0  0  0  0  0  0
    3.6970  -11.9140   -0.4230 H   0  0  0  0  0  0  0  0  0  0  0  0
    2.9220  -14.9089    0.6607 H   0  0  0  0  0  0  0  0  0  0  0  0
    1.2247  -15.5135    2.3818 H   0  0  0  0  0  0  0  0  0  0  0  0
   -0.5936  -13.9110    2.9717 H   0  0  0  0  0  0  0  0  0  0  0  0
   -1.7208   -9.4337    0.7020 H   0  0  0  0  0  0  0  0  0  0  0  0
   -3.6636   -9.2841   -0.8558 H   0  0  0  0  0  0  0  0  0  0  0  0
   -5.0399  -11.3109   -1.3320 H   0  0  0  0  0  0  0  0  0  0  0  0
   -4.4597  -13.4919   -0.2711 H   0  0  0  0  0  0  0  0  0  0  0  0
   -2.5145  -13.6465    1.2869 H   0  0  0  0  0  0  0  0  0  0  0  0
    0.9754  -11.0936    0.0914 H   0  0  0  0  0  0  0  0  0  0  0  0
    4.8070  -11.9730   -2.1080 H   0  0  0  0  0  0  0  0  0  0  0  0
    3.2287  -10.4847   -4.3539 H   0  0  0  0  0  0  0  0  0  0  0  0
    3.6517  -10.3442   -6.8043 H   0  0  0  0  0  0  0  0  0  0  0  0
    5.0358  -12.0790   -7.9324 H   0  0  0  0  0  0  0  0  0  0  0  0
    6.6929  -15.2796   -5.0193 H   0  0  0  0  0  0  0  0  0  0  0  0
    8.3864  -17.6206   -5.3518 H   0  0  0  0  0  0  0  0  0  0  0  0
    9.4464  -18.6771   -7.5640 H   0  0  0  0  0  0  0  0  0  0  0  0
    7.7430  -15.6060  -10.6930 H   0  0  0  0  0  0  0  0  0  0  0  0
    6.2337  -14.3084  -11.9857 H   0  0  0  0  0  0  0  0  0  0  0  0
    5.6871  -13.4758  -10.4898 H   0  0  0  0  0  0  0  0  0  0  0  0
    6.2070  -11.1726  -10.6367 H   0  0  0  0  0  0  0  0  0  0  0  0
    7.8489   -9.3969  -11.1217 H   0  0  0  0  0  0  0  0  0  0  0  0
   10.6552  -12.2015  -12.4916 H   0  0  0  0  0  0  0  0  0  0  0  0
    9.1060  -14.0692  -12.0532 H   0  0  0  0  0  0  0  0  0  0  0  0
    5.5342  -14.1287   -4.1586 H   0  0  0  0  0  0  0  0  0  0  0  0
  1  2  2  0
  2  3  1  0
  3  4  1  0
  4  5  2  0
  5  6  1  0
  6  7  2  0
  7  8  1  0
  8  9  1  0
  9 10  1  0
 10 11  2  0
 11 12  1  0
 12 13  2  0
 13 14  1  0
 14 15  2  0
  8 16  2  0
  2 17  1  0
 17 18  1  0
 18 19  2  0
 19 20  1  0
 20 21  2  0
 21 22  1  0
 22 23  1  0
 23 24  2  0
 24 25  1  0
 25 26  1  0
 26 27  2  0
 27 28  1  0
 28 29  2  0
 29 30  1  0
 30 31  1  0
 31 32  1  0
 32 33  1  0
 33 34  2  0
 34 35  1  0
 35 36  2  0
 36 37  1  0
 37 38  2  0
 30 39  2  0
 22 40  2  0
 16  4  1  0
 40 18  1  0
 15 10  1  0
 39 23  1  0
 29 25  1  0
 38 33  1  0
  3 41  1  0
  5 42  1  0
  6 43  1  0
  7 44  1  0
 11 45  1  0
 12 46  1  0
 13 47  1  0
 14 48  1  0
 15 49  1  0
 16 50  1  0
 17 51  1  0
 19 52  1  0
 20 53  1  0
 21 54  1  0
 24 55  1  0
 26 56  1  0
 27 57  1  0
 31 58  1  0
 32 59  1  0
 32 60  1  0
 34 61  1  0
 35 62  1  0
 37 63  1  0
 38 64  1  0
 40 65  1  0
M  END
>  <meeko>  (3) 
{"is_sidechain": [false], "free_energy": -9.32, "intermolecular_energy": -13.045, "internal_energy": -1.45}

$$$$
LIB_FCRHJSNRFAAYQD__M_PUB_ALL__e8__s20260927
     RDKit          3D

 65 70  0  0  0  0  0  0  0  0999 V2000
    6.8700  -11.5370   -2.8990 O   0  0  0  0  0  0  0  0  0  0  0  0
    6.4230  -12.6600   -3.0870 C   0  0  0  0  0  0  0  0  0  0  0  0
    7.1860  -13.7830   -3.3830 N   0  0  0  0  0  0  0  0  0  0  0  0
    8.5920  -13.8810   -3.4500 C   0  0  0  0  0  0  0  0  0  0  0  0
    9.3160  -13.9870   -4.6400 C   0  0  0  0  0  0  0  0  0  0  0  0
   10.7120  -14.0840   -4.6180 C   0  0  0  0  0  0  0  0  0  0  0  0
   11.3980  -14.0660   -3.4060 C   0  0  0  0  0  0  0  0  0  0  0  0
   10.6860  -13.9340   -2.2170 C   0  0  0  0  0  0  0  0  0  0  0  0
   11.4130  -13.9510   -1.0480 O   0  0  0  0  0  0  0  0  0  0  0  0
   11.7110  -12.7370   -0.4740 C   0  0  0  0  0  0  0  0  0  0  0  0
   12.7600  -12.0080   -1.0370 C   0  0  0  0  0  0  0  0  0  0  0  0
   13.0930  -10.7560   -0.5200 C   0  0  0  0  0  0  0  0  0  0  0  0
   12.3680  -10.2280    0.5500 C   0  0  0  0  0  0  0  0  0  0  0  0
   11.3050  -10.9470    1.0970 C   0  0  0  0  0  0  0  0  0  0  0  0
   10.9690  -12.2000    0.5810 C   0  0  0  0  0  0  0  0  0  0  0  0
    9.2890  -13.8610   -2.2340 C   0  0  0  0  0  0  0  0  0  0  0  0
    5.0770  -12.9970   -3.0290 N   0  0  0  0  0  0  0  0  0  0  0  0
    3.9780  -12.1250   -2.8720 C   0  0  0  0  0  0  0  0  0  0  0  0
    3.7240  -11.2230   -3.9130 C   0  0  0  0  0  0  0  0  0  0  0  0
    2.6600  -10.3250   -3.8310 C   0  0  0  0  0  0  0  0  0  0  0  0
    1.8370  -10.3240   -2.7060 C   0  0  0  0  0  0  0  0  0  0  0  0
    2.0650  -11.2170   -1.6500 C   0  0  0  0  0  0  0  0  0  0  0  0
    1.1800  -11.1820   -0.4560 C   0  0  0  0  0  0  0  0  0  0  0  0
    0.3940  -10.1070   -0.2330 C   0  0  0  0  0  0  0  0  0  0  0  0
   -0.4050  -10.1050    0.8900 N   0  0  0  0  0  0  0  0  0  0  0  0
   -1.2940   -9.1930    1.3880 C   0  0  0  0  0  0  0  0  0  0  0  0
   -1.7800   -9.7620    2.5470 C   0  0  0  0  0  0  0  0  0  0  0  0
   -1.2120  -10.9930    2.7750 N   0  0  0  0  0  0  0  0  0  0  0  0
   -0.3920  -11.1610    1.7560 C   0  0  0  0  0  0  0  0  0  0  0  0
    0.4760  -12.2910    1.4820 C   0  0  0  0  0  0  0  0  0  0  0  0
    0.5090  -13.3650    2.3370 N   0  0  0  0  0  0  0  0  0  0  0  0
    1.3160  -14.5340    2.1340 C   0  0  0  0  0  0  0  0  0  0  0  0
    0.4340  -15.7540    2.0850 C   0  0  0  0  0  0  0  0  0  0  0  0
    0.0310  -16.3940    3.2610 C   0  0  0  0  0  0  0  0  0  0  0  0
   -0.7600  -17.5280    3.1620 C   0  0  0  0  0  0  0  0  0  0  0  0
   -1.1640  -18.0630    1.9900 N   0  0  0  0  0  0  0  0  0  0  0  0
   -0.7510  -17.4410    0.8660 C   0  0  0  0  0  0  0  0  0  0  0  0
    0.0400  -16.3020    0.8600 C   0  0  0  0  0  0  0  0  0  0  0  0
    1.2310  -12.2740    0.4060 N   0  0  0  0  0  0  0  0  0  0  0  0
    3.1540  -12.1020   -1.7420 C   0  0  0  0  0  0  0  0  0  0  0  0
    6.6780  -14.6190   -3.6260 H   0  0  0  0  0  0  0  0  0  0  0  0
    8.7842  -13.9943   -5.6029 H   0  0  0  0  0  0  0  0  0  0  0  0
   11.2697  -14.1748   -5.5618 H   0  0  0  0  0  0  0  0  0  0  0  0
   12.4942  -14.1554   -3.3884 H   0  0  0  0  0  0  0  0  0  0  0  0
   13.3232  -12.4203   -1.8872 H   0  0  0  0  0  0  0  0  0  0  0  0
   13.9264  -10.1849   -0.9551 H   0  0  0  0  0  0  0  0  0  0  0  0
   12.6353   -9.2438    0.9622 H   0  0  0  0  0  0  0  0  0  0  0  0
   10.7310  -10.5263    1.9357 H   0  0  0  0  0  0  0  0  0  0  0  0
   10.1232  -12.7623    1.0035 H   0  0  0  0  0  0  0  0  0  0  0  0
    8.7340  -13.7874   -1.2871 H   0  0  0  0  0  0  0  0  0  0  0  0
    4.8600  -13.9810   -3.0260 H   0  0  0  0  0  0  0  0  0  0  0  0
    4.3697  -11.2229   -4.8035 H   0  0  0  0  0  0  0  0  0  0  0  0
    2.4706   -9.6187   -4.6528 H   0  0  0  0  0  0  0  0  0  0  0  0
    0.9988   -9.6141   -2.6463 H   0  0  0  0  0  0  0  0  0  0  0  0
    0.3914   -9.2554   -0.9292 H   0  0  0  0  0  0  0  0  0  0  0  0
   -1.5633   -8.2171    0.9577 H   0  0  0  0  0  0  0  0  0  0  0  0
   -2.5260   -9.2913    3.2042 H   0  0  0  0  0  0  0  0  0  0  0  0
   -0.1020  -13.3220    3.1480 H   0  0  0  0  0  0  0  0  0  0  0  0
    1.8643  -14.4402    1.1850 H   0  0  0  0  0  0  0  0  0  0  0  0
    2.0311  -14.6331    2.9639 H   0  0  0  0  0  0  0  0  0  0  0  0
    0.3353  -16.0057    4.2442 H   0  0  0  0  0  0  0  0  0  0  0  0
   -1.0772  -18.0209    4.0928 H   0  0  0  0  0  0  0  0  0  0  0  0
   -1.0598  -17.8621   -0.1022 H   0  0  0  0  0  0  0  0  0  0  0  0
    0.3510  -15.8393   -0.0882 H   0  0  0  0  0  0  0  0  0  0  0  0
    3.3619  -12.7896   -0.9090 H   0  0  0  0  0  0  0  0  0  0  0  0
  1  2  2  0
  2  3  1  0
  3  4  1  0
  4  5  2  0
  5  6  1  0
  6  7  2  0
  7  8  1  0
  8  9  1  0
  9 10  1  0
 10 11  2  0
 11 12  1  0
 12 13  2  0
 13 14  1  0
 14 15  2  0
  8 16  2  0
  2 17  1  0
 17 18  1  0
 18 19  2  0
 19 20  1  0
 20 21  2  0
 21 22  1  0
 22 23  1  0
 23 24  2  0
 24 25  1  0
 25 26  1  0
 26 27  2  0
 27 28  1  0
 28 29  2  0
 29 30  1  0
 30 31  1  0
 31 32  1  0
 32 33  1  0
 33 34  2  0
 34 35  1  0
 35 36  2  0
 36 37  1  0
 37 38  2  0
 30 39  2  0
 22 40  2  0
 16  4  1  0
 40 18  1  0
 15 10  1  0
 39 23  1  0
 29 25  1  0
 38 33  1  0
  3 41  1  0
  5 42  1  0
  6 43  1  0
  7 44  1  0
 11 45  1  0
 12 46  1  0
 13 47  1  0
 14 48  1  0
 15 49  1  0
 16 50  1  0
 17 51  1  0
 19 52  1  0
 20 53  1  0
 21 54  1  0
 24 55  1  0
 26 56  1  0
 27 57  1  0
 31 58  1  0
 32 59  1  0
 32 60  1  0
 34 61  1  0
 35 62  1  0
 37 63  1  0
 38 64  1  0
 40 65  1  0
M  END
>  <meeko>  (4) 
{"is_sidechain": [false], "free_energy": -9.306, "intermolecular_energy": -13.247, "internal_energy": -1.228}

$$$$
LIB_FCRHJSNRFAAYQD__M_PUB_ALL__e8__s20260927
     RDKit          3D

 65 70  0  0  0  0  0  0  0  0999 V2000
    6.8850  -10.8060   -0.8830 O   0  0  0  0  0  0  0  0  0  0  0  0
    6.8340  -11.9550   -1.3010 C   0  0  0  0  0  0  0  0  0  0  0  0
    7.9220  -12.8090   -1.4240 N   0  0  0  0  0  0  0  0  0  0  0  0
    9.2580  -12.5690   -1.0360 C   0  0  0  0  0  0  0  0  0  0  0  0
    9.6660  -12.3500    0.2820 C   0  0  0  0  0  0  0  0  0  0  0  0
   11.0120  -12.1140    0.5810 C   0  0  0  0  0  0  0  0  0  0  0  0
   11.9660  -12.1050   -0.4330 C   0  0  0  0  0  0  0  0  0  0  0  0
   11.5720  -12.3490   -1.7460 C   0  0  0  0  0  0  0  0  0  0  0  0
   12.5520  -12.3000   -2.7120 O   0  0  0  0  0  0  0  0  0  0  0  0
   12.7920  -13.4520   -3.4250 C   0  0  0  0  0  0  0  0  0  0  0  0
   12.8500  -13.3380   -4.8150 C   0  0  0  0  0  0  0  0  0  0  0  0
   13.1180  -14.4630   -5.5940 C   0  0  0  0  0  0  0  0  0  0  0  0
   13.3430  -15.6970   -4.9830 C   0  0  0  0  0  0  0  0  0  0  0  0
   13.3090  -15.8060   -3.5920 C   0  0  0  0  0  0  0  0  0  0  0  0
   13.0400  -14.6820   -2.8100 C   0  0  0  0  0  0  0  0  0  0  0  0
   10.2230  -12.5600   -2.0520 C   0  0  0  0  0  0  0  0  0  0  0  0
    5.6730  -12.5960   -1.7150 N   0  0  0  0  0  0  0  0  0  0  0  0
    4.3840  -12.0380   -1.8530 C   0  0  0  0  0  0  0  0  0  0  0  0
    4.0580  -11.4850   -3.0980 C   0  0  0  0  0  0  0  0  0  0  0  0
    2.8060  -10.9090   -3.3130 C   0  0  0  0  0  0  0  0  0  0  0  0
    1.8660  -10.8840   -2.2830 C   0  0  0  0  0  0  0  0  0  0  0  0
    2.1630  -11.4320   -1.0280 C   0  0  0  0  0  0  0  0  0  0  0  0
    1.1480  -11.3780    0.0550 C   0  0  0  0  0  0  0  0  0  0  0  0
    0.3500  -10.2950    0.1760 C   0  0  0  0  0  0  0  0  0  0  0  0
   -0.5720  -10.2750    1.2000 N   0  0  0  0  0  0  0  0  0  0  0  0
   -1.5050   -9.3500    1.5820 C   0  0  0  0  0  0  0  0  0  0  0  0
   -2.1260   -9.9030    2.6830 C   0  0  0  0  0  0  0  0  0  0  0  0
   -1.5990  -11.1360    2.9870 N   0  0  0  0  0  0  0  0  0  0  0  0
   -0.6690  -11.3210    2.0720 C   0  0  0  0  0  0  0  0  0  0  0  0
    0.2160  -12.4600    1.9110 C   0  0  0  0  0  0  0  0  0  0  0  0
    0.1410  -13.5240    2.7760 N   0  0  0  0  0  0  0  0  0  0  0  0
    0.9570  -14.7020    2.6780 C   0  0  0  0  0  0  0  0  0  0  0  0
    0.0770  -15.9110    2.4910 C   0  0  0  0  0  0  0  0  0  0  0  0
   -0.3720  -16.2790    1.2190 C   0  0  0  0  0  0  0  0  0  0  0  0
   -1.2010  -17.3840    1.1030 C   0  0  0  0  0  0  0  0  0  0  0  0
   -1.6100  -18.1310    2.1500 N   0  0  0  0  0  0  0  0  0  0  0  0
   -1.1790  -17.7500    3.3710 C   0  0  0  0  0  0  0  0  0  0  0  0
   -0.3490  -16.6610    3.5920 C   0  0  0  0  0  0  0  0  0  0  0  0
    1.0900  -12.4610    0.9300 N   0  0  0  0  0  0  0  0  0  0  0  0
    3.4380  -11.9920   -0.8250 C   0  0  0  0  0  0  0  0  0  0  0  0
    7.7550  -13.6860   -1.8900 H   0  0  0  0  0  0  0  0  0  0  0  0
    8.9220  -12.3633    1.0921 H   0  0  0  0  0  0  0  0  0  0  0  0
   11.3181  -11.9347    1.6222 H   0  0  0  0  0  0  0  0  0  0  0  0
   13.0223  -11.9068   -0.1988 H   0  0  0  0  0  0  0  0  0  0  0  0
   12.6845  -12.3622   -5.2951 H   0  0  0  0  0  0  0  0  0  0  0  0
   13.1520  -14.3776   -6.6902 H   0  0  0  0  0  0  0  0  0  0  0  0
   13.5475  -16.5854   -5.5986 H   0  0  0  0  0  0  0  0  0  0  0  0
   13.4943  -16.7782   -3.1120 H   0  0  0  0  0  0  0  0  0  0  0  0
   13.0232  -14.7639   -1.7132 H   0  0  0  0  0  0  0  0  0  0  0  0
    9.9181  -12.7198   -3.0967 H   0  0  0  0  0  0  0  0  0  0  0  0
    5.7380  -13.5900   -1.8660 H   0  0  0  0  0  0  0  0  0  0  0  0
    4.7960  -11.5052   -3.9135 H   0  0  0  0  0  0  0  0  0  0  0  0
    2.5604  -10.4751   -4.2935 H   0  0  0  0  0  0  0  0  0  0  0  0
    0.8800  -10.4288   -2.4578 H   0  0  0  0  0  0  0  0  0  0  0  0
    0.4339   -9.4510   -0.5245 H   0  0  0  0  0  0  0  0  0  0  0  0
   -1.7144   -8.3771    1.1133 H   0  0  0  0  0  0  0  0  0  0  0  0
   -2.9384   -9.4195    3.2454 H   0  0  0  0  0  0  0  0  0  0  0  0
   -0.5580  -13.4680    3.5100 H   0  0  0  0  0  0  0  0  0  0  0  0
    1.6361  -14.6067    1.8179 H   0  0  0  0  0  0  0  0  0  0  0  0
    1.5456  -14.8171    3.6002 H   0  0  0  0  0  0  0  0  0  0  0  0
   -0.0739  -15.7042    0.3297 H   0  0  0  0  0  0  0  0  0  0  0  0
   -1.5459  -17.6689    0.0981 H   0  0  0  0  0  0  0  0  0  0  0  0
   -1.5051  -18.3376    4.2418 H   0  0  0  0  0  0  0  0  0  0  0  0
   -0.0327  -16.3930    4.6109 H   0  0  0  0  0  0  0  0  0  0  0  0
    3.6954  -12.4019    0.1628 H   0  0  0  0  0  0  0  0  0  0  0  0
  1  2  2  0
  2  3  1  0
  3  4  1  0
  4  5  2  0
  5  6  1  0
  6  7  2  0
  7  8  1  0
  8  9  1  0
  9 10  1  0
 10 11  2  0
 11 12  1  0
 12 13  2  0
 13 14  1  0
 14 15  2  0
  8 16  2  0
  2 17  1  0
 17 18  1  0
 18 19  2  0
 19 20  1  0
 20 21  2  0
 21 22  1  0
 22 23  1  0
 23 24  2  0
 24 25  1  0
 25 26  1  0
 26 27  2  0
 27 28  1  0
 28 29  2  0
 29 30  1  0
 30 31  1  0
 31 32  1  0
 32 33  1  0
 33 34  2  0
 34 35  1  0
 35 36  2  0
 36 37  1  0
 37 38  2  0
 30 39  2  0
 22 40  2  0
 16  4  1  0
 40 18  1  0
 15 10  1  0
 39 23  1  0
 29 25  1  0
 38 33  1  0
  3 41  1  0
  5 42  1  0
  6 43  1  0
  7 44  1  0
 11 45  1  0
 12 46  1  0
 13 47  1  0
 14 48  1  0
 15 49  1  0
 16 50  1  0
 17 51  1  0
 19 52  1  0
 20 53  1  0
 21 54  1  0
 24 55  1  0
 26 56  1  0
 27 57  1  0
 31 58  1  0
 32 59  1  0
 32 60  1  0
 34 61  1  0
 35 62  1  0
 37 63  1  0
 38 64  1  0
 40 65  1  0
M  END
>  <meeko>  (5) 
{"is_sidechain": [false], "free_energy": -9.245, "intermolecular_energy": -13.001, "internal_energy": -1.388}

$$$$
LIB_FCRHJSNRFAAYQD__M_PUB_ALL__e8__s20260927
     RDKit          3D

 65 70  0  0  0  0  0  0  0  0999 V2000
    6.9770  -13.4470   -0.2300 O   0  0  0  0  0  0  0  0  0  0  0  0
    7.2350  -12.4720   -0.9220 C   0  0  0  0  0  0  0  0  0  0  0  0
    8.5040  -11.9390   -1.1090 N   0  0  0  0  0  0  0  0  0  0  0  0
    9.7310  -12.4370   -0.6220 C   0  0  0  0  0  0  0  0  0  0  0  0
   10.3120  -12.0490    0.5880 C   0  0  0  0  0  0  0  0  0  0  0  0
   11.5370  -12.5890    0.9950 C   0  0  0  0  0  0  0  0  0  0  0  0
   12.1890  -13.5300    0.2030 C   0  0  0  0  0  0  0  0  0  0  0  0
   11.6040  -13.9430   -0.9920 C   0  0  0  0  0  0  0  0  0  0  0  0
   12.3050  -14.8530   -1.7490 O   0  0  0  0  0  0  0  0  0  0  0  0
   12.5540  -14.5240   -3.0610 C   0  0  0  0  0  0  0  0  0  0  0  0
   11.9250  -15.2950   -4.0400 C   0  0  0  0  0  0  0  0  0  0  0  0
   12.1120  -14.9950   -5.3880 C   0  0  0  0  0  0  0  0  0  0  0  0
   12.9150  -13.9140   -5.7580 C   0  0  0  0  0  0  0  0  0  0  0  0
   13.5240  -13.1280   -4.7780 C   0  0  0  0  0  0  0  0  0  0  0  0
   13.3380  -13.4270   -3.4270 C   0  0  0  0  0  0  0  0  0  0  0  0
   10.3920  -13.3860   -1.4140 C   0  0  0  0  0  0  0  0  0  0  0  0
    6.2970  -11.7400   -1.6400 N   0  0  0  0  0  0  0  0  0  0  0  0
    4.8940  -11.8870   -1.6220 C   0  0  0  0  0  0  0  0  0  0  0  0
    4.1900  -11.4400   -2.7470 C   0  0  0  0  0  0  0  0  0  0  0  0
    2.8010  -11.5440   -2.8030 C   0  0  0  0  0  0  0  0  0  0  0  0
    2.1010  -12.1010   -1.7330 C   0  0  0  0  0  0  0  0  0  0  0  0
    2.7790  -12.5600   -0.5950 C   0  0  0  0  0  0  0  0  0  0  0  0
    2.0070  -13.1340    0.5370 C   0  0  0  0  0  0  0  0  0  0  0  0
    2.3980  -14.2990    1.0960 C   0  0  0  0  0  0  0  0  0  0  0  0
    1.6510  -14.8080    2.1360 N   0  0  0  0  0  0  0  0  0  0  0  0
    1.7790  -15.9360    2.8980 C   0  0  0  0  0  0  0  0  0  0  0  0
    0.7190  -15.8950    3.7800 C   0  0  0  0  0  0  0  0  0  0  0  0
   -0.0550  -14.7770    3.5780 N   0  0  0  0  0  0  0  0  0  0  0  0
    0.5390  -14.1510    2.5820 C   0  0  0  0  0  0  0  0  0  0  0  0
    0.1490  -12.9070    1.9440 C   0  0  0  0  0  0  0  0  0  0  0  0
   -0.9650  -12.2290    2.3720 N   0  0  0  0  0  0  0  0  0  0  0  0
   -1.4120  -10.9810    1.8190 C   0  0  0  0  0  0  0  0  0  0  0  0
   -2.6690  -11.2050    1.0200 C   0  0  0  0  0  0  0  0  0  0  0  0
   -3.0070  -10.3530   -0.0360 C   0  0  0  0  0  0  0  0  0  0  0  0
   -4.1880  -10.5860   -0.7240 C   0  0  0  0  0  0  0  0  0  0  0  0
   -5.0420  -11.5890   -0.4330 N   0  0  0  0  0  0  0  0  0  0  0  0
   -4.7060  -12.3910    0.6000 C   0  0  0  0  0  0  0  0  0  0  0  0
   -3.5500  -12.2400    1.3490 C   0  0  0  0  0  0  0  0  0  0  0  0
    0.8740  -12.4390    0.9530 N   0  0  0  0  0  0  0  0  0  0  0  0
    4.1790  -12.4290   -0.5490 C   0  0  0  0  0  0  0  0  0  0  0  0
    8.5550  -11.0670   -1.6110 H   0  0  0  0  0  0  0  0  0  0  0  0
    9.8019  -11.3125    1.2263 H   0  0  0  0  0  0  0  0  0  0  0  0
   11.9873  -12.2682    1.9460 H   0  0  0  0  0  0  0  0  0  0  0  0
   13.1581  -13.9441    0.5181 H   0  0  0  0  0  0  0  0  0  0  0  0
   11.2823  -16.1386   -3.7477 H   0  0  0  0  0  0  0  0  0  0  0  0
   11.6271  -15.6097   -6.1606 H   0  0  0  0  0  0  0  0  0  0  0  0
   13.0678  -13.6817   -6.8223 H   0  0  0  0  0  0  0  0  0  0  0  0
   14.1507  -12.2726   -5.0705 H   0  0  0  0  0  0  0  0  0  0  0  0
   13.8070  -12.8011   -2.6535 H   0  0  0  0  0  0  0  0  0  0  0  0
    9.9544  -13.6952   -2.3747 H   0  0  0  0  0  0  0  0  0  0  0  0
    6.6600  -11.0760   -2.3060 H   0  0  0  0  0  0  0  0  0  0  0  0
    4.7382  -11.0027   -3.5945 H   0  0  0  0  0  0  0  0  0  0  0  0
    2.2576  -11.1871   -3.6903 H   0  0  0  0  0  0  0  0  0  0  0  0
    1.0050  -12.1810   -1.7825 H   0  0  0  0  0  0  0  0  0  0  0  0
    3.2902  -14.8285    0.7305 H   0  0  0  0  0  0  0  0  0  0  0  0
    2.5583  -16.7088    2.8239 H   0  0  0  0  0  0  0  0  0  0  0  0
    0.5189  -16.6585    4.5462 H   0  0  0  0  0  0  0  0  0  0  0  0
   -1.4810  -12.6380    3.1460 H   0  0  0  0  0  0  0  0  0  0  0  0
   -1.6177  -10.2718    2.6343 H   0  0  0  0  0  0  0  0  0  0  0  0
   -0.6300  -10.5705    1.1632 H   0  0  0  0  0  0  0  0  0  0  0  0
   -2.3501   -9.5159   -0.3149 H   0  0  0  0  0  0  0  0  0  0  0  0
   -4.4437   -9.9135   -1.5561 H   0  0  0  0  0  0  0  0  0  0  0  0
   -5.3896  -13.2119    0.8622 H   0  0  0  0  0  0  0  0  0  0  0  0
   -3.3299  -12.9202    2.1850 H   0  0  0  0  0  0  0  0  0  0  0  0
    4.7221  -12.7594    0.3487 H   0  0  0  0  0  0  0  0  0  0  0  0
  1  2  2  0
  2  3  1  0
  3  4  1  0
  4  5  2  0
  5  6  1  0
  6  7  2  0
  7  8  1  0
  8  9  1  0
  9 10  1  0
 10 11  2  0
 11 12  1  0
 12 13  2  0
 13 14  1  0
 14 15  2  0
  8 16  2  0
  2 17  1  0
 17 18  1  0
 18 19  2  0
 19 20  1  0
 20 21  2  0
 21 22  1  0
 22 23  1  0
 23 24  2  0
 24 25  1  0
 25 26  1  0
 26 27  2  0
 27 28  1  0
 28 29  2  0
 29 30  1  0
 30 31  1  0
 31 32  1  0
 32 33  1  0
 33 34  2  0
 34 35  1  0
 35 36  2  0
 36 37  1  0
 37 38  2  0
 30 39  2  0
 22 40  2  0
 16  4  1  0
 40 18  1  0
 15 10  1  0
 39 23  1  0
 29 25  1  0
 38 33  1  0
  3 41  1  0
  5 42  1  0
  6 43  1  0
  7 44  1  0
 11 45  1  0
 12 46  1  0
 13 47  1  0
 14 48  1  0
 15 49  1  0
 16 50  1  0
 17 51  1  0
 19 52  1  0
 20 53  1  0
 21 54  1  0
 24 55  1  0
 26 56  1  0
 27 57  1  0
 31 58  1  0
 32 59  1  0
 32 60  1  0
 34 61  1  0
 35 62  1  0
 37 63  1  0
 38 64  1  0
 40 65  1  0
M  END
>  <meeko>  (6) 
{"is_sidechain": [false], "free_energy": -8.973, "intermolecular_energy": -12.885, "internal_energy": -1.121}

$$$$
LIB_FCRHJSNRFAAYQD__M_PUB_ALL__e8__s20260927
     RDKit          3D

 65 70  0  0  0  0  0  0  0  0999 V2000
    1.4230  -13.8190   -1.2650 O   0  0  0  0  0  0  0  0  0  0  0  0
    0.9180  -14.4530   -2.1810 C   0  0  0  0  0  0  0  0  0  0  0  0
   -0.1500  -15.3300   -2.0500 N   0  0  0  0  0  0  0  0  0  0  0  0
   -0.9040  -15.6080   -0.8890 C   0  0  0  0  0  0  0  0  0  0  0  0
   -0.7080  -16.7260   -0.0740 C   0  0  0  0  0  0  0  0  0  0  0  0
   -1.5050  -16.9290    1.0590 C   0  0  0  0  0  0  0  0  0  0  0  0
   -2.4980  -16.0120    1.3930 C   0  0  0  0  0  0  0  0  0  0  0  0
   -2.6830  -14.8820    0.6010 C   0  0  0  0  0  0  0  0  0  0  0  0
   -3.6970  -14.0250    0.9610 O   0  0  0  0  0  0  0  0  0  0  0  0
   -3.5020  -12.6830    0.7260 C   0  0  0  0  0  0  0  0  0  0  0  0
   -2.5710  -12.0270    1.5330 C   0  0  0  0  0  0  0  0  0  0  0  0
   -2.3050  -10.6730    1.3270 C   0  0  0  0  0  0  0  0  0  0  0  0
   -2.9590   -9.9810    0.3060 C   0  0  0  0  0  0  0  0  0  0  0  0
   -3.8720  -10.6450   -0.5150 C   0  0  0  0  0  0  0  0  0  0  0  0
   -4.1400  -11.9990   -0.3110 C   0  0  0  0  0  0  0  0  0  0  0  0
   -1.9050  -14.6880   -0.5460 C   0  0  0  0  0  0  0  0  0  0  0  0
    1.3300  -14.3940   -3.5060 N   0  0  0  0  0  0  0  0  0  0  0  0
    2.4510  -13.7140   -4.0300 C   0  0  0  0  0  0  0  0  0  0  0  0
    2.3050  -12.3450   -4.2850 C   0  0  0  0  0  0  0  0  0  0  0  0
    3.3640  -11.6030   -4.8080 C   0  0  0  0  0  0  0  0  0  0  0  0
    4.5820  -12.2260   -5.0780 C   0  0  0  0  0  0  0  0  0  0  0  0
    4.7580  -13.5940   -4.8300 C   0  0  0  0  0  0  0  0  0  0  0  0
    6.0620  -14.2340   -5.1410 C   0  0  0  0  0  0  0  0  0  0  0  0
    6.0960  -15.3830   -5.8500 C   0  0  0  0  0  0  0  0  0  0  0  0
    7.3230  -15.9540   -6.1100 N   0  0  0  0  0  0  0  0  0  0  0  0
    7.6890  -17.0860   -6.7850 C   0  0  0  0  0  0  0  0  0  0  0  0
    9.0650  -17.1240   -6.7000 C   0  0  0  0  0  0  0  0  0  0  0  0
    9.5520  -16.0520   -5.9900 N   0  0  0  0  0  0  0  0  0  0  0  0
    8.4720  -15.3740   -5.6540 C   0  0  0  0  0  0  0  0  0  0  0  0
    8.3880  -14.1450   -4.8870 C   0  0  0  0  0  0  0  0  0  0  0  0
    9.5290  -13.5420   -4.4160 N   0  0  0  0  0  0  0  0  0  0  0  0
    9.5440  -12.3140   -3.6720 C   0  0  0  0  0  0  0  0  0  0  0  0
   10.0290  -12.5800   -2.2710 C   0  0  0  0  0  0  0  0  0  0  0  0
    9.1660  -12.4550   -1.1780 C   0  0  0  0  0  0  0  0  0  0  0  0
    9.6680  -12.6850    0.0940 C   0  0  0  0  0  0  0  0  0  0  0  0
   10.9510  -13.0190    0.3460 N   0  0  0  0  0  0  0  0  0  0  0  0
   11.7720  -13.1190   -0.7190 C   0  0  0  0  0  0  0  0  0  0  0  0
   11.3670  -12.9090   -2.0290 C   0  0  0  0  0  0  0  0  0  0  0  0
    7.2090  -13.6160   -4.6490 N   0  0  0  0  0  0  0  0  0  0  0  0
    3.6720  -14.3290   -4.3190 C   0  0  0  0  0  0  0  0  0  0  0  0
   -0.3900  -15.8720   -2.8650 H   0  0  0  0  0  0  0  0  0  0  0  0
    0.0789  -17.4526   -0.3247 H   0  0  0  0  0  0  0  0  0  0  0  0
   -1.3459  -17.8171    1.6882 H   0  0  0  0  0  0  0  0  0  0  0  0
   -3.1319  -16.1791    2.2763 H   0  0  0  0  0  0  0  0  0  0  0  0
   -2.0481  -12.5764    2.3297 H   0  0  0  0  0  0  0  0  0  0  0  0
   -1.5802  -10.1509    1.9689 H   0  0  0  0  0  0  0  0  0  0  0  0
   -2.7547   -8.9117    0.1484 H   0  0  0  0  0  0  0  0  0  0  0  0
   -4.3808  -10.1001   -1.3238 H   0  0  0  0  0  0  0  0  0  0  0  0
   -4.8511  -12.5257   -0.9645 H   0  0  0  0  0  0  0  0  0  0  0  0
   -2.0799  -13.8081   -1.1826 H   0  0  0  0  0  0  0  0  0  0  0  0
    0.7220  -14.8240   -4.1850 H   0  0  0  0  0  0  0  0  0  0  0  0
    1.3463  -11.8501   -4.0709 H   0  0  0  0  0  0  0  0  0  0  0  0
    3.2386  -10.5285   -5.0071 H   0  0  0  0  0  0  0  0  0  0  0  0
    5.4143  -11.6368   -5.4904 H   0  0  0  0  0  0  0  0  0  0  0  0
    5.1682  -15.8510   -6.2107 H   0  0  0  0  0  0  0  0  0  0  0  0
    7.0291  -17.8091   -7.2867 H   0  0  0  0  0  0  0  0  0  0  0  0
    9.6925  -17.9111   -7.1434 H   0  0  0  0  0  0  0  0  0  0  0  0
   10.4110  -13.9950   -4.6380 H   0  0  0  0  0  0  0  0  0  0  0  0
   10.2178  -11.5964   -4.1629 H   0  0  0  0  0  0  0  0  0  0  0  0
    8.5270  -11.8964   -3.6342 H   0  0  0  0  0  0  0  0  0  0  0  0
    8.1110  -12.1800   -1.3241 H   0  0  0  0  0  0  0  0  0  0  0  0
    8.9804  -12.5897    0.9473 H   0  0  0  0  0  0  0  0  0  0  0  0
   12.8246  -13.3825   -0.5384 H   0  0  0  0  0  0  0  0  0  0  0  0
   12.0825  -12.9992   -2.8596 H   0  0  0  0  0  0  0  0  0  0  0  0
    3.7866  -15.4089   -4.1437 H   0  0  0  0  0  0  0  0  0  0  0  0
  1  2  2  0
  2  3  1  0
  3  4  1  0
  4  5  2  0
  5  6  1  0
  6  7  2  0
  7  8  1  0
  8  9  1  0
  9 10  1  0
 10 11  2  0
 11 12  1  0
 12 13  2  0
 13 14  1  0
 14 15  2  0
  8 16  2  0
  2 17  1  0
 17 18  1  0
 18 19  2  0
 19 20  1  0
 20 21  2  0
 21 22  1  0
 22 23  1  0
 23 24  2  0
 24 25  1  0
 25 26  1  0
 26 27  2  0
 27 28  1  0
 28 29  2  0
 29 30  1  0
 30 31  1  0
 31 32  1  0
 32 33  1  0
 33 34  2  0
 34 35  1  0
 35 36  2  0
 36 37  1  0
 37 38  2  0
 30 39  2  0
 22 40  2  0
 16  4  1  0
 40 18  1  0
 15 10  1  0
 39 23  1  0
 29 25  1  0
 38 33  1  0
  3 41  1  0
  5 42  1  0
  6 43  1  0
  7 44  1  0
 11 45  1  0
 12 46  1  0
 13 47  1  0
 14 48  1  0
 15 49  1  0
 16 50  1  0
 17 51  1  0
 19 52  1  0
 20 53  1  0
 21 54  1  0
 24 55  1  0
 26 56  1  0
 27 57  1  0
 31 58  1  0
 32 59  1  0
 32 60  1  0
 34 61  1  0
 35 62  1  0
 37 63  1  0
 38 64  1  0
 40 65  1  0
M  END
>  <meeko>  (7) 
{"is_sidechain": [false], "free_energy": -8.926, "intermolecular_energy": -12.588, "internal_energy": -1.352}

$$$$
LIB_FCRHJSNRFAAYQD__M_PUB_ALL__e8__s20260927
     RDKit          3D

 65 70  0  0  0  0  0  0  0  0999 V2000
    5.9700  -12.6340   -5.8000 O   0  0  0  0  0  0  0  0  0  0  0  0
    5.8060  -13.8450   -5.8650 C   0  0  0  0  0  0  0  0  0  0  0  0
    4.8790  -14.5660   -5.1230 N   0  0  0  0  0  0  0  0  0  0  0  0
    3.9110  -14.0640   -4.2260 C   0  0  0  0  0  0  0  0  0  0  0  0
    2.8430  -13.2450   -4.6000 C   0  0  0  0  0  0  0  0  0  0  0  0
    1.9300  -12.7860   -3.6450 C   0  0  0  0  0  0  0  0  0  0  0  0
    2.0680  -13.1510   -2.3080 C   0  0  0  0  0  0  0  0  0  0  0  0
    3.1140  -13.9890   -1.9310 C   0  0  0  0  0  0  0  0  0  0  0  0
    3.2190  -14.2940   -0.5930 O   0  0  0  0  0  0  0  0  0  0  0  0
    4.2680  -13.7360    0.1000 C   0  0  0  0  0  0  0  0  0  0  0  0
    5.2620  -14.6040    0.5540 C   0  0  0  0  0  0  0  0  0  0  0  0
    6.3680  -14.0970    1.2380 C   0  0  0  0  0  0  0  0  0  0  0  0
    6.4850  -12.7230    1.4540 C   0  0  0  0  0  0  0  0  0  0  0  0
    5.5020  -11.8540    0.9780 C   0  0  0  0  0  0  0  0  0  0  0  0
    4.3950  -12.3580    0.2940 C   0  0  0  0  0  0  0  0  0  0  0  0
    4.0440  -14.4290   -2.8800 C   0  0  0  0  0  0  0  0  0  0  0  0
    6.5190  -14.6970   -6.6990 N   0  0  0  0  0  0  0  0  0  0  0  0
    7.6210  -14.3750   -7.5190 C   0  0  0  0  0  0  0  0  0  0  0  0
    7.3460  -13.7610   -8.7470 C   0  0  0  0  0  0  0  0  0  0  0  0
    8.3810  -13.4170   -9.6170 C   0  0  0  0  0  0  0  0  0  0  0  0
    9.7030  -13.6820   -9.2630 C   0  0  0  0  0  0  0  0  0  0  0  0
   10.0090  -14.2930   -8.0390 C   0  0  0  0  0  0  0  0  0  0  0  0
   11.4260  -14.5770   -7.6960 C   0  0  0  0  0  0  0  0  0  0  0  0
   12.3320  -14.7670   -8.6790 C   0  0  0  0  0  0  0  0  0  0  0  0
   13.6350  -15.0400   -8.3230 N   0  0  0  0  0  0  0  0  0  0  0  0
   14.7630  -15.2730   -9.0600 C   0  0  0  0  0  0  0  0  0  0  0  0
   15.7610  -15.4860   -8.1310 C   0  0  0  0  0  0  0  0  0  0  0  0
   15.2760  -15.3920   -6.8480 N   0  0  0  0  0  0  0  0  0  0  0  0
   13.9950  -15.1230   -7.0080 C   0  0  0  0  0  0  0  0  0  0  0  0
   12.9870  -14.9230   -5.9840 C   0  0  0  0  0  0  0  0  0  0  0  0
   13.3220  -15.0030   -4.6550 N   0  0  0  0  0  0  0  0  0  0  0  0
   12.3980  -14.7950   -3.5760 C   0  0  0  0  0  0  0  0  0  0  0  0
   12.6830  -13.4700   -2.9170 C   0  0  0  0  0  0  0  0  0  0  0  0
   13.6830  -12.6260   -3.4090 C   0  0  0  0  0  0  0  0  0  0  0  0
   13.9240  -11.4290   -2.7510 C   0  0  0  0  0  0  0  0  0  0  0  0
   13.2530  -11.0280   -1.6510 N   0  0  0  0  0  0  0  0  0  0  0  0
   12.3030  -11.8640   -1.1820 C   0  0  0  0  0  0  0  0  0  0  0  0
   11.9880  -13.0800   -1.7680 C   0  0  0  0  0  0  0  0  0  0  0  0
   11.7490  -14.6650   -6.3440 N   0  0  0  0  0  0  0  0  0  0  0  0
    8.9510  -14.6500   -7.1840 C   0  0  0  0  0  0  0  0  0  0  0  0
    4.9310  -15.5690   -5.1930 H   0  0  0  0  0  0  0  0  0  0  0  0
    2.7189  -12.9585   -5.6548 H   0  0  0  0  0  0  0  0  0  0  0  0
    1.0990  -12.1336   -3.9513 H   0  0  0  0  0  0  0  0  0  0  0  0
    1.3562  -12.7801   -1.5558 H   0  0  0  0  0  0  0  0  0  0  0  0
    5.1740  -15.6855    0.3732 H   0  0  0  0  0  0  0  0  0  0  0  0
    7.1473  -14.7801    1.6068 H   0  0  0  0  0  0  0  0  0  0  0  0
    7.3529  -12.3246    2.0000 H   0  0  0  0  0  0  0  0  0  0  0  0
    5.6000  -10.7707    1.1422 H   0  0  0  0  0  0  0  0  0  0  0  0
    3.6252  -11.6731   -0.0910 H   0  0  0  0  0  0  0  0  0  0  0  0
    4.8847  -15.0655   -2.5669 H   0  0  0  0  0  0  0  0  0  0  0  0
    6.1670  -15.6380   -6.7870 H   0  0  0  0  0  0  0  0  0  0  0  0
    6.3042  -13.5479   -9.0284 H   0  0  0  0  0  0  0  0  0  0  0  0
    8.1542  -12.9375  -10.5807 H   0  0  0  0  0  0  0  0  0  0  0  0
   10.5156  -13.4085   -9.9522 H   0  0  0  0  0  0  0  0  0  0  0  0
   12.0375  -14.7054   -9.7371 H   0  0  0  0  0  0  0  0  0  0  0  0
   14.8550  -15.2875  -10.1561 H   0  0  0  0  0  0  0  0  0  0  0  0
   16.8092  -15.7030   -8.3843 H   0  0  0  0  0  0  0  0  0  0  0  0
   14.2950  -15.1990   -4.4400 H   0  0  0  0  0  0  0  0  0  0  0  0
   11.3704  -14.7955   -3.9684 H   0  0  0  0  0  0  0  0  0  0  0  0
   12.5097  -15.6026   -2.8376 H   0  0  0  0  0  0  0  0  0  0  0  0
   14.2662  -12.9052   -4.2989 H   0  0  0  0  0  0  0  0  0  0  0  0
   14.7079  -10.7679   -3.1491 H   0  0  0  0  0  0  0  0  0  0  0  0
   11.7463  -11.5629   -0.2823 H   0  0  0  0  0  0  0  0  0  0  0  0
   11.2074  -13.7249   -1.3381 H   0  0  0  0  0  0  0  0  0  0  0  0
    9.1738  -15.1556   -6.2328 H   0  0  0  0  0  0  0  0  0  0  0  0
  1  2  2  0
  2  3  1  0
  3  4  1  0
  4  5  2  0
  5  6  1  0
  6  7  2  0
  7  8  1  0
  8  9  1  0
  9 10  1  0
 10 11  2  0
 11 12  1  0
 12 13  2  0
 13 14  1  0
 14 15  2  0
  8 16  2  0
  2 17  1  0
 17 18  1  0
 18 19  2  0
 19 20  1  0
 20 21  2  0
 21 22  1  0
 22 23  1  0
 23 24  2  0
 24 25  1  0
 25 26  1  0
 26 27  2  0
 27 28  1  0
 28 29  2  0
 29 30  1  0
 30 31  1  0
 31 32  1  0
 32 33  1  0
 33 34  2  0
 34 35  1  0
 35 36  2  0
 36 37  1  0
 37 38  2  0
 30 39  2  0
 22 40  2  0
 16  4  1  0
 40 18  1  0
 15 10  1  0
 39 23  1  0
 29 25  1  0
 38 33  1  0
  3 41  1  0
  5 42  1  0
  6 43  1  0
  7 44  1  0
 11 45  1  0
 12 46  1  0
 13 47  1  0
 14 48  1  0
 15 49  1  0
 16 50  1  0
 17 51  1  0
 19 52  1  0
 20 53  1  0
 21 54  1  0
 24 55  1  0
 26 56  1  0
 27 57  1  0
 31 58  1  0
 32 59  1  0
 32 60  1  0
 34 61  1  0
 35 62  1  0
 37 63  1  0
 38 64  1  0
 40 65  1  0
M  END
>  <meeko>  (8) 
{"is_sidechain": [false], "free_energy": -8.715, "intermolecular_energy": -12.198, "internal_energy": -1.444}

$$$$
LIB_FCRHJSNRFAAYQD__M_PUB_ALL__e8__s20260927
     RDKit          3D

 65 70  0  0  0  0  0  0  0  0999 V2000
    3.8350  -14.2160    0.1620 O   0  0  0  0  0  0  0  0  0  0  0  0
    3.5960  -13.1730   -0.4320 C   0  0  0  0  0  0  0  0  0  0  0  0
    2.3560  -12.8120   -0.9430 N   0  0  0  0  0  0  0  0  0  0  0  0
    1.1350  -13.5100   -0.8240 C   0  0  0  0  0  0  0  0  0  0  0  0
    0.7700  -14.5980   -1.6210 C   0  0  0  0  0  0  0  0  0  0  0  0
   -0.4640  -15.2310   -1.4400 C   0  0  0  0  0  0  0  0  0  0  0  0
   -1.3420  -14.7910   -0.4530 C   0  0  0  0  0  0  0  0  0  0  0  0
   -0.9750  -13.7250    0.3640 C   0  0  0  0  0  0  0  0  0  0  0  0
   -1.8930  -13.3130    1.3040 O   0  0  0  0  0  0  0  0  0  0  0  0
   -2.0150  -11.9590    1.5150 C   0  0  0  0  0  0  0  0  0  0  0  0
   -1.5530  -11.4630    2.7350 C   0  0  0  0  0  0  0  0  0  0  0  0
   -1.6210  -10.0960    3.0000 C   0  0  0  0  0  0  0  0  0  0  0  0
   -2.1360   -9.2240    2.0390 C   0  0  0  0  0  0  0  0  0  0  0  0
   -2.5750   -9.7180    0.8100 C   0  0  0  0  0  0  0  0  0  0  0  0
   -2.5080  -11.0860    0.5430 C   0  0  0  0  0  0  0  0  0  0  0  0
    0.2470  -13.0730    0.1690 C   0  0  0  0  0  0  0  0  0  0  0  0
    4.5270  -12.1740   -0.6860 N   0  0  0  0  0  0  0  0  0  0  0  0
    5.9160  -12.2090   -0.4340 C   0  0  0  0  0  0  0  0  0  0  0  0
    6.3370  -11.9050    0.8670 C   0  0  0  0  0  0  0  0  0  0  0  0
    7.6920  -11.9110    1.1940 C   0  0  0  0  0  0  0  0  0  0  0  0
    8.6410  -12.2250    0.2220 C   0  0  0  0  0  0  0  0  0  0  0  0
    8.2490  -12.5370   -1.0880 C   0  0  0  0  0  0  0  0  0  0  0  0
    9.2830  -12.8530   -2.1070 C   0  0  0  0  0  0  0  0  0  0  0  0
   10.5280  -12.3440   -1.9830 C   0  0  0  0  0  0  0  0  0  0  0  0
   11.4570  -12.6490   -2.9530 N   0  0  0  0  0  0  0  0  0  0  0  0
   12.7710  -12.3020   -3.1130 C   0  0  0  0  0  0  0  0  0  0  0  0
   13.1630  -12.9180   -4.2840 C   0  0  0  0  0  0  0  0  0  0  0  0
   12.1280  -13.6270   -4.8460 N   0  0  0  0  0  0  0  0  0  0  0  0
   11.1220  -13.4400   -4.0150 C   0  0  0  0  0  0  0  0  0  0  0  0
    9.7700  -13.9560   -4.1140 C   0  0  0  0  0  0  0  0  0  0  0  0
    9.4070  -14.7520   -5.1720 N   0  0  0  0  0  0  0  0  0  0  0  0
    8.1020  -15.3270   -5.3380 C   0  0  0  0  0  0  0  0  0  0  0  0
    7.2970  -14.4830   -6.2920 C   0  0  0  0  0  0  0  0  0  0  0  0
    7.5750  -14.4870   -7.6620 C   0  0  0  0  0  0  0  0  0  0  0  0
    6.8220  -13.6730   -8.4940 C   0  0  0  0  0  0  0  0  0  0  0  0
    5.8320  -12.8650   -8.0600 N   0  0  0  0  0  0  0  0  0  0  0  0
    5.5890  -12.8630   -6.7330 C   0  0  0  0  0  0  0  0  0  0  0  0
    6.2860  -13.6400   -5.8200 C   0  0  0  0  0  0  0  0  0  0  0  0
    8.8970  -13.6530   -3.1790 N   0  0  0  0  0  0  0  0  0  0  0  0
    6.8780  -12.5070   -1.4030 C   0  0  0  0  0  0  0  0  0  0  0  0
    2.3280  -11.9790   -1.5080 H   0  0  0  0  0  0  0  0  0  0  0  0
    1.4594  -14.9600   -2.3979 H   0  0  0  0  0  0  0  0  0  0  0  0
   -0.7423  -16.0808   -2.0807 H   0  0  0  0  0  0  0  0  0  0  0  0
   -2.3175  -15.2815   -0.3198 H   0  0  0  0  0  0  0  0  0  0  0  0
   -1.1358  -12.1496    3.4863 H   0  0  0  0  0  0  0  0  0  0  0  0
   -1.2690   -9.7046    3.9659 H   0  0  0  0  0  0  0  0  0  0  0  0
   -2.1958   -8.1463    2.2509 H   0  0  0  0  0  0  0  0  0  0  0  0
   -2.9741   -9.0287    0.0513 H   0  0  0  0  0  0  0  0  0  0  0  0
   -2.8424  -11.4754   -0.4299 H   0  0  0  0  0  0  0  0  0  0  0  0
    0.5131  -12.2115    0.7991 H   0  0  0  0  0  0  0  0  0  0  0  0
    4.1650  -11.2970   -1.0220 H   0  0  0  0  0  0  0  0  0  0  0  0
    5.5915  -11.6593    1.6376 H   0  0  0  0  0  0  0  0  0  0  0  0
    8.0123  -11.6682    2.2180 H   0  0  0  0  0  0  0  0  0  0  0  0
    9.7090  -12.2281    0.4855 H   0  0  0  0  0  0  0  0  0  0  0  0
   10.7930  -11.7026   -1.1296 H   0  0  0  0  0  0  0  0  0  0  0  0
   13.3819  -11.6696   -2.4520 H   0  0  0  0  0  0  0  0  0  0  0  0
   14.1738  -12.8504   -4.7126 H   0  0  0  0  0  0  0  0  0  0  0  0
   10.1270  -14.9560   -5.8590 H   0  0  0  0  0  0  0  0  0  0  0  0
    8.1991  -16.3454   -5.7423 H   0  0  0  0  0  0  0  0  0  0  0  0
    7.5924  -15.3653   -4.3639 H   0  0  0  0  0  0  0  0  0  0  0  0
    8.3742  -15.1225   -8.0711 H   0  0  0  0  0  0  0  0  0  0  0  0
    7.0445  -13.6865   -9.5712 H   0  0  0  0  0  0  0  0  0  0  0  0
    4.7918  -12.2071   -6.3532 H   0  0  0  0  0  0  0  0  0  0  0  0
    6.0486  -13.5942   -4.7469 H   0  0  0  0  0  0  0  0  0  0  0  0
    6.5568  -12.7225   -2.4328 H   0  0  0  0  0  0  0  0  0  0  0  0
  1  2  2  0
  2  3  1  0
  3  4  1  0
  4  5  2  0
  5  6  1  0
  6  7  2  0
  7  8  1  0
  8  9  1  0
  9 10  1  0
 10 11  2  0
 11 12  1  0
 12 13  2  0
 13 14  1  0
 14 15  2  0
  8 16  2  0
  2 17  1  0
 17 18  1  0
 18 19  2  0
 19 20  1  0
 20 21  2  0
 21 22  1  0
 22 23  1  0
 23 24  2  0
 24 25  1  0
 25 26  1  0
 26 27  2  0
 27 28  1  0
 28 29  2  0
 29 30  1  0
 30 31  1  0
 31 32  1  0
 32 33  1  0
 33 34  2  0
 34 35  1  0
 35 36  2  0
 36 37  1  0
 37 38  2  0
 30 39  2  0
 22 40  2  0
 16  4  1  0
 40 18  1  0
 15 10  1  0
 39 23  1  0
 29 25  1  0
 38 33  1  0
  3 41  1  0
  5 42  1  0
  6 43  1  0
  7 44  1  0
 11 45  1  0
 12 46  1  0
 13 47  1  0
 14 48  1  0
 15 49  1  0
 16 50  1  0
 17 51  1  0
 19 52  1  0
 20 53  1  0
 21 54  1  0
 24 55  1  0
 26 56  1  0
 27 57  1  0
 31 58  1  0
 32 59  1  0
 32 60  1  0
 34 61  1  0
 35 62  1  0
 37 63  1  0
 38 64  1  0
 40 65  1  0
M  END
>  <meeko>  (9) 
{"is_sidechain": [false], "free_energy": -8.655, "intermolecular_energy": -12.047, "internal_energy": -1.51}

$$$$
