LIB_FRBJLBMEOUWTOH__M_PUB_ALL__e8__s20260927
     RDKit          3D

 70 75  0  0  0  0  0  0  0  0999 V2000
   14.4440  -14.1270  -10.1060 C   0  0  0  0  0  0  0  0  0  0  0  0
   14.3330  -14.1180   -8.6130 N   0  0  0  0  0  0  0  0  0  0  0  0
   15.0910  -15.2800   -7.9740 C   0  0  0  0  0  0  0  0  0  0  0  0
   15.0250  -15.1910   -6.4370 C   0  0  0  0  0  0  0  0  0  0  0  0
   13.6350  -15.0690   -5.9750 N   0  0  0  0  0  0  0  0  0  0  0  0
   13.3130  -15.4410   -4.6690 C   0  0  0  0  0  0  0  0  0  0  0  0
   13.5980  -16.7150   -4.1580 C   0  0  0  0  0  0  0  0  0  0  0  0
   13.2520  -17.0720   -2.8510 C   0  0  0  0  0  0  0  0  0  0  0  0
   12.6060  -16.1580   -2.0230 C   0  0  0  0  0  0  0  0  0  0  0  0
   12.2960  -14.8810   -2.4970 C   0  0  0  0  0  0  0  0  0  0  0  0
   11.6220  -13.9080   -1.6530 C   0  0  0  0  0  0  0  0  0  0  0  0
   12.1550  -12.8280   -0.9210 C   0  0  0  0  0  0  0  0  0  0  0  0
   11.2330  -12.1180   -0.2750 N   0  0  0  0  0  0  0  0  0  0  0  0
   10.0550  -12.7470   -0.5730 N   0  0  0  0  0  0  0  0  0  0  0  0
    8.7570  -12.3760   -0.1250 C   0  0  0  0  0  0  0  0  0  0  0  0
    8.6780  -11.2660    0.6950 N   0  0  0  0  0  0  0  0  0  0  0  0
    7.7040  -13.1160   -0.5390 C   0  0  0  0  0  0  0  0  0  0  0  0
    6.3090  -12.8550   -0.1650 C   0  0  0  0  0  0  0  0  0  0  0  0
    5.8200  -13.2330    1.0900 C   0  0  0  0  0  0  0  0  0  0  0  0
    4.4860  -12.9870    1.4330 C   0  0  0  0  0  0  0  0  0  0  0  0
    3.6170  -12.3620    0.5310 C   0  0  0  0  0  0  0  0  0  0  0  0
    2.2890  -12.1520    0.9570 N   0  0  0  0  0  0  0  0  0  0  0  0
    1.1410  -12.1080    0.1770 C   0  0  0  0  0  0  0  0  0  0  0  0
    1.1170  -12.2500   -1.0380 O   0  0  0  0  0  0  0  0  0  0  0  0
    0.0280  -11.8800    0.9690 N   0  0  0  0  0  0  0  0  0  0  0  0
   -1.3280  -11.7650    0.5730 C   0  0  0  0  0  0  0  0  0  0  0  0
   -1.9320  -10.5530    0.2300 C   0  0  0  0  0  0  0  0  0  0  0  0
   -3.2770  -10.5100   -0.1540 C   0  0  0  0  0  0  0  0  0  0  0  0
   -4.0360  -11.6790   -0.1980 C   0  0  0  0  0  0  0  0  0  0  0  0
   -3.4510  -12.8960    0.1410 C   0  0  0  0  0  0  0  0  0  0  0  0
   -2.1070  -12.9370    0.5230 C   0  0  0  0  0  0  0  0  0  0  0  0
   -1.4270  -14.4770    0.9350 Cl  0  0  0  0  0  0  0  0  0  0  0  0
    4.1080  -11.9850   -0.7200 C   0  0  0  0  0  0  0  0  0  0  0  0
    5.4430  -12.2300   -1.0670 C   0  0  0  0  0  0  0  0  0  0  0  0
    8.0360  -14.2580   -1.4490 C   0  0  0  0  0  0  0  0  0  0  0  0
    9.2140  -14.6080   -1.8670 N   0  0  0  0  0  0  0  0  0  0  0  0
   10.2590  -13.8450   -1.4210 C   0  0  0  0  0  0  0  0  0  0  0  0
   12.6570  -14.5390   -3.8110 C   0  0  0  0  0  0  0  0  0  0  0  0
   12.8030  -14.0300   -6.6070 C   0  0  0  0  0  0  0  0  0  0  0  0
   12.8810  -14.1160   -8.1440 C   0  0  0  0  0  0  0  0  0  0  0  0
   15.5020  -14.2128  -10.3945 H   0  0  0  0  0  0  0  0  0  0  0  0
   13.8832  -14.9826  -10.5102 H   0  0  0  0  0  0  0  0  0  0  0  0
   14.0284  -13.1922  -10.5102 H   0  0  0  0  0  0  0  0  0  0  0  0
   14.7630  -13.2510   -8.2680 H   0  0  0  0  0  0  0  0  0  0  0  0
   14.6405  -16.2288   -8.3008 H   0  0  0  0  0  0  0  0  0  0  0  0
   16.1444  -15.2311   -8.2871 H   0  0  0  0  0  0  0  0  0  0  0  0
   15.4691  -16.0998   -6.0048 H   0  0  0  0  0  0  0  0  0  0  0  0
   15.5811  -14.2986   -6.1137 H   0  0  0  0  0  0  0  0  0  0  0  0
   14.1053  -17.4504   -4.7997 H   0  0  0  0  0  0  0  0  0  0  0  0
   13.4910  -18.0781   -2.4759 H   0  0  0  0  0  0  0  0  0  0  0  0
   12.3393  -16.4418   -0.9942 H   0  0  0  0  0  0  0  0  0  0  0  0
   13.2294  -12.5944   -0.8869 H   0  0  0  0  0  0  0  0  0  0  0  0
    7.7490  -10.9400    0.9530 H   0  0  0  0  0  0  0  0  0  0  0  0
    9.5060  -10.8560    1.1070 H   0  0  0  0  0  0  0  0  0  0  0  0
    6.4881  -13.7264    1.8113 H   0  0  0  0  0  0  0  0  0  0  0  0
    4.1155  -13.2885    2.4239 H   0  0  0  0  0  0  0  0  0  0  0  0
    2.1620  -12.0220    1.9490 H   0  0  0  0  0  0  0  0  0  0  0  0
    0.1760  -11.7780    1.9640 H   0  0  0  0  0  0  0  0  0  0  0  0
   -1.3447   -9.6235    0.2621 H   0  0  0  0  0  0  0  0  0  0  0  0
   -3.7383   -9.5483   -0.4228 H   0  0  0  0  0  0  0  0  0  0  0  0
   -5.0932  -11.6397   -0.4995 H   0  0  0  0  0  0  0  0  0  0  0  0
   -4.0442  -13.8218    0.1084 H   0  0  0  0  0  0  0  0  0  0  0  0
    3.4400  -11.4906   -1.4407 H   0  0  0  0  0  0  0  0  0  0  0  0
    5.8130  -11.9279   -2.0579 H   0  0  0  0  0  0  0  0  0  0  0  0
    7.1899  -14.8662   -1.8014 H   0  0  0  0  0  0  0  0  0  0  0  0
   12.4186  -13.5312   -4.1819 H   0  0  0  0  0  0  0  0  0  0  0  0
   11.7578  -14.1658   -6.2921 H   0  0  0  0  0  0  0  0  0  0  0  0
   13.1763  -13.0442   -6.2927 H   0  0  0  0  0  0  0  0  0  0  0  0
   12.3925  -15.0430   -8.4787 H   0  0  0  0  0  0  0  0  0  0  0  0
   12.3730  -13.2396   -8.5727 H   0  0  0  0  0  0  0  0  0  0  0  0
  1  2  1  0
  2  3  1  0
  3  4  1  0
  4  5  1  0
  5  6  1  0
  6  7  2  0
  7  8  1  0
  8  9  2  0
  9 10  1  0
 10 11  1  0
 11 12  1  0
 12 13  2  0
 13 14  1  0
 14 15  1  0
 15 16  1  0
 15 17  2  0
 17 18  1  0
 18 19  2  0
 19 20  1  0
 20 21  2  0
 21 22  1  0
 22 23  1  0
 23 24  2  0
 23 25  1  0
 25 26  1  0
 26 27  2  0
 27 28  1  0
 28 29  2  0
 29 30  1  0
 30 31  2  0
 31 32  1  0
 21 33  1  0
 33 34  2  0
 17 35  1  0
 35 36  2  0
 36 37  1  0
 10 38  2  0
  5 39  1  0
 39 40  1  0
 40  2  1  0
 38  6  1  0
 37 11  2  0
 37 14  1  0
 34 18  1  0
 31 26  1  0
  1 41  1  0
  1 42  1  0
  1 43  1  0
  2 44  1  0
  3 45  1  0
  3 46  1  0
  4 47  1  0
  4 48  1  0
  7 49  1  0
  8 50  1  0
  9 51  1  0
 12 52  1  0
 16 53  1  0
 16 54  1  0
 19 55  1  0
 20 56  1  0
 22 57  1  0
 25 58  1  0
 27 59  1  0
 28 60  1  0
 29 61  1  0
 30 62  1  0
 33 63  1  0
 34 64  1  0
 35 65  1  0
 38 66  1  0
 39 67  1  0
 39 68  1  0
 40 69  1  0
 40 70  1  0
M  CHG  1   2   1
M  END
>  <meeko>  (1) 
{"is_sidechain": [false], "free_energy": -9.267, "intermolecular_energy": -12.246, "internal_energy": -0.749}

$$$$
LIB_FRBJLBMEOUWTOH__M_PUB_ALL__e8__s20260927
     RDKit          3D

 70 75  0  0  0  0  0  0  0  0999 V2000
   -8.4400  -15.5810    7.8890 C   0  0  0  0  0  0  0  0  0  0  0  0
   -7.2020  -15.5180    7.0490 N   0  0  0  0  0  0  0  0  0  0  0  0
   -7.5160  -15.6000    5.5560 C   0  0  0  0  0  0  0  0  0  0  0  0
   -6.2300  -15.4480    4.7220 C   0  0  0  0  0  0  0  0  0  0  0  0
   -5.2010  -16.4010    5.1610 N   0  0  0  0  0  0  0  0  0  0  0  0
   -4.1790  -16.7590    4.2800 C   0  0  0  0  0  0  0  0  0  0  0  0
   -3.9690  -18.0820    3.8680 C   0  0  0  0  0  0  0  0  0  0  0  0
   -2.9290  -18.4190    2.9970 C   0  0  0  0  0  0  0  0  0  0  0  0
   -2.0680  -17.4350    2.5190 C   0  0  0  0  0  0  0  0  0  0  0  0
   -2.2380  -16.1060    2.9110 C   0  0  0  0  0  0  0  0  0  0  0  0
   -1.3540  -15.0580    2.4260 C   0  0  0  0  0  0  0  0  0  0  0  0
   -1.6190  -13.6950    2.1890 C   0  0  0  0  0  0  0  0  0  0  0  0
   -0.5560  -13.0130    1.7690 N   0  0  0  0  0  0  0  0  0  0  0  0
    0.4430  -13.9470    1.7140 N   0  0  0  0  0  0  0  0  0  0  0  0
    1.7910  -13.7260    1.3220 C   0  0  0  0  0  0  0  0  0  0  0  0
    2.1280  -12.4360    0.9610 N   0  0  0  0  0  0  0  0  0  0  0  0
    2.6420  -14.7770    1.3440 C   0  0  0  0  0  0  0  0  0  0  0  0
    4.0590  -14.7040    0.9720 C   0  0  0  0  0  0  0  0  0  0  0  0
    5.0290  -14.3370    1.9110 C   0  0  0  0  0  0  0  0  0  0  0  0
    6.3770  -14.2620    1.5430 C   0  0  0  0  0  0  0  0  0  0  0  0
    6.7810  -14.5510    0.2330 C   0  0  0  0  0  0  0  0  0  0  0  0
    8.1590  -14.4500   -0.0530 N   0  0  0  0  0  0  0  0  0  0  0  0
    8.8980  -13.2980   -0.2850 C   0  0  0  0  0  0  0  0  0  0  0  0
    8.4440  -12.1630   -0.2730 O   0  0  0  0  0  0  0  0  0  0  0  0
   10.2230  -13.6180   -0.5300 N   0  0  0  0  0  0  0  0  0  0  0  0
   11.3040  -12.7450   -0.8110 C   0  0  0  0  0  0  0  0  0  0  0  0
   11.8640  -11.8820    0.1340 C   0  0  0  0  0  0  0  0  0  0  0  0
   12.9320  -11.0450   -0.2100 C   0  0  0  0  0  0  0  0  0  0  0  0
   13.4520  -11.0590   -1.5030 C   0  0  0  0  0  0  0  0  0  0  0  0
   12.9060  -11.9130   -2.4580 C   0  0  0  0  0  0  0  0  0  0  0  0
   11.8400  -12.7480   -2.1130 C   0  0  0  0  0  0  0  0  0  0  0  0
   11.1960  -13.7920   -3.3380 Cl  0  0  0  0  0  0  0  0  0  0  0  0
    5.8100  -14.9180   -0.7010 C   0  0  0  0  0  0  0  0  0  0  0  0
    4.4600  -14.9930   -0.3360 C   0  0  0  0  0  0  0  0  0  0  0  0
    2.0510  -16.0750    1.7990 C   0  0  0  0  0  0  0  0  0  0  0  0
    0.8230  -16.2920    2.1610 N   0  0  0  0  0  0  0  0  0  0  0  0
   -0.0140  -15.2100    2.1170 C   0  0  0  0  0  0  0  0  0  0  0  0
   -3.2930  -15.7850    3.7830 C   0  0  0  0  0  0  0  0  0  0  0  0
   -4.9010  -16.4540    6.6020 C   0  0  0  0  0  0  0  0  0  0  0  0
   -6.1910  -16.5950    7.4330 C   0  0  0  0  0  0  0  0  0  0  0  0
   -8.1621  -15.5669    8.9532 H   0  0  0  0  0  0  0  0  0  0  0  0
   -9.0793  -14.7142    7.6654 H   0  0  0  0  0  0  0  0  0  0  0  0
   -8.9880  -16.5082    7.6654 H   0  0  0  0  0  0  0  0  0  0  0  0
   -6.7540  -14.6090    7.2140 H   0  0  0  0  0  0  0  0  0  0  0  0
   -7.9761  -16.5747    5.3364 H   0  0  0  0  0  0  0  0  0  0  0  0
   -8.2069  -14.7852    5.2938 H   0  0  0  0  0  0  0  0  0  0  0  0
   -6.4639  -15.6338    3.6633 H   0  0  0  0  0  0  0  0  0  0  0  0
   -5.8429  -14.4274    4.8582 H   0  0  0  0  0  0  0  0  0  0  0  0
   -4.6377  -18.8730    4.2384 H   0  0  0  0  0  0  0  0  0  0  0  0
   -2.7904  -19.4656    2.6881 H   0  0  0  0  0  0  0  0  0  0  0  0
   -1.2528  -17.7050    1.8316 H   0  0  0  0  0  0  0  0  0  0  0  0
   -2.6088  -13.2384    2.3368 H   0  0  0  0  0  0  0  0  0  0  0  0
    2.5340  -11.8390    1.6800 H   0  0  0  0  0  0  0  0  0  0  0  0
    2.0730  -12.1260   -0.0000 H   0  0  0  0  0  0  0  0  0  0  0  0
    4.7304  -14.1061    2.9442 H   0  0  0  0  0  0  0  0  0  0  0  0
    7.1290  -13.9725    2.2918 H   0  0  0  0  0  0  0  0  0  0  0  0
    8.6630  -15.3220   -0.0900 H   0  0  0  0  0  0  0  0  0  0  0  0
   10.4790  -14.5960   -0.5140 H   0  0  0  0  0  0  0  0  0  0  0  0
   11.4621  -11.8600    1.1577 H   0  0  0  0  0  0  0  0  0  0  0  0
   13.3637  -10.3717    0.5452 H   0  0  0  0  0  0  0  0  0  0  0  0
   14.2904  -10.3981   -1.7681 H   0  0  0  0  0  0  0  0  0  0  0  0
   13.3124  -11.9302   -3.4800 H   0  0  0  0  0  0  0  0  0  0  0  0
    6.1085  -15.1505   -1.7339 H   0  0  0  0  0  0  0  0  0  0  0  0
    3.7082  -15.2819   -1.0852 H   0  0  0  0  0  0  0  0  0  0  0  0
    2.7311  -16.9390    1.8300 H   0  0  0  0  0  0  0  0  0  0  0  0
   -3.4307  -14.7369    4.0872 H   0  0  0  0  0  0  0  0  0  0  0  0
   -4.2490  -17.3172    6.8016 H   0  0  0  0  0  0  0  0  0  0  0  0
   -4.4013  -15.5171    6.8893 H   0  0  0  0  0  0  0  0  0  0  0  0
   -6.6320  -17.5859    7.2494 H   0  0  0  0  0  0  0  0  0  0  0  0
   -5.9396  -16.4798    8.4977 H   0  0  0  0  0  0  0  0  0  0  0  0
  1  2  1  0
  2  3  1  0
  3  4  1  0
  4  5  1  0
  5  6  1  0
  6  7  2  0
  7  8  1  0
  8  9  2  0
  9 10  1  0
 10 11  1  0
 11 12  1  0
 12 13  2  0
 13 14  1  0
 14 15  1  0
 15 16  1  0
 15 17  2  0
 17 18  1  0
 18 19  2  0
 19 20  1  0
 20 21  2  0
 21 22  1  0
 22 23  1  0
 23 24  2  0
 23 25  1  0
 25 26  1  0
 26 27  2  0
 27 28  1  0
 28 29  2  0
 29 30  1  0
 30 31  2  0
 31 32  1  0
 21 33  1  0
 33 34  2  0
 17 35  1  0
 35 36  2  0
 36 37  1  0
 10 38  2  0
  5 39  1  0
 39 40  1  0
 40  2  1  0
 38  6  1  0
 37 11  2  0
 37 14  1  0
 34 18  1  0
 31 26  1  0
  1 41  1  0
  1 42  1  0
  1 43  1  0
  2 44  1  0
  3 45  1  0
  3 46  1  0
  4 47  1  0
  4 48  1  0
  7 49  1  0
  8 50  1  0
  9 51  1  0
 12 52  1  0
 16 53  1  0
 16 54  1  0
 19 55  1  0
 20 56  1  0
 22 57  1  0
 25 58  1  0
 27 59  1  0
 28 60  1  0
 29 61  1  0
 30 62  1  0
 33 63  1  0
 34 64  1  0
 35 65  1  0
 38 66  1  0
 39 67  1  0
 39 68  1  0
 40 69  1  0
 40 70  1  0
M  CHG  1   2   1
M  END
>  <meeko>  (2) 
{"is_sidechain": [false], "free_energy": -9.239, "intermolecular_energy": -12.237, "internal_energy": -0.721}

$$$$
LIB_FRBJLBMEOUWTOH__M_PUB_ALL__e8__s20260927
     RDKit          3D

 70 75  0  0  0  0  0  0  0  0999 V2000
   12.3620  -16.5760   -8.6410 C   0  0  0  0  0  0  0  0  0  0  0  0
   12.4040  -16.0420   -7.2430 N   0  0  0  0  0  0  0  0  0  0  0  0
   11.3450  -14.9680   -7.0060 C   0  0  0  0  0  0  0  0  0  0  0  0
   11.3630  -14.5030   -5.5370 C   0  0  0  0  0  0  0  0  0  0  0  0
   12.7160  -14.0970   -5.1280 N   0  0  0  0  0  0  0  0  0  0  0  0
   12.8720  -13.2290   -4.0470 C   0  0  0  0  0  0  0  0  0  0  0  0
   13.9710  -12.3670   -3.9270 C   0  0  0  0  0  0  0  0  0  0  0  0
   14.1150  -11.5170   -2.8260 C   0  0  0  0  0  0  0  0  0  0  0  0
   13.1600  -11.5150   -1.8130 C   0  0  0  0  0  0  0  0  0  0  0  0
   12.0560  -12.3650   -1.8900 C   0  0  0  0  0  0  0  0  0  0  0  0
   11.0440  -12.3820   -0.8460 C   0  0  0  0  0  0  0  0  0  0  0  0
   11.1720  -12.1440    0.5370 C   0  0  0  0  0  0  0  0  0  0  0  0
   10.0190  -12.2150    1.1970 N   0  0  0  0  0  0  0  0  0  0  0  0
    9.0970  -12.5190    0.2320 N   0  0  0  0  0  0  0  0  0  0  0  0
    7.7000  -12.7050    0.4210 C   0  0  0  0  0  0  0  0  0  0  0  0
    7.2240  -12.5620    1.7100 N   0  0  0  0  0  0  0  0  0  0  0  0
    6.9430  -12.9890   -0.6630 C   0  0  0  0  0  0  0  0  0  0  0  0
    5.4920  -13.2030   -0.6270 C   0  0  0  0  0  0  0  0  0  0  0  0
    4.9520  -14.3670   -0.0710 C   0  0  0  0  0  0  0  0  0  0  0  0
    3.5670  -14.5650   -0.0500 C   0  0  0  0  0  0  0  0  0  0  0  0
    2.6970  -13.6060   -0.5830 C   0  0  0  0  0  0  0  0  0  0  0  0
    1.3150  -13.8850   -0.5220 N   0  0  0  0  0  0  0  0  0  0  0  0
    0.3710  -13.3250    0.3290 C   0  0  0  0  0  0  0  0  0  0  0  0
    0.6110  -12.4790    1.1780 O   0  0  0  0  0  0  0  0  0  0  0  0
   -0.8810  -13.8630    0.0790 N   0  0  0  0  0  0  0  0  0  0  0  0
   -2.1100  -13.5690    0.7190 C   0  0  0  0  0  0  0  0  0  0  0  0
   -3.0290  -12.6340    0.2350 C   0  0  0  0  0  0  0  0  0  0  0  0
   -4.2270  -12.3910    0.9170 C   0  0  0  0  0  0  0  0  0  0  0  0
   -4.5220  -13.0800    2.0930 C   0  0  0  0  0  0  0  0  0  0  0  0
   -3.6180  -14.0150    2.5900 C   0  0  0  0  0  0  0  0  0  0  0  0
   -2.4230  -14.2570    1.9080 C   0  0  0  0  0  0  0  0  0  0  0  0
   -1.3320  -15.4300    2.5690 Cl  0  0  0  0  0  0  0  0  0  0  0  0
    3.2390  -12.4450   -1.1370 C   0  0  0  0  0  0  0  0  0  0  0  0
    4.6250  -12.2440   -1.1600 C   0  0  0  0  0  0  0  0  0  0  0  0
    7.6800  -13.0660   -1.9630 C   0  0  0  0  0  0  0  0  0  0  0  0
    8.9540  -12.8980   -2.1510 N   0  0  0  0  0  0  0  0  0  0  0  0
    9.6930  -12.6220   -1.0320 C   0  0  0  0  0  0  0  0  0  0  0  0
   11.9250  -13.2080   -3.0070 C   0  0  0  0  0  0  0  0  0  0  0  0
   13.8140  -15.0390   -5.4050 C   0  0  0  0  0  0  0  0  0  0  0  0
   13.7860  -15.5100   -6.8720 C   0  0  0  0  0  0  0  0  0  0  0  0
   12.2758  -17.6722   -8.6123 H   0  0  0  0  0  0  0  0  0  0  0  0
   11.4943  -16.1536   -9.1689 H   0  0  0  0  0  0  0  0  0  0  0  0
   13.2851  -16.2945   -9.1689 H   0  0  0  0  0  0  0  0  0  0  0  0
   12.1970  -16.8170   -6.6020 H   0  0  0  0  0  0  0  0  0  0  0  0
   11.5501  -14.1076   -7.6600 H   0  0  0  0  0  0  0  0  0  0  0  0
   10.3548  -15.3905   -7.2320 H   0  0  0  0  0  0  0  0  0  0  0  0
   10.6809  -13.6477   -5.4223 H   0  0  0  0  0  0  0  0  0  0  0  0
   11.0418  -15.3409   -4.9008 H   0  0  0  0  0  0  0  0  0  0  0  0
   14.7370  -12.3591   -4.7164 H   0  0  0  0  0  0  0  0  0  0  0  0
   14.9856  -10.8478   -2.7601 H   0  0  0  0  0  0  0  0  0  0  0  0
   13.2759  -10.8422   -0.9505 H   0  0  0  0  0  0  0  0  0  0  0  0
   12.1328  -11.9210    1.0240 H   0  0  0  0  0  0  0  0  0  0  0  0
    6.5760  -13.2700    2.0510 H   0  0  0  0  0  0  0  0  0  0  0  0
    7.5820  -11.8460    2.3280 H   0  0  0  0  0  0  0  0  0  0  0  0
    5.6200  -15.1315    0.3524 H   0  0  0  0  0  0  0  0  0  0  0  0
    3.1565  -15.4855    0.3907 H   0  0  0  0  0  0  0  0  0  0  0  0
    0.9770  -14.5720   -1.1770 H   0  0  0  0  0  0  0  0  0  0  0  0
   -0.9540  -14.5590   -0.6500 H   0  0  0  0  0  0  0  0  0  0  0  0
   -2.8087  -12.0834   -0.6914 H   0  0  0  0  0  0  0  0  0  0  0  0
   -4.9401  -11.6520    0.5229 H   0  0  0  0  0  0  0  0  0  0  0  0
   -5.4647  -12.8856    2.6256 H   0  0  0  0  0  0  0  0  0  0  0  0
   -3.8441  -14.5618    3.5173 H   0  0  0  0  0  0  0  0  0  0  0  0
    2.5709  -11.6802   -1.5598 H   0  0  0  0  0  0  0  0  0  0  0  0
    5.0351  -11.3236   -1.6012 H   0  0  0  0  0  0  0  0  0  0  0  0
    7.0776  -13.2890   -2.8560 H   0  0  0  0  0  0  0  0  0  0  0  0
   11.0520  -13.8742   -3.0701 H   0  0  0  0  0  0  0  0  0  0  0  0
   14.7739  -14.5398   -5.2065 H   0  0  0  0  0  0  0  0  0  0  0  0
   13.6924  -15.9175   -4.7543 H   0  0  0  0  0  0  0  0  0  0  0  0
   14.0345  -14.6626   -7.5279 H   0  0  0  0  0  0  0  0  0  0  0  0
   14.5210  -16.3187   -6.9973 H   0  0  0  0  0  0  0  0  0  0  0  0
  1  2  1  0
  2  3  1  0
  3  4  1  0
  4  5  1  0
  5  6  1  0
  6  7  2  0
  7  8  1  0
  8  9  2  0
  9 10  1  0
 10 11  1  0
 11 12  1  0
 12 13  2  0
 13 14  1  0
 14 15  1  0
 15 16  1  0
 15 17  2  0
 17 18  1  0
 18 19  2  0
 19 20  1  0
 20 21  2  0
 21 22  1  0
 22 23  1  0
 23 24  2  0
 23 25  1  0
 25 26  1  0
 26 27  2  0
 27 28  1  0
 28 29  2  0
 29 30  1  0
 30 31  2  0
 31 32  1  0
 21 33  1  0
 33 34  2  0
 17 35  1  0
 35 36  2  0
 36 37  1  0
 10 38  2  0
  5 39  1  0
 39 40  1  0
 40  2  1  0
 38  6  1  0
 37 11  2  0
 37 14  1  0
 34 18  1  0
 31 26  1  0
  1 41  1  0
  1 42  1  0
  1 43  1  0
  2 44  1  0
  3 45  1  0
  3 46  1  0
  4 47  1  0
  4 48  1  0
  7 49  1  0
  8 50  1  0
  9 51  1  0
 12 52  1  0
 16 53  1  0
 16 54  1  0
 19 55  1  0
 20 56  1  0
 22 57  1  0
 25 58  1  0
 27 59  1  0
 28 60  1  0
 29 61  1  0
 30 62  1  0
 33 63  1  0
 34 64  1  0
 35 65  1  0
 38 66  1  0
 39 67  1  0
 39 68  1  0
 40 69  1  0
 40 70  1  0
M  CHG  1   2   1
M  END
>  <meeko>  (3) 
{"is_sidechain": [false], "free_energy": -9.051, "intermolecular_energy": -11.963, "internal_energy": -0.747}

$$$$
LIB_FRBJLBMEOUWTOH__M_PUB_ALL__e8__s20260927
     RDKit          3D

 70 75  0  0  0  0  0  0  0  0999 V2000
    2.4790  -17.7900    9.3130 C   0  0  0  0  0  0  0  0  0  0  0  0
    3.8430  -17.5920    9.8980 N   0  0  0  0  0  0  0  0  0  0  0  0
    4.9360  -18.2110    9.0290 C   0  0  0  0  0  0  0  0  0  0  0  0
    6.3290  -17.9150    9.6160 C   0  0  0  0  0  0  0  0  0  0  0  0
    6.4020  -18.3160   11.0290 N   0  0  0  0  0  0  0  0  0  0  0  0
    7.6470  -18.5770   11.6020 C   0  0  0  0  0  0  0  0  0  0  0  0
    8.2950  -19.8120   11.4640 C   0  0  0  0  0  0  0  0  0  0  0  0
    9.5350  -20.0570   12.0610 C   0  0  0  0  0  0  0  0  0  0  0  0
   10.1560  -19.0660   12.8180 C   0  0  0  0  0  0  0  0  0  0  0  0
    9.5400  -17.8250   12.9870 C   0  0  0  0  0  0  0  0  0  0  0  0
   10.1670  -16.7730   13.7710 C   0  0  0  0  0  0  0  0  0  0  0  0
   10.4060  -16.7050   15.1580 C   0  0  0  0  0  0  0  0  0  0  0  0
   11.0340  -15.5940   15.5340 N   0  0  0  0  0  0  0  0  0  0  0  0
   11.2100  -14.8960   14.3700 N   0  0  0  0  0  0  0  0  0  0  0  0
   11.8390  -13.6280   14.2260 C   0  0  0  0  0  0  0  0  0  0  0  0
   12.3230  -13.0420   15.3790 N   0  0  0  0  0  0  0  0  0  0  0  0
   11.9310  -13.1000   12.9850 C   0  0  0  0  0  0  0  0  0  0  0  0
   12.5530  -11.8070   12.6780 C   0  0  0  0  0  0  0  0  0  0  0  0
   13.6040  -11.7170   11.7590 C   0  0  0  0  0  0  0  0  0  0  0  0
   14.1960  -10.4800   11.4810 C   0  0  0  0  0  0  0  0  0  0  0  0
   13.7530   -9.3130   12.1160 C   0  0  0  0  0  0  0  0  0  0  0  0
   14.4050   -8.1090   11.7770 N   0  0  0  0  0  0  0  0  0  0  0  0
   15.3510   -7.4150   12.5210 C   0  0  0  0  0  0  0  0  0  0  0  0
   15.7700   -7.7620   13.6160 O   0  0  0  0  0  0  0  0  0  0  0  0
   15.7530   -6.2750   11.8450 N   0  0  0  0  0  0  0  0  0  0  0  0
   16.6950   -5.2970   12.2500 C   0  0  0  0  0  0  0  0  0  0  0  0
   16.3580   -4.1580   12.9850 C   0  0  0  0  0  0  0  0  0  0  0  0
   17.3400   -3.2300   13.3530 C   0  0  0  0  0  0  0  0  0  0  0  0
   18.6710   -3.4290   12.9890 C   0  0  0  0  0  0  0  0  0  0  0  0
   19.0250   -4.5580   12.2560 C   0  0  0  0  0  0  0  0  0  0  0  0
   18.0440   -5.4840   11.8900 C   0  0  0  0  0  0  0  0  0  0  0  0
   18.5360   -6.8730   10.9780 Cl  0  0  0  0  0  0  0  0  0  0  0  0
   12.7040   -9.4070   13.0310 C   0  0  0  0  0  0  0  0  0  0  0  0
   12.1090  -10.6430   13.3120 C   0  0  0  0  0  0  0  0  0  0  0  0
   11.3560  -13.9360   11.8830 C   0  0  0  0  0  0  0  0  0  0  0  0
   10.7800  -15.0940   11.9990 N   0  0  0  0  0  0  0  0  0  0  0  0
   10.6940  -15.5950   13.2700 C   0  0  0  0  0  0  0  0  0  0  0  0
    8.2960  -17.5960   12.3740 C   0  0  0  0  0  0  0  0  0  0  0  0
    5.3320  -17.8370   11.9210 C   0  0  0  0  0  0  0  0  0  0  0  0
    3.9410  -18.1250   11.3250 C   0  0  0  0  0  0  0  0  0  0  0  0
    1.7440  -17.8967   10.1244 H   0  0  0  0  0  0  0  0  0  0  0  0
    2.2164  -16.9206    8.6924 H   0  0  0  0  0  0  0  0  0  0  0  0
    2.4745  -18.6982    8.6924 H   0  0  0  0  0  0  0  0  0  0  0  0
    4.0260  -16.5820    9.9390 H   0  0  0  0  0  0  0  0  0  0  0  0
    4.7874  -19.2999    8.9825 H   0  0  0  0  0  0  0  0  0  0  0  0
    4.8764  -17.7751    8.0208 H   0  0  0  0  0  0  0  0  0  0  0  0
    7.0859  -18.4722    9.0445 H   0  0  0  0  0  0  0  0  0  0  0  0
    6.5146  -16.8328    9.5490 H   0  0  0  0  0  0  0  0  0  0  0  0
    7.8169  -20.6067   10.8724 H   0  0  0  0  0  0  0  0  0  0  0  0
   10.0218  -21.0350   11.9327 H   0  0  0  0  0  0  0  0  0  0  0  0
   11.1333  -19.2619   13.2833 H   0  0  0  0  0  0  0  0  0  0  0  0
   10.1027  -17.4941   15.8618 H   0  0  0  0  0  0  0  0  0  0  0  0
   11.7240  -12.3640   15.8470 H   0  0  0  0  0  0  0  0  0  0  0  0
   13.1900  -13.3470   15.8020 H   0  0  0  0  0  0  0  0  0  0  0  0
   13.9669  -12.6234   11.2523 H   0  0  0  0  0  0  0  0  0  0  0  0
   15.0199  -10.4234   10.7544 H   0  0  0  0  0  0  0  0  0  0  0  0
   14.1540   -7.7090   10.8870 H   0  0  0  0  0  0  0  0  0  0  0  0
   15.3330   -6.0930   10.9440 H   0  0  0  0  0  0  0  0  0  0  0  0
   15.3113   -3.9884   13.2775 H   0  0  0  0  0  0  0  0  0  0  0  0
   17.0594   -2.3384   13.9329 H   0  0  0  0  0  0  0  0  0  0  0  0
   19.4384   -2.6966   13.2800 H   0  0  0  0  0  0  0  0  0  0  0  0
   20.0734   -4.7210   11.9657 H   0  0  0  0  0  0  0  0  0  0  0  0
   12.3405   -8.5005   13.5371 H   0  0  0  0  0  0  0  0  0  0  0  0
   11.2847  -10.6985   14.0383 H   0  0  0  0  0  0  0  0  0  0  0  0
   11.4297  -13.5245   10.8655 H   0  0  0  0  0  0  0  0  0  0  0  0
    7.8132  -16.6160   12.5023 H   0  0  0  0  0  0  0  0  0  0  0  0
    5.4191  -18.3465   12.8920 H   0  0  0  0  0  0  0  0  0  0  0  0
    5.4407  -16.7492   12.0434 H   0  0  0  0  0  0  0  0  0  0  0  0
    3.7698  -19.2116   11.3169 H   0  0  0  0  0  0  0  0  0  0  0  0
    3.1815  -17.6229   11.9423 H   0  0  0  0  0  0  0  0  0  0  0  0
  1  2  1  0
  2  3  1  0
  3  4  1  0
  4  5  1  0
  5  6  1  0
  6  7  2  0
  7  8  1  0
  8  9  2  0
  9 10  1  0
 10 11  1  0
 11 12  1  0
 12 13  2  0
 13 14  1  0
 14 15  1  0
 15 16  1  0
 15 17  2  0
 17 18  1  0
 18 19  2  0
 19 20  1  0
 20 21  2  0
 21 22  1  0
 22 23  1  0
 23 24  2  0
 23 25  1  0
 25 26  1  0
 26 27  2  0
 27 28  1  0
 28 29  2  0
 29 30  1  0
 30 31  2  0
 31 32  1  0
 21 33  1  0
 33 34  2  0
 17 35  1  0
 35 36  2  0
 36 37  1  0
 10 38  2  0
  5 39  1  0
 39 40  1  0
 40  2  1  0
 38  6  1  0
 37 11  2  0
 37 14  1  0
 34 18  1  0
 31 26  1  0
  1 41  1  0
  1 42  1  0
  1 43  1  0
  2 44  1  0
  3 45  1  0
  3 46  1  0
  4 47  1  0
  4 48  1  0
  7 49  1  0
  8 50  1  0
  9 51  1  0
 12 52  1  0
 16 53  1  0
 16 54  1  0
 19 55  1  0
 20 56  1  0
 22 57  1  0
 25 58  1  0
 27 59  1  0
 28 60  1  0
 29 61  1  0
 30 62  1  0
 33 63  1  0
 34 64  1  0
 35 65  1  0
 38 66  1  0
 39 67  1  0
 39 68  1  0
 40 69  1  0
 40 70  1  0
M  CHG  1   2   1
M  END
>  <meeko>  (4) 
{"is_sidechain": [false], "free_energy": -8.807, "intermolecular_energy": -11.54, "internal_energy": -0.848}

$$$$
LIB_FRBJLBMEOUWTOH__M_PUB_ALL__e8__s20260927
     RDKit          3D

 70 75  0  0  0  0  0  0  0  0999 V2000
   12.3650  -11.9320    0.1610 C   0  0  0  0  0  0  0  0  0  0  0  0
   10.9200  -11.7960   -0.2080 N   0  0  0  0  0  0  0  0  0  0  0  0
   10.0010  -11.9530    1.0010 C   0  0  0  0  0  0  0  0  0  0  0  0
    8.5310  -11.7240    0.5990 C   0  0  0  0  0  0  0  0  0  0  0  0
    8.1580  -12.5740   -0.5400 N   0  0  0  0  0  0  0  0  0  0  0  0
    6.8120  -12.8750   -0.7560 C   0  0  0  0  0  0  0  0  0  0  0  0
    5.9850  -12.0850   -1.5670 C   0  0  0  0  0  0  0  0  0  0  0  0
    4.6350  -12.3970   -1.7560 C   0  0  0  0  0  0  0  0  0  0  0  0
    4.0790  -13.5100   -1.1310 C   0  0  0  0  0  0  0  0  0  0  0  0
    4.8670  -14.3180   -0.3090 C   0  0  0  0  0  0  0  0  0  0  0  0
    4.3110  -15.4860    0.3540 C   0  0  0  0  0  0  0  0  0  0  0  0
    4.9020  -16.7370    0.6200 C   0  0  0  0  0  0  0  0  0  0  0  0
    4.1030  -17.5730    1.2780 N   0  0  0  0  0  0  0  0  0  0  0  0
    2.9430  -16.8660    1.4480 N   0  0  0  0  0  0  0  0  0  0  0  0
    1.7630  -17.3150    2.1010 C   0  0  0  0  0  0  0  0  0  0  0  0
    1.7900  -18.5960    2.6190 N   0  0  0  0  0  0  0  0  0  0  0  0
    0.7160  -16.4630    2.1820 C   0  0  0  0  0  0  0  0  0  0  0  0
   -0.5630  -16.7810    2.8270 C   0  0  0  0  0  0  0  0  0  0  0  0
   -1.5650  -17.4680    2.1340 C   0  0  0  0  0  0  0  0  0  0  0  0
   -2.7840  -17.7580    2.7560 C   0  0  0  0  0  0  0  0  0  0  0  0
   -3.0260  -17.3660    4.0790 C   0  0  0  0  0  0  0  0  0  0  0  0
   -4.2820  -17.6990    4.6290 N   0  0  0  0  0  0  0  0  0  0  0  0
   -5.3360  -16.8430    4.9220 C   0  0  0  0  0  0  0  0  0  0  0  0
   -5.3260  -15.6350    4.7380 O   0  0  0  0  0  0  0  0  0  0  0  0
   -6.4000  -17.5550    5.4520 N   0  0  0  0  0  0  0  0  0  0  0  0
   -7.6590  -17.0670    5.8820 C   0  0  0  0  0  0  0  0  0  0  0  0
   -8.7630  -16.9280    5.0360 C   0  0  0  0  0  0  0  0  0  0  0  0
   -9.9800  -16.4400    5.5260 C   0  0  0  0  0  0  0  0  0  0  0  0
  -10.1090  -16.0840    6.8680 C   0  0  0  0  0  0  0  0  0  0  0  0
   -9.0200  -16.2160    7.7250 C   0  0  0  0  0  0  0  0  0  0  0  0
   -7.8050  -16.7040    7.2340 C   0  0  0  0  0  0  0  0  0  0  0  0
   -6.4800  -16.8480    8.3420 Cl  0  0  0  0  0  0  0  0  0  0  0  0
   -2.0240  -16.6810    4.7680 C   0  0  0  0  0  0  0  0  0  0  0  0
   -0.8020  -16.3890    4.1480 C   0  0  0  0  0  0  0  0  0  0  0  0
    0.9330  -15.1140    1.5700 C   0  0  0  0  0  0  0  0  0  0  0  0
    2.0040  -14.6900    0.9710 N   0  0  0  0  0  0  0  0  0  0  0  0
    3.0410  -15.5810    0.8970 C   0  0  0  0  0  0  0  0  0  0  0  0
    6.2230  -13.9920   -0.1360 C   0  0  0  0  0  0  0  0  0  0  0  0
    9.0440  -12.5530   -1.7170 C   0  0  0  0  0  0  0  0  0  0  0  0
   10.5140  -12.7720   -1.3090 C   0  0  0  0  0  0  0  0  0  0  0  0
   12.4644  -11.9414    1.2565 H   0  0  0  0  0  0  0  0  0  0  0  0
   12.7618  -12.8715   -0.2512 H   0  0  0  0  0  0  0  0  0  0  0  0
   12.9302  -11.0831   -0.2512 H   0  0  0  0  0  0  0  0  0  0  0  0
   10.7760  -10.8480   -0.5760 H   0  0  0  0  0  0  0  0  0  0  0  0
   10.1102  -12.9689    1.4085 H   0  0  0  0  0  0  0  0  0  0  0  0
   10.2816  -11.2066    1.7587 H   0  0  0  0  0  0  0  0  0  0  0  0
    7.8825  -11.9640    1.4545 H   0  0  0  0  0  0  0  0  0  0  0  0
    8.4079  -10.6710    0.3056 H   0  0  0  0  0  0  0  0  0  0  0  0
    6.4074  -11.2002   -2.0657 H   0  0  0  0  0  0  0  0  0  0  0  0
    4.0104  -11.7611   -2.4005 H   0  0  0  0  0  0  0  0  0  0  0  0
    3.0173  -13.7531   -1.2850 H   0  0  0  0  0  0  0  0  0  0  0  0
    5.9257  -16.9975    0.3131 H   0  0  0  0  0  0  0  0  0  0  0  0
    2.5000  -19.2310    2.2590 H   0  0  0  0  0  0  0  0  0  0  0  0
    1.1990  -18.8630    3.3950 H   0  0  0  0  0  0  0  0  0  0  0  0
   -1.3935  -17.7821    1.0938 H   0  0  0  0  0  0  0  0  0  0  0  0
   -3.5622  -18.3006    2.1993 H   0  0  0  0  0  0  0  0  0  0  0  0
   -4.4290  -18.6760    4.8290 H   0  0  0  0  0  0  0  0  0  0  0  0
   -6.2880  -18.5530    5.5580 H   0  0  0  0  0  0  0  0  0  0  0  0
   -8.6746  -17.2047    3.9751 H   0  0  0  0  0  0  0  0  0  0  0  0
  -10.8401  -16.3367    4.8481 H   0  0  0  0  0  0  0  0  0  0  0  0
  -11.0674  -15.7004    7.2479 H   0  0  0  0  0  0  0  0  0  0  0  0
   -9.1149  -15.9374    8.7849 H   0  0  0  0  0  0  0  0  0  0  0  0
   -2.1954  -16.3672    5.8083 H   0  0  0  0  0  0  0  0  0  0  0  0
   -0.0238  -15.8467    4.7051 H   0  0  0  0  0  0  0  0  0  0  0  0
    0.0942  -14.4053    1.6349 H   0  0  0  0  0  0  0  0  0  0  0  0
    6.8453  -14.6324    0.5064 H   0  0  0  0  0  0  0  0  0  0  0  0
    8.7405  -13.3520   -2.4094 H   0  0  0  0  0  0  0  0  0  0  0  0
    8.9587  -11.5689   -2.2010 H   0  0  0  0  0  0  0  0  0  0  0  0
   10.6373  -13.8017   -0.9421 H   0  0  0  0  0  0  0  0  0  0  0  0
   11.1539  -12.6003   -2.1871 H   0  0  0  0  0  0  0  0  0  0  0  0
  1  2  1  0
  2  3  1  0
  3  4  1  0
  4  5  1  0
  5  6  1  0
  6  7  2  0
  7  8  1  0
  8  9  2  0
  9 10  1  0
 10 11  1  0
 11 12  1  0
 12 13  2  0
 13 14  1  0
 14 15  1  0
 15 16  1  0
 15 17  2  0
 17 18  1  0
 18 19  2  0
 19 20  1  0
 20 21  2  0
 21 22  1  0
 22 23  1  0
 23 24  2  0
 23 25  1  0
 25 26  1  0
 26 27  2  0
 27 28  1  0
 28 29  2  0
 29 30  1  0
 30 31  2  0
 31 32  1  0
 21 33  1  0
 33 34  2  0
 17 35  1  0
 35 36  2  0
 36 37  1  0
 10 38  2  0
  5 39  1  0
 39 40  1  0
 40  2  1  0
 38  6  1  0
 37 11  2  0
 37 14  1  0
 34 18  1  0
 31 26  1  0
  1 41  1  0
  1 42  1  0
  1 43  1  0
  2 44  1  0
  3 45  1  0
  3 46  1  0
  4 47  1  0
  4 48  1  0
  7 49  1  0
  8 50  1  0
  9 51  1  0
 12 52  1  0
 16 53  1  0
 16 54  1  0
 19 55  1  0
 20 56  1  0
 22 57  1  0
 25 58  1  0
 27 59  1  0
 28 60  1  0
 29 61  1  0
 30 62  1  0
 33 63  1  0
 34 64  1  0
 35 65  1  0
 38 66  1  0
 39 67  1  0
 39 68  1  0
 40 69  1  0
 40 70  1  0
M  CHG  1   2   1
M  END
>  <meeko>  (5) 
{"is_sidechain": [false], "free_energy": -8.772, "intermolecular_energy": -11.537, "internal_energy": -0.804}

$$$$
LIB_FRBJLBMEOUWTOH__M_PUB_ALL__e8__s20260927
     RDKit          3D

 70 75  0  0  0  0  0  0  0  0999 V2000
    5.9020  -12.9560   -7.7370 C   0  0  0  0  0  0  0  0  0  0  0  0
    6.0600  -12.6520   -6.2790 N   0  0  0  0  0  0  0  0  0  0  0  0
    6.6780  -13.8190   -5.5130 C   0  0  0  0  0  0  0  0  0  0  0  0
    6.9020  -13.4400   -4.0360 C   0  0  0  0  0  0  0  0  0  0  0  0
    5.6650  -12.9260   -3.4300 N   0  0  0  0  0  0  0  0  0  0  0  0
    5.5120  -12.9730   -2.0440 C   0  0  0  0  0  0  0  0  0  0  0  0
    5.9240  -11.9270   -1.2050 C   0  0  0  0  0  0  0  0  0  0  0  0
    5.7750  -12.0020    0.1820 C   0  0  0  0  0  0  0  0  0  0  0  0
    5.2130  -13.1350    0.7670 C   0  0  0  0  0  0  0  0  0  0  0  0
    4.7980  -14.2020   -0.0320 C   0  0  0  0  0  0  0  0  0  0  0  0
    4.2070  -15.3950    0.5520 C   0  0  0  0  0  0  0  0  0  0  0  0
    4.7680  -16.6720    0.7510 C   0  0  0  0  0  0  0  0  0  0  0  0
    3.9400  -17.5280    1.3470 N   0  0  0  0  0  0  0  0  0  0  0  0
    2.7930  -16.8070    1.5410 N   0  0  0  0  0  0  0  0  0  0  0  0
    1.5930  -17.2670    2.1490 C   0  0  0  0  0  0  0  0  0  0  0  0
    1.5840  -18.5770    2.5890 N   0  0  0  0  0  0  0  0  0  0  0  0
    0.5640  -16.3990    2.2650 C   0  0  0  0  0  0  0  0  0  0  0  0
   -0.7330  -16.7260    2.8710 C   0  0  0  0  0  0  0  0  0  0  0  0
   -1.7110  -17.4120    2.1440 C   0  0  0  0  0  0  0  0  0  0  0  0
   -2.9470  -17.7110    2.7290 C   0  0  0  0  0  0  0  0  0  0  0  0
   -3.2280  -17.3300    4.0470 C   0  0  0  0  0  0  0  0  0  0  0  0
   -4.4980  -17.6700    4.5580 N   0  0  0  0  0  0  0  0  0  0  0  0
   -5.5110  -16.8110    4.9650 C   0  0  0  0  0  0  0  0  0  0  0  0
   -5.4440  -15.5910    4.9370 O   0  0  0  0  0  0  0  0  0  0  0  0
   -6.6060  -17.5340    5.4070 N   0  0  0  0  0  0  0  0  0  0  0  0
   -7.8410  -17.0470    5.9040 C   0  0  0  0  0  0  0  0  0  0  0  0
   -8.9670  -16.8390    5.1040 C   0  0  0  0  0  0  0  0  0  0  0  0
  -10.1580  -16.3560    5.6590 C   0  0  0  0  0  0  0  0  0  0  0  0
  -10.2370  -16.0740    7.0220 C   0  0  0  0  0  0  0  0  0  0  0  0
   -9.1250  -16.2760    7.8350 C   0  0  0  0  0  0  0  0  0  0  0  0
   -7.9370  -16.7590    7.2790 C   0  0  0  0  0  0  0  0  0  0  0  0
   -6.5810  -16.9910    8.3340 Cl  0  0  0  0  0  0  0  0  0  0  0  0
   -2.2490  -16.6460    4.7690 C   0  0  0  0  0  0  0  0  0  0  0  0
   -1.0110  -16.3450    4.1870 C   0  0  0  0  0  0  0  0  0  0  0  0
    0.8190  -15.0210    1.7380 C   0  0  0  0  0  0  0  0  0  0  0  0
    1.9080  -14.5860    1.1810 N   0  0  0  0  0  0  0  0  0  0  0  0
    2.9270  -15.4930    1.0700 C   0  0  0  0  0  0  0  0  0  0  0  0
    4.9500  -14.1050   -1.4260 C   0  0  0  0  0  0  0  0  0  0  0  0
    4.9530  -11.8590   -4.1540 C   0  0  0  0  0  0  0  0  0  0  0  0
    4.7410  -12.2370   -5.6330 C   0  0  0  0  0  0  0  0  0  0  0  0
    5.3977  -13.9262   -7.8567 H   0  0  0  0  0  0  0  0  0  0  0  0
    5.2992  -12.1683   -8.2126 H   0  0  0  0  0  0  0  0  0  0  0  0
    6.8930  -12.9967   -8.2126 H   0  0  0  0  0  0  0  0  0  0  0  0
    6.7040  -11.8570   -6.1900 H   0  0  0  0  0  0  0  0  0  0  0  0
    6.0015  -14.6848   -5.5655 H   0  0  0  0  0  0  0  0  0  0  0  0
    7.6489  -14.0669   -5.9668 H   0  0  0  0  0  0  0  0  0  0  0  0
    7.2305  -14.3316   -3.4818 H   0  0  0  0  0  0  0  0  0  0  0  0
    7.6686  -12.6525   -3.9889 H   0  0  0  0  0  0  0  0  0  0  0  0
    6.3746  -11.0273   -1.6493 H   0  0  0  0  0  0  0  0  0  0  0  0
    6.1025  -11.1637    0.8145 H   0  0  0  0  0  0  0  0  0  0  0  0
    5.0962  -13.1887    1.8595 H   0  0  0  0  0  0  0  0  0  0  0  0
    5.7907  -16.9363    0.4439 H   0  0  0  0  0  0  0  0  0  0  0  0
    1.3490  -18.7400    3.5670 H   0  0  0  0  0  0  0  0  0  0  0  0
    1.7040  -19.3490    1.9480 H   0  0  0  0  0  0  0  0  0  0  0  0
   -1.5080  -17.7182    1.1072 H   0  0  0  0  0  0  0  0  0  0  0  0
   -3.7071  -18.2520    2.1462 H   0  0  0  0  0  0  0  0  0  0  0  0
   -4.6900  -18.6570    4.6330 H   0  0  0  0  0  0  0  0  0  0  0  0
   -6.5420  -18.5420    5.3830 H   0  0  0  0  0  0  0  0  0  0  0  0
   -8.9174  -17.0569    4.0269 H   0  0  0  0  0  0  0  0  0  0  0  0
  -11.0364  -16.1981    5.0160 H   0  0  0  0  0  0  0  0  0  0  0  0
  -11.1745  -15.6933    7.4535 H   0  0  0  0  0  0  0  0  0  0  0  0
   -9.1811  -16.0562    8.9114 H   0  0  0  0  0  0  0  0  0  0  0  0
   -2.4517  -16.3400    5.8060 H   0  0  0  0  0  0  0  0  0  0  0  0
   -0.2512  -15.8043    4.7703 H   0  0  0  0  0  0  0  0  0  0  0  0
   -0.0055  -14.2991    1.8330 H   0  0  0  0  0  0  0  0  0  0  0  0
    4.6179  -14.9435   -2.0557 H   0  0  0  0  0  0  0  0  0  0  0  0
    3.9733  -11.6960   -3.6810 H   0  0  0  0  0  0  0  0  0  0  0  0
    5.5605  -10.9429   -4.1115 H   0  0  0  0  0  0  0  0  0  0  0  0
    4.0304  -13.0745   -5.6932 H   0  0  0  0  0  0  0  0  0  0  0  0
    4.3456  -11.3612   -6.1683 H   0  0  0  0  0  0  0  0  0  0  0  0
  1  2  1  0
  2  3  1  0
  3  4  1  0
  4  5  1  0
  5  6  1  0
  6  7  2  0
  7  8  1  0
  8  9  2  0
  9 10  1  0
 10 11  1  0
 11 12  1  0
 12 13  2  0
 13 14  1  0
 14 15  1  0
 15 16  1  0
 15 17  2  0
 17 18  1  0
 18 19  2  0
 19 20  1  0
 20 21  2  0
 21 22  1  0
 22 23  1  0
 23 24  2  0
 23 25  1  0
 25 26  1  0
 26 27  2  0
 27 28  1  0
 28 29  2  0
 29 30  1  0
 30 31  2  0
 31 32  1  0
 21 33  1  0
 33 34  2  0
 17 35  1  0
 35 36  2  0
 36 37  1  0
 10 38  2  0
  5 39  1  0
 39 40  1  0
 40  2  1  0
 38  6  1  0
 37 11  2  0
 37 14  1  0
 34 18  1  0
 31 26  1  0
  1 41  1  0
  1 42  1  0
  1 43  1  0
  2 44  1  0
  3 45  1  0
  3 46  1  0
  4 47  1  0
  4 48  1  0
  7 49  1  0
  8 50  1  0
  9 51  1  0
 12 52  1  0
 16 53  1  0
 16 54  1  0
 19 55  1  0
 20 56  1  0
 22 57  1  0
 25 58  1  0
 27 59  1  0
 28 60  1  0
 29 61  1  0
 30 62  1  0
 33 63  1  0
 34 64  1  0
 35 65  1  0
 38 66  1  0
 39 67  1  0
 39 68  1  0
 40 69  1  0
 40 70  1  0
M  CHG  1   2   1
M  END
>  <meeko>  (6) 
{"is_sidechain": [false], "free_energy": -8.73, "intermolecular_energy": -11.289, "internal_energy": -0.996}

$$$$
LIB_FRBJLBMEOUWTOH__M_PUB_ALL__e8__s20260927
     RDKit          3D

 70 75  0  0  0  0  0  0  0  0999 V2000
   17.0050  -15.7340   -9.3290 C   0  0  0  0  0  0  0  0  0  0  0  0
   15.6850  -15.0930   -9.0340 N   0  0  0  0  0  0  0  0  0  0  0  0
   14.6950  -16.0760   -8.4120 C   0  0  0  0  0  0  0  0  0  0  0  0
   13.3790  -15.3620   -8.0460 C   0  0  0  0  0  0  0  0  0  0  0  0
   12.8380  -14.6290   -9.1990 N   0  0  0  0  0  0  0  0  0  0  0  0
   11.4760  -14.3230   -9.2370 C   0  0  0  0  0  0  0  0  0  0  0  0
   10.9600  -13.2880  -10.0280 C   0  0  0  0  0  0  0  0  0  0  0  0
    9.5950  -12.9880  -10.0380 C   0  0  0  0  0  0  0  0  0  0  0  0
    8.7110  -13.7190   -9.2480 C   0  0  0  0  0  0  0  0  0  0  0  0
    9.1860  -14.7520   -8.4390 C   0  0  0  0  0  0  0  0  0  0  0  0
    8.2850  -15.5310   -7.6040 C   0  0  0  0  0  0  0  0  0  0  0  0
    8.1990  -16.9270   -7.4320 C   0  0  0  0  0  0  0  0  0  0  0  0
    7.2650  -17.2960   -6.5580 N   0  0  0  0  0  0  0  0  0  0  0  0
    6.7060  -16.1170   -6.1450 N   0  0  0  0  0  0  0  0  0  0  0  0
    5.6530  -15.9620   -5.2020 C   0  0  0  0  0  0  0  0  0  0  0  0
    5.1420  -17.1190   -4.6460 N   0  0  0  0  0  0  0  0  0  0  0  0
    5.2400  -14.7080   -4.9090 C   0  0  0  0  0  0  0  0  0  0  0  0
    4.1700  -14.3890   -3.9560 C   0  0  0  0  0  0  0  0  0  0  0  0
    2.8930  -14.0370   -4.4040 C   0  0  0  0  0  0  0  0  0  0  0  0
    1.8830  -13.7260   -3.4870 C   0  0  0  0  0  0  0  0  0  0  0  0
    2.1290  -13.7600   -2.1090 C   0  0  0  0  0  0  0  0  0  0  0  0
    1.0550  -13.4320   -1.2550 N   0  0  0  0  0  0  0  0  0  0  0  0
    0.9170  -12.3070   -0.4530 C   0  0  0  0  0  0  0  0  0  0  0  0
    1.7380  -11.4040   -0.3700 O   0  0  0  0  0  0  0  0  0  0  0  0
   -0.2820  -12.3520    0.2380 N   0  0  0  0  0  0  0  0  0  0  0  0
   -0.8060  -11.4080    1.1560 C   0  0  0  0  0  0  0  0  0  0  0  0
   -1.2950  -10.1550    0.7800 C   0  0  0  0  0  0  0  0  0  0  0  0
   -1.8010   -9.2690    1.7390 C   0  0  0  0  0  0  0  0  0  0  0  0
   -1.8230   -9.6250    3.0860 C   0  0  0  0  0  0  0  0  0  0  0  0
   -1.3390  -10.8700    3.4800 C   0  0  0  0  0  0  0  0  0  0  0  0
   -0.8360  -11.7530    2.5210 C   0  0  0  0  0  0  0  0  0  0  0  0
   -0.2460  -13.2910    3.0630 Cl  0  0  0  0  0  0  0  0  0  0  0  0
    3.4040  -14.1130   -1.6650 C   0  0  0  0  0  0  0  0  0  0  0  0
    4.4180  -14.4250   -2.5810 C   0  0  0  0  0  0  0  0  0  0  0  0
    5.9650  -13.6080   -5.6190 C   0  0  0  0  0  0  0  0  0  0  0  0
    6.9270  -13.7340   -6.4810 N   0  0  0  0  0  0  0  0  0  0  0  0
    7.3140  -15.0160   -6.7630 C   0  0  0  0  0  0  0  0  0  0  0  0
   10.5620  -15.0420   -8.4460 C   0  0  0  0  0  0  0  0  0  0  0  0
   13.7550  -13.7260   -9.9150 C   0  0  0  0  0  0  0  0  0  0  0  0
   15.0730  -14.4410  -10.2710 C   0  0  0  0  0  0  0  0  0  0  0  0
   17.5122  -15.9803   -8.3845 H   0  0  0  0  0  0  0  0  0  0  0  0
   16.8441  -16.6543   -9.9096 H   0  0  0  0  0  0  0  0  0  0  0  0
   17.6288  -15.0385   -9.9096 H   0  0  0  0  0  0  0  0  0  0  0  0
   15.8420  -14.3470   -8.3450 H   0  0  0  0  0  0  0  0  0  0  0  0
   14.4821  -16.8793   -9.1326 H   0  0  0  0  0  0  0  0  0  0  0  0
   15.1383  -16.4940   -7.4961 H   0  0  0  0  0  0  0  0  0  0  0  0
   12.6428  -16.1108   -7.7184 H   0  0  0  0  0  0  0  0  0  0  0  0
   13.5836  -14.6431   -7.2389 H   0  0  0  0  0  0  0  0  0  0  0  0
   11.6447  -12.6983  -10.6553 H   0  0  0  0  0  0  0  0  0  0  0  0
    9.2176  -12.1720  -10.6718 H   0  0  0  0  0  0  0  0  0  0  0  0
    7.6370  -13.4817   -9.2618 H   0  0  0  0  0  0  0  0  0  0  0  0
    8.8409  -17.6420   -7.9676 H   0  0  0  0  0  0  0  0  0  0  0  0
    5.6630  -17.9810   -4.7980 H   0  0  0  0  0  0  0  0  0  0  0  0
    4.3430  -17.0990   -4.0270 H   0  0  0  0  0  0  0  0  0  0  0  0
    2.6814  -14.0044   -5.4830 H   0  0  0  0  0  0  0  0  0  0  0  0
    0.8828  -13.4513   -3.8533 H   0  0  0  0  0  0  0  0  0  0  0  0
    0.2970  -14.0970   -1.2280 H   0  0  0  0  0  0  0  0  0  0  0  0
   -0.8790  -13.1530    0.0870 H   0  0  0  0  0  0  0  0  0  0  0  0
   -1.2825   -9.8612   -0.2800 H   0  0  0  0  0  0  0  0  0  0  0  0
   -2.1835   -8.2859    1.4271 H   0  0  0  0  0  0  0  0  0  0  0  0
   -2.2212   -8.9252    3.8355 H   0  0  0  0  0  0  0  0  0  0  0  0
   -1.3526  -11.1570    4.5418 H   0  0  0  0  0  0  0  0  0  0  0  0
    3.6152  -14.1467   -0.5860 H   0  0  0  0  0  0  0  0  0  0  0  0
    5.4178  -14.7006   -2.2144 H   0  0  0  0  0  0  0  0  0  0  0  0
    5.6481  -12.5810   -5.3848 H   0  0  0  0  0  0  0  0  0  0  0  0
   10.9361  -15.8588   -7.8113 H   0  0  0  0  0  0  0  0  0  0  0  0
   13.2709  -13.3831  -10.8413 H   0  0  0  0  0  0  0  0  0  0  0  0
   13.9864  -12.8727   -9.2606 H   0  0  0  0  0  0  0  0  0  0  0  0
   14.8710  -15.2160  -11.0250 H   0  0  0  0  0  0  0  0  0  0  0  0
   15.7820  -13.6988  -10.6666 H   0  0  0  0  0  0  0  0  0  0  0  0
  1  2  1  0
  2  3  1  0
  3  4  1  0
  4  5  1  0
  5  6  1  0
  6  7  2  0
  7  8  1  0
  8  9  2  0
  9 10  1  0
 10 11  1  0
 11 12  1  0
 12 13  2  0
 13 14  1  0
 14 15  1  0
 15 16  1  0
 15 17  2  0
 17 18  1  0
 18 19  2  0
 19 20  1  0
 20 21  2  0
 21 22  1  0
 22 23  1  0
 23 24  2  0
 23 25  1  0
 25 26  1  0
 26 27  2  0
 27 28  1  0
 28 29  2  0
 29 30  1  0
 30 31  2  0
 31 32  1  0
 21 33  1  0
 33 34  2  0
 17 35  1  0
 35 36  2  0
 36 37  1  0
 10 38  2  0
  5 39  1  0
 39 40  1  0
 40  2  1  0
 38  6  1  0
 37 11  2  0
 37 14  1  0
 34 18  1  0
 31 26  1  0
  1 41  1  0
  1 42  1  0
  1 43  1  0
  2 44  1  0
  3 45  1  0
  3 46  1  0
  4 47  1  0
  4 48  1  0
  7 49  1  0
  8 50  1  0
  9 51  1  0
 12 52  1  0
 16 53  1  0
 16 54  1  0
 19 55  1  0
 20 56  1  0
 22 57  1  0
 25 58  1  0
 27 59  1  0
 28 60  1  0
 29 61  1  0
 30 62  1  0
 33 63  1  0
 34 64  1  0
 35 65  1  0
 38 66  1  0
 39 67  1  0
 39 68  1  0
 40 69  1  0
 40 70  1  0
M  CHG  1   2   1
M  END
>  <meeko>  (7) 
{"is_sidechain": [false], "free_energy": -8.707, "intermolecular_energy": -11.402, "internal_energy": -0.854}

$$$$
LIB_FRBJLBMEOUWTOH__M_PUB_ALL__e8__s20260927
     RDKit          3D

 70 75  0  0  0  0  0  0  0  0999 V2000
  -10.1610  -16.5070    5.8780 C   0  0  0  0  0  0  0  0  0  0  0  0
   -8.7200  -16.1710    6.1080 N   0  0  0  0  0  0  0  0  0  0  0  0
   -7.9520  -16.0050    4.7990 C   0  0  0  0  0  0  0  0  0  0  0  0
   -6.4970  -15.5780    5.0730 C   0  0  0  0  0  0  0  0  0  0  0  0
   -5.8500  -16.4940    6.0230 N   0  0  0  0  0  0  0  0  0  0  0  0
   -4.4570  -16.5830    6.0470 C   0  0  0  0  0  0  0  0  0  0  0  0
   -3.7130  -16.4320    7.2260 C   0  0  0  0  0  0  0  0  0  0  0  0
   -2.3180  -16.5090    7.2230 C   0  0  0  0  0  0  0  0  0  0  0  0
   -1.6310  -16.7340    6.0330 C   0  0  0  0  0  0  0  0  0  0  0  0
   -2.3330  -16.8810    4.8360 C   0  0  0  0  0  0  0  0  0  0  0  0
   -1.6400  -17.1170    3.5800 C   0  0  0  0  0  0  0  0  0  0  0  0
   -2.0350  -17.8810    2.4640 C   0  0  0  0  0  0  0  0  0  0  0  0
   -1.1570  -17.8540    1.4640 N   0  0  0  0  0  0  0  0  0  0  0  0
   -0.1430  -17.0600    1.9280 N   0  0  0  0  0  0  0  0  0  0  0  0
    1.0460  -16.7090    1.2340 C   0  0  0  0  0  0  0  0  0  0  0  0
    1.1950  -17.2210   -0.0410 N   0  0  0  0  0  0  0  0  0  0  0  0
    1.9310  -15.8960    1.8550 C   0  0  0  0  0  0  0  0  0  0  0  0
    3.1970  -15.4450    1.2670 C   0  0  0  0  0  0  0  0  0  0  0  0
    4.3180  -16.2820    1.2500 C   0  0  0  0  0  0  0  0  0  0  0  0
    5.5240  -15.8390    0.6940 C   0  0  0  0  0  0  0  0  0  0  0  0
    5.6320  -14.5530    0.1470 C   0  0  0  0  0  0  0  0  0  0  0  0
    6.8830  -14.1870   -0.3920 N   0  0  0  0  0  0  0  0  0  0  0  0
    7.8700  -13.4100    0.2000 C   0  0  0  0  0  0  0  0  0  0  0  0
    7.7930  -12.9130    1.3140 O   0  0  0  0  0  0  0  0  0  0  0  0
    8.9530  -13.2770   -0.6530 N   0  0  0  0  0  0  0  0  0  0  0  0
   10.1620  -12.5690   -0.4390 C   0  0  0  0  0  0  0  0  0  0  0  0
   10.4720  -11.9140    0.7560 C   0  0  0  0  0  0  0  0  0  0  0  0
   11.6860  -11.2330    0.9020 C   0  0  0  0  0  0  0  0  0  0  0  0
   12.6060  -11.1980   -0.1450 C   0  0  0  0  0  0  0  0  0  0  0  0
   12.3150  -11.8460   -1.3430 C   0  0  0  0  0  0  0  0  0  0  0  0
   11.1020  -12.5260   -1.4860 C   0  0  0  0  0  0  0  0  0  0  0  0
   10.7870  -13.3150   -2.9970 Cl  0  0  0  0  0  0  0  0  0  0  0  0
    4.5110  -13.7220    0.1660 C   0  0  0  0  0  0  0  0  0  0  0  0
    3.3030  -14.1630    0.7210 C   0  0  0  0  0  0  0  0  0  0  0  0
    1.5380  -15.4440    3.2270 C   0  0  0  0  0  0  0  0  0  0  0  0
    0.4560  -15.7550    3.8740 N   0  0  0  0  0  0  0  0  0  0  0  0
   -0.4130  -16.5870    3.2210 C   0  0  0  0  0  0  0  0  0  0  0  0
   -3.7370  -16.8060    4.8590 C   0  0  0  0  0  0  0  0  0  0  0  0
   -6.5680  -16.7830    7.2770 C   0  0  0  0  0  0  0  0  0  0  0  0
   -8.0260  -17.1980    6.9980 C   0  0  0  0  0  0  0  0  0  0  0  0
  -10.6690  -16.6254    6.8465 H   0  0  0  0  0  0  0  0  0  0  0  0
  -10.6402  -15.6965    5.3093 H   0  0  0  0  0  0  0  0  0  0  0  0
  -10.2323  -17.4459    5.3093 H   0  0  0  0  0  0  0  0  0  0  0  0
   -8.6790  -15.2690    6.5990 H   0  0  0  0  0  0  0  0  0  0  0  0
   -7.9517  -16.9619    4.2564 H   0  0  0  0  0  0  0  0  0  0  0  0
   -8.4424  -15.2258    4.1970 H   0  0  0  0  0  0  0  0  0  0  0  0
   -5.9357  -15.5852    4.1270 H   0  0  0  0  0  0  0  0  0  0  0  0
   -6.5040  -14.5681    5.5089 H   0  0  0  0  0  0  0  0  0  0  0  0
   -4.2394  -16.2488    8.1743 H   0  0  0  0  0  0  0  0  0  0  0  0
   -1.7605  -16.3915    8.1640 H   0  0  0  0  0  0  0  0  0  0  0  0
   -0.5328  -16.7960    6.0365 H   0  0  0  0  0  0  0  0  0  0  0  0
   -2.9782  -18.4455    2.4231 H   0  0  0  0  0  0  0  0  0  0  0  0
    0.5570  -16.8820   -0.7590 H   0  0  0  0  0  0  0  0  0  0  0  0
    1.9670  -17.8290   -0.2770 H   0  0  0  0  0  0  0  0  0  0  0  0
    4.2513  -17.2940    1.6760 H   0  0  0  0  0  0  0  0  0  0  0  0
    6.3971  -16.5080    0.6863 H   0  0  0  0  0  0  0  0  0  0  0  0
    7.0810  -14.5360   -1.3170 H   0  0  0  0  0  0  0  0  0  0  0  0
    8.8990  -13.7340   -1.5530 H   0  0  0  0  0  0  0  0  0  0  0  0
    9.7549  -11.9339    1.5899 H   0  0  0  0  0  0  0  0  0  0  0  0
   11.9157  -10.7222    1.8487 H   0  0  0  0  0  0  0  0  0  0  0  0
   13.5583  -10.6605   -0.0253 H   0  0  0  0  0  0  0  0  0  0  0  0
   13.0365  -11.8228   -2.1730 H   0  0  0  0  0  0  0  0  0  0  0  0
    4.5768  -12.7098   -0.2595 H   0  0  0  0  0  0  0  0  0  0  0  0
    2.4298  -13.4941    0.7271 H   0  0  0  0  0  0  0  0  0  0  0  0
    2.2427  -14.7755    3.7433 H   0  0  0  0  0  0  0  0  0  0  0  0
   -4.2911  -16.9257    3.9163 H   0  0  0  0  0  0  0  0  0  0  0  0
   -6.0559  -17.6016    7.8038 H   0  0  0  0  0  0  0  0  0  0  0  0
   -6.5757  -15.8720    7.8934 H   0  0  0  0  0  0  0  0  0  0  0  0
   -8.0327  -18.1756    6.4937 H   0  0  0  0  0  0  0  0  0  0  0  0
   -8.5653  -17.2576    7.9549 H   0  0  0  0  0  0  0  0  0  0  0  0
  1  2  1  0
  2  3  1  0
  3  4  1  0
  4  5  1  0
  5  6  1  0
  6  7  2  0
  7  8  1  0
  8  9  2  0
  9 10  1  0
 10 11  1  0
 11 12  1  0
 12 13  2  0
 13 14  1  0
 14 15  1  0
 15 16  1  0
 15 17  2  0
 17 18  1  0
 18 19  2  0
 19 20  1  0
 20 21  2  0
 21 22  1  0
 22 23  1  0
 23 24  2  0
 23 25  1  0
 25 26  1  0
 26 27  2  0
 27 28  1  0
 28 29  2  0
 29 30  1  0
 30 31  2  0
 31 32  1  0
 21 33  1  0
 33 34  2  0
 17 35  1  0
 35 36  2  0
 36 37  1  0
 10 38  2  0
  5 39  1  0
 39 40  1  0
 40  2  1  0
 38  6  1  0
 37 11  2  0
 37 14  1  0
 34 18  1  0
 31 26  1  0
  1 41  1  0
  1 42  1  0
  1 43  1  0
  2 44  1  0
  3 45  1  0
  3 46  1  0
  4 47  1  0
  4 48  1  0
  7 49  1  0
  8 50  1  0
  9 51  1  0
 12 52  1  0
 16 53  1  0
 16 54  1  0
 19 55  1  0
 20 56  1  0
 22 57  1  0
 25 58  1  0
 27 59  1  0
 28 60  1  0
 29 61  1  0
 30 62  1  0
 33 63  1  0
 34 64  1  0
 35 65  1  0
 38 66  1  0
 39 67  1  0
 39 68  1  0
 40 69  1  0
 40 70  1  0
M  CHG  1   2   1
M  END
>  <meeko>  (8) 
{"is_sidechain": [false], "free_energy": -8.648, "intermolecular_energy": -11.856, "internal_energy": -0.321}

$$$$
LIB_FRBJLBMEOUWTOH__M_PUB_ALL__e8__s20260927
     RDKit          3D

 70 75  0  0  0  0  0  0  0  0999 V2000
   13.3420  -10.6200    0.1630 C   0  0  0  0  0  0  0  0  0  0  0  0
   11.9800  -11.1130   -0.2200 N   0  0  0  0  0  0  0  0  0  0  0  0
   11.2080  -11.6580    0.9790 C   0  0  0  0  0  0  0  0  0  0  0  0
    9.7850  -12.0770    0.5630 C   0  0  0  0  0  0  0  0  0  0  0  0
    9.8200  -12.9960   -0.5840 N   0  0  0  0  0  0  0  0  0  0  0  0
    8.7340  -13.8430   -0.8140 C   0  0  0  0  0  0  0  0  0  0  0  0
    8.8890  -15.1540   -1.2850 C   0  0  0  0  0  0  0  0  0  0  0  0
    7.7870  -15.9790   -1.5240 C   0  0  0  0  0  0  0  0  0  0  0  0
    6.4960  -15.5060   -1.3010 C   0  0  0  0  0  0  0  0  0  0  0  0
    6.2980  -14.2040   -0.8410 C   0  0  0  0  0  0  0  0  0  0  0  0
    4.9610  -13.6850   -0.5990 C   0  0  0  0  0  0  0  0  0  0  0  0
    4.3330  -12.5370   -1.1200 C   0  0  0  0  0  0  0  0  0  0  0  0
    3.0800  -12.3810   -0.7000 N   0  0  0  0  0  0  0  0  0  0  0  0
    2.8680  -13.4470    0.1320 N   0  0  0  0  0  0  0  0  0  0  0  0
    1.6730  -13.7470    0.8420 C   0  0  0  0  0  0  0  0  0  0  0  0
    0.6170  -12.8720    0.6740 N   0  0  0  0  0  0  0  0  0  0  0  0
    1.6500  -14.8600    1.6090 C   0  0  0  0  0  0  0  0  0  0  0  0
    0.4920  -15.3010    2.3950 C   0  0  0  0  0  0  0  0  0  0  0  0
    0.2520  -14.7830    3.6720 C   0  0  0  0  0  0  0  0  0  0  0  0
   -0.8510  -15.2170    4.4160 C   0  0  0  0  0  0  0  0  0  0  0  0
   -1.7320  -16.1760    3.9000 C   0  0  0  0  0  0  0  0  0  0  0  0
   -2.8170  -16.5570    4.7160 N   0  0  0  0  0  0  0  0  0  0  0  0
   -4.1190  -16.0730    4.6840 C   0  0  0  0  0  0  0  0  0  0  0  0
   -4.5250  -15.2140    3.9140 O   0  0  0  0  0  0  0  0  0  0  0  0
   -4.8900  -16.7000    5.6480 N   0  0  0  0  0  0  0  0  0  0  0  0
   -6.2610  -16.5010    5.9480 C   0  0  0  0  0  0  0  0  0  0  0  0
   -7.3020  -16.9390    5.1270 C   0  0  0  0  0  0  0  0  0  0  0  0
   -8.6360  -16.7090    5.4830 C   0  0  0  0  0  0  0  0  0  0  0  0
   -8.9460  -16.0380    6.6650 C   0  0  0  0  0  0  0  0  0  0  0  0
   -7.9210  -15.5940    7.4950 C   0  0  0  0  0  0  0  0  0  0  0  0
   -6.5890  -15.8250    7.1390 C   0  0  0  0  0  0  0  0  0  0  0  0
   -5.3500  -15.2510    8.2070 Cl  0  0  0  0  0  0  0  0  0  0  0  0
   -1.4900  -16.6900    2.6260 C   0  0  0  0  0  0  0  0  0  0  0  0
   -0.3870  -16.2580    1.8780 C   0  0  0  0  0  0  0  0  0  0  0  0
    2.9100  -15.6690    1.6120 C   0  0  0  0  0  0  0  0  0  0  0  0
    4.0080  -15.4090    0.9690 N   0  0  0  0  0  0  0  0  0  0  0  0
    4.0010  -14.2690    0.2100 C   0  0  0  0  0  0  0  0  0  0  0  0
    7.4190  -13.3910   -0.6000 C   0  0  0  0  0  0  0  0  0  0  0  0
   10.6200  -12.5880   -1.7510 C   0  0  0  0  0  0  0  0  0  0  0  0
   12.0390  -12.1600   -1.3290 C   0  0  0  0  0  0  0  0  0  0  0  0
   13.4260  -10.5896    1.2594 H   0  0  0  0  0  0  0  0  0  0  0  0
   14.1057  -11.2988   -0.2446 H   0  0  0  0  0  0  0  0  0  0  0  0
   13.4943   -9.6097   -0.2446 H   0  0  0  0  0  0  0  0  0  0  0  0
   11.4460  -10.3150   -0.5850 H   0  0  0  0  0  0  0  0  0  0  0  0
   11.7387  -12.5326    1.3834 H   0  0  0  0  0  0  0  0  0  0  0  0
   11.1364  -10.8696    1.7427 H   0  0  0  0  0  0  0  0  0  0  0  0
    9.2955  -12.5785    1.4108 H   0  0  0  0  0  0  0  0  0  0  0  0
    9.2253  -11.1757    0.2727 H   0  0  0  0  0  0  0  0  0  0  0  0
    9.9013  -15.5422   -1.4707 H   0  0  0  0  0  0  0  0  0  0  0  0
    7.9394  -17.0053   -1.8894 H   0  0  0  0  0  0  0  0  0  0  0  0
    5.6315  -16.1600   -1.4879 H   0  0  0  0  0  0  0  0  0  0  0  0
    4.8302  -11.8370   -1.8076 H   0  0  0  0  0  0  0  0  0  0  0  0
    0.6110  -12.0300    1.2470 H   0  0  0  0  0  0  0  0  0  0  0  0
   -0.0680  -13.0070   -0.0580 H   0  0  0  0  0  0  0  0  0  0  0  0
    0.9342  -14.0302    4.0938 H   0  0  0  0  0  0  0  0  0  0  0  0
   -1.0283  -14.7999    5.4183 H   0  0  0  0  0  0  0  0  0  0  0  0
   -2.6210  -17.2690    5.4030 H   0  0  0  0  0  0  0  0  0  0  0  0
   -4.4400  -17.3950    6.2280 H   0  0  0  0  0  0  0  0  0  0  0  0
   -7.0716  -17.4699    4.1915 H   0  0  0  0  0  0  0  0  0  0  0  0
   -9.4452  -17.0600    4.8257 H   0  0  0  0  0  0  0  0  0  0  0  0
   -9.9961  -15.8603    6.9404 H   0  0  0  0  0  0  0  0  0  0  0  0
   -8.1582  -15.0628    8.4286 H   0  0  0  0  0  0  0  0  0  0  0  0
   -2.1725  -17.4425    2.2042 H   0  0  0  0  0  0  0  0  0  0  0  0
   -0.2108  -16.6751    0.8755 H   0  0  0  0  0  0  0  0  0  0  0  0
    2.9051  -16.5823    2.2251 H   0  0  0  0  0  0  0  0  0  0  0  0
    7.2628  -12.3664   -0.2315 H   0  0  0  0  0  0  0  0  0  0  0  0
   10.6930  -13.4342   -2.4500 H   0  0  0  0  0  0  0  0  0  0  0  0
   10.1251  -11.7311   -2.2314 H   0  0  0  0  0  0  0  0  0  0  0  0
   12.5884  -13.0407   -0.9651 H   0  0  0  0  0  0  0  0  0  0  0  0
   12.5502  -11.7239   -2.1999 H   0  0  0  0  0  0  0  0  0  0  0  0
  1  2  1  0
  2  3  1  0
  3  4  1  0
  4  5  1  0
  5  6  1  0
  6  7  2  0
  7  8  1  0
  8  9  2  0
  9 10  1  0
 10 11  1  0
 11 12  1  0
 12 13  2  0
 13 14  1  0
 14 15  1  0
 15 16  1  0
 15 17  2  0
 17 18  1  0
 18 19  2  0
 19 20  1  0
 20 21  2  0
 21 22  1  0
 22 23  1  0
 23 24  2  0
 23 25  1  0
 25 26  1  0
 26 27  2  0
 27 28  1  0
 28 29  2  0
 29 30  1  0
 30 31  2  0
 31 32  1  0
 21 33  1  0
 33 34  2  0
 17 35  1  0
 35 36  2  0
 36 37  1  0
 10 38  2  0
  5 39  1  0
 39 40  1  0
 40  2  1  0
 38  6  1  0
 37 11  2  0
 37 14  1  0
 34 18  1  0
 31 26  1  0
  1 41  1  0
  1 42  1  0
  1 43  1  0
  2 44  1  0
  3 45  1  0
  3 46  1  0
  4 47  1  0
  4 48  1  0
  7 49  1  0
  8 50  1  0
  9 51  1  0
 12 52  1  0
 16 53  1  0
 16 54  1  0
 19 55  1  0
 20 56  1  0
 22 57  1  0
 25 58  1  0
 27 59  1  0
 28 60  1  0
 29 61  1  0
 30 62  1  0
 33 63  1  0
 34 64  1  0
 35 65  1  0
 38 66  1  0
 39 67  1  0
 39 68  1  0
 40 69  1  0
 40 70  1  0
M  CHG  1   2   1
M  END
>  <meeko>  (9) 
{"is_sidechain": [false], "free_energy": -8.537, "intermolecular_energy": -11.075, "internal_energy": -0.957}

$$$$
