LIB_FGDRZTODQLVQGL__M_PUB_ALL__e8__s20260927
     RDKit          3D

 53 56  0  0  0  0  0  0  0  0999 V2000
   12.3930   -6.7420  -14.1280 N   0  0  0  0  0  0  0  0  0  0  0  0
   12.2090   -6.5190  -13.0050 C   0  0  0  0  0  0  0  0  0  0  0  0
   12.0360   -6.2270  -11.5830 C   0  0  0  0  0  0  0  0  0  0  0  0
   11.5660   -7.4650  -10.8520 C   0  0  0  0  0  0  0  0  0  0  0  0
   10.8410   -7.3650   -9.8660 O   0  0  0  0  0  0  0  0  0  0  0  0
   12.0380   -8.6460  -11.4090 N   0  0  0  0  0  0  0  0  0  0  0  0
   11.8280   -9.9610  -10.9360 C   0  0  0  0  0  0  0  0  0  0  0  0
   12.9090  -10.5900  -10.3090 C   0  0  0  0  0  0  0  0  0  0  0  0
   12.7800  -11.8850   -9.8110 C   0  0  0  0  0  0  0  0  0  0  0  0
   11.5680  -12.5610   -9.9380 C   0  0  0  0  0  0  0  0  0  0  0  0
   10.4590  -11.9640  -10.5620 C   0  0  0  0  0  0  0  0  0  0  0  0
    9.1810  -12.6990  -10.6890 C   0  0  0  0  0  0  0  0  0  0  0  0
    8.5310  -12.8760  -11.8930 C   0  0  0  0  0  0  0  0  0  0  0  0
    7.3600  -13.5900  -11.8460 C   0  0  0  0  0  0  0  0  0  0  0  0
    6.8460  -14.1010  -10.7160 N   0  0  0  0  0  0  0  0  0  0  0  0
    7.5330  -13.8900   -9.5820 C   0  0  0  0  0  0  0  0  0  0  0  0
    6.9630  -14.4500   -8.4420 N   0  0  0  0  0  0  0  0  0  0  0  0
    6.2260  -13.9370   -7.3720 C   0  0  0  0  0  0  0  0  0  0  0  0
    5.4980  -12.7570   -7.5600 C   0  0  0  0  0  0  0  0  0  0  0  0
    4.7250  -12.1970   -6.5310 C   0  0  0  0  0  0  0  0  0  0  0  0
    4.6500  -12.7860   -5.2640 C   0  0  0  0  0  0  0  0  0  0  0  0
    3.8900  -12.2530   -4.2280 N   0  0  0  0  0  0  0  0  0  0  0  0
    3.4160  -13.1120   -3.1300 C   0  0  0  0  0  0  0  0  0  0  0  0
    3.0200  -12.2600   -1.9140 C   0  0  0  0  0  0  0  0  0  0  0  0
    2.0570  -11.2540   -2.2620 O   0  0  0  0  0  0  0  0  0  0  0  0
    2.6140  -10.3720   -3.2490 C   0  0  0  0  0  0  0  0  0  0  0  0
    2.9960  -11.1200   -4.5350 C   0  0  0  0  0  0  0  0  0  0  0  0
    5.3700  -13.9740   -5.0890 C   0  0  0  0  0  0  0  0  0  0  0  0
    6.1410  -14.5390   -6.1200 C   0  0  0  0  0  0  0  0  0  0  0  0
    8.6860  -13.2090   -9.5390 N   0  0  0  0  0  0  0  0  0  0  0  0
   10.6160  -10.6490  -11.0480 C   0  0  0  0  0  0  0  0  0  0  0  0
   12.9962   -5.8971  -11.1598 H   0  0  0  0  0  0  0  0  0  0  0  0
   11.2836   -5.4329  -11.4673 H   0  0  0  0  0  0  0  0  0  0  0  0
   12.5640   -8.5790  -12.2720 H   0  0  0  0  0  0  0  0  0  0  0  0
   13.8670  -10.0588  -10.2085 H   0  0  0  0  0  0  0  0  0  0  0  0
   13.6338  -12.3731   -9.3182 H   0  0  0  0  0  0  0  0  0  0  0  0
   11.4773  -13.5831   -9.5416 H   0  0  0  0  0  0  0  0  0  0  0  0
    8.9278  -12.4690  -12.8347 H   0  0  0  0  0  0  0  0  0  0  0  0
    6.8124  -13.7526  -12.7860 H   0  0  0  0  0  0  0  0  0  0  0  0
    7.1310  -15.4440   -8.4510 H   0  0  0  0  0  0  0  0  0  0  0  0
    5.5323  -12.2558   -8.5386 H   0  0  0  0  0  0  0  0  0  0  0  0
    4.1637  -11.2712   -6.7256 H   0  0  0  0  0  0  0  0  0  0  0  0
    2.5414  -13.6856   -3.4706 H   0  0  0  0  0  0  0  0  0  0  0  0
    4.2266  -13.7956   -2.8372 H   0  0  0  0  0  0  0  0  0  0  0  0
    2.5877  -12.9163   -1.1443 H   0  0  0  0  0  0  0  0  0  0  0  0
    3.9231  -11.7556   -1.5398 H   0  0  0  0  0  0  0  0  0  0  0  0
    1.8712   -9.5987   -3.4946 H   0  0  0  0  0  0  0  0  0  0  0  0
    3.5278   -9.9252   -2.8302 H   0  0  0  0  0  0  0  0  0  0  0  0
    2.0833  -11.4996   -5.0176 H   0  0  0  0  0  0  0  0  0  0  0  0
    3.5203  -10.4255   -5.2080 H   0  0  0  0  0  0  0  0  0  0  0  0
    5.3312  -14.4814   -4.1138 H   0  0  0  0  0  0  0  0  0  0  0  0
    6.6877  -15.4751   -5.9335 H   0  0  0  0  0  0  0  0  0  0  0  0
    9.7610  -10.1510  -11.5285 H   0  0  0  0  0  0  0  0  0  0  0  0
  1  2  3  0
  2  3  1  0
  3  4  1  0
  4  5  2  0
  4  6  1  0
  6  7  1  0
  7  8  2  0
  8  9  1  0
  9 10  2  0
 10 11  1  0
 11 12  1  0
 12 13  2  0
 13 14  1  0
 14 15  2  0
 15 16  1  0
 16 17  1  0
 17 18  1  0
 18 19  2  0
 19 20  1  0
 20 21  2  0
 21 22  1  0
 22 23  1  0
 23 24  1  0
 24 25  1  0
 25 26  1  0
 26 27  1  0
 21 28  1  0
 28 29  2  0
 16 30  2  0
 11 31  2  0
 31  7  1  0
 30 12  1  0
 29 18  1  0
 27 22  1  0
  3 32  1  0
  3 33  1  0
  6 34  1  0
  8 35  1  0
  9 36  1  0
 10 37  1  0
 13 38  1  0
 14 39  1  0
 17 40  1  0
 19 41  1  0
 20 42  1  0
 23 43  1  0
 23 44  1  0
 24 45  1  0
 24 46  1  0
 26 47  1  0
 26 48  1  0
 27 49  1  0
 27 50  1  0
 28 51  1  0
 29 52  1  0
 31 53  1  0
M  END
>  <meeko>  (1) 
{"is_sidechain": [false], "free_energy": -8.508, "intermolecular_energy": -11.493, "internal_energy": -1.095}

$$$$
LIB_FGDRZTODQLVQGL__M_PUB_ALL__e8__s20260927
     RDKit          3D

 53 56  0  0  0  0  0  0  0  0999 V2000
    7.2560   -6.7030    4.6860 N   0  0  0  0  0  0  0  0  0  0  0  0
    7.3840   -6.9800    3.5670 C   0  0  0  0  0  0  0  0  0  0  0  0
    7.5120   -7.2810    2.1420 C   0  0  0  0  0  0  0  0  0  0  0  0
    6.8340   -8.5950    1.8260 C   0  0  0  0  0  0  0  0  0  0  0  0
    5.8280   -8.9380    2.4400 O   0  0  0  0  0  0  0  0  0  0  0  0
    7.4650   -9.3130    0.8190 N   0  0  0  0  0  0  0  0  0  0  0  0
    7.1180  -10.5930    0.3310 C   0  0  0  0  0  0  0  0  0  0  0  0
    7.7400  -11.6920    0.9320 C   0  0  0  0  0  0  0  0  0  0  0  0
    7.4470  -12.9870    0.5090 C   0  0  0  0  0  0  0  0  0  0  0  0
    6.5290  -13.1920   -0.5200 C   0  0  0  0  0  0  0  0  0  0  0  0
    5.8840  -12.1140   -1.1500 C   0  0  0  0  0  0  0  0  0  0  0  0
    4.9150  -12.3510   -2.2420 C   0  0  0  0  0  0  0  0  0  0  0  0
    3.6500  -11.8010   -2.2590 C   0  0  0  0  0  0  0  0  0  0  0  0
    2.8740  -12.1090   -3.3470 C   0  0  0  0  0  0  0  0  0  0  0  0
    3.2850  -12.8950   -4.3560 N   0  0  0  0  0  0  0  0  0  0  0  0
    4.5270  -13.3960   -4.2720 C   0  0  0  0  0  0  0  0  0  0  0  0
    4.9080  -14.1940   -5.3470 N   0  0  0  0  0  0  0  0  0  0  0  0
    5.7600  -14.0100   -6.4380 C   0  0  0  0  0  0  0  0  0  0  0  0
    5.4990  -12.9620   -7.3280 C   0  0  0  0  0  0  0  0  0  0  0  0
    6.3240  -12.7140   -8.4360 C   0  0  0  0  0  0  0  0  0  0  0  0
    7.4450  -13.5060   -8.7100 C   0  0  0  0  0  0  0  0  0  0  0  0
    8.2800  -13.2800   -9.7990 N   0  0  0  0  0  0  0  0  0  0  0  0
    7.8270  -13.5890  -11.1660 C   0  0  0  0  0  0  0  0  0  0  0  0
    8.6920  -12.8510  -12.1980 C   0  0  0  0  0  0  0  0  0  0  0  0
   10.0880  -13.1330  -12.0200 O   0  0  0  0  0  0  0  0  0  0  0  0
   10.5060  -12.7030  -10.7150 C   0  0  0  0  0  0  0  0  0  0  0  0
    9.7350  -13.4260   -9.6000 C   0  0  0  0  0  0  0  0  0  0  0  0
    7.7070  -14.5440   -7.8060 C   0  0  0  0  0  0  0  0  0  0  0  0
    6.8840  -14.7910   -6.6940 C   0  0  0  0  0  0  0  0  0  0  0  0
    5.3530  -13.1410   -3.2480 N   0  0  0  0  0  0  0  0  0  0  0  0
    6.1940  -10.8140   -0.6960 C   0  0  0  0  0  0  0  0  0  0  0  0
    7.0402   -6.4780    1.5566 H   0  0  0  0  0  0  0  0  0  0  0  0
    8.5787   -7.3548    1.8838 H   0  0  0  0  0  0  0  0  0  0  0  0
    8.2440   -8.8690    0.3450 H   0  0  0  0  0  0  0  0  0  0  0  0
    8.4651  -11.5331    1.7438 H   0  0  0  0  0  0  0  0  0  0  0  0
    7.9396  -13.8468    0.9866 H   0  0  0  0  0  0  0  0  0  0  0  0
    6.3049  -14.2186   -0.8455 H   0  0  0  0  0  0  0  0  0  0  0  0
    3.2853  -11.1537   -1.4479 H   0  0  0  0  0  0  0  0  0  0  0  0
    1.8585  -11.6891   -3.3962 H   0  0  0  0  0  0  0  0  0  0  0  0
    4.4590  -15.0930   -5.2580 H   0  0  0  0  0  0  0  0  0  0  0  0
    4.6253  -12.3164   -7.1548 H   0  0  0  0  0  0  0  0  0  0  0  0
    6.0834  -11.8756   -9.1063 H   0  0  0  0  0  0  0  0  0  0  0  0
    7.9048  -14.6728  -11.3370 H   0  0  0  0  0  0  0  0  0  0  0  0
    6.7827  -13.2619  -11.2776 H   0  0  0  0  0  0  0  0  0  0  0  0
    8.3904  -13.1674  -13.2074 H   0  0  0  0  0  0  0  0  0  0  0  0
    8.5406  -11.7700  -12.0618 H   0  0  0  0  0  0  0  0  0  0  0  0
   11.5796  -12.9122  -10.5984 H   0  0  0  0  0  0  0  0  0  0  0  0
   10.3006  -11.6258  -10.6287 H   0  0  0  0  0  0  0  0  0  0  0  0
    9.9967  -14.4943   -9.6130 H   0  0  0  0  0  0  0  0  0  0  0  0
   10.0081  -12.9804   -8.6321 H   0  0  0  0  0  0  0  0  0  0  0  0
    8.5847  -15.1859   -7.9720 H   0  0  0  0  0  0  0  0  0  0  0  0
    7.1327  -15.6177   -6.0123 H   0  0  0  0  0  0  0  0  0  0  0  0
    5.6956   -9.9513   -1.1623 H   0  0  0  0  0  0  0  0  0  0  0  0
  1  2  3  0
  2  3  1  0
  3  4  1  0
  4  5  2  0
  4  6  1  0
  6  7  1  0
  7  8  2  0
  8  9  1  0
  9 10  2  0
 10 11  1  0
 11 12  1  0
 12 13  2  0
 13 14  1  0
 14 15  2  0
 15 16  1  0
 16 17  1  0
 17 18  1  0
 18 19  2  0
 19 20  1  0
 20 21  2  0
 21 22  1  0
 22 23  1  0
 23 24  1  0
 24 25  1  0
 25 26  1  0
 26 27  1  0
 21 28  1  0
 28 29  2  0
 16 30  2  0
 11 31  2  0
 31  7  1  0
 30 12  1  0
 29 18  1  0
 27 22  1  0
  3 32  1  0
  3 33  1  0
  6 34  1  0
  8 35  1  0
  9 36  1  0
 10 37  1  0
 13 38  1  0
 14 39  1  0
 17 40  1  0
 19 41  1  0
 20 42  1  0
 23 43  1  0
 23 44  1  0
 24 45  1  0
 24 46  1  0
 26 47  1  0
 26 48  1  0
 27 49  1  0
 27 50  1  0
 28 51  1  0
 29 52  1  0
 31 53  1  0
M  END
>  <meeko>  (2) 
{"is_sidechain": [false], "free_energy": -8.258, "intermolecular_energy": -11.382, "internal_energy": -0.867}

$$$$
LIB_FGDRZTODQLVQGL__M_PUB_ALL__e8__s20260927
     RDKit          3D

 53 56  0  0  0  0  0  0  0  0999 V2000
   -3.2610  -10.8160   -0.3750 N   0  0  0  0  0  0  0  0  0  0  0  0
   -2.5860  -10.2530    0.3810 C   0  0  0  0  0  0  0  0  0  0  0  0
   -1.7600   -9.4910    1.3160 C   0  0  0  0  0  0  0  0  0  0  0  0
   -0.3000   -9.6280    0.9490 C   0  0  0  0  0  0  0  0  0  0  0  0
    0.4980   -8.7380    1.2330 O   0  0  0  0  0  0  0  0  0  0  0  0
   -0.0060  -10.8130    0.2890 N   0  0  0  0  0  0  0  0  0  0  0  0
    1.2430  -11.2170   -0.2340 C   0  0  0  0  0  0  0  0  0  0  0  0
    1.4560  -11.0130   -1.6010 C   0  0  0  0  0  0  0  0  0  0  0  0
    2.6640  -11.3810   -2.1900 C   0  0  0  0  0  0  0  0  0  0  0  0
    3.6690  -11.9580   -1.4140 C   0  0  0  0  0  0  0  0  0  0  0  0
    3.4940  -12.1810   -0.0380 C   0  0  0  0  0  0  0  0  0  0  0  0
    4.5710  -12.7960    0.7680 C   0  0  0  0  0  0  0  0  0  0  0  0
    4.3790  -13.9150    1.5520 C   0  0  0  0  0  0  0  0  0  0  0  0
    5.4800  -14.3710    2.2310 C   0  0  0  0  0  0  0  0  0  0  0  0
    6.6890  -13.7890    2.1630 N   0  0  0  0  0  0  0  0  0  0  0  0
    6.8010  -12.7040    1.3810 C   0  0  0  0  0  0  0  0  0  0  0  0
    8.0760  -12.1470    1.3370 N   0  0  0  0  0  0  0  0  0  0  0  0
    9.1360  -12.2180    0.4290 C   0  0  0  0  0  0  0  0  0  0  0  0
    8.8660  -12.5900   -0.8930 C   0  0  0  0  0  0  0  0  0  0  0  0
    9.8830  -12.6660   -1.8580 C   0  0  0  0  0  0  0  0  0  0  0  0
   11.2170  -12.3820   -1.5450 C   0  0  0  0  0  0  0  0  0  0  0  0
   12.2420  -12.4470   -2.4830 N   0  0  0  0  0  0  0  0  0  0  0  0
   13.4030  -11.5470   -2.3860 C   0  0  0  0  0  0  0  0  0  0  0  0
   14.5770  -12.0930   -3.2110 C   0  0  0  0  0  0  0  0  0  0  0  0
   14.2010  -12.3370   -4.5740 O   0  0  0  0  0  0  0  0  0  0  0  0
   13.1470  -13.3120   -4.6180 C   0  0  0  0  0  0  0  0  0  0  0  0
   11.8960  -12.8370   -3.8640 C   0  0  0  0  0  0  0  0  0  0  0  0
   11.4750  -11.9970   -0.2240 C   0  0  0  0  0  0  0  0  0  0  0  0
   10.4580  -11.9160    0.7430 C   0  0  0  0  0  0  0  0  0  0  0  0
    5.7790  -12.1970    0.6790 N   0  0  0  0  0  0  0  0  0  0  0  0
    2.2640  -11.7900    0.5330 C   0  0  0  0  0  0  0  0  0  0  0  0
   -2.0477   -8.4301    1.2746 H   0  0  0  0  0  0  0  0  0  0  0  0
   -1.9140   -9.8808    2.3330 H   0  0  0  0  0  0  0  0  0  0  0  0
   -0.7520  -11.4920    0.1930 H   0  0  0  0  0  0  0  0  0  0  0  0
    0.6646  -10.5590   -2.2154 H   0  0  0  0  0  0  0  0  0  0  0  0
    2.8248  -11.2166   -3.2657 H   0  0  0  0  0  0  0  0  0  0  0  0
    4.6187  -12.2445   -1.8894 H   0  0  0  0  0  0  0  0  0  0  0  0
    3.4007  -14.4121    1.6280 H   0  0  0  0  0  0  0  0  0  0  0  0
    5.3669  -15.2620    2.8660 H   0  0  0  0  0  0  0  0  0  0  0  0
    8.2020  -11.5600    2.1460 H   0  0  0  0  0  0  0  0  0  0  0  0
    7.8321  -12.8286   -1.1829 H   0  0  0  0  0  0  0  0  0  0  0  0
    9.6244  -12.9564   -2.8870 H   0  0  0  0  0  0  0  0  0  0  0  0
   13.1238  -10.5536   -2.7671 H   0  0  0  0  0  0  0  0  0  0  0  0
   13.7111  -11.4761   -1.3324 H   0  0  0  0  0  0  0  0  0  0  0  0
   15.3965  -11.3594   -3.1933 H   0  0  0  0  0  0  0  0  0  0  0  0
   14.8928  -13.0484   -2.7666 H   0  0  0  0  0  0  0  0  0  0  0  0
   12.8795  -13.4994   -5.6684 H   0  0  0  0  0  0  0  0  0  0  0  0
   13.5105  -14.2293   -4.1318 H   0  0  0  0  0  0  0  0  0  0  0  0
   11.4648  -11.9710   -4.3875 H   0  0  0  0  0  0  0  0  0  0  0  0
   11.1674  -13.6603   -3.8293 H   0  0  0  0  0  0  0  0  0  0  0  0
   12.5067  -11.7499    0.0666 H   0  0  0  0  0  0  0  0  0  0  0  0
   10.7119  -11.6079    1.7680 H   0  0  0  0  0  0  0  0  0  0  0  0
    2.1033  -11.9397    1.6108 H   0  0  0  0  0  0  0  0  0  0  0  0
  1  2  3  0
  2  3  1  0
  3  4  1  0
  4  5  2  0
  4  6  1  0
  6  7  1  0
  7  8  2  0
  8  9  1  0
  9 10  2  0
 10 11  1  0
 11 12  1  0
 12 13  2  0
 13 14  1  0
 14 15  2  0
 15 16  1  0
 16 17  1  0
 17 18  1  0
 18 19  2  0
 19 20  1  0
 20 21  2  0
 21 22  1  0
 22 23  1  0
 23 24  1  0
 24 25  1  0
 25 26  1  0
 26 27  1  0
 21 28  1  0
 28 29  2  0
 16 30  2  0
 11 31  2  0
 31  7  1  0
 30 12  1  0
 29 18  1  0
 27 22  1  0
  3 32  1  0
  3 33  1  0
  6 34  1  0
  8 35  1  0
  9 36  1  0
 10 37  1  0
 13 38  1  0
 14 39  1  0
 17 40  1  0
 19 41  1  0
 20 42  1  0
 23 43  1  0
 23 44  1  0
 24 45  1  0
 24 46  1  0
 26 47  1  0
 26 48  1  0
 27 49  1  0
 27 50  1  0
 28 51  1  0
 29 52  1  0
 31 53  1  0
M  END
>  <meeko>  (3) 
{"is_sidechain": [false], "free_energy": -7.944, "intermolecular_energy": -10.772, "internal_energy": -1.054}

$$$$
LIB_FGDRZTODQLVQGL__M_PUB_ALL__e8__s20260927
     RDKit          3D

 53 56  0  0  0  0  0  0  0  0999 V2000
    7.1540   -6.6340    4.5210 N   0  0  0  0  0  0  0  0  0  0  0  0
    7.3180   -6.9640    3.4210 C   0  0  0  0  0  0  0  0  0  0  0  0
    7.4900   -7.3340    2.0180 C   0  0  0  0  0  0  0  0  0  0  0  0
    6.8630   -8.6850    1.7560 C   0  0  0  0  0  0  0  0  0  0  0  0
    5.9050   -9.0640    2.4240 O   0  0  0  0  0  0  0  0  0  0  0  0
    7.4790   -9.3900    0.7310 N   0  0  0  0  0  0  0  0  0  0  0  0
    7.1710  -10.6930    0.2800 C   0  0  0  0  0  0  0  0  0  0  0  0
    7.7290  -11.7590    0.9930 C   0  0  0  0  0  0  0  0  0  0  0  0
    7.4690  -13.0750    0.6150 C   0  0  0  0  0  0  0  0  0  0  0  0
    6.6490  -13.3330   -0.4840 C   0  0  0  0  0  0  0  0  0  0  0  0
    6.0710  -12.2900   -1.2270 C   0  0  0  0  0  0  0  0  0  0  0  0
    5.2060  -12.5840   -2.3910 C   0  0  0  0  0  0  0  0  0  0  0  0
    5.4300  -12.0580   -3.6460 C   0  0  0  0  0  0  0  0  0  0  0  0
    4.5440  -12.4350   -4.6230 C   0  0  0  0  0  0  0  0  0  0  0  0
    3.5080  -13.2640   -4.4080 N   0  0  0  0  0  0  0  0  0  0  0  0
    3.3520  -13.7360   -3.1620 C   0  0  0  0  0  0  0  0  0  0  0  0
    2.2720  -14.5980   -2.9960 N   0  0  0  0  0  0  0  0  0  0  0  0
    1.6610  -15.1860   -1.8850 C   0  0  0  0  0  0  0  0  0  0  0  0
    0.5450  -14.5580   -1.3200 C   0  0  0  0  0  0  0  0  0  0  0  0
   -0.1250  -15.1040   -0.2130 C   0  0  0  0  0  0  0  0  0  0  0  0
    0.2940  -16.2980    0.3840 C   0  0  0  0  0  0  0  0  0  0  0  0
   -0.3520  -16.8610    1.4790 N   0  0  0  0  0  0  0  0  0  0  0  0
    0.4220  -17.4880    2.5630 C   0  0  0  0  0  0  0  0  0  0  0  0
   -0.4350  -17.6130    3.8320 C   0  0  0  0  0  0  0  0  0  0  0  0
   -1.6630  -18.3110    3.5780 O   0  0  0  0  0  0  0  0  0  0  0  0
   -2.4340  -17.5930    2.6010 C   0  0  0  0  0  0  0  0  0  0  0  0
   -1.6850  -17.4590    1.2670 C   0  0  0  0  0  0  0  0  0  0  0  0
    1.4030  -16.9270   -0.1970 C   0  0  0  0  0  0  0  0  0  0  0  0
    2.0720  -16.3840   -1.3080 C   0  0  0  0  0  0  0  0  0  0  0  0
    4.1750  -13.4230   -2.1510 N   0  0  0  0  0  0  0  0  0  0  0  0
    6.3450  -10.9680   -0.8140 C   0  0  0  0  0  0  0  0  0  0  0  0
    7.0066   -6.5789    1.3807 H   0  0  0  0  0  0  0  0  0  0  0  0
    8.5645   -7.3853    1.7884 H   0  0  0  0  0  0  0  0  0  0  0  0
    8.2100   -8.9170    0.2120 H   0  0  0  0  0  0  0  0  0  0  0  0
    8.3776  -11.5573    1.8582 H   0  0  0  0  0  0  0  0  0  0  0  0
    7.9093  -13.9085    1.1819 H   0  0  0  0  0  0  0  0  0  0  0  0
    6.4508  -14.3752   -0.7749 H   0  0  0  0  0  0  0  0  0  0  0  0
    6.2690  -11.3769   -3.8513 H   0  0  0  0  0  0  0  0  0  0  0  0
    4.6893  -12.0371   -5.6381 H   0  0  0  0  0  0  0  0  0  0  0  0
    1.8700  -14.7920   -3.8990 H   0  0  0  0  0  0  0  0  0  0  0  0
    0.1839  -13.6138   -1.7536 H   0  0  0  0  0  0  0  0  0  0  0  0
   -1.0016  -14.5795    0.1951 H   0  0  0  0  0  0  0  0  0  0  0  0
    0.7456  -18.4899    2.2443 H   0  0  0  0  0  0  0  0  0  0  0  0
    1.2975  -16.8600    2.7849 H   0  0  0  0  0  0  0  0  0  0  0  0
    0.1360  -18.1627    4.5948 H   0  0  0  0  0  0  0  0  0  0  0  0
   -0.6830  -16.5990    4.1789 H   0  0  0  0  0  0  0  0  0  0  0  0
   -3.3774  -18.1312    2.4268 H   0  0  0  0  0  0  0  0  0  0  0  0
   -2.6210  -16.5813    2.9903 H   0  0  0  0  0  0  0  0  0  0  0  0
   -1.5670  -18.4556    0.8167 H   0  0  0  0  0  0  0  0  0  0  0  0
   -2.2649  -16.8062    0.5980 H   0  0  0  0  0  0  0  0  0  0  0  0
    1.7615  -17.8755    0.2295 H   0  0  0  0  0  0  0  0  0  0  0  0
    2.9373  -16.9165   -1.7295 H   0  0  0  0  0  0  0  0  0  0  0  0
    5.8960  -10.1308   -1.3685 H   0  0  0  0  0  0  0  0  0  0  0  0
  1  2  3  0
  2  3  1  0
  3  4  1  0
  4  5  2  0
  4  6  1  0
  6  7  1  0
  7  8  2  0
  8  9  1  0
  9 10  2  0
 10 11  1  0
 11 12  1  0
 12 13  2  0
 13 14  1  0
 14 15  2  0
 15 16  1  0
 16 17  1  0
 17 18  1  0
 18 19  2  0
 19 20  1  0
 20 21  2  0
 21 22  1  0
 22 23  1  0
 23 24  1  0
 24 25  1  0
 25 26  1  0
 26 27  1  0
 21 28  1  0
 28 29  2  0
 16 30  2  0
 11 31  2  0
 31  7  1  0
 30 12  1  0
 29 18  1  0
 27 22  1  0
  3 32  1  0
  3 33  1  0
  6 34  1  0
  8 35  1  0
  9 36  1  0
 10 37  1  0
 13 38  1  0
 14 39  1  0
 17 40  1  0
 19 41  1  0
 20 42  1  0
 23 43  1  0
 23 44  1  0
 24 45  1  0
 24 46  1  0
 26 47  1  0
 26 48  1  0
 27 49  1  0
 27 50  1  0
 28 51  1  0
 29 52  1  0
 31 53  1  0
M  END
>  <meeko>  (4) 
{"is_sidechain": [false], "free_energy": -7.868, "intermolecular_energy": -10.814, "internal_energy": -0.909}

$$$$
LIB_FGDRZTODQLVQGL__M_PUB_ALL__e8__s20260927
     RDKit          3D

 53 56  0  0  0  0  0  0  0  0999 V2000
   10.2960   -3.9740  -11.6330 N   0  0  0  0  0  0  0  0  0  0  0  0
   11.2140   -4.6380  -11.8820 C   0  0  0  0  0  0  0  0  0  0  0  0
   12.3800   -5.4410  -12.2440 C   0  0  0  0  0  0  0  0  0  0  0  0
   11.9580   -6.8600  -12.5540 C   0  0  0  0  0  0  0  0  0  0  0  0
   11.9840   -7.2770  -13.7090 O   0  0  0  0  0  0  0  0  0  0  0  0
   11.5600   -7.5740  -11.4320 N   0  0  0  0  0  0  0  0  0  0  0  0
   11.0610   -8.8950  -11.3880 C   0  0  0  0  0  0  0  0  0  0  0  0
    9.7340   -9.0850  -11.7870 C   0  0  0  0  0  0  0  0  0  0  0  0
    9.1700  -10.3600  -11.7770 C   0  0  0  0  0  0  0  0  0  0  0  0
    9.9300  -11.4540  -11.3660 C   0  0  0  0  0  0  0  0  0  0  0  0
   11.2660  -11.3040  -10.9570 C   0  0  0  0  0  0  0  0  0  0  0  0
   12.0560  -12.4760  -10.5210 C   0  0  0  0  0  0  0  0  0  0  0  0
   13.0690  -13.0260  -11.2800 C   0  0  0  0  0  0  0  0  0  0  0  0
   13.7140  -14.1050  -10.7330 C   0  0  0  0  0  0  0  0  0  0  0  0
   13.4060  -14.6250   -9.5330 N   0  0  0  0  0  0  0  0  0  0  0  0
   12.4100  -14.0400   -8.8510 C   0  0  0  0  0  0  0  0  0  0  0  0
   12.1390  -14.6100   -7.6100 N   0  0  0  0  0  0  0  0  0  0  0  0
   12.1140  -14.1200   -6.3020 C   0  0  0  0  0  0  0  0  0  0  0  0
   10.9130  -14.1750   -5.5850 C   0  0  0  0  0  0  0  0  0  0  0  0
   10.8240  -13.7150   -4.2620 C   0  0  0  0  0  0  0  0  0  0  0  0
   11.9280  -13.1710   -3.5970 C   0  0  0  0  0  0  0  0  0  0  0  0
   11.8670  -12.7100   -2.2860 N   0  0  0  0  0  0  0  0  0  0  0  0
   10.5680  -12.5430   -1.6120 C   0  0  0  0  0  0  0  0  0  0  0  0
   10.7570  -12.4800   -0.0890 C   0  0  0  0  0  0  0  0  0  0  0  0
   11.6920  -11.4590    0.2880 O   0  0  0  0  0  0  0  0  0  0  0  0
   12.9740  -11.7350   -0.2990 C   0  0  0  0  0  0  0  0  0  0  0  0
   12.9060  -11.7650   -1.8320 C   0  0  0  0  0  0  0  0  0  0  0  0
   13.1290  -13.1340   -4.3170 C   0  0  0  0  0  0  0  0  0  0  0  0
   13.2220  -13.5980   -5.6400 C   0  0  0  0  0  0  0  0  0  0  0  0
   11.7320  -12.9790   -9.3090 N   0  0  0  0  0  0  0  0  0  0  0  0
   11.8140  -10.0030  -10.9860 C   0  0  0  0  0  0  0  0  0  0  0  0
   12.8624   -5.0031  -13.1303 H   0  0  0  0  0  0  0  0  0  0  0  0
   13.0859   -5.4515  -11.4004 H   0  0  0  0  0  0  0  0  0  0  0  0
   11.6670   -7.1250  -10.5300 H   0  0  0  0  0  0  0  0  0  0  0  0
    9.1317   -8.2233  -12.1106 H   0  0  0  0  0  0  0  0  0  0  0  0
    8.1261  -10.5026  -12.0932 H   0  0  0  0  0  0  0  0  0  0  0  0
    9.4745  -12.4553  -11.3618 H   0  0  0  0  0  0  0  0  0  0  0  0
   13.3428  -12.6223  -12.2659 H   0  0  0  0  0  0  0  0  0  0  0  0
   14.5281  -14.5704  -11.3079 H   0  0  0  0  0  0  0  0  0  0  0  0
   11.8950  -15.5790   -7.7440 H   0  0  0  0  0  0  0  0  0  0  0  0
   10.0169  -14.5889   -6.0704 H   0  0  0  0  0  0  0  0  0  0  0  0
    9.8613  -13.7840   -3.7344 H   0  0  0  0  0  0  0  0  0  0  0  0
   10.0981  -11.6103   -1.9574 H   0  0  0  0  0  0  0  0  0  0  0  0
    9.9272  -13.4031   -1.8559 H   0  0  0  0  0  0  0  0  0  0  0  0
    9.7863  -12.2660    0.3821 H   0  0  0  0  0  0  0  0  0  0  0  0
   11.1535  -13.4493    0.2477 H   0  0  0  0  0  0  0  0  0  0  0  0
   13.6828  -10.9528    0.0105 H   0  0  0  0  0  0  0  0  0  0  0  0
   13.3018  -12.7262    0.0476 H   0  0  0  0  0  0  0  0  0  0  0  0
   12.6661  -10.7577   -2.2033 H   0  0  0  0  0  0  0  0  0  0  0  0
   13.8800  -12.0924   -2.2245 H   0  0  0  0  0  0  0  0  0  0  0  0
   14.0286  -12.7285   -3.8309 H   0  0  0  0  0  0  0  0  0  0  0  0
   14.1886  -13.5479   -6.1626 H   0  0  0  0  0  0  0  0  0  0  0  0
   12.8617   -9.8569  -10.6842 H   0  0  0  0  0  0  0  0  0  0  0  0
  1  2  3  0
  2  3  1  0
  3  4  1  0
  4  5  2  0
  4  6  1  0
  6  7  1  0
  7  8  2  0
  8  9  1  0
  9 10  2  0
 10 11  1  0
 11 12  1  0
 12 13  2  0
 13 14  1  0
 14 15  2  0
 15 16  1  0
 16 17  1  0
 17 18  1  0
 18 19  2  0
 19 20  1  0
 20 21  2  0
 21 22  1  0
 22 23  1  0
 23 24  1  0
 24 25  1  0
 25 26  1  0
 26 27  1  0
 21 28  1  0
 28 29  2  0
 16 30  2  0
 11 31  2  0
 31  7  1  0
 30 12  1  0
 29 18  1  0
 27 22  1  0
  3 32  1  0
  3 33  1  0
  6 34  1  0
  8 35  1  0
  9 36  1  0
 10 37  1  0
 13 38  1  0
 14 39  1  0
 17 40  1  0
 19 41  1  0
 20 42  1  0
 23 43  1  0
 23 44  1  0
 24 45  1  0
 24 46  1  0
 26 47  1  0
 26 48  1  0
 27 49  1  0
 27 50  1  0
 28 51  1  0
 29 52  1  0
 31 53  1  0
M  END
>  <meeko>  (5) 
{"is_sidechain": [false], "free_energy": -7.809, "intermolecular_energy": -10.752, "internal_energy": -0.891}

$$$$
LIB_FGDRZTODQLVQGL__M_PUB_ALL__e8__s20260927
     RDKit          3D

 53 56  0  0  0  0  0  0  0  0999 V2000
   17.1920  -19.6850    8.3450 N   0  0  0  0  0  0  0  0  0  0  0  0
   18.0010  -19.0490    8.8800 C   0  0  0  0  0  0  0  0  0  0  0  0
   19.0510  -18.2980    9.5660 C   0  0  0  0  0  0  0  0  0  0  0  0
   18.4910  -17.6350   10.8040 C   0  0  0  0  0  0  0  0  0  0  0  0
   18.9380  -16.5570   11.1870 O   0  0  0  0  0  0  0  0  0  0  0  0
   17.4760  -18.3640   11.4090 N   0  0  0  0  0  0  0  0  0  0  0  0
   16.7880  -18.0500   12.6020 C   0  0  0  0  0  0  0  0  0  0  0  0
   17.3970  -18.4260   13.8040 C   0  0  0  0  0  0  0  0  0  0  0  0
   16.7830  -18.1460   15.0240 C   0  0  0  0  0  0  0  0  0  0  0  0
   15.5530  -17.4900   15.0500 C   0  0  0  0  0  0  0  0  0  0  0  0
   14.9090  -17.0980   13.8640 C   0  0  0  0  0  0  0  0  0  0  0  0
   13.6020  -16.4050   13.9120 C   0  0  0  0  0  0  0  0  0  0  0  0
   12.5470  -16.8410   14.6850 C   0  0  0  0  0  0  0  0  0  0  0  0
   11.4050  -16.0820   14.6280 C   0  0  0  0  0  0  0  0  0  0  0  0
   11.2840  -14.9760   13.8760 N   0  0  0  0  0  0  0  0  0  0  0  0
   12.3520  -14.6120   13.1490 C   0  0  0  0  0  0  0  0  0  0  0  0
   12.1780  -13.4530   12.3970 N   0  0  0  0  0  0  0  0  0  0  0  0
   12.7030  -12.1610   12.4700 C   0  0  0  0  0  0  0  0  0  0  0  0
   13.8080  -11.8370   11.6740 C   0  0  0  0  0  0  0  0  0  0  0  0
   14.3740  -10.5530   11.6880 C   0  0  0  0  0  0  0  0  0  0  0  0
   13.8680   -9.5350   12.5040 C   0  0  0  0  0  0  0  0  0  0  0  0
   14.4080   -8.2540   12.5350 N   0  0  0  0  0  0  0  0  0  0  0  0
   14.3120   -7.4310   13.7520 C   0  0  0  0  0  0  0  0  0  0  0  0
   15.3440   -6.2930   13.7150 C   0  0  0  0  0  0  0  0  0  0  0  0
   15.2210   -5.5040   12.5230 O   0  0  0  0  0  0  0  0  0  0  0  0
   15.4430   -6.3310   11.3690 C   0  0  0  0  0  0  0  0  0  0  0  0
   14.4220   -7.4750   11.2810 C   0  0  0  0  0  0  0  0  0  0  0  0
   12.7530   -9.8640   13.2860 C   0  0  0  0  0  0  0  0  0  0  0  0
   12.1820  -11.1480   13.2700 C   0  0  0  0  0  0  0  0  0  0  0  0
   13.5060  -15.2910   13.1510 N   0  0  0  0  0  0  0  0  0  0  0  0
   15.5580  -17.3850   12.6440 C   0  0  0  0  0  0  0  0  0  0  0  0
   19.8599  -18.9850    9.8554 H   0  0  0  0  0  0  0  0  0  0  0  0
   19.4416  -17.5244    8.8886 H   0  0  0  0  0  0  0  0  0  0  0  0
   17.1550  -19.2010   10.9350 H   0  0  0  0  0  0  0  0  0  0  0  0
   18.3663  -18.9458   13.7865 H   0  0  0  0  0  0  0  0  0  0  0  0
   17.2687  -18.4424   15.9654 H   0  0  0  0  0  0  0  0  0  0  0  0
   15.0772  -17.2750   16.0182 H   0  0  0  0  0  0  0  0  0  0  0  0
   12.6164  -17.7434   15.3102 H   0  0  0  0  0  0  0  0  0  0  0  0
   10.5411  -16.3970   15.2316 H   0  0  0  0  0  0  0  0  0  0  0  0
   11.5420  -13.6500   11.6390 H   0  0  0  0  0  0  0  0  0  0  0  0
   14.2434  -12.6080   11.0214 H   0  0  0  0  0  0  0  0  0  0  0  0
   15.2378  -10.3412   11.0407 H   0  0  0  0  0  0  0  0  0  0  0  0
   13.3016   -7.0014   13.8197 H   0  0  0  0  0  0  0  0  0  0  0  0
   14.5136   -8.0657   14.6275 H   0  0  0  0  0  0  0  0  0  0  0  0
   15.1904   -5.6439   14.5897 H   0  0  0  0  0  0  0  0  0  0  0  0
   16.3488   -6.7405   13.7280 H   0  0  0  0  0  0  0  0  0  0  0  0
   15.3604   -5.7099   10.4649 H   0  0  0  0  0  0  0  0  0  0  0  0
   16.4461   -6.7743   11.4544 H   0  0  0  0  0  0  0  0  0  0  0  0
   13.4211   -7.0540   11.1053 H   0  0  0  0  0  0  0  0  0  0  0  0
   14.7046   -8.1407   10.4521 H   0  0  0  0  0  0  0  0  0  0  0  0
   12.3103   -9.0925   13.9332 H   0  0  0  0  0  0  0  0  0  0  0  0
   11.3062  -11.3566   13.9020 H   0  0  0  0  0  0  0  0  0  0  0  0
   15.0837  -17.0774   11.7004 H   0  0  0  0  0  0  0  0  0  0  0  0
  1  2  3  0
  2  3  1  0
  3  4  1  0
  4  5  2  0
  4  6  1  0
  6  7  1  0
  7  8  2  0
  8  9  1  0
  9 10  2  0
 10 11  1  0
 11 12  1  0
 12 13  2  0
 13 14  1  0
 14 15  2  0
 15 16  1  0
 16 17  1  0
 17 18  1  0
 18 19  2  0
 19 20  1  0
 20 21  2  0
 21 22  1  0
 22 23  1  0
 23 24  1  0
 24 25  1  0
 25 26  1  0
 26 27  1  0
 21 28  1  0
 28 29  2  0
 16 30  2  0
 11 31  2  0
 31  7  1  0
 30 12  1  0
 29 18  1  0
 27 22  1  0
  3 32  1  0
  3 33  1  0
  6 34  1  0
  8 35  1  0
  9 36  1  0
 10 37  1  0
 13 38  1  0
 14 39  1  0
 17 40  1  0
 19 41  1  0
 20 42  1  0
 23 43  1  0
 23 44  1  0
 24 45  1  0
 24 46  1  0
 26 47  1  0
 26 48  1  0
 27 49  1  0
 27 50  1  0
 28 51  1  0
 29 52  1  0
 31 53  1  0
M  END
>  <meeko>  (6) 
{"is_sidechain": [false], "free_energy": -7.695, "intermolecular_energy": -10.363, "internal_energy": -1.127}

$$$$
LIB_FGDRZTODQLVQGL__M_PUB_ALL__e8__s20260927
     RDKit          3D

 53 56  0  0  0  0  0  0  0  0999 V2000
   13.3460  -15.7250   -4.1800 N   0  0  0  0  0  0  0  0  0  0  0  0
   13.5190  -14.5830   -4.2820 C   0  0  0  0  0  0  0  0  0  0  0  0
   13.7940  -13.1510   -4.3900 C   0  0  0  0  0  0  0  0  0  0  0  0
   12.9380  -12.3820   -3.4090 C   0  0  0  0  0  0  0  0  0  0  0  0
   12.7950  -11.1680   -3.5290 O   0  0  0  0  0  0  0  0  0  0  0  0
   12.3790  -13.1810   -2.4220 N   0  0  0  0  0  0  0  0  0  0  0  0
   11.5800  -12.7660   -1.3320 C   0  0  0  0  0  0  0  0  0  0  0  0
   12.2500  -12.2860   -0.2020 C   0  0  0  0  0  0  0  0  0  0  0  0
   11.5330  -11.8520    0.9120 C   0  0  0  0  0  0  0  0  0  0  0  0
   10.1390  -11.8980    0.9030 C   0  0  0  0  0  0  0  0  0  0  0  0
    9.4300  -12.3750   -0.2130 C   0  0  0  0  0  0  0  0  0  0  0  0
    7.9510  -12.4180   -0.2020 C   0  0  0  0  0  0  0  0  0  0  0  0
    7.1920  -11.9500    0.8500 C   0  0  0  0  0  0  0  0  0  0  0  0
    5.8320  -12.0510    0.7030 C   0  0  0  0  0  0  0  0  0  0  0  0
    5.2380  -12.5700   -0.3850 N   0  0  0  0  0  0  0  0  0  0  0  0
    6.0400  -13.0070   -1.3680 C   0  0  0  0  0  0  0  0  0  0  0  0
    5.3750  -13.5240   -2.4760 N   0  0  0  0  0  0  0  0  0  0  0  0
    5.7060  -13.6750   -3.8250 C   0  0  0  0  0  0  0  0  0  0  0  0
    6.3060  -14.8690   -4.2410 C   0  0  0  0  0  0  0  0  0  0  0  0
    6.6500  -15.0900   -5.5840 C   0  0  0  0  0  0  0  0  0  0  0  0
    6.4180  -14.1260   -6.5710 C   0  0  0  0  0  0  0  0  0  0  0  0
    6.7470  -14.3210   -7.9080 N   0  0  0  0  0  0  0  0  0  0  0  0
    7.7920  -15.2870   -8.2880 C   0  0  0  0  0  0  0  0  0  0  0  0
    7.6620  -15.6650   -9.7710 C   0  0  0  0  0  0  0  0  0  0  0  0
    7.6700  -14.5060  -10.6170 O   0  0  0  0  0  0  0  0  0  0  0  0
    6.5610  -13.6560  -10.2850 C   0  0  0  0  0  0  0  0  0  0  0  0
    6.6260  -13.1740   -8.8290 C   0  0  0  0  0  0  0  0  0  0  0  0
    5.8040  -12.9410   -6.1480 C   0  0  0  0  0  0  0  0  0  0  0  0
    5.4550  -12.7190   -4.8050 C   0  0  0  0  0  0  0  0  0  0  0  0
    7.3770  -12.9400   -1.3090 N   0  0  0  0  0  0  0  0  0  0  0  0
   10.1820  -12.7980   -1.3290 C   0  0  0  0  0  0  0  0  0  0  0  0
   14.8557  -12.9667   -4.1688 H   0  0  0  0  0  0  0  0  0  0  0  0
   13.5607  -12.8156   -5.4113 H   0  0  0  0  0  0  0  0  0  0  0  0
   12.5190  -14.1820   -2.4940 H   0  0  0  0  0  0  0  0  0  0  0  0
   13.3494  -12.2507   -0.1922 H   0  0  0  0  0  0  0  0  0  0  0  0
   12.0659  -11.4738    1.7969 H   0  0  0  0  0  0  0  0  0  0  0  0
    9.5830  -11.5539    1.7876 H   0  0  0  0  0  0  0  0  0  0  0  0
    7.6501  -11.5211    1.7534 H   0  0  0  0  0  0  0  0  0  0  0  0
    5.1924  -11.6872    1.5206 H   0  0  0  0  0  0  0  0  0  0  0  0
    4.4730  -13.8680   -2.1820 H   0  0  0  0  0  0  0  0  0  0  0  0
    6.5130  -15.6531   -3.4978 H   0  0  0  0  0  0  0  0  0  0  0  0
    7.1141  -16.0461   -5.8677 H   0  0  0  0  0  0  0  0  0  0  0  0
    8.7808  -14.8375   -8.1144 H   0  0  0  0  0  0  0  0  0  0  0  0
    7.6757  -16.1950   -7.6781 H   0  0  0  0  0  0  0  0  0  0  0  0
    8.5052  -16.3147  -10.0485 H   0  0  0  0  0  0  0  0  0  0  0  0
    6.7021  -16.1840   -9.9096 H   0  0  0  0  0  0  0  0  0  0  0  0
    6.5723  -12.7802  -10.9505 H   0  0  0  0  0  0  0  0  0  0  0  0
    5.6358  -14.2374  -10.4110 H   0  0  0  0  0  0  0  0  0  0  0  0
    7.4989  -12.5164   -8.7043 H   0  0  0  0  0  0  0  0  0  0  0  0
    5.7012  -12.6265   -8.5946 H   0  0  0  0  0  0  0  0  0  0  0  0
    5.5879  -12.1588   -6.8906 H   0  0  0  0  0  0  0  0  0  0  0  0
    4.9739  -11.7709   -4.5226 H   0  0  0  0  0  0  0  0  0  0  0  0
    9.6538  -13.1633   -2.2221 H   0  0  0  0  0  0  0  0  0  0  0  0
  1  2  3  0
  2  3  1  0
  3  4  1  0
  4  5  2  0
  4  6  1  0
  6  7  1  0
  7  8  2  0
  8  9  1  0
  9 10  2  0
 10 11  1  0
 11 12  1  0
 12 13  2  0
 13 14  1  0
 14 15  2  0
 15 16  1  0
 16 17  1  0
 17 18  1  0
 18 19  2  0
 19 20  1  0
 20 21  2  0
 21 22  1  0
 22 23  1  0
 23 24  1  0
 24 25  1  0
 25 26  1  0
 26 27  1  0
 21 28  1  0
 28 29  2  0
 16 30  2  0
 11 31  2  0
 31  7  1  0
 30 12  1  0
 29 18  1  0
 27 22  1  0
  3 32  1  0
  3 33  1  0
  6 34  1  0
  8 35  1  0
  9 36  1  0
 10 37  1  0
 13 38  1  0
 14 39  1  0
 17 40  1  0
 19 41  1  0
 20 42  1  0
 23 43  1  0
 23 44  1  0
 24 45  1  0
 24 46  1  0
 26 47  1  0
 26 48  1  0
 27 49  1  0
 27 50  1  0
 28 51  1  0
 29 52  1  0
 31 53  1  0
M  END
>  <meeko>  (7) 
{"is_sidechain": [false], "free_energy": -7.604, "intermolecular_energy": -9.99, "internal_energy": -1.376}

$$$$
LIB_FGDRZTODQLVQGL__M_PUB_ALL__e8__s20260927
     RDKit          3D

 53 56  0  0  0  0  0  0  0  0999 V2000
   13.5080  -10.6010   -0.1740 N   0  0  0  0  0  0  0  0  0  0  0  0
   12.8060  -11.3160   -0.7590 C   0  0  0  0  0  0  0  0  0  0  0  0
   11.9430  -12.2630   -1.4620 C   0  0  0  0  0  0  0  0  0  0  0  0
   12.3670  -12.3780   -2.9090 C   0  0  0  0  0  0  0  0  0  0  0  0
   12.7500  -11.3860   -3.5230 O   0  0  0  0  0  0  0  0  0  0  0  0
   12.2680  -13.6670   -3.4120 N   0  0  0  0  0  0  0  0  0  0  0  0
   12.5330  -14.0960   -4.7320 C   0  0  0  0  0  0  0  0  0  0  0  0
   13.8060  -14.6160   -4.9870 C   0  0  0  0  0  0  0  0  0  0  0  0
   14.1440  -15.0650   -6.2620 C   0  0  0  0  0  0  0  0  0  0  0  0
   13.2080  -14.9950   -7.2940 C   0  0  0  0  0  0  0  0  0  0  0  0
   11.9190  -14.4790   -7.0790 C   0  0  0  0  0  0  0  0  0  0  0  0
   10.9400  -14.4110   -8.1870 C   0  0  0  0  0  0  0  0  0  0  0  0
   11.3090  -14.2670   -9.5080 C   0  0  0  0  0  0  0  0  0  0  0  0
   10.2840  -14.2310  -10.4180 C   0  0  0  0  0  0  0  0  0  0  0  0
    8.9870  -14.3270  -10.0820 N   0  0  0  0  0  0  0  0  0  0  0  0
    8.7030  -14.4650   -8.7780 C   0  0  0  0  0  0  0  0  0  0  0  0
    7.3460  -14.5720   -8.4840 N   0  0  0  0  0  0  0  0  0  0  0  0
    6.5210  -14.0300   -7.4960 C   0  0  0  0  0  0  0  0  0  0  0  0
    5.8540  -12.8290   -7.7600 C   0  0  0  0  0  0  0  0  0  0  0  0
    4.9980  -12.2390   -6.8150 C   0  0  0  0  0  0  0  0  0  0  0  0
    4.7760  -12.8190   -5.5610 C   0  0  0  0  0  0  0  0  0  0  0  0
    3.9320  -12.2570   -4.6100 N   0  0  0  0  0  0  0  0  0  0  0  0
    3.0830  -13.1140   -3.7640 C   0  0  0  0  0  0  0  0  0  0  0  0
    2.6110  -12.3430   -2.5220 C   0  0  0  0  0  0  0  0  0  0  0  0
    1.9530  -11.1180   -2.8750 O   0  0  0  0  0  0  0  0  0  0  0  0
    2.8620  -10.2690   -3.5940 C   0  0  0  0  0  0  0  0  0  0  0  0
    3.3540  -10.9280   -4.8910 C   0  0  0  0  0  0  0  0  0  0  0  0
    5.4360  -14.0290   -5.3120 C   0  0  0  0  0  0  0  0  0  0  0  0
    6.2900  -14.6230   -6.2580 C   0  0  0  0  0  0  0  0  0  0  0  0
    9.6430  -14.5150   -7.8240 N   0  0  0  0  0  0  0  0  0  0  0  0
   11.6030  -14.0400   -5.7750 C   0  0  0  0  0  0  0  0  0  0  0  0
   12.0182  -13.2496   -0.9814 H   0  0  0  0  0  0  0  0  0  0  0  0
   10.9043  -11.9036   -1.4189 H   0  0  0  0  0  0  0  0  0  0  0  0
   12.0110  -14.4040   -2.7650 H   0  0  0  0  0  0  0  0  0  0  0  0
   14.5459  -14.6709   -4.1749 H   0  0  0  0  0  0  0  0  0  0  0  0
   15.1469  -15.4738   -6.4544 H   0  0  0  0  0  0  0  0  0  0  0  0
   13.4849  -15.3513   -8.2972 H   0  0  0  0  0  0  0  0  0  0  0  0
   12.3627  -14.1859   -9.8134 H   0  0  0  0  0  0  0  0  0  0  0  0
   10.5379  -14.1172  -11.4822 H   0  0  0  0  0  0  0  0  0  0  0  0
    6.9100  -15.1620   -9.1760 H   0  0  0  0  0  0  0  0  0  0  0  0
    6.0034  -12.3345   -8.7312 H   0  0  0  0  0  0  0  0  0  0  0  0
    4.4892  -11.2969   -7.0673 H   0  0  0  0  0  0  0  0  0  0  0  0
    2.2063  -13.4398   -4.3430 H   0  0  0  0  0  0  0  0  0  0  0  0
    3.6686  -13.9871   -3.4402 H   0  0  0  0  0  0  0  0  0  0  0  0
    1.9097  -12.9739   -1.9562 H   0  0  0  0  0  0  0  0  0  0  0  0
    3.4952  -12.0947   -1.9166 H   0  0  0  0  0  0  0  0  0  0  0  0
    2.3484   -9.3292   -3.8449 H   0  0  0  0  0  0  0  0  0  0  0  0
    3.7359  -10.0832   -2.9524 H   0  0  0  0  0  0  0  0  0  0  0  0
    2.5067  -11.0410   -5.5834 H   0  0  0  0  0  0  0  0  0  0  0  0
    4.1298  -10.2911   -5.3410 H   0  0  0  0  0  0  0  0  0  0  0  0
    5.2813  -14.5307   -4.3454 H   0  0  0  0  0  0  0  0  0  0  0  0
    6.7851  -15.5747   -6.0151 H   0  0  0  0  0  0  0  0  0  0  0  0
   10.5972  -13.6428   -5.5737 H   0  0  0  0  0  0  0  0  0  0  0  0
  1  2  3  0
  2  3  1  0
  3  4  1  0
  4  5  2  0
  4  6  1  0
  6  7  1  0
  7  8  2  0
  8  9  1  0
  9 10  2  0
 10 11  1  0
 11 12  1  0
 12 13  2  0
 13 14  1  0
 14 15  2  0
 15 16  1  0
 16 17  1  0
 17 18  1  0
 18 19  2  0
 19 20  1  0
 20 21  2  0
 21 22  1  0
 22 23  1  0
 23 24  1  0
 24 25  1  0
 25 26  1  0
 26 27  1  0
 21 28  1  0
 28 29  2  0
 16 30  2  0
 11 31  2  0
 31  7  1  0
 30 12  1  0
 29 18  1  0
 27 22  1  0
  3 32  1  0
  3 33  1  0
  6 34  1  0
  8 35  1  0
  9 36  1  0
 10 37  1  0
 13 38  1  0
 14 39  1  0
 17 40  1  0
 19 41  1  0
 20 42  1  0
 23 43  1  0
 23 44  1  0
 24 45  1  0
 24 46  1  0
 26 47  1  0
 26 48  1  0
 27 49  1  0
 27 50  1  0
 28 51  1  0
 29 52  1  0
 31 53  1  0
M  END
>  <meeko>  (8) 
{"is_sidechain": [false], "free_energy": -7.574, "intermolecular_energy": -10.321, "internal_energy": -1.005}

$$$$
LIB_FGDRZTODQLVQGL__M_PUB_ALL__e8__s20260927
     RDKit          3D

 53 56  0  0  0  0  0  0  0  0999 V2000
   13.3820  -10.7200   -9.9550 N   0  0  0  0  0  0  0  0  0  0  0  0
   13.3420  -11.7790  -10.4270 C   0  0  0  0  0  0  0  0  0  0  0  0
   13.2970  -13.0890  -11.0760 C   0  0  0  0  0  0  0  0  0  0  0  0
   11.9390  -13.7220  -10.8730 C   0  0  0  0  0  0  0  0  0  0  0  0
   11.8300  -14.9430  -10.7910 O   0  0  0  0  0  0  0  0  0  0  0  0
   10.9050  -12.7990  -10.8020 N   0  0  0  0  0  0  0  0  0  0  0  0
    9.5230  -13.0670  -10.6720 C   0  0  0  0  0  0  0  0  0  0  0  0
    8.7670  -13.0800  -11.8480 C   0  0  0  0  0  0  0  0  0  0  0  0
    7.3980  -13.3420  -11.8040 C   0  0  0  0  0  0  0  0  0  0  0  0
    6.7770  -13.5900  -10.5810 C   0  0  0  0  0  0  0  0  0  0  0  0
    7.5020  -13.5840   -9.3770 C   0  0  0  0  0  0  0  0  0  0  0  0
    6.8240  -13.8470   -8.0890 C   0  0  0  0  0  0  0  0  0  0  0  0
    7.1350  -14.9200   -7.2800 C   0  0  0  0  0  0  0  0  0  0  0  0
    6.4230  -15.0200   -6.1120 C   0  0  0  0  0  0  0  0  0  0  0  0
    5.4720  -14.1460   -5.7440 N   0  0  0  0  0  0  0  0  0  0  0  0
    5.2220  -13.1270   -6.5800 C   0  0  0  0  0  0  0  0  0  0  0  0
    4.2370  -12.2450   -6.1470 N   0  0  0  0  0  0  0  0  0  0  0  0
    3.5550  -12.0680   -4.9400 C   0  0  0  0  0  0  0  0  0  0  0  0
    3.3900  -10.7700   -4.4440 C   0  0  0  0  0  0  0  0  0  0  0  0
    2.7020  -10.5220   -3.2460 C   0  0  0  0  0  0  0  0  0  0  0  0
    2.1520  -11.5600   -2.4850 C   0  0  0  0  0  0  0  0  0  0  0  0
    1.4640  -11.3410   -1.2970 N   0  0  0  0  0  0  0  0  0  0  0  0
    0.7330  -10.0810   -1.0770 C   0  0  0  0  0  0  0  0  0  0  0  0
   -0.2950  -10.2460    0.0530 C   0  0  0  0  0  0  0  0  0  0  0  0
    0.3140  -10.7300    1.2590 O   0  0  0  0  0  0  0  0  0  0  0  0
    0.9080  -12.0160    1.0190 C   0  0  0  0  0  0  0  0  0  0  0  0
    1.9960  -11.9510   -0.0630 C   0  0  0  0  0  0  0  0  0  0  0  0
    2.3090  -12.8540   -2.9970 C   0  0  0  0  0  0  0  0  0  0  0  0
    2.9940  -13.1040   -4.1990 C   0  0  0  0  0  0  0  0  0  0  0  0
    5.8750  -12.9510   -7.7370 N   0  0  0  0  0  0  0  0  0  0  0  0
    8.8870  -13.3250   -9.4530 C   0  0  0  0  0  0  0  0  0  0  0  0
   13.4850  -12.9683  -12.1531 H   0  0  0  0  0  0  0  0  0  0  0  0
   14.0669  -13.7376  -10.6326 H   0  0  0  0  0  0  0  0  0  0  0  0
   11.1540  -11.8170  -10.8050 H   0  0  0  0  0  0  0  0  0  0  0  0
    9.2550  -12.8824  -12.8138 H   0  0  0  0  0  0  0  0  0  0  0  0
    6.8091  -13.3529  -12.7330 H   0  0  0  0  0  0  0  0  0  0  0  0
    5.6965  -13.7948  -10.5577 H   0  0  0  0  0  0  0  0  0  0  0  0
    7.9083  -15.6522   -7.5553 H   0  0  0  0  0  0  0  0  0  0  0  0
    6.6430  -15.8624   -5.4397 H   0  0  0  0  0  0  0  0  0  0  0  0
    4.0210  -11.6050   -6.8960 H   0  0  0  0  0  0  0  0  0  0  0  0
    3.8098   -9.9232   -5.0068 H   0  0  0  0  0  0  0  0  0  0  0  0
    2.5922   -9.4849   -2.8961 H   0  0  0  0  0  0  0  0  0  0  0  0
    1.4477   -9.2907   -0.8037 H   0  0  0  0  0  0  0  0  0  0  0  0
    0.2040   -9.8101   -2.0026 H   0  0  0  0  0  0  0  0  0  0  0  0
   -0.7612   -9.2706    0.2558 H   0  0  0  0  0  0  0  0  0  0  0  0
   -1.0453  -10.9821   -0.2712 H   0  0  0  0  0  0  0  0  0  0  0  0
    1.3579  -12.3801    1.9544 H   0  0  0  0  0  0  0  0  0  0  0  0
    0.1181  -12.6963    0.6679 H   0  0  0  0  0  0  0  0  0  0  0  0
    2.8373  -11.3460    0.3059 H   0  0  0  0  0  0  0  0  0  0  0  0
    2.3335  -12.9732   -0.2891 H   0  0  0  0  0  0  0  0  0  0  0  0
    1.8827  -13.7019   -2.4409 H   0  0  0  0  0  0  0  0  0  0  0  0
    3.0884  -14.1385   -4.5608 H   0  0  0  0  0  0  0  0  0  0  0  0
    9.4829  -13.3260   -8.5284 H   0  0  0  0  0  0  0  0  0  0  0  0
  1  2  3  0
  2  3  1  0
  3  4  1  0
  4  5  2  0
  4  6  1  0
  6  7  1  0
  7  8  2  0
  8  9  1  0
  9 10  2  0
 10 11  1  0
 11 12  1  0
 12 13  2  0
 13 14  1  0
 14 15  2  0
 15 16  1  0
 16 17  1  0
 17 18  1  0
 18 19  2  0
 19 20  1  0
 20 21  2  0
 21 22  1  0
 22 23  1  0
 23 24  1  0
 24 25  1  0
 25 26  1  0
 26 27  1  0
 21 28  1  0
 28 29  2  0
 16 30  2  0
 11 31  2  0
 31  7  1  0
 30 12  1  0
 29 18  1  0
 27 22  1  0
  3 32  1  0
  3 33  1  0
  6 34  1  0
  8 35  1  0
  9 36  1  0
 10 37  1  0
 13 38  1  0
 14 39  1  0
 17 40  1  0
 19 41  1  0
 20 42  1  0
 23 43  1  0
 23 44  1  0
 24 45  1  0
 24 46  1  0
 26 47  1  0
 26 48  1  0
 27 49  1  0
 27 50  1  0
 28 51  1  0
 29 52  1  0
 31 53  1  0
M  END
>  <meeko>  (9) 
{"is_sidechain": [false], "free_energy": -7.556, "intermolecular_energy": -10.593, "internal_energy": -0.709}

$$$$
