LIB_GHPCAIWYHJZRGR__M_PUB_ALL__e8__s20260927
     RDKit          3D

 57 61  0  0  0  0  0  0  0  0999 V2000
    4.0580  -12.9570   -6.6420 O   0  0  0  0  0  0  0  0  0  0  0  0
    5.0500  -12.8230   -5.9390 C   0  0  0  0  0  0  0  0  0  0  0  0
    5.0670  -12.2350   -4.6830 N   0  0  0  0  0  0  0  0  0  0  0  0
    3.9860  -11.6570   -3.9830 C   0  0  0  0  0  0  0  0  0  0  0  0
    3.3420  -10.4810   -4.3660 C   0  0  0  0  0  0  0  0  0  0  0  0
    2.2870   -9.9730   -3.6050 C   0  0  0  0  0  0  0  0  0  0  0  0
    1.8580  -10.6410   -2.4570 C   0  0  0  0  0  0  0  0  0  0  0  0
    2.4770  -11.8320   -2.0590 C   0  0  0  0  0  0  0  0  0  0  0  0
    2.0570  -12.5670   -0.8430 C   0  0  0  0  0  0  0  0  0  0  0  0
    2.6710  -13.7230   -0.5120 C   0  0  0  0  0  0  0  0  0  0  0  0
    2.2640  -14.3730    0.6330 N   0  0  0  0  0  0  0  0  0  0  0  0
    2.6720  -15.5350    1.2290 C   0  0  0  0  0  0  0  0  0  0  0  0
    1.8830  -15.6560    2.3540 C   0  0  0  0  0  0  0  0  0  0  0  0
    1.0060  -14.6020    2.4640 N   0  0  0  0  0  0  0  0  0  0  0  0
    1.2690  -13.8550    1.4120 C   0  0  0  0  0  0  0  0  0  0  0  0
    0.6440  -12.6030    1.0230 C   0  0  0  0  0  0  0  0  0  0  0  0
   -0.3580  -12.0610    1.7900 N   0  0  0  0  0  0  0  0  0  0  0  0
   -1.0610  -10.8520    1.4650 C   0  0  0  0  0  0  0  0  0  0  0  0
   -2.3910  -11.1930    0.8450 C   0  0  0  0  0  0  0  0  0  0  0  0
   -2.9580  -10.3660   -0.1320 C   0  0  0  0  0  0  0  0  0  0  0  0
   -4.1950  -10.7080   -0.6550 C   0  0  0  0  0  0  0  0  0  0  0  0
   -4.8960  -11.7960   -0.2730 N   0  0  0  0  0  0  0  0  0  0  0  0
   -4.3400  -12.5730    0.6800 C   0  0  0  0  0  0  0  0  0  0  0  0
   -3.1090  -12.3160    1.2650 C   0  0  0  0  0  0  0  0  0  0  0  0
    1.0500  -11.9950   -0.0690 N   0  0  0  0  0  0  0  0  0  0  0  0
    3.5480  -12.3210   -2.8280 C   0  0  0  0  0  0  0  0  0  0  0  0
    6.3210  -13.2450   -6.2930 N   0  0  0  0  0  0  0  0  0  0  0  0
    6.7220  -13.9060   -7.4750 C   0  0  0  0  0  0  0  0  0  0  0  0
    6.7700  -13.3140   -8.7390 C   0  0  0  0  0  0  0  0  0  0  0  0
    7.1800  -14.0530   -9.8670 C   0  0  0  0  0  0  0  0  0  0  0  0
    7.2380  -13.3830  -11.2210 C   0  0  0  0  0  0  0  0  0  0  0  0
    6.7660  -12.1070  -11.2020 F   0  0  0  0  0  0  0  0  0  0  0  0
    8.5060  -13.3120  -11.7110 F   0  0  0  0  0  0  0  0  0  0  0  0
    6.5090  -14.0330  -12.1710 F   0  0  0  0  0  0  0  0  0  0  0  0
    7.5540  -15.3980   -9.7100 C   0  0  0  0  0  0  0  0  0  0  0  0
    7.5070  -15.9970   -8.4530 C   0  0  0  0  0  0  0  0  0  0  0  0
    7.0930  -15.2500   -7.3540 C   0  0  0  0  0  0  0  0  0  0  0  0
    7.0520  -15.8390   -6.1480 F   0  0  0  0  0  0  0  0  0  0  0  0
    5.9510  -12.2260   -4.2000 H   0  0  0  0  0  0  0  0  0  0  0  0
    3.6669   -9.9502   -5.2730 H   0  0  0  0  0  0  0  0  0  0  0  0
    1.7910   -9.0405   -3.9122 H   0  0  0  0  0  0  0  0  0  0  0  0
    1.0293  -10.2296   -1.8620 H   0  0  0  0  0  0  0  0  0  0  0  0
    3.4749  -14.1351   -1.1397 H   0  0  0  0  0  0  0  0  0  0  0  0
    3.4584  -16.2232    0.8856 H   0  0  0  0  0  0  0  0  0  0  0  0
    1.9469  -16.4880    3.0707 H   0  0  0  0  0  0  0  0  0  0  0  0
   -0.6340  -12.5820    2.6170 H   0  0  0  0  0  0  0  0  0  0  0  0
   -1.2236  -10.2653    2.3812 H   0  0  0  0  0  0  0  0  0  0  0  0
   -0.4654  -10.2630    0.7520 H   0  0  0  0  0  0  0  0  0  0  0  0
   -2.4326   -9.4634   -0.4774 H   0  0  0  0  0  0  0  0  0  0  0  0
   -4.6304  -10.0551   -1.4258 H   0  0  0  0  0  0  0  0  0  0  0  0
   -4.8956  -13.4623    1.0123 H   0  0  0  0  0  0  0  0  0  0  0  0
   -2.7065  -12.9817    2.0427 H   0  0  0  0  0  0  0  0  0  0  0  0
    4.0543  -13.2464   -2.5161 H   0  0  0  0  0  0  0  0  0  0  0  0
    7.0740  -13.0530   -5.6460 H   0  0  0  0  0  0  0  0  0  0  0  0
    6.4844  -12.2582   -8.8557 H   0  0  0  0  0  0  0  0  0  0  0  0
    7.8851  -15.9802  -10.5826 H   0  0  0  0  0  0  0  0  0  0  0  0
    7.7947  -17.0516   -8.3301 H   0  0  0  0  0  0  0  0  0  0  0  0
  1  2  2  0
  2  3  1  0
  3  4  1  0
  4  5  2  0
  5  6  1  0
  6  7  2  0
  7  8  1  0
  8  9  1  0
  9 10  2  0
 10 11  1  0
 11 12  1  0
 12 13  2  0
 13 14  1  0
 14 15  2  0
 15 16  1  0
 16 17  1  0
 17 18  1  0
 18 19  1  0
 19 20  2  0
 20 21  1  0
 21 22  2  0
 22 23  1  0
 23 24  2  0
 16 25  2  0
  8 26  2  0
  2 27  1  0
 27 28  1  0
 28 29  2  0
 29 30  1  0
 30 31  1  0
 31 32  1  0
 31 33  1  0
 31 34  1  0
 30 35  2  0
 35 36  1  0
 36 37  2  0
 37 38  1  0
 26  4  1  0
 37 28  1  0
 25  9  1  0
 15 11  1  0
 24 19  1  0
  3 39  1  0
  5 40  1  0
  6 41  1  0
  7 42  1  0
 10 43  1  0
 12 44  1  0
 13 45  1  0
 17 46  1  0
 18 47  1  0
 18 48  1  0
 20 49  1  0
 21 50  1  0
 23 51  1  0
 24 52  1  0
 26 53  1  0
 27 54  1  0
 29 55  1  0
 35 56  1  0
 36 57  1  0
M  END
>  <meeko>  (1) 
{"is_sidechain": [false], "free_energy": -9.764, "intermolecular_energy": -13.189, "internal_energy": -1.153}

$$$$
LIB_GHPCAIWYHJZRGR__M_PUB_ALL__e8__s20260927
     RDKit          3D

 57 61  0  0  0  0  0  0  0  0999 V2000
    6.9760  -10.6480   -1.4600 O   0  0  0  0  0  0  0  0  0  0  0  0
    6.8150  -11.8600   -1.4110 C   0  0  0  0  0  0  0  0  0  0  0  0
    5.6180  -12.5170   -1.6570 N   0  0  0  0  0  0  0  0  0  0  0  0
    4.3670  -11.9480   -1.9740 C   0  0  0  0  0  0  0  0  0  0  0  0
    4.0220  -11.4630   -3.2350 C   0  0  0  0  0  0  0  0  0  0  0  0
    2.7620  -10.9030   -3.4570 C   0  0  0  0  0  0  0  0  0  0  0  0
    1.8300  -10.8280   -2.4210 C   0  0  0  0  0  0  0  0  0  0  0  0
    2.1450  -11.3210   -1.1490 C   0  0  0  0  0  0  0  0  0  0  0  0
    1.1860  -11.2540   -0.0210 C   0  0  0  0  0  0  0  0  0  0  0  0
    0.4000  -10.1660    0.1270 C   0  0  0  0  0  0  0  0  0  0  0  0
   -0.4900  -10.1420    1.1780 N   0  0  0  0  0  0  0  0  0  0  0  0
   -1.4010   -9.2110    1.5950 C   0  0  0  0  0  0  0  0  0  0  0  0
   -1.9930   -9.7650    2.7110 C   0  0  0  0  0  0  0  0  0  0  0  0
   -1.4730  -11.0080    2.9870 N   0  0  0  0  0  0  0  0  0  0  0  0
   -0.5740  -11.1960    2.0430 C   0  0  0  0  0  0  0  0  0  0  0  0
    0.2820  -12.3500    1.8390 C   0  0  0  0  0  0  0  0  0  0  0  0
    0.2150  -13.4230    2.6940 N   0  0  0  0  0  0  0  0  0  0  0  0
    1.0490  -14.5880    2.5960 C   0  0  0  0  0  0  0  0  0  0  0  0
    0.1880  -15.8090    2.3990 C   0  0  0  0  0  0  0  0  0  0  0  0
   -0.3580  -16.4830    3.4970 C   0  0  0  0  0  0  0  0  0  0  0  0
   -1.1220  -17.6160    3.2670 C   0  0  0  0  0  0  0  0  0  0  0  0
   -1.3700  -18.1180    2.0390 N   0  0  0  0  0  0  0  0  0  0  0  0
   -0.8220  -17.4630    0.9930 C   0  0  0  0  0  0  0  0  0  0  0  0
   -0.0430  -16.3230    1.1200 C   0  0  0  0  0  0  0  0  0  0  0  0
    1.1200  -12.3570    0.8260 N   0  0  0  0  0  0  0  0  0  0  0  0
    3.4230  -11.8680   -0.9390 C   0  0  0  0  0  0  0  0  0  0  0  0
    7.8130  -12.7700   -1.1040 N   0  0  0  0  0  0  0  0  0  0  0  0
    9.1700  -12.5090   -0.8130 C   0  0  0  0  0  0  0  0  0  0  0  0
   10.2050  -12.5420   -1.7500 C   0  0  0  0  0  0  0  0  0  0  0  0
   11.5340  -12.2700   -1.3670 C   0  0  0  0  0  0  0  0  0  0  0  0
   12.6330  -12.2970   -2.4050 C   0  0  0  0  0  0  0  0  0  0  0  0
   13.6950  -11.5140   -2.0720 F   0  0  0  0  0  0  0  0  0  0  0  0
   13.1300  -13.5480   -2.6020 F   0  0  0  0  0  0  0  0  0  0  0  0
   12.2220  -11.8630   -3.6300 F   0  0  0  0  0  0  0  0  0  0  0  0
   11.8130  -11.9510   -0.0280 C   0  0  0  0  0  0  0  0  0  0  0  0
   10.7870  -11.9170    0.9140 C   0  0  0  0  0  0  0  0  0  0  0  0
    9.4830  -12.1950    0.5160 C   0  0  0  0  0  0  0  0  0  0  0  0
    8.5030  -12.1600    1.4330 F   0  0  0  0  0  0  0  0  0  0  0  0
    5.6390  -13.5240   -1.6170 H   0  0  0  0  0  0  0  0  0  0  0  0
    4.7469  -11.5219   -4.0602 H   0  0  0  0  0  0  0  0  0  0  0  0
    2.5026  -10.5187   -4.4545 H   0  0  0  0  0  0  0  0  0  0  0  0
    0.8427  -10.3792   -2.6047 H   0  0  0  0  0  0  0  0  0  0  0  0
    0.4687   -9.3208   -0.5736 H   0  0  0  0  0  0  0  0  0  0  0  0
   -1.6151   -8.2329    1.1394 H   0  0  0  0  0  0  0  0  0  0  0  0
   -2.7797   -9.2756    3.3039 H   0  0  0  0  0  0  0  0  0  0  0  0
   -0.4450  -13.3550    3.4620 H   0  0  0  0  0  0  0  0  0  0  0  0
    1.7315  -14.4790    1.7403 H   0  0  0  0  0  0  0  0  0  0  0  0
    1.6341  -14.6981    3.5210 H   0  0  0  0  0  0  0  0  0  0  0  0
   -0.1844  -16.1211    4.5212 H   0  0  0  0  0  0  0  0  0  0  0  0
   -1.5513  -18.1365    4.1358 H   0  0  0  0  0  0  0  0  0  0  0  0
   -1.0041  -17.8565   -0.0180 H   0  0  0  0  0  0  0  0  0  0  0  0
    0.3843  -15.8333    0.2325 H   0  0  0  0  0  0  0  0  0  0  0  0
    3.6892  -12.2422    0.0606 H   0  0  0  0  0  0  0  0  0  0  0  0
    7.5570  -13.7480   -1.0610 H   0  0  0  0  0  0  0  0  0  0  0  0
    9.9804  -12.7831   -2.7995 H   0  0  0  0  0  0  0  0  0  0  0  0
   12.8455  -11.7271    0.2782 H   0  0  0  0  0  0  0  0  0  0  0  0
   11.0061  -11.6724    1.9638 H   0  0  0  0  0  0  0  0  0  0  0  0
  1  2  2  0
  2  3  1  0
  3  4  1  0
  4  5  2  0
  5  6  1  0
  6  7  2  0
  7  8  1  0
  8  9  1  0
  9 10  2  0
 10 11  1  0
 11 12  1  0
 12 13  2  0
 13 14  1  0
 14 15  2  0
 15 16  1  0
 16 17  1  0
 17 18  1  0
 18 19  1  0
 19 20  2  0
 20 21  1  0
 21 22  2  0
 22 23  1  0
 23 24  2  0
 16 25  2  0
  8 26  2  0
  2 27  1  0
 27 28  1  0
 28 29  2  0
 29 30  1  0
 30 31  1  0
 31 32  1  0
 31 33  1  0
 31 34  1  0
 30 35  2  0
 35 36  1  0
 36 37  2  0
 37 38  1  0
 26  4  1  0
 37 28  1  0
 25  9  1  0
 15 11  1  0
 24 19  1  0
  3 39  1  0
  5 40  1  0
  6 41  1  0
  7 42  1  0
 10 43  1  0
 12 44  1  0
 13 45  1  0
 17 46  1  0
 18 47  1  0
 18 48  1  0
 20 49  1  0
 21 50  1  0
 23 51  1  0
 24 52  1  0
 26 53  1  0
 27 54  1  0
 29 55  1  0
 35 56  1  0
 36 57  1  0
M  END
>  <meeko>  (2) 
{"is_sidechain": [false], "free_energy": -9.522, "intermolecular_energy": -12.814, "internal_energy": -1.201}

$$$$
LIB_GHPCAIWYHJZRGR__M_PUB_ALL__e8__s20260927
     RDKit          3D

 57 61  0  0  0  0  0  0  0  0999 V2000
    7.0190  -10.7200   -1.5210 O   0  0  0  0  0  0  0  0  0  0  0  0
    6.8640  -11.9230   -1.3580 C   0  0  0  0  0  0  0  0  0  0  0  0
    5.6680  -12.6050   -1.5240 N   0  0  0  0  0  0  0  0  0  0  0  0
    4.4090  -12.0730   -1.8760 C   0  0  0  0  0  0  0  0  0  0  0  0
    4.0740  -11.6300   -3.1560 C   0  0  0  0  0  0  0  0  0  0  0  0
    2.8060  -11.1050   -3.4130 C   0  0  0  0  0  0  0  0  0  0  0  0
    1.8560  -11.0240   -2.3940 C   0  0  0  0  0  0  0  0  0  0  0  0
    2.1610  -11.4750   -1.1040 C   0  0  0  0  0  0  0  0  0  0  0  0
    1.1830  -11.3990    0.0070 C   0  0  0  0  0  0  0  0  0  0  0  0
    0.4770  -10.2650    0.2020 C   0  0  0  0  0  0  0  0  0  0  0  0
   -0.4340  -10.2330    1.2350 N   0  0  0  0  0  0  0  0  0  0  0  0
   -1.2840   -9.2610    1.6870 C   0  0  0  0  0  0  0  0  0  0  0  0
   -1.9420   -9.8300    2.7560 C   0  0  0  0  0  0  0  0  0  0  0  0
   -1.5220  -11.1230    2.9710 N   0  0  0  0  0  0  0  0  0  0  0  0
   -0.6180  -11.3240    2.0360 C   0  0  0  0  0  0  0  0  0  0  0  0
    0.1560  -12.5270    1.7830 C   0  0  0  0  0  0  0  0  0  0  0  0
   -0.0110  -13.6380    2.5720 N   0  0  0  0  0  0  0  0  0  0  0  0
    0.7360  -14.8550    2.4240 C   0  0  0  0  0  0  0  0  0  0  0  0
    0.9070  -15.5090    3.7700 C   0  0  0  0  0  0  0  0  0  0  0  0
    1.3490  -16.8320    3.8720 C   0  0  0  0  0  0  0  0  0  0  0  0
    1.4660  -17.3990    5.1310 C   0  0  0  0  0  0  0  0  0  0  0  0
    1.1730  -16.7480    6.2770 N   0  0  0  0  0  0  0  0  0  0  0  0
    0.7350  -15.4770    6.1580 C   0  0  0  0  0  0  0  0  0  0  0  0
    0.5830  -14.8230    4.9450 C   0  0  0  0  0  0  0  0  0  0  0  0
    1.0150  -12.5400    0.7880 N   0  0  0  0  0  0  0  0  0  0  0  0
    3.4480  -11.9860   -0.8590 C   0  0  0  0  0  0  0  0  0  0  0  0
    7.8710  -12.7960   -0.9800 N   0  0  0  0  0  0  0  0  0  0  0  0
    9.2300  -12.5030   -0.7330 C   0  0  0  0  0  0  0  0  0  0  0  0
   10.2400  -12.5400   -1.6970 C   0  0  0  0  0  0  0  0  0  0  0  0
   11.5730  -12.2340   -1.3580 C   0  0  0  0  0  0  0  0  0  0  0  0
   12.6440  -12.2660   -2.4250 C   0  0  0  0  0  0  0  0  0  0  0  0
   12.2040  -11.8140   -3.6310 F   0  0  0  0  0  0  0  0  0  0  0  0
   13.7220  -11.5010   -2.1020 F   0  0  0  0  0  0  0  0  0  0  0  0
   13.1330  -13.5180   -2.6550 F   0  0  0  0  0  0  0  0  0  0  0  0
   11.8830  -11.8780   -0.0350 C   0  0  0  0  0  0  0  0  0  0  0  0
   10.8820  -11.8410    0.9340 C   0  0  0  0  0  0  0  0  0  0  0  0
    9.5740  -12.1520    0.5790 C   0  0  0  0  0  0  0  0  0  0  0  0
    8.6180  -12.1130    1.5210 F   0  0  0  0  0  0  0  0  0  0  0  0
    5.6950  -13.6030   -1.3920 H   0  0  0  0  0  0  0  0  0  0  0  0
    4.8135  -11.6948   -3.9677 H   0  0  0  0  0  0  0  0  0  0  0  0
    2.5544  -10.7532   -4.4244 H   0  0  0  0  0  0  0  0  0  0  0  0
    0.8618  -10.6034   -2.6054 H   0  0  0  0  0  0  0  0  0  0  0  0
    0.6252   -9.3893   -0.4470 H   0  0  0  0  0  0  0  0  0  0  0  0
   -1.4141   -8.2456    1.2845 H   0  0  0  0  0  0  0  0  0  0  0  0
   -2.7048   -9.3167    3.3598 H   0  0  0  0  0  0  0  0  0  0  0  0
   -0.6830  -13.5630    3.3300 H   0  0  0  0  0  0  0  0  0  0  0  0
    0.1952  -15.5371    1.7515 H   0  0  0  0  0  0  0  0  0  0  0  0
    1.7251  -14.6276    1.9998 H   0  0  0  0  0  0  0  0  0  0  0  0
    1.5988  -17.4110    2.9707 H   0  0  0  0  0  0  0  0  0  0  0  0
    1.8177  -18.4389    5.2007 H   0  0  0  0  0  0  0  0  0  0  0  0
    0.4839  -14.9277    7.0774 H   0  0  0  0  0  0  0  0  0  0  0  0
    0.2155  -13.7869    4.9075 H   0  0  0  0  0  0  0  0  0  0  0  0
    3.7069  -12.3255    0.1548 H   0  0  0  0  0  0  0  0  0  0  0  0
    7.6210  -13.7660   -0.8430 H   0  0  0  0  0  0  0  0  0  0  0  0
    9.9918  -12.8114   -2.7337 H   0  0  0  0  0  0  0  0  0  0  0  0
   12.9190  -11.6277    0.2370 H   0  0  0  0  0  0  0  0  0  0  0  0
   11.1247  -11.5679    1.9715 H   0  0  0  0  0  0  0  0  0  0  0  0
  1  2  2  0
  2  3  1  0
  3  4  1  0
  4  5  2  0
  5  6  1  0
  6  7  2  0
  7  8  1  0
  8  9  1  0
  9 10  2  0
 10 11  1  0
 11 12  1  0
 12 13  2  0
 13 14  1  0
 14 15  2  0
 15 16  1  0
 16 17  1  0
 17 18  1  0
 18 19  1  0
 19 20  2  0
 20 21  1  0
 21 22  2  0
 22 23  1  0
 23 24  2  0
 16 25  2  0
  8 26  2  0
  2 27  1  0
 27 28  1  0
 28 29  2  0
 29 30  1  0
 30 31  1  0
 31 32  1  0
 31 33  1  0
 31 34  1  0
 30 35  2  0
 35 36  1  0
 36 37  2  0
 37 38  1  0
 26  4  1  0
 37 28  1  0
 25  9  1  0
 15 11  1  0
 24 19  1  0
  3 39  1  0
  5 40  1  0
  6 41  1  0
  7 42  1  0
 10 43  1  0
 12 44  1  0
 13 45  1  0
 17 46  1  0
 18 47  1  0
 18 48  1  0
 20 49  1  0
 21 50  1  0
 23 51  1  0
 24 52  1  0
 26 53  1  0
 27 54  1  0
 29 55  1  0
 35 56  1  0
 36 57  1  0
M  END
>  <meeko>  (3) 
{"is_sidechain": [false], "free_energy": -9.507, "intermolecular_energy": -12.88, "internal_energy": -1.115}

$$$$
LIB_GHPCAIWYHJZRGR__M_PUB_ALL__e8__s20260927
     RDKit          3D

 57 61  0  0  0  0  0  0  0  0999 V2000
    8.5650  -11.2830   -3.5570 O   0  0  0  0  0  0  0  0  0  0  0  0
    8.6430  -12.4990   -3.6630 C   0  0  0  0  0  0  0  0  0  0  0  0
    7.6010  -13.3380   -4.0300 N   0  0  0  0  0  0  0  0  0  0  0  0
    6.2660  -12.9840   -4.3210 C   0  0  0  0  0  0  0  0  0  0  0  0
    5.7260  -12.9470   -5.6060 C   0  0  0  0  0  0  0  0  0  0  0  0
    4.3950  -12.5730   -5.8030 C   0  0  0  0  0  0  0  0  0  0  0  0
    3.5870  -12.2390   -4.7150 C   0  0  0  0  0  0  0  0  0  0  0  0
    4.0990  -12.2840   -3.4130 C   0  0  0  0  0  0  0  0  0  0  0  0
    3.2760  -11.9300   -2.2330 C   0  0  0  0  0  0  0  0  0  0  0  0
    2.2140  -11.1080   -2.3780 C   0  0  0  0  0  0  0  0  0  0  0  0
    1.4630  -10.8110   -1.2610 N   0  0  0  0  0  0  0  0  0  0  0  0
    0.3550  -10.0300   -1.0760 C   0  0  0  0  0  0  0  0  0  0  0  0
    0.0670  -10.1310    0.2690 C   0  0  0  0  0  0  0  0  0  0  0  0
    0.9640  -10.9520    0.9110 N   0  0  0  0  0  0  0  0  0  0  0  0
    1.7840  -11.3390   -0.0440 C   0  0  0  0  0  0  0  0  0  0  0  0
    2.9280  -12.2270    0.0640 C   0  0  0  0  0  0  0  0  0  0  0  0
    3.2720  -12.7720    1.2760 N   0  0  0  0  0  0  0  0  0  0  0  0
    4.4070  -13.6260    1.4860 C   0  0  0  0  0  0  0  0  0  0  0  0
    5.6680  -12.8890    1.1160 C   0  0  0  0  0  0  0  0  0  0  0  0
    6.6840  -13.5270    0.3970 C   0  0  0  0  0  0  0  0  0  0  0  0
    7.8360  -12.8160    0.1020 C   0  0  0  0  0  0  0  0  0  0  0  0
    8.0430  -11.5340    0.4730 N   0  0  0  0  0  0  0  0  0  0  0  0
    7.0580  -10.9400    1.1780 C   0  0  0  0  0  0  0  0  0  0  0  0
    5.8700  -11.5670    1.5240 C   0  0  0  0  0  0  0  0  0  0  0  0
    3.6290  -12.5030   -1.0140 N   0  0  0  0  0  0  0  0  0  0  0  0
    5.4450  -12.6470   -3.2340 C   0  0  0  0  0  0  0  0  0  0  0  0
    9.7960  -13.2320   -3.4320 N   0  0  0  0  0  0  0  0  0  0  0  0
   11.0720  -12.7530   -3.0620 C   0  0  0  0  0  0  0  0  0  0  0  0
   11.3910  -12.2290   -1.8080 C   0  0  0  0  0  0  0  0  0  0  0  0
   12.6940  -11.7700   -1.5280 C   0  0  0  0  0  0  0  0  0  0  0  0
   13.0170  -11.2220   -0.1560 C   0  0  0  0  0  0  0  0  0  0  0  0
   11.9870  -10.5180    0.3890 F   0  0  0  0  0  0  0  0  0  0  0  0
   13.3230  -12.2030    0.7360 F   0  0  0  0  0  0  0  0  0  0  0  0
   14.0840  -10.3740   -0.1570 F   0  0  0  0  0  0  0  0  0  0  0  0
   13.6820  -11.8540   -2.5230 C   0  0  0  0  0  0  0  0  0  0  0  0
   13.3720  -12.3740   -3.7780 C   0  0  0  0  0  0  0  0  0  0  0  0
   12.0780  -12.8150   -4.0340 C   0  0  0  0  0  0  0  0  0  0  0  0
   11.7910  -13.3140   -5.2480 F   0  0  0  0  0  0  0  0  0  0  0  0
    7.8180  -14.3190   -4.1130 H   0  0  0  0  0  0  0  0  0  0  0  0
    6.3523  -13.2141   -6.4700 H   0  0  0  0  0  0  0  0  0  0  0  0
    3.9810  -12.5414   -6.8216 H   0  0  0  0  0  0  0  0  0  0  0  0
    2.5420  -11.9387   -4.8817 H   0  0  0  0  0  0  0  0  0  0  0  0
    1.9555  -10.6870   -3.3608 H   0  0  0  0  0  0  0  0  0  0  0  0
   -0.1881   -9.4480   -1.8351 H   0  0  0  0  0  0  0  0  0  0  0  0
   -0.7721   -9.6206    0.7643 H   0  0  0  0  0  0  0  0  0  0  0  0
    2.6980  -12.5140    2.0730 H   0  0  0  0  0  0  0  0  0  0  0  0
    4.4525  -13.9211    2.5447 H   0  0  0  0  0  0  0  0  0  0  0  0
    4.3104  -14.5238    0.8579 H   0  0  0  0  0  0  0  0  0  0  0  0
    6.5708  -14.5719    0.0724 H   0  0  0  0  0  0  0  0  0  0  0  0
    8.6277  -13.3251   -0.4672 H   0  0  0  0  0  0  0  0  0  0  0  0
    7.2056   -9.8977    1.4971 H   0  0  0  0  0  0  0  0  0  0  0  0
    5.1033  -11.0356    2.1069 H   0  0  0  0  0  0  0  0  0  0  0  0
    5.8649  -12.6674   -2.2175 H   0  0  0  0  0  0  0  0  0  0  0  0
    9.7350  -14.2380   -3.5190 H   0  0  0  0  0  0  0  0  0  0  0  0
   10.6163  -12.1736   -1.0291 H   0  0  0  0  0  0  0  0  0  0  0  0
   14.7043  -11.5079   -2.3106 H   0  0  0  0  0  0  0  0  0  0  0  0
   14.1438  -12.4352   -4.5594 H   0  0  0  0  0  0  0  0  0  0  0  0
  1  2  2  0
  2  3  1  0
  3  4  1  0
  4  5  2  0
  5  6  1  0
  6  7  2  0
  7  8  1  0
  8  9  1  0
  9 10  2  0
 10 11  1  0
 11 12  1  0
 12 13  2  0
 13 14  1  0
 14 15  2  0
 15 16  1  0
 16 17  1  0
 17 18  1  0
 18 19  1  0
 19 20  2  0
 20 21  1  0
 21 22  2  0
 22 23  1  0
 23 24  2  0
 16 25  2  0
  8 26  2  0
  2 27  1  0
 27 28  1  0
 28 29  2  0
 29 30  1  0
 30 31  1  0
 31 32  1  0
 31 33  1  0
 31 34  1  0
 30 35  2  0
 35 36  1  0
 36 37  2  0
 37 38  1  0
 26  4  1  0
 37 28  1  0
 25  9  1  0
 15 11  1  0
 24 19  1  0
  3 39  1  0
  5 40  1  0
  6 41  1  0
  7 42  1  0
 10 43  1  0
 12 44  1  0
 13 45  1  0
 17 46  1  0
 18 47  1  0
 18 48  1  0
 20 49  1  0
 21 50  1  0
 23 51  1  0
 24 52  1  0
 26 53  1  0
 27 54  1  0
 29 55  1  0
 35 56  1  0
 36 57  1  0
M  END
>  <meeko>  (4) 
{"is_sidechain": [false], "free_energy": -9.392, "intermolecular_energy": -12.577, "internal_energy": -1.262}

$$$$
LIB_GHPCAIWYHJZRGR__M_PUB_ALL__e8__s20260927
     RDKit          3D

 57 61  0  0  0  0  0  0  0  0999 V2000
    7.3970  -10.8990   -2.6300 O   0  0  0  0  0  0  0  0  0  0  0  0
    7.1810  -12.1000   -2.7130 C   0  0  0  0  0  0  0  0  0  0  0  0
    5.9390  -12.6750   -2.9430 N   0  0  0  0  0  0  0  0  0  0  0  0
    4.6970  -12.0210   -3.0950 C   0  0  0  0  0  0  0  0  0  0  0  0
    4.2900  -11.3700   -4.2580 C   0  0  0  0  0  0  0  0  0  0  0  0
    3.0470  -10.7380   -4.3160 C   0  0  0  0  0  0  0  0  0  0  0  0
    2.1930  -10.7570   -3.2130 C   0  0  0  0  0  0  0  0  0  0  0  0
    2.5700  -11.4170   -2.0370 C   0  0  0  0  0  0  0  0  0  0  0  0
    1.6960  -11.4530   -0.8410 C   0  0  0  0  0  0  0  0  0  0  0  0
    0.7270  -10.5250   -0.6910 C   0  0  0  0  0  0  0  0  0  0  0  0
   -0.0770  -10.5960    0.4260 N   0  0  0  0  0  0  0  0  0  0  0  0
   -1.1210   -9.8270    0.8630 C   0  0  0  0  0  0  0  0  0  0  0  0
   -1.5170  -10.4040    2.0510 C   0  0  0  0  0  0  0  0  0  0  0  0
   -0.7490  -11.5040    2.3530 N   0  0  0  0  0  0  0  0  0  0  0  0
    0.1020  -11.5840    1.3510 C   0  0  0  0  0  0  0  0  0  0  0  0
    1.1500  -12.5680    1.1440 C   0  0  0  0  0  0  0  0  0  0  0  0
    1.3500  -13.5720    2.0580 N   0  0  0  0  0  0  0  0  0  0  0  0
    2.3850  -14.5630    1.9590 C   0  0  0  0  0  0  0  0  0  0  0  0
    1.9110  -15.7020    1.0940 C   0  0  0  0  0  0  0  0  0  0  0  0
    2.6340  -16.0880   -0.0390 C   0  0  0  0  0  0  0  0  0  0  0  0
    2.1450  -17.1250   -0.8180 C   0  0  0  0  0  0  0  0  0  0  0  0
    1.0000  -17.7880   -0.5520 N   0  0  0  0  0  0  0  0  0  0  0  0
    0.3080  -17.3910    0.5370 C   0  0  0  0  0  0  0  0  0  0  0  0
    0.7140  -16.3650    1.3770 C   0  0  0  0  0  0  0  0  0  0  0  0
    1.9030  -12.4870    0.0690 N   0  0  0  0  0  0  0  0  0  0  0  0
    3.8320  -12.0340   -1.9900 C   0  0  0  0  0  0  0  0  0  0  0  0
    8.1530  -13.0800   -2.5920 N   0  0  0  0  0  0  0  0  0  0  0  0
    9.5380  -12.9100   -2.3760 C   0  0  0  0  0  0  0  0  0  0  0  0
   10.1140  -12.5560   -1.1540 C   0  0  0  0  0  0  0  0  0  0  0  0
   11.5100  -12.4050   -1.0310 C   0  0  0  0  0  0  0  0  0  0  0  0
   12.1090  -12.0380    0.3070 C   0  0  0  0  0  0  0  0  0  0  0  0
   11.9610  -13.0170    1.2410 F   0  0  0  0  0  0  0  0  0  0  0  0
   13.4440  -11.7870    0.2270 F   0  0  0  0  0  0  0  0  0  0  0  0
   11.5530  -10.9190    0.8530 F   0  0  0  0  0  0  0  0  0  0  0  0
   12.3270  -12.6250   -2.1530 C   0  0  0  0  0  0  0  0  0  0  0  0
   11.7610  -12.9760   -3.3760 C   0  0  0  0  0  0  0  0  0  0  0  0
   10.3800  -13.1140   -3.4760 C   0  0  0  0  0  0  0  0  0  0  0  0
    9.8450  -13.4520   -4.6600 F   0  0  0  0  0  0  0  0  0  0  0  0
    5.9140  -13.6790   -3.0240 H   0  0  0  0  0  0  0  0  0  0  0  0
    4.9526  -11.3542   -5.1359 H   0  0  0  0  0  0  0  0  0  0  0  0
    2.7388  -10.2217   -5.2371 H   0  0  0  0  0  0  0  0  0  0  0  0
    1.2180  -10.2507   -3.2674 H   0  0  0  0  0  0  0  0  0  0  0  0
    0.5830   -9.7330   -1.4407 H   0  0  0  0  0  0  0  0  0  0  0  0
   -1.5509   -8.9410    0.3730 H   0  0  0  0  0  0  0  0  0  0  0  0
   -2.3415  -10.0321    2.6770 H   0  0  0  0  0  0  0  0  0  0  0  0
    0.7440  -13.5760    2.8730 H   0  0  0  0  0  0  0  0  0  0  0  0
    3.2826  -14.1118    1.5111 H   0  0  0  0  0  0  0  0  0  0  0  0
    2.6262  -14.9418    2.9631 H   0  0  0  0  0  0  0  0  0  0  0  0
    3.5717  -15.5790   -0.3066 H   0  0  0  0  0  0  0  0  0  0  0  0
    2.7236  -17.4249   -1.7042 H   0  0  0  0  0  0  0  0  0  0  0  0
   -0.6323  -17.9114    0.7716 H   0  0  0  0  0  0  0  0  0  0  0  0
    0.1063  -16.0790    2.2481 H   0  0  0  0  0  0  0  0  0  0  0  0
    4.1490  -12.5388   -1.0655 H   0  0  0  0  0  0  0  0  0  0  0  0
    7.8530  -14.0450   -2.6460 H   0  0  0  0  0  0  0  0  0  0  0  0
    9.4705  -12.3930   -0.2769 H   0  0  0  0  0  0  0  0  0  0  0  0
   13.4184  -12.5195   -2.0648 H   0  0  0  0  0  0  0  0  0  0  0  0
   12.4002  -13.1427   -4.2555 H   0  0  0  0  0  0  0  0  0  0  0  0
  1  2  2  0
  2  3  1  0
  3  4  1  0
  4  5  2  0
  5  6  1  0
  6  7  2  0
  7  8  1  0
  8  9  1  0
  9 10  2  0
 10 11  1  0
 11 12  1  0
 12 13  2  0
 13 14  1  0
 14 15  2  0
 15 16  1  0
 16 17  1  0
 17 18  1  0
 18 19  1  0
 19 20  2  0
 20 21  1  0
 21 22  2  0
 22 23  1  0
 23 24  2  0
 16 25  2  0
  8 26  2  0
  2 27  1  0
 27 28  1  0
 28 29  2  0
 29 30  1  0
 30 31  1  0
 31 32  1  0
 31 33  1  0
 31 34  1  0
 30 35  2  0
 35 36  1  0
 36 37  2  0
 37 38  1  0
 26  4  1  0
 37 28  1  0
 25  9  1  0
 15 11  1  0
 24 19  1  0
  3 39  1  0
  5 40  1  0
  6 41  1  0
  7 42  1  0
 10 43  1  0
 12 44  1  0
 13 45  1  0
 17 46  1  0
 18 47  1  0
 18 48  1  0
 20 49  1  0
 21 50  1  0
 23 51  1  0
 24 52  1  0
 26 53  1  0
 27 54  1  0
 29 55  1  0
 35 56  1  0
 36 57  1  0
M  END
>  <meeko>  (5) 
{"is_sidechain": [false], "free_energy": -9.127, "intermolecular_energy": -12.186, "internal_energy": -1.296}

$$$$
LIB_GHPCAIWYHJZRGR__M_PUB_ALL__e8__s20260927
     RDKit          3D

 57 61  0  0  0  0  0  0  0  0999 V2000
    7.1720  -11.2780   -1.0350 O   0  0  0  0  0  0  0  0  0  0  0  0
    7.2460  -12.4990   -1.0000 C   0  0  0  0  0  0  0  0  0  0  0  0
    6.1690  -13.3680   -1.0960 N   0  0  0  0  0  0  0  0  0  0  0  0
    4.8010  -13.0420   -1.2210 C   0  0  0  0  0  0  0  0  0  0  0  0
    4.2440  -12.4080   -2.3310 C   0  0  0  0  0  0  0  0  0  0  0  0
    2.8800  -12.1120   -2.3650 C   0  0  0  0  0  0  0  0  0  0  0  0
    2.0560  -12.4540   -1.2920 C   0  0  0  0  0  0  0  0  0  0  0  0
    2.5870  -13.1060   -0.1720 C   0  0  0  0  0  0  0  0  0  0  0  0
    1.7470  -13.4790    0.9900 C   0  0  0  0  0  0  0  0  0  0  0  0
    2.0210  -14.6060    1.6810 C   0  0  0  0  0  0  0  0  0  0  0  0
    1.2280  -14.9160    2.7650 N   0  0  0  0  0  0  0  0  0  0  0  0
    1.2410  -15.9590    3.6500 C   0  0  0  0  0  0  0  0  0  0  0  0
    0.1950  -15.7090    4.5130 C   0  0  0  0  0  0  0  0  0  0  0  0
   -0.4560  -14.5430    4.1830 N   0  0  0  0  0  0  0  0  0  0  0  0
    0.1970  -14.0990    3.1290 C   0  0  0  0  0  0  0  0  0  0  0  0
   -0.0550  -12.8910    2.3640 C   0  0  0  0  0  0  0  0  0  0  0  0
   -1.0850  -12.0520    2.7100 N   0  0  0  0  0  0  0  0  0  0  0  0
   -1.4350  -10.8590    1.9900 C   0  0  0  0  0  0  0  0  0  0  0  0
   -2.6660  -11.1140    1.1610 C   0  0  0  0  0  0  0  0  0  0  0  0
   -3.4700  -12.2340    1.3990 C   0  0  0  0  0  0  0  0  0  0  0  0
   -4.5780  -12.4400    0.5930 C   0  0  0  0  0  0  0  0  0  0  0  0
   -4.9310  -11.6230   -0.4210 N   0  0  0  0  0  0  0  0  0  0  0  0
   -4.1350  -10.5560   -0.6460 C   0  0  0  0  0  0  0  0  0  0  0  0
   -3.0050  -10.2650    0.1040 C   0  0  0  0  0  0  0  0  0  0  0  0
    0.7160  -12.6090    1.3370 N   0  0  0  0  0  0  0  0  0  0  0  0
    3.9650  -13.3820   -0.1480 C   0  0  0  0  0  0  0  0  0  0  0  0
    8.4280  -13.2060   -0.8590 N   0  0  0  0  0  0  0  0  0  0  0  0
    9.7400  -12.6960   -0.7500 C   0  0  0  0  0  0  0  0  0  0  0  0
   10.6870  -12.7130   -1.7760 C   0  0  0  0  0  0  0  0  0  0  0  0
   11.9780  -12.1820   -1.5760 C   0  0  0  0  0  0  0  0  0  0  0  0
   12.9790  -12.1980   -2.7090 C   0  0  0  0  0  0  0  0  0  0  0  0
   13.4620  -13.4420   -2.9710 F   0  0  0  0  0  0  0  0  0  0  0  0
   12.4490  -11.7420   -3.8760 F   0  0  0  0  0  0  0  0  0  0  0  0
   14.0720  -11.4200   -2.4680 F   0  0  0  0  0  0  0  0  0  0  0  0
   12.3060  -11.6210   -0.3300 C   0  0  0  0  0  0  0  0  0  0  0  0
   11.3680  -11.6020    0.7000 C   0  0  0  0  0  0  0  0  0  0  0  0
   10.1020  -12.1370    0.4820 C   0  0  0  0  0  0  0  0  0  0  0  0
    9.2070  -12.1130    1.4820 F   0  0  0  0  0  0  0  0  0  0  0  0
    6.3810  -14.3530   -1.0880 H   0  0  0  0  0  0  0  0  0  0  0  0
    4.8831  -12.1394   -3.1850 H   0  0  0  0  0  0  0  0  0  0  0  0
    2.4522  -11.6060   -3.2431 H   0  0  0  0  0  0  0  0  0  0  0  0
    0.9839  -12.2102   -1.3260 H   0  0  0  0  0  0  0  0  0  0  0  0
    2.8552  -15.2598    1.3867 H   0  0  0  0  0  0  0  0  0  0  0  0
    1.9352  -16.8120    3.6691 H   0  0  0  0  0  0  0  0  0  0  0  0
   -0.0830  -16.3581    5.3564 H   0  0  0  0  0  0  0  0  0  0  0  0
   -1.6520  -12.3280    3.5070 H   0  0  0  0  0  0  0  0  0  0  0  0
   -1.6356  -10.0461    2.7034 H   0  0  0  0  0  0  0  0  0  0  0  0
   -0.6027  -10.5721    1.3306 H   0  0  0  0  0  0  0  0  0  0  0  0
   -3.2274  -12.9368    2.2096 H   0  0  0  0  0  0  0  0  0  0  0  0
   -5.2063  -13.3208    0.7914 H   0  0  0  0  0  0  0  0  0  0  0  0
   -4.3977   -9.8783   -1.4717 H   0  0  0  0  0  0  0  0  0  0  0  0
   -2.3885   -9.3842   -0.1284 H   0  0  0  0  0  0  0  0  0  0  0  0
    4.3980  -13.8767    0.7339 H   0  0  0  0  0  0  0  0  0  0  0  0
    8.3660  -14.2150   -0.8090 H   0  0  0  0  0  0  0  0  0  0  0  0
   10.4228  -13.1459   -2.7521 H   0  0  0  0  0  0  0  0  0  0  0  0
   13.3071  -11.1953   -0.1673 H   0  0  0  0  0  0  0  0  0  0  0  0
   11.6260  -11.1678    1.6772 H   0  0  0  0  0  0  0  0  0  0  0  0
  1  2  2  0
  2  3  1  0
  3  4  1  0
  4  5  2  0
  5  6  1  0
  6  7  2  0
  7  8  1  0
  8  9  1  0
  9 10  2  0
 10 11  1  0
 11 12  1  0
 12 13  2  0
 13 14  1  0
 14 15  2  0
 15 16  1  0
 16 17  1  0
 17 18  1  0
 18 19  1  0
 19 20  2  0
 20 21  1  0
 21 22  2  0
 22 23  1  0
 23 24  2  0
 16 25  2  0
  8 26  2  0
  2 27  1  0
 27 28  1  0
 28 29  2  0
 29 30  1  0
 30 31  1  0
 31 32  1  0
 31 33  1  0
 31 34  1  0
 30 35  2  0
 35 36  1  0
 36 37  2  0
 37 38  1  0
 26  4  1  0
 37 28  1  0
 25  9  1  0
 15 11  1  0
 24 19  1  0
  3 39  1  0
  5 40  1  0
  6 41  1  0
  7 42  1  0
 10 43  1  0
 12 44  1  0
 13 45  1  0
 17 46  1  0
 18 47  1  0
 18 48  1  0
 20 49  1  0
 21 50  1  0
 23 51  1  0
 24 52  1  0
 26 53  1  0
 27 54  1  0
 29 55  1  0
 35 56  1  0
 36 57  1  0
M  END
>  <meeko>  (6) 
{"is_sidechain": [false], "free_energy": -9.095, "intermolecular_energy": -12.356, "internal_energy": -1.082}

$$$$
LIB_GHPCAIWYHJZRGR__M_PUB_ALL__e8__s20260927
     RDKit          3D

 57 61  0  0  0  0  0  0  0  0999 V2000
    7.0670  -11.1580   -2.6550 O   0  0  0  0  0  0  0  0  0  0  0  0
    6.7860  -12.2410   -2.1610 C   0  0  0  0  0  0  0  0  0  0  0  0
    5.4990  -12.6990   -1.9190 N   0  0  0  0  0  0  0  0  0  0  0  0
    4.2810  -12.0250   -2.1550 C   0  0  0  0  0  0  0  0  0  0  0  0
    3.9400  -11.4200   -3.3640 C   0  0  0  0  0  0  0  0  0  0  0  0
    2.7160  -10.7620   -3.5050 C   0  0  0  0  0  0  0  0  0  0  0  0
    1.8160  -10.7090   -2.4390 C   0  0  0  0  0  0  0  0  0  0  0  0
    2.1270  -11.3210   -1.2190 C   0  0  0  0  0  0  0  0  0  0  0  0
    1.2030  -11.2800   -0.0620 C   0  0  0  0  0  0  0  0  0  0  0  0
    0.4250  -10.1950    0.1370 C   0  0  0  0  0  0  0  0  0  0  0  0
   -0.4340  -10.1970    1.2150 N   0  0  0  0  0  0  0  0  0  0  0  0
   -1.3300   -9.2750    1.6820 C   0  0  0  0  0  0  0  0  0  0  0  0
   -1.8900   -9.8560    2.8000 C   0  0  0  0  0  0  0  0  0  0  0  0
   -1.3650  -11.1060    3.0300 N   0  0  0  0  0  0  0  0  0  0  0  0
   -0.4950  -11.2720    2.0550 C   0  0  0  0  0  0  0  0  0  0  0  0
    0.3520  -12.4220    1.7970 C   0  0  0  0  0  0  0  0  0  0  0  0
    0.3080  -13.5160    2.6250 N   0  0  0  0  0  0  0  0  0  0  0  0
    1.1350  -14.6800    2.4730 C   0  0  0  0  0  0  0  0  0  0  0  0
    1.1540  -15.4570    3.7640 C   0  0  0  0  0  0  0  0  0  0  0  0
    1.4720  -16.8190    3.7740 C   0  0  0  0  0  0  0  0  0  0  0  0
    1.4520  -17.4970    4.9820 C   0  0  0  0  0  0  0  0  0  0  0  0
    1.1360  -16.9210    6.1610 N   0  0  0  0  0  0  0  0  0  0  0  0
    0.8180  -15.6090    6.1290 C   0  0  0  0  0  0  0  0  0  0  0  0
    0.8080  -14.8450    4.9720 C   0  0  0  0  0  0  0  0  0  0  0  0
    1.1600  -12.4040    0.7590 N   0  0  0  0  0  0  0  0  0  0  0  0
    3.3700  -11.9650   -1.0890 C   0  0  0  0  0  0  0  0  0  0  0  0
    7.7180  -13.1860   -1.7670 N   0  0  0  0  0  0  0  0  0  0  0  0
    9.1250  -13.1140   -1.8620 C   0  0  0  0  0  0  0  0  0  0  0  0
    9.9640  -12.5930   -0.8740 C   0  0  0  0  0  0  0  0  0  0  0  0
   11.3610  -12.5580   -1.0580 C   0  0  0  0  0  0  0  0  0  0  0  0
   12.2470  -12.0050    0.0340 C   0  0  0  0  0  0  0  0  0  0  0  0
   12.8010  -12.9760    0.8100 F   0  0  0  0  0  0  0  0  0  0  0  0
   13.2830  -11.2730   -0.4580 F   0  0  0  0  0  0  0  0  0  0  0  0
   11.5840  -11.1790    0.8930 F   0  0  0  0  0  0  0  0  0  0  0  0
   11.9110  -13.0640   -2.2480 C   0  0  0  0  0  0  0  0  0  0  0  0
   11.0820  -13.5830   -3.2400 C   0  0  0  0  0  0  0  0  0  0  0  0
    9.7050  -13.6020   -3.0390 C   0  0  0  0  0  0  0  0  0  0  0  0
    8.9170  -14.1050   -4.0030 F   0  0  0  0  0  0  0  0  0  0  0  0
    5.4140  -13.6280   -1.5410 H   0  0  0  0  0  0  0  0  0  0  0  0
    4.6393  -11.4611   -4.2121 H   0  0  0  0  0  0  0  0  0  0  0  0
    2.4597  -10.2828   -4.4614 H   0  0  0  0  0  0  0  0  0  0  0  0
    0.8571  -10.1834   -2.5584 H   0  0  0  0  0  0  0  0  0  0  0  0
    0.4752   -9.3320   -0.5432 H   0  0  0  0  0  0  0  0  0  0  0  0
   -1.5549   -8.2853    1.2579 H   0  0  0  0  0  0  0  0  0  0  0  0
   -2.6582   -9.3806    3.4275 H   0  0  0  0  0  0  0  0  0  0  0  0
   -0.3290  -13.4660    3.4140 H   0  0  0  0  0  0  0  0  0  0  0  0
    0.7312  -15.3139    1.6698 H   0  0  0  0  0  0  0  0  0  0  0  0
    2.1591  -14.3704    2.2172 H   0  0  0  0  0  0  0  0  0  0  0  0
    1.7327  -17.3412    2.8416 H   0  0  0  0  0  0  0  0  0  0  0  0
    1.7085  -18.5667    4.9802 H   0  0  0  0  0  0  0  0  0  0  0  0
    0.5513  -15.1176    7.0763 H   0  0  0  0  0  0  0  0  0  0  0  0
    0.5337  -13.7802    5.0041 H   0  0  0  0  0  0  0  0  0  0  0  0
    3.6347  -12.4328   -0.1293 H   0  0  0  0  0  0  0  0  0  0  0  0
    7.3710  -14.0350   -1.3390 H   0  0  0  0  0  0  0  0  0  0  0  0
    9.5291  -12.2053    0.0590 H   0  0  0  0  0  0  0  0  0  0  0  0
   13.0008  -13.0502   -2.3969 H   0  0  0  0  0  0  0  0  0  0  0  0
   11.5119  -13.9743   -4.1738 H   0  0  0  0  0  0  0  0  0  0  0  0
  1  2  2  0
  2  3  1  0
  3  4  1  0
  4  5  2  0
  5  6  1  0
  6  7  2  0
  7  8  1  0
  8  9  1  0
  9 10  2  0
 10 11  1  0
 11 12  1  0
 12 13  2  0
 13 14  1  0
 14 15  2  0
 15 16  1  0
 16 17  1  0
 17 18  1  0
 18 19  1  0
 19 20  2  0
 20 21  1  0
 21 22  2  0
 22 23  1  0
 23 24  2  0
 16 25  2  0
  8 26  2  0
  2 27  1  0
 27 28  1  0
 28 29  2  0
 29 30  1  0
 30 31  1  0
 31 32  1  0
 31 33  1  0
 31 34  1  0
 30 35  2  0
 35 36  1  0
 36 37  2  0
 37 38  1  0
 26  4  1  0
 37 28  1  0
 25  9  1  0
 15 11  1  0
 24 19  1  0
  3 39  1  0
  5 40  1  0
  6 41  1  0
  7 42  1  0
 10 43  1  0
 12 44  1  0
 13 45  1  0
 17 46  1  0
 18 47  1  0
 18 48  1  0
 20 49  1  0
 21 50  1  0
 23 51  1  0
 24 52  1  0
 26 53  1  0
 27 54  1  0
 29 55  1  0
 35 56  1  0
 36 57  1  0
M  END
>  <meeko>  (7) 
{"is_sidechain": [false], "free_energy": -9.023, "intermolecular_energy": -12.401, "internal_energy": -0.94}

$$$$
LIB_GHPCAIWYHJZRGR__M_PUB_ALL__e8__s20260927
     RDKit          3D

 57 61  0  0  0  0  0  0  0  0999 V2000
    9.7410  -13.9400   -1.6090 O   0  0  0  0  0  0  0  0  0  0  0  0
    9.7890  -12.7210   -1.5160 C   0  0  0  0  0  0  0  0  0  0  0  0
    8.8850  -11.9360   -0.8160 N   0  0  0  0  0  0  0  0  0  0  0  0
    7.7380  -12.3580   -0.1100 C   0  0  0  0  0  0  0  0  0  0  0  0
    7.6960  -12.5630    1.2680 C   0  0  0  0  0  0  0  0  0  0  0  0
    6.5180  -12.9930    1.8840 C   0  0  0  0  0  0  0  0  0  0  0  0
    5.3670  -13.2160    1.1270 C   0  0  0  0  0  0  0  0  0  0  0  0
    5.3770  -13.0030   -0.2570 C   0  0  0  0  0  0  0  0  0  0  0  0
    4.1780  -13.2350   -1.0960 C   0  0  0  0  0  0  0  0  0  0  0  0
    4.3190  -13.4620   -2.4190 C   0  0  0  0  0  0  0  0  0  0  0  0
    3.1840  -13.6870   -3.1670 N   0  0  0  0  0  0  0  0  0  0  0  0
    2.9900  -13.9400   -4.4980 C   0  0  0  0  0  0  0  0  0  0  0  0
    1.6260  -14.0770   -4.6410 C   0  0  0  0  0  0  0  0  0  0  0  0
    0.9790  -13.9170   -3.4370 N   0  0  0  0  0  0  0  0  0  0  0  0
    1.9510  -13.6860   -2.5800 C   0  0  0  0  0  0  0  0  0  0  0  0
    1.8470  -13.4490   -1.1510 C   0  0  0  0  0  0  0  0  0  0  0  0
    0.6200  -13.4450   -0.5360 N   0  0  0  0  0  0  0  0  0  0  0  0
    0.4150  -13.1800    0.8610 C   0  0  0  0  0  0  0  0  0  0  0  0
   -0.0160  -11.7480    1.0450 C   0  0  0  0  0  0  0  0  0  0  0  0
   -1.3190  -11.4410    1.4490 C   0  0  0  0  0  0  0  0  0  0  0  0
   -1.6770  -10.1090    1.5800 C   0  0  0  0  0  0  0  0  0  0  0  0
   -0.8410   -9.0780    1.3340 N   0  0  0  0  0  0  0  0  0  0  0  0
    0.4080   -9.3940    0.9300 C   0  0  0  0  0  0  0  0  0  0  0  0
    0.8610  -10.6950    0.7690 C   0  0  0  0  0  0  0  0  0  0  0  0
    2.9420  -13.2420   -0.4530 N   0  0  0  0  0  0  0  0  0  0  0  0
    6.5750  -12.5850   -0.8620 C   0  0  0  0  0  0  0  0  0  0  0  0
   10.7660  -11.9310   -2.1000 N   0  0  0  0  0  0  0  0  0  0  0  0
   11.8730  -12.3440   -2.8740 C   0  0  0  0  0  0  0  0  0  0  0  0
   11.8060  -13.2460   -3.9380 C   0  0  0  0  0  0  0  0  0  0  0  0
   12.9660  -13.6040   -4.6540 C   0  0  0  0  0  0  0  0  0  0  0  0
   12.8640  -14.5710   -5.8120 C   0  0  0  0  0  0  0  0  0  0  0  0
   13.8450  -15.5140   -5.8030 F   0  0  0  0  0  0  0  0  0  0  0  0
   11.6840  -15.2480   -5.8190 F   0  0  0  0  0  0  0  0  0  0  0  0
   12.9490  -13.9590   -7.0270 F   0  0  0  0  0  0  0  0  0  0  0  0
   14.1990  -13.0350   -4.2950 C   0  0  0  0  0  0  0  0  0  0  0  0
   14.2750  -12.1350   -3.2340 C   0  0  0  0  0  0  0  0  0  0  0  0
   13.1180  -11.8010   -2.5370 C   0  0  0  0  0  0  0  0  0  0  0  0
   13.2040  -10.9330   -1.5160 F   0  0  0  0  0  0  0  0  0  0  0  0
    9.0680  -10.9460   -0.7940 H   0  0  0  0  0  0  0  0  0  0  0  0
    8.5962  -12.3851    1.8745 H   0  0  0  0  0  0  0  0  0  0  0  0
    6.4977  -13.1567    2.9716 H   0  0  0  0  0  0  0  0  0  0  0  0
    4.4464  -13.5611    1.6204 H   0  0  0  0  0  0  0  0  0  0  0  0
    5.3141  -13.4672   -2.8878 H   0  0  0  0  0  0  0  0  0  0  0  0
    3.7564  -14.0172   -5.2833 H   0  0  0  0  0  0  0  0  0  0  0  0
    1.1198  -14.2872   -5.5947 H   0  0  0  0  0  0  0  0  0  0  0  0
   -0.1890  -13.6010   -1.1290 H   0  0  0  0  0  0  0  0  0  0  0  0
   -0.3655  -13.8503    1.2502 H   0  0  0  0  0  0  0  0  0  0  0  0
    1.3539  -13.3524    1.4075 H   0  0  0  0  0  0  0  0  0  0  0  0
   -2.0448  -12.2406    1.6585 H   0  0  0  0  0  0  0  0  0  0  0  0
   -2.7027   -9.8780    1.9035 H   0  0  0  0  0  0  0  0  0  0  0  0
    1.1069   -8.5719    0.7161 H   0  0  0  0  0  0  0  0  0  0  0  0
    1.8888  -10.8940    0.4312 H   0  0  0  0  0  0  0  0  0  0  0  0
    6.6016  -12.4322   -1.9510 H   0  0  0  0  0  0  0  0  0  0  0  0
   10.6870  -10.9290   -1.9840 H   0  0  0  0  0  0  0  0  0  0  0  0
   10.8365  -13.6822   -4.2206 H   0  0  0  0  0  0  0  0  0  0  0  0
   15.1084  -13.3010   -4.8538 H   0  0  0  0  0  0  0  0  0  0  0  0
   15.2412  -11.6925   -2.9499 H   0  0  0  0  0  0  0  0  0  0  0  0
  1  2  2  0
  2  3  1  0
  3  4  1  0
  4  5  2  0
  5  6  1  0
  6  7  2  0
  7  8  1  0
  8  9  1  0
  9 10  2  0
 10 11  1  0
 11 12  1  0
 12 13  2  0
 13 14  1  0
 14 15  2  0
 15 16  1  0
 16 17  1  0
 17 18  1  0
 18 19  1  0
 19 20  2  0
 20 21  1  0
 21 22  2  0
 22 23  1  0
 23 24  2  0
 16 25  2  0
  8 26  2  0
  2 27  1  0
 27 28  1  0
 28 29  2  0
 29 30  1  0
 30 31  1  0
 31 32  1  0
 31 33  1  0
 31 34  1  0
 30 35  2  0
 35 36  1  0
 36 37  2  0
 37 38  1  0
 26  4  1  0
 37 28  1  0
 25  9  1  0
 15 11  1  0
 24 19  1  0
  3 39  1  0
  5 40  1  0
  6 41  1  0
  7 42  1  0
 10 43  1  0
 12 44  1  0
 13 45  1  0
 17 46  1  0
 18 47  1  0
 18 48  1  0
 20 49  1  0
 21 50  1  0
 23 51  1  0
 24 52  1  0
 26 53  1  0
 27 54  1  0
 29 55  1  0
 35 56  1  0
 36 57  1  0
M  END
>  <meeko>  (8) 
{"is_sidechain": [false], "free_energy": -8.778, "intermolecular_energy": -12.055, "internal_energy": -0.955}

$$$$
LIB_GHPCAIWYHJZRGR__M_PUB_ALL__e8__s20260927
     RDKit          3D

 57 61  0  0  0  0  0  0  0  0999 V2000
    4.0840  -13.2770   -6.3940 O   0  0  0  0  0  0  0  0  0  0  0  0
    5.1170  -12.8860   -5.8690 C   0  0  0  0  0  0  0  0  0  0  0  0
    5.1900  -12.1800   -4.6770 N   0  0  0  0  0  0  0  0  0  0  0  0
    4.1240  -11.7490   -3.8590 C   0  0  0  0  0  0  0  0  0  0  0  0
    3.2930  -10.6690   -4.1570 C   0  0  0  0  0  0  0  0  0  0  0  0
    2.2670  -10.3040   -3.2820 C   0  0  0  0  0  0  0  0  0  0  0  0
    2.0570  -11.0210   -2.1020 C   0  0  0  0  0  0  0  0  0  0  0  0
    2.8670  -12.1180   -1.7870 C   0  0  0  0  0  0  0  0  0  0  0  0
    2.6820  -12.8990   -0.5410 C   0  0  0  0  0  0  0  0  0  0  0  0
    1.5180  -12.8110    0.1380 C   0  0  0  0  0  0  0  0  0  0  0  0
    1.3740  -13.5610    1.2850 N   0  0  0  0  0  0  0  0  0  0  0  0
    0.3470  -13.6930    2.1790 C   0  0  0  0  0  0  0  0  0  0  0  0
    0.8050  -14.5920    3.1190 C   0  0  0  0  0  0  0  0  0  0  0  0
    2.0800  -15.0170    2.8260 N   0  0  0  0  0  0  0  0  0  0  0  0
    2.3830  -14.3740    1.7170 C   0  0  0  0  0  0  0  0  0  0  0  0
    3.6130  -14.4460    0.9490 C   0  0  0  0  0  0  0  0  0  0  0  0
    4.6420  -15.2570    1.3600 N   0  0  0  0  0  0  0  0  0  0  0  0
    5.9080  -15.3620    0.6900 C   0  0  0  0  0  0  0  0  0  0  0  0
    5.9330  -16.6150   -0.1470 C   0  0  0  0  0  0  0  0  0  0  0  0
    6.3050  -16.5670   -1.4940 C   0  0  0  0  0  0  0  0  0  0  0  0
    6.2880  -17.7410   -2.2300 C   0  0  0  0  0  0  0  0  0  0  0  0
    5.9270  -18.9390   -1.7230 N   0  0  0  0  0  0  0  0  0  0  0  0
    5.5570  -18.9630   -0.4250 C   0  0  0  0  0  0  0  0  0  0  0  0
    5.5400  -17.8430    0.3920 C   0  0  0  0  0  0  0  0  0  0  0  0
    3.7290  -13.7270   -0.1460 N   0  0  0  0  0  0  0  0  0  0  0  0
    3.9050  -12.4620   -2.6710 C   0  0  0  0  0  0  0  0  0  0  0  0
    6.3850  -13.0930   -6.3870 N   0  0  0  0  0  0  0  0  0  0  0  0
    6.7400  -13.7840   -7.5670 C   0  0  0  0  0  0  0  0  0  0  0  0
    6.7660  -13.2160   -8.8430 C   0  0  0  0  0  0  0  0  0  0  0  0
    7.1320  -13.9850   -9.9670 C   0  0  0  0  0  0  0  0  0  0  0  0
    7.1670  -13.3420  -11.3340 C   0  0  0  0  0  0  0  0  0  0  0  0
    8.4140  -13.3230  -11.8790 F   0  0  0  0  0  0  0  0  0  0  0  0
    6.3700  -13.9840  -12.2310 F   0  0  0  0  0  0  0  0  0  0  0  0
    6.7480  -12.0440  -11.3260 F   0  0  0  0  0  0  0  0  0  0  0  0
    7.4830  -15.3340   -9.7930 C   0  0  0  0  0  0  0  0  0  0  0  0
    7.4580  -15.9080   -8.5240 C   0  0  0  0  0  0  0  0  0  0  0  0
    7.0890  -15.1330   -7.4300 C   0  0  0  0  0  0  0  0  0  0  0  0
    7.0680  -15.6980   -6.2120 F   0  0  0  0  0  0  0  0  0  0  0  0
    6.1130  -11.9530   -4.3430 H   0  0  0  0  0  0  0  0  0  0  0  0
    3.4465  -10.1013   -5.0866 H   0  0  0  0  0  0  0  0  0  0  0  0
    1.6209   -9.4472   -3.5237 H   0  0  0  0  0  0  0  0  0  0  0  0
    1.2505  -10.7218   -1.4164 H   0  0  0  0  0  0  0  0  0  0  0  0
    0.7063  -12.1579   -0.2152 H   0  0  0  0  0  0  0  0  0  0  0  0
   -0.6315  -13.1911    2.1536 H   0  0  0  0  0  0  0  0  0  0  0  0
    0.2249  -14.9265    3.9917 H   0  0  0  0  0  0  0  0  0  0  0  0
    4.4960  -15.7800    2.2190 H   0  0  0  0  0  0  0  0  0  0  0  0
    6.0532  -14.4854    0.0416 H   0  0  0  0  0  0  0  0  0  0  0  0
    6.7147  -15.4045    1.4366 H   0  0  0  0  0  0  0  0  0  0  0  0
    6.6050  -15.6168   -1.9599 H   0  0  0  0  0  0  0  0  0  0  0  0
    6.5857  -17.6941   -3.2879 H   0  0  0  0  0  0  0  0  0  0  0  0
    5.2515  -19.9263    0.0094 H   0  0  0  0  0  0  0  0  0  0  0  0
    5.2237  -17.9194    1.4428 H   0  0  0  0  0  0  0  0  0  0  0  0
    4.5608  -13.3103   -2.4251 H   0  0  0  0  0  0  0  0  0  0  0  0
    7.1660  -12.6960   -5.8830 H   0  0  0  0  0  0  0  0  0  0  0  0
    6.4980  -12.1570   -8.9725 H   0  0  0  0  0  0  0  0  0  0  0  0
    7.7788  -15.9396  -10.6624 H   0  0  0  0  0  0  0  0  0  0  0  0
    7.7280  -16.9657   -8.3884 H   0  0  0  0  0  0  0  0  0  0  0  0
  1  2  2  0
  2  3  1  0
  3  4  1  0
  4  5  2  0
  5  6  1  0
  6  7  2  0
  7  8  1  0
  8  9  1  0
  9 10  2  0
 10 11  1  0
 11 12  1  0
 12 13  2  0
 13 14  1  0
 14 15  2  0
 15 16  1  0
 16 17  1  0
 17 18  1  0
 18 19  1  0
 19 20  2  0
 20 21  1  0
 21 22  2  0
 22 23  1  0
 23 24  2  0
 16 25  2  0
  8 26  2  0
  2 27  1  0
 27 28  1  0
 28 29  2  0
 29 30  1  0
 30 31  1  0
 31 32  1  0
 31 33  1  0
 31 34  1  0
 30 35  2  0
 35 36  1  0
 36 37  2  0
 37 38  1  0
 26  4  1  0
 37 28  1  0
 25  9  1  0
 15 11  1  0
 24 19  1  0
  3 39  1  0
  5 40  1  0
  6 41  1  0
  7 42  1  0
 10 43  1  0
 12 44  1  0
 13 45  1  0
 17 46  1  0
 18 47  1  0
 18 48  1  0
 20 49  1  0
 21 50  1  0
 23 51  1  0
 24 52  1  0
 26 53  1  0
 27 54  1  0
 29 55  1  0
 35 56  1  0
 36 57  1  0
M  END
>  <meeko>  (9) 
{"is_sidechain": [false], "free_energy": -8.714, "intermolecular_energy": -11.465, "internal_energy": -1.458}

$$$$
