LIB_JWNVJLOTJWLIAA__M_PUB_ALL__e8__s20260927
     RDKit          3D

 58 61  0  0  0  0  0  0  0  0999 V2000
   18.9230  -18.9200  -12.7480 C   0  0  0  0  0  0  0  0  0  0  0  0
   17.7780  -18.1140  -12.2190 N   0  0  0  0  0  0  0  0  0  0  0  0
   18.2240  -17.0980  -11.1710 C   0  0  0  0  0  0  0  0  0  0  0  0
   17.0120  -16.3430  -10.5900 C   0  0  0  0  0  0  0  0  0  0  0  0
   16.1770  -15.7720  -11.6620 N   0  0  0  0  0  0  0  0  0  0  0  0
   15.3340  -14.7170  -11.3120 C   0  0  0  0  0  0  0  0  0  0  0  0
   14.8970  -14.5600   -9.9910 C   0  0  0  0  0  0  0  0  0  0  0  0
   14.0500  -13.5060   -9.6170 C   0  0  0  0  0  0  0  0  0  0  0  0
   13.6050  -12.5590  -10.5450 C   0  0  0  0  0  0  0  0  0  0  0  0
   12.7600  -11.5370  -10.1120 N   0  0  0  0  0  0  0  0  0  0  0  0
   11.7100  -10.8310  -10.6920 C   0  0  0  0  0  0  0  0  0  0  0  0
   10.5110  -11.3830  -10.9090 N   0  0  0  0  0  0  0  0  0  0  0  0
    9.5710  -10.6080  -11.4760 C   0  0  0  0  0  0  0  0  0  0  0  0
    9.7830   -9.3020  -11.8400 C   0  0  0  0  0  0  0  0  0  0  0  0
   11.0440   -8.8010  -11.5900 C   0  0  0  0  0  0  0  0  0  0  0  0
   11.4390   -7.4140  -11.9150 C   0  0  0  0  0  0  0  0  0  0  0  0
   12.0310   -7.1110  -13.1550 C   0  0  0  0  0  0  0  0  0  0  0  0
   12.4130   -5.8070  -13.4850 C   0  0  0  0  0  0  0  0  0  0  0  0
   12.2180   -4.7640  -12.5740 C   0  0  0  0  0  0  0  0  0  0  0  0
   12.6390   -3.3930  -12.9740 C   0  0  0  0  0  0  0  0  0  0  0  0
   13.7130   -3.2160  -13.5360 O   0  0  0  0  0  0  0  0  0  0  0  0
   11.7870   -2.3630  -12.6490 N   0  0  0  0  0  0  0  0  0  0  0  0
   12.1440   -0.9830  -12.9320 C   0  0  0  0  0  0  0  0  0  0  0  0
   12.1700   -0.1660  -11.7080 C   0  0  0  0  0  0  0  0  0  0  0  0
   12.1490    0.4770  -10.7420 N   0  0  0  0  0  0  0  0  0  0  0  0
   11.6110   -5.0350  -11.3450 C   0  0  0  0  0  0  0  0  0  0  0  0
   11.2300   -6.3460  -11.0220 C   0  0  0  0  0  0  0  0  0  0  0  0
   12.0040   -9.5620  -11.0140 N   0  0  0  0  0  0  0  0  0  0  0  0
   14.0440  -12.7060  -11.8590 C   0  0  0  0  0  0  0  0  0  0  0  0
   14.8950  -13.7600  -12.2340 C   0  0  0  0  0  0  0  0  0  0  0  0
   15.7820  -16.6710  -12.7580 C   0  0  0  0  0  0  0  0  0  0  0  0
   17.0040  -17.4150  -13.3320 C   0  0  0  0  0  0  0  0  0  0  0  0
   19.5032  -19.3284  -11.9074 H   0  0  0  0  0  0  0  0  0  0  0  0
   18.5366  -19.7464  -13.3627 H   0  0  0  0  0  0  0  0  0  0  0  0
   19.5706  -18.2775  -13.3627 H   0  0  0  0  0  0  0  0  0  0  0  0
   17.1250  -18.7580  -11.7540 H   0  0  0  0  0  0  0  0  0  0  0  0
   18.7450  -17.6241  -10.3575 H   0  0  0  0  0  0  0  0  0  0  0  0
   18.8966  -16.3705  -11.6490 H   0  0  0  0  0  0  0  0  0  0  0  0
   16.4049  -17.0418   -9.9958 H   0  0  0  0  0  0  0  0  0  0  0  0
   17.3825  -15.5202   -9.9609 H   0  0  0  0  0  0  0  0  0  0  0  0
   15.2259  -15.2807   -9.2278 H   0  0  0  0  0  0  0  0  0  0  0  0
   13.7281  -13.4224   -8.5685 H   0  0  0  0  0  0  0  0  0  0  0  0
   12.8920  -11.1910   -9.1720 H   0  0  0  0  0  0  0  0  0  0  0  0
    8.5777  -11.0441  -11.6582 H   0  0  0  0  0  0  0  0  0  0  0  0
    8.9945   -8.6909  -12.3035 H   0  0  0  0  0  0  0  0  0  0  0  0
   12.1973   -7.9194  -13.8823 H   0  0  0  0  0  0  0  0  0  0  0  0
   12.8686   -5.6008  -14.4648 H   0  0  0  0  0  0  0  0  0  0  0  0
   10.9720   -2.5320  -12.0770 H   0  0  0  0  0  0  0  0  0  0  0  0
   13.1407   -0.9607  -13.3969 H   0  0  0  0  0  0  0  0  0  0  0  0
   11.3844   -0.5638  -13.6083 H   0  0  0  0  0  0  0  0  0  0  0  0
   11.4316   -4.2190  -10.6295 H   0  0  0  0  0  0  0  0  0  0  0  0
   10.7572   -6.5439  -10.0487 H   0  0  0  0  0  0  0  0  0  0  0  0
   13.7175  -11.9815  -12.6196 H   0  0  0  0  0  0  0  0  0  0  0  0
   15.2249  -13.8347  -13.2807 H   0  0  0  0  0  0  0  0  0  0  0  0
   15.0596  -17.4074  -12.3762 H   0  0  0  0  0  0  0  0  0  0  0  0
   15.3313  -16.0679  -13.5599 H   0  0  0  0  0  0  0  0  0  0  0  0
   16.6615  -18.1649  -14.0603 H   0  0  0  0  0  0  0  0  0  0  0  0
   17.6664  -16.6852  -13.8205 H   0  0  0  0  0  0  0  0  0  0  0  0
  1  2  1  0
  2  3  1  0
  3  4  1  0
  4  5  1  0
  5  6  1  0
  6  7  2  0
  7  8  1  0
  8  9  2  0
  9 10  1  0
 10 11  1  0
 11 12  2  0
 12 13  1  0
 13 14  2  0
 14 15  1  0
 15 16  1  0
 16 17  2  0
 17 18  1  0
 18 19  2  0
 19 20  1  0
 20 21  2  0
 20 22  1  0
 22 23  1  0
 23 24  1  0
 24 25  3  0
 19 26  1  0
 26 27  2  0
 15 28  2  0
  9 29  1  0
 29 30  2  0
  5 31  1  0
 31 32  1  0
 32  2  1  0
 30  6  1  0
 28 11  1  0
 27 16  1  0
  1 33  1  0
  1 34  1  0
  1 35  1  0
  2 36  1  0
  3 37  1  0
  3 38  1  0
  4 39  1  0
  4 40  1  0
  7 41  1  0
  8 42  1  0
 10 43  1  0
 13 44  1  0
 14 45  1  0
 17 46  1  0
 18 47  1  0
 22 48  1  0
 23 49  1  0
 23 50  1  0
 26 51  1  0
 27 52  1  0
 29 53  1  0
 30 54  1  0
 31 55  1  0
 31 56  1  0
 32 57  1  0
 32 58  1  0
M  CHG  1   2   1
M  END
>  <meeko>  (1) 
{"is_sidechain": [false], "free_energy": -8.677, "intermolecular_energy": -11.72, "internal_energy": -0.762}

$$$$
LIB_JWNVJLOTJWLIAA__M_PUB_ALL__e8__s20260927
     RDKit          3D

 58 61  0  0  0  0  0  0  0  0999 V2000
    0.7020  -14.4150   -4.8830 C   0  0  0  0  0  0  0  0  0  0  0  0
    2.0420  -14.4890   -4.2210 N   0  0  0  0  0  0  0  0  0  0  0  0
    2.9800  -13.3810   -4.6920 C   0  0  0  0  0  0  0  0  0  0  0  0
    4.3740  -13.5350   -4.0520 C   0  0  0  0  0  0  0  0  0  0  0  0
    4.2760  -13.6550   -2.5870 N   0  0  0  0  0  0  0  0  0  0  0  0
    5.4220  -13.3530   -1.8510 C   0  0  0  0  0  0  0  0  0  0  0  0
    6.2350  -14.3740   -1.3420 C   0  0  0  0  0  0  0  0  0  0  0  0
    7.3920  -14.0920   -0.6000 C   0  0  0  0  0  0  0  0  0  0  0  0
    7.7920  -12.7780   -0.3380 C   0  0  0  0  0  0  0  0  0  0  0  0
    8.9510  -12.5630    0.4100 N   0  0  0  0  0  0  0  0  0  0  0  0
   10.2690  -12.2500    0.0920 C   0  0  0  0  0  0  0  0  0  0  0  0
   11.0220  -11.4590    0.8650 N   0  0  0  0  0  0  0  0  0  0  0  0
   12.2820  -11.2240    0.4610 C   0  0  0  0  0  0  0  0  0  0  0  0
   12.8190  -11.7450   -0.6900 C   0  0  0  0  0  0  0  0  0  0  0  0
   11.9830  -12.5480   -1.4390 C   0  0  0  0  0  0  0  0  0  0  0  0
   12.4030  -13.1920   -2.7010 C   0  0  0  0  0  0  0  0  0  0  0  0
   12.0360  -14.5200   -2.9820 C   0  0  0  0  0  0  0  0  0  0  0  0
   12.4220  -15.1510   -4.1700 C   0  0  0  0  0  0  0  0  0  0  0  0
   13.1950  -14.4670   -5.1120 C   0  0  0  0  0  0  0  0  0  0  0  0
   13.5770  -15.1810   -6.3610 C   0  0  0  0  0  0  0  0  0  0  0  0
   13.5270  -16.4040   -6.4130 O   0  0  0  0  0  0  0  0  0  0  0  0
   14.0120  -14.4050   -7.4100 N   0  0  0  0  0  0  0  0  0  0  0  0
   14.4750  -15.0150   -8.6460 C   0  0  0  0  0  0  0  0  0  0  0  0
   15.8640  -15.4880   -8.5310 C   0  0  0  0  0  0  0  0  0  0  0  0
   16.9730  -15.8210   -8.4420 N   0  0  0  0  0  0  0  0  0  0  0  0
   13.5540  -13.1380   -4.8660 C   0  0  0  0  0  0  0  0  0  0  0  0
   13.1630  -12.5130   -3.6730 C   0  0  0  0  0  0  0  0  0  0  0  0
   10.7140  -12.8030   -1.0470 N   0  0  0  0  0  0  0  0  0  0  0  0
    6.9920  -11.7590   -0.8500 C   0  0  0  0  0  0  0  0  0  0  0  0
    5.8340  -12.0400   -1.5950 C   0  0  0  0  0  0  0  0  0  0  0  0
    3.3230  -14.6410   -2.0550 C   0  0  0  0  0  0  0  0  0  0  0  0
    1.9340  -14.4730   -2.6990 C   0  0  0  0  0  0  0  0  0  0  0  0
   -0.0844  -14.3716   -4.1151 H   0  0  0  0  0  0  0  0  0  0  0  0
    0.6522  -13.5127   -5.5103 H   0  0  0  0  0  0  0  0  0  0  0  0
    0.5532  -15.3063   -5.5103 H   0  0  0  0  0  0  0  0  0  0  0  0
    2.4760  -15.3830   -4.4840 H   0  0  0  0  0  0  0  0  0  0  0  0
    3.0780  -13.4324   -5.7864 H   0  0  0  0  0  0  0  0  0  0  0  0
    2.5588  -12.4106   -4.3904 H   0  0  0  0  0  0  0  0  0  0  0  0
    4.8562  -14.4379   -4.4547 H   0  0  0  0  0  0  0  0  0  0  0  0
    4.9678  -12.6401   -4.2898 H   0  0  0  0  0  0  0  0  0  0  0  0
    5.9596  -15.4225   -1.5286 H   0  0  0  0  0  0  0  0  0  0  0  0
    7.9990  -14.9247   -0.2151 H   0  0  0  0  0  0  0  0  0  0  0  0
    8.8760  -12.6380    1.4140 H   0  0  0  0  0  0  0  0  0  0  0  0
   12.9173  -10.5795    1.0863 H   0  0  0  0  0  0  0  0  0  0  0  0
   13.8542  -11.5349   -0.9971 H   0  0  0  0  0  0  0  0  0  0  0  0
   11.4311  -15.0761   -2.2507 H   0  0  0  0  0  0  0  0  0  0  0  0
   12.1157  -16.1897   -4.3631 H   0  0  0  0  0  0  0  0  0  0  0  0
   14.1580  -13.4130   -7.2900 H   0  0  0  0  0  0  0  0  0  0  0  0
   13.8259  -15.8697   -8.8870 H   0  0  0  0  0  0  0  0  0  0  0  0
   14.4356  -14.2548   -9.4401 H   0  0  0  0  0  0  0  0  0  0  0  0
   14.1440  -12.5820   -5.6094 H   0  0  0  0  0  0  0  0  0  0  0  0
   13.4567  -11.4684   -3.4923 H   0  0  0  0  0  0  0  0  0  0  0  0
    7.2729  -10.7113   -0.6671 H   0  0  0  0  0  0  0  0  0  0  0  0
    5.2349  -11.2052   -1.9877 H   0  0  0  0  0  0  0  0  0  0  0  0
    3.6974  -15.6533   -2.2673 H   0  0  0  0  0  0  0  0  0  0  0  0
    3.2266  -14.4840   -0.9705 H   0  0  0  0  0  0  0  0  0  0  0  0
    1.2828  -15.2978   -2.3741 H   0  0  0  0  0  0  0  0  0  0  0  0
    1.5114  -13.5076   -2.3837 H   0  0  0  0  0  0  0  0  0  0  0  0
  1  2  1  0
  2  3  1  0
  3  4  1  0
  4  5  1  0
  5  6  1  0
  6  7  2  0
  7  8  1  0
  8  9  2  0
  9 10  1  0
 10 11  1  0
 11 12  2  0
 12 13  1  0
 13 14  2  0
 14 15  1  0
 15 16  1  0
 16 17  2  0
 17 18  1  0
 18 19  2  0
 19 20  1  0
 20 21  2  0
 20 22  1  0
 22 23  1  0
 23 24  1  0
 24 25  3  0
 19 26  1  0
 26 27  2  0
 15 28  2  0
  9 29  1  0
 29 30  2  0
  5 31  1  0
 31 32  1  0
 32  2  1  0
 30  6  1  0
 28 11  1  0
 27 16  1  0
  1 33  1  0
  1 34  1  0
  1 35  1  0
  2 36  1  0
  3 37  1  0
  3 38  1  0
  4 39  1  0
  4 40  1  0
  7 41  1  0
  8 42  1  0
 10 43  1  0
 13 44  1  0
 14 45  1  0
 17 46  1  0
 18 47  1  0
 22 48  1  0
 23 49  1  0
 23 50  1  0
 26 51  1  0
 27 52  1  0
 29 53  1  0
 30 54  1  0
 31 55  1  0
 31 56  1  0
 32 57  1  0
 32 58  1  0
M  CHG  1   2   1
M  END
>  <meeko>  (2) 
{"is_sidechain": [false], "free_energy": -8.068, "intermolecular_energy": -10.851, "internal_energy": -0.808}

$$$$
LIB_JWNVJLOTJWLIAA__M_PUB_ALL__e8__s20260927
     RDKit          3D

 58 61  0  0  0  0  0  0  0  0999 V2000
   -8.2940  -17.7750    8.3230 C   0  0  0  0  0  0  0  0  0  0  0  0
   -7.5290  -17.3620    7.1050 N   0  0  0  0  0  0  0  0  0  0  0  0
   -8.2880  -16.3360    6.2690 C   0  0  0  0  0  0  0  0  0  0  0  0
   -7.5090  -15.9940    4.9830 C   0  0  0  0  0  0  0  0  0  0  0  0
   -6.1190  -15.6090    5.2890 N   0  0  0  0  0  0  0  0  0  0  0  0
   -5.4440  -14.8610    4.3240 C   0  0  0  0  0  0  0  0  0  0  0  0
   -6.0170  -13.7010    3.7880 C   0  0  0  0  0  0  0  0  0  0  0  0
   -5.3550  -12.9340    2.8180 C   0  0  0  0  0  0  0  0  0  0  0  0
   -4.0890  -13.2890    2.3430 C   0  0  0  0  0  0  0  0  0  0  0  0
   -3.4840  -12.4860    1.3740 N   0  0  0  0  0  0  0  0  0  0  0  0
   -2.5350  -11.4700    1.4080 C   0  0  0  0  0  0  0  0  0  0  0  0
   -2.6480  -10.4130    2.2210 N   0  0  0  0  0  0  0  0  0  0  0  0
   -1.6710   -9.4910    2.1690 C   0  0  0  0  0  0  0  0  0  0  0  0
   -0.5870   -9.5800    1.3330 C   0  0  0  0  0  0  0  0  0  0  0  0
   -0.5390  -10.6940    0.5210 C   0  0  0  0  0  0  0  0  0  0  0  0
    0.5600  -10.9490   -0.4340 C   0  0  0  0  0  0  0  0  0  0  0  0
    0.7720  -10.0890   -1.5270 C   0  0  0  0  0  0  0  0  0  0  0  0
    1.8050  -10.3090   -2.4440 C   0  0  0  0  0  0  0  0  0  0  0  0
    2.6570  -11.4070   -2.2930 C   0  0  0  0  0  0  0  0  0  0  0  0
    3.7440  -11.5960   -3.2940 C   0  0  0  0  0  0  0  0  0  0  0  0
    4.9100  -11.3740   -2.9890 O   0  0  0  0  0  0  0  0  0  0  0  0
    3.3630  -11.9900   -4.5560 N   0  0  0  0  0  0  0  0  0  0  0  0
    4.3420  -12.1310   -5.6200 C   0  0  0  0  0  0  0  0  0  0  0  0
    4.8640  -13.5060   -5.6990 C   0  0  0  0  0  0  0  0  0  0  0  0
    5.2980  -14.5820   -5.7270 N   0  0  0  0  0  0  0  0  0  0  0  0
    2.4830  -12.2630   -1.2020 C   0  0  0  0  0  0  0  0  0  0  0  0
    1.4440  -12.0350   -0.2880 C   0  0  0  0  0  0  0  0  0  0  0  0
   -1.5070  -11.6390    0.5610 N   0  0  0  0  0  0  0  0  0  0  0  0
   -3.5100  -14.4370    2.8800 C   0  0  0  0  0  0  0  0  0  0  0  0
   -4.1720  -15.2040    3.8530 C   0  0  0  0  0  0  0  0  0  0  0  0
   -5.3510  -16.5050    6.1670 C   0  0  0  0  0  0  0  0  0  0  0  0
   -6.1390  -16.8350    7.4490 C   0  0  0  0  0  0  0  0  0  0  0  0
   -7.7387  -17.4752    9.2239 H   0  0  0  0  0  0  0  0  0  0  0  0
   -9.2795  -17.2864    8.3202 H   0  0  0  0  0  0  0  0  0  0  0  0
   -8.4262  -18.8670    8.3202 H   0  0  0  0  0  0  0  0  0  0  0  0
   -7.3990  -18.1940    6.5150 H   0  0  0  0  0  0  0  0  0  0  0  0
   -9.2706  -16.7485    5.9965 H   0  0  0  0  0  0  0  0  0  0  0  0
   -8.4096  -15.4178    6.8625 H   0  0  0  0  0  0  0  0  0  0  0  0
   -7.5007  -16.8743    4.3235 H   0  0  0  0  0  0  0  0  0  0  0  0
   -8.0054  -15.1452    4.4900 H   0  0  0  0  0  0  0  0  0  0  0  0
   -7.0109  -13.3835    4.1363 H   0  0  0  0  0  0  0  0  0  0  0  0
   -5.8436  -12.0317    2.4216 H   0  0  0  0  0  0  0  0  0  0  0  0
   -3.7570  -12.6330    0.4130 H   0  0  0  0  0  0  0  0  0  0  0  0
   -1.7449   -8.6173    2.8332 H   0  0  0  0  0  0  0  0  0  0  0  0
    0.1972   -8.8089    1.3115 H   0  0  0  0  0  0  0  0  0  0  0  0
    0.1089   -9.2220   -1.6638 H   0  0  0  0  0  0  0  0  0  0  0  0
    1.9474   -9.6161   -3.2864 H   0  0  0  0  0  0  0  0  0  0  0  0
    2.3850  -12.0410   -4.8040 H   0  0  0  0  0  0  0  0  0  0  0  0
    3.8670  -11.8741   -6.5783 H   0  0  0  0  0  0  0  0  0  0  0  0
    5.1833  -11.4559   -5.4046 H   0  0  0  0  0  0  0  0  0  0  0  0
    3.1619  -13.1168   -1.0600 H   0  0  0  0  0  0  0  0  0  0  0  0
    1.3168  -12.7206    0.5627 H   0  0  0  0  0  0  0  0  0  0  0  0
   -2.5134  -14.7493    2.5347 H   0  0  0  0  0  0  0  0  0  0  0  0
   -3.6764  -16.0995    4.2560 H   0  0  0  0  0  0  0  0  0  0  0  0
   -5.1356  -17.4390    5.6273 H   0  0  0  0  0  0  0  0  0  0  0  0
   -4.4169  -15.9987    6.4518 H   0  0  0  0  0  0  0  0  0  0  0  0
   -5.5939  -17.6000    8.0214 H   0  0  0  0  0  0  0  0  0  0  0  0
   -6.2457  -15.9170    8.0456 H   0  0  0  0  0  0  0  0  0  0  0  0
  1  2  1  0
  2  3  1  0
  3  4  1  0
  4  5  1  0
  5  6  1  0
  6  7  2  0
  7  8  1  0
  8  9  2  0
  9 10  1  0
 10 11  1  0
 11 12  2  0
 12 13  1  0
 13 14  2  0
 14 15  1  0
 15 16  1  0
 16 17  2  0
 17 18  1  0
 18 19  2  0
 19 20  1  0
 20 21  2  0
 20 22  1  0
 22 23  1  0
 23 24  1  0
 24 25  3  0
 19 26  1  0
 26 27  2  0
 15 28  2  0
  9 29  1  0
 29 30  2  0
  5 31  1  0
 31 32  1  0
 32  2  1  0
 30  6  1  0
 28 11  1  0
 27 16  1  0
  1 33  1  0
  1 34  1  0
  1 35  1  0
  2 36  1  0
  3 37  1  0
  3 38  1  0
  4 39  1  0
  4 40  1  0
  7 41  1  0
  8 42  1  0
 10 43  1  0
 13 44  1  0
 14 45  1  0
 17 46  1  0
 18 47  1  0
 22 48  1  0
 23 49  1  0
 23 50  1  0
 26 51  1  0
 27 52  1  0
 29 53  1  0
 30 54  1  0
 31 55  1  0
 31 56  1  0
 32 57  1  0
 32 58  1  0
M  CHG  1   2   1
M  END
>  <meeko>  (3) 
{"is_sidechain": [false], "free_energy": -7.901, "intermolecular_energy": -10.672, "internal_energy": -0.762}

$$$$
LIB_JWNVJLOTJWLIAA__M_PUB_ALL__e8__s20260927
     RDKit          3D

 58 61  0  0  0  0  0  0  0  0999 V2000
   10.3530  -13.3390  -12.0370 C   0  0  0  0  0  0  0  0  0  0  0  0
    9.1040  -13.5330  -11.2340 N   0  0  0  0  0  0  0  0  0  0  0  0
    9.2950  -14.5440  -10.1070 C   0  0  0  0  0  0  0  0  0  0  0  0
    7.9710  -14.7790   -9.3530 C   0  0  0  0  0  0  0  0  0  0  0  0
    7.3720  -13.5050   -8.9200 N   0  0  0  0  0  0  0  0  0  0  0  0
    6.4520  -13.5630   -7.8730 C   0  0  0  0  0  0  0  0  0  0  0  0
    5.4300  -12.6120   -7.7660 C   0  0  0  0  0  0  0  0  0  0  0  0
    4.4930  -12.6530   -6.7230 C   0  0  0  0  0  0  0  0  0  0  0  0
    4.5320  -13.6490   -5.7420 C   0  0  0  0  0  0  0  0  0  0  0  0
    3.5740  -13.6330   -4.7270 N   0  0  0  0  0  0  0  0  0  0  0  0
    3.5560  -13.1710   -3.4140 C   0  0  0  0  0  0  0  0  0  0  0  0
    2.4180  -12.8830   -2.7740 N   0  0  0  0  0  0  0  0  0  0  0  0
    2.5200  -12.4440   -1.5070 C   0  0  0  0  0  0  0  0  0  0  0  0
    3.7160  -12.2770   -0.8560 C   0  0  0  0  0  0  0  0  0  0  0  0
    4.8480  -12.5910   -1.5800 C   0  0  0  0  0  0  0  0  0  0  0  0
    6.2140  -12.4740   -1.0290 C   0  0  0  0  0  0  0  0  0  0  0  0
    7.3330  -12.8050   -1.8150 C   0  0  0  0  0  0  0  0  0  0  0  0
    8.6360  -12.7030   -1.3160 C   0  0  0  0  0  0  0  0  0  0  0  0
    8.8550  -12.2680   -0.0050 C   0  0  0  0  0  0  0  0  0  0  0  0
   10.2610  -12.1730    0.4780 C   0  0  0  0  0  0  0  0  0  0  0  0
   10.5120  -12.2870    1.6720 O   0  0  0  0  0  0  0  0  0  0  0  0
   11.2260  -11.9230   -0.4690 N   0  0  0  0  0  0  0  0  0  0  0  0
   12.6170  -11.7420   -0.0860 C   0  0  0  0  0  0  0  0  0  0  0  0
   12.8970  -10.3490    0.3010 C   0  0  0  0  0  0  0  0  0  0  0  0
   13.1160   -9.2390    0.5650 N   0  0  0  0  0  0  0  0  0  0  0  0
    7.7620  -11.9110    0.7890 C   0  0  0  0  0  0  0  0  0  0  0  0
    6.4590  -12.0160    0.2800 C   0  0  0  0  0  0  0  0  0  0  0  0
    4.7690  -13.0410   -2.8540 N   0  0  0  0  0  0  0  0  0  0  0  0
    5.5410  -14.6040   -5.8500 C   0  0  0  0  0  0  0  0  0  0  0  0
    6.4780  -14.5650   -6.8960 C   0  0  0  0  0  0  0  0  0  0  0  0
    7.2400  -12.4450   -9.9320 C   0  0  0  0  0  0  0  0  0  0  0  0
    8.5710  -12.2180  -10.6740 C   0  0  0  0  0  0  0  0  0  0  0  0
   11.2084  -13.2061  -11.3582 H   0  0  0  0  0  0  0  0  0  0  0  0
   10.5219  -14.2217  -12.6713 H   0  0  0  0  0  0  0  0  0  0  0  0
   10.2462  -12.4467  -12.6713 H   0  0  0  0  0  0  0  0  0  0  0  0
    8.3810  -13.9110  -11.8590 H   0  0  0  0  0  0  0  0  0  0  0  0
    9.6420  -15.4972  -10.5324 H   0  0  0  0  0  0  0  0  0  0  0  0
   10.0383  -14.1476   -9.3996 H   0  0  0  0  0  0  0  0  0  0  0  0
    7.2663  -15.2991  -10.0186 H   0  0  0  0  0  0  0  0  0  0  0  0
    8.1812  -15.3865   -8.4604 H   0  0  0  0  0  0  0  0  0  0  0  0
    5.3601  -11.8128   -8.5186 H   0  0  0  0  0  0  0  0  0  0  0  0
    3.7086  -11.8832   -6.6755 H   0  0  0  0  0  0  0  0  0  0  0  0
    2.6700  -14.0330   -4.9350 H   0  0  0  0  0  0  0  0  0  0  0  0
    1.5941  -12.2058   -0.9630 H   0  0  0  0  0  0  0  0  0  0  0  0
    3.7694  -11.9145    0.1812 H   0  0  0  0  0  0  0  0  0  0  0  0
    7.1796  -13.1526   -2.8473 H   0  0  0  0  0  0  0  0  0  0  0  0
    9.4907  -12.9657   -1.9566 H   0  0  0  0  0  0  0  0  0  0  0  0
   10.9680  -11.7120   -1.4220 H   0  0  0  0  0  0  0  0  0  0  0  0
   12.8411  -12.4009    0.7659 H   0  0  0  0  0  0  0  0  0  0  0  0
   13.2471  -11.9911   -0.9525 H   0  0  0  0  0  0  0  0  0  0  0  0
    7.9235  -11.5472    1.8145 H   0  0  0  0  0  0  0  0  0  0  0  0
    5.6087  -11.7340    0.9183 H   0  0  0  0  0  0  0  0  0  0  0  0
    5.6052  -15.4059   -5.0998 H   0  0  0  0  0  0  0  0  0  0  0  0
    7.2535  -15.3434   -6.9487 H   0  0  0  0  0  0  0  0  0  0  0  0
    6.4683  -12.7369  -10.6595 H   0  0  0  0  0  0  0  0  0  0  0  0
    6.9590  -11.5104   -9.4245 H   0  0  0  0  0  0  0  0  0  0  0  0
    8.4077  -11.5122  -11.5018 H   0  0  0  0  0  0  0  0  0  0  0  0
    9.3070  -11.8097   -9.9657 H   0  0  0  0  0  0  0  0  0  0  0  0
  1  2  1  0
  2  3  1  0
  3  4  1  0
  4  5  1  0
  5  6  1  0
  6  7  2  0
  7  8  1  0
  8  9  2  0
  9 10  1  0
 10 11  1  0
 11 12  2  0
 12 13  1  0
 13 14  2  0
 14 15  1  0
 15 16  1  0
 16 17  2  0
 17 18  1  0
 18 19  2  0
 19 20  1  0
 20 21  2  0
 20 22  1  0
 22 23  1  0
 23 24  1  0
 24 25  3  0
 19 26  1  0
 26 27  2  0
 15 28  2  0
  9 29  1  0
 29 30  2  0
  5 31  1  0
 31 32  1  0
 32  2  1  0
 30  6  1  0
 28 11  1  0
 27 16  1  0
  1 33  1  0
  1 34  1  0
  1 35  1  0
  2 36  1  0
  3 37  1  0
  3 38  1  0
  4 39  1  0
  4 40  1  0
  7 41  1  0
  8 42  1  0
 10 43  1  0
 13 44  1  0
 14 45  1  0
 17 46  1  0
 18 47  1  0
 22 48  1  0
 23 49  1  0
 23 50  1  0
 26 51  1  0
 27 52  1  0
 29 53  1  0
 30 54  1  0
 31 55  1  0
 31 56  1  0
 32 57  1  0
 32 58  1  0
M  CHG  1   2   1
M  END
>  <meeko>  (4) 
{"is_sidechain": [false], "free_energy": -7.762, "intermolecular_energy": -10.396, "internal_energy": -0.85}

$$$$
LIB_JWNVJLOTJWLIAA__M_PUB_ALL__e8__s20260927
     RDKit          3D

 58 61  0  0  0  0  0  0  0  0999 V2000
   15.2100  -14.4330  -10.3210 C   0  0  0  0  0  0  0  0  0  0  0  0
   14.7260  -14.3280   -8.9080 N   0  0  0  0  0  0  0  0  0  0  0  0
   13.2060  -14.2160   -8.8270 C   0  0  0  0  0  0  0  0  0  0  0  0
   12.7490  -14.0280   -7.3670 C   0  0  0  0  0  0  0  0  0  0  0  0
   13.3210  -15.0670   -6.4920 N   0  0  0  0  0  0  0  0  0  0  0  0
   12.6690  -15.3020   -5.2810 C   0  0  0  0  0  0  0  0  0  0  0  0
   11.4830  -16.0450   -5.2400 C   0  0  0  0  0  0  0  0  0  0  0  0
   10.8120  -16.2940   -4.0340 C   0  0  0  0  0  0  0  0  0  0  0  0
   11.2990  -15.8160   -2.8130 C   0  0  0  0  0  0  0  0  0  0  0  0
   10.5830  -16.0940   -1.6470 N   0  0  0  0  0  0  0  0  0  0  0  0
    9.2420  -16.0100   -1.2870 C   0  0  0  0  0  0  0  0  0  0  0  0
    8.3950  -17.0340   -1.4430 N   0  0  0  0  0  0  0  0  0  0  0  0
    7.1210  -16.8400   -1.0590 C   0  0  0  0  0  0  0  0  0  0  0  0
    6.6580  -15.6620   -0.5300 C   0  0  0  0  0  0  0  0  0  0  0  0
    7.5870  -14.6500   -0.4020 C   0  0  0  0  0  0  0  0  0  0  0  0
    7.2590  -13.3210    0.1540 C   0  0  0  0  0  0  0  0  0  0  0  0
    8.2530  -12.3340    0.2840 C   0  0  0  0  0  0  0  0  0  0  0  0
    7.9670  -11.0690    0.8070 C   0  0  0  0  0  0  0  0  0  0  0  0
    6.6690  -10.7570    1.2230 C   0  0  0  0  0  0  0  0  0  0  0  0
    6.4150   -9.3960    1.7700 C   0  0  0  0  0  0  0  0  0  0  0  0
    5.3950   -9.1680    2.4110 O   0  0  0  0  0  0  0  0  0  0  0  0
    7.3520   -8.4290    1.4890 N   0  0  0  0  0  0  0  0  0  0  0  0
    7.1570   -7.0540    1.9180 C   0  0  0  0  0  0  0  0  0  0  0  0
    7.5510   -6.8620    3.3230 C   0  0  0  0  0  0  0  0  0  0  0  0
    7.8260   -6.7310    4.4430 N   0  0  0  0  0  0  0  0  0  0  0  0
    5.6580  -11.7120    1.0830 C   0  0  0  0  0  0  0  0  0  0  0  0
    5.9540  -12.9780    0.5580 C   0  0  0  0  0  0  0  0  0  0  0  0
    8.8760  -14.8250   -0.7740 N   0  0  0  0  0  0  0  0  0  0  0  0
   12.4850  -15.0850   -2.8470 C   0  0  0  0  0  0  0  0  0  0  0  0
   13.1580  -14.8370   -4.0550 C   0  0  0  0  0  0  0  0  0  0  0  0
   14.7710  -15.2970   -6.5810 C   0  0  0  0  0  0  0  0  0  0  0  0
   15.2140  -15.4880   -8.0450 C   0  0  0  0  0  0  0  0  0  0  0  0
   16.2850  -14.6662  -10.3240 H   0  0  0  0  0  0  0  0  0  0  0  0
   14.6599  -15.2327  -10.8385 H   0  0  0  0  0  0  0  0  0  0  0  0
   15.0407  -13.4772  -10.8385 H   0  0  0  0  0  0  0  0  0  0  0  0
   15.1140  -13.4660   -8.5040 H   0  0  0  0  0  0  0  0  0  0  0  0
   12.8756  -13.3522   -9.4226 H   0  0  0  0  0  0  0  0  0  0  0  0
   12.7624  -15.1430   -9.2191 H   0  0  0  0  0  0  0  0  0  0  0  0
   13.0772  -13.0397   -7.0126 H   0  0  0  0  0  0  0  0  0  0  0  0
   11.6525  -14.1078   -7.3320 H   0  0  0  0  0  0  0  0  0  0  0  0
   11.0671  -16.4434   -6.1772 H   0  0  0  0  0  0  0  0  0  0  0  0
    9.8806  -16.8791   -4.0486 H   0  0  0  0  0  0  0  0  0  0  0  0
   11.1050  -16.4370   -0.8530 H   0  0  0  0  0  0  0  0  0  0  0  0
    6.4108  -17.6719   -1.1755 H   0  0  0  0  0  0  0  0  0  0  0  0
    5.6088  -15.5320   -0.2261 H   0  0  0  0  0  0  0  0  0  0  0  0
    9.2809  -12.5630   -0.0337 H   0  0  0  0  0  0  0  0  0  0  0  0
    8.7655  -10.3172    0.8914 H   0  0  0  0  0  0  0  0  0  0  0  0
    8.1140   -8.6210    0.8540 H   0  0  0  0  0  0  0  0  0  0  0  0
    7.7653   -6.3927    1.2834 H   0  0  0  0  0  0  0  0  0  0  0  0
    6.0875   -6.8139    1.8255 H   0  0  0  0  0  0  0  0  0  0  0  0
    4.6284  -11.4699    1.3852 H   0  0  0  0  0  0  0  0  0  0  0  0
    5.1484  -13.7205    0.4594 H   0  0  0  0  0  0  0  0  0  0  0  0
   12.9032  -14.6938   -1.9078 H   0  0  0  0  0  0  0  0  0  0  0  0
   14.0952  -14.2614   -4.0367 H   0  0  0  0  0  0  0  0  0  0  0  0
   15.2989  -14.4305   -6.1561 H   0  0  0  0  0  0  0  0  0  0  0  0
   15.0147  -16.2114   -6.0202 H   0  0  0  0  0  0  0  0  0  0  0  0
   16.3122  -15.5336   -8.0876 H   0  0  0  0  0  0  0  0  0  0  0  0
   14.7799  -16.4232   -8.4284 H   0  0  0  0  0  0  0  0  0  0  0  0
  1  2  1  0
  2  3  1  0
  3  4  1  0
  4  5  1  0
  5  6  1  0
  6  7  2  0
  7  8  1  0
  8  9  2  0
  9 10  1  0
 10 11  1  0
 11 12  2  0
 12 13  1  0
 13 14  2  0
 14 15  1  0
 15 16  1  0
 16 17  2  0
 17 18  1  0
 18 19  2  0
 19 20  1  0
 20 21  2  0
 20 22  1  0
 22 23  1  0
 23 24  1  0
 24 25  3  0
 19 26  1  0
 26 27  2  0
 15 28  2  0
  9 29  1  0
 29 30  2  0
  5 31  1  0
 31 32  1  0
 32  2  1  0
 30  6  1  0
 28 11  1  0
 27 16  1  0
  1 33  1  0
  1 34  1  0
  1 35  1  0
  2 36  1  0
  3 37  1  0
  3 38  1  0
  4 39  1  0
  4 40  1  0
  7 41  1  0
  8 42  1  0
 10 43  1  0
 13 44  1  0
 14 45  1  0
 17 46  1  0
 18 47  1  0
 22 48  1  0
 23 49  1  0
 23 50  1  0
 26 51  1  0
 27 52  1  0
 29 53  1  0
 30 54  1  0
 31 55  1  0
 31 56  1  0
 32 57  1  0
 32 58  1  0
M  CHG  1   2   1
M  END
>  <meeko>  (5) 
{"is_sidechain": [false], "free_energy": -7.583, "intermolecular_energy": -10.232, "internal_energy": -0.773}

$$$$
LIB_JWNVJLOTJWLIAA__M_PUB_ALL__e8__s20260927
     RDKit          3D

 58 61  0  0  0  0  0  0  0  0999 V2000
   20.8990  -20.9110    7.1770 C   0  0  0  0  0  0  0  0  0  0  0  0
   19.8260  -20.0990    7.8330 N   0  0  0  0  0  0  0  0  0  0  0  0
   18.4590  -20.7710    7.7410 C   0  0  0  0  0  0  0  0  0  0  0  0
   17.3650  -19.8730    8.3540 C   0  0  0  0  0  0  0  0  0  0  0  0
   17.7320  -19.4420    9.7150 N   0  0  0  0  0  0  0  0  0  0  0  0
   16.6930  -19.0220   10.5450 C   0  0  0  0  0  0  0  0  0  0  0  0
   15.3630  -19.3440   10.2450 C   0  0  0  0  0  0  0  0  0  0  0  0
   14.3030  -18.9320   11.0670 C   0  0  0  0  0  0  0  0  0  0  0  0
   14.5240  -18.1850   12.2290 C   0  0  0  0  0  0  0  0  0  0  0  0
   13.4280  -17.8020   13.0020 N   0  0  0  0  0  0  0  0  0  0  0  0
   12.4390  -16.8320   12.8740 C   0  0  0  0  0  0  0  0  0  0  0  0
   11.1350  -17.1350   12.8760 N   0  0  0  0  0  0  0  0  0  0  0  0
   10.2680  -16.1170   12.7450 C   0  0  0  0  0  0  0  0  0  0  0  0
   10.6500  -14.8060   12.6080 C   0  0  0  0  0  0  0  0  0  0  0  0
   12.0100  -14.5700   12.6100 C   0  0  0  0  0  0  0  0  0  0  0  0
   12.5920  -13.2180   12.4780 C   0  0  0  0  0  0  0  0  0  0  0  0
   13.6420  -12.9770   11.5730 C   0  0  0  0  0  0  0  0  0  0  0  0
   14.2100  -11.7070   11.4310 C   0  0  0  0  0  0  0  0  0  0  0  0
   13.7420  -10.6360   12.1980 C   0  0  0  0  0  0  0  0  0  0  0  0
   14.3770   -9.3030   12.0070 C   0  0  0  0  0  0  0  0  0  0  0  0
   14.0100   -8.5690   11.0970 O   0  0  0  0  0  0  0  0  0  0  0  0
   15.3960   -8.9720   12.8700 N   0  0  0  0  0  0  0  0  0  0  0  0
   16.1250   -7.7240   12.7180 C   0  0  0  0  0  0  0  0  0  0  0  0
   17.4810   -7.9480   12.1880 C   0  0  0  0  0  0  0  0  0  0  0  0
   18.5610   -8.1390   11.8080 N   0  0  0  0  0  0  0  0  0  0  0  0
   12.6830  -10.8440   13.0870 C   0  0  0  0  0  0  0  0  0  0  0  0
   12.1200  -12.1210   13.2240 C   0  0  0  0  0  0  0  0  0  0  0  0
   12.9010  -15.5780   12.7480 N   0  0  0  0  0  0  0  0  0  0  0  0
   15.8470  -17.8710   12.5370 C   0  0  0  0  0  0  0  0  0  0  0  0
   16.9080  -18.2840   11.7150 C   0  0  0  0  0  0  0  0  0  0  0  0
   19.0730  -18.8680    9.9000 C   0  0  0  0  0  0  0  0  0  0  0  0
   20.1560  -19.7770    9.2870 C   0  0  0  0  0  0  0  0  0  0  0  0
   21.5242  -21.3841    7.9485 H   0  0  0  0  0  0  0  0  0  0  0  0
   20.4386  -21.6890    6.5502 H   0  0  0  0  0  0  0  0  0  0  0  0
   21.5226  -20.2566    6.5502 H   0  0  0  0  0  0  0  0  0  0  0  0
   19.7550  -19.2040    7.3330 H   0  0  0  0  0  0  0  0  0  0  0  0
   18.2203  -20.9597    6.6839 H   0  0  0  0  0  0  0  0  0  0  0  0
   18.4929  -21.7174    8.3006 H   0  0  0  0  0  0  0  0  0  0  0  0
   17.2326  -18.9843    7.7194 H   0  0  0  0  0  0  0  0  0  0  0  0
   16.4306  -20.4507    8.4109 H   0  0  0  0  0  0  0  0  0  0  0  0
   15.1443  -19.9343    9.3429 H   0  0  0  0  0  0  0  0  0  0  0  0
   13.2732  -19.2030   10.7910 H   0  0  0  0  0  0  0  0  0  0  0  0
   13.2650  -18.3090   13.8610 H   0  0  0  0  0  0  0  0  0  0  0  0
    9.1923  -16.3471   12.7477 H   0  0  0  0  0  0  0  0  0  0  0  0
    9.9169  -13.9927   12.5030 H   0  0  0  0  0  0  0  0  0  0  0  0
   14.0254  -13.8077   10.9623 H   0  0  0  0  0  0  0  0  0  0  0  0
   15.0283  -11.5501   10.7129 H   0  0  0  0  0  0  0  0  0  0  0  0
   15.7540   -9.6520   13.5260 H   0  0  0  0  0  0  0  0  0  0  0  0
   15.5743   -7.0713   12.0247 H   0  0  0  0  0  0  0  0  0  0  0  0
   16.2165   -7.2566   13.7095 H   0  0  0  0  0  0  0  0  0  0  0  0
   12.2909  -10.0045   13.6799 H   0  0  0  0  0  0  0  0  0  0  0  0
   11.2902  -12.2692   13.9308 H   0  0  0  0  0  0  0  0  0  0  0  0
   16.0644  -17.2871   13.4435 H   0  0  0  0  0  0  0  0  0  0  0  0
   17.9375  -18.0201   11.9986 H   0  0  0  0  0  0  0  0  0  0  0  0
   19.1125  -17.8830    9.4119 H   0  0  0  0  0  0  0  0  0  0  0  0
   19.2664  -18.7734   10.9787 H   0  0  0  0  0  0  0  0  0  0  0  0
   21.1275  -19.2630    9.3320 H   0  0  0  0  0  0  0  0  0  0  0  0
   20.1959  -20.7162    9.8582 H   0  0  0  0  0  0  0  0  0  0  0  0
  1  2  1  0
  2  3  1  0
  3  4  1  0
  4  5  1  0
  5  6  1  0
  6  7  2  0
  7  8  1  0
  8  9  2  0
  9 10  1  0
 10 11  1  0
 11 12  2  0
 12 13  1  0
 13 14  2  0
 14 15  1  0
 15 16  1  0
 16 17  2  0
 17 18  1  0
 18 19  2  0
 19 20  1  0
 20 21  2  0
 20 22  1  0
 22 23  1  0
 23 24  1  0
 24 25  3  0
 19 26  1  0
 26 27  2  0
 15 28  2  0
  9 29  1  0
 29 30  2  0
  5 31  1  0
 31 32  1  0
 32  2  1  0
 30  6  1  0
 28 11  1  0
 27 16  1  0
  1 33  1  0
  1 34  1  0
  1 35  1  0
  2 36  1  0
  3 37  1  0
  3 38  1  0
  4 39  1  0
  4 40  1  0
  7 41  1  0
  8 42  1  0
 10 43  1  0
 13 44  1  0
 14 45  1  0
 17 46  1  0
 18 47  1  0
 22 48  1  0
 23 49  1  0
 23 50  1  0
 26 51  1  0
 27 52  1  0
 29 53  1  0
 30 54  1  0
 31 55  1  0
 31 56  1  0
 32 57  1  0
 32 58  1  0
M  CHG  1   2   1
M  END
>  <meeko>  (6) 
{"is_sidechain": [false], "free_energy": -7.537, "intermolecular_energy": -10.071, "internal_energy": -0.871}

$$$$
LIB_JWNVJLOTJWLIAA__M_PUB_ALL__e8__s20260927
     RDKit          3D

 58 61  0  0  0  0  0  0  0  0999 V2000
   -3.8420  -17.3130    4.4190 C   0  0  0  0  0  0  0  0  0  0  0  0
   -2.6820  -16.9160    3.5600 N   0  0  0  0  0  0  0  0  0  0  0  0
   -2.3770  -17.9570    2.4870 C   0  0  0  0  0  0  0  0  0  0  0  0
   -1.1300  -17.5550    1.6750 C   0  0  0  0  0  0  0  0  0  0  0  0
   -1.2510  -16.1800    1.1590 N   0  0  0  0  0  0  0  0  0  0  0  0
   -0.4490  -15.8410    0.0690 C   0  0  0  0  0  0  0  0  0  0  0  0
    0.9360  -16.0420    0.1110 C   0  0  0  0  0  0  0  0  0  0  0  0
    1.7610  -15.7100   -0.9740 C   0  0  0  0  0  0  0  0  0  0  0  0
    1.2390  -15.1660   -2.1520 C   0  0  0  0  0  0  0  0  0  0  0  0
    2.1120  -14.8520   -3.1950 N   0  0  0  0  0  0  0  0  0  0  0  0
    2.8360  -13.7180   -3.5480 C   0  0  0  0  0  0  0  0  0  0  0  0
    2.3220  -12.7520   -4.3180 N   0  0  0  0  0  0  0  0  0  0  0  0
    3.1130  -11.7020   -4.5950 C   0  0  0  0  0  0  0  0  0  0  0  0
    4.4010  -11.5790   -4.1370 C   0  0  0  0  0  0  0  0  0  0  0  0
    4.8650  -12.6140   -3.3520 C   0  0  0  0  0  0  0  0  0  0  0  0
    6.2250  -12.6400   -2.7730 C   0  0  0  0  0  0  0  0  0  0  0  0
    6.5370  -13.5170   -1.7180 C   0  0  0  0  0  0  0  0  0  0  0  0
    7.8160  -13.5580   -1.1540 C   0  0  0  0  0  0  0  0  0  0  0  0
    8.8230  -12.7130   -1.6290 C   0  0  0  0  0  0  0  0  0  0  0  0
   10.1680  -12.7980   -0.9970 C   0  0  0  0  0  0  0  0  0  0  0  0
   10.3770  -13.5980   -0.0930 O   0  0  0  0  0  0  0  0  0  0  0  0
   11.1240  -11.9210   -1.4550 N   0  0  0  0  0  0  0  0  0  0  0  0
   12.4460  -11.8770   -0.8520 C   0  0  0  0  0  0  0  0  0  0  0  0
   12.6260  -10.6730   -0.0240 C   0  0  0  0  0  0  0  0  0  0  0  0
   12.7710   -9.7000    0.5930 N   0  0  0  0  0  0  0  0  0  0  0  0
    8.5450  -11.8490   -2.6920 C   0  0  0  0  0  0  0  0  0  0  0  0
    7.2600  -11.8140   -3.2520 C   0  0  0  0  0  0  0  0  0  0  0  0
    4.0840  -13.6790   -3.0540 N   0  0  0  0  0  0  0  0  0  0  0  0
   -0.1410  -14.9730   -2.2020 C   0  0  0  0  0  0  0  0  0  0  0  0
   -0.9670  -15.3080   -1.1170 C   0  0  0  0  0  0  0  0  0  0  0  0
   -1.6340  -15.1330    2.1190 C   0  0  0  0  0  0  0  0  0  0  0  0
   -2.8840  -15.5460    2.9200 C   0  0  0  0  0  0  0  0  0  0  0  0
   -3.5631  -17.2175    5.4788 H   0  0  0  0  0  0  0  0  0  0  0  0
   -4.6985  -16.6568    4.2047 H   0  0  0  0  0  0  0  0  0  0  0  0
   -4.1168  -18.3563    4.2047 H   0  0  0  0  0  0  0  0  0  0  0  0
   -1.8510  -16.8500    4.1610 H   0  0  0  0  0  0  0  0  0  0  0  0
   -2.1961  -18.9293    2.9686 H   0  0  0  0  0  0  0  0  0  0  0  0
   -3.2369  -18.0228    1.8042 H   0  0  0  0  0  0  0  0  0  0  0  0
   -0.2437  -17.6183    2.3235 H   0  0  0  0  0  0  0  0  0  0  0  0
   -1.0347  -18.2408    0.8203 H   0  0  0  0  0  0  0  0  0  0  0  0
    1.3885  -16.4709    1.0173 H   0  0  0  0  0  0  0  0  0  0  0  0
    2.8447  -15.8817   -0.8964 H   0  0  0  0  0  0  0  0  0  0  0  0
    2.2980  -15.5730   -3.8770 H   0  0  0  0  0  0  0  0  0  0  0  0
    2.7059  -10.8963   -5.2236 H   0  0  0  0  0  0  0  0  0  0  0  0
    5.0258  -10.7073   -4.3813 H   0  0  0  0  0  0  0  0  0  0  0  0
    5.7563  -14.1863   -1.3275 H   0  0  0  0  0  0  0  0  0  0  0  0
    8.0305  -14.2581   -0.3331 H   0  0  0  0  0  0  0  0  0  0  0  0
   10.8810  -11.1930   -2.1120 H   0  0  0  0  0  0  0  0  0  0  0  0
   12.5797  -12.7675   -0.2203 H   0  0  0  0  0  0  0  0  0  0  0  0
   13.1915  -11.8523   -1.6605 H   0  0  0  0  0  0  0  0  0  0  0  0
    9.3354  -11.1956   -3.0898 H   0  0  0  0  0  0  0  0  0  0  0  0
    7.0556  -11.1252   -4.0850 H   0  0  0  0  0  0  0  0  0  0  0  0
   -0.5924  -14.5491   -3.1111 H   0  0  0  0  0  0  0  0  0  0  0  0
   -2.0519  -15.1470   -1.2015 H   0  0  0  0  0  0  0  0  0  0  0  0
   -0.8005  -14.9625    2.8163 H   0  0  0  0  0  0  0  0  0  0  0  0
   -1.8646  -14.2139    1.5604 H   0  0  0  0  0  0  0  0  0  0  0  0
   -3.0702  -14.8022    3.7088 H   0  0  0  0  0  0  0  0  0  0  0  0
   -3.7435  -15.5972    2.2354 H   0  0  0  0  0  0  0  0  0  0  0  0
  1  2  1  0
  2  3  1  0
  3  4  1  0
  4  5  1  0
  5  6  1  0
  6  7  2  0
  7  8  1  0
  8  9  2  0
  9 10  1  0
 10 11  1  0
 11 12  2  0
 12 13  1  0
 13 14  2  0
 14 15  1  0
 15 16  1  0
 16 17  2  0
 17 18  1  0
 18 19  2  0
 19 20  1  0
 20 21  2  0
 20 22  1  0
 22 23  1  0
 23 24  1  0
 24 25  3  0
 19 26  1  0
 26 27  2  0
 15 28  2  0
  9 29  1  0
 29 30  2  0
  5 31  1  0
 31 32  1  0
 32  2  1  0
 30  6  1  0
 28 11  1  0
 27 16  1  0
  1 33  1  0
  1 34  1  0
  1 35  1  0
  2 36  1  0
  3 37  1  0
  3 38  1  0
  4 39  1  0
  4 40  1  0
  7 41  1  0
  8 42  1  0
 10 43  1  0
 13 44  1  0
 14 45  1  0
 17 46  1  0
 18 47  1  0
 22 48  1  0
 23 49  1  0
 23 50  1  0
 26 51  1  0
 27 52  1  0
 29 53  1  0
 30 54  1  0
 31 55  1  0
 31 56  1  0
 32 57  1  0
 32 58  1  0
M  CHG  1   2   1
M  END
>  <meeko>  (7) 
{"is_sidechain": [false], "free_energy": -7.524, "intermolecular_energy": -10.1, "internal_energy": -0.825}

$$$$
LIB_JWNVJLOTJWLIAA__M_PUB_ALL__e8__s20260927
     RDKit          3D

 58 61  0  0  0  0  0  0  0  0999 V2000
   14.4460  -15.2900  -10.8220 C   0  0  0  0  0  0  0  0  0  0  0  0
   14.3220  -14.8270   -9.4040 N   0  0  0  0  0  0  0  0  0  0  0  0
   12.8670  -14.6270   -8.9880 C   0  0  0  0  0  0  0  0  0  0  0  0
   12.7790  -14.0740   -7.5520 C   0  0  0  0  0  0  0  0  0  0  0  0
   13.5620  -14.8990   -6.6150 N   0  0  0  0  0  0  0  0  0  0  0  0
   13.2310  -14.8070   -5.2630 C   0  0  0  0  0  0  0  0  0  0  0  0
   13.3580  -13.5930   -4.5770 C   0  0  0  0  0  0  0  0  0  0  0  0
   13.0300  -13.4770   -3.2180 C   0  0  0  0  0  0  0  0  0  0  0  0
   12.5540  -14.5690   -2.4850 C   0  0  0  0  0  0  0  0  0  0  0  0
   12.2480  -14.3920   -1.1340 N   0  0  0  0  0  0  0  0  0  0  0  0
   11.6670  -13.3660   -0.3960 C   0  0  0  0  0  0  0  0  0  0  0  0
   12.3950  -12.4260    0.2190 N   0  0  0  0  0  0  0  0  0  0  0  0
   11.7270  -11.4830    0.9040 C   0  0  0  0  0  0  0  0  0  0  0  0
   10.3590  -11.4420    1.0040 C   0  0  0  0  0  0  0  0  0  0  0  0
    9.6740  -12.4450    0.3480 C   0  0  0  0  0  0  0  0  0  0  0  0
    8.2000  -12.5470    0.3480 C   0  0  0  0  0  0  0  0  0  0  0  0
    7.5420  -13.3970   -0.5590 C   0  0  0  0  0  0  0  0  0  0  0  0
    6.1480  -13.5100   -0.5790 C   0  0  0  0  0  0  0  0  0  0  0  0
    5.3690  -12.7670    0.3130 C   0  0  0  0  0  0  0  0  0  0  0  0
    3.8900  -12.9250    0.2550 C   0  0  0  0  0  0  0  0  0  0  0  0
    3.3950  -13.9430   -0.2150 O   0  0  0  0  0  0  0  0  0  0  0  0
    3.1350  -11.8710    0.7160 N   0  0  0  0  0  0  0  0  0  0  0  0
    1.6840  -11.9020    0.6340 C   0  0  0  0  0  0  0  0  0  0  0  0
    1.1060  -10.5510    0.7340 C   0  0  0  0  0  0  0  0  0  0  0  0
    0.6590   -9.4860    0.8540 N   0  0  0  0  0  0  0  0  0  0  0  0
    6.0000  -11.9330    1.2400 C   0  0  0  0  0  0  0  0  0  0  0  0
    7.3980  -11.8250    1.2520 C   0  0  0  0  0  0  0  0  0  0  0  0
   10.3260  -13.4010   -0.3540 N   0  0  0  0  0  0  0  0  0  0  0  0
   12.4160  -15.7770   -3.1660 C   0  0  0  0  0  0  0  0  0  0  0  0
   12.7430  -15.8920   -4.5270 C   0  0  0  0  0  0  0  0  0  0  0  0
   14.9490  -15.2120   -6.9920 C   0  0  0  0  0  0  0  0  0  0  0  0
   15.0220  -15.7680   -8.4280 C   0  0  0  0  0  0  0  0  0  0  0  0
   14.7305  -16.3525  -10.8373 H   0  0  0  0  0  0  0  0  0  0  0  0
   13.4817  -15.1613  -11.3354 H   0  0  0  0  0  0  0  0  0  0  0  0
   15.2169  -14.6966  -11.3354 H   0  0  0  0  0  0  0  0  0  0  0  0
   14.7850  -13.9130   -9.3270 H   0  0  0  0  0  0  0  0  0  0  0  0
   12.3891  -13.9160   -9.6781 H   0  0  0  0  0  0  0  0  0  0  0  0
   12.3535  -15.5992   -9.0234 H   0  0  0  0  0  0  0  0  0  0  0  0
   13.1705  -13.0461   -7.5386 H   0  0  0  0  0  0  0  0  0  0  0  0
   11.7256  -14.0917   -7.2356 H   0  0  0  0  0  0  0  0  0  0  0  0
   13.7243  -12.7077   -5.1175 H   0  0  0  0  0  0  0  0  0  0  0  0
   13.1499  -12.5049   -2.7173 H   0  0  0  0  0  0  0  0  0  0  0  0
   12.4780  -15.1460   -0.5030 H   0  0  0  0  0  0  0  0  0  0  0  0
   12.3088  -10.7004    1.4129 H   0  0  0  0  0  0  0  0  0  0  0  0
    9.8394  -10.6569    1.5728 H   0  0  0  0  0  0  0  0  0  0  0  0
    8.1383  -13.9875   -1.2701 H   0  0  0  0  0  0  0  0  0  0  0  0
    5.6630  -14.1857   -1.2989 H   0  0  0  0  0  0  0  0  0  0  0  0
    3.5750  -11.0010    0.9790 H   0  0  0  0  0  0  0  0  0  0  0  0
    1.3903  -12.3455   -0.3289 H   0  0  0  0  0  0  0  0  0  0  0  0
    1.3048  -12.5014    1.4748 H   0  0  0  0  0  0  0  0  0  0  0  0
    5.3989  -11.3602    1.9615 H   0  0  0  0  0  0  0  0  0  0  0  0
    7.8792  -11.1606    1.9849 H   0  0  0  0  0  0  0  0  0  0  0  0
   12.0429  -16.6596   -2.6258 H   0  0  0  0  0  0  0  0  0  0  0  0
   12.6117  -16.8623   -5.0283 H   0  0  0  0  0  0  0  0  0  0  0  0
   15.5536  -14.2951   -6.9306 H   0  0  0  0  0  0  0  0  0  0  0  0
   15.3347  -15.9764   -6.3014 H   0  0  0  0  0  0  0  0  0  0  0  0
   16.0768  -15.8740   -8.7215 H   0  0  0  0  0  0  0  0  0  0  0  0
   14.5193  -16.7460   -8.4558 H   0  0  0  0  0  0  0  0  0  0  0  0
  1  2  1  0
  2  3  1  0
  3  4  1  0
  4  5  1  0
  5  6  1  0
  6  7  2  0
  7  8  1  0
  8  9  2  0
  9 10  1  0
 10 11  1  0
 11 12  2  0
 12 13  1  0
 13 14  2  0
 14 15  1  0
 15 16  1  0
 16 17  2  0
 17 18  1  0
 18 19  2  0
 19 20  1  0
 20 21  2  0
 20 22  1  0
 22 23  1  0
 23 24  1  0
 24 25  3  0
 19 26  1  0
 26 27  2  0
 15 28  2  0
  9 29  1  0
 29 30  2  0
  5 31  1  0
 31 32  1  0
 32  2  1  0
 30  6  1  0
 28 11  1  0
 27 16  1  0
  1 33  1  0
  1 34  1  0
  1 35  1  0
  2 36  1  0
  3 37  1  0
  3 38  1  0
  4 39  1  0
  4 40  1  0
  7 41  1  0
  8 42  1  0
 10 43  1  0
 13 44  1  0
 14 45  1  0
 17 46  1  0
 18 47  1  0
 22 48  1  0
 23 49  1  0
 23 50  1  0
 26 51  1  0
 27 52  1  0
 29 53  1  0
 30 54  1  0
 31 55  1  0
 31 56  1  0
 32 57  1  0
 32 58  1  0
M  CHG  1   2   1
M  END
>  <meeko>  (8) 
{"is_sidechain": [false], "free_energy": -7.294, "intermolecular_energy": -9.825, "internal_energy": -0.789}

$$$$
LIB_JWNVJLOTJWLIAA__M_PUB_ALL__e8__s20260927
     RDKit          3D

 58 61  0  0  0  0  0  0  0  0999 V2000
   -2.6420  -18.6570    4.2110 C   0  0  0  0  0  0  0  0  0  0  0  0
   -1.5200  -18.1190    3.3790 N   0  0  0  0  0  0  0  0  0  0  0  0
   -2.0020  -17.6060    2.0250 C   0  0  0  0  0  0  0  0  0  0  0  0
   -0.8130  -17.1350    1.1640 C   0  0  0  0  0  0  0  0  0  0  0  0
    0.0330  -16.1800    1.9010 N   0  0  0  0  0  0  0  0  0  0  0  0
    0.8530  -15.3460    1.1410 C   0  0  0  0  0  0  0  0  0  0  0  0
    1.9960  -14.7640    1.7020 C   0  0  0  0  0  0  0  0  0  0  0  0
    2.8350  -13.9220    0.9560 C   0  0  0  0  0  0  0  0  0  0  0  0
    2.5720  -13.6290   -0.3860 C   0  0  0  0  0  0  0  0  0  0  0  0
    3.4420  -12.7810   -1.0740 N   0  0  0  0  0  0  0  0  0  0  0  0
    3.3700  -12.0790   -2.2720 C   0  0  0  0  0  0  0  0  0  0  0  0
    2.6010  -10.9940   -2.4200 N   0  0  0  0  0  0  0  0  0  0  0  0
    2.6090  -10.3940   -3.6230 C   0  0  0  0  0  0  0  0  0  0  0  0
    3.3520  -10.8380   -4.6880 C   0  0  0  0  0  0  0  0  0  0  0  0
    4.1180  -11.9640   -4.4630 C   0  0  0  0  0  0  0  0  0  0  0  0
    4.9800  -12.5710   -5.4990 C   0  0  0  0  0  0  0  0  0  0  0  0
    5.9460  -13.5330   -5.1510 C   0  0  0  0  0  0  0  0  0  0  0  0
    6.7740  -14.1210   -6.1130 C   0  0  0  0  0  0  0  0  0  0  0  0
    6.6600  -13.7560   -7.4570 C   0  0  0  0  0  0  0  0  0  0  0  0
    7.5620  -14.4130   -8.4430 C   0  0  0  0  0  0  0  0  0  0  0  0
    7.1680  -15.3720   -9.0970 O   0  0  0  0  0  0  0  0  0  0  0  0
    8.8390  -13.9130   -8.5450 N   0  0  0  0  0  0  0  0  0  0  0  0
    9.8150  -14.5320   -9.4260 C   0  0  0  0  0  0  0  0  0  0  0  0
    9.8510  -13.8760  -10.7440 C   0  0  0  0  0  0  0  0  0  0  0  0
    9.8430  -13.3760  -11.7920 N   0  0  0  0  0  0  0  0  0  0  0  0
    5.6920  -12.8200   -7.8320 C   0  0  0  0  0  0  0  0  0  0  0  0
    4.8660  -12.2350   -6.8610 C   0  0  0  0  0  0  0  0  0  0  0  0
    4.1300  -12.5800   -3.2580 N   0  0  0  0  0  0  0  0  0  0  0  0
    1.4400  -14.2130   -0.9510 C   0  0  0  0  0  0  0  0  0  0  0  0
    0.6010  -15.0570   -0.2050 C   0  0  0  0  0  0  0  0  0  0  0  0
    0.4620  -16.5670    3.2540 C   0  0  0  0  0  0  0  0  0  0  0  0
   -0.7360  -17.0300    4.1050 C   0  0  0  0  0  0  0  0  0  0  0  0
   -2.3971  -18.5395    5.2769 H   0  0  0  0  0  0  0  0  0  0  0  0
   -3.5651  -18.1036    3.9837 H   0  0  0  0  0  0  0  0  0  0  0  0
   -2.7884  -19.7233    3.9837 H   0  0  0  0  0  0  0  0  0  0  0  0
   -0.8660  -18.8900    3.1930 H   0  0  0  0  0  0  0  0  0  0  0  0
   -2.5296  -18.4156    1.4995 H   0  0  0  0  0  0  0  0  0  0  0  0
   -2.6773  -16.7536    2.1906 H   0  0  0  0  0  0  0  0  0  0  0  0
   -0.2064  -18.0081    0.8816 H   0  0  0  0  0  0  0  0  0  0  0  0
   -1.2084  -16.6318    0.2693 H   0  0  0  0  0  0  0  0  0  0  0  0
    2.2426  -14.9719    2.7537 H   0  0  0  0  0  0  0  0  0  0  0  0
    3.7204  -13.4821    1.4382 H   0  0  0  0  0  0  0  0  0  0  0  0
    4.3420  -12.5990   -0.6530 H   0  0  0  0  0  0  0  0  0  0  0  0
    1.9859   -9.4981   -3.7613 H   0  0  0  0  0  0  0  0  0  0  0  0
    3.3379  -10.3273   -5.6622 H   0  0  0  0  0  0  0  0  0  0  0  0
    6.0527  -13.8298   -4.0972 H   0  0  0  0  0  0  0  0  0  0  0  0
    7.5174  -14.8733   -5.8104 H   0  0  0  0  0  0  0  0  0  0  0  0
    9.1660  -13.2050   -7.9030 H   0  0  0  0  0  0  0  0  0  0  0  0
   10.8103  -14.4581   -8.9635 H   0  0  0  0  0  0  0  0  0  0  0  0
    9.5264  -15.5832   -9.5735 H   0  0  0  0  0  0  0  0  0  0  0  0
    5.5778  -12.5418   -8.8901 H   0  0  0  0  0  0  0  0  0  0  0  0
    4.1118  -11.4967   -7.1711 H   0  0  0  0  0  0  0  0  0  0  0  0
    1.1981  -14.0085   -2.0044 H   0  0  0  0  0  0  0  0  0  0  0  0
   -0.2785  -15.5032   -0.6922 H   0  0  0  0  0  0  0  0  0  0  0  0
    1.1885  -17.3895    3.1789 H   0  0  0  0  0  0  0  0  0  0  0  0
    0.9177  -15.6915    3.7396 H   0  0  0  0  0  0  0  0  0  0  0  0
   -0.3676  -17.4268    5.0625 H   0  0  0  0  0  0  0  0  0  0  0  0
   -1.4003  -16.1709    4.2801 H   0  0  0  0  0  0  0  0  0  0  0  0
  1  2  1  0
  2  3  1  0
  3  4  1  0
  4  5  1  0
  5  6  1  0
  6  7  2  0
  7  8  1  0
  8  9  2  0
  9 10  1  0
 10 11  1  0
 11 12  2  0
 12 13  1  0
 13 14  2  0
 14 15  1  0
 15 16  1  0
 16 17  2  0
 17 18  1  0
 18 19  2  0
 19 20  1  0
 20 21  2  0
 20 22  1  0
 22 23  1  0
 23 24  1  0
 24 25  3  0
 19 26  1  0
 26 27  2  0
 15 28  2  0
  9 29  1  0
 29 30  2  0
  5 31  1  0
 31 32  1  0
 32  2  1  0
 30  6  1  0
 28 11  1  0
 27 16  1  0
  1 33  1  0
  1 34  1  0
  1 35  1  0
  2 36  1  0
  3 37  1  0
  3 38  1  0
  4 39  1  0
  4 40  1  0
  7 41  1  0
  8 42  1  0
 10 43  1  0
 13 44  1  0
 14 45  1  0
 17 46  1  0
 18 47  1  0
 22 48  1  0
 23 49  1  0
 23 50  1  0
 26 51  1  0
 27 52  1  0
 29 53  1  0
 30 54  1  0
 31 55  1  0
 31 56  1  0
 32 57  1  0
 32 58  1  0
M  CHG  1   2   1
M  END
>  <meeko>  (9) 
{"is_sidechain": [false], "free_energy": -7.285, "intermolecular_energy": -9.796, "internal_energy": -0.805}

$$$$
