LIB_PPCDZYRDXIKRDW__M_PUB_ALL__e8__s20260927
     RDKit          3D

 85 90  0  0  0  0  0  0  0  0999 V2000
    7.1380  -12.5520   -4.5760 C   0  0  0  0  0  0  0  0  0  0  0  0
    5.9590  -12.5100   -3.6380 C   0  0  0  0  0  0  0  0  0  0  0  0
    4.8110  -11.8090   -4.0450 C   0  0  0  0  0  0  0  0  0  0  0  0
    3.6820  -11.7350   -3.2280 C   0  0  0  0  0  0  0  0  0  0  0  0
    3.6860  -12.3600   -1.9880 C   0  0  0  0  0  0  0  0  0  0  0  0
    2.5960  -12.3520   -1.0990 N   0  0  0  0  0  0  0  0  0  0  0  0
    1.4310  -13.0770   -1.1720 C   0  0  0  0  0  0  0  0  0  0  0  0
    1.1080  -13.9070   -2.0140 O   0  0  0  0  0  0  0  0  0  0  0  0
    0.5480  -12.8380   -0.0160 C   0  0  0  0  0  0  0  0  0  0  0  0
    0.3620  -13.6990    1.0870 C   0  0  0  0  0  0  0  0  0  0  0  0
   -0.3260  -12.9530    2.0290 C   0  0  0  0  0  0  0  0  0  0  0  0
   -0.5170  -13.2240    3.4690 C   0  0  0  0  0  0  0  0  0  0  0  0
   -0.1600  -14.6680    3.8590 N   0  0  0  0  0  0  0  0  0  0  0  0
    1.0450  -14.8060    4.7970 C   0  0  0  0  0  0  0  0  0  0  0  0
    0.6500  -15.2140    6.2390 C   0  0  0  0  0  0  0  0  0  0  0  0
   -0.1770  -16.5010    6.2790 N   0  0  0  0  0  0  0  0  0  0  0  0
    0.6180  -17.7000    6.7480 C   0  0  0  0  0  0  0  0  0  0  0  0
   -0.9580  -16.7980    5.0020 C   0  0  0  0  0  0  0  0  0  0  0  0
   -1.3770  -15.4990    4.2760 C   0  0  0  0  0  0  0  0  0  0  0  0
   -0.8430  -11.8900    1.3010 N   0  0  0  0  0  0  0  0  0  0  0  0
   -1.9750  -10.9740    1.5790 C   0  0  0  0  0  0  0  0  0  0  0  0
   -3.1770  -11.7520    2.1490 C   0  0  0  0  0  0  0  0  0  0  0  0
   -1.5390   -9.8620    2.5480 C   0  0  0  0  0  0  0  0  0  0  0  0
   -2.4740  -10.2880    0.2800 C   0  0  0  0  0  0  0  0  0  0  0  0
   -0.1090  -11.6860    0.1850 N   0  0  0  0  0  0  0  0  0  0  0  0
    4.8350  -13.0510   -1.5750 C   0  0  0  0  0  0  0  0  0  0  0  0
    5.9860  -13.1440   -2.3750 C   0  0  0  0  0  0  0  0  0  0  0  0
    7.1320  -13.8610   -1.9700 N   0  0  0  0  0  0  0  0  0  0  0  0
    8.3240  -13.4100   -1.4970 C   0  0  0  0  0  0  0  0  0  0  0  0
    9.4960  -13.4200   -2.0980 N   0  0  0  0  0  0  0  0  0  0  0  0
   10.3670  -12.8050   -1.2480 C   0  0  0  0  0  0  0  0  0  0  0  0
   11.7290  -12.5300   -1.4480 C   0  0  0  0  0  0  0  0  0  0  0  0
   12.4290  -11.8130   -0.4750 C   0  0  0  0  0  0  0  0  0  0  0  0
   11.7780  -11.3590    0.6670 C   0  0  0  0  0  0  0  0  0  0  0  0
   10.4220  -11.6310    0.8850 C   0  0  0  0  0  0  0  0  0  0  0  0
    9.7350  -12.4010   -0.0740 C   0  0  0  0  0  0  0  0  0  0  0  0
    8.4320  -12.8800   -0.1980 N   0  0  0  0  0  0  0  0  0  0  0  0
    7.3760  -12.8610    0.7760 C   0  0  0  0  0  0  0  0  0  0  0  0
    6.7120  -11.6870    1.0750 C   0  0  0  0  0  0  0  0  0  0  0  0
    5.7100  -11.7590    2.0190 C   0  0  0  0  0  0  0  0  0  0  0  0
    4.9670  -10.6440    2.3450 N   0  0  0  0  0  0  0  0  0  0  0  0
    5.3640  -12.9020    2.6170 N   0  0  0  0  0  0  0  0  0  0  0  0
    6.0790  -13.9820    2.2960 C   0  0  0  0  0  0  0  0  0  0  0  0
    7.0910  -14.0240    1.4160 N   0  0  0  0  0  0  0  0  0  0  0  0
    8.0698  -12.5852   -3.9924 H   0  0  0  0  0  0  0  0  0  0  0  0
    7.0703  -13.4483   -5.2101 H   0  0  0  0  0  0  0  0  0  0  0  0
    7.1343  -11.6532   -5.2101 H   0  0  0  0  0  0  0  0  0  0  0  0
    4.8022  -11.3097   -5.0251 H   0  0  0  0  0  0  0  0  0  0  0  0
    2.7920  -11.1835   -3.5652 H   0  0  0  0  0  0  0  0  0  0  0  0
    2.6770  -11.7510   -0.2820 H   0  0  0  0  0  0  0  0  0  0  0  0
    0.6940  -14.7437    1.1789 H   0  0  0  0  0  0  0  0  0  0  0  0
    0.1222  -12.5372    4.0431 H   0  0  0  0  0  0  0  0  0  0  0  0
   -1.5834  -13.0755    3.6941 H   0  0  0  0  0  0  0  0  0  0  0  0
    0.1630  -15.0600    2.9610 H   0  0  0  0  0  0  0  0  0  0  0  0
    1.7202  -15.5725    4.3889 H   0  0  0  0  0  0  0  0  0  0  0  0
    1.5289  -13.8199    4.8563 H   0  0  0  0  0  0  0  0  0  0  0  0
    1.5676  -15.3661    6.8263 H   0  0  0  0  0  0  0  0  0  0  0  0
    0.0311  -14.4063    6.6568 H   0  0  0  0  0  0  0  0  0  0  0  0
   -0.8730  -16.3560    7.0320 H   0  0  0  0  0  0  0  0  0  0  0  0
    0.6330  -17.7226    7.8477 H   0  0  0  0  0  0  0  0  0  0  0  0
    0.1509  -18.6208    6.3686 H   0  0  0  0  0  0  0  0  0  0  0  0
    1.6480  -17.6282    6.3686 H   0  0  0  0  0  0  0  0  0  0  0  0
   -0.3265  -17.3957    4.3282 H   0  0  0  0  0  0  0  0  0  0  0  0
   -1.8701  -17.3482    5.2766 H   0  0  0  0  0  0  0  0  0  0  0  0
   -1.9540  -15.7626    3.3774 H   0  0  0  0  0  0  0  0  0  0  0  0
   -1.9828  -14.8975    4.9697 H   0  0  0  0  0  0  0  0  0  0  0  0
   -3.1410  -11.7287    3.2482 H   0  0  0  0  0  0  0  0  0  0  0  0
   -4.1120  -11.2873    1.8028 H   0  0  0  0  0  0  0  0  0  0  0  0
   -3.1360  -12.7953    1.8028 H   0  0  0  0  0  0  0  0  0  0  0  0
   -1.6736  -10.2052    3.5844 H   0  0  0  0  0  0  0  0  0  0  0  0
   -0.4796   -9.6206    2.3763 H   0  0  0  0  0  0  0  0  0  0  0  0
   -2.1520   -8.9649    2.3763 H   0  0  0  0  0  0  0  0  0  0  0  0
   -3.1027   -9.4237    0.5401 H   0  0  0  0  0  0  0  0  0  0  0  0
   -1.6102   -9.9487   -0.3105 H   0  0  0  0  0  0  0  0  0  0  0  0
   -3.0629  -11.0053   -0.3105 H   0  0  0  0  0  0  0  0  0  0  0  0
    4.8346  -13.5378   -0.5886 H   0  0  0  0  0  0  0  0  0  0  0  0
    7.0410  -14.8760   -2.0450 H   0  0  0  0  0  0  0  0  0  0  0  0
   12.2387  -12.8749   -2.3597 H   0  0  0  0  0  0  0  0  0  0  0  0
   13.5006  -11.6064   -0.6127 H   0  0  0  0  0  0  0  0  0  0  0  0
   12.3385  -10.7757    1.4124 H   0  0  0  0  0  0  0  0  0  0  0  0
    9.9070  -11.2537    1.7808 H   0  0  0  0  0  0  0  0  0  0  0  0
    6.9710  -10.7382    0.5824 H   0  0  0  0  0  0  0  0  0  0  0  0
    4.2480  -10.7130    3.0510 H   0  0  0  0  0  0  0  0  0  0  0  0
    4.7680  -10.0480    1.5500 H   0  0  0  0  0  0  0  0  0  0  0  0
    5.8146  -14.9240    2.7988 H   0  0  0  0  0  0  0  0  0  0  0  0
  1  2  1  0
  2  3  2  0
  3  4  1  0
  4  5  2  0
  5  6  1  0
  6  7  1  0
  7  8  2  0
  7  9  1  0
  9 10  1  0
 10 11  2  0
 11 12  1  0
 12 13  1  0
 13 14  1  0
 14 15  1  0
 15 16  1  0
 16 17  1  0
 16 18  1  0
 18 19  1  0
 11 20  1  0
 20 21  1  0
 21 22  1  0
 21 23  1  0
 21 24  1  0
 20 25  1  0
  5 26  1  0
 26 27  2  0
 27 28  1  0
 28 29  1  0
 29 30  2  0
 30 31  1  0
 31 32  2  0
 32 33  1  0
 33 34  2  0
 34 35  1  0
 35 36  2  0
 36 37  1  0
 37 38  1  0
 38 39  2  0
 39 40  1  0
 40 41  1  0
 40 42  2  0
 42 43  1  0
 43 44  2  0
 27  2  1  0
 37 29  1  0
 44 38  1  0
 25  9  2  0
 36 31  1  0
 19 13  1  0
  1 45  1  0
  1 46  1  0
  1 47  1  0
  3 48  1  0
  4 49  1  0
  6 50  1  0
 10 51  1  0
 12 52  1  0
 12 53  1  0
 13 54  1  0
 14 55  1  0
 14 56  1  0
 15 57  1  0
 15 58  1  0
 16 59  1  0
 17 60  1  0
 17 61  1  0
 17 62  1  0
 18 63  1  0
 18 64  1  0
 19 65  1  0
 19 66  1  0
 22 67  1  0
 22 68  1  0
 22 69  1  0
 23 70  1  0
 23 71  1  0
 23 72  1  0
 24 73  1  0
 24 74  1  0
 24 75  1  0
 26 76  1  0
 28 77  1  0
 32 78  1  0
 33 79  1  0
 34 80  1  0
 35 81  1  0
 39 82  1  0
 41 83  1  0
 41 84  1  0
 43 85  1  0
M  CHG  2  13   1  16   1
M  END
>  <meeko>  (1) 
{"is_sidechain": [false], "free_energy": -9.068, "intermolecular_energy": -13.574, "internal_energy": -1.965}

$$$$
LIB_PPCDZYRDXIKRDW__M_PUB_ALL__e8__s20260927
     RDKit          3D

 85 90  0  0  0  0  0  0  0  0999 V2000
   12.5850  -11.4740   -0.1630 C   0  0  0  0  0  0  0  0  0  0  0  0
   12.8200  -12.0530   -1.5340 C   0  0  0  0  0  0  0  0  0  0  0  0
   13.7920  -11.4500   -2.3520 C   0  0  0  0  0  0  0  0  0  0  0  0
   14.0640  -11.9390   -3.6300 C   0  0  0  0  0  0  0  0  0  0  0  0
   13.3650  -13.0380   -4.1120 C   0  0  0  0  0  0  0  0  0  0  0  0
   13.5740  -13.6090   -5.3800 N   0  0  0  0  0  0  0  0  0  0  0  0
   13.9940  -14.8810   -5.6840 C   0  0  0  0  0  0  0  0  0  0  0  0
   14.2490  -15.7980   -4.9110 O   0  0  0  0  0  0  0  0  0  0  0  0
   14.0390  -15.1280   -7.1360 C   0  0  0  0  0  0  0  0  0  0  0  0
   12.9310  -15.1960   -8.0080 C   0  0  0  0  0  0  0  0  0  0  0  0
   13.4610  -15.1690   -9.2860 C   0  0  0  0  0  0  0  0  0  0  0  0
   12.7780  -14.9030  -10.5690 C   0  0  0  0  0  0  0  0  0  0  0  0
   12.8740  -13.4320  -11.0050 N   0  0  0  0  0  0  0  0  0  0  0  0
   11.6300  -12.8850  -11.7180 C   0  0  0  0  0  0  0  0  0  0  0  0
   10.8200  -11.8890  -10.8510 C   0  0  0  0  0  0  0  0  0  0  0  0
   11.6720  -10.7230  -10.3470 N   0  0  0  0  0  0  0  0  0  0  0  0
   11.4080   -9.4330  -11.0930 C   0  0  0  0  0  0  0  0  0  0  0  0
   13.1640  -11.0230  -10.2350 C   0  0  0  0  0  0  0  0  0  0  0  0
   13.4220  -12.5120   -9.9100 C   0  0  0  0  0  0  0  0  0  0  0  0
   14.7980  -15.4910   -9.1010 N   0  0  0  0  0  0  0  0  0  0  0  0
   15.8140  -16.0240  -10.0390 C   0  0  0  0  0  0  0  0  0  0  0  0
   15.5080  -17.4920  -10.3960 C   0  0  0  0  0  0  0  0  0  0  0  0
   15.8790  -15.1590  -11.3090 C   0  0  0  0  0  0  0  0  0  0  0  0
   17.2290  -16.0150   -9.4000 C   0  0  0  0  0  0  0  0  0  0  0  0
   15.1800  -15.1960   -7.8380 N   0  0  0  0  0  0  0  0  0  0  0  0
   12.3860  -13.6340   -3.3030 C   0  0  0  0  0  0  0  0  0  0  0  0
   12.0900  -13.1660   -2.0120 C   0  0  0  0  0  0  0  0  0  0  0  0
   11.1240  -13.7810   -1.1880 N   0  0  0  0  0  0  0  0  0  0  0  0
    9.8830  -13.3570   -0.8290 C   0  0  0  0  0  0  0  0  0  0  0  0
    9.5230  -12.7280    0.2700 N   0  0  0  0  0  0  0  0  0  0  0  0
    8.1920  -12.4630    0.1410 C   0  0  0  0  0  0  0  0  0  0  0  0
    7.3530  -11.7710    1.0290 C   0  0  0  0  0  0  0  0  0  0  0  0
    6.0240  -11.5360    0.6680 C   0  0  0  0  0  0  0  0  0  0  0  0
    5.5450  -11.9650   -0.5660 C   0  0  0  0  0  0  0  0  0  0  0  0
    6.3670  -12.6640   -1.4590 C   0  0  0  0  0  0  0  0  0  0  0  0
    7.6900  -12.9430   -1.0670 C   0  0  0  0  0  0  0  0  0  0  0  0
    8.7690  -13.6070   -1.6500 N   0  0  0  0  0  0  0  0  0  0  0  0
    8.7870  -14.4010   -2.8480 C   0  0  0  0  0  0  0  0  0  0  0  0
    8.5550  -13.8240   -4.0810 C   0  0  0  0  0  0  0  0  0  0  0  0
    8.5950  -14.6580   -5.1790 C   0  0  0  0  0  0  0  0  0  0  0  0
    8.4180  -14.1570   -6.4520 N   0  0  0  0  0  0  0  0  0  0  0  0
    8.8620  -15.9620   -5.0840 N   0  0  0  0  0  0  0  0  0  0  0  0
    9.0400  -16.4440   -3.8520 C   0  0  0  0  0  0  0  0  0  0  0  0
    8.9950  -15.7360   -2.7140 N   0  0  0  0  0  0  0  0  0  0  0  0
   12.8827  -12.2075    0.6008 H   0  0  0  0  0  0  0  0  0  0  0  0
   13.1826  -10.5581   -0.0444 H   0  0  0  0  0  0  0  0  0  0  0  0
   11.5181  -11.2337   -0.0444 H   0  0  0  0  0  0  0  0  0  0  0  0
   14.3476  -10.5775   -1.9777 H   0  0  0  0  0  0  0  0  0  0  0  0
   14.8299  -11.4555   -4.2541 H   0  0  0  0  0  0  0  0  0  0  0  0
   13.3730  -13.0210   -6.1860 H   0  0  0  0  0  0  0  0  0  0  0  0
   11.8685  -15.2576   -7.7298 H   0  0  0  0  0  0  0  0  0  0  0  0
   13.2369  -15.5303  -11.3474 H   0  0  0  0  0  0  0  0  0  0  0  0
   11.7122  -15.1368  -10.4299 H   0  0  0  0  0  0  0  0  0  0  0  0
   13.5980  -13.4710  -11.7390 H   0  0  0  0  0  0  0  0  0  0  0  0
   11.9508  -12.3697  -12.6354 H   0  0  0  0  0  0  0  0  0  0  0  0
   10.9733  -13.7407  -11.9337 H   0  0  0  0  0  0  0  0  0  0  0  0
    9.9936  -11.4866  -11.4552 H   0  0  0  0  0  0  0  0  0  0  0  0
   10.4493  -12.4363   -9.9718 H   0  0  0  0  0  0  0  0  0  0  0  0
   11.3310  -10.5280   -9.3890 H   0  0  0  0  0  0  0  0  0  0  0  0
   11.2415   -8.6196  -10.3714 H   0  0  0  0  0  0  0  0  0  0  0  0
   12.2752   -9.1908  -11.7249 H   0  0  0  0  0  0  0  0  0  0  0  0
   10.5154   -9.5509  -11.7249 H   0  0  0  0  0  0  0  0  0  0  0  0
   13.6504  -10.7766  -11.1904 H   0  0  0  0  0  0  0  0  0  0  0  0
   13.5766  -10.4155   -9.4160 H   0  0  0  0  0  0  0  0  0  0  0  0
   14.5060  -12.6743   -9.8170 H   0  0  0  0  0  0  0  0  0  0  0  0
   12.9062  -12.7528   -8.9688 H   0  0  0  0  0  0  0  0  0  0  0  0
   15.3862  -18.0763   -9.4720 H   0  0  0  0  0  0  0  0  0  0  0  0
   14.5805  -17.5404  -10.9854 H   0  0  0  0  0  0  0  0  0  0  0  0
   16.3390  -17.9069  -10.9854 H   0  0  0  0  0  0  0  0  0  0  0  0
   15.9587  -14.0988  -11.0268 H   0  0  0  0  0  0  0  0  0  0  0  0
   16.7580  -15.4471  -11.9042 H   0  0  0  0  0  0  0  0  0  0  0  0
   14.9668  -15.3125  -11.9042 H   0  0  0  0  0  0  0  0  0  0  0  0
   17.1363  -16.0156   -8.3039 H   0  0  0  0  0  0  0  0  0  0  0  0
   17.7823  -16.9096   -9.7217 H   0  0  0  0  0  0  0  0  0  0  0  0
   17.7709  -15.1134   -9.7217 H   0  0  0  0  0  0  0  0  0  0  0  0
   11.8301  -14.4990   -3.6937 H   0  0  0  0  0  0  0  0  0  0  0  0
   11.4100  -14.6860   -0.8100 H   0  0  0  0  0  0  0  0  0  0  0  0
    7.7375  -11.4181    1.9973 H   0  0  0  0  0  0  0  0  0  0  0  0
    5.3530  -11.0093    1.3626 H   0  0  0  0  0  0  0  0  0  0  0  0
    4.5026  -11.7514   -0.8450 H   0  0  0  0  0  0  0  0  0  0  0  0
    5.9889  -12.9864   -2.4404 H   0  0  0  0  0  0  0  0  0  0  0  0
    8.3478  -12.7485   -4.1829 H   0  0  0  0  0  0  0  0  0  0  0  0
    7.5980  -14.4160   -6.9800 H   0  0  0  0  0  0  0  0  0  0  0  0
    9.2840  -14.0650   -6.9710 H   0  0  0  0  0  0  0  0  0  0  0  0
    9.2423  -17.5215   -3.7619 H   0  0  0  0  0  0  0  0  0  0  0  0
  1  2  1  0
  2  3  2  0
  3  4  1  0
  4  5  2  0
  5  6  1  0
  6  7  1  0
  7  8  2  0
  7  9  1  0
  9 10  1  0
 10 11  2  0
 11 12  1  0
 12 13  1  0
 13 14  1  0
 14 15  1  0
 15 16  1  0
 16 17  1  0
 16 18  1  0
 18 19  1  0
 11 20  1  0
 20 21  1  0
 21 22  1  0
 21 23  1  0
 21 24  1  0
 20 25  1  0
  5 26  1  0
 26 27  2  0
 27 28  1  0
 28 29  1  0
 29 30  2  0
 30 31  1  0
 31 32  2  0
 32 33  1  0
 33 34  2  0
 34 35  1  0
 35 36  2  0
 36 37  1  0
 37 38  1  0
 38 39  2  0
 39 40  1  0
 40 41  1  0
 40 42  2  0
 42 43  1  0
 43 44  2  0
 27  2  1  0
 37 29  1  0
 44 38  1  0
 25  9  2  0
 36 31  1  0
 19 13  1  0
  1 45  1  0
  1 46  1  0
  1 47  1  0
  3 48  1  0
  4 49  1  0
  6 50  1  0
 10 51  1  0
 12 52  1  0
 12 53  1  0
 13 54  1  0
 14 55  1  0
 14 56  1  0
 15 57  1  0
 15 58  1  0
 16 59  1  0
 17 60  1  0
 17 61  1  0
 17 62  1  0
 18 63  1  0
 18 64  1  0
 19 65  1  0
 19 66  1  0
 22 67  1  0
 22 68  1  0
 22 69  1  0
 23 70  1  0
 23 71  1  0
 23 72  1  0
 24 73  1  0
 24 74  1  0
 24 75  1  0
 26 76  1  0
 28 77  1  0
 32 78  1  0
 33 79  1  0
 34 80  1  0
 35 81  1  0
 39 82  1  0
 41 83  1  0
 41 84  1  0
 43 85  1  0
M  CHG  2  13   1  16   1
M  END
>  <meeko>  (2) 
{"is_sidechain": [false], "free_energy": -8.916, "intermolecular_energy": -13.587, "internal_energy": -1.725}

$$$$
LIB_PPCDZYRDXIKRDW__M_PUB_ALL__e8__s20260927
     RDKit          3D

 85 90  0  0  0  0  0  0  0  0999 V2000
   14.6680  -15.9110   -7.7340 C   0  0  0  0  0  0  0  0  0  0  0  0
   13.6370  -15.3350   -6.7980 C   0  0  0  0  0  0  0  0  0  0  0  0
   14.0400  -14.9930   -5.4950 C   0  0  0  0  0  0  0  0  0  0  0  0
   13.1380  -14.4500   -4.5790 C   0  0  0  0  0  0  0  0  0  0  0  0
   11.8160  -14.2430   -4.9520 C   0  0  0  0  0  0  0  0  0  0  0  0
   10.8370  -13.6930   -4.1060 N   0  0  0  0  0  0  0  0  0  0  0  0
   10.8630  -12.4920   -3.4400 C   0  0  0  0  0  0  0  0  0  0  0  0
   11.7350  -11.6320   -3.4650 O   0  0  0  0  0  0  0  0  0  0  0  0
    9.6190  -12.2370   -2.6920 C   0  0  0  0  0  0  0  0  0  0  0  0
    8.3930  -11.7910   -3.2320 C   0  0  0  0  0  0  0  0  0  0  0  0
    7.4590  -11.9570   -2.2250 C   0  0  0  0  0  0  0  0  0  0  0  0
    5.9840  -11.9540   -2.3150 C   0  0  0  0  0  0  0  0  0  0  0  0
    5.4200  -13.2530   -2.9130 N   0  0  0  0  0  0  0  0  0  0  0  0
    5.3280  -13.2740   -4.4440 C   0  0  0  0  0  0  0  0  0  0  0  0
    6.3770  -14.2040   -5.1050 C   0  0  0  0  0  0  0  0  0  0  0  0
    6.3090  -15.6360   -4.5710 N   0  0  0  0  0  0  0  0  0  0  0  0
    5.6580  -16.5980   -5.5400 C   0  0  0  0  0  0  0  0  0  0  0  0
    5.7350  -15.7670   -3.1630 C   0  0  0  0  0  0  0  0  0  0  0  0
    6.0370  -14.5170   -2.3060 C   0  0  0  0  0  0  0  0  0  0  0  0
    8.2280  -12.0890   -1.0760 N   0  0  0  0  0  0  0  0  0  0  0  0
    7.8900  -11.8900    0.3540 C   0  0  0  0  0  0  0  0  0  0  0  0
    6.9900  -13.0320    0.8640 C   0  0  0  0  0  0  0  0  0  0  0  0
    9.1710  -11.7900    1.1990 C   0  0  0  0  0  0  0  0  0  0  0  0
    7.0920  -10.5750    0.5640 C   0  0  0  0  0  0  0  0  0  0  0  0
    9.4680  -12.5230   -1.3900 N   0  0  0  0  0  0  0  0  0  0  0  0
   11.4090  -14.5940   -6.2480 C   0  0  0  0  0  0  0  0  0  0  0  0
   12.2940  -15.1420   -7.1920 C   0  0  0  0  0  0  0  0  0  0  0  0
   11.8900  -15.4710   -8.5040 N   0  0  0  0  0  0  0  0  0  0  0  0
   10.8220  -15.0380   -9.2250 C   0  0  0  0  0  0  0  0  0  0  0  0
    9.5970  -15.5210   -9.2370 N   0  0  0  0  0  0  0  0  0  0  0  0
    8.8750  -14.7150  -10.0660 C   0  0  0  0  0  0  0  0  0  0  0  0
    7.5080  -14.7880  -10.3770 C   0  0  0  0  0  0  0  0  0  0  0  0
    6.9420  -13.8060  -11.1950 C   0  0  0  0  0  0  0  0  0  0  0  0
    7.7210  -12.7590  -11.6770 C   0  0  0  0  0  0  0  0  0  0  0  0
    9.0880  -12.6760  -11.3830 C   0  0  0  0  0  0  0  0  0  0  0  0
    9.6630  -13.6980  -10.6020 C   0  0  0  0  0  0  0  0  0  0  0  0
   10.9460  -13.9680  -10.1290 N   0  0  0  0  0  0  0  0  0  0  0  0
   12.1800  -13.3140  -10.4690 C   0  0  0  0  0  0  0  0  0  0  0  0
   12.5450  -12.1310   -9.8550 C   0  0  0  0  0  0  0  0  0  0  0  0
   13.7460  -11.5730  -10.2380 C   0  0  0  0  0  0  0  0  0  0  0  0
   14.2070  -10.4170   -9.6440 N   0  0  0  0  0  0  0  0  0  0  0  0
   14.5470  -12.1390  -11.1430 N   0  0  0  0  0  0  0  0  0  0  0  0
   14.1030  -13.2610  -11.7120 C   0  0  0  0  0  0  0  0  0  0  0  0
   12.9420  -13.8760  -11.4410 N   0  0  0  0  0  0  0  0  0  0  0  0
   15.4812  -16.3653   -7.1490 H   0  0  0  0  0  0  0  0  0  0  0  0
   14.1996  -16.6781   -8.3681 H   0  0  0  0  0  0  0  0  0  0  0  0
   15.0757  -15.1100   -8.3681 H   0  0  0  0  0  0  0  0  0  0  0  0
   15.0848  -15.1564   -5.1923 H   0  0  0  0  0  0  0  0  0  0  0  0
   13.4728  -14.1867   -3.5648 H   0  0  0  0  0  0  0  0  0  0  0  0
    9.9850  -14.2360   -3.9790 H   0  0  0  0  0  0  0  0  0  0  0  0
    8.2171  -11.3942   -4.2428 H   0  0  0  0  0  0  0  0  0  0  0  0
    5.5707  -11.8243   -1.3039 H   0  0  0  0  0  0  0  0  0  0  0  0
    5.6951  -11.1295   -2.9834 H   0  0  0  0  0  0  0  0  0  0  0  0
    4.4380  -13.2290   -2.5940 H   0  0  0  0  0  0  0  0  0  0  0  0
    4.3239  -13.6208   -4.7294 H   0  0  0  0  0  0  0  0  0  0  0  0
    5.5276  -12.2518   -4.7980 H   0  0  0  0  0  0  0  0  0  0  0  0
    6.1976  -14.2232   -6.1901 H   0  0  0  0  0  0  0  0  0  0  0  0
    7.3743  -13.8054   -4.8672 H   0  0  0  0  0  0  0  0  0  0  0  0
    7.2930  -15.9580   -4.5260 H   0  0  0  0  0  0  0  0  0  0  0  0
    5.1279  -17.3814   -4.9785 H   0  0  0  0  0  0  0  0  0  0  0  0
    4.9425  -16.0527   -6.1731 H   0  0  0  0  0  0  0  0  0  0  0  0
    6.4302  -17.0594   -6.1731 H   0  0  0  0  0  0  0  0  0  0  0  0
    4.6449  -15.8970   -3.2327 H   0  0  0  0  0  0  0  0  0  0  0  0
    6.2046  -16.6365   -2.6799 H   0  0  0  0  0  0  0  0  0  0  0  0
    5.6233  -14.6672   -1.2979 H   0  0  0  0  0  0  0  0  0  0  0  0
    7.1280  -14.3823   -2.2676 H   0  0  0  0  0  0  0  0  0  0  0  0
    6.9883  -13.0341    1.9640 H   0  0  0  0  0  0  0  0  0  0  0  0
    5.9642  -12.8826    0.4960 H   0  0  0  0  0  0  0  0  0  0  0  0
    7.3750  -13.9945    0.4960 H   0  0  0  0  0  0  0  0  0  0  0  0
    8.9083  -11.8105    2.2670 H   0  0  0  0  0  0  0  0  0  0  0  0
    9.8304  -12.6394    0.9672 H   0  0  0  0  0  0  0  0  0  0  0  0
    9.6906  -10.8486    0.9672 H   0  0  0  0  0  0  0  0  0  0  0  0
    6.9763  -10.3844    1.6412 H   0  0  0  0  0  0  0  0  0  0  0  0
    7.6350   -9.7385    0.0998 H   0  0  0  0  0  0  0  0  0  0  0  0
    6.0993  -10.6704    0.0998 H   0  0  0  0  0  0  0  0  0  0  0  0
   10.3593  -14.4345   -6.5355 H   0  0  0  0  0  0  0  0  0  0  0  0
   12.5040  -16.1370   -8.9770 H   0  0  0  0  0  0  0  0  0  0  0  0
    6.8900  -15.6077   -9.9819 H   0  0  0  0  0  0  0  0  0  0  0  0
    5.8756  -13.8613  -11.4589 H   0  0  0  0  0  0  0  0  0  0  0  0
    7.2548  -11.9819  -12.3005 H   0  0  0  0  0  0  0  0  0  0  0  0
    9.6956  -11.8364  -11.7516 H   0  0  0  0  0  0  0  0  0  0  0  0
   11.9065  -11.6563   -9.0954 H   0  0  0  0  0  0  0  0  0  0  0  0
   14.6520  -10.4650   -8.7390 H   0  0  0  0  0  0  0  0  0  0  0  0
   13.6150   -9.6120   -9.8180 H   0  0  0  0  0  0  0  0  0  0  0  0
   14.7480  -13.7243  -12.4731 H   0  0  0  0  0  0  0  0  0  0  0  0
  1  2  1  0
  2  3  2  0
  3  4  1  0
  4  5  2  0
  5  6  1  0
  6  7  1  0
  7  8  2  0
  7  9  1  0
  9 10  1  0
 10 11  2  0
 11 12  1  0
 12 13  1  0
 13 14  1  0
 14 15  1  0
 15 16  1  0
 16 17  1  0
 16 18  1  0
 18 19  1  0
 11 20  1  0
 20 21  1  0
 21 22  1  0
 21 23  1  0
 21 24  1  0
 20 25  1  0
  5 26  1  0
 26 27  2  0
 27 28  1  0
 28 29  1  0
 29 30  2  0
 30 31  1  0
 31 32  2  0
 32 33  1  0
 33 34  2  0
 34 35  1  0
 35 36  2  0
 36 37  1  0
 37 38  1  0
 38 39  2  0
 39 40  1  0
 40 41  1  0
 40 42  2  0
 42 43  1  0
 43 44  2  0
 27  2  1  0
 37 29  1  0
 44 38  1  0
 25  9  2  0
 36 31  1  0
 19 13  1  0
  1 45  1  0
  1 46  1  0
  1 47  1  0
  3 48  1  0
  4 49  1  0
  6 50  1  0
 10 51  1  0
 12 52  1  0
 12 53  1  0
 13 54  1  0
 14 55  1  0
 14 56  1  0
 15 57  1  0
 15 58  1  0
 16 59  1  0
 17 60  1  0
 17 61  1  0
 17 62  1  0
 18 63  1  0
 18 64  1  0
 19 65  1  0
 19 66  1  0
 22 67  1  0
 22 68  1  0
 22 69  1  0
 23 70  1  0
 23 71  1  0
 23 72  1  0
 24 73  1  0
 24 74  1  0
 24 75  1  0
 26 76  1  0
 28 77  1  0
 32 78  1  0
 33 79  1  0
 34 80  1  0
 35 81  1  0
 39 82  1  0
 41 83  1  0
 41 84  1  0
 43 85  1  0
M  CHG  2  13   1  16   1
M  END
>  <meeko>  (3) 
{"is_sidechain": [false], "free_energy": -8.911, "intermolecular_energy": -13.021, "internal_energy": -2.283}

$$$$
LIB_PPCDZYRDXIKRDW__M_PUB_ALL__e8__s20260927
     RDKit          3D

 85 90  0  0  0  0  0  0  0  0999 V2000
    4.5680  -12.1950   -5.7930 C   0  0  0  0  0  0  0  0  0  0  0  0
    3.8600  -12.3990   -4.4790 C   0  0  0  0  0  0  0  0  0  0  0  0
    2.5790  -12.9780   -4.4980 C   0  0  0  0  0  0  0  0  0  0  0  0
    1.8700  -13.2010   -3.3170 C   0  0  0  0  0  0  0  0  0  0  0  0
    2.4310  -12.8450   -2.0980 C   0  0  0  0  0  0  0  0  0  0  0  0
    1.8020  -13.0390   -0.8550 N   0  0  0  0  0  0  0  0  0  0  0  0
    1.5100  -14.2240   -0.2230 C   0  0  0  0  0  0  0  0  0  0  0  0
    1.7630  -15.3630   -0.5960 O   0  0  0  0  0  0  0  0  0  0  0  0
    0.8950  -14.0180    1.1000 C   0  0  0  0  0  0  0  0  0  0  0  0
    0.5350  -12.7780    1.6730 C   0  0  0  0  0  0  0  0  0  0  0  0
   -0.2400  -13.0890    2.7760 C   0  0  0  0  0  0  0  0  0  0  0  0
   -1.1340  -12.2110    3.5600 C   0  0  0  0  0  0  0  0  0  0  0  0
   -2.4190  -11.8360    2.8040 N   0  0  0  0  0  0  0  0  0  0  0  0
   -2.3400  -10.5340    1.9980 C   0  0  0  0  0  0  0  0  0  0  0  0
   -2.2920  -10.7670    0.4660 C   0  0  0  0  0  0  0  0  0  0  0  0
   -3.4690  -11.6060   -0.0360 N   0  0  0  0  0  0  0  0  0  0  0  0
   -4.5190  -10.7820   -0.7500 C   0  0  0  0  0  0  0  0  0  0  0  0
   -4.0840  -12.5340    1.0080 C   0  0  0  0  0  0  0  0  0  0  0  0
   -3.0320  -13.0110    2.0350 C   0  0  0  0  0  0  0  0  0  0  0  0
    0.0410  -14.4270    3.0170 N   0  0  0  0  0  0  0  0  0  0  0  0
   -0.1140  -15.2540    4.2370 C   0  0  0  0  0  0  0  0  0  0  0  0
   -1.5950  -15.6150    4.4640 C   0  0  0  0  0  0  0  0  0  0  0  0
    0.7460  -16.5250    4.1380 C   0  0  0  0  0  0  0  0  0  0  0  0
    0.3460  -14.4800    5.5020 C   0  0  0  0  0  0  0  0  0  0  0  0
    0.4810  -15.0230    1.8870 N   0  0  0  0  0  0  0  0  0  0  0  0
    3.7050  -12.2580   -2.0770 C   0  0  0  0  0  0  0  0  0  0  0  0
    4.4440  -12.0220   -3.2480 C   0  0  0  0  0  0  0  0  0  0  0  0
    5.7360  -11.4540   -3.2250 N   0  0  0  0  0  0  0  0  0  0  0  0
    6.9510  -12.0510   -3.1130 C   0  0  0  0  0  0  0  0  0  0  0  0
    7.6160  -12.7270   -4.0270 N   0  0  0  0  0  0  0  0  0  0  0  0
    8.8060  -13.0730   -3.4590 C   0  0  0  0  0  0  0  0  0  0  0  0
    9.8800  -13.7640   -4.0420 C   0  0  0  0  0  0  0  0  0  0  0  0
   11.0520  -13.9490   -3.3040 C   0  0  0  0  0  0  0  0  0  0  0  0
   11.1590  -13.4340   -2.0160 C   0  0  0  0  0  0  0  0  0  0  0  0
   10.0950  -12.7490   -1.4170 C   0  0  0  0  0  0  0  0  0  0  0  0
    8.8980  -12.6130   -2.1460 C   0  0  0  0  0  0  0  0  0  0  0  0
    7.6540  -12.0350   -1.8940 N   0  0  0  0  0  0  0  0  0  0  0  0
    7.1460  -11.5130   -0.6550 C   0  0  0  0  0  0  0  0  0  0  0  0
    6.5660  -12.3500    0.2780 C   0  0  0  0  0  0  0  0  0  0  0  0
    6.1080  -11.7680    1.4410 C   0  0  0  0  0  0  0  0  0  0  0  0
    5.5550  -12.5360    2.4440 N   0  0  0  0  0  0  0  0  0  0  0  0
    6.2250  -10.4610    1.6870 N   0  0  0  0  0  0  0  0  0  0  0  0
    6.7670   -9.7200    0.7180 C   0  0  0  0  0  0  0  0  0  0  0  0
    7.2180  -10.1720   -0.4610 N   0  0  0  0  0  0  0  0  0  0  0  0
    5.6095  -11.8949   -5.6056 H   0  0  0  0  0  0  0  0  0  0  0  0
    4.5544  -13.1336   -6.3664 H   0  0  0  0  0  0  0  0  0  0  0  0
    4.0570  -11.4075   -6.3664 H   0  0  0  0  0  0  0  0  0  0  0  0
    2.1277  -13.2602   -5.4607 H   0  0  0  0  0  0  0  0  0  0  0  0
    0.8698  -13.6574   -3.3518 H   0  0  0  0  0  0  0  0  0  0  0  0
    1.5410  -12.2020   -0.3390 H   0  0  0  0  0  0  0  0  0  0  0  0
    0.8128  -11.7750    1.3167 H   0  0  0  0  0  0  0  0  0  0  0  0
   -1.4122  -12.7322    4.4879 H   0  0  0  0  0  0  0  0  0  0  0  0
   -0.5863  -11.2787    3.7622 H   0  0  0  0  0  0  0  0  0  0  0  0
   -3.0710  -11.6250    3.5760 H   0  0  0  0  0  0  0  0  0  0  0  0
   -3.2250   -9.9239    2.2314 H   0  0  0  0  0  0  0  0  0  0  0  0
   -1.4045  -10.0297    2.2818 H   0  0  0  0  0  0  0  0  0  0  0  0
   -2.3134   -9.7906   -0.0402 H   0  0  0  0  0  0  0  0  0  0  0  0
   -1.3677  -11.3191    0.2406 H   0  0  0  0  0  0  0  0  0  0  0  0
   -3.0770  -12.2080   -0.7820 H   0  0  0  0  0  0  0  0  0  0  0  0
   -5.1582  -10.2804   -0.0085 H   0  0  0  0  0  0  0  0  0  0  0  0
   -4.0265  -10.0268   -1.3802 H   0  0  0  0  0  0  0  0  0  0  0  0
   -5.1354  -11.4400   -1.3802 H   0  0  0  0  0  0  0  0  0  0  0  0
   -4.8824  -11.9948    1.5389 H   0  0  0  0  0  0  0  0  0  0  0  0
   -4.4845  -13.4178    0.4897 H   0  0  0  0  0  0  0  0  0  0  0  0
   -3.5155  -13.6923    2.7506 H   0  0  0  0  0  0  0  0  0  0  0  0
   -2.2256  -13.5218    1.4885 H   0  0  0  0  0  0  0  0  0  0  0  0
   -1.7989  -15.6647    5.5438 H   0  0  0  0  0  0  0  0  0  0  0  0
   -2.2343  -14.8464    4.0051 H   0  0  0  0  0  0  0  0  0  0  0  0
   -1.8089  -16.5916    4.0051 H   0  0  0  0  0  0  0  0  0  0  0  0
    0.9885  -16.8833    5.1493 H   0  0  0  0  0  0  0  0  0  0  0  0
    0.1885  -17.3037    3.5969 H   0  0  0  0  0  0  0  0  0  0  0  0
    1.6762  -16.2971    3.5969 H   0  0  0  0  0  0  0  0  0  0  0  0
    0.0230  -15.0236    6.4021 H   0  0  0  0  0  0  0  0  0  0  0  0
    1.4425  -14.3929    5.5000 H   0  0  0  0  0  0  0  0  0  0  0  0
   -0.1016  -13.4752    5.5000 H   0  0  0  0  0  0  0  0  0  0  0  0
    4.1410  -11.9722   -1.1084 H   0  0  0  0  0  0  0  0  0  0  0  0
    5.7480  -10.4360   -3.3100 H   0  0  0  0  0  0  0  0  0  0  0  0
    9.7999  -14.1549   -5.0671 H   0  0  0  0  0  0  0  0  0  0  0  0
   11.8938  -14.5043   -3.7433 H   0  0  0  0  0  0  0  0  0  0  0  0
   12.0973  -13.5675   -1.4577 H   0  0  0  0  0  0  0  0  0  0  0  0
   10.1914  -12.3287   -0.4050 H   0  0  0  0  0  0  0  0  0  0  0  0
    6.4736  -13.4318    0.1013 H   0  0  0  0  0  0  0  0  0  0  0  0
    6.1090  -13.2560    2.8840 H   0  0  0  0  0  0  0  0  0  0  0  0
    4.5730  -12.7440    2.2960 H   0  0  0  0  0  0  0  0  0  0  0  0
    6.8514   -8.6391    0.9038 H   0  0  0  0  0  0  0  0  0  0  0  0
  1  2  1  0
  2  3  2  0
  3  4  1  0
  4  5  2  0
  5  6  1  0
  6  7  1  0
  7  8  2  0
  7  9  1  0
  9 10  1  0
 10 11  2  0
 11 12  1  0
 12 13  1  0
 13 14  1  0
 14 15  1  0
 15 16  1  0
 16 17  1  0
 16 18  1  0
 18 19  1  0
 11 20  1  0
 20 21  1  0
 21 22  1  0
 21 23  1  0
 21 24  1  0
 20 25  1  0
  5 26  1  0
 26 27  2  0
 27 28  1  0
 28 29  1  0
 29 30  2  0
 30 31  1  0
 31 32  2  0
 32 33  1  0
 33 34  2  0
 34 35  1  0
 35 36  2  0
 36 37  1  0
 37 38  1  0
 38 39  2  0
 39 40  1  0
 40 41  1  0
 40 42  2  0
 42 43  1  0
 43 44  2  0
 27  2  1  0
 37 29  1  0
 44 38  1  0
 25  9  2  0
 36 31  1  0
 19 13  1  0
  1 45  1  0
  1 46  1  0
  1 47  1  0
  3 48  1  0
  4 49  1  0
  6 50  1  0
 10 51  1  0
 12 52  1  0
 12 53  1  0
 13 54  1  0
 14 55  1  0
 14 56  1  0
 15 57  1  0
 15 58  1  0
 16 59  1  0
 17 60  1  0
 17 61  1  0
 17 62  1  0
 18 63  1  0
 18 64  1  0
 19 65  1  0
 19 66  1  0
 22 67  1  0
 22 68  1  0
 22 69  1  0
 23 70  1  0
 23 71  1  0
 23 72  1  0
 24 73  1  0
 24 74  1  0
 24 75  1  0
 26 76  1  0
 28 77  1  0
 32 78  1  0
 33 79  1  0
 34 80  1  0
 35 81  1  0
 39 82  1  0
 41 83  1  0
 41 84  1  0
 43 85  1  0
M  CHG  2  13   1  16   1
M  END
>  <meeko>  (4) 
{"is_sidechain": [false], "free_energy": -8.789, "intermolecular_energy": -12.782, "internal_energy": -2.339}

$$$$
LIB_PPCDZYRDXIKRDW__M_PUB_ALL__e8__s20260927
     RDKit          3D

 85 90  0  0  0  0  0  0  0  0999 V2000
   12.6080  -11.0600    0.1580 C   0  0  0  0  0  0  0  0  0  0  0  0
   12.8010  -11.6600   -1.2100 C   0  0  0  0  0  0  0  0  0  0  0  0
   13.8340  -11.1530   -2.0180 C   0  0  0  0  0  0  0  0  0  0  0  0
   14.0710  -11.6680   -3.2940 C   0  0  0  0  0  0  0  0  0  0  0  0
   13.2750  -12.6960   -3.7820 C   0  0  0  0  0  0  0  0  0  0  0  0
   13.4420  -13.2860   -5.0470 N   0  0  0  0  0  0  0  0  0  0  0  0
   13.7650  -14.5880   -5.3450 C   0  0  0  0  0  0  0  0  0  0  0  0
   13.9490  -15.5180   -4.5680 O   0  0  0  0  0  0  0  0  0  0  0  0
   13.7930  -14.8430   -6.7960 C   0  0  0  0  0  0  0  0  0  0  0  0
   12.6770  -14.8870   -7.6600 C   0  0  0  0  0  0  0  0  0  0  0  0
   13.1980  -14.8800   -8.9420 C   0  0  0  0  0  0  0  0  0  0  0  0
   12.5120  -14.6030  -10.2220 C   0  0  0  0  0  0  0  0  0  0  0  0
   12.7330  -13.1650  -10.7200 N   0  0  0  0  0  0  0  0  0  0  0  0
   11.6750  -12.6520  -11.7040 C   0  0  0  0  0  0  0  0  0  0  0  0
   10.7310  -11.5900  -11.0850 C   0  0  0  0  0  0  0  0  0  0  0  0
   11.4930  -10.4030  -10.4920 N   0  0  0  0  0  0  0  0  0  0  0  0
   11.4200   -9.1630  -11.3550 C   0  0  0  0  0  0  0  0  0  0  0  0
   12.9230  -10.7140  -10.0580 C   0  0  0  0  0  0  0  0  0  0  0  0
   13.0710  -12.1810   -9.5950 C   0  0  0  0  0  0  0  0  0  0  0  0
   14.5270  -15.2370   -8.7640 N   0  0  0  0  0  0  0  0  0  0  0  0
   15.5220  -15.8020   -9.7080 C   0  0  0  0  0  0  0  0  0  0  0  0
   15.0960  -17.2090  -10.1680 C   0  0  0  0  0  0  0  0  0  0  0  0
   15.7070  -14.8670  -10.9150 C   0  0  0  0  0  0  0  0  0  0  0  0
   16.9090  -15.9640   -9.0300 C   0  0  0  0  0  0  0  0  0  0  0  0
   14.9260  -14.9460   -7.5060 N   0  0  0  0  0  0  0  0  0  0  0  0
   12.2370  -13.1960   -2.9820 C   0  0  0  0  0  0  0  0  0  0  0  0
   11.9740  -12.7000   -1.6940 C   0  0  0  0  0  0  0  0  0  0  0  0
   10.9460  -13.2200   -0.8790 N   0  0  0  0  0  0  0  0  0  0  0  0
   10.1720  -14.3240   -1.0470 C   0  0  0  0  0  0  0  0  0  0  0  0
   10.5530  -15.5520   -1.3330 N   0  0  0  0  0  0  0  0  0  0  0  0
    9.4220  -16.3140   -1.3360 C   0  0  0  0  0  0  0  0  0  0  0  0
    9.3060  -17.6970   -1.5450 C   0  0  0  0  0  0  0  0  0  0  0  0
    8.0520  -18.3010   -1.4260 C   0  0  0  0  0  0  0  0  0  0  0  0
    6.9370  -17.5430   -1.0830 C   0  0  0  0  0  0  0  0  0  0  0  0
    7.0350  -16.1610   -0.8790 C   0  0  0  0  0  0  0  0  0  0  0  0
    8.2910  -15.5500   -1.0530 C   0  0  0  0  0  0  0  0  0  0  0  0
    8.7700  -14.2430   -0.9610 N   0  0  0  0  0  0  0  0  0  0  0  0
    8.0210  -13.0260   -0.8100 C   0  0  0  0  0  0  0  0  0  0  0  0
    7.4890  -12.6720    0.4150 C   0  0  0  0  0  0  0  0  0  0  0  0
    6.7870  -11.4860    0.4720 C   0  0  0  0  0  0  0  0  0  0  0  0
    6.2610  -11.0350    1.6640 N   0  0  0  0  0  0  0  0  0  0  0  0
    6.6320  -10.6900   -0.5870 N   0  0  0  0  0  0  0  0  0  0  0  0
    7.1470  -11.1240   -1.7390 C   0  0  0  0  0  0  0  0  0  0  0  0
    7.8210  -12.2700   -1.9190 N   0  0  0  0  0  0  0  0  0  0  0  0
   12.8494  -11.8106    0.9250 H   0  0  0  0  0  0  0  0  0  0  0  0
   13.2718  -10.1906    0.2740 H   0  0  0  0  0  0  0  0  0  0  0  0
   11.5618  -10.7406    0.2740 H   0  0  0  0  0  0  0  0  0  0  0  0
   14.4662  -10.3368   -1.6384 H   0  0  0  0  0  0  0  0  0  0  0  0
   14.8857  -11.2607   -3.9108 H   0  0  0  0  0  0  0  0  0  0  0  0
   13.2870  -12.6880   -5.8560 H   0  0  0  0  0  0  0  0  0  0  0  0
   11.6154  -14.9200   -7.3738 H   0  0  0  0  0  0  0  0  0  0  0  0
   12.8930  -15.3004  -10.9826 H   0  0  0  0  0  0  0  0  0  0  0  0
   11.4327  -14.7317  -10.0529 H   0  0  0  0  0  0  0  0  0  0  0  0
   13.5900  -13.2620  -11.2860 H   0  0  0  0  0  0  0  0  0  0  0  0
   12.1884  -12.2031  -12.5671 H   0  0  0  0  0  0  0  0  0  0  0  0
   11.0541  -13.5121  -11.9949 H   0  0  0  0  0  0  0  0  0  0  0  0
   10.0550  -11.2189  -11.8694 H   0  0  0  0  0  0  0  0  0  0  0  0
   10.1755  -12.0726  -10.2674 H   0  0  0  0  0  0  0  0  0  0  0  0
   10.9690  -10.1410   -9.6380 H   0  0  0  0  0  0  0  0  0  0  0  0
   11.3675   -8.2717  -10.7125 H   0  0  0  0  0  0  0  0  0  0  0  0
   12.3163   -9.1050  -11.9901 H   0  0  0  0  0  0  0  0  0  0  0  0
   10.5231   -9.2105  -11.9901 H   0  0  0  0  0  0  0  0  0  0  0  0
   13.6000  -10.5376  -10.9069 H   0  0  0  0  0  0  0  0  0  0  0  0
   13.1756  -10.0589   -9.2112 H   0  0  0  0  0  0  0  0  0  0  0  0
   14.1089  -12.3505   -9.2725 H   0  0  0  0  0  0  0  0  0  0  0  0
   12.3688  -12.3523   -8.7658 H   0  0  0  0  0  0  0  0  0  0  0  0
   14.9048  -17.8403   -9.2877 H   0  0  0  0  0  0  0  0  0  0  0  0
   14.1799  -17.1354  -10.7724 H   0  0  0  0  0  0  0  0  0  0  0  0
   15.8991  -17.6560  -10.7724 H   0  0  0  0  0  0  0  0  0  0  0  0
   15.9091  -13.8456  -10.5600 H   0  0  0  0  0  0  0  0  0  0  0  0
   16.5532  -15.2176  -11.5241 H   0  0  0  0  0  0  0  0  0  0  0  0
   14.7911  -14.8690  -11.5241 H   0  0  0  0  0  0  0  0  0  0  0  0
   16.7867  -15.9497   -7.9369 H   0  0  0  0  0  0  0  0  0  0  0  0
   17.3574  -16.9206   -9.3363 H   0  0  0  0  0  0  0  0  0  0  0  0
   17.5658  -15.1365   -9.3363 H   0  0  0  0  0  0  0  0  0  0  0  0
   11.6061  -14.0057   -3.3773 H   0  0  0  0  0  0  0  0  0  0  0  0
   10.7650  -12.6760   -0.0330 H   0  0  0  0  0  0  0  0  0  0  0  0
   10.1916  -18.2979   -1.7994 H   0  0  0  0  0  0  0  0  0  0  0  0
    7.9457  -19.3812   -1.6044 H   0  0  0  0  0  0  0  0  0  0  0  0
    5.9612  -18.0379   -0.9700 H   0  0  0  0  0  0  0  0  0  0  0  0
    6.1540  -15.5688   -0.5905 H   0  0  0  0  0  0  0  0  0  0  0  0
    7.6193  -13.3067    1.3039 H   0  0  0  0  0  0  0  0  0  0  0  0
    5.2850  -11.1890    1.8680 H   0  0  0  0  0  0  0  0  0  0  0  0
    6.6560  -10.1530    1.9690 H   0  0  0  0  0  0  0  0  0  0  0  0
    7.0060  -10.4834   -2.6220 H   0  0  0  0  0  0  0  0  0  0  0  0
  1  2  1  0
  2  3  2  0
  3  4  1  0
  4  5  2  0
  5  6  1  0
  6  7  1  0
  7  8  2  0
  7  9  1  0
  9 10  1  0
 10 11  2  0
 11 12  1  0
 12 13  1  0
 13 14  1  0
 14 15  1  0
 15 16  1  0
 16 17  1  0
 16 18  1  0
 18 19  1  0
 11 20  1  0
 20 21  1  0
 21 22  1  0
 21 23  1  0
 21 24  1  0
 20 25  1  0
  5 26  1  0
 26 27  2  0
 27 28  1  0
 28 29  1  0
 29 30  2  0
 30 31  1  0
 31 32  2  0
 32 33  1  0
 33 34  2  0
 34 35  1  0
 35 36  2  0
 36 37  1  0
 37 38  1  0
 38 39  2  0
 39 40  1  0
 40 41  1  0
 40 42  2  0
 42 43  1  0
 43 44  2  0
 27  2  1  0
 37 29  1  0
 44 38  1  0
 25  9  2  0
 36 31  1  0
 19 13  1  0
  1 45  1  0
  1 46  1  0
  1 47  1  0
  3 48  1  0
  4 49  1  0
  6 50  1  0
 10 51  1  0
 12 52  1  0
 12 53  1  0
 13 54  1  0
 14 55  1  0
 14 56  1  0
 15 57  1  0
 15 58  1  0
 16 59  1  0
 17 60  1  0
 17 61  1  0
 17 62  1  0
 18 63  1  0
 18 64  1  0
 19 65  1  0
 19 66  1  0
 22 67  1  0
 22 68  1  0
 22 69  1  0
 23 70  1  0
 23 71  1  0
 23 72  1  0
 24 73  1  0
 24 74  1  0
 24 75  1  0
 26 76  1  0
 28 77  1  0
 32 78  1  0
 33 79  1  0
 34 80  1  0
 35 81  1  0
 39 82  1  0
 41 83  1  0
 41 84  1  0
 43 85  1  0
M  CHG  2  13   1  16   1
M  END
>  <meeko>  (5) 
{"is_sidechain": [false], "free_energy": -8.785, "intermolecular_energy": -13.58, "internal_energy": -1.536}

$$$$
LIB_PPCDZYRDXIKRDW__M_PUB_ALL__e8__s20260927
     RDKit          3D

 85 90  0  0  0  0  0  0  0  0999 V2000
    0.3250  -15.9230    4.1660 C   0  0  0  0  0  0  0  0  0  0  0  0
    1.2070  -15.4020    3.0610 C   0  0  0  0  0  0  0  0  0  0  0  0
    2.2650  -16.2150    2.6170 C   0  0  0  0  0  0  0  0  0  0  0  0
    3.1160  -15.7970    1.5930 C   0  0  0  0  0  0  0  0  0  0  0  0
    2.9230  -14.5570    0.9980 C   0  0  0  0  0  0  0  0  0  0  0  0
    3.7190  -14.0520   -0.0450 N   0  0  0  0  0  0  0  0  0  0  0  0
    4.3900  -12.8550   -0.1040 C   0  0  0  0  0  0  0  0  0  0  0  0
    4.4580  -11.9830    0.7550 O   0  0  0  0  0  0  0  0  0  0  0  0
    5.1680  -12.7070   -1.3470 C   0  0  0  0  0  0  0  0  0  0  0  0
    6.0430  -11.6460   -1.6660 C   0  0  0  0  0  0  0  0  0  0  0  0
    6.7420  -12.0630   -2.7850 C   0  0  0  0  0  0  0  0  0  0  0  0
    7.9850  -11.5110   -3.3630 C   0  0  0  0  0  0  0  0  0  0  0  0
    9.2360  -11.8660   -2.5440 N   0  0  0  0  0  0  0  0  0  0  0  0
    8.9810  -12.7730   -1.3330 C   0  0  0  0  0  0  0  0  0  0  0  0
    9.5080  -14.2160   -1.5320 C   0  0  0  0  0  0  0  0  0  0  0  0
   10.9950  -14.2520   -1.8910 N   0  0  0  0  0  0  0  0  0  0  0  0
   11.8720  -14.6810   -0.7350 C   0  0  0  0  0  0  0  0  0  0  0  0
   11.5210  -12.9900   -2.5690 C   0  0  0  0  0  0  0  0  0  0  0  0
   10.4240  -12.2980   -3.4100 C   0  0  0  0  0  0  0  0  0  0  0  0
    5.9830  -13.1140   -3.2810 N   0  0  0  0  0  0  0  0  0  0  0  0
    5.9230  -13.7260   -4.6300 C   0  0  0  0  0  0  0  0  0  0  0  0
    5.5640  -12.6670   -5.6910 C   0  0  0  0  0  0  0  0  0  0  0  0
    7.2600  -14.4050   -4.9710 C   0  0  0  0  0  0  0  0  0  0  0  0
    4.8180  -14.8130   -4.7050 C   0  0  0  0  0  0  0  0  0  0  0  0
    5.2300  -13.6530   -2.2960 N   0  0  0  0  0  0  0  0  0  0  0  0
    1.8750  -13.7400    1.4470 C   0  0  0  0  0  0  0  0  0  0  0  0
    1.0010  -14.1320    2.4750 C   0  0  0  0  0  0  0  0  0  0  0  0
   -0.0690  -13.3210    2.9090 N   0  0  0  0  0  0  0  0  0  0  0  0
   -1.0350  -12.6900    2.1900 C   0  0  0  0  0  0  0  0  0  0  0  0
   -1.0910  -11.4240    1.8350 N   0  0  0  0  0  0  0  0  0  0  0  0
   -2.2160  -11.2880    1.0760 C   0  0  0  0  0  0  0  0  0  0  0  0
   -2.6940  -10.1380    0.4280 C   0  0  0  0  0  0  0  0  0  0  0  0
   -3.8350  -10.2330   -0.3730 C   0  0  0  0  0  0  0  0  0  0  0  0
   -4.4760  -11.4560   -0.5420 C   0  0  0  0  0  0  0  0  0  0  0  0
   -4.0170  -12.6100    0.1050 C   0  0  0  0  0  0  0  0  0  0  0  0
   -2.8980  -12.4970    0.9530 C   0  0  0  0  0  0  0  0  0  0  0  0
   -2.1810  -13.3830    1.7560 N   0  0  0  0  0  0  0  0  0  0  0  0
   -2.5060  -14.7390    2.1020 C   0  0  0  0  0  0  0  0  0  0  0  0
   -3.2660  -15.0200    3.2200 C   0  0  0  0  0  0  0  0  0  0  0  0
   -3.5340  -16.3480    3.4770 C   0  0  0  0  0  0  0  0  0  0  0  0
   -4.3220  -16.7140    4.5480 N   0  0  0  0  0  0  0  0  0  0  0  0
   -3.1070  -17.3350    2.6860 N   0  0  0  0  0  0  0  0  0  0  0  0
   -2.3500  -16.9790    1.6460 C   0  0  0  0  0  0  0  0  0  0  0  0
   -2.0020  -15.7260    1.3170 N   0  0  0  0  0  0  0  0  0  0  0  0
    0.7652  -15.6630    5.1400 H   0  0  0  0  0  0  0  0  0  0  0  0
   -0.6738  -15.4699    4.0824 H   0  0  0  0  0  0  0  0  0  0  0  0
    0.2397  -17.0165    4.0824 H   0  0  0  0  0  0  0  0  0  0  0  0
    2.4246  -17.1976    3.0850 H   0  0  0  0  0  0  0  0  0  0  0  0
    3.9372  -16.4477    1.2581 H   0  0  0  0  0  0  0  0  0  0  0  0
    3.8380  -14.6510   -0.8600 H   0  0  0  0  0  0  0  0  0  0  0  0
    6.1473  -10.6879   -1.1357 H   0  0  0  0  0  0  0  0  0  0  0  0
    8.1066  -11.9112   -4.3804 H   0  0  0  0  0  0  0  0  0  0  0  0
    7.8905  -10.4151   -3.3620 H   0  0  0  0  0  0  0  0  0  0  0  0
    9.4930  -10.9530   -2.1350 H   0  0  0  0  0  0  0  0  0  0  0  0
    9.4814  -12.3355   -0.4565 H   0  0  0  0  0  0  0  0  0  0  0  0
    7.8915  -12.8380   -1.1959 H   0  0  0  0  0  0  0  0  0  0  0  0
    9.3565  -14.7787   -0.5991 H   0  0  0  0  0  0  0  0  0  0  0  0
    8.9511  -14.6630   -2.3687 H   0  0  0  0  0  0  0  0  0  0  0  0
   11.0930  -15.0250   -2.5750 H   0  0  0  0  0  0  0  0  0  0  0  0
   11.3728  -14.4368    0.2143 H   0  0  0  0  0  0  0  0  0  0  0  0
   12.0457  -15.7658   -0.7895 H   0  0  0  0  0  0  0  0  0  0  0  0
   12.8350  -14.1522   -0.7895 H   0  0  0  0  0  0  0  0  0  0  0  0
   11.8738  -12.2904   -1.7970 H   0  0  0  0  0  0  0  0  0  0  0  0
   12.3418  -13.2773   -3.2426 H   0  0  0  0  0  0  0  0  0  0  0  0
   10.8538  -11.4092   -3.8950 H   0  0  0  0  0  0  0  0  0  0  0  0
   10.0600  -13.0173   -4.1584 H   0  0  0  0  0  0  0  0  0  0  0  0
    5.2494  -11.7390   -5.1911 H   0  0  0  0  0  0  0  0  0  0  0  0
    6.4438  -12.4648   -6.3195 H   0  0  0  0  0  0  0  0  0  0  0  0
    4.7426  -13.0415   -6.3195 H   0  0  0  0  0  0  0  0  0  0  0  0
    7.7838  -14.6710   -4.0410 H   0  0  0  0  0  0  0  0  0  0  0  0
    7.0696  -15.3156   -5.5579 H   0  0  0  0  0  0  0  0  0  0  0  0
    7.8830  -13.7140   -5.5579 H   0  0  0  0  0  0  0  0  0  0  0  0
    4.5212  -15.1050   -3.6868 H   0  0  0  0  0  0  0  0  0  0  0  0
    3.9449  -14.4120   -5.2407 H   0  0  0  0  0  0  0  0  0  0  0  0
    5.2046  -15.6925   -5.2407 H   0  0  0  0  0  0  0  0  0  0  0  0
    1.7320  -12.7558    0.9769 H   0  0  0  0  0  0  0  0  0  0  0  0
   -0.1170  -13.1970    3.9220 H   0  0  0  0  0  0  0  0  0  0  0  0
   -2.1770   -9.1747    0.5493 H   0  0  0  0  0  0  0  0  0  0  0  0
   -4.2286   -9.3356   -0.8728 H   0  0  0  0  0  0  0  0  0  0  0  0
   -5.3588  -11.5177   -1.1953 H   0  0  0  0  0  0  0  0  0  0  0  0
   -4.5167  -13.5784   -0.0449 H   0  0  0  0  0  0  0  0  0  0  0  0
   -3.6408  -14.2206    3.8761 H   0  0  0  0  0  0  0  0  0  0  0  0
   -4.9080  -17.5330    4.4780 H   0  0  0  0  0  0  0  0  0  0  0  0
   -4.7040  -15.9230    5.0540 H   0  0  0  0  0  0  0  0  0  0  0  0
   -1.9773  -17.7871    0.9994 H   0  0  0  0  0  0  0  0  0  0  0  0
  1  2  1  0
  2  3  2  0
  3  4  1  0
  4  5  2  0
  5  6  1  0
  6  7  1  0
  7  8  2  0
  7  9  1  0
  9 10  1  0
 10 11  2  0
 11 12  1  0
 12 13  1  0
 13 14  1  0
 14 15  1  0
 15 16  1  0
 16 17  1  0
 16 18  1  0
 18 19  1  0
 11 20  1  0
 20 21  1  0
 21 22  1  0
 21 23  1  0
 21 24  1  0
 20 25  1  0
  5 26  1  0
 26 27  2  0
 27 28  1  0
 28 29  1  0
 29 30  2  0
 30 31  1  0
 31 32  2  0
 32 33  1  0
 33 34  2  0
 34 35  1  0
 35 36  2  0
 36 37  1  0
 37 38  1  0
 38 39  2  0
 39 40  1  0
 40 41  1  0
 40 42  2  0
 42 43  1  0
 43 44  2  0
 27  2  1  0
 37 29  1  0
 44 38  1  0
 25  9  2  0
 36 31  1  0
 19 13  1  0
  1 45  1  0
  1 46  1  0
  1 47  1  0
  3 48  1  0
  4 49  1  0
  6 50  1  0
 10 51  1  0
 12 52  1  0
 12 53  1  0
 13 54  1  0
 14 55  1  0
 14 56  1  0
 15 57  1  0
 15 58  1  0
 16 59  1  0
 17 60  1  0
 17 61  1  0
 17 62  1  0
 18 63  1  0
 18 64  1  0
 19 65  1  0
 19 66  1  0
 22 67  1  0
 22 68  1  0
 22 69  1  0
 23 70  1  0
 23 71  1  0
 23 72  1  0
 24 73  1  0
 24 74  1  0
 24 75  1  0
 26 76  1  0
 28 77  1  0
 32 78  1  0
 33 79  1  0
 34 80  1  0
 35 81  1  0
 39 82  1  0
 41 83  1  0
 41 84  1  0
 43 85  1  0
M  CHG  2  13   1  16   1
M  END
>  <meeko>  (6) 
{"is_sidechain": [false], "free_energy": -8.685, "intermolecular_energy": -13.115, "internal_energy": -1.851}

$$$$
LIB_PPCDZYRDXIKRDW__M_PUB_ALL__e8__s20260927
     RDKit          3D

 85 90  0  0  0  0  0  0  0  0999 V2000
   12.8340  -11.0920   -0.0920 C   0  0  0  0  0  0  0  0  0  0  0  0
   12.9350  -11.8510   -1.3900 C   0  0  0  0  0  0  0  0  0  0  0  0
   13.8360  -11.3860   -2.3630 C   0  0  0  0  0  0  0  0  0  0  0  0
   13.9840  -12.0450   -3.5840 C   0  0  0  0  0  0  0  0  0  0  0  0
   13.2290  -13.1790   -3.8520 C   0  0  0  0  0  0  0  0  0  0  0  0
   13.3140  -13.9170   -5.0460 N   0  0  0  0  0  0  0  0  0  0  0  0
   13.7940  -15.1910   -5.2290 C   0  0  0  0  0  0  0  0  0  0  0  0
   14.2250  -15.9660   -4.3830 O   0  0  0  0  0  0  0  0  0  0  0  0
   13.6650  -15.6460   -6.6250 C   0  0  0  0  0  0  0  0  0  0  0  0
   12.5470  -16.2910   -7.1960 C   0  0  0  0  0  0  0  0  0  0  0  0
   12.7660  -16.2780   -8.5620 C   0  0  0  0  0  0  0  0  0  0  0  0
   11.8070  -16.5260   -9.6590 C   0  0  0  0  0  0  0  0  0  0  0  0
   10.3860  -16.0390   -9.3330 N   0  0  0  0  0  0  0  0  0  0  0  0
   10.1590  -14.5330   -9.5210 C   0  0  0  0  0  0  0  0  0  0  0  0
    9.2800  -14.1990  -10.7530 C   0  0  0  0  0  0  0  0  0  0  0  0
    7.9300  -14.9180  -10.7220 N   0  0  0  0  0  0  0  0  0  0  0  0
    6.7830  -14.0050  -10.3480 C   0  0  0  0  0  0  0  0  0  0  0  0
    7.9140  -16.2150   -9.9180 C   0  0  0  0  0  0  0  0  0  0  0  0
    9.2910  -16.9180   -9.9450 C   0  0  0  0  0  0  0  0  0  0  0  0
   14.1240  -16.0150   -8.6800 N   0  0  0  0  0  0  0  0  0  0  0  0
   15.0740  -16.2600   -9.7910 C   0  0  0  0  0  0  0  0  0  0  0  0
   16.4940  -15.8070   -9.4020 C   0  0  0  0  0  0  0  0  0  0  0  0
   15.0670  -17.7470  -10.1850 C   0  0  0  0  0  0  0  0  0  0  0  0
   14.6850  -15.4450  -11.0530 C   0  0  0  0  0  0  0  0  0  0  0  0
   14.5760  -15.3820   -7.5740 N   0  0  0  0  0  0  0  0  0  0  0  0
   12.3210  -13.6390   -2.8870 C   0  0  0  0  0  0  0  0  0  0  0  0
   12.1500  -12.9990   -1.6480 C   0  0  0  0  0  0  0  0  0  0  0  0
   11.2560  -13.4770   -0.6670 N   0  0  0  0  0  0  0  0  0  0  0  0
    9.9800  -13.0990   -0.3890 C   0  0  0  0  0  0  0  0  0  0  0  0
    9.5330  -12.4450    0.6630 N   0  0  0  0  0  0  0  0  0  0  0  0
    8.2000  -12.2500    0.4550 C   0  0  0  0  0  0  0  0  0  0  0  0
    7.2850  -11.5650    1.2700 C   0  0  0  0  0  0  0  0  0  0  0  0
    5.9670  -11.4090    0.8320 C   0  0  0  0  0  0  0  0  0  0  0  0
    5.5750  -11.9080   -0.4060 C   0  0  0  0  0  0  0  0  0  0  0  0
    6.4730  -12.6010   -1.2260 C   0  0  0  0  0  0  0  0  0  0  0  0
    7.7850  -12.8010   -0.7550 C   0  0  0  0  0  0  0  0  0  0  0  0
    8.9220  -13.4340   -1.2550 N   0  0  0  0  0  0  0  0  0  0  0  0
    9.0410  -14.2730   -2.4160 C   0  0  0  0  0  0  0  0  0  0  0  0
    8.8110  -13.7650   -3.6810 C   0  0  0  0  0  0  0  0  0  0  0  0
    8.9500  -14.6370   -4.7390 C   0  0  0  0  0  0  0  0  0  0  0  0
    8.7820  -14.2030   -6.0370 N   0  0  0  0  0  0  0  0  0  0  0  0
    9.3080  -15.9130   -4.5790 N   0  0  0  0  0  0  0  0  0  0  0  0
    9.4760  -16.3310   -3.3230 C   0  0  0  0  0  0  0  0  0  0  0  0
    9.3400  -15.5820   -2.2190 N   0  0  0  0  0  0  0  0  0  0  0  0
   12.9273  -11.7928    0.7507 H   0  0  0  0  0  0  0  0  0  0  0  0
   13.6408  -10.3461   -0.0397 H   0  0  0  0  0  0  0  0  0  0  0  0
   11.8602  -10.5831   -0.0397 H   0  0  0  0  0  0  0  0  0  0  0  0
   14.4353  -10.4865   -2.1585 H   0  0  0  0  0  0  0  0  0  0  0  0
   14.6967  -11.6672   -4.3320 H   0  0  0  0  0  0  0  0  0  0  0  0
   12.9590  -13.4680   -5.8880 H   0  0  0  0  0  0  0  0  0  0  0  0
   11.6819  -16.7155   -6.6655 H   0  0  0  0  0  0  0  0  0  0  0  0
   12.1600  -16.0013  -10.5590 H   0  0  0  0  0  0  0  0  0  0  0  0
   11.7558  -17.6140   -9.8129 H   0  0  0  0  0  0  0  0  0  0  0  0
   10.3370  -16.1840   -8.3120 H   0  0  0  0  0  0  0  0  0  0  0  0
    9.6645  -14.1386   -8.6210 H   0  0  0  0  0  0  0  0  0  0  0  0
   11.1437  -14.0713   -9.6862 H   0  0  0  0  0  0  0  0  0  0  0  0
    9.1013  -13.1138  -10.7750 H   0  0  0  0  0  0  0  0  0  0  0  0
    9.8189  -14.5385  -11.6499 H   0  0  0  0  0  0  0  0  0  0  0  0
    7.7330  -15.1720  -11.7070 H   0  0  0  0  0  0  0  0  0  0  0  0
    6.7056  -13.9434   -9.2525 H   0  0  0  0  0  0  0  0  0  0  0  0
    6.9641  -13.0012  -10.7598 H   0  0  0  0  0  0  0  0  0  0  0  0
    5.8454  -14.4066  -10.7598 H   0  0  0  0  0  0  0  0  0  0  0  0
    7.6508  -15.9853   -8.8750 H   0  0  0  0  0  0  0  0  0  0  0  0
    7.1734  -16.8911  -10.3701 H   0  0  0  0  0  0  0  0  0  0  0  0
    9.2244  -17.8552   -9.3729 H   0  0  0  0  0  0  0  0  0  0  0  0
    9.5554  -17.1157  -10.9943 H   0  0  0  0  0  0  0  0  0  0  0  0
   16.5825  -15.7788   -8.3059 H   0  0  0  0  0  0  0  0  0  0  0  0
   17.2297  -16.5150   -9.8111 H   0  0  0  0  0  0  0  0  0  0  0  0
   16.6838  -14.8037   -9.8111 H   0  0  0  0  0  0  0  0  0  0  0  0
   15.0641  -18.3670   -9.2764 H   0  0  0  0  0  0  0  0  0  0  0  0
   14.1678  -17.9644  -10.7802 H   0  0  0  0  0  0  0  0  0  0  0  0
   15.9641  -17.9729  -10.7802 H   0  0  0  0  0  0  0  0  0  0  0  0
   14.2298  -14.4913  -10.7477 H   0  0  0  0  0  0  0  0  0  0  0  0
   15.5853  -15.2461  -11.6529 H   0  0  0  0  0  0  0  0  0  0  0  0
   13.9642  -16.0199  -11.6529 H   0  0  0  0  0  0  0  0  0  0  0  0
   11.7207  -14.5338   -3.1084 H   0  0  0  0  0  0  0  0  0  0  0  0
   11.6350  -14.2240   -0.0820 H   0  0  0  0  0  0  0  0  0  0  0  0
    7.6013  -11.1562    2.2410 H   0  0  0  0  0  0  0  0  0  0  0  0
    5.2363  -10.8893    1.4691 H   0  0  0  0  0  0  0  0  0  0  0  0
    4.5403  -11.7551   -0.7467 H   0  0  0  0  0  0  0  0  0  0  0  0
    6.1625  -12.9790   -2.2112 H   0  0  0  0  0  0  0  0  0  0  0  0
    8.5299  -12.7129   -3.8359 H   0  0  0  0  0  0  0  0  0  0  0  0
    8.5740  -13.2320   -6.2150 H   0  0  0  0  0  0  0  0  0  0  0  0
    8.3230  -14.8830   -6.6320 H   0  0  0  0  0  0  0  0  0  0  0  0
    9.7512  -17.3864   -3.1801 H   0  0  0  0  0  0  0  0  0  0  0  0
  1  2  1  0
  2  3  2  0
  3  4  1  0
  4  5  2  0
  5  6  1  0
  6  7  1  0
  7  8  2  0
  7  9  1  0
  9 10  1  0
 10 11  2  0
 11 12  1  0
 12 13  1  0
 13 14  1  0
 14 15  1  0
 15 16  1  0
 16 17  1  0
 16 18  1  0
 18 19  1  0
 11 20  1  0
 20 21  1  0
 21 22  1  0
 21 23  1  0
 21 24  1  0
 20 25  1  0
  5 26  1  0
 26 27  2  0
 27 28  1  0
 28 29  1  0
 29 30  2  0
 30 31  1  0
 31 32  2  0
 32 33  1  0
 33 34  2  0
 34 35  1  0
 35 36  2  0
 36 37  1  0
 37 38  1  0
 38 39  2  0
 39 40  1  0
 40 41  1  0
 40 42  2  0
 42 43  1  0
 43 44  2  0
 27  2  1  0
 37 29  1  0
 44 38  1  0
 25  9  2  0
 36 31  1  0
 19 13  1  0
  1 45  1  0
  1 46  1  0
  1 47  1  0
  3 48  1  0
  4 49  1  0
  6 50  1  0
 10 51  1  0
 12 52  1  0
 12 53  1  0
 13 54  1  0
 14 55  1  0
 14 56  1  0
 15 57  1  0
 15 58  1  0
 16 59  1  0
 17 60  1  0
 17 61  1  0
 17 62  1  0
 18 63  1  0
 18 64  1  0
 19 65  1  0
 19 66  1  0
 22 67  1  0
 22 68  1  0
 22 69  1  0
 23 70  1  0
 23 71  1  0
 23 72  1  0
 24 73  1  0
 24 74  1  0
 24 75  1  0
 26 76  1  0
 28 77  1  0
 32 78  1  0
 33 79  1  0
 34 80  1  0
 35 81  1  0
 39 82  1  0
 41 83  1  0
 41 84  1  0
 43 85  1  0
M  CHG  2  13   1  16   1
M  END
>  <meeko>  (7) 
{"is_sidechain": [false], "free_energy": -8.663, "intermolecular_energy": -12.827, "internal_energy": -2.107}

$$$$
LIB_PPCDZYRDXIKRDW__M_PUB_ALL__e8__s20260927
     RDKit          3D

 85 90  0  0  0  0  0  0  0  0999 V2000
   12.5690  -11.3350    0.1720 C   0  0  0  0  0  0  0  0  0  0  0  0
   12.7420  -11.9150   -1.2080 C   0  0  0  0  0  0  0  0  0  0  0  0
   13.6310  -11.2760   -2.0910 C   0  0  0  0  0  0  0  0  0  0  0  0
   13.8420  -11.7640   -3.3810 C   0  0  0  0  0  0  0  0  0  0  0  0
   13.1650  -12.8980   -3.8090 C   0  0  0  0  0  0  0  0  0  0  0  0
   13.3190  -13.4710   -5.0840 N   0  0  0  0  0  0  0  0  0  0  0  0
   13.8100  -14.7130   -5.4080 C   0  0  0  0  0  0  0  0  0  0  0  0
   14.1930  -15.5960   -4.6490 O   0  0  0  0  0  0  0  0  0  0  0  0
   13.7610  -14.9770   -6.8570 C   0  0  0  0  0  0  0  0  0  0  0  0
   12.5980  -15.1410   -7.6400 C   0  0  0  0  0  0  0  0  0  0  0  0
   13.0240  -15.0930   -8.9550 C   0  0  0  0  0  0  0  0  0  0  0  0
   12.2260  -14.8980  -10.1840 C   0  0  0  0  0  0  0  0  0  0  0  0
   10.8420  -14.2910   -9.9080 N   0  0  0  0  0  0  0  0  0  0  0  0
   10.5610  -12.9650  -10.6260 C   0  0  0  0  0  0  0  0  0  0  0  0
    9.5410  -13.1030  -11.7840 C   0  0  0  0  0  0  0  0  0  0  0  0
    8.2190  -13.7250  -11.3280 N   0  0  0  0  0  0  0  0  0  0  0  0
    7.1020  -12.7110  -11.2000 C   0  0  0  0  0  0  0  0  0  0  0  0
    8.3230  -14.6180  -10.0960 C   0  0  0  0  0  0  0  0  0  0  0  0
    9.7030  -15.3110  -10.0100 C   0  0  0  0  0  0  0  0  0  0  0  0
   14.3930  -15.3120   -8.8710 N   0  0  0  0  0  0  0  0  0  0  0  0
   15.3700  -15.7830   -9.8810 C   0  0  0  0  0  0  0  0  0  0  0  0
   16.7820  -15.8710   -9.2710 C   0  0  0  0  0  0  0  0  0  0  0  0
   14.9400  -17.1440  -10.4530 C   0  0  0  0  0  0  0  0  0  0  0  0
   15.4690  -14.7910  -11.0710 C   0  0  0  0  0  0  0  0  0  0  0  0
   14.8470  -14.9710   -7.6450 N   0  0  0  0  0  0  0  0  0  0  0  0
   12.2700  -13.5310   -2.9350 C   0  0  0  0  0  0  0  0  0  0  0  0
   12.0360  -13.0650   -1.6300 C   0  0  0  0  0  0  0  0  0  0  0  0
   11.1540  -13.7160   -0.7420 N   0  0  0  0  0  0  0  0  0  0  0  0
   10.2850  -14.7370   -0.9640 C   0  0  0  0  0  0  0  0  0  0  0  0
   10.5530  -15.9660   -1.3560 N   0  0  0  0  0  0  0  0  0  0  0  0
    9.3620  -16.6290   -1.3750 C   0  0  0  0  0  0  0  0  0  0  0  0
    9.1240  -17.9780   -1.6840 C   0  0  0  0  0  0  0  0  0  0  0  0
    7.8270  -18.4850   -1.5650 C   0  0  0  0  0  0  0  0  0  0  0  0
    6.7900  -17.6670   -1.1260 C   0  0  0  0  0  0  0  0  0  0  0  0
    7.0100  -16.3180   -0.8220 C   0  0  0  0  0  0  0  0  0  0  0  0
    8.3090  -15.8000   -0.9950 C   0  0  0  0  0  0  0  0  0  0  0  0
    8.8980  -14.5480   -0.8210 N   0  0  0  0  0  0  0  0  0  0  0  0
    8.2590  -13.2900   -0.5520 C   0  0  0  0  0  0  0  0  0  0  0  0
    7.5420  -12.6370   -1.5360 C   0  0  0  0  0  0  0  0  0  0  0  0
    6.9590  -11.4360   -1.1920 C   0  0  0  0  0  0  0  0  0  0  0  0
    6.1880  -10.7400   -2.1000 N   0  0  0  0  0  0  0  0  0  0  0  0
    7.0510  -10.9160    0.0340 N   0  0  0  0  0  0  0  0  0  0  0  0
    7.7910  -11.5940    0.9140 C   0  0  0  0  0  0  0  0  0  0  0  0
    8.4260  -12.7520    0.6830 N   0  0  0  0  0  0  0  0  0  0  0  0
   12.7984  -12.1040    0.9243 H   0  0  0  0  0  0  0  0  0  0  0  0
   13.2518  -10.4821    0.2995 H   0  0  0  0  0  0  0  0  0  0  0  0
   11.5305  -10.9955    0.2995 H   0  0  0  0  0  0  0  0  0  0  0  0
   14.1692  -10.3760   -1.7588 H   0  0  0  0  0  0  0  0  0  0  0  0
   14.5426  -11.2518   -4.0569 H   0  0  0  0  0  0  0  0  0  0  0  0
   13.0120  -12.9110   -5.8770 H   0  0  0  0  0  0  0  0  0  0  0  0
   11.5678  -15.2783   -7.2795 H   0  0  0  0  0  0  0  0  0  0  0  0
   12.7768  -14.2244  -10.8570 H   0  0  0  0  0  0  0  0  0  0  0  0
   12.0680  -15.8885  -10.6357 H   0  0  0  0  0  0  0  0  0  0  0  0
   10.9120  -14.0360   -8.9100 H   0  0  0  0  0  0  0  0  0  0  0  0
   10.1630  -12.2479   -9.8930 H   0  0  0  0  0  0  0  0  0  0  0  0
   11.5099  -12.6230  -11.0648 H   0  0  0  0  0  0  0  0  0  0  0  0
    9.3373  -12.1036  -12.1960 H   0  0  0  0  0  0  0  0  0  0  0  0
    9.9813  -13.7695  -12.5403 H   0  0  0  0  0  0  0  0  0  0  0  0
    7.9160  -14.3290  -12.1140 H   0  0  0  0  0  0  0  0  0  0  0  0
    6.8964  -12.5244  -10.1356 H   0  0  0  0  0  0  0  0  0  0  0  0
    7.4027  -11.7710  -11.6857 H   0  0  0  0  0  0  0  0  0  0  0  0
    6.1953  -13.1010  -11.6857 H   0  0  0  0  0  0  0  0  0  0  0  0
    8.1756  -14.0031   -9.1959 H   0  0  0  0  0  0  0  0  0  0  0  0
    7.5505  -15.3976  -10.1700 H   0  0  0  0  0  0  0  0  0  0  0  0
    9.7226  -15.9579   -9.1205 H   0  0  0  0  0  0  0  0  0  0  0  0
    9.8498  -15.8995  -10.9276 H   0  0  0  0  0  0  0  0  0  0  0  0
   16.7082  -15.8664   -8.1735 H   0  0  0  0  0  0  0  0  0  0  0  0
   17.2671  -16.8011   -9.6020 H   0  0  0  0  0  0  0  0  0  0  0  0
   17.3788  -15.0083   -9.6020 H   0  0  0  0  0  0  0  0  0  0  0  0
   14.7212  -17.8364   -9.6267 H   0  0  0  0  0  0  0  0  0  0  0  0
   14.0392  -17.0140  -11.0707 H   0  0  0  0  0  0  0  0  0  0  0  0
   15.7520  -17.5552  -11.0707 H   0  0  0  0  0  0  0  0  0  0  0  0
   15.5713  -13.7656  -10.6861 H   0  0  0  0  0  0  0  0  0  0  0  0
   16.3466  -15.0414  -11.6851 H   0  0  0  0  0  0  0  0  0  0  0  0
   14.5592  -14.8630  -11.6851 H   0  0  0  0  0  0  0  0  0  0  0  0
   11.7315  -14.4247   -3.2833 H   0  0  0  0  0  0  0  0  0  0  0  0
   11.1840  -13.3590    0.2150 H   0  0  0  0  0  0  0  0  0  0  0  0
    9.9477  -18.6273   -2.0154 H   0  0  0  0  0  0  0  0  0  0  0  0
    7.6247  -19.5358   -1.8196 H   0  0  0  0  0  0  0  0  0  0  0  0
    5.7796  -18.0878   -1.0159 H   0  0  0  0  0  0  0  0  0  0  0  0
    6.1911  -15.6800   -0.4581 H   0  0  0  0  0  0  0  0  0  0  0  0
    7.4409  -13.0563   -2.5479 H   0  0  0  0  0  0  0  0  0  0  0  0
    6.5500  -10.5570   -3.0230 H   0  0  0  0  0  0  0  0  0  0  0  0
    5.6320  -10.0060   -1.6750 H   0  0  0  0  0  0  0  0  0  0  0  0
    7.8888  -11.1630    1.9213 H   0  0  0  0  0  0  0  0  0  0  0  0
  1  2  1  0
  2  3  2  0
  3  4  1  0
  4  5  2  0
  5  6  1  0
  6  7  1  0
  7  8  2  0
  7  9  1  0
  9 10  1  0
 10 11  2  0
 11 12  1  0
 12 13  1  0
 13 14  1  0
 14 15  1  0
 15 16  1  0
 16 17  1  0
 16 18  1  0
 18 19  1  0
 11 20  1  0
 20 21  1  0
 21 22  1  0
 21 23  1  0
 21 24  1  0
 20 25  1  0
  5 26  1  0
 26 27  2  0
 27 28  1  0
 28 29  1  0
 29 30  2  0
 30 31  1  0
 31 32  2  0
 32 33  1  0
 33 34  2  0
 34 35  1  0
 35 36  2  0
 36 37  1  0
 37 38  1  0
 38 39  2  0
 39 40  1  0
 40 41  1  0
 40 42  2  0
 42 43  1  0
 43 44  2  0
 27  2  1  0
 37 29  1  0
 44 38  1  0
 25  9  2  0
 36 31  1  0
 19 13  1  0
  1 45  1  0
  1 46  1  0
  1 47  1  0
  3 48  1  0
  4 49  1  0
  6 50  1  0
 10 51  1  0
 12 52  1  0
 12 53  1  0
 13 54  1  0
 14 55  1  0
 14 56  1  0
 15 57  1  0
 15 58  1  0
 16 59  1  0
 17 60  1  0
 17 61  1  0
 17 62  1  0
 18 63  1  0
 18 64  1  0
 19 65  1  0
 19 66  1  0
 22 67  1  0
 22 68  1  0
 22 69  1  0
 23 70  1  0
 23 71  1  0
 23 72  1  0
 24 73  1  0
 24 74  1  0
 24 75  1  0
 26 76  1  0
 28 77  1  0
 32 78  1  0
 33 79  1  0
 34 80  1  0
 35 81  1  0
 39 82  1  0
 41 83  1  0
 41 84  1  0
 43 85  1  0
M  CHG  2  13   1  16   1
M  END
>  <meeko>  (8) 
{"is_sidechain": [false], "free_energy": -8.585, "intermolecular_energy": -13.081, "internal_energy": -1.735}

$$$$
LIB_PPCDZYRDXIKRDW__M_PUB_ALL__e8__s20260927
     RDKit          3D

 85 90  0  0  0  0  0  0  0  0999 V2000
    5.4970  -12.3110   -6.0380 C   0  0  0  0  0  0  0  0  0  0  0  0
    4.3800  -12.6850   -5.0990 C   0  0  0  0  0  0  0  0  0  0  0  0
    3.3340  -13.4830   -5.5950 C   0  0  0  0  0  0  0  0  0  0  0  0
    2.2720  -13.8720   -4.7780 C   0  0  0  0  0  0  0  0  0  0  0  0
    2.2370  -13.4650   -3.4510 C   0  0  0  0  0  0  0  0  0  0  0  0
    1.2170  -13.8130   -2.5470 N   0  0  0  0  0  0  0  0  0  0  0  0
    1.1040  -14.9500   -1.7850 C   0  0  0  0  0  0  0  0  0  0  0  0
    1.8860  -15.8920   -1.7110 O   0  0  0  0  0  0  0  0  0  0  0  0
   -0.0820  -14.9260   -0.9120 C   0  0  0  0  0  0  0  0  0  0  0  0
   -0.9550  -16.0060   -0.6540 C   0  0  0  0  0  0  0  0  0  0  0  0
   -1.7410  -15.6040    0.4110 C   0  0  0  0  0  0  0  0  0  0  0  0
   -2.5970  -16.4230    1.2950 C   0  0  0  0  0  0  0  0  0  0  0  0
   -2.0050  -16.6020    2.7020 N   0  0  0  0  0  0  0  0  0  0  0  0
   -2.9880  -17.1270    3.7560 C   0  0  0  0  0  0  0  0  0  0  0  0
   -2.7110  -18.5940    4.1700 C   0  0  0  0  0  0  0  0  0  0  0  0
   -1.2770  -18.8030    4.6630 N   0  0  0  0  0  0  0  0  0  0  0  0
   -1.1820  -18.9410    6.1660 C   0  0  0  0  0  0  0  0  0  0  0  0
   -0.2610  -17.8040    4.1160 C   0  0  0  0  0  0  0  0  0  0  0  0
   -0.6490  -17.3150    2.7020 C   0  0  0  0  0  0  0  0  0  0  0  0
   -1.5780  -14.2260    0.4450 N   0  0  0  0  0  0  0  0  0  0  0  0
   -2.4140  -13.1570    1.0430 C   0  0  0  0  0  0  0  0  0  0  0  0
   -2.2710  -13.1490    2.5770 C   0  0  0  0  0  0  0  0  0  0  0  0
   -2.0360  -11.7880    0.4550 C   0  0  0  0  0  0  0  0  0  0  0  0
   -3.9200  -13.3900    0.7450 C   0  0  0  0  0  0  0  0  0  0  0  0
   -0.4120  -13.8780   -0.1430 N   0  0  0  0  0  0  0  0  0  0  0  0
    3.2740  -12.6590   -2.9560 C   0  0  0  0  0  0  0  0  0  0  0  0
    4.3570  -12.2530   -3.7530 C   0  0  0  0  0  0  0  0  0  0  0  0
    5.4120  -11.4640   -3.2490 N   0  0  0  0  0  0  0  0  0  0  0  0
    6.6620  -11.8240   -2.8530 C   0  0  0  0  0  0  0  0  0  0  0  0
    7.7940  -11.7030   -3.5160 N   0  0  0  0  0  0  0  0  0  0  0  0
    8.7760  -12.1460   -2.6800 C   0  0  0  0  0  0  0  0  0  0  0  0
   10.1610  -12.1800   -2.9070 C   0  0  0  0  0  0  0  0  0  0  0  0
   11.0090  -12.6020   -1.8810 C   0  0  0  0  0  0  0  0  0  0  0  0
   10.4880  -12.9640   -0.6430 C   0  0  0  0  0  0  0  0  0  0  0  0
    9.1080  -12.9440   -0.4030 C   0  0  0  0  0  0  0  0  0  0  0  0
    8.2550  -12.5690   -1.4590 C   0  0  0  0  0  0  0  0  0  0  0  0
    6.8740  -12.4480   -1.6100 N   0  0  0  0  0  0  0  0  0  0  0  0
    5.8370  -12.8640   -0.7070 C   0  0  0  0  0  0  0  0  0  0  0  0
    5.4830  -14.1950   -0.6020 C   0  0  0  0  0  0  0  0  0  0  0  0
    4.4800  -14.5070    0.2900 C   0  0  0  0  0  0  0  0  0  0  0  0
    4.0950  -15.8160    0.4890 N   0  0  0  0  0  0  0  0  0  0  0  0
    3.8760  -13.5870    1.0450 N   0  0  0  0  0  0  0  0  0  0  0  0
    4.2530  -12.3210    0.8570 C   0  0  0  0  0  0  0  0  0  0  0  0
    5.1940  -11.8990   -0.0020 N   0  0  0  0  0  0  0  0  0  0  0  0
    6.3819  -12.0147   -5.4556 H   0  0  0  0  0  0  0  0  0  0  0  0
    5.7475  -13.1743   -6.6720 H   0  0  0  0  0  0  0  0  0  0  0  0
    5.1772  -11.4709   -6.6720 H   0  0  0  0  0  0  0  0  0  0  0  0
    3.3533  -13.8065   -6.6462 H   0  0  0  0  0  0  0  0  0  0  0  0
    1.4648  -14.4993   -5.1840 H   0  0  0  0  0  0  0  0  0  0  0  0
    0.4710  -13.1330   -2.4170 H   0  0  0  0  0  0  0  0  0  0  0  0
   -1.0004  -16.9664   -1.1884 H   0  0  0  0  0  0  0  0  0  0  0  0
   -3.5776  -15.9330    1.3865 H   0  0  0  0  0  0  0  0  0  0  0  0
   -2.6794  -17.4219    0.8419 H   0  0  0  0  0  0  0  0  0  0  0  0
   -1.8180  -15.6260    2.9840 H   0  0  0  0  0  0  0  0  0  0  0  0
   -2.9143  -16.4912    4.6506 H   0  0  0  0  0  0  0  0  0  0  0  0
   -3.9931  -17.0968    3.3101 H   0  0  0  0  0  0  0  0  0  0  0  0
   -3.4053  -18.8698    4.9773 H   0  0  0  0  0  0  0  0  0  0  0  0
   -2.8540  -19.2251    3.2805 H   0  0  0  0  0  0  0  0  0  0  0  0
   -1.0010  -19.7380    4.3100 H   0  0  0  0  0  0  0  0  0  0  0  0
   -1.7434  -18.1255    6.6453 H   0  0  0  0  0  0  0  0  0  0  0  0
   -1.6065  -19.9082    6.4730 H   0  0  0  0  0  0  0  0  0  0  0  0
   -0.1269  -18.8897    6.4730 H   0  0  0  0  0  0  0  0  0  0  0  0
   -0.2121  -16.9379    4.7924 H   0  0  0  0  0  0  0  0  0  0  0  0
    0.7152  -18.3067    4.0506 H   0  0  0  0  0  0  0  0  0  0  0  0
    0.1211  -16.6167    2.3424 H   0  0  0  0  0  0  0  0  0  0  0  0
   -0.7229  -18.1930    2.0435 H   0  0  0  0  0  0  0  0  0  0  0  0
   -3.2680  -13.2048    3.0385 H   0  0  0  0  0  0  0  0  0  0  0  0
   -1.6713  -14.0150    2.8939 H   0  0  0  0  0  0  0  0  0  0  0  0
   -1.7716  -12.2215    2.8939 H   0  0  0  0  0  0  0  0  0  0  0  0
   -1.8402  -11.0790    1.2730 H   0  0  0  0  0  0  0  0  0  0  0  0
   -1.1329  -11.8917   -0.1644 H   0  0  0  0  0  0  0  0  0  0  0  0
   -2.8644  -11.4136   -0.1644 H   0  0  0  0  0  0  0  0  0  0  0  0
   -4.4723  -13.4755    1.6924 H   0  0  0  0  0  0  0  0  0  0  0  0
   -4.3146  -12.5422    0.1657 H   0  0  0  0  0  0  0  0  0  0  0  0
   -4.0400  -14.3174    0.1657 H   0  0  0  0  0  0  0  0  0  0  0  0
    3.2372  -12.3335   -1.9059 H   0  0  0  0  0  0  0  0  0  0  0  0
    5.1940  -10.4680   -3.1750 H   0  0  0  0  0  0  0  0  0  0  0  0
   10.5731  -11.8779   -3.8811 H   0  0  0  0  0  0  0  0  0  0  0  0
   12.0945  -12.6484   -2.0526 H   0  0  0  0  0  0  0  0  0  0  0  0
   11.1719  -13.2714    0.1619 H   0  0  0  0  0  0  0  0  0  0  0  0
    8.7018  -13.2137    0.5830 H   0  0  0  0  0  0  0  0  0  0  0  0
    5.9793  -14.9709   -1.2033 H   0  0  0  0  0  0  0  0  0  0  0  0
    3.1830  -16.1200    0.1830 H   0  0  0  0  0  0  0  0  0  0  0  0
    4.4360  -16.2070    1.3610 H   0  0  0  0  0  0  0  0  0  0  0  0
    3.7467  -11.5535    1.4608 H   0  0  0  0  0  0  0  0  0  0  0  0
  1  2  1  0
  2  3  2  0
  3  4  1  0
  4  5  2  0
  5  6  1  0
  6  7  1  0
  7  8  2  0
  7  9  1  0
  9 10  1  0
 10 11  2  0
 11 12  1  0
 12 13  1  0
 13 14  1  0
 14 15  1  0
 15 16  1  0
 16 17  1  0
 16 18  1  0
 18 19  1  0
 11 20  1  0
 20 21  1  0
 21 22  1  0
 21 23  1  0
 21 24  1  0
 20 25  1  0
  5 26  1  0
 26 27  2  0
 27 28  1  0
 28 29  1  0
 29 30  2  0
 30 31  1  0
 31 32  2  0
 32 33  1  0
 33 34  2  0
 34 35  1  0
 35 36  2  0
 36 37  1  0
 37 38  1  0
 38 39  2  0
 39 40  1  0
 40 41  1  0
 40 42  2  0
 42 43  1  0
 43 44  2  0
 27  2  1  0
 37 29  1  0
 44 38  1  0
 25  9  2  0
 36 31  1  0
 19 13  1  0
  1 45  1  0
  1 46  1  0
  1 47  1  0
  3 48  1  0
  4 49  1  0
  6 50  1  0
 10 51  1  0
 12 52  1  0
 12 53  1  0
 13 54  1  0
 14 55  1  0
 14 56  1  0
 15 57  1  0
 15 58  1  0
 16 59  1  0
 17 60  1  0
 17 61  1  0
 17 62  1  0
 18 63  1  0
 18 64  1  0
 19 65  1  0
 19 66  1  0
 22 67  1  0
 22 68  1  0
 22 69  1  0
 23 70  1  0
 23 71  1  0
 23 72  1  0
 24 73  1  0
 24 74  1  0
 24 75  1  0
 26 76  1  0
 28 77  1  0
 32 78  1  0
 33 79  1  0
 34 80  1  0
 35 81  1  0
 39 82  1  0
 41 83  1  0
 41 84  1  0
 43 85  1  0
M  CHG  2  13   1  16   1
M  END
>  <meeko>  (9) 
{"is_sidechain": [false], "free_energy": -8.558, "intermolecular_energy": -12.403, "internal_energy": -2.373}

$$$$
