LIB_PULGHSXSJBTNHW__M_PUB_ALL__e8__s20260927
     RDKit          3D

 53 56  0  0  0  0  0  0  0  0999 V2000
   16.8870  -15.8000   -8.4660 N   0  0  0  0  0  0  0  0  0  0  0  0
   15.7590  -15.5270   -8.4600 C   0  0  0  0  0  0  0  0  0  0  0  0
   14.3340  -15.1680   -8.4090 C   0  0  0  0  0  0  0  0  0  0  0  0
   13.9900  -14.4890   -7.1730 N   0  0  0  0  0  0  0  0  0  0  0  0
   13.5680  -15.2160   -6.0840 C   0  0  0  0  0  0  0  0  0  0  0  0
   13.4900  -16.4390   -6.0990 O   0  0  0  0  0  0  0  0  0  0  0  0
   13.2380  -14.4510   -4.8500 C   0  0  0  0  0  0  0  0  0  0  0  0
   13.4340  -13.0670   -4.8570 C   0  0  0  0  0  0  0  0  0  0  0  0
   13.1400  -12.3040   -3.7200 C   0  0  0  0  0  0  0  0  0  0  0  0
   12.6540  -12.9020   -2.5430 C   0  0  0  0  0  0  0  0  0  0  0  0
   12.3390  -12.1150   -1.3330 C   0  0  0  0  0  0  0  0  0  0  0  0
   13.1290  -11.0770   -0.8860 C   0  0  0  0  0  0  0  0  0  0  0  0
   12.7050  -10.4450    0.2540 C   0  0  0  0  0  0  0  0  0  0  0  0
   11.5900  -10.7880    0.9200 N   0  0  0  0  0  0  0  0  0  0  0  0
   10.8710  -11.8070    0.4340 C   0  0  0  0  0  0  0  0  0  0  0  0
    9.6990  -12.2450    1.0420 N   0  0  0  0  0  0  0  0  0  0  0  0
    8.3580  -12.2880    0.6540 C   0  0  0  0  0  0  0  0  0  0  0  0
    7.5560  -11.1640    0.8750 C   0  0  0  0  0  0  0  0  0  0  0  0
    6.2000  -11.1460    0.5090 C   0  0  0  0  0  0  0  0  0  0  0  0
    5.5750  -12.2480   -0.0880 C   0  0  0  0  0  0  0  0  0  0  0  0
    4.2360  -12.2150   -0.4450 N   0  0  0  0  0  0  0  0  0  0  0  0
    3.8030  -11.9980   -1.8340 C   0  0  0  0  0  0  0  0  0  0  0  0
    3.5080  -13.3210   -2.5490 C   0  0  0  0  0  0  0  0  0  0  0  0
    2.1910  -14.2860   -1.7210 S   0  0  0  0  0  0  0  0  0  0  0  0
    2.8670  -14.2350   -0.0200 C   0  0  0  0  0  0  0  0  0  0  0  0
    3.2100  -12.8090    0.4310 C   0  0  0  0  0  0  0  0  0  0  0  0
    6.3940  -13.3600   -0.3200 C   0  0  0  0  0  0  0  0  0  0  0  0
    7.7520  -13.3830    0.0470 C   0  0  0  0  0  0  0  0  0  0  0  0
   11.2170  -12.4850   -0.6730 N   0  0  0  0  0  0  0  0  0  0  0  0
   12.4730  -14.2990   -2.5570 C   0  0  0  0  0  0  0  0  0  0  0  0
   12.7660  -15.0700   -3.6900 C   0  0  0  0  0  0  0  0  0  0  0  0
   14.1042  -14.5039   -9.2553 H   0  0  0  0  0  0  0  0  0  0  0  0
   13.7467  -16.0966   -8.4623 H   0  0  0  0  0  0  0  0  0  0  0  0
   14.1560  -13.4940   -7.1000 H   0  0  0  0  0  0  0  0  0  0  0  0
   13.8215  -12.5742   -5.7609 H   0  0  0  0  0  0  0  0  0  0  0  0
   13.2922  -11.2149   -3.7478 H   0  0  0  0  0  0  0  0  0  0  0  0
   14.0456  -10.7740   -1.4133 H   0  0  0  0  0  0  0  0  0  0  0  0
   13.3097   -9.6130    0.6441 H   0  0  0  0  0  0  0  0  0  0  0  0
    9.9220  -12.6050    1.9580 H   0  0  0  0  0  0  0  0  0  0  0  0
    7.9972  -10.2734    1.3463 H   0  0  0  0  0  0  0  0  0  0  0  0
    5.6099  -10.2370    0.6974 H   0  0  0  0  0  0  0  0  0  0  0  0
    2.8908  -11.3832   -1.8311 H   0  0  0  0  0  0  0  0  0  0  0  0
    4.6179  -11.4917   -2.3721 H   0  0  0  0  0  0  0  0  0  0  0  0
    3.1905  -13.1022   -3.5792 H   0  0  0  0  0  0  0  0  0  0  0  0
    4.4276  -13.9243   -2.5290 H   0  0  0  0  0  0  0  0  0  0  0  0
    2.1193  -14.6534    0.6699 H   0  0  0  0  0  0  0  0  0  0  0  0
    3.7971  -14.8222   -0.0111 H   0  0  0  0  0  0  0  0  0  0  0  0
    2.3012  -12.1904    0.3928 H   0  0  0  0  0  0  0  0  0  0  0  0
    3.6033  -12.8491    1.4575 H   0  0  0  0  0  0  0  0  0  0  0  0
    5.9604  -14.2464   -0.8061 H   0  0  0  0  0  0  0  0  0  0  0  0
    8.3475  -14.2866   -0.1504 H   0  0  0  0  0  0  0  0  0  0  0  0
   12.0913  -14.7982   -1.6541 H   0  0  0  0  0  0  0  0  0  0  0  0
   12.6246  -16.1606   -3.6660 H   0  0  0  0  0  0  0  0  0  0  0  0
  1  2  3  0
  2  3  1  0
  3  4  1  0
  4  5  1  0
  5  6  2  0
  5  7  1  0
  7  8  2  0
  8  9  1  0
  9 10  2  0
 10 11  1  0
 11 12  2  0
 12 13  1  0
 13 14  2  0
 14 15  1  0
 15 16  1  0
 16 17  1  0
 17 18  2  0
 18 19  1  0
 19 20  2  0
 20 21  1  0
 21 22  1  0
 22 23  1  0
 23 24  1  0
 24 25  1  0
 25 26  1  0
 20 27  1  0
 27 28  2  0
 15 29  2  0
 10 30  1  0
 30 31  2  0
 31  7  1  0
 29 11  1  0
 28 17  1  0
 26 21  1  0
  3 32  1  0
  3 33  1  0
  4 34  1  0
  8 35  1  0
  9 36  1  0
 12 37  1  0
 13 38  1  0
 16 39  1  0
 18 40  1  0
 19 41  1  0
 22 42  1  0
 22 43  1  0
 23 44  1  0
 23 45  1  0
 25 46  1  0
 25 47  1  0
 26 48  1  0
 26 49  1  0
 27 50  1  0
 28 51  1  0
 30 52  1  0
 31 53  1  0
M  END
>  <meeko>  (1) 
{"is_sidechain": [false], "free_energy": -8.063, "intermolecular_energy": -10.891, "internal_energy": -0.813}

$$$$
LIB_PULGHSXSJBTNHW__M_PUB_ALL__e8__s20260927
     RDKit          3D

 53 56  0  0  0  0  0  0  0  0999 V2000
   16.7120  -15.9160   -8.1980 N   0  0  0  0  0  0  0  0  0  0  0  0
   15.5890  -15.6260   -8.2060 C   0  0  0  0  0  0  0  0  0  0  0  0
   14.1690  -15.2430   -8.1750 C   0  0  0  0  0  0  0  0  0  0  0  0
   13.8340  -14.5050   -6.9720 N   0  0  0  0  0  0  0  0  0  0  0  0
   13.5220  -15.1800   -5.8150 C   0  0  0  0  0  0  0  0  0  0  0  0
   13.5370  -16.4040   -5.7420 O   0  0  0  0  0  0  0  0  0  0  0  0
   13.1930  -14.3560   -4.6190 C   0  0  0  0  0  0  0  0  0  0  0  0
   12.4750  -14.9550   -3.5800 C   0  0  0  0  0  0  0  0  0  0  0  0
   12.1400  -14.2220   -2.4350 C   0  0  0  0  0  0  0  0  0  0  0  0
   12.5030  -12.8690   -2.3010 C   0  0  0  0  0  0  0  0  0  0  0  0
   12.1590  -12.0780   -1.1010 C   0  0  0  0  0  0  0  0  0  0  0  0
   12.9470  -11.0500   -0.6290 C   0  0  0  0  0  0  0  0  0  0  0  0
   12.4940  -10.4120    0.4970 C   0  0  0  0  0  0  0  0  0  0  0  0
   11.3550  -10.7430    1.1280 N   0  0  0  0  0  0  0  0  0  0  0  0
   10.6400  -11.7530    0.6190 C   0  0  0  0  0  0  0  0  0  0  0  0
    9.4440  -12.1780    1.1900 N   0  0  0  0  0  0  0  0  0  0  0  0
    8.1740  -12.4690    0.6860 C   0  0  0  0  0  0  0  0  0  0  0  0
    7.0690  -11.7960    1.2160 C   0  0  0  0  0  0  0  0  0  0  0  0
    5.7670  -12.0460    0.7540 C   0  0  0  0  0  0  0  0  0  0  0  0
    5.5000  -12.9830   -0.2520 C   0  0  0  0  0  0  0  0  0  0  0  0
    4.2090  -13.2170   -0.6990 N   0  0  0  0  0  0  0  0  0  0  0  0
    3.0540  -13.2130    0.2110 C   0  0  0  0  0  0  0  0  0  0  0  0
    2.3370  -11.8580    0.2120 C   0  0  0  0  0  0  0  0  0  0  0  0
    1.7150  -11.3950   -1.4460 S   0  0  0  0  0  0  0  0  0  0  0  0
    3.2620  -11.6710   -2.3860 C   0  0  0  0  0  0  0  0  0  0  0  0
    3.8670  -13.0570   -2.1240 C   0  0  0  0  0  0  0  0  0  0  0  0
    6.6170  -13.6360   -0.7860 C   0  0  0  0  0  0  0  0  0  0  0  0
    7.9240  -13.3910   -0.3250 C   0  0  0  0  0  0  0  0  0  0  0  0
   11.0120  -12.4360   -0.4770 N   0  0  0  0  0  0  0  0  0  0  0  0
   13.2190  -12.2850   -3.3640 C   0  0  0  0  0  0  0  0  0  0  0  0
   13.5560  -13.0120   -4.5140 C   0  0  0  0  0  0  0  0  0  0  0  0
   13.9512  -14.6137   -9.0505 H   0  0  0  0  0  0  0  0  0  0  0  0
   13.5672  -16.1637   -8.1889 H   0  0  0  0  0  0  0  0  0  0  0  0
   13.9270  -13.4970   -6.9740 H   0  0  0  0  0  0  0  0  0  0  0  0
   12.1712  -16.0090   -3.6624 H   0  0  0  0  0  0  0  0  0  0  0  0
   11.5821  -14.7134   -1.6243 H   0  0  0  0  0  0  0  0  0  0  0  0
   13.8839  -10.7587   -1.1264 H   0  0  0  0  0  0  0  0  0  0  0  0
   13.0947   -9.5858    0.9051 H   0  0  0  0  0  0  0  0  0  0  0  0
    9.5800  -12.2900    2.1830 H   0  0  0  0  0  0  0  0  0  0  0  0
    7.2233  -11.0538    2.0131 H   0  0  0  0  0  0  0  0  0  0  0  0
    4.9291  -11.4875    1.1967 H   0  0  0  0  0  0  0  0  0  0  0  0
    2.3453  -13.9910   -0.1092 H   0  0  0  0  0  0  0  0  0  0  0  0
    3.4198  -13.4079    1.2299 H   0  0  0  0  0  0  0  0  0  0  0  0
    1.4857  -11.9095    0.9067 H   0  0  0  0  0  0  0  0  0  0  0  0
    3.0652  -11.0940    0.5219 H   0  0  0  0  0  0  0  0  0  0  0  0
    3.0439  -11.5782   -3.4602 H   0  0  0  0  0  0  0  0  0  0  0  0
    3.9933  -10.9183   -2.0564 H   0  0  0  0  0  0  0  0  0  0  0  0
    3.1370  -13.8290   -2.4087 H   0  0  0  0  0  0  0  0  0  0  0  0
    4.7851  -13.1600   -2.7211 H   0  0  0  0  0  0  0  0  0  0  0  0
    6.4680  -14.3666   -1.5947 H   0  0  0  0  0  0  0  0  0  0  0  0
    8.7651  -13.9400   -0.7735 H   0  0  0  0  0  0  0  0  0  0  0  0
   13.5218  -11.2301   -3.2897 H   0  0  0  0  0  0  0  0  0  0  0  0
   14.1057  -12.5243   -5.3326 H   0  0  0  0  0  0  0  0  0  0  0  0
  1  2  3  0
  2  3  1  0
  3  4  1  0
  4  5  1  0
  5  6  2  0
  5  7  1  0
  7  8  2  0
  8  9  1  0
  9 10  2  0
 10 11  1  0
 11 12  2  0
 12 13  1  0
 13 14  2  0
 14 15  1  0
 15 16  1  0
 16 17  1  0
 17 18  2  0
 18 19  1  0
 19 20  2  0
 20 21  1  0
 21 22  1  0
 22 23  1  0
 23 24  1  0
 24 25  1  0
 25 26  1  0
 20 27  1  0
 27 28  2  0
 15 29  2  0
 10 30  1  0
 30 31  2  0
 31  7  1  0
 29 11  1  0
 28 17  1  0
 26 21  1  0
  3 32  1  0
  3 33  1  0
  4 34  1  0
  8 35  1  0
  9 36  1  0
 12 37  1  0
 13 38  1  0
 16 39  1  0
 18 40  1  0
 19 41  1  0
 22 42  1  0
 22 43  1  0
 23 44  1  0
 23 45  1  0
 25 46  1  0
 25 47  1  0
 26 48  1  0
 26 49  1  0
 27 50  1  0
 28 51  1  0
 30 52  1  0
 31 53  1  0
M  END
>  <meeko>  (2) 
{"is_sidechain": [false], "free_energy": -7.885, "intermolecular_energy": -10.91, "internal_energy": -0.553}

$$$$
LIB_PULGHSXSJBTNHW__M_PUB_ALL__e8__s20260927
     RDKit          3D

 53 56  0  0  0  0  0  0  0  0999 V2000
   17.5640   -6.4760   10.6960 N   0  0  0  0  0  0  0  0  0  0  0  0
   16.4510   -6.5030   11.0200 C   0  0  0  0  0  0  0  0  0  0  0  0
   15.0380   -6.5810   11.4220 C   0  0  0  0  0  0  0  0  0  0  0  0
   14.5530   -7.9490   11.4320 N   0  0  0  0  0  0  0  0  0  0  0  0
   14.2040   -8.5460   12.6210 C   0  0  0  0  0  0  0  0  0  0  0  0
   14.2610   -7.9580   13.6950 O   0  0  0  0  0  0  0  0  0  0  0  0
   13.7100   -9.9490   12.5530 C   0  0  0  0  0  0  0  0  0  0  0  0
   12.6020  -10.2980   13.3310 C   0  0  0  0  0  0  0  0  0  0  0  0
   12.1000  -11.6050   13.3020 C   0  0  0  0  0  0  0  0  0  0  0  0
   12.6970  -12.6010   12.5080 C   0  0  0  0  0  0  0  0  0  0  0  0
   12.1830  -13.9860   12.4650 C   0  0  0  0  0  0  0  0  0  0  0  0
   10.8910  -14.2960   12.0970 C   0  0  0  0  0  0  0  0  0  0  0  0
   10.5640  -15.6270   12.1110 C   0  0  0  0  0  0  0  0  0  0  0  0
   11.4260  -16.5980   12.4540 N   0  0  0  0  0  0  0  0  0  0  0  0
   12.6630  -16.2270   12.8040 C   0  0  0  0  0  0  0  0  0  0  0  0
   13.6360  -17.1490   13.1760 N   0  0  0  0  0  0  0  0  0  0  0  0
   14.7840  -17.6550   12.5610 C   0  0  0  0  0  0  0  0  0  0  0  0
   14.6410  -18.5970   11.5380 C   0  0  0  0  0  0  0  0  0  0  0  0
   15.7560  -19.1440   10.8820 C   0  0  0  0  0  0  0  0  0  0  0  0
   17.0680  -18.7860   11.2180 C   0  0  0  0  0  0  0  0  0  0  0  0
   18.1580  -19.3330   10.5600 N   0  0  0  0  0  0  0  0  0  0  0  0
   18.4160  -20.7810   10.5460 C   0  0  0  0  0  0  0  0  0  0  0  0
   17.8740  -21.4410    9.2740 C   0  0  0  0  0  0  0  0  0  0  0  0
   18.6210  -20.7480    7.7530 S   0  0  0  0  0  0  0  0  0  0  0  0
   18.3450  -18.9750    8.1170 C   0  0  0  0  0  0  0  0  0  0  0  0
   18.8570  -18.5750    9.5070 C   0  0  0  0  0  0  0  0  0  0  0  0
   17.1960  -17.8280   12.2320 C   0  0  0  0  0  0  0  0  0  0  0  0
   16.0820  -17.2790   12.8930 C   0  0  0  0  0  0  0  0  0  0  0  0
   13.0660  -14.9460   12.8260 N   0  0  0  0  0  0  0  0  0  0  0  0
   13.8170  -12.2280   11.7400 C   0  0  0  0  0  0  0  0  0  0  0  0
   14.3260  -10.9220   11.7630 C   0  0  0  0  0  0  0  0  0  0  0  0
   14.9318   -6.1586   12.4321 H   0  0  0  0  0  0  0  0  0  0  0  0
   14.4436   -6.0138   10.6906 H   0  0  0  0  0  0  0  0  0  0  0  0
   14.3880   -8.4160   10.5490 H   0  0  0  0  0  0  0  0  0  0  0  0
   12.1219   -9.5417   13.9694 H   0  0  0  0  0  0  0  0  0  0  0  0
   11.2208  -11.8580   13.9127 H   0  0  0  0  0  0  0  0  0  0  0  0
   10.1655  -13.5209   11.8092 H   0  0  0  0  0  0  0  0  0  0  0  0
    9.5413  -15.9151   11.8262 H   0  0  0  0  0  0  0  0  0  0  0  0
   13.4240  -17.4930   14.1010 H   0  0  0  0  0  0  0  0  0  0  0  0
   13.6318  -18.9173   11.2399 H   0  0  0  0  0  0  0  0  0  0  0  0
   15.5937  -19.8773   10.0783 H   0  0  0  0  0  0  0  0  0  0  0  0
   19.5015  -20.9502   10.6006 H   0  0  0  0  0  0  0  0  0  0  0  0
   17.9032  -21.2290   11.4099 H   0  0  0  0  0  0  0  0  0  0  0  0
   18.0920  -22.5184    9.3150 H   0  0  0  0  0  0  0  0  0  0  0  0
   16.7916  -21.2492    9.2326 H   0  0  0  0  0  0  0  0  0  0  0  0
   18.8705  -18.3734    7.3607 H   0  0  0  0  0  0  0  0  0  0  0  0
   17.2603  -18.7937    8.0949 H   0  0  0  0  0  0  0  0  0  0  0  0
   19.9353  -18.7835    9.5679 H   0  0  0  0  0  0  0  0  0  0  0  0
   18.6654  -17.5024    9.6583 H   0  0  0  0  0  0  0  0  0  0  0  0
   18.2030  -17.4932   12.5216 H   0  0  0  0  0  0  0  0  0  0  0  0
   16.2404  -16.5367   13.6892 H   0  0  0  0  0  0  0  0  0  0  0  0
   14.3056  -12.9817   11.1050 H   0  0  0  0  0  0  0  0  0  0  0  0
   15.2090  -10.6641   11.1599 H   0  0  0  0  0  0  0  0  0  0  0  0
  1  2  3  0
  2  3  1  0
  3  4  1  0
  4  5  1  0
  5  6  2  0
  5  7  1  0
  7  8  2  0
  8  9  1  0
  9 10  2  0
 10 11  1  0
 11 12  2  0
 12 13  1  0
 13 14  2  0
 14 15  1  0
 15 16  1  0
 16 17  1  0
 17 18  2  0
 18 19  1  0
 19 20  2  0
 20 21  1  0
 21 22  1  0
 22 23  1  0
 23 24  1  0
 24 25  1  0
 25 26  1  0
 20 27  1  0
 27 28  2  0
 15 29  2  0
 10 30  1  0
 30 31  2  0
 31  7  1  0
 29 11  1  0
 28 17  1  0
 26 21  1  0
  3 32  1  0
  3 33  1  0
  4 34  1  0
  8 35  1  0
  9 36  1  0
 12 37  1  0
 13 38  1  0
 16 39  1  0
 18 40  1  0
 19 41  1  0
 22 42  1  0
 22 43  1  0
 23 44  1  0
 23 45  1  0
 25 46  1  0
 25 47  1  0
 26 48  1  0
 26 49  1  0
 27 50  1  0
 28 51  1  0
 30 52  1  0
 31 53  1  0
M  END
>  <meeko>  (3) 
{"is_sidechain": [false], "free_energy": -7.553, "intermolecular_energy": -10.239, "internal_energy": -0.776}

$$$$
LIB_PULGHSXSJBTNHW__M_PUB_ALL__e8__s20260927
     RDKit          3D

 53 56  0  0  0  0  0  0  0  0999 V2000
    8.4980   -9.9920  -11.6630 N   0  0  0  0  0  0  0  0  0  0  0  0
    8.2380  -11.0330  -11.2210 C   0  0  0  0  0  0  0  0  0  0  0  0
    7.8940  -12.3320  -10.6250 C   0  0  0  0  0  0  0  0  0  0  0  0
    7.1680  -12.1800   -9.3770 N   0  0  0  0  0  0  0  0  0  0  0  0
    6.6290  -13.2820   -8.7560 C   0  0  0  0  0  0  0  0  0  0  0  0
    6.7560  -14.4170   -9.2020 O   0  0  0  0  0  0  0  0  0  0  0  0
    5.9030  -13.0490   -7.4770 C   0  0  0  0  0  0  0  0  0  0  0  0
    6.0770  -13.9720   -6.4400 C   0  0  0  0  0  0  0  0  0  0  0  0
    5.4150  -13.7980   -5.2180 C   0  0  0  0  0  0  0  0  0  0  0  0
    4.5540  -12.7070   -5.0020 C   0  0  0  0  0  0  0  0  0  0  0  0
    3.8450  -12.5060   -3.7210 C   0  0  0  0  0  0  0  0  0  0  0  0
    2.4720  -12.4250   -3.6280 C   0  0  0  0  0  0  0  0  0  0  0  0
    1.9650  -12.2340   -2.3680 C   0  0  0  0  0  0  0  0  0  0  0  0
    2.7290  -12.1300   -1.2690 N   0  0  0  0  0  0  0  0  0  0  0  0
    4.0550  -12.2140   -1.4320 C   0  0  0  0  0  0  0  0  0  0  0  0
    4.9410  -12.1210   -0.3620 N   0  0  0  0  0  0  0  0  0  0  0  0
    6.3210  -12.2870   -0.2250 C   0  0  0  0  0  0  0  0  0  0  0  0
    7.0140  -11.4590    0.6640 C   0  0  0  0  0  0  0  0  0  0  0  0
    8.4020  -11.5750    0.8450 C   0  0  0  0  0  0  0  0  0  0  0  0
    9.1690  -12.5150    0.1460 C   0  0  0  0  0  0  0  0  0  0  0  0
   10.5370  -12.6190    0.3360 N   0  0  0  0  0  0  0  0  0  0  0  0
   11.4230  -13.2250   -0.6690 C   0  0  0  0  0  0  0  0  0  0  0  0
   12.0720  -12.1650   -1.5670 C   0  0  0  0  0  0  0  0  0  0  0  0
   13.0790  -10.9670   -0.6180 S   0  0  0  0  0  0  0  0  0  0  0  0
   11.8310  -10.5300    0.6490 C   0  0  0  0  0  0  0  0  0  0  0  0
   11.2250  -11.7670    1.3240 C   0  0  0  0  0  0  0  0  0  0  0  0
    8.4600  -13.3500   -0.7270 C   0  0  0  0  0  0  0  0  0  0  0  0
    7.0700  -13.2360   -0.9140 C   0  0  0  0  0  0  0  0  0  0  0  0
    4.6380  -12.3940   -2.6290 N   0  0  0  0  0  0  0  0  0  0  0  0
    4.3870  -11.7960   -6.0640 C   0  0  0  0  0  0  0  0  0  0  0  0
    5.0450  -11.9640   -7.2900 C   0  0  0  0  0  0  0  0  0  0  0  0
    7.2685  -12.8941  -11.3341 H   0  0  0  0  0  0  0  0  0  0  0  0
    8.8307  -12.8677  -10.4113 H   0  0  0  0  0  0  0  0  0  0  0  0
    7.1490  -11.2720   -8.9300 H   0  0  0  0  0  0  0  0  0  0  0  0
    6.7376  -14.8395   -6.5853 H   0  0  0  0  0  0  0  0  0  0  0  0
    5.5716  -14.5291   -4.4112 H   0  0  0  0  0  0  0  0  0  0  0  0
    1.8220  -12.5085   -4.5114 H   0  0  0  0  0  0  0  0  0  0  0  0
    0.8735  -12.1622   -2.2517 H   0  0  0  0  0  0  0  0  0  0  0  0
    4.4250  -11.8720    0.4680 H   0  0  0  0  0  0  0  0  0  0  0  0
    6.4593  -10.6995    1.2345 H   0  0  0  0  0  0  0  0  0  0  0  0
    8.9030  -10.9053    1.5595 H   0  0  0  0  0  0  0  0  0  0  0  0
   12.2147  -13.7880   -0.1530 H   0  0  0  0  0  0  0  0  0  0  0  0
   10.8174  -13.8880   -1.3044 H   0  0  0  0  0  0  0  0  0  0  0  0
   12.7203  -12.6704   -2.2980 H   0  0  0  0  0  0  0  0  0  0  0  0
   11.2647  -11.6058   -2.0625 H   0  0  0  0  0  0  0  0  0  0  0  0
   12.3115   -9.9076    1.4182 H   0  0  0  0  0  0  0  0  0  0  0  0
   11.0160   -9.9900    0.1448 H   0  0  0  0  0  0  0  0  0  0  0  0
   12.0282  -12.3464    1.8026 H   0  0  0  0  0  0  0  0  0  0  0  0
   10.4923  -11.4355    2.0745 H   0  0  0  0  0  0  0  0  0  0  0  0
    9.0091  -14.1220   -1.2860 H   0  0  0  0  0  0  0  0  0  0  0  0
    6.5647  -13.9115   -1.6199 H   0  0  0  0  0  0  0  0  0  0  0  0
    3.7226  -10.9301   -5.9272 H   0  0  0  0  0  0  0  0  0  0  0  0
    4.8855  -11.2416   -8.1040 H   0  0  0  0  0  0  0  0  0  0  0  0
  1  2  3  0
  2  3  1  0
  3  4  1  0
  4  5  1  0
  5  6  2  0
  5  7  1  0
  7  8  2  0
  8  9  1  0
  9 10  2  0
 10 11  1  0
 11 12  2  0
 12 13  1  0
 13 14  2  0
 14 15  1  0
 15 16  1  0
 16 17  1  0
 17 18  2  0
 18 19  1  0
 19 20  2  0
 20 21  1  0
 21 22  1  0
 22 23  1  0
 23 24  1  0
 24 25  1  0
 25 26  1  0
 20 27  1  0
 27 28  2  0
 15 29  2  0
 10 30  1  0
 30 31  2  0
 31  7  1  0
 29 11  1  0
 28 17  1  0
 26 21  1  0
  3 32  1  0
  3 33  1  0
  4 34  1  0
  8 35  1  0
  9 36  1  0
 12 37  1  0
 13 38  1  0
 16 39  1  0
 18 40  1  0
 19 41  1  0
 22 42  1  0
 22 43  1  0
 23 44  1  0
 23 45  1  0
 25 46  1  0
 25 47  1  0
 26 48  1  0
 26 49  1  0
 27 50  1  0
 28 51  1  0
 30 52  1  0
 31 53  1  0
M  END
>  <meeko>  (4) 
{"is_sidechain": [false], "free_energy": -7.527, "intermolecular_energy": -10.431, "internal_energy": -0.548}

$$$$
LIB_PULGHSXSJBTNHW__M_PUB_ALL__e8__s20260927
     RDKit          3D

 53 56  0  0  0  0  0  0  0  0999 V2000
   -2.2000  -18.5620    2.5100 N   0  0  0  0  0  0  0  0  0  0  0  0
   -1.9060  -17.4740    2.7820 C   0  0  0  0  0  0  0  0  0  0  0  0
   -1.5040  -16.0940    3.0930 C   0  0  0  0  0  0  0  0  0  0  0  0
   -0.6170  -15.5470    2.0820 N   0  0  0  0  0  0  0  0  0  0  0  0
   -1.1140  -14.7030    1.1170 C   0  0  0  0  0  0  0  0  0  0  0  0
   -2.2910  -14.3620    1.0810 O   0  0  0  0  0  0  0  0  0  0  0  0
   -0.1440  -14.1770    0.1160 C   0  0  0  0  0  0  0  0  0  0  0  0
    0.4140  -12.9140    0.3360 C   0  0  0  0  0  0  0  0  0  0  0  0
    1.3300  -12.3750   -0.5760 C   0  0  0  0  0  0  0  0  0  0  0  0
    1.7040  -13.0760   -1.7370 C   0  0  0  0  0  0  0  0  0  0  0  0
    2.6670  -12.5240   -2.7120 C   0  0  0  0  0  0  0  0  0  0  0  0
    2.4220  -12.4830   -4.0680 C   0  0  0  0  0  0  0  0  0  0  0  0
    3.4160  -11.9440   -4.8440 C   0  0  0  0  0  0  0  0  0  0  0  0
    4.5700  -11.4720   -4.3460 N   0  0  0  0  0  0  0  0  0  0  0  0
    4.7450  -11.5450   -3.0210 C   0  0  0  0  0  0  0  0  0  0  0  0
    5.9010  -11.0850   -2.3990 N   0  0  0  0  0  0  0  0  0  0  0  0
    7.1900  -11.5980   -2.2380 C   0  0  0  0  0  0  0  0  0  0  0  0
    8.0990  -11.4800   -3.2950 C   0  0  0  0  0  0  0  0  0  0  0  0
    9.4080  -11.9780   -3.1960 C   0  0  0  0  0  0  0  0  0  0  0  0
    9.8750  -12.6240   -2.0450 C   0  0  0  0  0  0  0  0  0  0  0  0
   11.1710  -13.1090   -1.9620 N   0  0  0  0  0  0  0  0  0  0  0  0
   11.6200  -14.2760   -2.7360 C   0  0  0  0  0  0  0  0  0  0  0  0
   12.3270  -13.8590   -4.0310 C   0  0  0  0  0  0  0  0  0  0  0  0
   13.8030  -12.8220   -3.7190 S   0  0  0  0  0  0  0  0  0  0  0  0
   13.0230  -11.5960   -2.6040 C   0  0  0  0  0  0  0  0  0  0  0  0
   12.2590  -12.2580   -1.4490 C   0  0  0  0  0  0  0  0  0  0  0  0
    8.9610  -12.7200   -0.9880 C   0  0  0  0  0  0  0  0  0  0  0  0
    7.6470  -12.2250   -1.0830 C   0  0  0  0  0  0  0  0  0  0  0  0
    3.8270  -12.0640   -2.1880 N   0  0  0  0  0  0  0  0  0  0  0  0
    1.1220  -14.3420   -1.9420 C   0  0  0  0  0  0  0  0  0  0  0  0
    0.2040  -14.8880   -1.0340 C   0  0  0  0  0  0  0  0  0  0  0  0
   -2.4052  -15.4661    3.1527 H   0  0  0  0  0  0  0  0  0  0  0  0
   -0.9634  -16.1043    4.0509 H   0  0  0  0  0  0  0  0  0  0  0  0
    0.3770  -15.7210    2.1580 H   0  0  0  0  0  0  0  0  0  0  0  0
    0.1318  -12.3401    1.2310 H   0  0  0  0  0  0  0  0  0  0  0  0
    1.7656  -11.3840   -0.3807 H   0  0  0  0  0  0  0  0  0  0  0  0
    1.4844  -12.8604   -4.5020 H   0  0  0  0  0  0  0  0  0  0  0  0
    3.2595  -11.8959   -5.9318 H   0  0  0  0  0  0  0  0  0  0  0  0
    5.7170  -10.1780   -1.9980 H   0  0  0  0  0  0  0  0  0  0  0  0
    7.7809  -10.9858   -4.2248 H   0  0  0  0  0  0  0  0  0  0  0  0
   10.0892  -11.8566   -4.0511 H   0  0  0  0  0  0  0  0  0  0  0  0
   12.3181  -14.8640   -2.1220 H   0  0  0  0  0  0  0  0  0  0  0  0
   10.7346  -14.8709   -3.0047 H   0  0  0  0  0  0  0  0  0  0  0  0
   12.6399  -14.7654   -4.5701 H   0  0  0  0  0  0  0  0  0  0  0  0
   11.6174  -13.2622   -4.6228 H   0  0  0  0  0  0  0  0  0  0  0  0
   13.8085  -10.9506   -2.1839 H   0  0  0  0  0  0  0  0  0  0  0  0
   12.2993  -11.0168   -3.1963 H   0  0  0  0  0  0  0  0  0  0  0  0
   12.9552  -12.8764   -0.8635 H   0  0  0  0  0  0  0  0  0  0  0  0
   11.8228  -11.4703   -0.8171 H   0  0  0  0  0  0  0  0  0  0  0  0
    9.2814  -13.1990   -0.0510 H   0  0  0  0  0  0  0  0  0  0  0  0
    6.9667  -12.3362   -0.2258 H   0  0  0  0  0  0  0  0  0  0  0  0
    1.3951  -14.9178   -2.8386 H   0  0  0  0  0  0  0  0  0  0  0  0
   -0.2414  -15.8750   -1.2273 H   0  0  0  0  0  0  0  0  0  0  0  0
  1  2  3  0
  2  3  1  0
  3  4  1  0
  4  5  1  0
  5  6  2  0
  5  7  1  0
  7  8  2  0
  8  9  1  0
  9 10  2  0
 10 11  1  0
 11 12  2  0
 12 13  1  0
 13 14  2  0
 14 15  1  0
 15 16  1  0
 16 17  1  0
 17 18  2  0
 18 19  1  0
 19 20  2  0
 20 21  1  0
 21 22  1  0
 22 23  1  0
 23 24  1  0
 24 25  1  0
 25 26  1  0
 20 27  1  0
 27 28  2  0
 15 29  2  0
 10 30  1  0
 30 31  2  0
 31  7  1  0
 29 11  1  0
 28 17  1  0
 26 21  1  0
  3 32  1  0
  3 33  1  0
  4 34  1  0
  8 35  1  0
  9 36  1  0
 12 37  1  0
 13 38  1  0
 16 39  1  0
 18 40  1  0
 19 41  1  0
 22 42  1  0
 22 43  1  0
 23 44  1  0
 23 45  1  0
 25 46  1  0
 25 47  1  0
 26 48  1  0
 26 49  1  0
 27 50  1  0
 28 51  1  0
 30 52  1  0
 31 53  1  0
M  END
>  <meeko>  (5) 
{"is_sidechain": [false], "free_energy": -7.334, "intermolecular_energy": -9.965, "internal_energy": -0.754}

$$$$
LIB_PULGHSXSJBTNHW__M_PUB_ALL__e8__s20260927
     RDKit          3D

 53 56  0  0  0  0  0  0  0  0999 V2000
   14.1420  -15.9510   -5.2580 N   0  0  0  0  0  0  0  0  0  0  0  0
   13.7280  -15.0860   -4.6060 C   0  0  0  0  0  0  0  0  0  0  0  0
   13.1630  -13.9950   -3.7970 C   0  0  0  0  0  0  0  0  0  0  0  0
   11.7200  -13.9110   -3.9350 N   0  0  0  0  0  0  0  0  0  0  0  0
   11.0530  -12.7880   -3.5040 C   0  0  0  0  0  0  0  0  0  0  0  0
   11.6330  -11.8220   -3.0200 O   0  0  0  0  0  0  0  0  0  0  0  0
    9.5750  -12.7700   -3.6830 C   0  0  0  0  0  0  0  0  0  0  0  0
    8.9770  -13.8420   -4.3520 C   0  0  0  0  0  0  0  0  0  0  0  0
    7.5910  -13.8720   -4.5470 C   0  0  0  0  0  0  0  0  0  0  0  0
    6.7660  -12.8280   -4.0910 C   0  0  0  0  0  0  0  0  0  0  0  0
    5.3010  -12.8400   -4.2880 C   0  0  0  0  0  0  0  0  0  0  0  0
    4.6710  -13.6800   -5.1820 C   0  0  0  0  0  0  0  0  0  0  0  0
    3.3060  -13.5700   -5.2520 C   0  0  0  0  0  0  0  0  0  0  0  0
    2.5930  -12.7080   -4.5090 N   0  0  0  0  0  0  0  0  0  0  0  0
    3.2680  -11.9190   -3.6640 C   0  0  0  0  0  0  0  0  0  0  0  0
    2.6310  -10.9920   -2.8460 N   0  0  0  0  0  0  0  0  0  0  0  0
    1.8300  -11.0880   -1.7050 C   0  0  0  0  0  0  0  0  0  0  0  0
    1.9670  -12.2080   -0.8780 C   0  0  0  0  0  0  0  0  0  0  0  0
    1.1900  -12.3640    0.2800 C   0  0  0  0  0  0  0  0  0  0  0  0
    0.2330  -11.4180    0.6700 C   0  0  0  0  0  0  0  0  0  0  0  0
   -0.5250  -11.5860    1.8170 N   0  0  0  0  0  0  0  0  0  0  0  0
   -1.7150  -10.7670    2.0940 C   0  0  0  0  0  0  0  0  0  0  0  0
   -3.0040  -11.4780    1.6670 C   0  0  0  0  0  0  0  0  0  0  0  0
   -3.2400  -13.0760    2.5280 S   0  0  0  0  0  0  0  0  0  0  0  0
   -1.5860  -13.7900    2.2010 C   0  0  0  0  0  0  0  0  0  0  0  0
   -0.4490  -12.8370    2.5920 C   0  0  0  0  0  0  0  0  0  0  0  0
    0.1190  -10.2940   -0.1570 C   0  0  0  0  0  0  0  0  0  0  0  0
    0.8940  -10.1340   -1.3210 C   0  0  0  0  0  0  0  0  0  0  0  0
    4.6050  -11.9560   -3.5360 N   0  0  0  0  0  0  0  0  0  0  0  0
    7.3910  -11.7550   -3.4280 C   0  0  0  0  0  0  0  0  0  0  0  0
    8.7780  -11.7170   -3.2300 C   0  0  0  0  0  0  0  0  0  0  0  0
   13.4096  -14.1716   -2.7396 H   0  0  0  0  0  0  0  0  0  0  0  0
   13.5955  -13.0478   -4.1517 H   0  0  0  0  0  0  0  0  0  0  0  0
   11.2330  -14.6430   -4.4350 H   0  0  0  0  0  0  0  0  0  0  0  0
    9.5996  -14.6674   -4.7277 H   0  0  0  0  0  0  0  0  0  0  0  0
    7.1382  -14.7290   -5.0671 H   0  0  0  0  0  0  0  0  0  0  0  0
    5.2304  -14.3959   -5.8022 H   0  0  0  0  0  0  0  0  0  0  0  0
    2.7663  -14.2225   -5.9541 H   0  0  0  0  0  0  0  0  0  0  0  0
    2.8260  -10.0640   -3.1910 H   0  0  0  0  0  0  0  0  0  0  0  0
    2.7006  -12.9841   -1.1415 H   0  0  0  0  0  0  0  0  0  0  0  0
    1.3372  -13.2590    0.9024 H   0  0  0  0  0  0  0  0  0  0  0  0
   -1.7624  -10.5606    3.1734 H   0  0  0  0  0  0  0  0  0  0  0  0
   -1.6309   -9.8338    1.5178 H   0  0  0  0  0  0  0  0  0  0  0  0
   -3.8593  -10.8248    1.8945 H   0  0  0  0  0  0  0  0  0  0  0  0
   -2.9301  -11.6862    0.5894 H   0  0  0  0  0  0  0  0  0  0  0  0
   -1.4821  -14.7198    2.7795 H   0  0  0  0  0  0  0  0  0  0  0  0
   -1.5096  -13.9769    1.1197 H   0  0  0  0  0  0  0  0  0  0  0  0
   -0.5275  -12.6025    3.6639 H   0  0  0  0  0  0  0  0  0  0  0  0
    0.5118  -13.3274    2.3767 H   0  0  0  0  0  0  0  0  0  0  0  0
   -0.6019   -9.5080    0.1125 H   0  0  0  0  0  0  0  0  0  0  0  0
    0.7563   -9.2352   -1.9401 H   0  0  0  0  0  0  0  0  0  0  0  0
    6.7742  -10.9239   -3.0553 H   0  0  0  0  0  0  0  0  0  0  0  0
    9.2380  -10.8587   -2.7184 H   0  0  0  0  0  0  0  0  0  0  0  0
  1  2  3  0
  2  3  1  0
  3  4  1  0
  4  5  1  0
  5  6  2  0
  5  7  1  0
  7  8  2  0
  8  9  1  0
  9 10  2  0
 10 11  1  0
 11 12  2  0
 12 13  1  0
 13 14  2  0
 14 15  1  0
 15 16  1  0
 16 17  1  0
 17 18  2  0
 18 19  1  0
 19 20  2  0
 20 21  1  0
 21 22  1  0
 22 23  1  0
 23 24  1  0
 24 25  1  0
 25 26  1  0
 20 27  1  0
 27 28  2  0
 15 29  2  0
 10 30  1  0
 30 31  2  0
 31  7  1  0
 29 11  1  0
 28 17  1  0
 26 21  1  0
  3 32  1  0
  3 33  1  0
  4 34  1  0
  8 35  1  0
  9 36  1  0
 12 37  1  0
 13 38  1  0
 16 39  1  0
 18 40  1  0
 19 41  1  0
 22 42  1  0
 22 43  1  0
 23 44  1  0
 23 45  1  0
 25 46  1  0
 25 47  1  0
 26 48  1  0
 26 49  1  0
 27 50  1  0
 28 51  1  0
 30 52  1  0
 31 53  1  0
M  END
>  <meeko>  (6) 
{"is_sidechain": [false], "free_energy": -7.268, "intermolecular_energy": -9.812, "internal_energy": -0.818}

$$$$
LIB_PULGHSXSJBTNHW__M_PUB_ALL__e8__s20260927
     RDKit          3D

 53 56  0  0  0  0  0  0  0  0999 V2000
   -5.4830  -12.3500    0.5490 N   0  0  0  0  0  0  0  0  0  0  0  0
   -5.0430  -12.8370    1.5050 C   0  0  0  0  0  0  0  0  0  0  0  0
   -4.5260  -13.4540    2.7360 C   0  0  0  0  0  0  0  0  0  0  0  0
   -5.5930  -13.8120    3.6520 N   0  0  0  0  0  0  0  0  0  0  0  0
   -5.4990  -14.9610    4.4020 C   0  0  0  0  0  0  0  0  0  0  0  0
   -4.5250  -15.7030    4.3510 O   0  0  0  0  0  0  0  0  0  0  0  0
   -6.6300  -15.2600    5.3230 C   0  0  0  0  0  0  0  0  0  0  0  0
   -6.5480  -14.8020    6.6410 C   0  0  0  0  0  0  0  0  0  0  0  0
   -7.5850  -15.0580    7.5470 C   0  0  0  0  0  0  0  0  0  0  0  0
   -8.7250  -15.7890    7.1660 C   0  0  0  0  0  0  0  0  0  0  0  0
   -9.8290  -16.0710    8.1060 C   0  0  0  0  0  0  0  0  0  0  0  0
  -10.8870  -15.2090    8.3020 C   0  0  0  0  0  0  0  0  0  0  0  0
  -11.8320  -15.6110    9.2110 C   0  0  0  0  0  0  0  0  0  0  0  0
  -11.7620  -16.7690    9.8880 N   0  0  0  0  0  0  0  0  0  0  0  0
  -10.7060  -17.5570    9.6530 C   0  0  0  0  0  0  0  0  0  0  0  0
  -10.5350  -18.7790   10.2970 N   0  0  0  0  0  0  0  0  0  0  0  0
  -11.3480  -19.8970   10.4940 C   0  0  0  0  0  0  0  0  0  0  0  0
  -11.4460  -20.8480    9.4740 C   0  0  0  0  0  0  0  0  0  0  0  0
  -12.2490  -21.9920    9.6110 C   0  0  0  0  0  0  0  0  0  0  0  0
  -12.9990  -22.2430   10.7660 C   0  0  0  0  0  0  0  0  0  0  0  0
  -13.7850  -23.3770   10.8870 N   0  0  0  0  0  0  0  0  0  0  0  0
  -13.7270  -24.4760    9.9110 C   0  0  0  0  0  0  0  0  0  0  0  0
  -12.8000  -25.6030   10.3800 C   0  0  0  0  0  0  0  0  0  0  0  0
  -13.3320  -26.3290   11.9740 S   0  0  0  0  0  0  0  0  0  0  0  0
  -13.5140  -24.7700   12.9170 C   0  0  0  0  0  0  0  0  0  0  0  0
  -14.3840  -23.7410   12.1840 C   0  0  0  0  0  0  0  0  0  0  0  0
  -12.8780  -21.2920   11.7870 C   0  0  0  0  0  0  0  0  0  0  0  0
  -12.0770  -20.1420   11.6540 C   0  0  0  0  0  0  0  0  0  0  0  0
   -9.7320  -17.2390    8.7850 N   0  0  0  0  0  0  0  0  0  0  0  0
   -8.7810  -16.2490    5.8350 C   0  0  0  0  0  0  0  0  0  0  0  0
   -7.7470  -15.9970    4.9240 C   0  0  0  0  0  0  0  0  0  0  0  0
   -3.9659  -14.3626    2.4701 H   0  0  0  0  0  0  0  0  0  0  0  0
   -3.8777  -12.7208    3.2382 H   0  0  0  0  0  0  0  0  0  0  0  0
   -6.3530  -13.1590    3.7970 H   0  0  0  0  0  0  0  0  0  0  0  0
   -5.6632  -14.2367    6.9689 H   0  0  0  0  0  0  0  0  0  0  0  0
   -7.5065  -14.6799    8.5770 H   0  0  0  0  0  0  0  0  0  0  0  0
  -10.9684  -14.2547    7.7610 H   0  0  0  0  0  0  0  0  0  0  0  0
  -12.6922  -14.9506    9.3953 H   0  0  0  0  0  0  0  0  0  0  0  0
   -9.6030  -18.8170   10.6810 H   0  0  0  0  0  0  0  0  0  0  0  0
  -10.8810  -20.6967    8.5424 H   0  0  0  0  0  0  0  0  0  0  0  0
  -12.2900  -22.7150    8.7830 H   0  0  0  0  0  0  0  0  0  0  0  0
  -14.7396  -24.8823    9.7712 H   0  0  0  0  0  0  0  0  0  0  0  0
  -13.3290  -24.0754    8.9670 H   0  0  0  0  0  0  0  0  0  0  0  0
  -12.7927  -26.3948    9.6165 H   0  0  0  0  0  0  0  0  0  0  0  0
  -11.7980  -25.1733   10.5258 H   0  0  0  0  0  0  0  0  0  0  0  0
  -13.9779  -24.9968   13.8883 H   0  0  0  0  0  0  0  0  0  0  0  0
  -12.5117  -24.3341   13.0408 H   0  0  0  0  0  0  0  0  0  0  0  0
  -15.3823  -24.1699   12.0124 H   0  0  0  0  0  0  0  0  0  0  0  0
  -14.4573  -22.8358   12.8046 H   0  0  0  0  0  0  0  0  0  0  0  0
  -13.4285  -21.4493   12.7263 H   0  0  0  0  0  0  0  0  0  0  0  0
  -12.0262  -19.4221   12.4841 H   0  0  0  0  0  0  0  0  0  0  0  0
   -9.6598  -16.8210    5.5027 H   0  0  0  0  0  0  0  0  0  0  0  0
   -7.8150  -16.3795    3.8949 H   0  0  0  0  0  0  0  0  0  0  0  0
  1  2  3  0
  2  3  1  0
  3  4  1  0
  4  5  1  0
  5  6  2  0
  5  7  1  0
  7  8  2  0
  8  9  1  0
  9 10  2  0
 10 11  1  0
 11 12  2  0
 12 13  1  0
 13 14  2  0
 14 15  1  0
 15 16  1  0
 16 17  1  0
 17 18  2  0
 18 19  1  0
 19 20  2  0
 20 21  1  0
 21 22  1  0
 22 23  1  0
 23 24  1  0
 24 25  1  0
 25 26  1  0
 20 27  1  0
 27 28  2  0
 15 29  2  0
 10 30  1  0
 30 31  2  0
 31  7  1  0
 29 11  1  0
 28 17  1  0
 26 21  1  0
  3 32  1  0
  3 33  1  0
  4 34  1  0
  8 35  1  0
  9 36  1  0
 12 37  1  0
 13 38  1  0
 16 39  1  0
 18 40  1  0
 19 41  1  0
 22 42  1  0
 22 43  1  0
 23 44  1  0
 23 45  1  0
 25 46  1  0
 25 47  1  0
 26 48  1  0
 26 49  1  0
 27 50  1  0
 28 51  1  0
 30 52  1  0
 31 53  1  0
M  END
>  <meeko>  (7) 
{"is_sidechain": [false], "free_energy": -7.222, "intermolecular_energy": -9.802, "internal_energy": -0.766}

$$$$
LIB_PULGHSXSJBTNHW__M_PUB_ALL__e8__s20260927
     RDKit          3D

 53 56  0  0  0  0  0  0  0  0999 V2000
   13.1840  -10.2330    0.3100 N   0  0  0  0  0  0  0  0  0  0  0  0
   13.0360  -10.9770   -0.5690 C   0  0  0  0  0  0  0  0  0  0  0  0
   12.8050  -11.9120   -1.6790 C   0  0  0  0  0  0  0  0  0  0  0  0
   11.4170  -11.9190   -2.1020 N   0  0  0  0  0  0  0  0  0  0  0  0
   10.5670  -12.9050   -1.6580 C   0  0  0  0  0  0  0  0  0  0  0  0
   10.9280  -13.7860   -0.8850 O   0  0  0  0  0  0  0  0  0  0  0  0
    9.1560  -12.8430   -2.1290 C   0  0  0  0  0  0  0  0  0  0  0  0
    8.8150  -13.5470   -3.2880 C   0  0  0  0  0  0  0  0  0  0  0  0
    7.5010  -13.5200   -3.7730 C   0  0  0  0  0  0  0  0  0  0  0  0
    6.4970  -12.7810   -3.1220 C   0  0  0  0  0  0  0  0  0  0  0  0
    5.1060  -12.7390   -3.6180 C   0  0  0  0  0  0  0  0  0  0  0  0
    4.6670  -13.4910   -4.6870 C   0  0  0  0  0  0  0  0  0  0  0  0
    3.3480  -13.3390   -5.0290 C   0  0  0  0  0  0  0  0  0  0  0  0
    2.5050  -12.5170   -4.3840 N   0  0  0  0  0  0  0  0  0  0  0  0
    2.9980  -11.8120   -3.3580 C   0  0  0  0  0  0  0  0  0  0  0  0
    2.2140  -10.9320   -2.6180 N   0  0  0  0  0  0  0  0  0  0  0  0
    1.3840  -11.0690   -1.5030 C   0  0  0  0  0  0  0  0  0  0  0  0
    1.4250  -12.2620   -0.7750 C   0  0  0  0  0  0  0  0  0  0  0  0
    0.6140  -12.4630    0.3530 C   0  0  0  0  0  0  0  0  0  0  0  0
   -0.2830  -11.4880    0.8090 C   0  0  0  0  0  0  0  0  0  0  0  0
   -1.0760  -11.7000    1.9250 N   0  0  0  0  0  0  0  0  0  0  0  0
   -2.4120  -11.0980    2.0610 C   0  0  0  0  0  0  0  0  0  0  0  0
   -3.5170  -12.0700    1.6350 C   0  0  0  0  0  0  0  0  0  0  0  0
   -3.5180  -13.6080    2.6280 S   0  0  0  0  0  0  0  0  0  0  0  0
   -1.7440  -14.0250    2.4560 C   0  0  0  0  0  0  0  0  0  0  0  0
   -0.8280  -12.8470    2.8160 C   0  0  0  0  0  0  0  0  0  0  0  0
   -0.3010  -10.2920    0.0810 C   0  0  0  0  0  0  0  0  0  0  0  0
    0.5070  -10.0870   -1.0520 C   0  0  0  0  0  0  0  0  0  0  0  0
    4.2780  -11.8940   -2.9590 N   0  0  0  0  0  0  0  0  0  0  0  0
    6.8660  -12.0730   -1.9620 C   0  0  0  0  0  0  0  0  0  0  0  0
    8.1790  -12.0950   -1.4710 C   0  0  0  0  0  0  0  0  0  0  0  0
   13.4346  -11.6151   -2.5307 H   0  0  0  0  0  0  0  0  0  0  0  0
   13.0598  -12.9237   -1.3305 H   0  0  0  0  0  0  0  0  0  0  0  0
   11.0670  -11.1390   -2.6450 H   0  0  0  0  0  0  0  0  0  0  0  0
    9.5831  -14.1255   -3.8222 H   0  0  0  0  0  0  0  0  0  0  0  0
    7.2496  -14.0880   -4.6808 H   0  0  0  0  0  0  0  0  0  0  0  0
    5.3355  -14.1727   -5.2332 H   0  0  0  0  0  0  0  0  0  0  0  0
    2.9597  -13.9218   -5.8773 H   0  0  0  0  0  0  0  0  0  0  0  0
    2.3050  -10.0060   -3.0100 H   0  0  0  0  0  0  0  0  0  0  0  0
    2.1091  -13.0622   -1.0938 H   0  0  0  0  0  0  0  0  0  0  0  0
    0.6850  -13.4167    0.8965 H   0  0  0  0  0  0  0  0  0  0  0  0
   -2.5708  -10.8162    3.1124 H   0  0  0  0  0  0  0  0  0  0  0  0
   -2.4593  -10.2160    1.4053 H   0  0  0  0  0  0  0  0  0  0  0  0
   -4.4905  -11.5720    1.7548 H   0  0  0  0  0  0  0  0  0  0  0  0
   -3.3318  -12.3485    0.5871 H   0  0  0  0  0  0  0  0  0  0  0  0
   -1.5132  -14.8686    3.1231 H   0  0  0  0  0  0  0  0  0  0  0  0
   -1.5608  -14.2823    1.4023 H   0  0  0  0  0  0  0  0  0  0  0  0
   -1.0214  -12.5444    3.8557 H   0  0  0  0  0  0  0  0  0  0  0  0
    0.2184  -13.1652    2.6982 H   0  0  0  0  0  0  0  0  0  0  0  0
   -0.9715   -9.4832    0.4070 H   0  0  0  0  0  0  0  0  0  0  0  0
    0.4444   -9.1310   -1.5926 H   0  0  0  0  0  0  0  0  0  0  0  0
    6.1040  -11.4873   -1.4270 H   0  0  0  0  0  0  0  0  0  0  0  0
    8.4387  -11.5232   -0.5679 H   0  0  0  0  0  0  0  0  0  0  0  0
  1  2  3  0
  2  3  1  0
  3  4  1  0
  4  5  1  0
  5  6  2  0
  5  7  1  0
  7  8  2  0
  8  9  1  0
  9 10  2  0
 10 11  1  0
 11 12  2  0
 12 13  1  0
 13 14  2  0
 14 15  1  0
 15 16  1  0
 16 17  1  0
 17 18  2  0
 18 19  1  0
 19 20  2  0
 20 21  1  0
 21 22  1  0
 22 23  1  0
 23 24  1  0
 24 25  1  0
 25 26  1  0
 20 27  1  0
 27 28  2  0
 15 29  2  0
 10 30  1  0
 30 31  2  0
 31  7  1  0
 29 11  1  0
 28 17  1  0
 26 21  1  0
  3 32  1  0
  3 33  1  0
  4 34  1  0
  8 35  1  0
  9 36  1  0
 12 37  1  0
 13 38  1  0
 16 39  1  0
 18 40  1  0
 19 41  1  0
 22 42  1  0
 22 43  1  0
 23 44  1  0
 23 45  1  0
 25 46  1  0
 25 47  1  0
 26 48  1  0
 26 49  1  0
 27 50  1  0
 28 51  1  0
 30 52  1  0
 31 53  1  0
M  END
>  <meeko>  (8) 
{"is_sidechain": [false], "free_energy": -7.113, "intermolecular_energy": -9.623, "internal_energy": -0.797}

$$$$
LIB_PULGHSXSJBTNHW__M_PUB_ALL__e8__s20260927
     RDKit          3D

 53 56  0  0  0  0  0  0  0  0999 V2000
   18.0420  -17.7340  -12.0730 N   0  0  0  0  0  0  0  0  0  0  0  0
   17.7380  -17.0650  -11.1750 C   0  0  0  0  0  0  0  0  0  0  0  0
   17.3180  -16.2020  -10.0600 C   0  0  0  0  0  0  0  0  0  0  0  0
   16.0290  -15.5830  -10.3110 N   0  0  0  0  0  0  0  0  0  0  0  0
   15.3480  -14.9740   -9.2840 C   0  0  0  0  0  0  0  0  0  0  0  0
   15.7960  -14.9060   -8.1450 O   0  0  0  0  0  0  0  0  0  0  0  0
   14.0350  -14.3560   -9.6170 C   0  0  0  0  0  0  0  0  0  0  0  0
   12.9620  -14.5730   -8.7480 C   0  0  0  0  0  0  0  0  0  0  0  0
   11.7060  -14.0140   -9.0180 C   0  0  0  0  0  0  0  0  0  0  0  0
   11.4850  -13.2350  -10.1680 C   0  0  0  0  0  0  0  0  0  0  0  0
   10.1680  -12.6380  -10.4710 C   0  0  0  0  0  0  0  0  0  0  0  0
   10.0110  -11.5500  -11.3040 C   0  0  0  0  0  0  0  0  0  0  0  0
    8.7250  -11.1100  -11.4840 C   0  0  0  0  0  0  0  0  0  0  0  0
    7.6580  -11.6810  -10.9020 N   0  0  0  0  0  0  0  0  0  0  0  0
    7.8820  -12.7310  -10.1020 C   0  0  0  0  0  0  0  0  0  0  0  0
    6.8510  -13.3990   -9.4500 N   0  0  0  0  0  0  0  0  0  0  0  0
    6.3710  -13.4050   -8.1380 C   0  0  0  0  0  0  0  0  0  0  0  0
    5.5210  -12.3740   -7.7260 C   0  0  0  0  0  0  0  0  0  0  0  0
    5.0090  -12.3220   -6.4200 C   0  0  0  0  0  0  0  0  0  0  0  0
    5.3220  -13.2890   -5.4570 C   0  0  0  0  0  0  0  0  0  0  0  0
    4.8060  -13.2260   -4.1730 N   0  0  0  0  0  0  0  0  0  0  0  0
    5.0080  -12.0540   -3.3070 C   0  0  0  0  0  0  0  0  0  0  0  0
    3.8130  -11.0960   -3.3610 C   0  0  0  0  0  0  0  0  0  0  0  0
    2.2530  -11.8920   -2.8310 S   0  0  0  0  0  0  0  0  0  0  0  0
    2.3500  -13.3790   -3.8950 C   0  0  0  0  0  0  0  0  0  0  0  0
    3.6960  -14.1050   -3.7650 C   0  0  0  0  0  0  0  0  0  0  0  0
    6.1590  -14.3260   -5.8880 C   0  0  0  0  0  0  0  0  0  0  0  0
    6.6780  -14.3810   -7.1950 C   0  0  0  0  0  0  0  0  0  0  0  0
    9.1090  -13.2240   -9.8650 N   0  0  0  0  0  0  0  0  0  0  0  0
   12.5780  -13.0370  -11.0340 C   0  0  0  0  0  0  0  0  0  0  0  0
   13.8370  -13.5940  -10.7710 C   0  0  0  0  0  0  0  0  0  0  0  0
   17.2486  -16.8102   -9.1461 H   0  0  0  0  0  0  0  0  0  0  0  0
   18.0646  -15.4020   -9.9479 H   0  0  0  0  0  0  0  0  0  0  0  0
   15.6920  -15.5250  -11.2640 H   0  0  0  0  0  0  0  0  0  0  0  0
   13.1046  -15.1866   -7.8463 H   0  0  0  0  0  0  0  0  0  0  0  0
   10.8764  -14.1878   -8.3168 H   0  0  0  0  0  0  0  0  0  0  0  0
   10.8670  -11.0640  -11.7950 H   0  0  0  0  0  0  0  0  0  0  0  0
    8.5584  -10.2430  -12.1402 H   0  0  0  0  0  0  0  0  0  0  0  0
    6.3740  -13.9900  -10.1140 H   0  0  0  0  0  0  0  0  0  0  0  0
    5.2471  -11.5852   -8.4421 H   0  0  0  0  0  0  0  0  0  0  0  0
    4.3396  -11.4940   -6.1440 H   0  0  0  0  0  0  0  0  0  0  0  0
    5.1440  -12.3960   -2.2704 H   0  0  0  0  0  0  0  0  0  0  0  0
    5.8970  -11.5134   -3.6639 H   0  0  0  0  0  0  0  0  0  0  0  0
    4.0157  -10.2413   -2.6989 H   0  0  0  0  0  0  0  0  0  0  0  0
    3.6873  -10.7767   -4.4061 H   0  0  0  0  0  0  0  0  0  0  0  0
    1.5456  -14.0721   -3.6075 H   0  0  0  0  0  0  0  0  0  0  0  0
    2.2455  -13.0511   -4.9398 H   0  0  0  0  0  0  0  0  0  0  0  0
    3.8424  -14.4085   -2.7179 H   0  0  0  0  0  0  0  0  0  0  0  0
    3.6855  -14.9876   -4.4215 H   0  0  0  0  0  0  0  0  0  0  0  0
    6.4200  -15.1260   -5.1796 H   0  0  0  0  0  0  0  0  0  0  0  0
    7.3402  -15.2129   -7.4769 H   0  0  0  0  0  0  0  0  0  0  0  0
   12.4399  -12.4293  -11.9405 H   0  0  0  0  0  0  0  0  0  0  0  0
   14.6684  -13.4313  -11.4726 H   0  0  0  0  0  0  0  0  0  0  0  0
  1  2  3  0
  2  3  1  0
  3  4  1  0
  4  5  1  0
  5  6  2  0
  5  7  1  0
  7  8  2  0
  8  9  1  0
  9 10  2  0
 10 11  1  0
 11 12  2  0
 12 13  1  0
 13 14  2  0
 14 15  1  0
 15 16  1  0
 16 17  1  0
 17 18  2  0
 18 19  1  0
 19 20  2  0
 20 21  1  0
 21 22  1  0
 22 23  1  0
 23 24  1  0
 24 25  1  0
 25 26  1  0
 20 27  1  0
 27 28  2  0
 15 29  2  0
 10 30  1  0
 30 31  2  0
 31  7  1  0
 29 11  1  0
 28 17  1  0
 26 21  1  0
  3 32  1  0
  3 33  1  0
  4 34  1  0
  8 35  1  0
  9 36  1  0
 12 37  1  0
 13 38  1  0
 16 39  1  0
 18 40  1  0
 19 41  1  0
 22 42  1  0
 22 43  1  0
 23 44  1  0
 23 45  1  0
 25 46  1  0
 25 47  1  0
 26 48  1  0
 26 49  1  0
 27 50  1  0
 28 51  1  0
 30 52  1  0
 31 53  1  0
M  END
>  <meeko>  (9) 
{"is_sidechain": [false], "free_energy": -7.028, "intermolecular_energy": -9.551, "internal_energy": -0.754}

$$$$
