LIB_VEXPKIRCYBYITI__M_PUB_ALL__e8__s20260927
     RDKit          3D

 59 63  0  0  0  0  0  0  0  0999 V2000
   -0.4840  -15.4910    6.5680 C   0  0  0  0  0  0  0  0  0  0  0  0
    0.4750  -14.4910    6.2310 O   0  0  0  0  0  0  0  0  0  0  0  0
    0.6900  -14.3770    4.8710 C   0  0  0  0  0  0  0  0  0  0  0  0
   -0.3050  -13.7480    4.1570 C   0  0  0  0  0  0  0  0  0  0  0  0
   -0.0980  -13.6260    2.7990 C   0  0  0  0  0  0  0  0  0  0  0  0
   -1.0750  -12.9880    1.9620 N   0  0  0  0  0  0  0  0  0  0  0  0
   -1.8780  -13.6430    1.0100 C   0  0  0  0  0  0  0  0  0  0  0  0
   -1.8540  -14.9970    0.8890 N   0  0  0  0  0  0  0  0  0  0  0  0
   -2.2250  -15.9960    1.8160 C   0  0  0  0  0  0  0  0  0  0  0  0
   -3.2610  -15.8150    2.7500 C   0  0  0  0  0  0  0  0  0  0  0  0
   -3.6410  -16.8160    3.6570 C   0  0  0  0  0  0  0  0  0  0  0  0
   -4.6980  -16.5110    4.5410 N   0  0  0  0  0  0  0  0  0  0  0  0
   -4.6910  -16.5910    5.9200 C   0  0  0  0  0  0  0  0  0  0  0  0
   -3.7380  -16.8630    6.6410 O   0  0  0  0  0  0  0  0  0  0  0  0
   -5.9930  -16.2690    6.5740 C   0  0  0  0  0  0  0  0  0  0  0  0
   -6.0550  -15.6860    7.8450 C   0  0  0  0  0  0  0  0  0  0  0  0
   -7.2930  -15.3910    8.4170 C   0  0  0  0  0  0  0  0  0  0  0  0
   -8.4720  -15.6700    7.7210 C   0  0  0  0  0  0  0  0  0  0  0  0
   -8.4270  -16.2450    6.4410 C   0  0  0  0  0  0  0  0  0  0  0  0
   -9.6970  -16.5140    5.6720 C   0  0  0  0  0  0  0  0  0  0  0  0
   -9.6410  -16.0450    4.3970 F   0  0  0  0  0  0  0  0  0  0  0  0
   -9.9930  -17.8400    5.5750 F   0  0  0  0  0  0  0  0  0  0  0  0
  -10.7940  -15.9320    6.2360 F   0  0  0  0  0  0  0  0  0  0  0  0
   -7.1770  -16.5310    5.8700 C   0  0  0  0  0  0  0  0  0  0  0  0
   -2.9780  -18.0360    3.6280 C   0  0  0  0  0  0  0  0  0  0  0  0
   -1.9510  -18.2500    2.7090 C   0  0  0  0  0  0  0  0  0  0  0  0
   -1.5690  -17.2500    1.7990 C   0  0  0  0  0  0  0  0  0  0  0  0
   -0.4600  -17.5570    0.8280 C   0  0  0  0  0  0  0  0  0  0  0  0
   -2.5440  -12.7700    0.2830 N   0  0  0  0  0  0  0  0  0  0  0  0
   -2.2900  -11.5460    0.8240 C   0  0  0  0  0  0  0  0  0  0  0  0
   -2.8120  -10.3010    0.4380 C   0  0  0  0  0  0  0  0  0  0  0  0
   -2.4800   -9.1650    1.1790 C   0  0  0  0  0  0  0  0  0  0  0  0
   -1.6570   -9.2700    2.2970 C   0  0  0  0  0  0  0  0  0  0  0  0
   -1.1210  -10.5030    2.6890 C   0  0  0  0  0  0  0  0  0  0  0  0
   -1.4200  -11.6370    1.9090 C   0  0  0  0  0  0  0  0  0  0  0  0
    1.0520  -14.0570    2.2170 N   0  0  0  0  0  0  0  0  0  0  0  0
    1.9450  -14.6650    3.0140 C   0  0  0  0  0  0  0  0  0  0  0  0
    1.8190  -14.8570    4.3280 N   0  0  0  0  0  0  0  0  0  0  0  0
   -0.5609  -15.5712    7.6624 H   0  0  0  0  0  0  0  0  0  0  0  0
   -1.4637  -15.2149    6.1508 H   0  0  0  0  0  0  0  0  0  0  0  0
   -0.1672  -16.4583    6.1508 H   0  0  0  0  0  0  0  0  0  0  0  0
   -1.2143  -13.3642    4.6426 H   0  0  0  0  0  0  0  0  0  0  0  0
   -1.4710  -15.3620    0.0190 H   0  0  0  0  0  0  0  0  0  0  0  0
   -3.7933  -14.8526    2.7702 H   0  0  0  0  0  0  0  0  0  0  0  0
   -5.5370  -16.1590    4.0980 H   0  0  0  0  0  0  0  0  0  0  0  0
   -5.1281  -15.4605    8.3927 H   0  0  0  0  0  0  0  0  0  0  0  0
   -7.3409  -14.9378    9.4181 H   0  0  0  0  0  0  0  0  0  0  0  0
   -9.4441  -15.4371    8.1801 H   0  0  0  0  0  0  0  0  0  0  0  0
   -7.1258  -16.9649    4.8605 H   0  0  0  0  0  0  0  0  0  0  0  0
   -3.2629  -18.8336    4.3299 H   0  0  0  0  0  0  0  0  0  0  0  0
   -1.4307  -19.2191    2.6964 H   0  0  0  0  0  0  0  0  0  0  0  0
    0.4547  -17.8102    1.3841 H   0  0  0  0  0  0  0  0  0  0  0  0
   -0.7518  -18.4081    0.1952 H   0  0  0  0  0  0  0  0  0  0  0  0
   -0.2726  -16.6770    0.1952 H   0  0  0  0  0  0  0  0  0  0  0  0
   -3.4740  -10.2216   -0.4369 H   0  0  0  0  0  0  0  0  0  0  0  0
   -2.8708   -8.1819    0.8778 H   0  0  0  0  0  0  0  0  0  0  0  0
   -1.4236   -8.3686    2.8827 H   0  0  0  0  0  0  0  0  0  0  0  0
   -0.4837  -10.5836    3.5819 H   0  0  0  0  0  0  0  0  0  0  0  0
    2.8646  -15.0390    2.5402 H   0  0  0  0  0  0  0  0  0  0  0  0
  1  2  1  0
  2  3  1  0
  3  4  2  0
  4  5  1  0
  5  6  1  0
  6  7  1  0
  7  8  1  0
  8  9  1  0
  9 10  2  0
 10 11  1  0
 11 12  1  0
 12 13  1  0
 13 14  2  0
 13 15  1  0
 15 16  2  0
 16 17  1  0
 17 18  2  0
 18 19  1  0
 19 20  1  0
 20 21  1  0
 20 22  1  0
 20 23  1  0
 19 24  2  0
 11 25  2  0
 25 26  1  0
 26 27  2  0
 27 28  1  0
  7 29  2  0
 29 30  1  0
 30 31  2  0
 31 32  1  0
 32 33  2  0
 33 34  1  0
 34 35  2  0
  5 36  2  0
 36 37  1  0
 37 38  2  0
 38  3  1  0
 35  6  1  0
 27  9  1  0
 35 30  1  0
 24 15  1  0
  1 39  1  0
  1 40  1  0
  1 41  1  0
  4 42  1  0
  8 43  1  0
 10 44  1  0
 12 45  1  0
 16 46  1  0
 17 47  1  0
 18 48  1  0
 24 49  1  0
 25 50  1  0
 26 51  1  0
 28 52  1  0
 28 53  1  0
 28 54  1  0
 31 55  1  0
 32 56  1  0
 33 57  1  0
 34 58  1  0
 37 59  1  0
M  END
>  <meeko>  (1) 
{"is_sidechain": [false], "free_energy": -9.086, "intermolecular_energy": -12.804, "internal_energy": -1.943}

$$$$
LIB_VEXPKIRCYBYITI__M_PUB_ALL__e8__s20260927
     RDKit          3D

 59 63  0  0  0  0  0  0  0  0999 V2000
    7.4610   -8.0640    1.2490 C   0  0  0  0  0  0  0  0  0  0  0  0
    6.6360   -8.9220    2.0340 O   0  0  0  0  0  0  0  0  0  0  0  0
    6.4370  -10.1630    1.4610 C   0  0  0  0  0  0  0  0  0  0  0  0
    7.1730  -10.4250    0.3270 C   0  0  0  0  0  0  0  0  0  0  0  0
    6.9840  -11.6630   -0.2500 C   0  0  0  0  0  0  0  0  0  0  0  0
    7.7010  -12.0370   -1.4370 N   0  0  0  0  0  0  0  0  0  0  0  0
    7.2180  -11.9020   -2.7520 C   0  0  0  0  0  0  0  0  0  0  0  0
    6.0310  -11.2870   -2.9990 N   0  0  0  0  0  0  0  0  0  0  0  0
    4.7260  -11.8240   -3.0550 C   0  0  0  0  0  0  0  0  0  0  0  0
    3.8430  -11.7820   -1.9610 C   0  0  0  0  0  0  0  0  0  0  0  0
    2.5400  -12.2980   -2.0240 C   0  0  0  0  0  0  0  0  0  0  0  0
    1.7510  -12.1900   -0.8570 N   0  0  0  0  0  0  0  0  0  0  0  0
    1.6820  -13.0800    0.1960 C   0  0  0  0  0  0  0  0  0  0  0  0
    2.3560  -14.0920    0.3560 O   0  0  0  0  0  0  0  0  0  0  0  0
    0.6960  -12.7230    1.2560 C   0  0  0  0  0  0  0  0  0  0  0  0
    0.3930  -13.5970    2.3070 C   0  0  0  0  0  0  0  0  0  0  0  0
   -0.5280  -13.2190    3.2850 C   0  0  0  0  0  0  0  0  0  0  0  0
   -1.1430  -11.9670    3.2220 C   0  0  0  0  0  0  0  0  0  0  0  0
   -0.8430  -11.0740    2.1820 C   0  0  0  0  0  0  0  0  0  0  0  0
   -1.4790   -9.7070    2.1320 C   0  0  0  0  0  0  0  0  0  0  0  0
   -0.5610   -8.7110    2.0080 F   0  0  0  0  0  0  0  0  0  0  0  0
   -2.3430   -9.5570    1.0900 F   0  0  0  0  0  0  0  0  0  0  0  0
   -2.1990   -9.4140    3.2520 F   0  0  0  0  0  0  0  0  0  0  0  0
    0.0900  -11.4590    1.2070 C   0  0  0  0  0  0  0  0  0  0  0  0
    2.0990  -12.8660   -3.2120 C   0  0  0  0  0  0  0  0  0  0  0  0
    2.9470  -12.9170   -4.3170 C   0  0  0  0  0  0  0  0  0  0  0  0
    4.2520  -12.3990   -4.2580 C   0  0  0  0  0  0  0  0  0  0  0  0
    5.1070  -12.4790   -5.4950 C   0  0  0  0  0  0  0  0  0  0  0  0
    8.0260  -12.4900   -3.6070 N   0  0  0  0  0  0  0  0  0  0  0  0
    9.1080  -12.9050   -2.8920 C   0  0  0  0  0  0  0  0  0  0  0  0
   10.2720  -13.5360   -3.3620 C   0  0  0  0  0  0  0  0  0  0  0  0
   11.3050  -13.8130   -2.4650 C   0  0  0  0  0  0  0  0  0  0  0  0
   11.1910  -13.4490   -1.1260 C   0  0  0  0  0  0  0  0  0  0  0  0
   10.0350  -12.8270   -0.6400 C   0  0  0  0  0  0  0  0  0  0  0  0
    8.9760  -12.5960   -1.5390 C   0  0  0  0  0  0  0  0  0  0  0  0
    6.1570  -12.5860    0.3090 N   0  0  0  0  0  0  0  0  0  0  0  0
    5.4850  -12.2110    1.4080 C   0  0  0  0  0  0  0  0  0  0  0  0
    5.5770  -11.0290    2.0180 N   0  0  0  0  0  0  0  0  0  0  0  0
    8.0689   -7.4318    1.9129 H   0  0  0  0  0  0  0  0  0  0  0  0
    8.1227   -8.6717    0.6142 H   0  0  0  0  0  0  0  0  0  0  0  0
    6.8279   -7.4266    0.6142 H   0  0  0  0  0  0  0  0  0  0  0  0
    7.8723   -9.6881   -0.0948 H   0  0  0  0  0  0  0  0  0  0  0  0
    6.0790  -10.2950   -3.2250 H   0  0  0  0  0  0  0  0  0  0  0  0
    4.1872  -11.3273   -1.0204 H   0  0  0  0  0  0  0  0  0  0  0  0
    1.2090  -11.3390   -0.7860 H   0  0  0  0  0  0  0  0  0  0  0  0
    0.8808  -14.5814    2.3618 H   0  0  0  0  0  0  0  0  0  0  0  0
   -0.7699  -13.9087    4.1071 H   0  0  0  0  0  0  0  0  0  0  0  0
   -1.8699  -11.6778    3.9953 H   0  0  0  0  0  0  0  0  0  0  0  0
    0.3487  -10.7623    0.3960 H   0  0  0  0  0  0  0  0  0  0  0  0
    1.0805  -13.2757   -3.2810 H   0  0  0  0  0  0  0  0  0  0  0  0
    2.5881  -13.3711   -5.2524 H   0  0  0  0  0  0  0  0  0  0  0  0
    6.1634  -12.5778   -5.2048 H   0  0  0  0  0  0  0  0  0  0  0  0
    4.8074  -13.3530   -6.0919 H   0  0  0  0  0  0  0  0  0  0  0  0
    4.9747  -11.5646   -6.0919 H   0  0  0  0  0  0  0  0  0  0  0  0
   10.3681  -13.8083   -4.4234 H   0  0  0  0  0  0  0  0  0  0  0  0
   12.2142  -14.3217   -2.8180 H   0  0  0  0  0  0  0  0  0  0  0  0
   12.0242  -13.6539   -0.4377 H   0  0  0  0  0  0  0  0  0  0  0  0
    9.9560  -12.5269    0.4153 H   0  0  0  0  0  0  0  0  0  0  0  0
    4.7944  -12.9466    1.8462 H   0  0  0  0  0  0  0  0  0  0  0  0
  1  2  1  0
  2  3  1  0
  3  4  2  0
  4  5  1  0
  5  6  1  0
  6  7  1  0
  7  8  1  0
  8  9  1  0
  9 10  2  0
 10 11  1  0
 11 12  1  0
 12 13  1  0
 13 14  2  0
 13 15  1  0
 15 16  2  0
 16 17  1  0
 17 18  2  0
 18 19  1  0
 19 20  1  0
 20 21  1  0
 20 22  1  0
 20 23  1  0
 19 24  2  0
 11 25  2  0
 25 26  1  0
 26 27  2  0
 27 28  1  0
  7 29  2  0
 29 30  1  0
 30 31  2  0
 31 32  1  0
 32 33  2  0
 33 34  1  0
 34 35  2  0
  5 36  2  0
 36 37  1  0
 37 38  2  0
 38  3  1  0
 35  6  1  0
 27  9  1  0
 35 30  1  0
 24 15  1  0
  1 39  1  0
  1 40  1  0
  1 41  1  0
  4 42  1  0
  8 43  1  0
 10 44  1  0
 12 45  1  0
 16 46  1  0
 17 47  1  0
 18 48  1  0
 24 49  1  0
 25 50  1  0
 26 51  1  0
 28 52  1  0
 28 53  1  0
 28 54  1  0
 31 55  1  0
 32 56  1  0
 33 57  1  0
 34 58  1  0
 37 59  1  0
M  END
>  <meeko>  (2) 
{"is_sidechain": [false], "free_energy": -8.868, "intermolecular_energy": -12.561, "internal_energy": -1.879}

$$$$
LIB_VEXPKIRCYBYITI__M_PUB_ALL__e8__s20260927
     RDKit          3D

 59 63  0  0  0  0  0  0  0  0999 V2000
    7.2790   -7.7480    1.4180 C   0  0  0  0  0  0  0  0  0  0  0  0
    6.6160   -8.6810    2.2670 O   0  0  0  0  0  0  0  0  0  0  0  0
    6.3570   -9.8910    1.6520 C   0  0  0  0  0  0  0  0  0  0  0  0
    7.1570  -10.2010    0.5750 C   0  0  0  0  0  0  0  0  0  0  0  0
    6.9080  -11.4080   -0.0430 C   0  0  0  0  0  0  0  0  0  0  0  0
    7.6840  -11.8260   -1.1770 N   0  0  0  0  0  0  0  0  0  0  0  0
    7.2780  -11.7220   -2.5200 C   0  0  0  0  0  0  0  0  0  0  0  0
    6.1170  -11.0980   -2.8520 N   0  0  0  0  0  0  0  0  0  0  0  0
    4.8090  -11.6180   -2.9690 C   0  0  0  0  0  0  0  0  0  0  0  0
    3.8480  -11.4850   -1.9500 C   0  0  0  0  0  0  0  0  0  0  0  0
    2.5430  -11.9850   -2.0760 C   0  0  0  0  0  0  0  0  0  0  0  0
    1.6720  -11.7830   -0.9840 N   0  0  0  0  0  0  0  0  0  0  0  0
    0.8580  -10.6930   -0.7470 C   0  0  0  0  0  0  0  0  0  0  0  0
    0.6750   -9.7320   -1.4850 O   0  0  0  0  0  0  0  0  0  0  0  0
    0.1030  -10.7410    0.5390 C   0  0  0  0  0  0  0  0  0  0  0  0
   -0.6080   -9.6340    1.0180 C   0  0  0  0  0  0  0  0  0  0  0  0
   -1.3090   -9.7240    2.2210 C   0  0  0  0  0  0  0  0  0  0  0  0
   -1.3100  -10.9180    2.9450 C   0  0  0  0  0  0  0  0  0  0  0  0
   -0.6110  -12.0410    2.4740 C   0  0  0  0  0  0  0  0  0  0  0  0
   -0.6410  -13.3430    3.2360 C   0  0  0  0  0  0  0  0  0  0  0  0
   -0.0560  -14.3600    2.5480 F   0  0  0  0  0  0  0  0  0  0  0  0
    0.0050  -13.2760    4.4330 F   0  0  0  0  0  0  0  0  0  0  0  0
   -1.9050  -13.7630    3.5220 F   0  0  0  0  0  0  0  0  0  0  0  0
    0.0850  -11.9440    1.2590 C   0  0  0  0  0  0  0  0  0  0  0  0
    2.1810  -12.6280   -3.2520 C   0  0  0  0  0  0  0  0  0  0  0  0
    3.1080  -12.7710   -4.2840 C   0  0  0  0  0  0  0  0  0  0  0  0
    4.4150  -12.2690   -4.1610 C   0  0  0  0  0  0  0  0  0  0  0  0
    5.3580  -12.4490   -5.3210 C   0  0  0  0  0  0  0  0  0  0  0  0
    8.1240  -12.3460   -3.3120 N   0  0  0  0  0  0  0  0  0  0  0  0
    9.1570  -12.7560   -2.5240 C   0  0  0  0  0  0  0  0  0  0  0  0
   10.3350  -13.4170   -2.9100 C   0  0  0  0  0  0  0  0  0  0  0  0
   11.3120  -13.6830   -1.9480 C   0  0  0  0  0  0  0  0  0  0  0  0
   11.1280  -13.2790   -0.6290 C   0  0  0  0  0  0  0  0  0  0  0  0
    9.9560  -12.6260   -0.2270 C   0  0  0  0  0  0  0  0  0  0  0  0
    8.9540  -12.4060   -1.1910 C   0  0  0  0  0  0  0  0  0  0  0  0
    5.9600  -12.2610    0.4260 N   0  0  0  0  0  0  0  0  0  0  0  0
    5.2340  -11.8440    1.4760 C   0  0  0  0  0  0  0  0  0  0  0  0
    5.3810  -10.6850    2.1180 N   0  0  0  0  0  0  0  0  0  0  0  0
    7.8075   -7.0043    2.0325 H   0  0  0  0  0  0  0  0  0  0  0  0
    8.0028   -8.2800    0.7831 H   0  0  0  0  0  0  0  0  0  0  0  0
    6.5385   -7.2395    0.7831 H   0  0  0  0  0  0  0  0  0  0  0  0
    7.9506   -9.5234    0.2271 H   0  0  0  0  0  0  0  0  0  0  0  0
    6.1940  -10.1130   -3.0990 H   0  0  0  0  0  0  0  0  0  0  0  0
    4.1302  -10.9699   -1.0199 H   0  0  0  0  0  0  0  0  0  0  0  0
    1.6250  -12.5530   -0.3280 H   0  0  0  0  0  0  0  0  0  0  0  0
   -0.6139   -8.6942    0.4464 H   0  0  0  0  0  0  0  0  0  0  0  0
   -1.8623   -8.8521    2.6001 H   0  0  0  0  0  0  0  0  0  0  0  0
   -1.8637  -10.9794    3.8935 H   0  0  0  0  0  0  0  0  0  0  0  0
    0.6218  -12.8207    0.8677 H   0  0  0  0  0  0  0  0  0  0  0  0
    1.1620  -13.0251   -3.3699 H   0  0  0  0  0  0  0  0  0  0  0  0
    2.8113  -13.2854   -5.2099 H   0  0  0  0  0  0  0  0  0  0  0  0
    6.3724  -12.6426   -4.9422 H   0  0  0  0  0  0  0  0  0  0  0  0
    5.0268  -13.3001   -5.9341 H   0  0  0  0  0  0  0  0  0  0  0  0
    5.3636  -11.5357   -5.9341 H   0  0  0  0  0  0  0  0  0  0  0  0
   10.4860  -13.7211   -3.9563 H   0  0  0  0  0  0  0  0  0  0  0  0
   12.2315  -14.2145   -2.2343 H   0  0  0  0  0  0  0  0  0  0  0  0
   11.9174  -13.4761    0.1113 H   0  0  0  0  0  0  0  0  0  0  0  0
    9.8222  -12.2942    0.8132 H   0  0  0  0  0  0  0  0  0  0  0  0
    4.4463  -12.5204    1.8394 H   0  0  0  0  0  0  0  0  0  0  0  0
  1  2  1  0
  2  3  1  0
  3  4  2  0
  4  5  1  0
  5  6  1  0
  6  7  1  0
  7  8  1  0
  8  9  1  0
  9 10  2  0
 10 11  1  0
 11 12  1  0
 12 13  1  0
 13 14  2  0
 13 15  1  0
 15 16  2  0
 16 17  1  0
 17 18  2  0
 18 19  1  0
 19 20  1  0
 20 21  1  0
 20 22  1  0
 20 23  1  0
 19 24  2  0
 11 25  2  0
 25 26  1  0
 26 27  2  0
 27 28  1  0
  7 29  2  0
 29 30  1  0
 30 31  2  0
 31 32  1  0
 32 33  2  0
 33 34  1  0
 34 35  2  0
  5 36  2  0
 36 37  1  0
 37 38  2  0
 38  3  1  0
 35  6  1  0
 27  9  1  0
 35 30  1  0
 24 15  1  0
  1 39  1  0
  1 40  1  0
  1 41  1  0
  4 42  1  0
  8 43  1  0
 10 44  1  0
 12 45  1  0
 16 46  1  0
 17 47  1  0
 18 48  1  0
 24 49  1  0
 25 50  1  0
 26 51  1  0
 28 52  1  0
 28 53  1  0
 28 54  1  0
 31 55  1  0
 32 56  1  0
 33 57  1  0
 34 58  1  0
 37 59  1  0
M  END
>  <meeko>  (3) 
{"is_sidechain": [false], "free_energy": -8.852, "intermolecular_energy": -12.6, "internal_energy": -1.818}

$$$$
LIB_VEXPKIRCYBYITI__M_PUB_ALL__e8__s20260927
     RDKit          3D

 59 63  0  0  0  0  0  0  0  0999 V2000
    4.3070  -14.1320    1.8660 C   0  0  0  0  0  0  0  0  0  0  0  0
    5.5590  -13.6620    2.3610 O   0  0  0  0  0  0  0  0  0  0  0  0
    6.0830  -12.6190    1.6220 C   0  0  0  0  0  0  0  0  0  0  0  0
    6.7980  -12.9780    0.5010 C   0  0  0  0  0  0  0  0  0  0  0  0
    7.3220  -11.9440   -0.2450 C   0  0  0  0  0  0  0  0  0  0  0  0
    8.0860  -12.2090   -1.4320 N   0  0  0  0  0  0  0  0  0  0  0  0
    7.6300  -12.0170   -2.7490 C   0  0  0  0  0  0  0  0  0  0  0  0
    6.4210  -11.4450   -2.9920 N   0  0  0  0  0  0  0  0  0  0  0  0
    5.1490  -12.0410   -3.1370 C   0  0  0  0  0  0  0  0  0  0  0  0
    4.2190  -12.1020   -2.0840 C   0  0  0  0  0  0  0  0  0  0  0  0
    2.9480  -12.6770   -2.2340 C   0  0  0  0  0  0  0  0  0  0  0  0
    2.1040  -12.6720   -1.1020 N   0  0  0  0  0  0  0  0  0  0  0  0
    1.3250  -11.6310   -0.6380 C   0  0  0  0  0  0  0  0  0  0  0  0
    1.1530  -10.5410   -1.1700 O   0  0  0  0  0  0  0  0  0  0  0  0
    0.5960  -11.9120    0.6330 C   0  0  0  0  0  0  0  0  0  0  0  0
    0.6550  -13.1640    1.2560 C   0  0  0  0  0  0  0  0  0  0  0  0
   -0.0340  -13.3810    2.4500 C   0  0  0  0  0  0  0  0  0  0  0  0
   -0.7760  -12.3500    3.0300 C   0  0  0  0  0  0  0  0  0  0  0  0
   -0.8380  -11.0850    2.4230 C   0  0  0  0  0  0  0  0  0  0  0  0
   -1.6100   -9.9590    3.0660 C   0  0  0  0  0  0  0  0  0  0  0  0
   -1.2350   -8.7390    2.5970 F   0  0  0  0  0  0  0  0  0  0  0  0
   -2.9530  -10.0470    2.8610 F   0  0  0  0  0  0  0  0  0  0  0  0
   -1.4460   -9.9060    4.4180 F   0  0  0  0  0  0  0  0  0  0  0  0
   -0.1360  -10.8730    1.2260 C   0  0  0  0  0  0  0  0  0  0  0  0
    2.5880  -13.1990   -3.4700 C   0  0  0  0  0  0  0  0  0  0  0  0
    3.4860  -13.1480   -4.5370 C   0  0  0  0  0  0  0  0  0  0  0  0
    4.7580  -12.5710   -4.3890 C   0  0  0  0  0  0  0  0  0  0  0  0
    5.6690  -12.5410   -5.5880 C   0  0  0  0  0  0  0  0  0  0  0  0
    8.4880  -12.5110   -3.6150 N   0  0  0  0  0  0  0  0  0  0  0  0
    9.5710  -12.9180   -2.8960 C   0  0  0  0  0  0  0  0  0  0  0  0
   10.7760  -13.4630   -3.3710 C   0  0  0  0  0  0  0  0  0  0  0  0
   11.7990  -13.7450   -2.4630 C   0  0  0  0  0  0  0  0  0  0  0  0
   11.6330  -13.4710   -1.1090 C   0  0  0  0  0  0  0  0  0  0  0  0
   10.4350  -12.9350   -0.6180 C   0  0  0  0  0  0  0  0  0  0  0  0
    9.3890  -12.6990   -1.5320 C   0  0  0  0  0  0  0  0  0  0  0  0
    7.0940  -10.6460    0.0850 N   0  0  0  0  0  0  0  0  0  0  0  0
    6.3920  -10.4200    1.2070 C   0  0  0  0  0  0  0  0  0  0  0  0
    5.8730  -11.3520    2.0080 N   0  0  0  0  0  0  0  0  0  0  0  0
    3.6480  -14.3794    2.7113 H   0  0  0  0  0  0  0  0  0  0  0  0
    3.8379  -13.3487    1.2524 H   0  0  0  0  0  0  0  0  0  0  0  0
    4.4692  -15.0304    1.2524 H   0  0  0  0  0  0  0  0  0  0  0  0
    6.9428  -14.0308    0.2169 H   0  0  0  0  0  0  0  0  0  0  0  0
    6.4250  -10.4370   -3.1400 H   0  0  0  0  0  0  0  0  0  0  0  0
    4.4985  -11.6832   -1.1060 H   0  0  0  0  0  0  0  0  0  0  0  0
    2.0500  -13.5540   -0.6070 H   0  0  0  0  0  0  0  0  0  0  0  0
    1.2439  -13.9762    0.8049 H   0  0  0  0  0  0  0  0  0  0  0  0
    0.0075  -14.3671    2.9357 H   0  0  0  0  0  0  0  0  0  0  0  0
   -1.3168  -12.5302    3.9708 H   0  0  0  0  0  0  0  0  0  0  0  0
   -0.1603   -9.8823    0.7485 H   0  0  0  0  0  0  0  0  0  0  0  0
    1.5953  -13.6524   -3.6076 H   0  0  0  0  0  0  0  0  0  0  0  0
    3.1926  -13.5669   -5.5108 H   0  0  0  0  0  0  0  0  0  0  0  0
    6.7159  -12.5065   -5.2523 H   0  0  0  0  0  0  0  0  0  0  0  0
    5.5078  -13.4449   -6.1937 H   0  0  0  0  0  0  0  0  0  0  0  0
    5.4486  -11.6496   -6.1937 H   0  0  0  0  0  0  0  0  0  0  0  0
   10.9117  -13.6648   -4.4438 H   0  0  0  0  0  0  0  0  0  0  0  0
   12.7412  -14.1862   -2.8203 H   0  0  0  0  0  0  0  0  0  0  0  0
   12.4574  -13.6790   -0.4111 H   0  0  0  0  0  0  0  0  0  0  0  0
   10.3146  -12.7050    0.4509 H   0  0  0  0  0  0  0  0  0  0  0  0
    6.2300   -9.3700    1.4919 H   0  0  0  0  0  0  0  0  0  0  0  0
  1  2  1  0
  2  3  1  0
  3  4  2  0
  4  5  1  0
  5  6  1  0
  6  7  1  0
  7  8  1  0
  8  9  1  0
  9 10  2  0
 10 11  1  0
 11 12  1  0
 12 13  1  0
 13 14  2  0
 13 15  1  0
 15 16  2  0
 16 17  1  0
 17 18  2  0
 18 19  1  0
 19 20  1  0
 20 21  1  0
 20 22  1  0
 20 23  1  0
 19 24  2  0
 11 25  2  0
 25 26  1  0
 26 27  2  0
 27 28  1  0
  7 29  2  0
 29 30  1  0
 30 31  2  0
 31 32  1  0
 32 33  2  0
 33 34  1  0
 34 35  2  0
  5 36  2  0
 36 37  1  0
 37 38  2  0
 38  3  1  0
 35  6  1  0
 27  9  1  0
 35 30  1  0
 24 15  1  0
  1 39  1  0
  1 40  1  0
  1 41  1  0
  4 42  1  0
  8 43  1  0
 10 44  1  0
 12 45  1  0
 16 46  1  0
 17 47  1  0
 18 48  1  0
 24 49  1  0
 25 50  1  0
 26 51  1  0
 28 52  1  0
 28 53  1  0
 28 54  1  0
 31 55  1  0
 32 56  1  0
 33 57  1  0
 34 58  1  0
 37 59  1  0
M  END
>  <meeko>  (4) 
{"is_sidechain": [false], "free_energy": -8.737, "intermolecular_energy": -12.128, "internal_energy": -2.128}

$$$$
LIB_VEXPKIRCYBYITI__M_PUB_ALL__e8__s20260927
     RDKit          3D

 59 63  0  0  0  0  0  0  0  0999 V2000
    7.1130   -9.5630    1.1770 C   0  0  0  0  0  0  0  0  0  0  0  0
    6.1540  -10.4600    1.7290 O   0  0  0  0  0  0  0  0  0  0  0  0
    6.4320  -11.7880    1.4670 C   0  0  0  0  0  0  0  0  0  0  0  0
    7.1890  -12.0320    0.3430 C   0  0  0  0  0  0  0  0  0  0  0  0
    7.4750  -13.3540    0.0760 C   0  0  0  0  0  0  0  0  0  0  0  0
    8.2560  -13.7180   -1.0730 N   0  0  0  0  0  0  0  0  0  0  0  0
    7.8010  -14.5070   -2.1460 C   0  0  0  0  0  0  0  0  0  0  0  0
    6.5040  -14.9080   -2.2160 N   0  0  0  0  0  0  0  0  0  0  0  0
    5.3740  -14.2370   -2.7360 C   0  0  0  0  0  0  0  0  0  0  0  0
    4.4860  -13.5110   -1.9230 C   0  0  0  0  0  0  0  0  0  0  0  0
    3.3760  -12.8280   -2.4430 C   0  0  0  0  0  0  0  0  0  0  0  0
    2.5630  -12.1320   -1.5230 N   0  0  0  0  0  0  0  0  0  0  0  0
    1.4590  -12.6120   -0.8450 C   0  0  0  0  0  0  0  0  0  0  0  0
    1.0270  -13.7590   -0.8520 O   0  0  0  0  0  0  0  0  0  0  0  0
    0.7610  -11.6080    0.0090 C   0  0  0  0  0  0  0  0  0  0  0  0
    0.7370  -10.2480   -0.3230 C   0  0  0  0  0  0  0  0  0  0  0  0
    0.0640   -9.3420    0.4980 C   0  0  0  0  0  0  0  0  0  0  0  0
   -0.5930   -9.7900    1.6460 C   0  0  0  0  0  0  0  0  0  0  0  0
   -0.5880  -11.1520    1.9880 C   0  0  0  0  0  0  0  0  0  0  0  0
   -1.3270  -11.6430    3.2080 C   0  0  0  0  0  0  0  0  0  0  0  0
   -0.8860  -12.8600    3.6260 F   0  0  0  0  0  0  0  0  0  0  0  0
   -1.2070  -10.8090    4.2780 F   0  0  0  0  0  0  0  0  0  0  0  0
   -2.6660  -11.7830    2.9980 F   0  0  0  0  0  0  0  0  0  0  0  0
    0.0860  -12.0570    1.1520 C   0  0  0  0  0  0  0  0  0  0  0  0
    3.1470  -12.8630   -3.8130 C   0  0  0  0  0  0  0  0  0  0  0  0
    4.0130  -13.5690   -4.6470 C   0  0  0  0  0  0  0  0  0  0  0  0
    5.1270  -14.2510   -4.1290 C   0  0  0  0  0  0  0  0  0  0  0  0
    6.0250  -14.9820   -5.0910 C   0  0  0  0  0  0  0  0  0  0  0  0
    8.7940  -14.8100   -2.9550 N   0  0  0  0  0  0  0  0  0  0  0  0
    9.8810  -14.1260   -2.5030 C   0  0  0  0  0  0  0  0  0  0  0  0
   11.1690  -14.0750   -3.0600 C   0  0  0  0  0  0  0  0  0  0  0  0
   12.1290  -13.2440   -2.4780 C   0  0  0  0  0  0  0  0  0  0  0  0
   11.8070  -12.4630   -1.3730 C   0  0  0  0  0  0  0  0  0  0  0  0
   10.5300  -12.5090   -0.8000 C   0  0  0  0  0  0  0  0  0  0  0  0
    9.5810  -13.3860   -1.3610 C   0  0  0  0  0  0  0  0  0  0  0  0
    7.0740  -14.3480    0.9110 N   0  0  0  0  0  0  0  0  0  0  0  0
    6.3320  -13.9890    1.9700 C   0  0  0  0  0  0  0  0  0  0  0  0
    5.9790  -12.7440    2.2930 N   0  0  0  0  0  0  0  0  0  0  0  0
    7.6534   -9.0576    1.9910 H   0  0  0  0  0  0  0  0  0  0  0  0
    7.8266  -10.1253    0.5569 H   0  0  0  0  0  0  0  0  0  0  0  0
    6.5996   -8.8134    0.5569 H   0  0  0  0  0  0  0  0  0  0  0  0
    7.5455  -11.2180   -0.3054 H   0  0  0  0  0  0  0  0  0  0  0  0
    6.2900  -15.8090   -1.7930 H   0  0  0  0  0  0  0  0  0  0  0  0
    4.6682  -13.4771   -0.8387 H   0  0  0  0  0  0  0  0  0  0  0  0
    2.8600  -11.1860   -1.3220 H   0  0  0  0  0  0  0  0  0  0  0  0
    1.2482   -9.8939   -1.2303 H   0  0  0  0  0  0  0  0  0  0  0  0
    0.0510   -8.2727    0.2403 H   0  0  0  0  0  0  0  0  0  0  0  0
   -1.1195   -9.0690    2.2886 H   0  0  0  0  0  0  0  0  0  0  0  0
    0.0841  -13.1294    1.3969 H   0  0  0  0  0  0  0  0  0  0  0  0
    2.2823  -12.3336   -4.2397 H   0  0  0  0  0  0  0  0  0  0  0  0
    3.8207  -13.5925   -5.7298 H   0  0  0  0  0  0  0  0  0  0  0  0
    6.7577  -15.5784   -4.5276 H   0  0  0  0  0  0  0  0  0  0  0  0
    5.4197  -15.6474   -5.7242 H   0  0  0  0  0  0  0  0  0  0  0  0
    6.5537  -14.2543   -5.7242 H   0  0  0  0  0  0  0  0  0  0  0  0
   11.4186  -14.6815   -3.9431 H   0  0  0  0  0  0  0  0  0  0  0  0
   13.1458  -13.2070   -2.8960 H   0  0  0  0  0  0  0  0  0  0  0  0
   12.5690  -11.7973   -0.9415 H   0  0  0  0  0  0  0  0  0  0  0  0
   10.2751  -11.8779    0.0641 H   0  0  0  0  0  0  0  0  0  0  0  0
    5.9831  -14.7951    2.6321 H   0  0  0  0  0  0  0  0  0  0  0  0
  1  2  1  0
  2  3  1  0
  3  4  2  0
  4  5  1  0
  5  6  1  0
  6  7  1  0
  7  8  1  0
  8  9  1  0
  9 10  2  0
 10 11  1  0
 11 12  1  0
 12 13  1  0
 13 14  2  0
 13 15  1  0
 15 16  2  0
 16 17  1  0
 17 18  2  0
 18 19  1  0
 19 20  1  0
 20 21  1  0
 20 22  1  0
 20 23  1  0
 19 24  2  0
 11 25  2  0
 25 26  1  0
 26 27  2  0
 27 28  1  0
  7 29  2  0
 29 30  1  0
 30 31  2  0
 31 32  1  0
 32 33  2  0
 33 34  1  0
 34 35  2  0
  5 36  2  0
 36 37  1  0
 37 38  2  0
 38  3  1  0
 35  6  1  0
 27  9  1  0
 35 30  1  0
 24 15  1  0
  1 39  1  0
  1 40  1  0
  1 41  1  0
  4 42  1  0
  8 43  1  0
 10 44  1  0
 12 45  1  0
 16 46  1  0
 17 47  1  0
 18 48  1  0
 24 49  1  0
 25 50  1  0
 26 51  1  0
 28 52  1  0
 28 53  1  0
 28 54  1  0
 31 55  1  0
 32 56  1  0
 33 57  1  0
 34 58  1  0
 37 59  1  0
M  END
>  <meeko>  (5) 
{"is_sidechain": [false], "free_energy": -8.732, "intermolecular_energy": -12.218, "internal_energy": -2.03}

$$$$
LIB_VEXPKIRCYBYITI__M_PUB_ALL__e8__s20260927
     RDKit          3D

 59 63  0  0  0  0  0  0  0  0999 V2000
    6.2970  -13.5850   -6.4860 C   0  0  0  0  0  0  0  0  0  0  0  0
    6.5930  -14.9560   -6.7420 O   0  0  0  0  0  0  0  0  0  0  0  0
    7.1750  -15.1690   -7.9770 C   0  0  0  0  0  0  0  0  0  0  0  0
    7.6550  -14.0470   -8.6150 C   0  0  0  0  0  0  0  0  0  0  0  0
    8.2410  -14.2500   -9.8470 C   0  0  0  0  0  0  0  0  0  0  0  0
    8.7720  -13.1470  -10.5980 N   0  0  0  0  0  0  0  0  0  0  0  0
   10.0510  -13.1050  -11.1830 C   0  0  0  0  0  0  0  0  0  0  0  0
   10.8630  -14.1950  -11.1620 N   0  0  0  0  0  0  0  0  0  0  0  0
   11.9950  -14.4670  -10.3610 C   0  0  0  0  0  0  0  0  0  0  0  0
   12.1150  -14.0010   -9.0390 C   0  0  0  0  0  0  0  0  0  0  0  0
   13.2300  -14.2890   -8.2380 C   0  0  0  0  0  0  0  0  0  0  0  0
   13.2290  -13.7660   -6.9260 N   0  0  0  0  0  0  0  0  0  0  0  0
   12.5940  -14.2850   -5.8150 C   0  0  0  0  0  0  0  0  0  0  0  0
   11.9810  -15.3440   -5.7390 O   0  0  0  0  0  0  0  0  0  0  0  0
   12.7200  -13.4610   -4.5780 C   0  0  0  0  0  0  0  0  0  0  0  0
   13.8240  -12.6290   -4.3560 C   0  0  0  0  0  0  0  0  0  0  0  0
   13.8980  -11.8650   -3.1900 C   0  0  0  0  0  0  0  0  0  0  0  0
   12.8690  -11.9230   -2.2480 C   0  0  0  0  0  0  0  0  0  0  0  0
   11.7500  -12.7430   -2.4600 C   0  0  0  0  0  0  0  0  0  0  0  0
   10.6200  -12.7800   -1.4600 C   0  0  0  0  0  0  0  0  0  0  0  0
    9.4900  -12.1870   -1.9320 F   0  0  0  0  0  0  0  0  0  0  0  0
   10.2630  -14.0450   -1.1030 F   0  0  0  0  0  0  0  0  0  0  0  0
   10.9200  -12.1390   -0.2950 F   0  0  0  0  0  0  0  0  0  0  0  0
   11.6800  -13.5020   -3.6390 C   0  0  0  0  0  0  0  0  0  0  0  0
   14.2520  -15.0690   -8.7640 C   0  0  0  0  0  0  0  0  0  0  0  0
   14.1600  -15.5510  -10.0690 C   0  0  0  0  0  0  0  0  0  0  0  0
   13.0430  -15.2670  -10.8720 C   0  0  0  0  0  0  0  0  0  0  0  0
   13.0080  -15.8320  -12.2680 C   0  0  0  0  0  0  0  0  0  0  0  0
   10.3100  -11.9020  -11.6500 N   0  0  0  0  0  0  0  0  0  0  0  0
    9.1690  -11.1760  -11.4960 C   0  0  0  0  0  0  0  0  0  0  0  0
    8.9220   -9.8500  -11.8920 C   0  0  0  0  0  0  0  0  0  0  0  0
    7.6470   -9.3120  -11.7090 C   0  0  0  0  0  0  0  0  0  0  0  0
    6.6290  -10.0860  -11.1590 C   0  0  0  0  0  0  0  0  0  0  0  0
    6.8610  -11.4060  -10.7510 C   0  0  0  0  0  0  0  0  0  0  0  0
    8.1620  -11.9260  -10.8930 C   0  0  0  0  0  0  0  0  0  0  0  0
    8.3820  -15.4980  -10.3670 N   0  0  0  0  0  0  0  0  0  0  0  0
    7.8650  -16.5130   -9.6570 C   0  0  0  0  0  0  0  0  0  0  0  0
    7.2540  -16.4110   -8.4760 N   0  0  0  0  0  0  0  0  0  0  0  0
    6.2602  -13.4144   -5.3999 H   0  0  0  0  0  0  0  0  0  0  0  0
    7.0791  -12.9519   -6.9303 H   0  0  0  0  0  0  0  0  0  0  0  0
    5.3233  -13.3309   -6.9303 H   0  0  0  0  0  0  0  0  0  0  0  0
    7.5756  -13.0454   -8.1673 H   0  0  0  0  0  0  0  0  0  0  0  0
   10.6650  -14.9140  -11.8550 H   0  0  0  0  0  0  0  0  0  0  0  0
   11.3045  -13.3881   -8.6179 H   0  0  0  0  0  0  0  0  0  0  0  0
   13.7920  -12.9360   -6.7970 H   0  0  0  0  0  0  0  0  0  0  0  0
   14.6326  -12.5774   -5.1000 H   0  0  0  0  0  0  0  0  0  0  0  0
   14.7685  -11.2162   -3.0130 H   0  0  0  0  0  0  0  0  0  0  0  0
   12.9361  -11.3199   -1.3305 H   0  0  0  0  0  0  0  0  0  0  0  0
   10.8004  -14.1351   -3.8278 H   0  0  0  0  0  0  0  0  0  0  0  0
   15.1339  -15.3064   -8.1509 H   0  0  0  0  0  0  0  0  0  0  0  0
   14.9767  -16.1646  -10.4771 H   0  0  0  0  0  0  0  0  0  0  0  0
   12.9401  -16.9288  -12.2181 H   0  0  0  0  0  0  0  0  0  0  0  0
   12.1328  -15.4344  -12.8027 H   0  0  0  0  0  0  0  0  0  0  0  0
   13.9256  -15.5454  -12.8027 H   0  0  0  0  0  0  0  0  0  0  0  0
    9.7232   -9.2441  -12.3403 H   0  0  0  0  0  0  0  0  0  0  0  0
    7.4456   -8.2708  -12.0010 H   0  0  0  0  0  0  0  0  0  0  0  0
    5.6244   -9.6534  -11.0427 H   0  0  0  0  0  0  0  0  0  0  0  0
    6.0497  -12.0190  -10.3315 H   0  0  0  0  0  0  0  0  0  0  0  0
    7.9533  -17.5209  -10.0886 H   0  0  0  0  0  0  0  0  0  0  0  0
  1  2  1  0
  2  3  1  0
  3  4  2  0
  4  5  1  0
  5  6  1  0
  6  7  1  0
  7  8  1  0
  8  9  1  0
  9 10  2  0
 10 11  1  0
 11 12  1  0
 12 13  1  0
 13 14  2  0
 13 15  1  0
 15 16  2  0
 16 17  1  0
 17 18  2  0
 18 19  1  0
 19 20  1  0
 20 21  1  0
 20 22  1  0
 20 23  1  0
 19 24  2  0
 11 25  2  0
 25 26  1  0
 26 27  2  0
 27 28  1  0
  7 29  2  0
 29 30  1  0
 30 31  2  0
 31 32  1  0
 32 33  2  0
 33 34  1  0
 34 35  2  0
  5 36  2  0
 36 37  1  0
 37 38  2  0
 38  3  1  0
 35  6  1  0
 27  9  1  0
 35 30  1  0
 24 15  1  0
  1 39  1  0
  1 40  1  0
  1 41  1  0
  4 42  1  0
  8 43  1  0
 10 44  1  0
 12 45  1  0
 16 46  1  0
 17 47  1  0
 18 48  1  0
 24 49  1  0
 25 50  1  0
 26 51  1  0
 28 52  1  0
 28 53  1  0
 28 54  1  0
 31 55  1  0
 32 56  1  0
 33 57  1  0
 34 58  1  0
 37 59  1  0
M  END
>  <meeko>  (6) 
{"is_sidechain": [false], "free_energy": -8.712, "intermolecular_energy": -12.177, "internal_energy": -2.042}

$$$$
LIB_VEXPKIRCYBYITI__M_PUB_ALL__e8__s20260927
     RDKit          3D

 59 63  0  0  0  0  0  0  0  0999 V2000
   10.7100  -14.3200   -6.6920 C   0  0  0  0  0  0  0  0  0  0  0  0
   11.9440  -13.9390   -6.0890 O   0  0  0  0  0  0  0  0  0  0  0  0
   12.1100  -14.4470   -4.8160 C   0  0  0  0  0  0  0  0  0  0  0  0
   11.6270  -13.6660   -3.7900 C   0  0  0  0  0  0  0  0  0  0  0  0
   11.7850  -14.1670   -2.5150 C   0  0  0  0  0  0  0  0  0  0  0  0
   11.3180  -13.4300   -1.3740 N   0  0  0  0  0  0  0  0  0  0  0  0
   10.1470  -13.7180   -0.6480 C   0  0  0  0  0  0  0  0  0  0  0  0
    9.4050  -14.8210   -0.9290 N   0  0  0  0  0  0  0  0  0  0  0  0
    8.2510  -14.9580   -1.7330 C   0  0  0  0  0  0  0  0  0  0  0  0
    8.3140  -15.0610   -3.1340 C   0  0  0  0  0  0  0  0  0  0  0  0
    7.1690  -15.2170   -3.9290 C   0  0  0  0  0  0  0  0  0  0  0  0
    7.3660  -15.3120   -5.3240 N   0  0  0  0  0  0  0  0  0  0  0  0
    6.9160  -14.4420   -6.2980 C   0  0  0  0  0  0  0  0  0  0  0  0
    6.3320  -13.3790   -6.1290 O   0  0  0  0  0  0  0  0  0  0  0  0
    7.2250  -14.8550   -7.6980 C   0  0  0  0  0  0  0  0  0  0  0  0
    7.5660  -16.1740   -8.0200 C   0  0  0  0  0  0  0  0  0  0  0  0
    7.8370  -16.5210   -9.3450 C   0  0  0  0  0  0  0  0  0  0  0  0
    7.7620  -15.5560  -10.3510 C   0  0  0  0  0  0  0  0  0  0  0  0
    7.4120  -14.2310  -10.0480 C   0  0  0  0  0  0  0  0  0  0  0  0
    7.2950  -13.1950  -11.1380 C   0  0  0  0  0  0  0  0  0  0  0  0
    6.6400  -12.0770  -10.7250 F   0  0  0  0  0  0  0  0  0  0  0  0
    8.5020  -12.7740  -11.6070 F   0  0  0  0  0  0  0  0  0  0  0  0
    6.6130  -13.6460  -12.2290 F   0  0  0  0  0  0  0  0  0  0  0  0
    7.1330  -13.8930   -8.7140 C   0  0  0  0  0  0  0  0  0  0  0  0
    5.9260  -15.2800   -3.3130 C   0  0  0  0  0  0  0  0  0  0  0  0
    5.8300  -15.1880   -1.9250 C   0  0  0  0  0  0  0  0  0  0  0  0
    6.9760  -15.0340   -1.1260 C   0  0  0  0  0  0  0  0  0  0  0  0
    6.7960  -14.9540    0.3670 C   0  0  0  0  0  0  0  0  0  0  0  0
    9.8960  -12.7660    0.2260 N   0  0  0  0  0  0  0  0  0  0  0  0
   10.9560  -11.9120    0.1800 C   0  0  0  0  0  0  0  0  0  0  0  0
   11.1860  -10.7680    0.9630 C   0  0  0  0  0  0  0  0  0  0  0  0
   12.3830  -10.0670    0.8070 C   0  0  0  0  0  0  0  0  0  0  0  0
   13.3440  -10.5070   -0.0990 C   0  0  0  0  0  0  0  0  0  0  0  0
   13.1260  -11.6400   -0.8930 C   0  0  0  0  0  0  0  0  0  0  0  0
   11.8960  -12.3140   -0.7670 C   0  0  0  0  0  0  0  0  0  0  0  0
   12.3390  -15.3890   -2.2980 N   0  0  0  0  0  0  0  0  0  0  0  0
   12.7840  -16.0530   -3.3750 C   0  0  0  0  0  0  0  0  0  0  0  0
   12.7040  -15.6380   -4.6400 N   0  0  0  0  0  0  0  0  0  0  0  0
    9.9733  -14.5474   -5.9074 H   0  0  0  0  0  0  0  0  0  0  0  0
   10.3372  -13.4951   -7.3170 H   0  0  0  0  0  0  0  0  0  0  0  0
   10.8671  -15.2115   -7.3170 H   0  0  0  0  0  0  0  0  0  0  0  0
   11.1421  -12.6965   -3.9770 H   0  0  0  0  0  0  0  0  0  0  0  0
    9.6860  -15.6800   -0.4590 H   0  0  0  0  0  0  0  0  0  0  0  0
    9.2976  -15.0176   -3.6246 H   0  0  0  0  0  0  0  0  0  0  0  0
    7.9360  -16.0930   -5.6220 H   0  0  0  0  0  0  0  0  0  0  0  0
    7.6204  -16.9368   -7.2294 H   0  0  0  0  0  0  0  0  0  0  0  0
    8.1100  -17.5564   -9.5966 H   0  0  0  0  0  0  0  0  0  0  0  0
    7.9795  -15.8370  -11.3920 H   0  0  0  0  0  0  0  0  0  0  0  0
    6.8393  -12.8630   -8.4634 H   0  0  0  0  0  0  0  0  0  0  0  0
    5.0170  -15.4025   -3.9202 H   0  0  0  0  0  0  0  0  0  0  0  0
    4.8404  -15.2368   -1.4472 H   0  0  0  0  0  0  0  0  0  0  0  0
    7.6917  -15.3521    0.8662 H   0  0  0  0  0  0  0  0  0  0  0  0
    6.6472  -13.9050    0.6627 H   0  0  0  0  0  0  0  0  0  0  0  0
    5.9176  -15.5465    0.6627 H   0  0  0  0  0  0  0  0  0  0  0  0
   10.4326  -10.4293    1.6894 H   0  0  0  0  0  0  0  0  0  0  0  0
   12.5680   -9.1615    1.4035 H   0  0  0  0  0  0  0  0  0  0  0  0
   14.2910   -9.9553   -0.1929 H   0  0  0  0  0  0  0  0  0  0  0  0
   13.8947  -11.9937   -1.5959 H   0  0  0  0  0  0  0  0  0  0  0  0
   13.2586  -17.0296   -3.1988 H   0  0  0  0  0  0  0  0  0  0  0  0
  1  2  1  0
  2  3  1  0
  3  4  2  0
  4  5  1  0
  5  6  1  0
  6  7  1  0
  7  8  1  0
  8  9  1  0
  9 10  2  0
 10 11  1  0
 11 12  1  0
 12 13  1  0
 13 14  2  0
 13 15  1  0
 15 16  2  0
 16 17  1  0
 17 18  2  0
 18 19  1  0
 19 20  1  0
 20 21  1  0
 20 22  1  0
 20 23  1  0
 19 24  2  0
 11 25  2  0
 25 26  1  0
 26 27  2  0
 27 28  1  0
  7 29  2  0
 29 30  1  0
 30 31  2  0
 31 32  1  0
 32 33  2  0
 33 34  1  0
 34 35  2  0
  5 36  2  0
 36 37  1  0
 37 38  2  0
 38  3  1  0
 35  6  1  0
 27  9  1  0
 35 30  1  0
 24 15  1  0
  1 39  1  0
  1 40  1  0
  1 41  1  0
  4 42  1  0
  8 43  1  0
 10 44  1  0
 12 45  1  0
 16 46  1  0
 17 47  1  0
 18 48  1  0
 24 49  1  0
 25 50  1  0
 26 51  1  0
 28 52  1  0
 28 53  1  0
 28 54  1  0
 31 55  1  0
 32 56  1  0
 33 57  1  0
 34 58  1  0
 37 59  1  0
M  END
>  <meeko>  (7) 
{"is_sidechain": [false], "free_energy": -8.696, "intermolecular_energy": -11.931, "internal_energy": -2.266}

$$$$
LIB_VEXPKIRCYBYITI__M_PUB_ALL__e8__s20260927
     RDKit          3D

 59 63  0  0  0  0  0  0  0  0999 V2000
    1.4400  -14.7600   -1.9920 C   0  0  0  0  0  0  0  0  0  0  0  0
    0.1080  -15.1540   -2.3100 O   0  0  0  0  0  0  0  0  0  0  0  0
   -0.7330  -15.1740   -1.2150 C   0  0  0  0  0  0  0  0  0  0  0  0
   -0.5220  -14.1860   -0.2780 C   0  0  0  0  0  0  0  0  0  0  0  0
   -1.3590  -14.1950    0.8170 C   0  0  0  0  0  0  0  0  0  0  0  0
   -1.2230  -13.2100    1.8530 N   0  0  0  0  0  0  0  0  0  0  0  0
   -0.8120  -13.4730    3.1730 C   0  0  0  0  0  0  0  0  0  0  0  0
   -0.3990  -14.7150    3.5410 N   0  0  0  0  0  0  0  0  0  0  0  0
   -1.1100  -15.7540    4.1800 C   0  0  0  0  0  0  0  0  0  0  0  0
   -2.5020  -15.7090    4.3770 C   0  0  0  0  0  0  0  0  0  0  0  0
   -3.2100  -16.7510    4.9940 C   0  0  0  0  0  0  0  0  0  0  0  0
   -4.6050  -16.5850    5.1290 N   0  0  0  0  0  0  0  0  0  0  0  0
   -5.3470  -16.6100    6.2930 C   0  0  0  0  0  0  0  0  0  0  0  0
   -4.9220  -16.6980    7.4400 O   0  0  0  0  0  0  0  0  0  0  0  0
   -6.8200  -16.4770    6.1020 C   0  0  0  0  0  0  0  0  0  0  0  0
   -7.3940  -16.4040    4.8270 C   0  0  0  0  0  0  0  0  0  0  0  0
   -8.7790  -16.2900    4.6920 C   0  0  0  0  0  0  0  0  0  0  0  0
   -9.5940  -16.2570    5.8250 C   0  0  0  0  0  0  0  0  0  0  0  0
   -9.0350  -16.3390    7.1110 C   0  0  0  0  0  0  0  0  0  0  0  0
   -9.9170  -16.3390    8.3360 C   0  0  0  0  0  0  0  0  0  0  0  0
   -9.2630  -16.7780    9.4450 F   0  0  0  0  0  0  0  0  0  0  0  0
  -10.4020  -15.1050    8.6450 F   0  0  0  0  0  0  0  0  0  0  0  0
  -11.0100  -17.1430    8.2040 F   0  0  0  0  0  0  0  0  0  0  0  0
   -7.6430  -16.4610    7.2370 C   0  0  0  0  0  0  0  0  0  0  0  0
   -2.5140  -17.8740    5.4220 C   0  0  0  0  0  0  0  0  0  0  0  0
   -1.1340  -17.9530    5.2370 C   0  0  0  0  0  0  0  0  0  0  0  0
   -0.4230  -16.9120    4.6160 C   0  0  0  0  0  0  0  0  0  0  0  0
    1.0630  -17.0730    4.4390 C   0  0  0  0  0  0  0  0  0  0  0  0
   -0.9540  -12.4040    3.9260 N   0  0  0  0  0  0  0  0  0  0  0  0
   -1.3360  -11.3950    3.0950 C   0  0  0  0  0  0  0  0  0  0  0  0
   -1.5610  -10.0450    3.4120 C   0  0  0  0  0  0  0  0  0  0  0  0
   -1.8760   -9.1490    2.3880 C   0  0  0  0  0  0  0  0  0  0  0  0
   -1.9460   -9.5850    1.0690 C   0  0  0  0  0  0  0  0  0  0  0  0
   -1.7330  -10.9290    0.7370 C   0  0  0  0  0  0  0  0  0  0  0  0
   -1.4650  -11.8370    1.7800 C   0  0  0  0  0  0  0  0  0  0  0  0
   -2.3680  -15.1000    0.9300 N   0  0  0  0  0  0  0  0  0  0  0  0
   -2.4670  -16.0220   -0.0400 C   0  0  0  0  0  0  0  0  0  0  0  0
   -1.6870  -16.1120   -1.1180 N   0  0  0  0  0  0  0  0  0  0  0  0
    1.5608  -14.7243   -0.8992 H   0  0  0  0  0  0  0  0  0  0  0  0
    2.1485  -15.4871   -2.4156 H   0  0  0  0  0  0  0  0  0  0  0  0
    1.6390  -13.7645   -2.4156 H   0  0  0  0  0  0  0  0  0  0  0  0
    0.2702  -13.4322   -0.3972 H   0  0  0  0  0  0  0  0  0  0  0  0
    0.5840  -14.9270    3.3760 H   0  0  0  0  0  0  0  0  0  0  0  0
   -3.0565  -14.8230    4.0342 H   0  0  0  0  0  0  0  0  0  0  0  0
   -5.0970  -16.3910    4.2660 H   0  0  0  0  0  0  0  0  0  0  0  0
   -6.7545  -16.4364    3.9326 H   0  0  0  0  0  0  0  0  0  0  0  0
   -9.2291  -16.2260    3.6904 H   0  0  0  0  0  0  0  0  0  0  0  0
  -10.6841  -16.1659    5.7095 H   0  0  0  0  0  0  0  0  0  0  0  0
   -7.1925  -16.5450    8.2370 H   0  0  0  0  0  0  0  0  0  0  0  0
   -3.0517  -18.7019    5.9073 H   0  0  0  0  0  0  0  0  0  0  0  0
   -0.5926  -18.8458    5.5832 H   0  0  0  0  0  0  0  0  0  0  0  0
    1.5462  -17.1254    5.4258 H   0  0  0  0  0  0  0  0  0  0  0  0
    1.2676  -17.9986    3.8809 H   0  0  0  0  0  0  0  0  0  0  0  0
    1.4611  -16.2127    3.8809 H   0  0  0  0  0  0  0  0  0  0  0  0
   -1.4900   -9.6981    4.4534 H   0  0  0  0  0  0  0  0  0  0  0  0
   -2.0698   -8.0927    2.6259 H   0  0  0  0  0  0  0  0  0  0  0  0
   -2.1727   -8.8613    0.2723 H   0  0  0  0  0  0  0  0  0  0  0  0
   -1.7739  -11.2661   -0.3093 H   0  0  0  0  0  0  0  0  0  0  0  0
   -3.2647  -16.7724    0.0635 H   0  0  0  0  0  0  0  0  0  0  0  0
  1  2  1  0
  2  3  1  0
  3  4  2  0
  4  5  1  0
  5  6  1  0
  6  7  1  0
  7  8  1  0
  8  9  1  0
  9 10  2  0
 10 11  1  0
 11 12  1  0
 12 13  1  0
 13 14  2  0
 13 15  1  0
 15 16  2  0
 16 17  1  0
 17 18  2  0
 18 19  1  0
 19 20  1  0
 20 21  1  0
 20 22  1  0
 20 23  1  0
 19 24  2  0
 11 25  2  0
 25 26  1  0
 26 27  2  0
 27 28  1  0
  7 29  2  0
 29 30  1  0
 30 31  2  0
 31 32  1  0
 32 33  2  0
 33 34  1  0
 34 35  2  0
  5 36  2  0
 36 37  1  0
 37 38  2  0
 38  3  1  0
 35  6  1  0
 27  9  1  0
 35 30  1  0
 24 15  1  0
  1 39  1  0
  1 40  1  0
  1 41  1  0
  4 42  1  0
  8 43  1  0
 10 44  1  0
 12 45  1  0
 16 46  1  0
 17 47  1  0
 18 48  1  0
 24 49  1  0
 25 50  1  0
 26 51  1  0
 28 52  1  0
 28 53  1  0
 28 54  1  0
 31 55  1  0
 32 56  1  0
 33 57  1  0
 34 58  1  0
 37 59  1  0
M  END
>  <meeko>  (8) 
{"is_sidechain": [false], "free_energy": -8.668, "intermolecular_energy": -12.399, "internal_energy": -1.759}

$$$$
LIB_VEXPKIRCYBYITI__M_PUB_ALL__e8__s20260927
     RDKit          3D

 59 63  0  0  0  0  0  0  0  0999 V2000
    6.9590  -10.0050    1.2220 C   0  0  0  0  0  0  0  0  0  0  0  0
    6.4410  -11.2700    1.6230 O   0  0  0  0  0  0  0  0  0  0  0  0
    6.7670  -12.2950    0.7560 C   0  0  0  0  0  0  0  0  0  0  0  0
    5.7390  -13.1490    0.4230 C   0  0  0  0  0  0  0  0  0  0  0  0
    6.0540  -14.1730   -0.4450 C   0  0  0  0  0  0  0  0  0  0  0  0
    5.0560  -15.1210   -0.8550 N   0  0  0  0  0  0  0  0  0  0  0  0
    4.2980  -15.0380   -2.0380 C   0  0  0  0  0  0  0  0  0  0  0  0
    4.5440  -14.0680   -2.9580 N   0  0  0  0  0  0  0  0  0  0  0  0
    3.8930  -12.8320   -3.1690 C   0  0  0  0  0  0  0  0  0  0  0  0
    2.8380  -12.3850   -2.3550 C   0  0  0  0  0  0  0  0  0  0  0  0
    2.2050  -11.1480   -2.5540 C   0  0  0  0  0  0  0  0  0  0  0  0
    1.1610  -10.8120   -1.6650 N   0  0  0  0  0  0  0  0  0  0  0  0
    1.1480  -10.9520   -0.2910 C   0  0  0  0  0  0  0  0  0  0  0  0
    2.0740  -11.3170    0.4250 O   0  0  0  0  0  0  0  0  0  0  0  0
   -0.1360  -10.5740    0.3660 C   0  0  0  0  0  0  0  0  0  0  0  0
   -0.2100   -9.5250    1.2900 C   0  0  0  0  0  0  0  0  0  0  0  0
   -1.4350   -9.1970    1.8750 C   0  0  0  0  0  0  0  0  0  0  0  0
   -2.5880   -9.9080    1.5350 C   0  0  0  0  0  0  0  0  0  0  0  0
   -2.5320  -10.9560    0.6020 C   0  0  0  0  0  0  0  0  0  0  0  0
   -3.7830  -11.7010    0.2060 C   0  0  0  0  0  0  0  0  0  0  0  0
   -4.4730  -12.1670    1.2820 F   0  0  0  0  0  0  0  0  0  0  0  0
   -4.6590  -10.9370   -0.5040 F   0  0  0  0  0  0  0  0  0  0  0  0
   -3.5280  -12.7900   -0.5740 F   0  0  0  0  0  0  0  0  0  0  0  0
   -1.2990  -11.2740    0.0140 C   0  0  0  0  0  0  0  0  0  0  0  0
    2.6410  -10.3290   -3.5880 C   0  0  0  0  0  0  0  0  0  0  0  0
    3.6890  -10.7410   -4.4090 C   0  0  0  0  0  0  0  0  0  0  0  0
    4.3260  -11.9780   -4.2110 C   0  0  0  0  0  0  0  0  0  0  0  0
    5.4590  -12.3510   -5.1300 C   0  0  0  0  0  0  0  0  0  0  0  0
    3.3500  -15.9510   -2.0470 N   0  0  0  0  0  0  0  0  0  0  0  0
    3.5490  -16.7240   -0.9440 C   0  0  0  0  0  0  0  0  0  0  0  0
    2.8330  -17.8630   -0.5400 C   0  0  0  0  0  0  0  0  0  0  0  0
    3.2510  -18.5620    0.5950 C   0  0  0  0  0  0  0  0  0  0  0  0
    4.3730  -18.1450    1.3040 C   0  0  0  0  0  0  0  0  0  0  0  0
    5.0920  -17.0060    0.9200 C   0  0  0  0  0  0  0  0  0  0  0  0
    4.6370  -16.2770   -0.1960 C   0  0  0  0  0  0  0  0  0  0  0  0
    7.2990  -14.2920   -0.9780 N   0  0  0  0  0  0  0  0  0  0  0  0
    8.2210  -13.4060   -0.5690 C   0  0  0  0  0  0  0  0  0  0  0  0
    8.0190  -12.4040    0.2880 N   0  0  0  0  0  0  0  0  0  0  0  0
    7.2030   -9.4092    2.1139 H   0  0  0  0  0  0  0  0  0  0  0  0
    7.8682  -10.1548    0.6212 H   0  0  0  0  0  0  0  0  0  0  0  0
    6.2059   -9.4741    0.6212 H   0  0  0  0  0  0  0  0  0  0  0  0
    4.7238  -13.0213    0.8268 H   0  0  0  0  0  0  0  0  0  0  0  0
    5.2790  -14.2690   -3.6340 H   0  0  0  0  0  0  0  0  0  0  0  0
    2.4956  -13.0285   -1.5312 H   0  0  0  0  0  0  0  0  0  0  0  0
    0.3510  -10.3880   -2.0990 H   0  0  0  0  0  0  0  0  0  0  0  0
    0.6957   -8.9597    1.5550 H   0  0  0  0  0  0  0  0  0  0  0  0
   -1.4919   -8.3765    2.6055 H   0  0  0  0  0  0  0  0  0  0  0  0
   -3.5484   -9.6447    2.0022 H   0  0  0  0  0  0  0  0  0  0  0  0
   -1.2437  -12.0812   -0.7313 H   0  0  0  0  0  0  0  0  0  0  0  0
    2.1589   -9.3551   -3.7587 H   0  0  0  0  0  0  0  0  0  0  0  0
    4.0237  -10.0861   -5.2269 H   0  0  0  0  0  0  0  0  0  0  0  0
    6.3361  -12.6398   -4.5322 H   0  0  0  0  0  0  0  0  0  0  0  0
    5.1534  -13.1960   -5.7646 H   0  0  0  0  0  0  0  0  0  0  0  0
    5.7151  -11.4898   -5.7646 H   0  0  0  0  0  0  0  0  0  0  0  0
    1.9546  -18.2001   -1.1099 H   0  0  0  0  0  0  0  0  0  0  0  0
    2.6900  -19.4469    0.9299 H   0  0  0  0  0  0  0  0  0  0  0  0
    4.7014  -18.7203    2.1822 H   0  0  0  0  0  0  0  0  0  0  0  0
    5.9875  -16.6894    1.4748 H   0  0  0  0  0  0  0  0  0  0  0  0
    9.2361  -13.5165   -0.9781 H   0  0  0  0  0  0  0  0  0  0  0  0
  1  2  1  0
  2  3  1  0
  3  4  2  0
  4  5  1  0
  5  6  1  0
  6  7  1  0
  7  8  1  0
  8  9  1  0
  9 10  2  0
 10 11  1  0
 11 12  1  0
 12 13  1  0
 13 14  2  0
 13 15  1  0
 15 16  2  0
 16 17  1  0
 17 18  2  0
 18 19  1  0
 19 20  1  0
 20 21  1  0
 20 22  1  0
 20 23  1  0
 19 24  2  0
 11 25  2  0
 25 26  1  0
 26 27  2  0
 27 28  1  0
  7 29  2  0
 29 30  1  0
 30 31  2  0
 31 32  1  0
 32 33  2  0
 33 34  1  0
 34 35  2  0
  5 36  2  0
 36 37  1  0
 37 38  2  0
 38  3  1  0
 35  6  1  0
 27  9  1  0
 35 30  1  0
 24 15  1  0
  1 39  1  0
  1 40  1  0
  1 41  1  0
  4 42  1  0
  8 43  1  0
 10 44  1  0
 12 45  1  0
 16 46  1  0
 17 47  1  0
 18 48  1  0
 24 49  1  0
 25 50  1  0
 26 51  1  0
 28 52  1  0
 28 53  1  0
 28 54  1  0
 31 55  1  0
 32 56  1  0
 33 57  1  0
 34 58  1  0
 37 59  1  0
M  END
>  <meeko>  (9) 
{"is_sidechain": [false], "free_energy": -8.489, "intermolecular_energy": -12.099, "internal_energy": -1.807}

$$$$
