LIB_LYONNGHGTZAEOI__M_PUB_ALL__e8__s20260927
     RDKit          3D

 64 69  0  0  0  0  0  0  0  0999 V2000
    5.7900  -13.0430   -6.3820 C   0  0  0  0  0  0  0  0  0  0  0  0
    5.9080  -12.5470   -5.0540 O   0  0  0  0  0  0  0  0  0  0  0  0
    4.8040  -11.9450   -4.5200 C   0  0  0  0  0  0  0  0  0  0  0  0
    3.9740  -11.0360   -5.1590 C   0  0  0  0  0  0  0  0  0  0  0  0
    2.8710  -10.5080   -4.4790 C   0  0  0  0  0  0  0  0  0  0  0  0
    2.5720  -10.8570   -3.1690 C   0  0  0  0  0  0  0  0  0  0  0  0
    1.4890  -10.3090   -2.6010 N   0  0  0  0  0  0  0  0  0  0  0  0
    1.1760  -10.6170   -1.3350 C   0  0  0  0  0  0  0  0  0  0  0  0
    0.0520  -10.0180   -0.7860 C   0  0  0  0  0  0  0  0  0  0  0  0
   -0.3330  -10.2660    0.5290 C   0  0  0  0  0  0  0  0  0  0  0  0
   -1.7330   -9.5000    1.1720 Cl  0  0  0  0  0  0  0  0  0  0  0  0
    0.4120  -11.1220    1.3260 C   0  0  0  0  0  0  0  0  0  0  0  0
    1.5430  -11.7340    0.7890 C   0  0  0  0  0  0  0  0  0  0  0  0
    1.9370  -11.5060   -0.5530 C   0  0  0  0  0  0  0  0  0  0  0  0
    3.0760  -12.0960   -1.1640 C   0  0  0  0  0  0  0  0  0  0  0  0
    3.8910  -13.0170   -0.4540 N   0  0  0  0  0  0  0  0  0  0  0  0
    5.1930  -12.8510    0.0450 C   0  0  0  0  0  0  0  0  0  0  0  0
    6.1670  -13.8090   -0.2490 C   0  0  0  0  0  0  0  0  0  0  0  0
    7.4900  -13.6610    0.1930 C   0  0  0  0  0  0  0  0  0  0  0  0
    7.8860  -12.5490    0.9370 C   0  0  0  0  0  0  0  0  0  0  0  0
    9.1860  -12.3400    1.4050 N   0  0  0  0  0  0  0  0  0  0  0  0
   10.4260  -12.1710    0.7910 C   0  0  0  0  0  0  0  0  0  0  0  0
   11.1460  -11.0750    0.9600 N   0  0  0  0  0  0  0  0  0  0  0  0
   12.3110  -11.0380    0.3200 C   0  0  0  0  0  0  0  0  0  0  0  0
   13.1230   -9.9070    0.4570 N   0  0  0  0  0  0  0  0  0  0  0  0
   14.5230   -9.9790    0.5170 N   0  0  0  0  0  0  0  0  0  0  0  0
   12.7700  -12.0110   -0.4510 N   0  0  0  0  0  0  0  0  0  0  0  0
   11.9880  -13.0760   -0.5690 C   0  0  0  0  0  0  0  0  0  0  0  0
   12.4960  -14.0850   -1.3860 N   0  0  0  0  0  0  0  0  0  0  0  0
   12.4600  -14.3410   -2.7610 C   0  0  0  0  0  0  0  0  0  0  0  0
   13.3520  -15.1910   -3.4240 C   0  0  0  0  0  0  0  0  0  0  0  0
   13.2620  -15.4040   -4.8040 C   0  0  0  0  0  0  0  0  0  0  0  0
   12.2740  -14.7690   -5.5490 C   0  0  0  0  0  0  0  0  0  0  0  0
   11.3750  -13.9210   -4.9130 C   0  0  0  0  0  0  0  0  0  0  0  0
   11.4690  -13.7120   -3.5340 C   0  0  0  0  0  0  0  0  0  0  0  0
   10.8130  -13.1920    0.0350 N   0  0  0  0  0  0  0  0  0  0  0  0
    6.9070  -11.5840    1.2180 C   0  0  0  0  0  0  0  0  0  0  0  0
    5.5860  -11.7290    0.7770 C   0  0  0  0  0  0  0  0  0  0  0  0
    3.4100  -11.7640   -2.5020 C   0  0  0  0  0  0  0  0  0  0  0  0
    4.5180  -12.3060   -3.2020 C   0  0  0  0  0  0  0  0  0  0  0  0
    5.5355  -14.1128   -6.3526 H   0  0  0  0  0  0  0  0  0  0  0  0
    4.9979  -12.4920   -6.9102 H   0  0  0  0  0  0  0  0  0  0  0  0
    6.7454  -12.9078   -6.9102 H   0  0  0  0  0  0  0  0  0  0  0  0
    4.1818  -10.7316   -6.1954 H   0  0  0  0  0  0  0  0  0  0  0  0
    2.2185   -9.7920   -5.0002 H   0  0  0  0  0  0  0  0  0  0  0  0
   -0.5480   -9.3325   -1.4024 H   0  0  0  0  0  0  0  0  0  0  0  0
    0.1145  -11.3152    2.3672 H   0  0  0  0  0  0  0  0  0  0  0  0
    2.1419  -12.4076    1.4195 H   0  0  0  0  0  0  0  0  0  0  0  0
    3.3920  -13.8280   -0.1060 H   0  0  0  0  0  0  0  0  0  0  0  0
    5.8910  -14.6959   -0.8382 H   0  0  0  0  0  0  0  0  0  0  0  0
    8.2301  -14.4371   -0.0518 H   0  0  0  0  0  0  0  0  0  0  0  0
    9.3070  -12.2980    2.4070 H   0  0  0  0  0  0  0  0  0  0  0  0
   12.6230   -9.0270    0.5260 H   0  0  0  0  0  0  0  0  0  0  0  0
   14.8720   -9.1830    1.0620 H   0  0  0  0  0  0  0  0  0  0  0  0
   14.7860  -10.7940    1.0820 H   0  0  0  0  0  0  0  0  0  0  0  0
   12.9930  -14.7550   -0.8170 H   0  0  0  0  0  0  0  0  0  0  0  0
   14.1390  -15.7015   -2.8494 H   0  0  0  0  0  0  0  0  0  0  0  0
   13.9759  -16.0767   -5.3019 H   0  0  0  0  0  0  0  0  0  0  0  0
   12.2046  -14.9367   -6.6339 H   0  0  0  0  0  0  0  0  0  0  0  0
   10.5902  -13.4148   -5.4943 H   0  0  0  0  0  0  0  0  0  0  0  0
   10.7506  -13.0395   -3.0424 H   0  0  0  0  0  0  0  0  0  0  0  0
    7.1840  -10.6919    1.7989 H   0  0  0  0  0  0  0  0  0  0  0  0
    4.8475  -10.9479    1.0106 H   0  0  0  0  0  0  0  0  0  0  0  0
    5.1700  -13.0308   -2.6925 H   0  0  0  0  0  0  0  0  0  0  0  0
  1  2  1  0
  2  3  1  0
  3  4  2  0
  4  5  1  0
  5  6  2  0
  6  7  1  0
  7  8  2  0
  8  9  1  0
  9 10  2  0
 10 11  1  0
 10 12  1  0
 12 13  2  0
 13 14  1  0
 14 15  2  0
 15 16  1  0
 16 17  1  0
 17 18  2  0
 18 19  1  0
 19 20  2  0
 20 21  1  0
 21 22  1  0
 22 23  2  0
 23 24  1  0
 24 25  1  0
 25 26  1  0
 24 27  2  0
 27 28  1  0
 28 29  1  0
 29 30  1  0
 30 31  2  0
 31 32  1  0
 32 33  2  0
 33 34  1  0
 34 35  2  0
 28 36  2  0
 20 37  1  0
 37 38  2  0
 15 39  1  0
 39 40  2  0
 40  3  1  0
 39  6  1  0
 14  8  1  0
 38 17  1  0
 36 22  1  0
 35 30  1  0
  1 41  1  0
  1 42  1  0
  1 43  1  0
  4 44  1  0
  5 45  1  0
  9 46  1  0
 12 47  1  0
 13 48  1  0
 16 49  1  0
 18 50  1  0
 19 51  1  0
 21 52  1  0
 25 53  1  0
 26 54  1  0
 26 55  1  0
 29 56  1  0
 31 57  1  0
 32 58  1  0
 33 59  1  0
 34 60  1  0
 35 61  1  0
 37 62  1  0
 38 63  1  0
 40 64  1  0
M  END
>  <meeko>  (1) 
{"is_sidechain": [false], "free_energy": -9.182, "intermolecular_energy": -13.745, "internal_energy": -1.382}

$$$$
LIB_LYONNGHGTZAEOI__M_PUB_ALL__e8__s20260927
     RDKit          3D

 64 69  0  0  0  0  0  0  0  0999 V2000
    0.3940   -9.6650   -1.0570 C   0  0  0  0  0  0  0  0  0  0  0  0
    0.3180   -9.4980    0.3540 O   0  0  0  0  0  0  0  0  0  0  0  0
   -0.4000  -10.4300    1.0480 C   0  0  0  0  0  0  0  0  0  0  0  0
   -1.2210  -10.1870    2.1400 C   0  0  0  0  0  0  0  0  0  0  0  0
   -1.9020  -11.2490    2.7440 C   0  0  0  0  0  0  0  0  0  0  0  0
   -1.7830  -12.5570    2.2950 C   0  0  0  0  0  0  0  0  0  0  0  0
   -2.4810  -13.5090    2.9280 N   0  0  0  0  0  0  0  0  0  0  0  0
   -2.3840  -14.7830    2.5250 C   0  0  0  0  0  0  0  0  0  0  0  0
   -3.1160  -15.7360    3.2180 C   0  0  0  0  0  0  0  0  0  0  0  0
   -3.0570  -17.0850    2.8790 C   0  0  0  0  0  0  0  0  0  0  0  0
   -3.9800  -18.2340    3.7660 Cl  0  0  0  0  0  0  0  0  0  0  0  0
   -2.2500  -17.5080    1.8340 C   0  0  0  0  0  0  0  0  0  0  0  0
   -1.5090  -16.5640    1.1260 C   0  0  0  0  0  0  0  0  0  0  0  0
   -1.5730  -15.1850    1.4470 C   0  0  0  0  0  0  0  0  0  0  0  0
   -0.8470  -14.1710    0.7680 C   0  0  0  0  0  0  0  0  0  0  0  0
   -0.0170  -14.4840   -0.3410 N   0  0  0  0  0  0  0  0  0  0  0  0
    1.3500  -14.2250   -0.5310 C   0  0  0  0  0  0  0  0  0  0  0  0
    1.7710  -13.5960   -1.7060 C   0  0  0  0  0  0  0  0  0  0  0  0
    3.1220  -13.2800   -1.9180 C   0  0  0  0  0  0  0  0  0  0  0  0
    4.0930  -13.5740   -0.9610 C   0  0  0  0  0  0  0  0  0  0  0  0
    5.4530  -13.2830   -1.1070 N   0  0  0  0  0  0  0  0  0  0  0  0
    6.3730  -12.5370   -0.3740 C   0  0  0  0  0  0  0  0  0  0  0  0
    6.0160  -11.4590    0.3050 N   0  0  0  0  0  0  0  0  0  0  0  0
    6.9880  -10.8370    0.9640 C   0  0  0  0  0  0  0  0  0  0  0  0
    6.6780   -9.6900    1.7030 N   0  0  0  0  0  0  0  0  0  0  0  0
    5.4890   -9.5540    2.4360 N   0  0  0  0  0  0  0  0  0  0  0  0
    8.2530  -11.2290    0.9750 N   0  0  0  0  0  0  0  0  0  0  0  0
    8.5280  -12.3180    0.2710 C   0  0  0  0  0  0  0  0  0  0  0  0
    9.8660  -12.7090    0.3010 N   0  0  0  0  0  0  0  0  0  0  0  0
   11.0300  -12.2610   -0.3340 C   0  0  0  0  0  0  0  0  0  0  0  0
   11.9940  -11.4520    0.2770 C   0  0  0  0  0  0  0  0  0  0  0  0
   13.1380  -11.0370   -0.4150 C   0  0  0  0  0  0  0  0  0  0  0  0
   13.3390  -11.4280   -1.7350 C   0  0  0  0  0  0  0  0  0  0  0  0
   12.3970  -12.2340   -2.3630 C   0  0  0  0  0  0  0  0  0  0  0  0
   11.2560  -12.6450   -1.6670 C   0  0  0  0  0  0  0  0  0  0  0  0
    7.6180  -12.9970   -0.4140 N   0  0  0  0  0  0  0  0  0  0  0  0
    3.6630  -14.1930    0.2230 C   0  0  0  0  0  0  0  0  0  0  0  0
    2.3160  -14.5080    0.4370 C   0  0  0  0  0  0  0  0  0  0  0  0
   -0.9460  -12.8230    1.2000 C   0  0  0  0  0  0  0  0  0  0  0  0
   -0.2700  -11.7400    0.5830 C   0  0  0  0  0  0  0  0  0  0  0  0
    0.8396  -10.6441   -1.2869 H   0  0  0  0  0  0  0  0  0  0  0  0
   -0.6169   -9.6120   -1.4875 H   0  0  0  0  0  0  0  0  0  0  0  0
    1.0181   -8.8680   -1.4875 H   0  0  0  0  0  0  0  0  0  0  0  0
   -1.3357   -9.1644    2.5287 H   0  0  0  0  0  0  0  0  0  0  0  0
   -2.5545  -11.0404    3.6047 H   0  0  0  0  0  0  0  0  0  0  0  0
   -3.7571  -15.4189    4.0537 H   0  0  0  0  0  0  0  0  0  0  0  0
   -2.1955  -18.5739    1.5676 H   0  0  0  0  0  0  0  0  0  0  0  0
   -0.8612  -16.8958    0.3012 H   0  0  0  0  0  0  0  0  0  0  0  0
   -0.4300  -15.1420   -0.9930 H   0  0  0  0  0  0  0  0  0  0  0  0
    1.0299  -13.3440   -2.4788 H   0  0  0  0  0  0  0  0  0  0  0  0
    3.4207  -12.7911   -2.8570 H   0  0  0  0  0  0  0  0  0  0  0  0
    5.9160  -13.6770   -1.9140 H   0  0  0  0  0  0  0  0  0  0  0  0
    7.3730   -8.9510    1.6570 H   0  0  0  0  0  0  0  0  0  0  0  0
    5.4850   -8.6360    2.8930 H   0  0  0  0  0  0  0  0  0  0  0  0
    4.7030   -9.5030    1.7800 H   0  0  0  0  0  0  0  0  0  0  0  0
    9.9710  -13.4880    0.9340 H   0  0  0  0  0  0  0  0  0  0  0  0
   11.8504  -11.1360    1.3208 H   0  0  0  0  0  0  0  0  0  0  0  0
   13.8808  -10.3994    0.0868 H   0  0  0  0  0  0  0  0  0  0  0  0
   14.2380  -11.1012   -2.2782 H   0  0  0  0  0  0  0  0  0  0  0  0
   12.5488  -12.5482   -3.4062 H   0  0  0  0  0  0  0  0  0  0  0  0
   10.5181  -13.2837   -2.1745 H   0  0  0  0  0  0  0  0  0  0  0  0
    4.4017  -14.4363    1.0009 H   0  0  0  0  0  0  0  0  0  0  0  0
    2.0141  -14.9852    1.3810 H   0  0  0  0  0  0  0  0  0  0  0  0
    0.3747  -11.9374   -0.2861 H   0  0  0  0  0  0  0  0  0  0  0  0
  1  2  1  0
  2  3  1  0
  3  4  2  0
  4  5  1  0
  5  6  2  0
  6  7  1  0
  7  8  2  0
  8  9  1  0
  9 10  2  0
 10 11  1  0
 10 12  1  0
 12 13  2  0
 13 14  1  0
 14 15  2  0
 15 16  1  0
 16 17  1  0
 17 18  2  0
 18 19  1  0
 19 20  2  0
 20 21  1  0
 21 22  1  0
 22 23  2  0
 23 24  1  0
 24 25  1  0
 25 26  1  0
 24 27  2  0
 27 28  1  0
 28 29  1  0
 29 30  1  0
 30 31  2  0
 31 32  1  0
 32 33  2  0
 33 34  1  0
 34 35  2  0
 28 36  2  0
 20 37  1  0
 37 38  2  0
 15 39  1  0
 39 40  2  0
 40  3  1  0
 39  6  1  0
 14  8  1  0
 38 17  1  0
 36 22  1  0
 35 30  1  0
  1 41  1  0
  1 42  1  0
  1 43  1  0
  4 44  1  0
  5 45  1  0
  9 46  1  0
 12 47  1  0
 13 48  1  0
 16 49  1  0
 18 50  1  0
 19 51  1  0
 21 52  1  0
 25 53  1  0
 26 54  1  0
 26 55  1  0
 29 56  1  0
 31 57  1  0
 32 58  1  0
 33 59  1  0
 34 60  1  0
 35 61  1  0
 37 62  1  0
 38 63  1  0
 40 64  1  0
M  END
>  <meeko>  (2) 
{"is_sidechain": [false], "free_energy": -8.947, "intermolecular_energy": -13.517, "internal_energy": -1.257}

$$$$
LIB_LYONNGHGTZAEOI__M_PUB_ALL__e8__s20260927
     RDKit          3D

 64 69  0  0  0  0  0  0  0  0999 V2000
    7.4600  -15.8260   -6.3360 C   0  0  0  0  0  0  0  0  0  0  0  0
    8.1460  -16.1620   -5.1350 O   0  0  0  0  0  0  0  0  0  0  0  0
    9.1130  -15.2940   -4.7130 C   0  0  0  0  0  0  0  0  0  0  0  0
   10.0910  -14.7080   -5.5020 C   0  0  0  0  0  0  0  0  0  0  0  0
   11.0130  -13.8290   -4.9240 C   0  0  0  0  0  0  0  0  0  0  0  0
   10.9940  -13.5200   -3.5710 C   0  0  0  0  0  0  0  0  0  0  0  0
   11.9100  -12.6590   -3.1060 N   0  0  0  0  0  0  0  0  0  0  0  0
   11.9250  -12.3440   -1.8040 C   0  0  0  0  0  0  0  0  0  0  0  0
   12.8980  -11.4580   -1.3670 C   0  0  0  0  0  0  0  0  0  0  0  0
   12.9980  -11.0940   -0.0260 C   0  0  0  0  0  0  0  0  0  0  0  0
   14.2210   -9.9920    0.4740 Cl  0  0  0  0  0  0  0  0  0  0  0  0
   12.1210  -11.6210    0.9090 C   0  0  0  0  0  0  0  0  0  0  0  0
   11.1360  -12.5110    0.4860 C   0  0  0  0  0  0  0  0  0  0  0  0
   11.0100  -12.8780   -0.8770 C   0  0  0  0  0  0  0  0  0  0  0  0
   10.0310  -13.7780   -1.3760 C   0  0  0  0  0  0  0  0  0  0  0  0
    9.0580  -14.3500   -0.5150 N   0  0  0  0  0  0  0  0  0  0  0  0
    7.7600  -13.9020   -0.2170 C   0  0  0  0  0  0  0  0  0  0  0  0
    6.7320  -14.8360   -0.0630 C   0  0  0  0  0  0  0  0  0  0  0  0
    5.4300  -14.4360    0.2760 C   0  0  0  0  0  0  0  0  0  0  0  0
    5.1160  -13.0920    0.4800 C   0  0  0  0  0  0  0  0  0  0  0  0
    3.8420  -12.6270    0.8220 N   0  0  0  0  0  0  0  0  0  0  0  0
    2.8630  -11.8940    0.1550 C   0  0  0  0  0  0  0  0  0  0  0  0
    1.8910  -11.2740    0.8030 N   0  0  0  0  0  0  0  0  0  0  0  0
    1.0210  -10.6080    0.0510 C   0  0  0  0  0  0  0  0  0  0  0  0
   -0.0320   -9.9280    0.6740 N   0  0  0  0  0  0  0  0  0  0  0  0
    0.1640   -8.7990    1.4840 N   0  0  0  0  0  0  0  0  0  0  0  0
    1.0770  -10.5370   -1.2700 N   0  0  0  0  0  0  0  0  0  0  0  0
    2.0810  -11.1850   -1.8440 C   0  0  0  0  0  0  0  0  0  0  0  0
    2.1160  -11.0930   -3.2350 N   0  0  0  0  0  0  0  0  0  0  0  0
    2.8780  -11.7030   -4.2370 C   0  0  0  0  0  0  0  0  0  0  0  0
    3.6020  -11.0020   -5.2070 C   0  0  0  0  0  0  0  0  0  0  0  0
    4.3450  -11.6740   -6.1850 C   0  0  0  0  0  0  0  0  0  0  0  0
    4.3760  -13.0640   -6.2090 C   0  0  0  0  0  0  0  0  0  0  0  0
    3.6650  -13.7830   -5.2560 C   0  0  0  0  0  0  0  0  0  0  0  0
    2.9250  -13.1070   -4.2810 C   0  0  0  0  0  0  0  0  0  0  0  0
    2.9910  -11.8720   -1.1670 N   0  0  0  0  0  0  0  0  0  0  0  0
    6.1540  -12.1600    0.3370 C   0  0  0  0  0  0  0  0  0  0  0  0
    7.4540  -12.5580   -0.0010 C   0  0  0  0  0  0  0  0  0  0  0  0
   10.0200  -14.1150   -2.7540 C   0  0  0  0  0  0  0  0  0  0  0  0
    9.0800  -14.9940   -3.3500 C   0  0  0  0  0  0  0  0  0  0  0  0
    6.4974  -15.3545   -6.0888 H   0  0  0  0  0  0  0  0  0  0  0  0
    8.0713  -15.1253   -6.9237 H   0  0  0  0  0  0  0  0  0  0  0  0
    7.2812  -16.7385   -6.9237 H   0  0  0  0  0  0  0  0  0  0  0  0
   10.1417  -14.9333   -6.5775 H   0  0  0  0  0  0  0  0  0  0  0  0
   11.7793  -13.3669   -5.5637 H   0  0  0  0  0  0  0  0  0  0  0  0
   13.6057  -11.0337   -2.0944 H   0  0  0  0  0  0  0  0  0  0  0  0
   12.2015  -11.3407    1.9696 H   0  0  0  0  0  0  0  0  0  0  0  0
   10.4419  -12.9375    1.2251 H   0  0  0  0  0  0  0  0  0  0  0  0
    9.2670  -15.3000   -0.2280 H   0  0  0  0  0  0  0  0  0  0  0  0
    6.9472  -15.9047   -0.2102 H   0  0  0  0  0  0  0  0  0  0  0  0
    4.6424  -15.1964    0.3828 H   0  0  0  0  0  0  0  0  0  0  0  0
    3.5160  -12.8410    1.7530 H   0  0  0  0  0  0  0  0  0  0  0  0
   -0.9520  -10.3240    0.5100 H   0  0  0  0  0  0  0  0  0  0  0  0
   -0.5880   -8.7580    2.1800 H   0  0  0  0  0  0  0  0  0  0  0  0
    1.0090   -8.9430    2.0470 H   0  0  0  0  0  0  0  0  0  0  0  0
    1.4200  -10.4280   -3.5410 H   0  0  0  0  0  0  0  0  0  0  0  0
    3.5873   -9.9021   -5.2013 H   0  0  0  0  0  0  0  0  0  0  0  0
    4.9063  -11.1003   -6.9372 H   0  0  0  0  0  0  0  0  0  0  0  0
    4.9599  -13.5912   -6.9778 H   0  0  0  0  0  0  0  0  0  0  0  0
    3.6843  -14.8828   -5.2685 H   0  0  0  0  0  0  0  0  0  0  0  0
    2.3670  -13.6872   -3.5314 H   0  0  0  0  0  0  0  0  0  0  0  0
    5.9426  -11.0919    0.4938 H   0  0  0  0  0  0  0  0  0  0  0  0
    8.2451  -11.7998   -0.0975 H   0  0  0  0  0  0  0  0  0  0  0  0
    8.3030  -15.4523   -2.7205 H   0  0  0  0  0  0  0  0  0  0  0  0
  1  2  1  0
  2  3  1  0
  3  4  2  0
  4  5  1  0
  5  6  2  0
  6  7  1  0
  7  8  2  0
  8  9  1  0
  9 10  2  0
 10 11  1  0
 10 12  1  0
 12 13  2  0
 13 14  1  0
 14 15  2  0
 15 16  1  0
 16 17  1  0
 17 18  2  0
 18 19  1  0
 19 20  2  0
 20 21  1  0
 21 22  1  0
 22 23  2  0
 23 24  1  0
 24 25  1  0
 25 26  1  0
 24 27  2  0
 27 28  1  0
 28 29  1  0
 29 30  1  0
 30 31  2  0
 31 32  1  0
 32 33  2  0
 33 34  1  0
 34 35  2  0
 28 36  2  0
 20 37  1  0
 37 38  2  0
 15 39  1  0
 39 40  2  0
 40  3  1  0
 39  6  1  0
 14  8  1  0
 38 17  1  0
 36 22  1  0
 35 30  1  0
  1 41  1  0
  1 42  1  0
  1 43  1  0
  4 44  1  0
  5 45  1  0
  9 46  1  0
 12 47  1  0
 13 48  1  0
 16 49  1  0
 18 50  1  0
 19 51  1  0
 21 52  1  0
 25 53  1  0
 26 54  1  0
 26 55  1  0
 29 56  1  0
 31 57  1  0
 32 58  1  0
 33 59  1  0
 34 60  1  0
 35 61  1  0
 37 62  1  0
 38 63  1  0
 40 64  1  0
M  END
>  <meeko>  (3) 
{"is_sidechain": [false], "free_energy": -8.922, "intermolecular_energy": -13.065, "internal_energy": -1.672}

$$$$
LIB_LYONNGHGTZAEOI__M_PUB_ALL__e8__s20260927
     RDKit          3D

 64 69  0  0  0  0  0  0  0  0999 V2000
    3.1210  -10.2570   -4.2430 C   0  0  0  0  0  0  0  0  0  0  0  0
    2.9140  -11.5320   -4.8400 O   0  0  0  0  0  0  0  0  0  0  0  0
    2.4070  -12.5150   -4.0390 C   0  0  0  0  0  0  0  0  0  0  0  0
    1.5500  -13.5330   -4.4300 C   0  0  0  0  0  0  0  0  0  0  0  0
    1.1200  -14.4770   -3.4910 C   0  0  0  0  0  0  0  0  0  0  0  0
    1.5160  -14.4310   -2.1610 C   0  0  0  0  0  0  0  0  0  0  0  0
    1.0630  -15.3830   -1.3340 N   0  0  0  0  0  0  0  0  0  0  0  0
    1.4200  -15.3650   -0.0430 C   0  0  0  0  0  0  0  0  0  0  0  0
    0.9170  -16.3640    0.7780 C   0  0  0  0  0  0  0  0  0  0  0  0
    1.2200  -16.4080    2.1370 C   0  0  0  0  0  0  0  0  0  0  0  0
    0.5740  -17.6640    3.1190 Cl  0  0  0  0  0  0  0  0  0  0  0  0
    2.0340  -15.4390    2.7030 C   0  0  0  0  0  0  0  0  0  0  0  0
    2.5480  -14.4300    1.8920 C   0  0  0  0  0  0  0  0  0  0  0  0
    2.2650  -14.3810    0.5050 C   0  0  0  0  0  0  0  0  0  0  0  0
    2.7550  -13.3830   -0.3780 C   0  0  0  0  0  0  0  0  0  0  0  0
    3.6270  -12.3620    0.0850 N   0  0  0  0  0  0  0  0  0  0  0  0
    5.0180  -12.4000    0.2760 C   0  0  0  0  0  0  0  0  0  0  0  0
    5.6290  -11.4120    1.0530 C   0  0  0  0  0  0  0  0  0  0  0  0
    7.0090  -11.4350    1.3050 C   0  0  0  0  0  0  0  0  0  0  0  0
    7.8220  -12.4490    0.7960 C   0  0  0  0  0  0  0  0  0  0  0  0
    9.2010  -12.5320    1.0120 N   0  0  0  0  0  0  0  0  0  0  0  0
   10.3230  -12.0950    0.3110 C   0  0  0  0  0  0  0  0  0  0  0  0
   11.2070  -11.2720    0.8500 N   0  0  0  0  0  0  0  0  0  0  0  0
   12.2330  -10.9320    0.0780 C   0  0  0  0  0  0  0  0  0  0  0  0
   13.2060  -10.0630    0.5870 N   0  0  0  0  0  0  0  0  0  0  0  0
   14.5790  -10.2450    0.3640 N   0  0  0  0  0  0  0  0  0  0  0  0
   12.4100  -11.3620   -1.1620 N   0  0  0  0  0  0  0  0  0  0  0  0
   11.4800  -12.1850   -1.6280 C   0  0  0  0  0  0  0  0  0  0  0  0
   11.6910  -12.6220   -2.9350 N   0  0  0  0  0  0  0  0  0  0  0  0
   12.4050  -13.6800   -3.5090 C   0  0  0  0  0  0  0  0  0  0  0  0
   12.6150  -14.9140   -2.8850 C   0  0  0  0  0  0  0  0  0  0  0  0
   13.3410  -15.9320   -3.5150 C   0  0  0  0  0  0  0  0  0  0  0  0
   13.8700  -15.7330   -4.7860 C   0  0  0  0  0  0  0  0  0  0  0  0
   13.6730  -14.5150   -5.4270 C   0  0  0  0  0  0  0  0  0  0  0  0
   12.9480  -13.5020   -4.7930 C   0  0  0  0  0  0  0  0  0  0  0  0
   10.4260  -12.5730   -0.9240 N   0  0  0  0  0  0  0  0  0  0  0  0
    7.2010  -13.4450    0.0280 C   0  0  0  0  0  0  0  0  0  0  0  0
    5.8230  -13.4250   -0.2230 C   0  0  0  0  0  0  0  0  0  0  0  0
    2.3720  -13.3990   -1.7450 C   0  0  0  0  0  0  0  0  0  0  0  0
    2.8150  -12.4550   -2.7050 C   0  0  0  0  0  0  0  0  0  0  0  0
    3.1046  -10.3579   -3.1478 H   0  0  0  0  0  0  0  0  0  0  0  0
    4.0957   -9.8577   -4.5599 H   0  0  0  0  0  0  0  0  0  0  0  0
    2.3227   -9.5698   -4.5599 H   0  0  0  0  0  0  0  0  0  0  0  0
    1.2098  -13.5980   -5.4740 H   0  0  0  0  0  0  0  0  0  0  0  0
    0.4457  -15.2825   -3.8174 H   0  0  0  0  0  0  0  0  0  0  0  0
    0.2650  -17.1378    0.3466 H   0  0  0  0  0  0  0  0  0  0  0  0
    2.2705  -15.4666    3.7769 H   0  0  0  0  0  0  0  0  0  0  0  0
    3.1876  -13.6543    2.3384 H   0  0  0  0  0  0  0  0  0  0  0  0
    3.2110  -11.4380    0.0990 H   0  0  0  0  0  0  0  0  0  0  0  0
    5.0166  -10.6014    1.4748 H   0  0  0  0  0  0  0  0  0  0  0  0
    7.4590  -10.6384    1.9156 H   0  0  0  0  0  0  0  0  0  0  0  0
    9.5010  -13.0130    1.8480 H   0  0  0  0  0  0  0  0  0  0  0  0
   12.8440   -9.2980    1.1460 H   0  0  0  0  0  0  0  0  0  0  0  0
   14.7110  -11.0690   -0.2310 H   0  0  0  0  0  0  0  0  0  0  0  0
   14.9230   -9.4700   -0.2140 H   0  0  0  0  0  0  0  0  0  0  0  0
   11.2010  -12.0120   -3.5730 H   0  0  0  0  0  0  0  0  0  0  0  0
   12.2020  -15.0880   -1.8804 H   0  0  0  0  0  0  0  0  0  0  0  0
   13.4937  -16.8933   -3.0026 H   0  0  0  0  0  0  0  0  0  0  0  0
   14.4400  -16.5334   -5.2804 H   0  0  0  0  0  0  0  0  0  0  0  0
   14.0874  -14.3487   -6.4323 H   0  0  0  0  0  0  0  0  0  0  0  0
   12.7990  -12.5432   -5.3111 H   0  0  0  0  0  0  0  0  0  0  0  0
    7.8106  -14.2612   -0.3870 H   0  0  0  0  0  0  0  0  0  0  0  0
    5.3691  -14.2284   -0.8218 H   0  0  0  0  0  0  0  0  0  0  0  0
    3.4991  -11.6530   -2.3904 H   0  0  0  0  0  0  0  0  0  0  0  0
  1  2  1  0
  2  3  1  0
  3  4  2  0
  4  5  1  0
  5  6  2  0
  6  7  1  0
  7  8  2  0
  8  9  1  0
  9 10  2  0
 10 11  1  0
 10 12  1  0
 12 13  2  0
 13 14  1  0
 14 15  2  0
 15 16  1  0
 16 17  1  0
 17 18  2  0
 18 19  1  0
 19 20  2  0
 20 21  1  0
 21 22  1  0
 22 23  2  0
 23 24  1  0
 24 25  1  0
 25 26  1  0
 24 27  2  0
 27 28  1  0
 28 29  1  0
 29 30  1  0
 30 31  2  0
 31 32  1  0
 32 33  2  0
 33 34  1  0
 34 35  2  0
 28 36  2  0
 20 37  1  0
 37 38  2  0
 15 39  1  0
 39 40  2  0
 40  3  1  0
 39  6  1  0
 14  8  1  0
 38 17  1  0
 36 22  1  0
 35 30  1  0
  1 41  1  0
  1 42  1  0
  1 43  1  0
  4 44  1  0
  5 45  1  0
  9 46  1  0
 12 47  1  0
 13 48  1  0
 16 49  1  0
 18 50  1  0
 19 51  1  0
 21 52  1  0
 25 53  1  0
 26 54  1  0
 26 55  1  0
 29 56  1  0
 31 57  1  0
 32 58  1  0
 33 59  1  0
 34 60  1  0
 35 61  1  0
 37 62  1  0
 38 63  1  0
 40 64  1  0
M  END
>  <meeko>  (4) 
{"is_sidechain": [false], "free_energy": -8.901, "intermolecular_energy": -13.313, "internal_energy": -1.394}

$$$$
LIB_LYONNGHGTZAEOI__M_PUB_ALL__e8__s20260927
     RDKit          3D

 64 69  0  0  0  0  0  0  0  0999 V2000
    2.6490  -10.5920   -3.2500 C   0  0  0  0  0  0  0  0  0  0  0  0
    3.0880  -10.5090   -4.6010 O   0  0  0  0  0  0  0  0  0  0  0  0
    3.8060  -11.5670   -5.0830 C   0  0  0  0  0  0  0  0  0  0  0  0
    4.3930  -11.6570   -6.3360 C   0  0  0  0  0  0  0  0  0  0  0  0
    5.1070  -12.8090   -6.6860 C   0  0  0  0  0  0  0  0  0  0  0  0
    5.2490  -13.8840   -5.8190 C   0  0  0  0  0  0  0  0  0  0  0  0
    5.9590  -14.9410   -6.2340 N   0  0  0  0  0  0  0  0  0  0  0  0
    6.1100  -15.9990   -5.4260 C   0  0  0  0  0  0  0  0  0  0  0  0
    6.8440  -17.0740   -5.9030 C   0  0  0  0  0  0  0  0  0  0  0  0
    7.0310  -18.2220   -5.1370 C   0  0  0  0  0  0  0  0  0  0  0  0
    7.9470  -19.5350   -5.7680 Cl  0  0  0  0  0  0  0  0  0  0  0  0
    6.4750  -18.3150   -3.8700 C   0  0  0  0  0  0  0  0  0  0  0  0
    5.7370  -17.2430   -3.3750 C   0  0  0  0  0  0  0  0  0  0  0  0
    5.5520  -16.0610   -4.1340 C   0  0  0  0  0  0  0  0  0  0  0  0
    4.8130  -14.9320   -3.6920 C   0  0  0  0  0  0  0  0  0  0  0  0
    4.2310  -14.9020   -2.3970 N   0  0  0  0  0  0  0  0  0  0  0  0
    2.9780  -15.3770   -1.9740 C   0  0  0  0  0  0  0  0  0  0  0  0
    2.9110  -16.5510   -1.2200 C   0  0  0  0  0  0  0  0  0  0  0  0
    1.6850  -17.0380   -0.7410 C   0  0  0  0  0  0  0  0  0  0  0  0
    0.4900  -16.3640   -0.9920 C   0  0  0  0  0  0  0  0  0  0  0  0
   -0.7630  -16.7930   -0.5410 N   0  0  0  0  0  0  0  0  0  0  0  0
   -1.5490  -16.5000    0.5710 C   0  0  0  0  0  0  0  0  0  0  0  0
   -1.6030  -17.3040    1.6200 N   0  0  0  0  0  0  0  0  0  0  0  0
   -2.3890  -16.9110    2.6170 C   0  0  0  0  0  0  0  0  0  0  0  0
   -2.4910  -17.7150    3.7570 N   0  0  0  0  0  0  0  0  0  0  0  0
   -2.4070  -19.1150    3.7110 N   0  0  0  0  0  0  0  0  0  0  0  0
   -3.0960  -15.7910    2.6120 N   0  0  0  0  0  0  0  0  0  0  0  0
   -2.9870  -15.0410    1.5240 C   0  0  0  0  0  0  0  0  0  0  0  0
   -3.7420  -13.8680    1.5470 N   0  0  0  0  0  0  0  0  0  0  0  0
   -3.5930  -12.5980    0.9810 C   0  0  0  0  0  0  0  0  0  0  0  0
   -4.3010  -12.1510   -0.1390 C   0  0  0  0  0  0  0  0  0  0  0  0
   -4.1040  -10.8660   -0.6580 C   0  0  0  0  0  0  0  0  0  0  0  0
   -3.1920  -10.0010   -0.0620 C   0  0  0  0  0  0  0  0  0  0  0  0
   -2.4770  -10.4220    1.0530 C   0  0  0  0  0  0  0  0  0  0  0  0
   -2.6770  -11.7070    1.5670 C   0  0  0  0  0  0  0  0  0  0  0  0
   -2.2260  -15.3610    0.4870 N   0  0  0  0  0  0  0  0  0  0  0  0
    0.5650  -15.1790   -1.7370 C   0  0  0  0  0  0  0  0  0  0  0  0
    1.7870  -14.6900   -2.2160 C   0  0  0  0  0  0  0  0  0  0  0  0
    4.6490  -13.8150   -4.5510 C   0  0  0  0  0  0  0  0  0  0  0  0
    3.9390  -12.6390   -4.1990 C   0  0  0  0  0  0  0  0  0  0  0  0
    3.5034  -10.4305   -2.5763 H   0  0  0  0  0  0  0  0  0  0  0  0
    1.8853   -9.8223   -3.0647 H   0  0  0  0  0  0  0  0  0  0  0  0
    2.2190  -11.5874   -3.0647 H   0  0  0  0  0  0  0  0  0  0  0  0
    4.2980  -10.8270   -7.0516 H   0  0  0  0  0  0  0  0  0  0  0  0
    5.5713  -12.8644   -7.6817 H   0  0  0  0  0  0  0  0  0  0  0  0
    7.2881  -17.0191   -6.9078 H   0  0  0  0  0  0  0  0  0  0  0  0
    6.6150  -19.2227   -3.2646 H   0  0  0  0  0  0  0  0  0  0  0  0
    5.2881  -17.3153   -2.3734 H   0  0  0  0  0  0  0  0  0  0  0  0
    4.8840  -14.6750   -1.6550 H   0  0  0  0  0  0  0  0  0  0  0  0
    3.8357  -17.1037   -0.9977 H   0  0  0  0  0  0  0  0  0  0  0  0
    1.6662  -17.9695   -0.1562 H   0  0  0  0  0  0  0  0  0  0  0  0
   -1.2430  -17.4710   -1.1150 H   0  0  0  0  0  0  0  0  0  0  0  0
   -2.6480  -17.2100    4.6240 H   0  0  0  0  0  0  0  0  0  0  0  0
   -1.4190  -19.3870    3.7350 H   0  0  0  0  0  0  0  0  0  0  0  0
   -2.7850  -19.4950    4.5860 H   0  0  0  0  0  0  0  0  0  0  0  0
   -4.5700  -14.0170    2.1060 H   0  0  0  0  0  0  0  0  0  0  0  0
   -5.0268  -12.8222   -0.6215 H   0  0  0  0  0  0  0  0  0  0  0  0
   -4.6728  -10.5388   -1.5409 H   0  0  0  0  0  0  0  0  0  0  0  0
   -3.0379   -8.9912   -0.4702 H   0  0  0  0  0  0  0  0  0  0  0  0
   -1.7540   -9.7446    1.5310 H   0  0  0  0  0  0  0  0  0  0  0  0
   -2.1046  -12.0279    2.4498 H   0  0  0  0  0  0  0  0  0  0  0  0
   -0.3579  -14.6198   -1.9505 H   0  0  0  0  0  0  0  0  0  0  0  0
    1.8086  -13.7522   -2.7905 H   0  0  0  0  0  0  0  0  0  0  0  0
    3.4803  -12.5697   -3.2016 H   0  0  0  0  0  0  0  0  0  0  0  0
  1  2  1  0
  2  3  1  0
  3  4  2  0
  4  5  1  0
  5  6  2  0
  6  7  1  0
  7  8  2  0
  8  9  1  0
  9 10  2  0
 10 11  1  0
 10 12  1  0
 12 13  2  0
 13 14  1  0
 14 15  2  0
 15 16  1  0
 16 17  1  0
 17 18  2  0
 18 19  1  0
 19 20  2  0
 20 21  1  0
 21 22  1  0
 22 23  2  0
 23 24  1  0
 24 25  1  0
 25 26  1  0
 24 27  2  0
 27 28  1  0
 28 29  1  0
 29 30  1  0
 30 31  2  0
 31 32  1  0
 32 33  2  0
 33 34  1  0
 34 35  2  0
 28 36  2  0
 20 37  1  0
 37 38  2  0
 15 39  1  0
 39 40  2  0
 40  3  1  0
 39  6  1  0
 14  8  1  0
 38 17  1  0
 36 22  1  0
 35 30  1  0
  1 41  1  0
  1 42  1  0
  1 43  1  0
  4 44  1  0
  5 45  1  0
  9 46  1  0
 12 47  1  0
 13 48  1  0
 16 49  1  0
 18 50  1  0
 19 51  1  0
 21 52  1  0
 25 53  1  0
 26 54  1  0
 26 55  1  0
 29 56  1  0
 31 57  1  0
 32 58  1  0
 33 59  1  0
 34 60  1  0
 35 61  1  0
 37 62  1  0
 38 63  1  0
 40 64  1  0
M  END
>  <meeko>  (5) 
{"is_sidechain": [false], "free_energy": -8.858, "intermolecular_energy": -13.18, "internal_energy": -1.462}

$$$$
LIB_LYONNGHGTZAEOI__M_PUB_ALL__e8__s20260927
     RDKit          3D

 64 69  0  0  0  0  0  0  0  0999 V2000
    0.5340  -15.2700    6.1140 C   0  0  0  0  0  0  0  0  0  0  0  0
    1.5120  -15.8730    5.2740 O   0  0  0  0  0  0  0  0  0  0  0  0
    1.2300  -15.9280    3.9390 C   0  0  0  0  0  0  0  0  0  0  0  0
    0.3650  -16.8170    3.3180 C   0  0  0  0  0  0  0  0  0  0  0  0
    0.1720  -16.7450    1.9340 C   0  0  0  0  0  0  0  0  0  0  0  0
    0.8260  -15.8100    1.1430 C   0  0  0  0  0  0  0  0  0  0  0  0
    0.5730  -15.8070   -0.1720 N   0  0  0  0  0  0  0  0  0  0  0  0
    1.1910  -14.9230   -0.9660 C   0  0  0  0  0  0  0  0  0  0  0  0
    0.9060  -14.9650   -2.3230 C   0  0  0  0  0  0  0  0  0  0  0  0
    1.5210  -14.0970   -3.2210 C   0  0  0  0  0  0  0  0  0  0  0  0
    1.1390  -14.1840   -4.8960 Cl  0  0  0  0  0  0  0  0  0  0  0  0
    2.4460  -13.1670   -2.7720 C   0  0  0  0  0  0  0  0  0  0  0  0
    2.7430  -13.1100   -1.4130 C   0  0  0  0  0  0  0  0  0  0  0  0
    2.1130  -13.9750   -0.4830 C   0  0  0  0  0  0  0  0  0  0  0  0
    2.3680  -13.9700    0.9140 C   0  0  0  0  0  0  0  0  0  0  0  0
    3.2690  -13.0370    1.4900 N   0  0  0  0  0  0  0  0  0  0  0  0
    4.6560  -12.9090    1.3050 C   0  0  0  0  0  0  0  0  0  0  0  0
    5.2370  -11.6390    1.3340 C   0  0  0  0  0  0  0  0  0  0  0  0
    6.6230  -11.4690    1.1970 C   0  0  0  0  0  0  0  0  0  0  0  0
    7.4740  -12.5630    1.0340 C   0  0  0  0  0  0  0  0  0  0  0  0
    8.8610  -12.4640    0.8950 N   0  0  0  0  0  0  0  0  0  0  0  0
    9.7260  -12.3780   -0.1940 C   0  0  0  0  0  0  0  0  0  0  0  0
   11.0210  -12.1540   -0.0430 N   0  0  0  0  0  0  0  0  0  0  0  0
   11.7370  -12.0950   -1.1610 C   0  0  0  0  0  0  0  0  0  0  0  0
   13.1140  -11.8620   -1.0720 N   0  0  0  0  0  0  0  0  0  0  0  0
   13.9290  -11.6840   -2.2000 N   0  0  0  0  0  0  0  0  0  0  0  0
   11.2360  -12.2460   -2.3770 N   0  0  0  0  0  0  0  0  0  0  0  0
    9.9300  -12.4670   -2.4430 C   0  0  0  0  0  0  0  0  0  0  0  0
    9.4300  -12.6220   -3.7350 N   0  0  0  0  0  0  0  0  0  0  0  0
    8.2560  -13.1640   -4.2720 C   0  0  0  0  0  0  0  0  0  0  0  0
    8.1980  -14.3810   -4.9590 C   0  0  0  0  0  0  0  0  0  0  0  0
    6.9900  -14.8670   -5.4730 C   0  0  0  0  0  0  0  0  0  0  0  0
    5.8150  -14.1420   -5.3070 C   0  0  0  0  0  0  0  0  0  0  0  0
    5.8470  -12.9310   -4.6270 C   0  0  0  0  0  0  0  0  0  0  0  0
    7.0560  -12.4500   -4.1160 C   0  0  0  0  0  0  0  0  0  0  0  0
    9.1450  -12.5400   -1.3770 N   0  0  0  0  0  0  0  0  0  0  0  0
    6.8870  -13.8370    1.0200 C   0  0  0  0  0  0  0  0  0  0  0  0
    5.5040  -14.0080    1.1580 C   0  0  0  0  0  0  0  0  0  0  0  0
    1.7160  -14.9110    1.7530 C   0  0  0  0  0  0  0  0  0  0  0  0
    1.8950  -14.9810    3.1580 C   0  0  0  0  0  0  0  0  0  0  0  0
    0.8031  -15.4359    7.1676 H   0  0  0  0  0  0  0  0  0  0  0  0
    0.4929  -14.1895    5.9118 H   0  0  0  0  0  0  0  0  0  0  0  0
   -0.4498  -15.7185    5.9118 H   0  0  0  0  0  0  0  0  0  0  0  0
   -0.1670  -17.5754    3.9111 H   0  0  0  0  0  0  0  0  0  0  0  0
   -0.5213  -17.4531    1.4566 H   0  0  0  0  0  0  0  0  0  0  0  0
    0.1784  -15.7000   -2.6976 H   0  0  0  0  0  0  0  0  0  0  0  0
    2.9384  -12.4837   -3.4796 H   0  0  0  0  0  0  0  0  0  0  0  0
    3.4818  -12.3787   -1.0534 H   0  0  0  0  0  0  0  0  0  0  0  0
    2.8170  -12.2510    1.9440 H   0  0  0  0  0  0  0  0  0  0  0  0
    4.5956  -10.7553    1.4668 H   0  0  0  0  0  0  0  0  0  0  0  0
    7.0469  -10.4542    1.2185 H   0  0  0  0  0  0  0  0  0  0  0  0
    9.4030  -12.4530    1.7480 H   0  0  0  0  0  0  0  0  0  0  0  0
   13.4850  -11.8470   -0.1280 H   0  0  0  0  0  0  0  0  0  0  0  0
   13.3940  -11.1850   -2.9190 H   0  0  0  0  0  0  0  0  0  0  0  0
   14.6820  -11.0290   -1.9610 H   0  0  0  0  0  0  0  0  0  0  0  0
   10.0930  -12.2450   -4.3960 H   0  0  0  0  0  0  0  0  0  0  0  0
    9.1185  -14.9670   -5.0979 H   0  0  0  0  0  0  0  0  0  0  0  0
    6.9701  -15.8265   -6.0105 H   0  0  0  0  0  0  0  0  0  0  0  0
    4.8664  -14.5249   -5.7115 H   0  0  0  0  0  0  0  0  0  0  0  0
    4.9221  -12.3513   -4.4908 H   0  0  0  0  0  0  0  0  0  0  0  0
    7.0682  -11.4900   -3.5792 H   0  0  0  0  0  0  0  0  0  0  0  0
    7.5281  -14.7225    0.8978 H   0  0  0  0  0  0  0  0  0  0  0  0
    5.0798  -15.0229    1.1505 H   0  0  0  0  0  0  0  0  0  0  0  0
    2.5769  -14.2692    3.6462 H   0  0  0  0  0  0  0  0  0  0  0  0
  1  2  1  0
  2  3  1  0
  3  4  2  0
  4  5  1  0
  5  6  2  0
  6  7  1  0
  7  8  2  0
  8  9  1  0
  9 10  2  0
 10 11  1  0
 10 12  1  0
 12 13  2  0
 13 14  1  0
 14 15  2  0
 15 16  1  0
 16 17  1  0
 17 18  2  0
 18 19  1  0
 19 20  2  0
 20 21  1  0
 21 22  1  0
 22 23  2  0
 23 24  1  0
 24 25  1  0
 25 26  1  0
 24 27  2  0
 27 28  1  0
 28 29  1  0
 29 30  1  0
 30 31  2  0
 31 32  1  0
 32 33  2  0
 33 34  1  0
 34 35  2  0
 28 36  2  0
 20 37  1  0
 37 38  2  0
 15 39  1  0
 39 40  2  0
 40  3  1  0
 39  6  1  0
 14  8  1  0
 38 17  1  0
 36 22  1  0
 35 30  1  0
  1 41  1  0
  1 42  1  0
  1 43  1  0
  4 44  1  0
  5 45  1  0
  9 46  1  0
 12 47  1  0
 13 48  1  0
 16 49  1  0
 18 50  1  0
 19 51  1  0
 21 52  1  0
 25 53  1  0
 26 54  1  0
 26 55  1  0
 29 56  1  0
 31 57  1  0
 32 58  1  0
 33 59  1  0
 34 60  1  0
 35 61  1  0
 37 62  1  0
 38 63  1  0
 40 64  1  0
M  END
>  <meeko>  (6) 
{"is_sidechain": [false], "free_energy": -8.857, "intermolecular_energy": -12.859, "internal_energy": -1.78}

$$$$
LIB_LYONNGHGTZAEOI__M_PUB_ALL__e8__s20260927
     RDKit          3D

 64 69  0  0  0  0  0  0  0  0999 V2000
    8.3880  -11.1470  -11.4250 C   0  0  0  0  0  0  0  0  0  0  0  0
    7.1830  -11.6050  -10.8230 O   0  0  0  0  0  0  0  0  0  0  0  0
    7.2090  -12.8480  -10.2570 C   0  0  0  0  0  0  0  0  0  0  0  0
    7.3830  -14.0520  -10.9250 C   0  0  0  0  0  0  0  0  0  0  0  0
    7.3950  -15.2500  -10.2040 C   0  0  0  0  0  0  0  0  0  0  0  0
    7.2310  -15.2860   -8.8250 C   0  0  0  0  0  0  0  0  0  0  0  0
    7.2670  -16.4780   -8.2160 N   0  0  0  0  0  0  0  0  0  0  0  0
    7.1050  -16.5500   -6.8880 C   0  0  0  0  0  0  0  0  0  0  0  0
    7.1390  -17.8070   -6.3020 C   0  0  0  0  0  0  0  0  0  0  0  0
    6.9580  -17.9740   -4.9320 C   0  0  0  0  0  0  0  0  0  0  0  0
    7.0050  -19.5510   -4.2460 Cl  0  0  0  0  0  0  0  0  0  0  0  0
    6.7310  -16.8750   -4.1180 C   0  0  0  0  0  0  0  0  0  0  0  0
    6.6950  -15.6050   -4.6890 C   0  0  0  0  0  0  0  0  0  0  0  0
    6.8960  -15.4170   -6.0790 C   0  0  0  0  0  0  0  0  0  0  0  0
    6.8740  -14.1530   -6.7280 C   0  0  0  0  0  0  0  0  0  0  0  0
    6.6870  -12.9560   -5.9880 N   0  0  0  0  0  0  0  0  0  0  0  0
    5.5900  -12.5550   -5.2070 C   0  0  0  0  0  0  0  0  0  0  0  0
    4.2950  -12.8430   -5.6460 C   0  0  0  0  0  0  0  0  0  0  0  0
    3.1730  -12.4990   -4.8770 C   0  0  0  0  0  0  0  0  0  0  0  0
    3.3080  -11.8640   -3.6420 C   0  0  0  0  0  0  0  0  0  0  0  0
    2.2330  -11.4970   -2.8260 N   0  0  0  0  0  0  0  0  0  0  0  0
    1.8820  -11.7600   -1.5030 C   0  0  0  0  0  0  0  0  0  0  0  0
    1.3150  -10.8440   -0.7360 N   0  0  0  0  0  0  0  0  0  0  0  0
    1.0280  -11.2200    0.5060 C   0  0  0  0  0  0  0  0  0  0  0  0
    0.4270  -10.2990    1.3710 N   0  0  0  0  0  0  0  0  0  0  0  0
    0.8170   -8.9530    1.4410 N   0  0  0  0  0  0  0  0  0  0  0  0
    1.2740  -12.4250    0.9960 N   0  0  0  0  0  0  0  0  0  0  0  0
    1.8440  -13.2860    0.1630 C   0  0  0  0  0  0  0  0  0  0  0  0
    2.0900  -14.5460    0.7060 N   0  0  0  0  0  0  0  0  0  0  0  0
    2.8840  -15.6350    0.3290 C   0  0  0  0  0  0  0  0  0  0  0  0
    4.1600  -15.8890    0.8410 C   0  0  0  0  0  0  0  0  0  0  0  0
    4.9040  -16.9980    0.4200 C   0  0  0  0  0  0  0  0  0  0  0  0
    4.3810  -17.8770   -0.5220 C   0  0  0  0  0  0  0  0  0  0  0  0
    3.1130  -17.6470   -1.0450 C   0  0  0  0  0  0  0  0  0  0  0  0
    2.3750  -16.5370   -0.6220 C   0  0  0  0  0  0  0  0  0  0  0  0
    2.1620  -12.9900   -1.0900 N   0  0  0  0  0  0  0  0  0  0  0  0
    4.6100  -11.5890   -3.2000 C   0  0  0  0  0  0  0  0  0  0  0  0
    5.7320  -11.9330   -3.9650 C   0  0  0  0  0  0  0  0  0  0  0  0
    7.0400  -14.0790   -8.1350 C   0  0  0  0  0  0  0  0  0  0  0  0
    7.0430  -12.8670   -8.8710 C   0  0  0  0  0  0  0  0  0  0  0  0
    9.1087  -10.8731  -10.6405 H   0  0  0  0  0  0  0  0  0  0  0  0
    8.8126  -11.9465  -12.0500 H   0  0  0  0  0  0  0  0  0  0  0  0
    8.1744  -10.2674  -12.0500 H   0  0  0  0  0  0  0  0  0  0  0  0
    7.5110  -14.0638  -12.0175 H   0  0  0  0  0  0  0  0  0  0  0  0
    7.5391  -16.1957  -10.7470 H   0  0  0  0  0  0  0  0  0  0  0  0
    7.3127  -18.6907   -6.9336 H   0  0  0  0  0  0  0  0  0  0  0  0
    6.5813  -17.0042   -3.0359 H   0  0  0  0  0  0  0  0  0  0  0  0
    6.5068  -14.7309   -4.0483 H   0  0  0  0  0  0  0  0  0  0  0  0
    7.5320  -12.4100   -5.8620 H   0  0  0  0  0  0  0  0  0  0  0  0
    4.1526  -13.3488   -6.6124 H   0  0  0  0  0  0  0  0  0  0  0  0
    2.1673  -12.7345   -5.2552 H   0  0  0  0  0  0  0  0  0  0  0  0
    1.5230  -10.9160   -3.2460 H   0  0  0  0  0  0  0  0  0  0  0  0
   -0.3060  -10.6820    1.9600 H   0  0  0  0  0  0  0  0  0  0  0  0
    0.5240   -8.5710    2.3470 H   0  0  0  0  0  0  0  0  0  0  0  0
    1.8410   -8.9100    1.4800 H   0  0  0  0  0  0  0  0  0  0  0  0
    1.5580  -14.6510    1.5580 H   0  0  0  0  0  0  0  0  0  0  0  0
    4.5875  -15.2047    1.5887 H   0  0  0  0  0  0  0  0  0  0  0  0
    5.9067  -17.1747    0.8363 H   0  0  0  0  0  0  0  0  0  0  0  0
    4.9662  -18.7483   -0.8513 H   0  0  0  0  0  0  0  0  0  0  0  0
    2.6912  -18.3373   -1.7904 H   0  0  0  0  0  0  0  0  0  0  0  0
    1.3733  -16.3656   -1.0429 H   0  0  0  0  0  0  0  0  0  0  0  0
    4.7538  -11.0914   -2.2296 H   0  0  0  0  0  0  0  0  0  0  0  0
    6.7388  -11.7100   -3.5820 H   0  0  0  0  0  0  0  0  0  0  0  0
    6.9109  -11.9155   -8.3351 H   0  0  0  0  0  0  0  0  0  0  0  0
  1  2  1  0
  2  3  1  0
  3  4  2  0
  4  5  1  0
  5  6  2  0
  6  7  1  0
  7  8  2  0
  8  9  1  0
  9 10  2  0
 10 11  1  0
 10 12  1  0
 12 13  2  0
 13 14  1  0
 14 15  2  0
 15 16  1  0
 16 17  1  0
 17 18  2  0
 18 19  1  0
 19 20  2  0
 20 21  1  0
 21 22  1  0
 22 23  2  0
 23 24  1  0
 24 25  1  0
 25 26  1  0
 24 27  2  0
 27 28  1  0
 28 29  1  0
 29 30  1  0
 30 31  2  0
 31 32  1  0
 32 33  2  0
 33 34  1  0
 34 35  2  0
 28 36  2  0
 20 37  1  0
 37 38  2  0
 15 39  1  0
 39 40  2  0
 40  3  1  0
 39  6  1  0
 14  8  1  0
 38 17  1  0
 36 22  1  0
 35 30  1  0
  1 41  1  0
  1 42  1  0
  1 43  1  0
  4 44  1  0
  5 45  1  0
  9 46  1  0
 12 47  1  0
 13 48  1  0
 16 49  1  0
 18 50  1  0
 19 51  1  0
 21 52  1  0
 25 53  1  0
 26 54  1  0
 26 55  1  0
 29 56  1  0
 31 57  1  0
 32 58  1  0
 33 59  1  0
 34 60  1  0
 35 61  1  0
 37 62  1  0
 38 63  1  0
 40 64  1  0
M  END
>  <meeko>  (7) 
{"is_sidechain": [false], "free_energy": -8.609, "intermolecular_energy": -12.578, "internal_energy": -1.691}

$$$$
LIB_LYONNGHGTZAEOI__M_PUB_ALL__e8__s20260927
     RDKit          3D

 64 69  0  0  0  0  0  0  0  0999 V2000
    4.6210  -17.2910   -1.4600 C   0  0  0  0  0  0  0  0  0  0  0  0
    3.2400  -17.6080   -1.5980 O   0  0  0  0  0  0  0  0  0  0  0  0
    2.3510  -16.7720   -0.9840 C   0  0  0  0  0  0  0  0  0  0  0  0
    1.1590  -17.1440   -0.3780 C   0  0  0  0  0  0  0  0  0  0  0  0
    0.3520  -16.1690    0.2190 C   0  0  0  0  0  0  0  0  0  0  0  0
    0.6960  -14.8240    0.2240 C   0  0  0  0  0  0  0  0  0  0  0  0
   -0.1320  -13.9620    0.8280 N   0  0  0  0  0  0  0  0  0  0  0  0
    0.1660  -12.6560    0.8460 C   0  0  0  0  0  0  0  0  0  0  0  0
   -0.7270  -11.8000    1.4740 C   0  0  0  0  0  0  0  0  0  0  0  0
   -0.5060  -10.4260    1.5190 C   0  0  0  0  0  0  0  0  0  0  0  0
   -1.6400   -9.4000    2.3070 Cl  0  0  0  0  0  0  0  0  0  0  0  0
    0.6210   -9.8800    0.9240 C   0  0  0  0  0  0  0  0  0  0  0  0
    1.5290  -10.7260    0.2910 C   0  0  0  0  0  0  0  0  0  0  0  0
    1.3280  -12.1280    0.2520 C   0  0  0  0  0  0  0  0  0  0  0  0
    2.2110  -13.0470   -0.3750 C   0  0  0  0  0  0  0  0  0  0  0  0
    3.4150  -12.6030   -0.9830 N   0  0  0  0  0  0  0  0  0  0  0  0
    4.6920  -12.4490   -0.4200 C   0  0  0  0  0  0  0  0  0  0  0  0
    4.9220  -12.8900    0.8860 C   0  0  0  0  0  0  0  0  0  0  0  0
    6.1930  -12.7940    1.4730 C   0  0  0  0  0  0  0  0  0  0  0  0
    7.2770  -12.2630    0.7720 C   0  0  0  0  0  0  0  0  0  0  0  0
    8.5670  -12.1430    1.2960 N   0  0  0  0  0  0  0  0  0  0  0  0
    9.8480  -12.1920    0.7480 C   0  0  0  0  0  0  0  0  0  0  0  0
   10.6880  -11.1750    0.8410 N   0  0  0  0  0  0  0  0  0  0  0  0
   11.8790  -11.3490    0.2780 C   0  0  0  0  0  0  0  0  0  0  0  0
   12.8160  -10.3120    0.3410 N   0  0  0  0  0  0  0  0  0  0  0  0
   14.1900  -10.5150    0.1400 N   0  0  0  0  0  0  0  0  0  0  0  0
   12.2540  -12.4530   -0.3490 N   0  0  0  0  0  0  0  0  0  0  0  0
   11.3540  -13.4260   -0.3980 C   0  0  0  0  0  0  0  0  0  0  0  0
   11.7760  -14.5770   -1.0640 N   0  0  0  0  0  0  0  0  0  0  0  0
   12.3500  -14.8280   -2.3160 C   0  0  0  0  0  0  0  0  0  0  0  0
   12.1330  -14.0390   -3.4500 C   0  0  0  0  0  0  0  0  0  0  0  0
   12.7370  -14.3460   -4.6740 C   0  0  0  0  0  0  0  0  0  0  0  0
   13.5720  -15.4530   -4.7860 C   0  0  0  0  0  0  0  0  0  0  0  0
   13.8040  -16.2520   -3.6730 C   0  0  0  0  0  0  0  0  0  0  0  0
   13.1980  -15.9410   -2.4520 C   0  0  0  0  0  0  0  0  0  0  0  0
   10.1450  -13.3330    0.1370 N   0  0  0  0  0  0  0  0  0  0  0  0
    7.0430  -11.8350   -0.5430 C   0  0  0  0  0  0  0  0  0  0  0  0
    5.7760  -11.9310   -1.1310 C   0  0  0  0  0  0  0  0  0  0  0  0
    1.8920  -14.4290   -0.3970 C   0  0  0  0  0  0  0  0  0  0  0  0
    2.7110  -15.4240   -0.9880 C   0  0  0  0  0  0  0  0  0  0  0  0
    4.8787  -17.2318   -0.3922 H   0  0  0  0  0  0  0  0  0  0  0  0
    5.2266  -18.0735   -1.9406 H   0  0  0  0  0  0  0  0  0  0  0  0
    4.8247  -16.3227   -1.9406 H   0  0  0  0  0  0  0  0  0  0  0  0
    0.8503  -18.1997   -0.3671 H   0  0  0  0  0  0  0  0  0  0  0  0
   -0.5871  -16.4789    0.7008 H   0  0  0  0  0  0  0  0  0  0  0  0
   -1.6291  -12.2157    1.9466 H   0  0  0  0  0  0  0  0  0  0  0  0
    0.7957   -8.7943    0.9513 H   0  0  0  0  0  0  0  0  0  0  0  0
    2.4208  -10.2964   -0.1887 H   0  0  0  0  0  0  0  0  0  0  0  0
    3.3800  -12.5740   -1.9960 H   0  0  0  0  0  0  0  0  0  0  0  0
    4.0913  -13.3204    1.4646 H   0  0  0  0  0  0  0  0  0  0  0  0
    6.3379  -13.1440    2.5057 H   0  0  0  0  0  0  0  0  0  0  0  0
    8.6400  -11.9880    2.2910 H   0  0  0  0  0  0  0  0  0  0  0  0
   12.4300   -9.3990    0.5590 H   0  0  0  0  0  0  0  0  0  0  0  0
   14.3430  -10.8040   -0.8320 H   0  0  0  0  0  0  0  0  0  0  0  0
   14.6690   -9.6100    0.2020 H   0  0  0  0  0  0  0  0  0  0  0  0
   11.6140  -15.3800   -0.4750 H   0  0  0  0  0  0  0  0  0  0  0  0
   11.4750  -13.1604   -3.3783 H   0  0  0  0  0  0  0  0  0  0  0  0
   12.5509  -13.7094   -5.5515 H   0  0  0  0  0  0  0  0  0  0  0  0
   14.0454  -15.6942   -5.7492 H   0  0  0  0  0  0  0  0  0  0  0  0
   14.4639  -17.1285   -3.7525 H   0  0  0  0  0  0  0  0  0  0  0  0
   13.3890  -16.5815   -1.5783 H   0  0  0  0  0  0  0  0  0  0  0  0
    7.8750  -11.4138   -1.1264 H   0  0  0  0  0  0  0  0  0  0  0  0
    5.6326  -11.5934   -2.1681 H   0  0  0  0  0  0  0  0  0  0  0  0
    3.6569  -15.1248   -1.4631 H   0  0  0  0  0  0  0  0  0  0  0  0
  1  2  1  0
  2  3  1  0
  3  4  2  0
  4  5  1  0
  5  6  2  0
  6  7  1  0
  7  8  2  0
  8  9  1  0
  9 10  2  0
 10 11  1  0
 10 12  1  0
 12 13  2  0
 13 14  1  0
 14 15  2  0
 15 16  1  0
 16 17  1  0
 17 18  2  0
 18 19  1  0
 19 20  2  0
 20 21  1  0
 21 22  1  0
 22 23  2  0
 23 24  1  0
 24 25  1  0
 25 26  1  0
 24 27  2  0
 27 28  1  0
 28 29  1  0
 29 30  1  0
 30 31  2  0
 31 32  1  0
 32 33  2  0
 33 34  1  0
 34 35  2  0
 28 36  2  0
 20 37  1  0
 37 38  2  0
 15 39  1  0
 39 40  2  0
 40  3  1  0
 39  6  1  0
 14  8  1  0
 38 17  1  0
 36 22  1  0
 35 30  1  0
  1 41  1  0
  1 42  1  0
  1 43  1  0
  4 44  1  0
  5 45  1  0
  9 46  1  0
 12 47  1  0
 13 48  1  0
 16 49  1  0
 18 50  1  0
 19 51  1  0
 21 52  1  0
 25 53  1  0
 26 54  1  0
 26 55  1  0
 29 56  1  0
 31 57  1  0
 32 58  1  0
 33 59  1  0
 34 60  1  0
 35 61  1  0
 37 62  1  0
 38 63  1  0
 40 64  1  0
M  END
>  <meeko>  (8) 
{"is_sidechain": [false], "free_energy": -8.606, "intermolecular_energy": -12.893, "internal_energy": -1.372}

$$$$
LIB_LYONNGHGTZAEOI__M_PUB_ALL__e8__s20260927
     RDKit          3D

 64 69  0  0  0  0  0  0  0  0999 V2000
    8.0730  -17.8080   -5.4690 C   0  0  0  0  0  0  0  0  0  0  0  0
    7.9590  -17.2040   -4.1850 O   0  0  0  0  0  0  0  0  0  0  0  0
    8.9260  -16.3040   -3.8380 C   0  0  0  0  0  0  0  0  0  0  0  0
   10.0980  -16.0480   -4.5340 C   0  0  0  0  0  0  0  0  0  0  0  0
   10.9940  -15.0860   -4.0550 C   0  0  0  0  0  0  0  0  0  0  0  0
   10.7580  -14.3710   -2.8890 C   0  0  0  0  0  0  0  0  0  0  0  0
   11.6660  -13.4610   -2.5110 N   0  0  0  0  0  0  0  0  0  0  0  0
   11.4730  -12.7580   -1.3880 C   0  0  0  0  0  0  0  0  0  0  0  0
   12.4460  -11.8350   -1.0300 C   0  0  0  0  0  0  0  0  0  0  0  0
   12.3350  -11.0780    0.1330 C   0  0  0  0  0  0  0  0  0  0  0  0
   13.5650   -9.9460    0.5390 Cl  0  0  0  0  0  0  0  0  0  0  0  0
   11.2410  -11.2370    0.9690 C   0  0  0  0  0  0  0  0  0  0  0  0
   10.2540  -12.1580    0.6250 C   0  0  0  0  0  0  0  0  0  0  0  0
   10.3430  -12.9240   -0.5650 C   0  0  0  0  0  0  0  0  0  0  0  0
    9.3750  -13.8780   -0.9770 C   0  0  0  0  0  0  0  0  0  0  0  0
    8.1960  -14.0970   -0.2170 N   0  0  0  0  0  0  0  0  0  0  0  0
    6.8730  -13.7150   -0.4960 C   0  0  0  0  0  0  0  0  0  0  0  0
    5.8210  -14.5280   -0.0670 C   0  0  0  0  0  0  0  0  0  0  0  0
    4.4840  -14.1630   -0.2880 C   0  0  0  0  0  0  0  0  0  0  0  0
    4.1550  -12.9720   -0.9350 C   0  0  0  0  0  0  0  0  0  0  0  0
    2.8460  -12.5480   -1.1830 N   0  0  0  0  0  0  0  0  0  0  0  0
    1.7960  -12.1120   -0.3780 C   0  0  0  0  0  0  0  0  0  0  0  0
    1.7760  -10.8990    0.1490 N   0  0  0  0  0  0  0  0  0  0  0  0
    0.7180  -10.6050    0.8970 C   0  0  0  0  0  0  0  0  0  0  0  0
    0.6340   -9.3370    1.4840 N   0  0  0  0  0  0  0  0  0  0  0  0
   -0.5490   -8.8400    2.0530 N   0  0  0  0  0  0  0  0  0  0  0  0
   -0.2840  -11.4380    1.1320 N   0  0  0  0  0  0  0  0  0  0  0  0
   -0.1890  -12.6340    0.5680 C   0  0  0  0  0  0  0  0  0  0  0  0
   -1.2580  -13.4900    0.8320 N   0  0  0  0  0  0  0  0  0  0  0  0
   -2.6140  -13.3020    1.1190 C   0  0  0  0  0  0  0  0  0  0  0  0
   -3.5540  -12.8370    0.1940 C   0  0  0  0  0  0  0  0  0  0  0  0
   -4.8980  -12.6690    0.5460 C   0  0  0  0  0  0  0  0  0  0  0  0
   -5.3280  -12.9660    1.8350 C   0  0  0  0  0  0  0  0  0  0  0  0
   -4.4130  -13.4300    2.7720 C   0  0  0  0  0  0  0  0  0  0  0  0
   -3.0710  -13.5960    2.4160 C   0  0  0  0  0  0  0  0  0  0  0  0
    0.8320  -13.0060   -0.1920 N   0  0  0  0  0  0  0  0  0  0  0  0
    5.2160  -12.1530   -1.3520 C   0  0  0  0  0  0  0  0  0  0  0  0
    6.5510  -12.5150   -1.1320 C   0  0  0  0  0  0  0  0  0  0  0  0
    9.5830  -14.6260   -2.1640 C   0  0  0  0  0  0  0  0  0  0  0  0
    8.6730  -15.5920   -2.6640 C   0  0  0  0  0  0  0  0  0  0  0  0
    8.2759  -18.8828   -5.3519 H   0  0  0  0  0  0  0  0  0  0  0  0
    7.1331  -17.6706   -6.0236 H   0  0  0  0  0  0  0  0  0  0  0  0
    8.8982  -17.3374   -6.0236 H   0  0  0  0  0  0  0  0  0  0  0  0
   10.3223  -16.5992   -5.4591 H   0  0  0  0  0  0  0  0  0  0  0  0
   11.9163  -14.8898   -4.6214 H   0  0  0  0  0  0  0  0  0  0  0  0
   13.3235  -11.6988   -1.6792 H   0  0  0  0  0  0  0  0  0  0  0  0
   11.1533  -10.6441    1.8914 H   0  0  0  0  0  0  0  0  0  0  0  0
    9.3882  -12.2937    1.2898 H   0  0  0  0  0  0  0  0  0  0  0  0
    8.3040  -14.7780    0.5270 H   0  0  0  0  0  0  0  0  0  0  0  0
    6.0446  -15.4710    0.4533 H   0  0  0  0  0  0  0  0  0  0  0  0
    3.6794  -14.8296    0.0559 H   0  0  0  0  0  0  0  0  0  0  0  0
    2.5460  -12.5440   -2.1470 H   0  0  0  0  0  0  0  0  0  0  0  0
    1.4900   -8.7940    1.4540 H   0  0  0  0  0  0  0  0  0  0  0  0
   -0.4760   -8.9030    3.0740 H   0  0  0  0  0  0  0  0  0  0  0  0
   -0.5990   -7.8310    1.8750 H   0  0  0  0  0  0  0  0  0  0  0  0
   -0.9340  -14.4460    0.7970 H   0  0  0  0  0  0  0  0  0  0  0  0
   -3.2308  -12.5987   -0.8301 H   0  0  0  0  0  0  0  0  0  0  0  0
   -5.6175  -12.3005   -0.2000 H   0  0  0  0  0  0  0  0  0  0  0  0
   -6.3848  -12.8345    2.1106 H   0  0  0  0  0  0  0  0  0  0  0  0
   -4.7443  -13.6668    3.7939 H   0  0  0  0  0  0  0  0  0  0  0  0
   -2.3570  -13.9647    3.1671 H   0  0  0  0  0  0  0  0  0  0  0  0
    4.9938  -11.2048   -1.8635 H   0  0  0  0  0  0  0  0  0  0  0  0
    7.3568  -11.8444   -1.4650 H   0  0  0  0  0  0  0  0  0  0  0  0
    7.7418  -15.7857   -2.1114 H   0  0  0  0  0  0  0  0  0  0  0  0
  1  2  1  0
  2  3  1  0
  3  4  2  0
  4  5  1  0
  5  6  2  0
  6  7  1  0
  7  8  2  0
  8  9  1  0
  9 10  2  0
 10 11  1  0
 10 12  1  0
 12 13  2  0
 13 14  1  0
 14 15  2  0
 15 16  1  0
 16 17  1  0
 17 18  2  0
 18 19  1  0
 19 20  2  0
 20 21  1  0
 21 22  1  0
 22 23  2  0
 23 24  1  0
 24 25  1  0
 25 26  1  0
 24 27  2  0
 27 28  1  0
 28 29  1  0
 29 30  1  0
 30 31  2  0
 31 32  1  0
 32 33  2  0
 33 34  1  0
 34 35  2  0
 28 36  2  0
 20 37  1  0
 37 38  2  0
 15 39  1  0
 39 40  2  0
 40  3  1  0
 39  6  1  0
 14  8  1  0
 38 17  1  0
 36 22  1  0
 35 30  1  0
  1 41  1  0
  1 42  1  0
  1 43  1  0
  4 44  1  0
  5 45  1  0
  9 46  1  0
 12 47  1  0
 13 48  1  0
 16 49  1  0
 18 50  1  0
 19 51  1  0
 21 52  1  0
 25 53  1  0
 26 54  1  0
 26 55  1  0
 29 56  1  0
 31 57  1  0
 32 58  1  0
 33 59  1  0
 34 60  1  0
 35 61  1  0
 37 62  1  0
 38 63  1  0
 40 64  1  0
M  END
>  <meeko>  (9) 
{"is_sidechain": [false], "free_energy": -8.439, "intermolecular_energy": -12.688, "internal_energy": -1.327}

$$$$
