LIB_RNRCLARSVNONBS__M_PUB_ALL__e8__s20260927
     RDKit          3D

 69 74  0  0  0  0  0  0  0  0999 V2000
   13.7120  -10.6460    0.0870 C   0  0  0  0  0  0  0  0  0  0  0  0
   13.2530  -11.7030   -0.8690 N   0  0  0  0  0  0  0  0  0  0  0  0
   13.5710  -11.3450   -2.3180 C   0  0  0  0  0  0  0  0  0  0  0  0
   13.1580  -12.4880   -3.2670 C   0  0  0  0  0  0  0  0  0  0  0  0
   11.7580  -12.8860   -3.0400 N   0  0  0  0  0  0  0  0  0  0  0  0
   11.1030  -13.5340   -4.0880 C   0  0  0  0  0  0  0  0  0  0  0  0
   11.8190  -13.9640   -5.2150 C   0  0  0  0  0  0  0  0  0  0  0  0
   11.1870  -14.6040   -6.2850 C   0  0  0  0  0  0  0  0  0  0  0  0
    9.8140  -14.8280   -6.2500 C   0  0  0  0  0  0  0  0  0  0  0  0
    9.0610  -14.4120   -5.1500 C   0  0  0  0  0  0  0  0  0  0  0  0
    7.6280  -14.6510   -5.0820 C   0  0  0  0  0  0  0  0  0  0  0  0
    6.8190  -15.4920   -5.8730 C   0  0  0  0  0  0  0  0  0  0  0  0
    5.5380  -15.4830   -5.5160 N   0  0  0  0  0  0  0  0  0  0  0  0
    5.4840  -14.5960   -4.4760 N   0  0  0  0  0  0  0  0  0  0  0  0
    4.3260  -14.2110   -3.7460 C   0  0  0  0  0  0  0  0  0  0  0  0
    3.1320  -14.7920   -4.1270 N   0  0  0  0  0  0  0  0  0  0  0  0
    4.4730  -13.3210   -2.7400 C   0  0  0  0  0  0  0  0  0  0  0  0
    3.3720  -12.8270   -1.9030 C   0  0  0  0  0  0  0  0  0  0  0  0
    2.6100  -11.7260   -2.3060 C   0  0  0  0  0  0  0  0  0  0  0  0
    1.5630  -11.2530   -1.5060 C   0  0  0  0  0  0  0  0  0  0  0  0
    1.2630  -11.8730   -0.2920 C   0  0  0  0  0  0  0  0  0  0  0  0
    0.2290  -11.4590    0.5640 N   0  0  0  0  0  0  0  0  0  0  0  0
   -0.0270  -10.1990    1.0440 C   0  0  0  0  0  0  0  0  0  0  0  0
    0.6060   -9.1790    0.8150 O   0  0  0  0  0  0  0  0  0  0  0  0
   -1.1550  -10.2740    1.8550 O   0  0  0  0  0  0  0  0  0  0  0  0
   -2.3060  -10.7570    1.2240 C   0  0  0  0  0  0  0  0  0  0  0  0
   -2.9310  -11.9150    1.6840 C   0  0  0  0  0  0  0  0  0  0  0  0
   -4.0440  -12.4040    1.0020 C   0  0  0  0  0  0  0  0  0  0  0  0
   -4.5120  -11.7430   -0.1370 C   0  0  0  0  0  0  0  0  0  0  0  0
   -3.8660  -10.5940   -0.5990 C   0  0  0  0  0  0  0  0  0  0  0  0
   -2.7530  -10.1000    0.0790 C   0  0  0  0  0  0  0  0  0  0  0  0
    2.0280  -12.9740    0.1110 C   0  0  0  0  0  0  0  0  0  0  0  0
    3.0750  -13.4490   -0.6860 C   0  0  0  0  0  0  0  0  0  0  0  0
    5.8720  -12.8470   -2.4970 C   0  0  0  0  0  0  0  0  0  0  0  0
    6.9400  -13.1910   -3.1510 N   0  0  0  0  0  0  0  0  0  0  0  0
    6.7530  -14.0780   -4.1760 C   0  0  0  0  0  0  0  0  0  0  0  0
    9.7170  -13.7690   -4.0830 C   0  0  0  0  0  0  0  0  0  0  0  0
   11.3510  -13.1610   -1.6540 C   0  0  0  0  0  0  0  0  0  0  0  0
   11.7660  -12.0110   -0.7160 C   0  0  0  0  0  0  0  0  0  0  0  0
   13.5607  -10.9945    1.1193 H   0  0  0  0  0  0  0  0  0  0  0  0
   14.7801  -10.4412   -0.0780 H   0  0  0  0  0  0  0  0  0  0  0  0
   13.1325   -9.7257   -0.0780 H   0  0  0  0  0  0  0  0  0  0  0  0
   13.7640  -12.5680   -0.6520 H   0  0  0  0  0  0  0  0  0  0  0  0
   13.0224  -10.4320   -2.5928 H   0  0  0  0  0  0  0  0  0  0  0  0
   14.6549  -11.1828   -2.4117 H   0  0  0  0  0  0  0  0  0  0  0  0
   13.2711  -12.1496   -4.3075 H   0  0  0  0  0  0  0  0  0  0  0  0
   13.8043  -13.3561   -3.0704 H   0  0  0  0  0  0  0  0  0  0  0  0
   12.9048  -13.7933   -5.2578 H   0  0  0  0  0  0  0  0  0  0  0  0
   11.7753  -14.9308   -7.1552 H   0  0  0  0  0  0  0  0  0  0  0  0
    9.3199  -15.3347   -7.0921 H   0  0  0  0  0  0  0  0  0  0  0  0
    7.2094  -16.0969   -6.7047 H   0  0  0  0  0  0  0  0  0  0  0  0
    3.1010  -15.8090   -4.1850 H   0  0  0  0  0  0  0  0  0  0  0  0
    2.3140  -14.2350   -4.3380 H   0  0  0  0  0  0  0  0  0  0  0  0
    2.8352  -11.2271   -3.2601 H   0  0  0  0  0  0  0  0  0  0  0  0
    0.9722  -10.3860   -1.8367 H   0  0  0  0  0  0  0  0  0  0  0  0
   -0.4290  -12.1550    0.8860 H   0  0  0  0  0  0  0  0  0  0  0  0
   -2.5504  -12.4367    2.5745 H   0  0  0  0  0  0  0  0  0  0  0  0
   -4.5541  -13.3103    1.3603 H   0  0  0  0  0  0  0  0  0  0  0  0
   -5.3924  -12.1291   -0.6716 H   0  0  0  0  0  0  0  0  0  0  0  0
   -4.2357  -10.0790   -1.4980 H   0  0  0  0  0  0  0  0  0  0  0  0
   -2.2332   -9.2017   -0.2855 H   0  0  0  0  0  0  0  0  0  0  0  0
    1.8031  -13.4716    1.0659 H   0  0  0  0  0  0  0  0  0  0  0  0
    3.6668  -14.3149   -0.3543 H   0  0  0  0  0  0  0  0  0  0  0  0
    6.0105  -12.1292   -1.6751 H   0  0  0  0  0  0  0  0  0  0  0  0
    9.1251  -13.4394   -3.2163 H   0  0  0  0  0  0  0  0  0  0  0  0
   10.2579  -13.2782   -1.6170 H   0  0  0  0  0  0  0  0  0  0  0  0
   11.8499  -14.0825   -1.3194 H   0  0  0  0  0  0  0  0  0  0  0  0
   11.1831  -11.1123   -0.9660 H   0  0  0  0  0  0  0  0  0  0  0  0
   11.5716  -12.3136    0.3236 H   0  0  0  0  0  0  0  0  0  0  0  0
  1  2  1  0
  2  3  1  0
  3  4  1  0
  4  5  1  0
  5  6  1  0
  6  7  2  0
  7  8  1  0
  8  9  2  0
  9 10  1  0
 10 11  1  0
 11 12  1  0
 12 13  2  0
 13 14  1  0
 14 15  1  0
 15 16  1  0
 15 17  2  0
 17 18  1  0
 18 19  2  0
 19 20  1  0
 20 21  2  0
 21 22  1  0
 22 23  1  0
 23 24  2  0
 23 25  1  0
 25 26  1  0
 26 27  2  0
 27 28  1  0
 28 29  2  0
 29 30  1  0
 30 31  2  0
 21 32  1  0
 32 33  2  0
 17 34  1  0
 34 35  2  0
 35 36  1  0
 10 37  2  0
  5 38  1  0
 38 39  1  0
 39  2  1  0
 37  6  1  0
 36 11  2  0
 36 14  1  0
 33 18  1  0
 31 26  1  0
  1 40  1  0
  1 41  1  0
  1 42  1  0
  2 43  1  0
  3 44  1  0
  3 45  1  0
  4 46  1  0
  4 47  1  0
  7 48  1  0
  8 49  1  0
  9 50  1  0
 12 51  1  0
 16 52  1  0
 16 53  1  0
 19 54  1  0
 20 55  1  0
 22 56  1  0
 27 57  1  0
 28 58  1  0
 29 59  1  0
 30 60  1  0
 31 61  1  0
 32 62  1  0
 33 63  1  0
 34 64  1  0
 37 65  1  0
 38 66  1  0
 38 67  1  0
 39 68  1  0
 39 69  1  0
M  CHG  1   2   1
M  END
>  <meeko>  (1) 
{"is_sidechain": [false], "free_energy": -9.275, "intermolecular_energy": -12.8, "internal_energy": -0.46}

$$$$
LIB_RNRCLARSVNONBS__M_PUB_ALL__e8__s20260927
     RDKit          3D

 69 74  0  0  0  0  0  0  0  0999 V2000
   14.6770  -11.8410  -10.8310 C   0  0  0  0  0  0  0  0  0  0  0  0
   13.2620  -12.2480  -11.1050 N   0  0  0  0  0  0  0  0  0  0  0  0
   12.2660  -11.1510  -10.7400 C   0  0  0  0  0  0  0  0  0  0  0  0
   10.8300  -11.5710  -11.1080 C   0  0  0  0  0  0  0  0  0  0  0  0
   10.5020  -12.8920  -10.5440 N   0  0  0  0  0  0  0  0  0  0  0  0
    9.1500  -13.1930  -10.3720 C   0  0  0  0  0  0  0  0  0  0  0  0
    8.2210  -12.8900  -11.3790 C   0  0  0  0  0  0  0  0  0  0  0  0
    6.8610  -13.1680  -11.2290 C   0  0  0  0  0  0  0  0  0  0  0  0
    6.3950  -13.7600  -10.0590 C   0  0  0  0  0  0  0  0  0  0  0  0
    7.2830  -14.0730   -9.0280 C   0  0  0  0  0  0  0  0  0  0  0  0
    6.8230  -14.7080   -7.8030 C   0  0  0  0  0  0  0  0  0  0  0  0
    7.1150  -15.9870   -7.2880 C   0  0  0  0  0  0  0  0  0  0  0  0
    6.5320  -16.2340   -6.1190 N   0  0  0  0  0  0  0  0  0  0  0  0
    5.8130  -15.1010   -5.8550 N   0  0  0  0  0  0  0  0  0  0  0  0
    4.9880  -14.8630   -4.7220 C   0  0  0  0  0  0  0  0  0  0  0  0
    4.9040  -15.8800   -3.7920 N   0  0  0  0  0  0  0  0  0  0  0  0
    4.3580  -13.6700   -4.6310 C   0  0  0  0  0  0  0  0  0  0  0  0
    3.4740  -13.2830   -3.5250 C   0  0  0  0  0  0  0  0  0  0  0  0
    3.9890  -12.6470   -2.3900 C   0  0  0  0  0  0  0  0  0  0  0  0
    3.1470  -12.2810   -1.3340 C   0  0  0  0  0  0  0  0  0  0  0  0
    1.7780  -12.5460   -1.3950 C   0  0  0  0  0  0  0  0  0  0  0  0
    0.8690  -12.2080   -0.3790 N   0  0  0  0  0  0  0  0  0  0  0  0
    0.4290  -10.9630   -0.0070 C   0  0  0  0  0  0  0  0  0  0  0  0
    0.7480   -9.8910   -0.4990 O   0  0  0  0  0  0  0  0  0  0  0  0
   -0.4640  -11.1240    1.0470 O   0  0  0  0  0  0  0  0  0  0  0  0
   -1.7940  -11.3340    0.6680 C   0  0  0  0  0  0  0  0  0  0  0  0
   -2.4000  -12.5720    0.8750 C   0  0  0  0  0  0  0  0  0  0  0  0
   -3.7080  -12.7710    0.4370 C   0  0  0  0  0  0  0  0  0  0  0  0
   -4.3920  -11.7400   -0.2120 C   0  0  0  0  0  0  0  0  0  0  0  0
   -3.7680  -10.5100   -0.4310 C   0  0  0  0  0  0  0  0  0  0  0  0
   -2.4600  -10.3050    0.0050 C   0  0  0  0  0  0  0  0  0  0  0  0
    1.2640  -13.1830   -2.5300 C   0  0  0  0  0  0  0  0  0  0  0  0
    2.1030  -13.5510   -3.5870 C   0  0  0  0  0  0  0  0  0  0  0  0
    4.6220  -12.7140   -5.7530 C   0  0  0  0  0  0  0  0  0  0  0  0
    5.3740  -12.9150   -6.7920 N   0  0  0  0  0  0  0  0  0  0  0  0
    5.9810  -14.1400   -6.8630 C   0  0  0  0  0  0  0  0  0  0  0  0
    8.6510  -13.7840   -9.1990 C   0  0  0  0  0  0  0  0  0  0  0  0
   11.4610  -13.9820  -10.7770 C   0  0  0  0  0  0  0  0  0  0  0  0
   12.8920  -13.5510  -10.4020 C   0  0  0  0  0  0  0  0  0  0  0  0
   14.8411  -11.7938   -9.7443 H   0  0  0  0  0  0  0  0  0  0  0  0
   15.3629  -12.5783  -11.2737 H   0  0  0  0  0  0  0  0  0  0  0  0
   14.8663  -10.8520  -11.2737 H   0  0  0  0  0  0  0  0  0  0  0  0
   13.1720  -12.4140  -12.1160 H   0  0  0  0  0  0  0  0  0  0  0  0
   12.3199  -10.9605   -9.6580 H   0  0  0  0  0  0  0  0  0  0  0  0
   12.5222  -10.2410  -11.3023 H   0  0  0  0  0  0  0  0  0  0  0  0
   10.1250  -10.8259  -10.7109 H   0  0  0  0  0  0  0  0  0  0  0  0
   10.7537  -11.6305  -12.2037 H   0  0  0  0  0  0  0  0  0  0  0  0
    8.5730  -12.4217  -12.3100 H   0  0  0  0  0  0  0  0  0  0  0  0
    6.1570  -12.9188  -12.0366 H   0  0  0  0  0  0  0  0  0  0  0  0
    5.3236  -13.9821   -9.9460 H   0  0  0  0  0  0  0  0  0  0  0  0
    7.7629  -16.7111   -7.8036 H   0  0  0  0  0  0  0  0  0  0  0  0
    5.3290  -15.7200   -2.8800 H   0  0  0  0  0  0  0  0  0  0  0  0
    4.4360  -16.7530   -4.0000 H   0  0  0  0  0  0  0  0  0  0  0  0
    5.0661  -12.4327   -2.3273 H   0  0  0  0  0  0  0  0  0  0  0  0
    3.5672  -11.7806   -0.4491 H   0  0  0  0  0  0  0  0  0  0  0  0
    0.4690  -12.9580    0.1690 H   0  0  0  0  0  0  0  0  0  0  0  0
   -1.8523  -13.3825    1.3782 H   0  0  0  0  0  0  0  0  0  0  0  0
   -4.2019  -13.7399    0.6023 H   0  0  0  0  0  0  0  0  0  0  0  0
   -5.4262  -11.8978   -0.5518 H   0  0  0  0  0  0  0  0  0  0  0  0
   -4.3086   -9.7031   -0.9475 H   0  0  0  0  0  0  0  0  0  0  0  0
   -1.9591   -9.3418   -0.1723 H   0  0  0  0  0  0  0  0  0  0  0  0
    0.1868  -13.3970   -2.5917 H   0  0  0  0  0  0  0  0  0  0  0  0
    1.6825  -14.0533   -4.4707 H   0  0  0  0  0  0  0  0  0  0  0  0
    4.1246  -11.7349   -5.6900 H   0  0  0  0  0  0  0  0  0  0  0  0
    9.3518  -14.0291   -8.3874 H   0  0  0  0  0  0  0  0  0  0  0  0
   11.1748  -14.8495  -10.1642 H   0  0  0  0  0  0  0  0  0  0  0  0
   11.4428  -14.2410  -11.8459 H   0  0  0  0  0  0  0  0  0  0  0  0
   12.9518  -13.4041   -9.3135 H   0  0  0  0  0  0  0  0  0  0  0  0
   13.5936  -14.3367  -10.7190 H   0  0  0  0  0  0  0  0  0  0  0  0
  1  2  1  0
  2  3  1  0
  3  4  1  0
  4  5  1  0
  5  6  1  0
  6  7  2  0
  7  8  1  0
  8  9  2  0
  9 10  1  0
 10 11  1  0
 11 12  1  0
 12 13  2  0
 13 14  1  0
 14 15  1  0
 15 16  1  0
 15 17  2  0
 17 18  1  0
 18 19  2  0
 19 20  1  0
 20 21  2  0
 21 22  1  0
 22 23  1  0
 23 24  2  0
 23 25  1  0
 25 26  1  0
 26 27  2  0
 27 28  1  0
 28 29  2  0
 29 30  1  0
 30 31  2  0
 21 32  1  0
 32 33  2  0
 17 34  1  0
 34 35  2  0
 35 36  1  0
 10 37  2  0
  5 38  1  0
 38 39  1  0
 39  2  1  0
 37  6  1  0
 36 11  2  0
 36 14  1  0
 33 18  1  0
 31 26  1  0
  1 40  1  0
  1 41  1  0
  1 42  1  0
  2 43  1  0
  3 44  1  0
  3 45  1  0
  4 46  1  0
  4 47  1  0
  7 48  1  0
  8 49  1  0
  9 50  1  0
 12 51  1  0
 16 52  1  0
 16 53  1  0
 19 54  1  0
 20 55  1  0
 22 56  1  0
 27 57  1  0
 28 58  1  0
 29 59  1  0
 30 60  1  0
 31 61  1  0
 32 62  1  0
 33 63  1  0
 34 64  1  0
 37 65  1  0
 38 66  1  0
 38 67  1  0
 39 68  1  0
 39 69  1  0
M  CHG  1   2   1
M  END
>  <meeko>  (2) 
{"is_sidechain": [false], "free_energy": -9.267, "intermolecular_energy": -12.314, "internal_energy": -0.935}

$$$$
LIB_RNRCLARSVNONBS__M_PUB_ALL__e8__s20260927
     RDKit          3D

 69 74  0  0  0  0  0  0  0  0999 V2000
    8.1200  -14.9910   -8.8060 C   0  0  0  0  0  0  0  0  0  0  0  0
    7.5400  -14.0380   -7.8070 N   0  0  0  0  0  0  0  0  0  0  0  0
    7.2290  -14.7180   -6.4770 C   0  0  0  0  0  0  0  0  0  0  0  0
    6.7100  -13.6940   -5.4480 C   0  0  0  0  0  0  0  0  0  0  0  0
    5.5900  -12.9100   -5.9980 N   0  0  0  0  0  0  0  0  0  0  0  0
    4.7230  -12.3100   -5.0840 C   0  0  0  0  0  0  0  0  0  0  0  0
    3.8850  -11.2590   -5.4830 C   0  0  0  0  0  0  0  0  0  0  0  0
    3.0170  -10.6320   -4.5870 C   0  0  0  0  0  0  0  0  0  0  0  0
    2.9690  -11.0450   -3.2590 C   0  0  0  0  0  0  0  0  0  0  0  0
    3.7900  -12.0850   -2.8160 C   0  0  0  0  0  0  0  0  0  0  0  0
    3.7440  -12.5470   -1.4370 C   0  0  0  0  0  0  0  0  0  0  0  0
    4.7650  -12.5800   -0.4660 C   0  0  0  0  0  0  0  0  0  0  0  0
    4.3620  -13.0510    0.7110 N   0  0  0  0  0  0  0  0  0  0  0  0
    3.0450  -13.3640    0.5150 N   0  0  0  0  0  0  0  0  0  0  0  0
    2.1540  -13.9260    1.4700 C   0  0  0  0  0  0  0  0  0  0  0  0
    2.6720  -14.1830    2.7240 N   0  0  0  0  0  0  0  0  0  0  0  0
    0.8770  -14.1590    1.0920 C   0  0  0  0  0  0  0  0  0  0  0  0
   -0.1530  -14.7370    1.9640 C   0  0  0  0  0  0  0  0  0  0  0  0
   -0.3090  -16.1230    2.0600 C   0  0  0  0  0  0  0  0  0  0  0  0
   -1.2930  -16.6740    2.8880 C   0  0  0  0  0  0  0  0  0  0  0  0
   -2.1380  -15.8470    3.6310 C   0  0  0  0  0  0  0  0  0  0  0  0
   -3.1470  -16.3230    4.4840 N   0  0  0  0  0  0  0  0  0  0  0  0
   -3.0510  -16.6690    5.8090 C   0  0  0  0  0  0  0  0  0  0  0  0
   -2.0520  -16.6270    6.5120 O   0  0  0  0  0  0  0  0  0  0  0  0
   -4.3100  -17.0840    6.2330 O   0  0  0  0  0  0  0  0  0  0  0  0
   -5.0910  -16.0890    6.8300 C   0  0  0  0  0  0  0  0  0  0  0  0
   -6.0700  -15.4250    6.0930 C   0  0  0  0  0  0  0  0  0  0  0  0
   -6.7960  -14.3990    6.6970 C   0  0  0  0  0  0  0  0  0  0  0  0
   -6.5270  -14.0390    8.0200 C   0  0  0  0  0  0  0  0  0  0  0  0
   -5.5310  -14.6980    8.7420 C   0  0  0  0  0  0  0  0  0  0  0  0
   -4.8010  -15.7250    8.1430 C   0  0  0  0  0  0  0  0  0  0  0  0
   -1.9820  -14.4600    3.5330 C   0  0  0  0  0  0  0  0  0  0  0  0
   -0.9990  -13.9060    2.7060 C   0  0  0  0  0  0  0  0  0  0  0  0
    0.5420  -13.7740   -0.3160 C   0  0  0  0  0  0  0  0  0  0  0  0
    1.3420  -13.2580   -1.1980 N   0  0  0  0  0  0  0  0  0  0  0  0
    2.6320  -13.0530   -0.7890 C   0  0  0  0  0  0  0  0  0  0  0  0
    4.6580  -12.7030   -3.7360 C   0  0  0  0  0  0  0  0  0  0  0  0
    5.7810  -12.2980   -7.3210 C   0  0  0  0  0  0  0  0  0  0  0  0
    6.2980  -13.3310   -8.3410 C   0  0  0  0  0  0  0  0  0  0  0  0
    8.6217  -15.8153   -8.2780 H   0  0  0  0  0  0  0  0  0  0  0  0
    7.3149  -15.3958   -9.4369 H   0  0  0  0  0  0  0  0  0  0  0  0
    8.8494  -14.4619   -9.4369 H   0  0  0  0  0  0  0  0  0  0  0  0
    8.2440  -13.3120   -7.6190 H   0  0  0  0  0  0  0  0  0  0  0  0
    6.4614  -15.4895   -6.6370 H   0  0  0  0  0  0  0  0  0  0  0  0
    8.1524  -15.1721   -6.0883 H   0  0  0  0  0  0  0  0  0  0  0  0
    6.3672  -14.2291   -4.5502 H   0  0  0  0  0  0  0  0  0  0  0  0
    7.5295  -13.0042   -5.1977 H   0  0  0  0  0  0  0  0  0  0  0  0
    3.9121  -10.9197   -6.5290 H   0  0  0  0  0  0  0  0  0  0  0  0
    2.3707   -9.8111   -4.9310 H   0  0  0  0  0  0  0  0  0  0  0  0
    2.2824  -10.5510   -2.5557 H   0  0  0  0  0  0  0  0  0  0  0  0
    5.7953  -12.2484   -0.6624 H   0  0  0  0  0  0  0  0  0  0  0  0
    2.9880  -13.3860    3.2760 H   0  0  0  0  0  0  0  0  0  0  0  0
    2.7340  -15.1240    3.0910 H   0  0  0  0  0  0  0  0  0  0  0  0
    0.3482  -16.7867    1.4790 H   0  0  0  0  0  0  0  0  0  0  0  0
   -1.4018  -17.7666    2.9542 H   0  0  0  0  0  0  0  0  0  0  0  0
   -4.0770  -16.4370    4.1040 H   0  0  0  0  0  0  0  0  0  0  0  0
   -6.2675  -15.7067    5.0482 H   0  0  0  0  0  0  0  0  0  0  0  0
   -7.5800  -13.8734    6.1322 H   0  0  0  0  0  0  0  0  0  0  0  0
   -7.1035  -13.2316    8.4951 H   0  0  0  0  0  0  0  0  0  0  0  0
   -5.3217  -14.4080    9.7822 H   0  0  0  0  0  0  0  0  0  0  0  0
   -4.0058  -16.2412    8.7009 H   0  0  0  0  0  0  0  0  0  0  0  0
   -2.6404  -13.7970    4.1134 H   0  0  0  0  0  0  0  0  0  0  0  0
   -0.8910  -12.8134    2.6390 H   0  0  0  0  0  0  0  0  0  0  0  0
   -0.4955  -13.9475   -0.6377 H   0  0  0  0  0  0  0  0  0  0  0  0
    5.3068  -13.5205   -3.3885 H   0  0  0  0  0  0  0  0  0  0  0  0
    4.8195  -11.8958   -7.6729 H   0  0  0  0  0  0  0  0  0  0  0  0
    6.5263  -11.4941   -7.2297 H   0  0  0  0  0  0  0  0  0  0  0  0
    5.5115  -14.0762   -8.5311 H   0  0  0  0  0  0  0  0  0  0  0  0
    6.5605  -12.8085   -9.2727 H   0  0  0  0  0  0  0  0  0  0  0  0
  1  2  1  0
  2  3  1  0
  3  4  1  0
  4  5  1  0
  5  6  1  0
  6  7  2  0
  7  8  1  0
  8  9  2  0
  9 10  1  0
 10 11  1  0
 11 12  1  0
 12 13  2  0
 13 14  1  0
 14 15  1  0
 15 16  1  0
 15 17  2  0
 17 18  1  0
 18 19  2  0
 19 20  1  0
 20 21  2  0
 21 22  1  0
 22 23  1  0
 23 24  2  0
 23 25  1  0
 25 26  1  0
 26 27  2  0
 27 28  1  0
 28 29  2  0
 29 30  1  0
 30 31  2  0
 21 32  1  0
 32 33  2  0
 17 34  1  0
 34 35  2  0
 35 36  1  0
 10 37  2  0
  5 38  1  0
 38 39  1  0
 39  2  1  0
 37  6  1  0
 36 11  2  0
 36 14  1  0
 33 18  1  0
 31 26  1  0
  1 40  1  0
  1 41  1  0
  1 42  1  0
  2 43  1  0
  3 44  1  0
  3 45  1  0
  4 46  1  0
  4 47  1  0
  7 48  1  0
  8 49  1  0
  9 50  1  0
 12 51  1  0
 16 52  1  0
 16 53  1  0
 19 54  1  0
 20 55  1  0
 22 56  1  0
 27 57  1  0
 28 58  1  0
 29 59  1  0
 30 60  1  0
 31 61  1  0
 32 62  1  0
 33 63  1  0
 34 64  1  0
 37 65  1  0
 38 66  1  0
 38 67  1  0
 39 68  1  0
 39 69  1  0
M  CHG  1   2   1
M  END
>  <meeko>  (3) 
{"is_sidechain": [false], "free_energy": -9.229, "intermolecular_energy": -12.254, "internal_energy": -0.942}

$$$$
LIB_RNRCLARSVNONBS__M_PUB_ALL__e8__s20260927
     RDKit          3D

 69 74  0  0  0  0  0  0  0  0999 V2000
   13.3360  -10.7020   -0.0400 C   0  0  0  0  0  0  0  0  0  0  0  0
   11.9380  -11.1510   -0.3360 N   0  0  0  0  0  0  0  0  0  0  0  0
   11.2160  -11.6440    0.9140 C   0  0  0  0  0  0  0  0  0  0  0  0
    9.7580  -12.0230    0.5890 C   0  0  0  0  0  0  0  0  0  0  0  0
    9.6930  -12.9560   -0.5500 N   0  0  0  0  0  0  0  0  0  0  0  0
    8.5480  -13.7460   -0.6600 C   0  0  0  0  0  0  0  0  0  0  0  0
    8.6520  -15.1070   -0.9810 C   0  0  0  0  0  0  0  0  0  0  0  0
    7.5230  -15.9190   -1.1110 C   0  0  0  0  0  0  0  0  0  0  0  0
    6.2530  -15.3820   -0.9230 C   0  0  0  0  0  0  0  0  0  0  0  0
    6.1010  -14.0290   -0.6080 C   0  0  0  0  0  0  0  0  0  0  0  0
    4.7860  -13.4490   -0.3880 C   0  0  0  0  0  0  0  0  0  0  0  0
    4.2550  -12.2260   -0.8450 C   0  0  0  0  0  0  0  0  0  0  0  0
    2.9960  -12.0210   -0.4690 N   0  0  0  0  0  0  0  0  0  0  0  0
    2.6840  -13.1230    0.2800 N   0  0  0  0  0  0  0  0  0  0  0  0
    1.4500  -13.3840    0.9340 C   0  0  0  0  0  0  0  0  0  0  0  0
    0.4640  -12.4260    0.8020 N   0  0  0  0  0  0  0  0  0  0  0  0
    1.3260  -14.5390    1.6250 C   0  0  0  0  0  0  0  0  0  0  0  0
    0.1160  -14.9430    2.3530 C   0  0  0  0  0  0  0  0  0  0  0  0
   -0.0630  -14.5800    3.6920 C   0  0  0  0  0  0  0  0  0  0  0  0
   -1.2140  -14.9690    4.3870 C   0  0  0  0  0  0  0  0  0  0  0  0
   -2.2010  -15.7270    3.7550 C   0  0  0  0  0  0  0  0  0  0  0  0
   -3.3830  -16.1540    4.3840 N   0  0  0  0  0  0  0  0  0  0  0  0
   -3.5300  -17.0900    5.3770 C   0  0  0  0  0  0  0  0  0  0  0  0
   -2.6470  -17.7430    5.9130 O   0  0  0  0  0  0  0  0  0  0  0  0
   -4.8850  -17.1770    5.6820 O   0  0  0  0  0  0  0  0  0  0  0  0
   -5.3700  -16.1620    6.5120 C   0  0  0  0  0  0  0  0  0  0  0  0
   -6.2960  -15.2380    6.0300 C   0  0  0  0  0  0  0  0  0  0  0  0
   -6.7200  -14.2030    6.8620 C   0  0  0  0  0  0  0  0  0  0  0  0
   -6.2080  -14.0930    8.1570 C   0  0  0  0  0  0  0  0  0  0  0  0
   -5.2670  -15.0130    8.6230 C   0  0  0  0  0  0  0  0  0  0  0  0
   -4.8380  -16.0510    7.7960 C   0  0  0  0  0  0  0  0  0  0  0  0
   -2.0190  -16.0910    2.4160 C   0  0  0  0  0  0  0  0  0  0  0  0
   -0.8700  -15.7050    1.7190 C   0  0  0  0  0  0  0  0  0  0  0  0
    2.5260  -15.4340    1.6050 C   0  0  0  0  0  0  0  0  0  0  0  0
    3.6580  -15.2120    1.0110 N   0  0  0  0  0  0  0  0  0  0  0  0
    3.7570  -14.0250    0.3370 C   0  0  0  0  0  0  0  0  0  0  0  0
    7.2530  -13.2290   -0.4810 C   0  0  0  0  0  0  0  0  0  0  0  0
   10.4400  -12.5920   -1.7620 C   0  0  0  0  0  0  0  0  0  0  0  0
   11.8960  -12.2190   -1.4260 C   0  0  0  0  0  0  0  0  0  0  0  0
   13.4831  -10.6548    1.0491 H   0  0  0  0  0  0  0  0  0  0  0  0
   14.0504  -11.4159   -0.4759 H   0  0  0  0  0  0  0  0  0  0  0  0
   13.5011   -9.7056   -0.4759 H   0  0  0  0  0  0  0  0  0  0  0  0
   11.4140  -10.3390   -0.6880 H   0  0  0  0  0  0  0  0  0  0  0  0
   11.7393  -12.5277    1.3080 H   0  0  0  0  0  0  0  0  0  0  0  0
   11.2127  -10.8368    1.6612 H   0  0  0  0  0  0  0  0  0  0  0  0
    9.3060  -12.5007    1.4708 H   0  0  0  0  0  0  0  0  0  0  0  0
    9.2105  -11.1071    0.3218 H   0  0  0  0  0  0  0  0  0  0  0  0
    9.6486  -15.5466   -1.1344 H   0  0  0  0  0  0  0  0  0  0  0  0
    7.6378  -16.9838   -1.3622 H   0  0  0  0  0  0  0  0  0  0  0  0
    5.3658  -16.0247   -1.0227 H   0  0  0  0  0  0  0  0  0  0  0  0
    4.8268  -11.5102   -1.4539 H   0  0  0  0  0  0  0  0  0  0  0  0
    0.4460  -11.6700    1.4840 H   0  0  0  0  0  0  0  0  0  0  0  0
   -0.2160  -12.4640    0.0530 H   0  0  0  0  0  0  0  0  0  0  0  0
    0.7073  -13.9838    4.2031 H   0  0  0  0  0  0  0  0  0  0  0  0
   -1.3417  -14.6751    5.4393 H   0  0  0  0  0  0  0  0  0  0  0  0
   -4.2550  -15.7360    4.0910 H   0  0  0  0  0  0  0  0  0  0  0  0
   -6.6873  -15.3246    5.0056 H   0  0  0  0  0  0  0  0  0  0  0  0
   -7.4580  -13.4727    6.4986 H   0  0  0  0  0  0  0  0  0  0  0  0
   -6.5478  -13.2777    8.8126 H   0  0  0  0  0  0  0  0  0  0  0  0
   -4.8640  -14.9193    9.6422 H   0  0  0  0  0  0  0  0  0  0  0  0
   -4.0889  -16.7734    8.1525 H   0  0  0  0  0  0  0  0  0  0  0  0
   -2.7892  -16.6880    1.9057 H   0  0  0  0  0  0  0  0  0  0  0  0
   -0.7413  -16.0020    0.6677 H   0  0  0  0  0  0  0  0  0  0  0  0
    2.4385  -16.3833    2.1537 H   0  0  0  0  0  0  0  0  0  0  0  0
    7.1356  -12.1637   -0.2334 H   0  0  0  0  0  0  0  0  0  0  0  0
   10.4389  -13.4465   -2.4547 H   0  0  0  0  0  0  0  0  0  0  0  0
    9.9537  -11.7196   -2.2228 H   0  0  0  0  0  0  0  0  0  0  0  0
   12.4272  -13.1158   -1.0744 H   0  0  0  0  0  0  0  0  0  0  0  0
   12.3788  -11.8218   -2.3311 H   0  0  0  0  0  0  0  0  0  0  0  0
  1  2  1  0
  2  3  1  0
  3  4  1  0
  4  5  1  0
  5  6  1  0
  6  7  2  0
  7  8  1  0
  8  9  2  0
  9 10  1  0
 10 11  1  0
 11 12  1  0
 12 13  2  0
 13 14  1  0
 14 15  1  0
 15 16  1  0
 15 17  2  0
 17 18  1  0
 18 19  2  0
 19 20  1  0
 20 21  2  0
 21 22  1  0
 22 23  1  0
 23 24  2  0
 23 25  1  0
 25 26  1  0
 26 27  2  0
 27 28  1  0
 28 29  2  0
 29 30  1  0
 30 31  2  0
 21 32  1  0
 32 33  2  0
 17 34  1  0
 34 35  2  0
 35 36  1  0
 10 37  2  0
  5 38  1  0
 38 39  1  0
 39  2  1  0
 37  6  1  0
 36 11  2  0
 36 14  1  0
 33 18  1  0
 31 26  1  0
  1 40  1  0
  1 41  1  0
  1 42  1  0
  2 43  1  0
  3 44  1  0
  3 45  1  0
  4 46  1  0
  4 47  1  0
  7 48  1  0
  8 49  1  0
  9 50  1  0
 12 51  1  0
 16 52  1  0
 16 53  1  0
 19 54  1  0
 20 55  1  0
 22 56  1  0
 27 57  1  0
 28 58  1  0
 29 59  1  0
 30 60  1  0
 31 61  1  0
 32 62  1  0
 33 63  1  0
 34 64  1  0
 37 65  1  0
 38 66  1  0
 38 67  1  0
 39 68  1  0
 39 69  1  0
M  CHG  1   2   1
M  END
>  <meeko>  (4) 
{"is_sidechain": [false], "free_energy": -9.068, "intermolecular_energy": -12.175, "internal_energy": -0.798}

$$$$
LIB_RNRCLARSVNONBS__M_PUB_ALL__e8__s20260927
     RDKit          3D

 69 74  0  0  0  0  0  0  0  0999 V2000
   -1.4670  -10.5860    0.9700 C   0  0  0  0  0  0  0  0  0  0  0  0
   -0.3440  -11.5020    0.5910 N   0  0  0  0  0  0  0  0  0  0  0  0
   -0.2400  -12.7040    1.5250 C   0  0  0  0  0  0  0  0  0  0  0  0
    0.8710  -13.6640    1.0590 C   0  0  0  0  0  0  0  0  0  0  0  0
    2.1430  -12.9470    0.8590 N   0  0  0  0  0  0  0  0  0  0  0  0
    3.3150  -13.7030    0.9110 C   0  0  0  0  0  0  0  0  0  0  0  0
    3.2610  -15.0800    1.1750 C   0  0  0  0  0  0  0  0  0  0  0  0
    4.4180  -15.8580    1.2460 C   0  0  0  0  0  0  0  0  0  0  0  0
    5.6660  -15.2730    1.0520 C   0  0  0  0  0  0  0  0  0  0  0  0
    5.7670  -13.9040    0.7920 C   0  0  0  0  0  0  0  0  0  0  0  0
    7.0570  -13.2720    0.5680 C   0  0  0  0  0  0  0  0  0  0  0  0
    7.6800  -12.2240    1.2750 C   0  0  0  0  0  0  0  0  0  0  0  0
    8.8830  -11.9080    0.8030 N   0  0  0  0  0  0  0  0  0  0  0  0
    9.0600  -12.7490   -0.2610 N   0  0  0  0  0  0  0  0  0  0  0  0
   10.1880  -12.8010   -1.1250 C   0  0  0  0  0  0  0  0  0  0  0  0
   11.2100  -11.9110   -0.8620 N   0  0  0  0  0  0  0  0  0  0  0  0
   10.1850  -13.7120   -2.1240 C   0  0  0  0  0  0  0  0  0  0  0  0
   11.2730  -13.8810   -3.0940 C   0  0  0  0  0  0  0  0  0  0  0  0
   11.1670  -13.3490   -4.3830 C   0  0  0  0  0  0  0  0  0  0  0  0
   12.2030  -13.5130   -5.3100 C   0  0  0  0  0  0  0  0  0  0  0  0
   13.3600  -14.2130   -4.9620 C   0  0  0  0  0  0  0  0  0  0  0  0
   14.4420  -14.4190   -5.8330 N   0  0  0  0  0  0  0  0  0  0  0  0
   14.6200  -15.4260   -6.7490 C   0  0  0  0  0  0  0  0  0  0  0  0
   13.8570  -16.3510   -6.9860 O   0  0  0  0  0  0  0  0  0  0  0  0
   15.8410  -15.2150   -7.3820 O   0  0  0  0  0  0  0  0  0  0  0  0
   15.7930  -15.2300   -8.7790 C   0  0  0  0  0  0  0  0  0  0  0  0
   16.6930  -16.0070   -9.5080 C   0  0  0  0  0  0  0  0  0  0  0  0
   16.6590  -15.9590  -10.9010 C   0  0  0  0  0  0  0  0  0  0  0  0
   15.7400  -15.1300  -11.5500 C   0  0  0  0  0  0  0  0  0  0  0  0
   14.8570  -14.3420  -10.8090 C   0  0  0  0  0  0  0  0  0  0  0  0
   14.8860  -14.3850   -9.4160 C   0  0  0  0  0  0  0  0  0  0  0  0
   13.4640  -14.7470   -3.6720 C   0  0  0  0  0  0  0  0  0  0  0  0
   12.4300  -14.5840   -2.7440 C   0  0  0  0  0  0  0  0  0  0  0  0
    8.9720  -14.5870   -2.1940 C   0  0  0  0  0  0  0  0  0  0  0  0
    7.9360  -14.5540   -1.4120 N   0  0  0  0  0  0  0  0  0  0  0  0
    7.9630  -13.6080   -0.4240 C   0  0  0  0  0  0  0  0  0  0  0  0
    4.5880  -13.1370    0.7250 C   0  0  0  0  0  0  0  0  0  0  0  0
    2.1070  -11.7250    0.0420 C   0  0  0  0  0  0  0  0  0  0  0  0
    0.9940  -10.7720    0.5190 C   0  0  0  0  0  0  0  0  0  0  0  0
   -1.5386  -10.5276    2.0661 H   0  0  0  0  0  0  0  0  0  0  0  0
   -1.2759   -9.5829    0.5611 H   0  0  0  0  0  0  0  0  0  0  0  0
   -2.4113  -10.9748    0.5611 H   0  0  0  0  0  0  0  0  0  0  0  0
   -0.5400  -11.8670   -0.3510 H   0  0  0  0  0  0  0  0  0  0  0  0
   -0.0097  -12.3521    2.5414 H   0  0  0  0  0  0  0  0  0  0  0  0
   -1.1990  -13.2428    1.5146 H   0  0  0  0  0  0  0  0  0  0  0  0
    1.0145  -14.4442    1.8210 H   0  0  0  0  0  0  0  0  0  0  0  0
    0.5674  -14.1104    0.1006 H   0  0  0  0  0  0  0  0  0  0  0  0
    2.2827  -15.5584    1.3299 H   0  0  0  0  0  0  0  0  0  0  0  0
    4.3432  -16.9352    1.4556 H   0  0  0  0  0  0  0  0  0  0  0  0
    6.5751  -15.8901    1.1035 H   0  0  0  0  0  0  0  0  0  0  0  0
    7.2165  -11.7165    2.1338 H   0  0  0  0  0  0  0  0  0  0  0  0
   12.1610  -12.2760   -0.8480 H   0  0  0  0  0  0  0  0  0  0  0  0
   11.0290  -10.9290   -0.6950 H   0  0  0  0  0  0  0  0  0  0  0  0
   10.2607  -12.7963   -4.6712 H   0  0  0  0  0  0  0  0  0  0  0  0
   12.1050  -13.0875   -6.3196 H   0  0  0  0  0  0  0  0  0  0  0  0
   15.2060  -13.7570   -5.8080 H   0  0  0  0  0  0  0  0  0  0  0  0
   17.4205  -16.6496   -8.9905 H   0  0  0  0  0  0  0  0  0  0  0  0
   17.3559  -16.5739  -11.4894 H   0  0  0  0  0  0  0  0  0  0  0  0
   15.7121  -15.0981  -12.6492 H   0  0  0  0  0  0  0  0  0  0  0  0
   14.1387  -13.6875  -11.3244 H   0  0  0  0  0  0  0  0  0  0  0  0
   14.2005  -13.7589   -8.8260 H   0  0  0  0  0  0  0  0  0  0  0  0
   14.3696  -15.3014   -3.3847 H   0  0  0  0  0  0  0  0  0  0  0  0
   12.5275  -15.0106   -1.7348 H   0  0  0  0  0  0  0  0  0  0  0  0
    8.9569  -15.3401   -2.9956 H   0  0  0  0  0  0  0  0  0  0  0  0
    4.6659  -12.0590    0.5203 H   0  0  0  0  0  0  0  0  0  0  0  0
    3.0770  -11.2121    0.1197 H   0  0  0  0  0  0  0  0  0  0  0  0
    1.9019  -12.0077   -1.0011 H   0  0  0  0  0  0  0  0  0  0  0  0
    1.2504  -10.3878    1.5173 H   0  0  0  0  0  0  0  0  0  0  0  0
    0.9069   -9.9419   -0.1974 H   0  0  0  0  0  0  0  0  0  0  0  0
  1  2  1  0
  2  3  1  0
  3  4  1  0
  4  5  1  0
  5  6  1  0
  6  7  2  0
  7  8  1  0
  8  9  2  0
  9 10  1  0
 10 11  1  0
 11 12  1  0
 12 13  2  0
 13 14  1  0
 14 15  1  0
 15 16  1  0
 15 17  2  0
 17 18  1  0
 18 19  2  0
 19 20  1  0
 20 21  2  0
 21 22  1  0
 22 23  1  0
 23 24  2  0
 23 25  1  0
 25 26  1  0
 26 27  2  0
 27 28  1  0
 28 29  2  0
 29 30  1  0
 30 31  2  0
 21 32  1  0
 32 33  2  0
 17 34  1  0
 34 35  2  0
 35 36  1  0
 10 37  2  0
  5 38  1  0
 38 39  1  0
 39  2  1  0
 37  6  1  0
 36 11  2  0
 36 14  1  0
 33 18  1  0
 31 26  1  0
  1 40  1  0
  1 41  1  0
  1 42  1  0
  2 43  1  0
  3 44  1  0
  3 45  1  0
  4 46  1  0
  4 47  1  0
  7 48  1  0
  8 49  1  0
  9 50  1  0
 12 51  1  0
 16 52  1  0
 16 53  1  0
 19 54  1  0
 20 55  1  0
 22 56  1  0
 27 57  1  0
 28 58  1  0
 29 59  1  0
 30 60  1  0
 31 61  1  0
 32 62  1  0
 33 63  1  0
 34 64  1  0
 37 65  1  0
 38 66  1  0
 38 67  1  0
 39 68  1  0
 39 69  1  0
M  CHG  1   2   1
M  END
>  <meeko>  (5) 
{"is_sidechain": [false], "free_energy": -9.034, "intermolecular_energy": -12.016, "internal_energy": -0.911}

$$$$
LIB_RNRCLARSVNONBS__M_PUB_ALL__e8__s20260927
     RDKit          3D

 69 74  0  0  0  0  0  0  0  0999 V2000
   -8.4790  -15.6670    7.8890 C   0  0  0  0  0  0  0  0  0  0  0  0
   -7.2350  -15.5740    7.0600 N   0  0  0  0  0  0  0  0  0  0  0  0
   -7.5290  -15.6840    5.5670 C   0  0  0  0  0  0  0  0  0  0  0  0
   -6.2400  -15.5040    4.7410 C   0  0  0  0  0  0  0  0  0  0  0  0
   -5.1770  -16.4080    5.2130 N   0  0  0  0  0  0  0  0  0  0  0  0
   -4.1550  -16.7140    4.3120 C   0  0  0  0  0  0  0  0  0  0  0  0
   -3.9530  -18.0360    3.8890 C   0  0  0  0  0  0  0  0  0  0  0  0
   -2.9310  -18.3720    2.9990 C   0  0  0  0  0  0  0  0  0  0  0  0
   -2.0810  -17.3860    2.5080 C   0  0  0  0  0  0  0  0  0  0  0  0
   -2.2420  -16.0570    2.9070 C   0  0  0  0  0  0  0  0  0  0  0  0
   -1.3780  -15.0050    2.3950 C   0  0  0  0  0  0  0  0  0  0  0  0
   -1.6930  -13.6820    2.0260 C   0  0  0  0  0  0  0  0  0  0  0  0
   -0.6400  -12.9810    1.6140 N   0  0  0  0  0  0  0  0  0  0  0  0
    0.4020  -13.8640    1.6860 N   0  0  0  0  0  0  0  0  0  0  0  0
    1.7560  -13.6120    1.3340 C   0  0  0  0  0  0  0  0  0  0  0  0
    2.0490  -12.3440    0.8710 N   0  0  0  0  0  0  0  0  0  0  0  0
    2.6510  -14.6140    1.4820 C   0  0  0  0  0  0  0  0  0  0  0  0
    4.0790  -14.5040    1.1570 C   0  0  0  0  0  0  0  0  0  0  0  0
    4.9600  -13.8600    2.0320 C   0  0  0  0  0  0  0  0  0  0  0  0
    6.3200  -13.7520    1.7220 C   0  0  0  0  0  0  0  0  0  0  0  0
    6.8200  -14.2840    0.5320 C   0  0  0  0  0  0  0  0  0  0  0  0
    8.1700  -14.2160    0.1500 N   0  0  0  0  0  0  0  0  0  0  0  0
    8.7920  -13.2670   -0.6210 C   0  0  0  0  0  0  0  0  0  0  0  0
    8.2810  -12.2810   -1.1320 O   0  0  0  0  0  0  0  0  0  0  0  0
   10.1340  -13.6180   -0.7290 O   0  0  0  0  0  0  0  0  0  0  0  0
   11.0370  -12.5700   -0.5250 C   0  0  0  0  0  0  0  0  0  0  0  0
   12.0660  -12.3370   -1.4370 C   0  0  0  0  0  0  0  0  0  0  0  0
   12.9850  -11.3210   -1.1800 C   0  0  0  0  0  0  0  0  0  0  0  0
   12.8780  -10.5610   -0.0130 C   0  0  0  0  0  0  0  0  0  0  0  0
   11.8550  -10.8150    0.9030 C   0  0  0  0  0  0  0  0  0  0  0  0
   10.9320  -11.8300    0.6510 C   0  0  0  0  0  0  0  0  0  0  0  0
    5.9360  -14.9260   -0.3440 C   0  0  0  0  0  0  0  0  0  0  0  0
    4.5760  -15.0350   -0.0360 C   0  0  0  0  0  0  0  0  0  0  0  0
    2.1000  -15.8950    2.0260 C   0  0  0  0  0  0  0  0  0  0  0  0
    0.8680  -16.1410    2.3550 N   0  0  0  0  0  0  0  0  0  0  0  0
   -0.0150  -15.1110    2.1740 C   0  0  0  0  0  0  0  0  0  0  0  0
   -3.2780  -15.7390    3.8060 C   0  0  0  0  0  0  0  0  0  0  0  0
   -4.8960  -16.4250    6.6560 C   0  0  0  0  0  0  0  0  0  0  0  0
   -6.1910  -16.6090    7.4700 C   0  0  0  0  0  0  0  0  0  0  0  0
   -8.2111  -15.6470    8.9557 H   0  0  0  0  0  0  0  0  0  0  0  0
   -9.1367  -14.8155    7.6601 H   0  0  0  0  0  0  0  0  0  0  0  0
   -9.0028  -16.6068    7.6601 H   0  0  0  0  0  0  0  0  0  0  0  0
   -6.8200  -14.6460    7.2190 H   0  0  0  0  0  0  0  0  0  0  0  0
   -7.9574  -16.6749    5.3558 H   0  0  0  0  0  0  0  0  0  0  0  0
   -8.2401  -14.8924    5.2882 H   0  0  0  0  0  0  0  0  0  0  0  0
   -6.4562  -15.7241    3.6852 H   0  0  0  0  0  0  0  0  0  0  0  0
   -5.8931  -14.4665    4.8565 H   0  0  0  0  0  0  0  0  0  0  0  0
   -4.6162  -18.8276    4.2678 H   0  0  0  0  0  0  0  0  0  0  0  0
   -2.7976  -19.4179    2.6855 H   0  0  0  0  0  0  0  0  0  0  0  0
   -1.2798  -17.6538    1.8035 H   0  0  0  0  0  0  0  0  0  0  0  0
   -2.7113  -13.2687    2.0740 H   0  0  0  0  0  0  0  0  0  0  0  0
    3.0250  -12.1280    0.6770 H   0  0  0  0  0  0  0  0  0  0  0  0
    1.3250  -11.6520    0.7230 H   0  0  0  0  0  0  0  0  0  0  0  0
    4.5800  -13.4345    2.9725 H   0  0  0  0  0  0  0  0  0  0  0  0
    7.0005  -13.2441    2.4212 H   0  0  0  0  0  0  0  0  0  0  0  0
    8.7910  -14.9470    0.4690 H   0  0  0  0  0  0  0  0  0  0  0  0
   12.1513  -12.9475   -2.3480 H   0  0  0  0  0  0  0  0  0  0  0  0
   13.7946  -11.1177   -1.8963 H   0  0  0  0  0  0  0  0  0  0  0  0
   13.6033   -9.7582    0.1856 H   0  0  0  0  0  0  0  0  0  0  0  0
   11.7772  -10.2155    1.8220 H   0  0  0  0  0  0  0  0  0  0  0  0
   10.1300  -12.0439    1.3728 H   0  0  0  0  0  0  0  0  0  0  0  0
    6.3157  -15.3496   -1.2855 H   0  0  0  0  0  0  0  0  0  0  0  0
    3.8948  -15.5409   -0.7360 H   0  0  0  0  0  0  0  0  0  0  0  0
    2.8170  -16.7180    2.1620 H   0  0  0  0  0  0  0  0  0  0  0  0
   -3.4052  -14.6933    4.1227 H   0  0  0  0  0  0  0  0  0  0  0  0
   -4.2102  -17.2557    6.8789 H   0  0  0  0  0  0  0  0  0  0  0  0
   -4.4410  -15.4632    6.9352 H   0  0  0  0  0  0  0  0  0  0  0  0
   -6.5914  -17.6175    7.2892 H   0  0  0  0  0  0  0  0  0  0  0  0
   -5.9607  -16.4766    8.5374 H   0  0  0  0  0  0  0  0  0  0  0  0
  1  2  1  0
  2  3  1  0
  3  4  1  0
  4  5  1  0
  5  6  1  0
  6  7  2  0
  7  8  1  0
  8  9  2  0
  9 10  1  0
 10 11  1  0
 11 12  1  0
 12 13  2  0
 13 14  1  0
 14 15  1  0
 15 16  1  0
 15 17  2  0
 17 18  1  0
 18 19  2  0
 19 20  1  0
 20 21  2  0
 21 22  1  0
 22 23  1  0
 23 24  2  0
 23 25  1  0
 25 26  1  0
 26 27  2  0
 27 28  1  0
 28 29  2  0
 29 30  1  0
 30 31  2  0
 21 32  1  0
 32 33  2  0
 17 34  1  0
 34 35  2  0
 35 36  1  0
 10 37  2  0
  5 38  1  0
 38 39  1  0
 39  2  1  0
 37  6  1  0
 36 11  2  0
 36 14  1  0
 33 18  1  0
 31 26  1  0
  1 40  1  0
  1 41  1  0
  1 42  1  0
  2 43  1  0
  3 44  1  0
  3 45  1  0
  4 46  1  0
  4 47  1  0
  7 48  1  0
  8 49  1  0
  9 50  1  0
 12 51  1  0
 16 52  1  0
 16 53  1  0
 19 54  1  0
 20 55  1  0
 22 56  1  0
 27 57  1  0
 28 58  1  0
 29 59  1  0
 30 60  1  0
 31 61  1  0
 32 62  1  0
 33 63  1  0
 34 64  1  0
 37 65  1  0
 38 66  1  0
 38 67  1  0
 39 68  1  0
 39 69  1  0
M  CHG  1   2   1
M  END
>  <meeko>  (6) 
{"is_sidechain": [false], "free_energy": -9.004, "intermolecular_energy": -12.2, "internal_energy": -0.686}

$$$$
LIB_RNRCLARSVNONBS__M_PUB_ALL__e8__s20260927
     RDKit          3D

 69 74  0  0  0  0  0  0  0  0999 V2000
    0.5300  -14.3840   -5.0460 C   0  0  0  0  0  0  0  0  0  0  0  0
    1.2480  -13.8810   -3.8320 N   0  0  0  0  0  0  0  0  0  0  0  0
    2.7640  -13.9120   -4.0060 C   0  0  0  0  0  0  0  0  0  0  0  0
    3.4680  -13.3150   -2.7710 C   0  0  0  0  0  0  0  0  0  0  0  0
    2.9930  -13.9510   -1.5300 N   0  0  0  0  0  0  0  0  0  0  0  0
    3.8330  -13.8820   -0.4180 C   0  0  0  0  0  0  0  0  0  0  0  0
    3.3640  -14.2530    0.8510 C   0  0  0  0  0  0  0  0  0  0  0  0
    4.1790  -14.1830    1.9830 C   0  0  0  0  0  0  0  0  0  0  0  0
    5.4920  -13.7360    1.8710 C   0  0  0  0  0  0  0  0  0  0  0  0
    5.9990  -13.3510    0.6270 C   0  0  0  0  0  0  0  0  0  0  0  0
    7.3730  -12.8970    0.4810 C   0  0  0  0  0  0  0  0  0  0  0  0
    8.1130  -11.9980    1.2750 C   0  0  0  0  0  0  0  0  0  0  0  0
    9.3640  -11.8270    0.8580 N   0  0  0  0  0  0  0  0  0  0  0  0
    9.4570  -12.6140   -0.2580 N   0  0  0  0  0  0  0  0  0  0  0  0
   10.5960  -12.7700   -1.0940 C   0  0  0  0  0  0  0  0  0  0  0  0
   11.7250  -12.0550   -0.7440 N   0  0  0  0  0  0  0  0  0  0  0  0
   10.4990  -13.6040   -2.1540 C   0  0  0  0  0  0  0  0  0  0  0  0
   11.5870  -13.8630   -3.1050 C   0  0  0  0  0  0  0  0  0  0  0  0
   12.5030  -14.8950   -2.8750 C   0  0  0  0  0  0  0  0  0  0  0  0
   13.5420  -15.1410   -3.7800 C   0  0  0  0  0  0  0  0  0  0  0  0
   13.6810  -14.3580   -4.9280 C   0  0  0  0  0  0  0  0  0  0  0  0
   14.6950  -14.5420   -5.8820 N   0  0  0  0  0  0  0  0  0  0  0  0
   14.7520  -15.4620   -6.8990 C   0  0  0  0  0  0  0  0  0  0  0  0
   13.9160  -16.3110   -7.1730 O   0  0  0  0  0  0  0  0  0  0  0  0
   15.9460  -15.2650   -7.5860 O   0  0  0  0  0  0  0  0  0  0  0  0
   15.8150  -15.1310   -8.9720 C   0  0  0  0  0  0  0  0  0  0  0  0
   14.8840  -14.2450   -9.5100 C   0  0  0  0  0  0  0  0  0  0  0  0
   14.7360  -14.1730  -10.8950 C   0  0  0  0  0  0  0  0  0  0  0  0
   15.5060  -14.9920  -11.7230 C   0  0  0  0  0  0  0  0  0  0  0  0
   16.4230  -15.8900  -11.1720 C   0  0  0  0  0  0  0  0  0  0  0  0
   16.5760  -15.9670   -9.7880 C   0  0  0  0  0  0  0  0  0  0  0  0
   12.7650  -13.3250   -5.1560 C   0  0  0  0  0  0  0  0  0  0  0  0
   11.7260  -13.0770   -4.2530 C   0  0  0  0  0  0  0  0  0  0  0  0
    9.1790  -14.2900   -2.3160 C   0  0  0  0  0  0  0  0  0  0  0  0
    8.1310  -14.1600   -1.5600 N   0  0  0  0  0  0  0  0  0  0  0  0
    8.2570  -13.2940   -0.5080 C   0  0  0  0  0  0  0  0  0  0  0  0
    5.1610  -13.4290   -0.5010 C   0  0  0  0  0  0  0  0  0  0  0  0
    1.5380  -14.0400   -1.3320 C   0  0  0  0  0  0  0  0  0  0  0  0
    0.8460  -14.6410   -2.5710 C   0  0  0  0  0  0  0  0  0  0  0  0
   -0.3344  -14.9896   -4.7361 H   0  0  0  0  0  0  0  0  0  0  0  0
    0.1832  -13.5304   -5.6468 H   0  0  0  0  0  0  0  0  0  0  0  0
    1.2138  -15.0016   -5.6468 H   0  0  0  0  0  0  0  0  0  0  0  0
    0.9800  -12.8980   -3.6910 H   0  0  0  0  0  0  0  0  0  0  0  0
    3.0907  -14.9539   -4.1391 H   0  0  0  0  0  0  0  0  0  0  0  0
    3.0304  -13.3121   -4.8887 H   0  0  0  0  0  0  0  0  0  0  0  0
    4.5525  -13.4742   -2.8638 H   0  0  0  0  0  0  0  0  0  0  0  0
    3.2374  -12.2405   -2.7231 H   0  0  0  0  0  0  0  0  0  0  0  0
    2.3283  -14.6080    0.9571 H   0  0  0  0  0  0  0  0  0  0  0  0
    3.7824  -14.4817    2.9646 H   0  0  0  0  0  0  0  0  0  0  0  0
    6.1324  -13.6856    2.7639 H   0  0  0  0  0  0  0  0  0  0  0  0
    7.6958  -11.4869    2.1552 H   0  0  0  0  0  0  0  0  0  0  0  0
   11.7600  -11.6610    0.1950 H   0  0  0  0  0  0  0  0  0  0  0  0
   12.4940  -11.9270   -1.3900 H   0  0  0  0  0  0  0  0  0  0  0  0
   12.4058  -15.5191   -1.9744 H   0  0  0  0  0  0  0  0  0  0  0  0
   14.2540  -15.9567   -3.5857 H   0  0  0  0  0  0  0  0  0  0  0  0
   15.5020  -13.9340   -5.8430 H   0  0  0  0  0  0  0  0  0  0  0  0
   14.2735  -13.6104   -8.8508 H   0  0  0  0  0  0  0  0  0  0  0  0
   14.0125  -13.4709  -11.3350 H   0  0  0  0  0  0  0  0  0  0  0  0
   15.3899  -14.9297  -12.8151 H   0  0  0  0  0  0  0  0  0  0  0  0
   17.0239  -16.5359  -11.8291 H   0  0  0  0  0  0  0  0  0  0  0  0
   17.2885  -16.6787   -9.3455 H   0  0  0  0  0  0  0  0  0  0  0  0
   12.8632  -12.7005   -6.0562 H   0  0  0  0  0  0  0  0  0  0  0  0
   11.0152  -12.2601   -4.4468 H   0  0  0  0  0  0  0  0  0  0  0  0
    9.0862  -14.9794   -3.1681 H   0  0  0  0  0  0  0  0  0  0  0  0
    5.5587  -13.1252   -1.4806 H   0  0  0  0  0  0  0  0  0  0  0  0
    1.3323  -14.6786   -0.4603 H   0  0  0  0  0  0  0  0  0  0  0  0
    1.1445  -13.0258   -1.1692 H   0  0  0  0  0  0  0  0  0  0  0  0
    1.1419  -15.6954   -2.6745 H   0  0  0  0  0  0  0  0  0  0  0  0
   -0.2436  -14.5626   -2.4417 H   0  0  0  0  0  0  0  0  0  0  0  0
  1  2  1  0
  2  3  1  0
  3  4  1  0
  4  5  1  0
  5  6  1  0
  6  7  2  0
  7  8  1  0
  8  9  2  0
  9 10  1  0
 10 11  1  0
 11 12  1  0
 12 13  2  0
 13 14  1  0
 14 15  1  0
 15 16  1  0
 15 17  2  0
 17 18  1  0
 18 19  2  0
 19 20  1  0
 20 21  2  0
 21 22  1  0
 22 23  1  0
 23 24  2  0
 23 25  1  0
 25 26  1  0
 26 27  2  0
 27 28  1  0
 28 29  2  0
 29 30  1  0
 30 31  2  0
 21 32  1  0
 32 33  2  0
 17 34  1  0
 34 35  2  0
 35 36  1  0
 10 37  2  0
  5 38  1  0
 38 39  1  0
 39  2  1  0
 37  6  1  0
 36 11  2  0
 36 14  1  0
 33 18  1  0
 31 26  1  0
  1 40  1  0
  1 41  1  0
  1 42  1  0
  2 43  1  0
  3 44  1  0
  3 45  1  0
  4 46  1  0
  4 47  1  0
  7 48  1  0
  8 49  1  0
  9 50  1  0
 12 51  1  0
 16 52  1  0
 16 53  1  0
 19 54  1  0
 20 55  1  0
 22 56  1  0
 27 57  1  0
 28 58  1  0
 29 59  1  0
 30 60  1  0
 31 61  1  0
 32 62  1  0
 33 63  1  0
 34 64  1  0
 37 65  1  0
 38 66  1  0
 38 67  1  0
 39 68  1  0
 39 69  1  0
M  CHG  1   2   1
M  END
>  <meeko>  (7) 
{"is_sidechain": [false], "free_energy": -8.987, "intermolecular_energy": -11.996, "internal_energy": -0.866}

$$$$
LIB_RNRCLARSVNONBS__M_PUB_ALL__e8__s20260927
     RDKit          3D

 69 74  0  0  0  0  0  0  0  0999 V2000
    1.8950  -18.2580    5.0610 C   0  0  0  0  0  0  0  0  0  0  0  0
    1.7790  -16.8580    4.5430 N   0  0  0  0  0  0  0  0  0  0  0  0
    0.7680  -16.0340    5.3340 C   0  0  0  0  0  0  0  0  0  0  0  0
    0.7320  -14.5790    4.8270 C   0  0  0  0  0  0  0  0  0  0  0  0
    0.5380  -14.5300    3.3680 N   0  0  0  0  0  0  0  0  0  0  0  0
    0.0160  -13.3500    2.8340 C   0  0  0  0  0  0  0  0  0  0  0  0
   -1.0570  -12.7010    3.4620 C   0  0  0  0  0  0  0  0  0  0  0  0
   -1.6080  -11.5260    2.9430 C   0  0  0  0  0  0  0  0  0  0  0  0
   -1.0930  -10.9710    1.7760 C   0  0  0  0  0  0  0  0  0  0  0  0
   -0.0280  -11.5870    1.1150 C   0  0  0  0  0  0  0  0  0  0  0  0
    0.5400  -11.0170   -0.0970 C   0  0  0  0  0  0  0  0  0  0  0  0
    0.2590   -9.7890   -0.7300 C   0  0  0  0  0  0  0  0  0  0  0  0
    0.9880   -9.5760   -1.8210 N   0  0  0  0  0  0  0  0  0  0  0  0
    1.7600  -10.7000   -1.9360 N   0  0  0  0  0  0  0  0  0  0  0  0
    2.7070  -10.9800   -2.9580 C   0  0  0  0  0  0  0  0  0  0  0  0
    2.8640  -10.0190   -3.9370 N   0  0  0  0  0  0  0  0  0  0  0  0
    3.3840  -12.1490   -2.8980 C   0  0  0  0  0  0  0  0  0  0  0  0
    4.3870  -12.5770   -3.8810 C   0  0  0  0  0  0  0  0  0  0  0  0
    5.7450  -12.6000   -3.5470 C   0  0  0  0  0  0  0  0  0  0  0  0
    6.7030  -13.0040   -4.4850 C   0  0  0  0  0  0  0  0  0  0  0  0
    6.3170  -13.3890   -5.7700 C   0  0  0  0  0  0  0  0  0  0  0  0
    7.2160  -13.8080   -6.7640 N   0  0  0  0  0  0  0  0  0  0  0  0
    7.4050  -15.0710   -7.2660 C   0  0  0  0  0  0  0  0  0  0  0  0
    6.8170  -16.0910   -6.9380 O   0  0  0  0  0  0  0  0  0  0  0  0
    8.4010  -15.0000   -8.2350 O   0  0  0  0  0  0  0  0  0  0  0  0
    8.1010  -14.1850   -9.3310 C   0  0  0  0  0  0  0  0  0  0  0  0
    6.9190  -14.3690  -10.0460 C   0  0  0  0  0  0  0  0  0  0  0  0
    6.6720  -13.5790  -11.1680 C   0  0  0  0  0  0  0  0  0  0  0  0
    7.6110  -12.6260  -11.5710 C   0  0  0  0  0  0  0  0  0  0  0  0
    8.8000  -12.4630  -10.8590 C   0  0  0  0  0  0  0  0  0  0  0  0
    9.0530  -13.2500   -9.7360 C   0  0  0  0  0  0  0  0  0  0  0  0
    4.9570  -13.3640   -6.1020 C   0  0  0  0  0  0  0  0  0  0  0  0
    3.9980  -12.9600   -5.1680 C   0  0  0  0  0  0  0  0  0  0  0  0
    3.0590  -13.0220   -1.7260 C   0  0  0  0  0  0  0  0  0  0  0  0
    2.2000  -12.7800   -0.7830 N   0  0  0  0  0  0  0  0  0  0  0  0
    1.5180  -11.5980   -0.8850 C   0  0  0  0  0  0  0  0  0  0  0  0
    0.5120  -12.7710    1.6540 C   0  0  0  0  0  0  0  0  0  0  0  0
    1.4180  -15.3690    2.5410 C   0  0  0  0  0  0  0  0  0  0  0  0
    1.4420  -16.8210    3.0560 C   0  0  0  0  0  0  0  0  0  0  0  0
    1.8938  -18.2433    6.1609 H   0  0  0  0  0  0  0  0  0  0  0  0
    1.0431  -18.8538    4.7013 H   0  0  0  0  0  0  0  0  0  0  0  0
    2.8333  -18.7055    4.7013 H   0  0  0  0  0  0  0  0  0  0  0  0
    2.6950  -16.4030    4.6570 H   0  0  0  0  0  0  0  0  0  0  0  0
   -0.2305  -16.4809    5.2189 H   0  0  0  0  0  0  0  0  0  0  0  0
    1.0663  -16.0313    6.3928 H   0  0  0  0  0  0  0  0  0  0  0  0
   -0.0972  -14.0481    5.3176 H   0  0  0  0  0  0  0  0  0  0  0  0
    1.6933  -14.1016    5.0676 H   0  0  0  0  0  0  0  0  0  0  0  0
   -1.4753  -13.1272    4.3858 H   0  0  0  0  0  0  0  0  0  0  0  0
   -2.4497  -11.0397    3.4578 H   0  0  0  0  0  0  0  0  0  0  0  0
   -1.5260  -10.0438    1.3724 H   0  0  0  0  0  0  0  0  0  0  0  0
   -0.4910   -9.0760   -0.3571 H   0  0  0  0  0  0  0  0  0  0  0  0
    3.7890   -9.6070   -4.0480 H   0  0  0  0  0  0  0  0  0  0  0  0
    2.0950   -9.7330   -4.5290 H   0  0  0  0  0  0  0  0  0  0  0  0
    6.0634  -12.2980   -2.5383 H   0  0  0  0  0  0  0  0  0  0  0  0
    7.7673  -13.0181   -4.2073 H   0  0  0  0  0  0  0  0  0  0  0  0
    7.8150  -13.1120   -7.1870 H   0  0  0  0  0  0  0  0  0  0  0  0
    6.1894  -15.1287   -9.7288 H   0  0  0  0  0  0  0  0  0  0  0  0
    5.7384  -13.7059  -11.7356 H   0  0  0  0  0  0  0  0  0  0  0  0
    7.4119  -12.0010  -12.4541 H   0  0  0  0  0  0  0  0  0  0  0  0
    9.5374  -11.7140  -11.1835 H   0  0  0  0  0  0  0  0  0  0  0  0
    9.9927  -13.1346   -9.1760 H   0  0  0  0  0  0  0  0  0  0  0  0
    4.6388  -13.6661   -7.1107 H   0  0  0  0  0  0  0  0  0  0  0  0
    2.9341  -12.9435   -5.4468 H   0  0  0  0  0  0  0  0  0  0  0  0
    3.6081  -13.9726   -1.6562 H   0  0  0  0  0  0  0  0  0  0  0  0
    1.3498  -13.2584    1.1338 H   0  0  0  0  0  0  0  0  0  0  0  0
    1.0514  -15.3614    1.5039 H   0  0  0  0  0  0  0  0  0  0  0  0
    2.4388  -14.9625    2.5924 H   0  0  0  0  0  0  0  0  0  0  0  0
    0.4535  -17.2769    2.8980 H   0  0  0  0  0  0  0  0  0  0  0  0
    2.2118  -17.3802    2.5040 H   0  0  0  0  0  0  0  0  0  0  0  0
  1  2  1  0
  2  3  1  0
  3  4  1  0
  4  5  1  0
  5  6  1  0
  6  7  2  0
  7  8  1  0
  8  9  2  0
  9 10  1  0
 10 11  1  0
 11 12  1  0
 12 13  2  0
 13 14  1  0
 14 15  1  0
 15 16  1  0
 15 17  2  0
 17 18  1  0
 18 19  2  0
 19 20  1  0
 20 21  2  0
 21 22  1  0
 22 23  1  0
 23 24  2  0
 23 25  1  0
 25 26  1  0
 26 27  2  0
 27 28  1  0
 28 29  2  0
 29 30  1  0
 30 31  2  0
 21 32  1  0
 32 33  2  0
 17 34  1  0
 34 35  2  0
 35 36  1  0
 10 37  2  0
  5 38  1  0
 38 39  1  0
 39  2  1  0
 37  6  1  0
 36 11  2  0
 36 14  1  0
 33 18  1  0
 31 26  1  0
  1 40  1  0
  1 41  1  0
  1 42  1  0
  2 43  1  0
  3 44  1  0
  3 45  1  0
  4 46  1  0
  4 47  1  0
  7 48  1  0
  8 49  1  0
  9 50  1  0
 12 51  1  0
 16 52  1  0
 16 53  1  0
 19 54  1  0
 20 55  1  0
 22 56  1  0
 27 57  1  0
 28 58  1  0
 29 59  1  0
 30 60  1  0
 31 61  1  0
 32 62  1  0
 33 63  1  0
 34 64  1  0
 37 65  1  0
 38 66  1  0
 38 67  1  0
 39 68  1  0
 39 69  1  0
M  CHG  1   2   1
M  END
>  <meeko>  (8) 
{"is_sidechain": [false], "free_energy": -8.983, "intermolecular_energy": -12.336, "internal_energy": -0.521}

$$$$
LIB_RNRCLARSVNONBS__M_PUB_ALL__e8__s20260927
     RDKit          3D

 69 74  0  0  0  0  0  0  0  0999 V2000
   14.4940  -14.2280  -10.2660 C   0  0  0  0  0  0  0  0  0  0  0  0
   14.3590  -14.1610   -8.7760 N   0  0  0  0  0  0  0  0  0  0  0  0
   15.0610  -15.3240   -8.0810 C   0  0  0  0  0  0  0  0  0  0  0  0
   14.9700  -15.1810   -6.5490 C   0  0  0  0  0  0  0  0  0  0  0  0
   13.5770  -14.9760   -6.1170 N   0  0  0  0  0  0  0  0  0  0  0  0
   13.2660  -15.3020   -4.7960 C   0  0  0  0  0  0  0  0  0  0  0  0
   13.6430  -16.5430   -4.2630 C   0  0  0  0  0  0  0  0  0  0  0  0
   13.3340  -16.9010   -2.9490 C   0  0  0  0  0  0  0  0  0  0  0  0
   12.6340  -16.0180   -2.1320 C   0  0  0  0  0  0  0  0  0  0  0  0
   12.2330  -14.7740   -2.6230 C   0  0  0  0  0  0  0  0  0  0  0  0
   11.5160  -13.8270   -1.7840 C   0  0  0  0  0  0  0  0  0  0  0  0
   11.9970  -12.7040   -1.0810 C   0  0  0  0  0  0  0  0  0  0  0  0
   11.0480  -12.0430   -0.4250 N   0  0  0  0  0  0  0  0  0  0  0  0
    9.9070  -12.7550   -0.6740 N   0  0  0  0  0  0  0  0  0  0  0  0
    8.6040  -12.4720   -0.1800 C   0  0  0  0  0  0  0  0  0  0  0  0
    8.4780  -11.3650    0.6360 N   0  0  0  0  0  0  0  0  0  0  0  0
    7.5920  -13.2900   -0.5450 C   0  0  0  0  0  0  0  0  0  0  0  0
    6.1980  -13.1280   -0.1130 C   0  0  0  0  0  0  0  0  0  0  0  0
    5.3080  -12.3500   -0.8600 C   0  0  0  0  0  0  0  0  0  0  0  0
    3.9800  -12.1920   -0.4470 C   0  0  0  0  0  0  0  0  0  0  0  0
    3.5230  -12.8080    0.7200 C   0  0  0  0  0  0  0  0  0  0  0  0
    2.2080  -12.6980    1.1990 N   0  0  0  0  0  0  0  0  0  0  0  0
    1.0330  -12.9030    0.5200 C   0  0  0  0  0  0  0  0  0  0  0  0
    0.9050  -13.2270   -0.6510 O   0  0  0  0  0  0  0  0  0  0  0  0
   -0.0160  -12.6780    1.4060 O   0  0  0  0  0  0  0  0  0  0  0  0
   -1.1800  -12.1620    0.8260 C   0  0  0  0  0  0  0  0  0  0  0  0
   -1.2990  -10.7960    0.5790 C   0  0  0  0  0  0  0  0  0  0  0  0
   -2.4910  -10.3020    0.0510 C   0  0  0  0  0  0  0  0  0  0  0  0
   -3.5530  -11.1710   -0.2090 C   0  0  0  0  0  0  0  0  0  0  0  0
   -3.4290  -12.5350    0.0600 C   0  0  0  0  0  0  0  0  0  0  0  0
   -2.2390  -13.0360    0.5870 C   0  0  0  0  0  0  0  0  0  0  0  0
    4.4160  -13.5840    1.4670 C   0  0  0  0  0  0  0  0  0  0  0  0
    5.7440  -13.7440    1.0570 C   0  0  0  0  0  0  0  0  0  0  0  0
    7.9700  -14.4140   -1.4590 C   0  0  0  0  0  0  0  0  0  0  0  0
    9.1530  -14.6840   -1.9210 N   0  0  0  0  0  0  0  0  0  0  0  0
   10.1580  -13.8480   -1.5160 C   0  0  0  0  0  0  0  0  0  0  0  0
   12.5540  -14.4330   -3.9510 C   0  0  0  0  0  0  0  0  0  0  0  0
   12.8040  -13.9310   -6.8040 C   0  0  0  0  0  0  0  0  0  0  0  0
   12.9000  -14.0860   -8.3340 C   0  0  0  0  0  0  0  0  0  0  0  0
   15.4513  -14.7031  -10.5264 H   0  0  0  0  0  0  0  0  0  0  0  0
   13.6656  -14.8196  -10.6830 H   0  0  0  0  0  0  0  0  0  0  0  0
   14.4642  -13.2105  -10.6830 H   0  0  0  0  0  0  0  0  0  0  0  0
   14.8160  -13.2970   -8.4570 H   0  0  0  0  0  0  0  0  0  0  0  0
   14.5829  -16.2671   -8.3843 H   0  0  0  0  0  0  0  0  0  0  0  0
   16.1215  -15.3213   -8.3732 H   0  0  0  0  0  0  0  0  0  0  0  0
   15.3609  -16.0955   -6.0790 H   0  0  0  0  0  0  0  0  0  0  0  0
   15.5625  -14.3058   -6.2442 H   0  0  0  0  0  0  0  0  0  0  0  0
   14.1962  -17.2525   -4.8959 H   0  0  0  0  0  0  0  0  0  0  0  0
   13.6441  -17.8818   -2.5593 H   0  0  0  0  0  0  0  0  0  0  0  0
   12.3959  -16.3011   -1.0961 H   0  0  0  0  0  0  0  0  0  0  0  0
   13.0551  -12.4035   -1.0756 H   0  0  0  0  0  0  0  0  0  0  0  0
    9.2250  -10.6730    0.6090 H   0  0  0  0  0  0  0  0  0  0  0  0
    7.6730  -11.2370    1.2360 H   0  0  0  0  0  0  0  0  0  0  0  0
    5.6547  -11.8577   -1.7806 H   0  0  0  0  0  0  0  0  0  0  0  0
    3.2913  -11.5781   -1.0460 H   0  0  0  0  0  0  0  0  0  0  0  0
    2.0740  -12.4360    2.1660 H   0  0  0  0  0  0  0  0  0  0  0  0
   -0.4628  -10.1157    0.7979 H   0  0  0  0  0  0  0  0  0  0  0  0
   -2.5951   -9.2276   -0.1609 H   0  0  0  0  0  0  0  0  0  0  0  0
   -4.4915  -10.7787   -0.6277 H   0  0  0  0  0  0  0  0  0  0  0  0
   -4.2697  -13.2146   -0.1436 H   0  0  0  0  0  0  0  0  0  0  0  0
   -2.1374  -14.1081    0.8114 H   0  0  0  0  0  0  0  0  0  0  0  0
    4.0694  -14.0746    2.3885 H   0  0  0  0  0  0  0  0  0  0  0  0
    6.4331  -14.3564    1.6571 H   0  0  0  0  0  0  0  0  0  0  0  0
    7.1565  -15.0844   -1.7735 H   0  0  0  0  0  0  0  0  0  0  0  0
   12.2371  -13.4541   -4.3401 H   0  0  0  0  0  0  0  0  0  0  0  0
   11.7493  -14.0062   -6.5007 H   0  0  0  0  0  0  0  0  0  0  0  0
   13.2172  -12.9504   -6.5254 H   0  0  0  0  0  0  0  0  0  0  0  0
   12.3826  -15.0082   -8.6371 H   0  0  0  0  0  0  0  0  0  0  0  0
   12.4301  -13.2122   -8.8091 H   0  0  0  0  0  0  0  0  0  0  0  0
  1  2  1  0
  2  3  1  0
  3  4  1  0
  4  5  1  0
  5  6  1  0
  6  7  2  0
  7  8  1  0
  8  9  2  0
  9 10  1  0
 10 11  1  0
 11 12  1  0
 12 13  2  0
 13 14  1  0
 14 15  1  0
 15 16  1  0
 15 17  2  0
 17 18  1  0
 18 19  2  0
 19 20  1  0
 20 21  2  0
 21 22  1  0
 22 23  1  0
 23 24  2  0
 23 25  1  0
 25 26  1  0
 26 27  2  0
 27 28  1  0
 28 29  2  0
 29 30  1  0
 30 31  2  0
 21 32  1  0
 32 33  2  0
 17 34  1  0
 34 35  2  0
 35 36  1  0
 10 37  2  0
  5 38  1  0
 38 39  1  0
 39  2  1  0
 37  6  1  0
 36 11  2  0
 36 14  1  0
 33 18  1  0
 31 26  1  0
  1 40  1  0
  1 41  1  0
  1 42  1  0
  2 43  1  0
  3 44  1  0
  3 45  1  0
  4 46  1  0
  4 47  1  0
  7 48  1  0
  8 49  1  0
  9 50  1  0
 12 51  1  0
 16 52  1  0
 16 53  1  0
 19 54  1  0
 20 55  1  0
 22 56  1  0
 27 57  1  0
 28 58  1  0
 29 59  1  0
 30 60  1  0
 31 61  1  0
 32 62  1  0
 33 63  1  0
 34 64  1  0
 37 65  1  0
 38 66  1  0
 38 67  1  0
 39 68  1  0
 39 69  1  0
M  CHG  1   2   1
M  END
>  <meeko>  (9) 
{"is_sidechain": [false], "free_energy": -8.942, "intermolecular_energy": -11.898, "internal_energy": -0.902}

$$$$
