LIB_WUMNNWDKNWWLGB__M_PUB_ALL__e8__s20260927
     RDKit          3D

 82 86  0  0  0  0  0  0  0  0999 V2000
    1.4470  -16.1220    2.5440 C   0  0  0  0  0  0  0  0  0  0  0  0
    1.7650  -15.0870    1.7400 C   0  0  0  0  0  0  0  0  0  0  0  0
    3.1630  -15.0730    1.1320 C   0  0  2  0  0  0  0  0  0  0  0  0
    4.1810  -14.1290    1.7800 C   0  0  0  0  0  0  0  0  0  0  0  0
    5.3620  -14.2190    0.8030 C   0  0  2  0  0  0  0  0  0  0  0  0
    5.9780  -15.4960    0.9520 O   0  0  0  0  0  0  0  0  0  0  0  0
    6.4040  -13.1650    1.0250 C   0  0  0  0  0  0  0  0  0  0  0  0
    7.5280  -12.9830    0.2960 C   0  0  0  0  0  0  0  0  0  0  0  0
    8.3550  -11.8530    0.6660 C   0  0  0  0  0  0  0  0  0  0  0  0
    9.6860  -11.8050    0.7640 C   0  0  0  0  0  0  0  0  0  0  0  0
   10.6440  -12.8890    0.5350 C   0  0  0  0  0  0  0  0  0  0  0  0
   11.7100  -12.8960    1.1430 O   0  0  0  0  0  0  0  0  0  0  0  0
   10.3250  -13.8560   -0.3400 O   0  0  0  0  0  0  0  0  0  0  0  0
    9.3670  -13.7530   -1.4360 C   0  0  0  0  0  0  0  0  0  0  0  0
    9.7370  -15.0020   -2.2790 C   0  0  0  0  0  0  0  0  0  0  0  0
    9.6590  -12.5280   -2.3220 C   0  0  0  0  0  0  0  0  0  0  0  0
    7.8980  -13.8860   -0.8930 C   0  0  2  0  0  0  0  0  0  0  0  0
    6.8160  -13.8210   -2.0250 C   0  0  2  0  0  0  0  0  0  0  0  0
    6.4960  -12.4390   -2.3120 O   0  0  0  0  0  0  0  0  0  0  0  0
    5.9010  -12.1760   -3.5070 C   0  0  0  0  0  0  0  0  0  0  0  0
    4.6370  -11.4030   -3.2870 C   0  0  0  0  0  0  0  0  0  0  0  0
    6.3260  -12.5100   -4.6040 O   0  0  0  0  0  0  0  0  0  0  0  0
    5.5240  -14.6190   -1.7430 C   0  0  0  0  0  0  0  0  0  0  0  0
    4.6750  -14.1030   -0.5740 C   0  0  1  0  0  0  0  0  0  0  0  0
    3.2530  -14.7730   -0.3920 C   0  0  1  0  0  0  0  0  0  0  0  0
    3.0620  -16.0900   -1.1720 C   0  0  0  0  0  0  0  0  0  0  0  0
    2.1730  -13.7620   -0.8510 C   0  0  0  0  0  0  0  0  0  0  0  0
    0.7850  -14.0040   -0.2490 C   0  0  0  0  0  0  0  0  0  0  0  0
    0.7980  -13.9770    1.2980 C   0  0  2  0  0  0  0  0  0  0  0  0
    1.3810  -12.7360    1.7110 O   0  0  0  0  0  0  0  0  0  0  0  0
   -0.6530  -14.0530    1.9250 C   0  0  1  0  0  0  0  0  0  0  0  0
   -0.6610  -13.4730    3.3590 C   0  0  0  0  0  0  0  0  0  0  0  0
   -1.7400  -13.3470    1.0630 C   0  0  1  0  0  0  0  0  0  0  0  0
   -3.1630  -13.8620    1.2970 C   0  0  0  0  0  0  0  0  0  0  0  0
   -4.1060  -13.0370    0.4790 C   0  0  0  0  0  0  0  0  0  0  0  0
   -3.8210  -11.7660    0.1530 C   0  0  0  0  0  0  0  0  0  0  0  0
   -4.7330  -10.9000   -0.6580 C   0  0  0  0  0  0  0  0  0  0  0  0
   -2.5810  -11.1190    0.6620 C   0  0  0  0  0  0  0  0  0  0  0  0
   -2.3830   -9.9170    0.5450 O   0  0  0  0  0  0  0  0  0  0  0  0
   -1.6850  -11.9240    1.2950 O   0  0  0  0  0  0  0  0  0  0  0  0
    0.4496  -16.1741    3.0050 H   0  0  0  0  0  0  0  0  0  0  0  0
    2.1850  -16.9141    2.7388 H   0  0  0  0  0  0  0  0  0  0  0  0
    3.4185  -16.1227    1.3391 H   0  0  0  0  0  0  0  0  0  0  0  0
    3.7911  -13.1023    1.8431 H   0  0  0  0  0  0  0  0  0  0  0  0
    4.4390  -14.3962    2.8154 H   0  0  0  0  0  0  0  0  0  0  0  0
    5.9840  -15.7020    1.9030 H   0  0  0  0  0  0  0  0  0  0  0  0
    6.2381  -12.4718    1.8628 H   0  0  0  0  0  0  0  0  0  0  0  0
    7.8208  -10.9190    0.8945 H   0  0  0  0  0  0  0  0  0  0  0  0
   10.1148  -10.8337    1.0515 H   0  0  0  0  0  0  0  0  0  0  0  0
    9.9845  -15.8374   -1.6075 H   0  0  0  0  0  0  0  0  0  0  0  0
    8.8833  -15.2821   -2.9136 H   0  0  0  0  0  0  0  0  0  0  0  0
   10.6056  -14.7719   -2.9136 H   0  0  0  0  0  0  0  0  0  0  0  0
    9.8669  -11.6558   -1.6848 H   0  0  0  0  0  0  0  0  0  0  0  0
   10.5330  -12.7348   -2.9571 H   0  0  0  0  0  0  0  0  0  0  0  0
    8.7857  -12.3183   -2.9571 H   0  0  0  0  0  0  0  0  0  0  0  0
    7.8927  -14.9026   -0.4728 H   0  0  0  0  0  0  0  0  0  0  0  0
    7.2701  -14.3116   -2.8986 H   0  0  0  0  0  0  0  0  0  0  0  0
    4.4575  -11.2932   -2.2073 H   0  0  0  0  0  0  0  0  0  0  0  0
    4.7312  -10.4078   -3.7461 H   0  0  0  0  0  0  0  0  0  0  0  0
    3.7940  -11.9403   -3.7461 H   0  0  0  0  0  0  0  0  0  0  0  0
    4.9035  -14.5925   -2.6509 H   0  0  0  0  0  0  0  0  0  0  0  0
    5.8482  -15.6311   -1.4592 H   0  0  0  0  0  0  0  0  0  0  0  0
    4.5495  -13.0545   -0.8821 H   0  0  0  0  0  0  0  0  0  0  0  0
    2.9413  -16.9220   -0.4627 H   0  0  0  0  0  0  0  0  0  0  0  0
    2.1654  -16.0147   -1.8048 H   0  0  0  0  0  0  0  0  0  0  0  0
    3.9431  -16.2725   -1.8048 H   0  0  0  0  0  0  0  0  0  0  0  0
    2.5019  -12.7525   -0.5633 H   0  0  0  0  0  0  0  0  0  0  0  0
    2.0696  -13.8845   -1.9393 H   0  0  0  0  0  0  0  0  0  0  0  0
    0.1023  -13.2206   -0.6099 H   0  0  0  0  0  0  0  0  0  0  0  0
    0.4538  -15.0048   -0.5634 H   0  0  0  0  0  0  0  0  0  0  0  0
    2.3320  -12.7740    1.4880 H   0  0  0  0  0  0  0  0  0  0  0  0
   -0.9131  -15.1214    1.9530 H   0  0  0  0  0  0  0  0  0  0  0  0
   -0.6496  -14.2968    4.0878 H   0  0  0  0  0  0  0  0  0  0  0  0
    0.2285  -12.8425    3.5045 H   0  0  0  0  0  0  0  0  0  0  0  0
   -1.5676  -12.8672    3.5045 H   0  0  0  0  0  0  0  0  0  0  0  0
   -1.5069  -13.5844    0.0145 H   0  0  0  0  0  0  0  0  0  0  0  0
   -3.2312  -14.9164    0.9912 H   0  0  0  0  0  0  0  0  0  0  0  0
   -3.4217  -13.7846    2.3634 H   0  0  0  0  0  0  0  0  0  0  0  0
   -5.0527  -13.4811    0.1375 H   0  0  0  0  0  0  0  0  0  0  0  0
   -5.3640  -10.3008    0.0149 H   0  0  0  0  0  0  0  0  0  0  0  0
   -4.1342  -10.2300   -1.2925 H   0  0  0  0  0  0  0  0  0  0  0  0
   -5.3711  -11.5326   -1.2925 H   0  0  0  0  0  0  0  0  0  0  0  0
  1  2  2  0
  2  3  1  0
  3  4  1  0
  4  5  1  0
  5  6  1  6
  5  7  1  0
  7  8  2  0
  8  9  1  0
  9 10  2  0
 10 11  1  0
 11 12  2  0
 11 13  1  0
 13 14  1  0
 14 15  1  0
 14 16  1  0
 14 17  1  0
 17 18  1  0
 18 19  1  0
 19 20  1  0
 20 21  1  0
 20 22  2  0
 18 23  1  0
 23 24  1  0
 24 25  1  0
 25 26  1  6
 25 27  1  0
 27 28  1  0
 28 29  1  0
 29 30  1  6
 29 31  1  0
 31 32  1  0
 31 33  1  0
 33 34  1  0
 34 35  1  0
 35 36  2  0
 36 37  1  0
 36 38  1  0
 38 39  2  0
 38 40  1  0
 29  2  1  0
 40 33  1  0
 25  3  1  0
 24  5  1  0
 17  8  1  0
  1 41  1  0
  1 42  1  0
  3 43  1  6
  4 44  1  0
  4 45  1  0
  6 46  1  0
  7 47  1  0
  9 48  1  0
 10 49  1  0
 15 50  1  0
 15 51  1  0
 15 52  1  0
 16 53  1  0
 16 54  1  0
 16 55  1  0
 17 56  1  1
 18 57  1  6
 21 58  1  0
 21 59  1  0
 21 60  1  0
 23 61  1  0
 23 62  1  0
 24 63  1  6
 26 64  1  0
 26 65  1  0
 26 66  1  0
 27 67  1  0
 27 68  1  0
 28 69  1  0
 28 70  1  0
 30 71  1  0
 31 72  1  1
 32 73  1  0
 32 74  1  0
 32 75  1  0
 33 76  1  6
 34 77  1  0
 34 78  1  0
 35 79  1  0
 37 80  1  0
 37 81  1  0
 37 82  1  0
M  END
>  <meeko>  (1) 
{"is_sidechain": [false], "free_energy": -6.426, "intermolecular_energy": -11.31, "internal_energy": 1.058}

$$$$
LIB_WUMNNWDKNWWLGB__M_PUB_ALL__e8__s20260927
     RDKit          3D

 82 86  0  0  0  0  0  0  0  0999 V2000
    2.1170  -13.9560   -2.5700 C   0  0  0  0  0  0  0  0  0  0  0  0
    3.0500  -13.9210   -1.5960 C   0  0  0  0  0  0  0  0  0  0  0  0
    4.5120  -13.8790   -2.0260 C   0  0  2  0  0  0  0  0  0  0  0  0
    5.2930  -15.1930   -1.9240 C   0  0  0  0  0  0  0  0  0  0  0  0
    6.7270  -14.7320   -2.2190 C   0  0  2  0  0  0  0  0  0  0  0  0
    6.8270  -14.4130   -3.6050 O   0  0  0  0  0  0  0  0  0  0  0  0
    7.7660  -15.7640   -1.8980 C   0  0  0  0  0  0  0  0  0  0  0  0
    9.1040  -15.6220   -2.0280 C   0  0  0  0  0  0  0  0  0  0  0  0
    9.9120  -16.7430   -1.5930 C   0  0  0  0  0  0  0  0  0  0  0  0
   10.9810  -17.2700   -2.1970 C   0  0  0  0  0  0  0  0  0  0  0  0
   11.6050  -16.8550   -3.4540 C   0  0  0  0  0  0  0  0  0  0  0  0
   12.2030  -17.6770   -4.1400 O   0  0  0  0  0  0  0  0  0  0  0  0
   11.5040  -15.5680   -3.8260 O   0  0  0  0  0  0  0  0  0  0  0  0
   11.2720  -14.4270   -2.9460 C   0  0  0  0  0  0  0  0  0  0  0  0
   11.6580  -13.2460   -3.8760 C   0  0  0  0  0  0  0  0  0  0  0  0
   12.2760  -14.4070   -1.7790 C   0  0  0  0  0  0  0  0  0  0  0  0
    9.7520  -14.3330   -2.5600 C   0  0  2  0  0  0  0  0  0  0  0  0
    9.4250  -13.0980   -1.6150 C   0  0  2  0  0  0  0  0  0  0  0  0
    9.6490  -13.4670   -0.2320 O   0  0  0  0  0  0  0  0  0  0  0  0
    9.7520  -12.4530    0.6700 C   0  0  0  0  0  0  0  0  0  0  0  0
   11.0820  -11.7800    0.5270 C   0  0  0  0  0  0  0  0  0  0  0  0
    8.8940  -12.1280    1.4770 O   0  0  0  0  0  0  0  0  0  0  0  0
    8.0000  -12.5270   -1.7880 C   0  0  0  0  0  0  0  0  0  0  0  0
    6.8610  -13.4590   -1.3570 C   0  0  1  0  0  0  0  0  0  0  0  0
    5.4120  -12.8230   -1.3190 C   0  0  1  0  0  0  0  0  0  0  0  0
    5.2840  -11.4790   -2.0640 C   0  0  0  0  0  0  0  0  0  0  0  0
    5.0080  -12.6130    0.1610 C   0  0  0  0  0  0  0  0  0  0  0  0
    3.4970  -12.5400    0.4000 C   0  0  0  0  0  0  0  0  0  0  0  0
    2.7590  -13.8090   -0.0920 C   0  0  2  0  0  0  0  0  0  0  0  0
    3.3720  -14.9440    0.5320 O   0  0  0  0  0  0  0  0  0  0  0  0
    1.2270  -13.8190    0.3050 C   0  0  1  0  0  0  0  0  0  0  0  0
    0.9300  -14.9510    1.3170 C   0  0  0  0  0  0  0  0  0  0  0  0
    0.7220  -12.4590    0.8700 C   0  0  1  0  0  0  0  0  0  0  0  0
    0.2150  -11.4830   -0.1950 C   0  0  0  0  0  0  0  0  0  0  0  0
   -0.3200  -10.2670    0.4920 C   0  0  0  0  0  0  0  0  0  0  0  0
   -0.8190  -10.3300    1.7380 C   0  0  0  0  0  0  0  0  0  0  0  0
   -1.3700   -9.1450    2.4660 C   0  0  0  0  0  0  0  0  0  0  0  0
   -0.9160  -11.6380    2.4430 C   0  0  0  0  0  0  0  0  0  0  0  0
   -1.5320  -11.7630    3.4930 O   0  0  0  0  0  0  0  0  0  0  0  0
   -0.3100  -12.7010    1.8490 O   0  0  0  0  0  0  0  0  0  0  0  0
    1.0491  -13.9870   -2.3079 H   0  0  0  0  0  0  0  0  0  0  0  0
    2.4242  -13.9535   -3.6262 H   0  0  0  0  0  0  0  0  0  0  0  0
    4.3432  -13.6074   -3.0785 H   0  0  0  0  0  0  0  0  0  0  0  0
    5.2120  -15.6296   -0.9176 H   0  0  0  0  0  0  0  0  0  0  0  0
    4.9304  -15.9796   -2.6021 H   0  0  0  0  0  0  0  0  0  0  0  0
    6.4700  -13.5140   -3.7180 H   0  0  0  0  0  0  0  0  0  0  0  0
    7.4041  -16.7314   -1.5197 H   0  0  0  0  0  0  0  0  0  0  0  0
    9.6080  -17.2190   -0.6491 H   0  0  0  0  0  0  0  0  0  0  0  0
   11.4510  -18.1228   -1.6852 H   0  0  0  0  0  0  0  0  0  0  0  0
   11.9423  -12.3763   -3.2654 H   0  0  0  0  0  0  0  0  0  0  0  0
   12.5064  -13.5414   -4.5109 H   0  0  0  0  0  0  0  0  0  0  0  0
   10.7990  -12.9833   -4.5109 H   0  0  0  0  0  0  0  0  0  0  0  0
   11.7292  -14.4179   -0.8246 H   0  0  0  0  0  0  0  0  0  0  0  0
   12.9260  -15.2924   -1.8393 H   0  0  0  0  0  0  0  0  0  0  0  0
   12.8902  -13.4964   -1.8393 H   0  0  0  0  0  0  0  0  0  0  0  0
    9.2740  -14.1632   -3.5361 H   0  0  0  0  0  0  0  0  0  0  0  0
   10.1094  -12.2915   -1.9169 H   0  0  0  0  0  0  0  0  0  0  0  0
   11.4960  -11.5705    1.5243 H   0  0  0  0  0  0  0  0  0  0  0  0
   11.7690  -12.4390   -0.0242 H   0  0  0  0  0  0  0  0  0  0  0  0
   10.9580  -10.8362   -0.0242 H   0  0  0  0  0  0  0  0  0  0  0  0
    7.9288  -11.6057   -1.1912 H   0  0  0  0  0  0  0  0  0  0  0  0
    7.8673  -12.3656   -2.8680 H   0  0  0  0  0  0  0  0  0  0  0  0
    7.1870  -13.6910   -0.3324 H   0  0  0  0  0  0  0  0  0  0  0  0
    5.2061  -10.6606   -1.3331 H   0  0  0  0  0  0  0  0  0  0  0  0
    6.1714  -11.3237   -2.6952 H   0  0  0  0  0  0  0  0  0  0  0  0
    4.3832  -11.4940   -2.6952 H   0  0  0  0  0  0  0  0  0  0  0  0
    5.4093  -13.4513    0.7495 H   0  0  0  0  0  0  0  0  0  0  0  0
    5.4212  -11.6397    0.4642 H   0  0  0  0  0  0  0  0  0  0  0  0
    3.3154  -12.4216    1.4784 H   0  0  0  0  0  0  0  0  0  0  0  0
    3.1084  -11.6838   -0.1709 H   0  0  0  0  0  0  0  0  0  0  0  0
    2.6800  -15.6250    0.6360 H   0  0  0  0  0  0  0  0  0  0  0  0
    0.6760  -13.9998   -0.6297 H   0  0  0  0  0  0  0  0  0  0  0  0
    1.0318  -14.5631    2.3413 H   0  0  0  0  0  0  0  0  0  0  0  0
   -0.0952  -15.3194    1.1646 H   0  0  0  0  0  0  0  0  0  0  0  0
    1.6423  -15.7753    1.1646 H   0  0  0  0  0  0  0  0  0  0  0  0
    1.5944  -11.9711    1.3292 H   0  0  0  0  0  0  0  0  0  0  0  0
    1.0424  -11.1987   -0.8617 H   0  0  0  0  0  0  0  0  0  0  0  0
   -0.5768  -11.9566   -0.7939 H   0  0  0  0  0  0  0  0  0  0  0  0
   -0.3047   -9.3009   -0.0337 H   0  0  0  0  0  0  0  0  0  0  0  0
   -1.2923   -9.3122    3.5504 H   0  0  0  0  0  0  0  0  0  0  0  0
   -0.7970   -8.2470    2.1914 H   0  0  0  0  0  0  0  0  0  0  0  0
   -2.4259   -9.0044    2.1914 H   0  0  0  0  0  0  0  0  0  0  0  0
  1  2  2  0
  2  3  1  0
  3  4  1  0
  4  5  1  0
  5  6  1  6
  5  7  1  0
  7  8  2  0
  8  9  1  0
  9 10  2  0
 10 11  1  0
 11 12  2  0
 11 13  1  0
 13 14  1  0
 14 15  1  0
 14 16  1  0
 14 17  1  0
 17 18  1  0
 18 19  1  0
 19 20  1  0
 20 21  1  0
 20 22  2  0
 18 23  1  0
 23 24  1  0
 24 25  1  0
 25 26  1  6
 25 27  1  0
 27 28  1  0
 28 29  1  0
 29 30  1  1
 29 31  1  0
 31 32  1  0
 31 33  1  0
 33 34  1  0
 34 35  1  0
 35 36  2  0
 36 37  1  0
 36 38  1  0
 38 39  2  0
 38 40  1  0
 29  2  1  0
 40 33  1  0
 25  3  1  0
 24  5  1  0
 17  8  1  0
  1 41  1  0
  1 42  1  0
  3 43  1  6
  4 44  1  0
  4 45  1  0
  6 46  1  0
  7 47  1  0
  9 48  1  0
 10 49  1  0
 15 50  1  0
 15 51  1  0
 15 52  1  0
 16 53  1  0
 16 54  1  0
 16 55  1  0
 17 56  1  6
 18 57  1  6
 21 58  1  0
 21 59  1  0
 21 60  1  0
 23 61  1  0
 23 62  1  0
 24 63  1  1
 26 64  1  0
 26 65  1  0
 26 66  1  0
 27 67  1  0
 27 68  1  0
 28 69  1  0
 28 70  1  0
 30 71  1  0
 31 72  1  6
 32 73  1  0
 32 74  1  0
 32 75  1  0
 33 76  1  1
 34 77  1  0
 34 78  1  0
 35 79  1  0
 37 80  1  0
 37 81  1  0
 37 82  1  0
M  END
>  <meeko>  (2) 
{"is_sidechain": [false], "free_energy": -5.729, "intermolecular_energy": -10.088, "internal_energy": 1.064}

$$$$
LIB_WUMNNWDKNWWLGB__M_PUB_ALL__e8__s20260927
     RDKit          3D

 82 86  0  0  0  0  0  0  0  0999 V2000
    5.3990  -11.6100   -2.3450 C   0  0  0  0  0  0  0  0  0  0  0  0
    5.1120  -12.2340   -1.1850 C   0  0  0  0  0  0  0  0  0  0  0  0
    3.7130  -12.8200   -1.0300 C   0  0  2  0  0  0  0  0  0  0  0  0
    2.7280  -12.0210   -0.1710 C   0  0  0  0  0  0  0  0  0  0  0  0
    1.5420  -12.9900   -0.0660 C   0  0  2  0  0  0  0  0  0  0  0  0
    0.8860  -13.0430   -1.3300 O   0  0  0  0  0  0  0  0  0  0  0  0
    0.5340  -12.5930    0.9710 C   0  0  0  0  0  0  0  0  0  0  0  0
   -0.5900  -13.2690    1.2960 C   0  0  0  0  0  0  0  0  0  0  0  0
   -1.3780  -12.7170    2.3790 C   0  0  0  0  0  0  0  0  0  0  0  0
   -2.7070  -12.6070    2.4560 C   0  0  0  0  0  0  0  0  0  0  0  0
   -3.7180  -12.9990    1.4410 C   0  0  0  0  0  0  0  0  0  0  0  0
   -4.7940  -12.4110    1.3770 O   0  0  0  0  0  0  0  0  0  0  0  0
   -3.4270  -14.0250    0.6250 O   0  0  0  0  0  0  0  0  0  0  0  0
   -2.4590  -15.0880    0.8800 C   0  0  0  0  0  0  0  0  0  0  0  0
   -2.8720  -16.1330   -0.1890 C   0  0  0  0  0  0  0  0  0  0  0  0
   -2.7000  -15.7480    2.2500 C   0  0  0  0  0  0  0  0  0  0  0  0
   -0.9990  -14.5780    0.5990 C   0  0  2  0  0  0  0  0  0  0  0  0
    0.0880  -15.7020    0.8220 C   0  0  2  0  0  0  0  0  0  0  0  0
    0.4480  -15.7740    2.2230 O   0  0  0  0  0  0  0  0  0  0  0  0
    0.9460  -16.9570    2.6740 C   0  0  0  0  0  0  0  0  0  0  0  0
    2.3090  -16.7440    3.2570 C   0  0  0  0  0  0  0  0  0  0  0  0
    0.3750  -18.0360    2.6230 O   0  0  0  0  0  0  0  0  0  0  0  0
    1.3590  -15.5650   -0.0460 C   0  0  0  0  0  0  0  0  0  0  0  0
    2.2270  -14.3360    0.2490 C   0  0  1  0  0  0  0  0  0  0  0  0
    3.6280  -14.2760   -0.4860 C   0  0  1  0  0  0  0  0  0  0  0  0
    3.7740  -15.2590   -1.6660 C   0  0  0  0  0  0  0  0  0  0  0  0
    4.7390  -14.5760    0.5510 C   0  0  0  0  0  0  0  0  0  0  0  0
    6.1200  -14.0320    0.1720 C   0  0  0  0  0  0  0  0  0  0  0  0
    6.1120  -12.5000   -0.0490 C   0  0  2  0  0  0  0  0  0  0  0  0
    5.5710  -11.8890    1.1280 O   0  0  0  0  0  0  0  0  0  0  0  0
    7.5620  -11.9070   -0.2700 C   0  0  1  0  0  0  0  0  0  0  0  0
    8.0340  -11.1320    0.9840 C   0  0  0  0  0  0  0  0  0  0  0  0
    8.6210  -12.9790   -0.6580 C   0  0  1  0  0  0  0  0  0  0  0  0
    8.8540  -13.1190   -2.1650 C   0  0  0  0  0  0  0  0  0  0  0  0
    9.9530  -14.1100   -2.3850 C   0  0  0  0  0  0  0  0  0  0  0  0
   10.9120  -14.3070   -1.4640 C   0  0  0  0  0  0  0  0  0  0  0  0
   12.0340  -15.2810   -1.6400 C   0  0  0  0  0  0  0  0  0  0  0  0
   10.9420  -13.4860   -0.2240 C   0  0  0  0  0  0  0  0  0  0  0  0
   11.8980  -13.5030    0.5410 O   0  0  0  0  0  0  0  0  0  0  0  0
    9.8670  -12.6860    0.0080 O   0  0  0  0  0  0  0  0  0  0  0  0
    6.3957  -11.1718   -2.5019 H   0  0  0  0  0  0  0  0  0  0  0  0
    4.6365  -11.5390   -3.1347 H   0  0  0  0  0  0  0  0  0  0  0  0
    3.4244  -12.7814   -2.0908 H   0  0  0  0  0  0  0  0  0  0  0  0
    3.1509  -11.7973    0.8195 H   0  0  0  0  0  0  0  0  0  0  0  0
    2.4646  -11.0398   -0.5927 H   0  0  0  0  0  0  0  0  0  0  0  0
    0.0480  -12.5570   -1.2380 H   0  0  0  0  0  0  0  0  0  0  0  0
    0.7286  -11.6604    1.5208 H   0  0  0  0  0  0  0  0  0  0  0  0
   -0.8122  -12.3422    3.2447 H   0  0  0  0  0  0  0  0  0  0  0  0
   -3.1015  -12.1723    3.3863 H   0  0  0  0  0  0  0  0  0  0  0  0
   -3.2324  -17.0449    0.3097 H   0  0  0  0  0  0  0  0  0  0  0  0
   -3.6735  -15.7175   -0.8174 H   0  0  0  0  0  0  0  0  0  0  0  0
   -2.0030  -16.3778   -0.8174 H   0  0  0  0  0  0  0  0  0  0  0  0
   -2.4409  -15.0384    3.0495 H   0  0  0  0  0  0  0  0  0  0  0  0
   -3.7593  -16.0305    2.3396 H   0  0  0  0  0  0  0  0  0  0  0  0
   -2.0720  -16.6467    2.3396 H   0  0  0  0  0  0  0  0  0  0  0  0
   -1.0339  -14.3219   -0.4702 H   0  0  0  0  0  0  0  0  0  0  0  0
   -0.3889  -16.6369    0.4927 H   0  0  0  0  0  0  0  0  0  0  0  0
    2.2438  -16.7542    4.3550 H   0  0  0  0  0  0  0  0  0  0  0  0
    2.9808  -17.5481    2.9221 H   0  0  0  0  0  0  0  0  0  0  0  0
    2.7035  -15.7733    2.9221 H   0  0  0  0  0  0  0  0  0  0  0  0
    1.9759  -16.4620    0.1115 H   0  0  0  0  0  0  0  0  0  0  0  0
    1.0077  -15.4466   -1.0816 H   0  0  0  0  0  0  0  0  0  0  0  0
    2.3841  -14.4725    1.3291 H   0  0  0  0  0  0  0  0  0  0  0  0
    3.9252  -16.2773   -1.2784 H   0  0  0  0  0  0  0  0  0  0  0  0
    2.8620  -15.2323   -2.2805 H   0  0  0  0  0  0  0  0  0  0  0  0
    4.6388  -14.9684   -2.2805 H   0  0  0  0  0  0  0  0  0  0  0  0
    4.4439  -14.1276    1.5112 H   0  0  0  0  0  0  0  0  0  0  0  0
    4.8351  -15.6706    0.6013 H   0  0  0  0  0  0  0  0  0  0  0  0
    6.8267  -14.2682    0.9812 H   0  0  0  0  0  0  0  0  0  0  0  0
    6.4179  -14.5053   -0.7752 H   0  0  0  0  0  0  0  0  0  0  0  0
    4.7380  -12.3530    1.3370 H   0  0  0  0  0  0  0  0  0  0  0  0
    7.4778  -11.2199   -1.1248 H   0  0  0  0  0  0  0  0  0  0  0  0
    7.7088  -11.6660    1.8890 H   0  0  0  0  0  0  0  0  0  0  0  0
    9.1314  -11.0568    0.9771 H   0  0  0  0  0  0  0  0  0  0  0  0
    7.5972  -10.1224    0.9771 H   0  0  0  0  0  0  0  0  0  0  0  0
    8.2158  -13.9469   -0.3277 H   0  0  0  0  0  0  0  0  0  0  0  0
    7.9329  -13.4721   -2.6517 H   0  0  0  0  0  0  0  0  0  0  0  0
    9.1321  -12.1457   -2.5956 H   0  0  0  0  0  0  0  0  0  0  0  0
    9.9767  -14.6894   -3.3198 H   0  0  0  0  0  0  0  0  0  0  0  0
   12.4011  -15.5997   -0.6532 H   0  0  0  0  0  0  0  0  0  0  0  0
   11.6741  -16.1580   -2.1981 H   0  0  0  0  0  0  0  0  0  0  0  0
   12.8517  -14.8015   -2.1981 H   0  0  0  0  0  0  0  0  0  0  0  0
  1  2  2  0
  2  3  1  0
  3  4  1  0
  4  5  1  0
  5  6  1  6
  5  7  1  0
  7  8  2  0
  8  9  1  0
  9 10  2  0
 10 11  1  0
 11 12  2  0
 11 13  1  0
 13 14  1  0
 14 15  1  0
 14 16  1  0
 14 17  1  0
 17 18  1  0
 18 19  1  0
 19 20  1  0
 20 21  1  0
 20 22  2  0
 18 23  1  0
 23 24  1  0
 24 25  1  0
 25 26  1  6
 25 27  1  0
 27 28  1  0
 28 29  1  0
 29 30  1  1
 29 31  1  0
 31 32  1  0
 31 33  1  0
 33 34  1  0
 34 35  1  0
 35 36  2  0
 36 37  1  0
 36 38  1  0
 38 39  2  0
 38 40  1  0
 29  2  1  0
 40 33  1  0
 25  3  1  0
 24  5  1  0
 17  8  1  0
  1 41  1  0
  1 42  1  0
  3 43  1  6
  4 44  1  0
  4 45  1  0
  6 46  1  0
  7 47  1  0
  9 48  1  0
 10 49  1  0
 15 50  1  0
 15 51  1  0
 15 52  1  0
 16 53  1  0
 16 54  1  0
 16 55  1  0
 17 56  1  6
 18 57  1  6
 21 58  1  0
 21 59  1  0
 21 60  1  0
 23 61  1  0
 23 62  1  0
 24 63  1  1
 26 64  1  0
 26 65  1  0
 26 66  1  0
 27 67  1  0
 27 68  1  0
 28 69  1  0
 28 70  1  0
 30 71  1  0
 31 72  1  6
 32 73  1  0
 32 74  1  0
 32 75  1  0
 33 76  1  1
 34 77  1  0
 34 78  1  0
 35 79  1  0
 37 80  1  0
 37 81  1  0
 37 82  1  0
M  END
>  <meeko>  (3) 
{"is_sidechain": [false], "free_energy": -5.645, "intermolecular_energy": -9.916, "internal_energy": 1.039}

$$$$
LIB_WUMNNWDKNWWLGB__M_PUB_ALL__e8__s20260927
     RDKit          3D

 82 86  0  0  0  0  0  0  0  0999 V2000
    9.8980  -11.4110    1.0560 C   0  0  0  0  0  0  0  0  0  0  0  0
    9.1920  -12.2360    0.2560 C   0  0  0  0  0  0  0  0  0  0  0  0
    7.6760  -12.2360    0.4110 C   0  0  2  0  0  0  0  0  0  0  0  0
    7.0670  -13.4110    1.1840 C   0  0  0  0  0  0  0  0  0  0  0  0
    5.5640  -13.1960    0.9530 C   0  0  2  0  0  0  0  0  0  0  0  0
    5.1450  -12.0660    1.7150 O   0  0  0  0  0  0  0  0  0  0  0  0
    4.7230  -14.3700    1.3520 C   0  0  0  0  0  0  0  0  0  0  0  0
    3.3820  -14.4770    1.2220 C   0  0  0  0  0  0  0  0  0  0  0  0
    2.7980  -15.7410    1.6230 C   0  0  0  0  0  0  0  0  0  0  0  0
    1.7390  -16.3620    1.0960 C   0  0  0  0  0  0  0  0  0  0  0  0
    0.8940  -15.8680    0.0200 C   0  0  0  0  0  0  0  0  0  0  0  0
    0.5950  -16.6610   -0.8680 O   0  0  0  0  0  0  0  0  0  0  0  0
    0.4570  -14.5990    0.0070 O   0  0  0  0  0  0  0  0  0  0  0  0
    0.9610  -13.4990    0.8230 C   0  0  0  0  0  0  0  0  0  0  0  0
    0.6440  -14.0140    2.2520 C   0  0  0  0  0  0  0  0  0  0  0  0
    0.1230  -12.2240    0.6240 C   0  0  0  0  0  0  0  0  0  0  0  0
    2.5150  -13.3480    0.6380 C   0  0  2  0  0  0  0  0  0  0  0  0
    2.9110  -13.0250   -0.8660 C   0  0  2  0  0  0  0  0  0  0  0  0
    3.0470  -14.2610   -1.6070 O   0  0  0  0  0  0  0  0  0  0  0  0
    2.7250  -14.2300   -2.9290 C   0  0  0  0  0  0  0  0  0  0  0  0
    1.4630  -13.4480   -3.1250 C   0  0  0  0  0  0  0  0  0  0  0  0
    3.3640  -14.7520   -3.8300 O   0  0  0  0  0  0  0  0  0  0  0  0
    4.2010  -12.1850   -0.9930 C   0  0  0  0  0  0  0  0  0  0  0  0
    5.4900  -12.8910   -0.5580 C   0  0  1  0  0  0  0  0  0  0  0  0
    6.8450  -12.1490   -0.9030 C   0  0  1  0  0  0  0  0  0  0  0  0
    6.6810  -10.6650   -1.2920 C   0  0  0  0  0  0  0  0  0  0  0  0
    7.5300  -12.8980   -2.0740 C   0  0  0  0  0  0  0  0  0  0  0  0
    9.0420  -12.6780   -2.1670 C   0  0  0  0  0  0  0  0  0  0  0  0
    9.7810  -13.0960   -0.8730 C   0  0  2  0  0  0  0  0  0  0  0  0
    9.4280  -14.4540   -0.5830 O   0  0  0  0  0  0  0  0  0  0  0  0
   11.3560  -13.0350   -1.0200 C   0  0  1  0  0  0  0  0  0  0  0  0
   12.0420  -13.8630    0.0930 C   0  0  0  0  0  0  0  0  0  0  0  0
   11.8680  -13.4990   -2.4150 C   0  0  1  0  0  0  0  0  0  0  0  0
   12.5760  -12.4070   -3.2210 C   0  0  0  0  0  0  0  0  0  0  0  0
   13.0930  -13.0130   -4.4870 C   0  0  0  0  0  0  0  0  0  0  0  0
   13.4150  -14.3150   -4.5600 C   0  0  0  0  0  0  0  0  0  0  0  0
   13.9400  -14.9650   -5.8010 C   0  0  0  0  0  0  0  0  0  0  0  0
   13.3310  -15.1780   -3.3500 C   0  0  0  0  0  0  0  0  0  0  0  0
   13.7920  -16.3110   -3.3300 O   0  0  0  0  0  0  0  0  0  0  0  0
   12.7420  -14.6350   -2.2500 O   0  0  0  0  0  0  0  0  0  0  0  0
   10.9948  -11.3768    0.9800 H   0  0  0  0  0  0  0  0  0  0  0  0
    9.3770  -10.7723    1.7845 H   0  0  0  0  0  0  0  0  0  0  0  0
    7.5924  -11.3041    0.9895 H   0  0  0  0  0  0  0  0  0  0  0  0
    7.4009  -14.3757    0.7743 H   0  0  0  0  0  0  0  0  0  0  0  0
    7.3540  -13.4416    2.2455 H   0  0  0  0  0  0  0  0  0  0  0  0
    4.3470  -11.7110    1.2850 H   0  0  0  0  0  0  0  0  0  0  0  0
    5.2486  -15.2292    1.7942 H   0  0  0  0  0  0  0  0  0  0  0  0
    3.2869  -16.2524    2.4653 H   0  0  0  0  0  0  0  0  0  0  0  0
    1.4804  -17.3445    1.5177 H   0  0  0  0  0  0  0  0  0  0  0  0
    1.0697  -13.3223    2.9939 H   0  0  0  0  0  0  0  0  0  0  0  0
   -0.4461  -14.0716    2.3876 H   0  0  0  0  0  0  0  0  0  0  0  0
    1.0836  -15.0132    2.3876 H   0  0  0  0  0  0  0  0  0  0  0  0
   -0.1504  -11.8081    1.6050 H   0  0  0  0  0  0  0  0  0  0  0  0
    0.7107  -11.4829    0.0624 H   0  0  0  0  0  0  0  0  0  0  0  0
   -0.7904  -12.4695    0.0624 H   0  0  0  0  0  0  0  0  0  0  0  0
    2.7593  -12.4766    1.2634 H   0  0  0  0  0  0  0  0  0  0  0  0
    2.1000  -12.4125   -1.2868 H   0  0  0  0  0  0  0  0  0  0  0  0
    1.0386  -13.1850   -2.1448 H   0  0  0  0  0  0  0  0  0  0  0  0
    1.6848  -12.5288   -3.6871 H   0  0  0  0  0  0  0  0  0  0  0  0
    0.7386  -14.0557   -3.6871 H   0  0  0  0  0  0  0  0  0  0  0  0
    4.3133  -11.8927   -2.0475 H   0  0  0  0  0  0  0  0  0  0  0  0
    4.0764  -11.3325   -0.3091 H   0  0  0  0  0  0  0  0  0  0  0  0
    5.4109  -13.8099   -1.1574 H   0  0  0  0  0  0  0  0  0  0  0  0
    6.6133  -10.0524   -0.3809 H   0  0  0  0  0  0  0  0  0  0  0  0
    7.5491  -10.3436   -1.8862 H   0  0  0  0  0  0  0  0  0  0  0  0
    5.7637  -10.5409   -1.8862 H   0  0  0  0  0  0  0  0  0  0  0  0
    7.3462  -13.9752   -1.9478 H   0  0  0  0  0  0  0  0  0  0  0  0
    7.0965  -12.4947   -3.0010 H   0  0  0  0  0  0  0  0  0  0  0  0
    9.4343  -13.2724   -3.0053 H   0  0  0  0  0  0  0  0  0  0  0  0
    9.2151  -11.6024   -2.3189 H   0  0  0  0  0  0  0  0  0  0  0  0
    9.4220  -14.9380   -1.4320 H   0  0  0  0  0  0  0  0  0  0  0  0
   11.6272  -11.9739   -0.9177 H   0  0  0  0  0  0  0  0  0  0  0  0
   11.7287  -13.4848    1.0773 H   0  0  0  0  0  0  0  0  0  0  0  0
   11.7508  -14.9194   -0.0036 H   0  0  0  0  0  0  0  0  0  0  0  0
   13.1341  -13.7734   -0.0036 H   0  0  0  0  0  0  0  0  0  0  0  0
   10.9758  -13.7693   -2.9989 H   0  0  0  0  0  0  0  0  0  0  0  0
   11.8658  -11.6011   -3.4581 H   0  0  0  0  0  0  0  0  0  0  0  0
   13.4077  -11.9861   -2.6369 H   0  0  0  0  0  0  0  0  0  0  0  0
   13.2121  -12.3786   -5.3777 H   0  0  0  0  0  0  0  0  0  0  0  0
   14.6092  -15.7936   -5.5259 H   0  0  0  0  0  0  0  0  0  0  0  0
   13.0997  -15.3540   -6.3948 H   0  0  0  0  0  0  0  0  0  0  0  0
   14.4971  -14.2253   -6.3948 H   0  0  0  0  0  0  0  0  0  0  0  0
  1  2  2  0
  2  3  1  0
  3  4  1  0
  4  5  1  0
  5  6  1  1
  5  7  1  0
  7  8  2  0
  8  9  1  0
  9 10  2  0
 10 11  1  0
 11 12  2  0
 11 13  1  0
 13 14  1  0
 14 15  1  0
 14 16  1  0
 14 17  1  0
 17 18  1  0
 18 19  1  0
 19 20  1  0
 20 21  1  0
 20 22  2  0
 18 23  1  0
 23 24  1  0
 24 25  1  0
 25 26  1  6
 25 27  1  0
 27 28  1  0
 28 29  1  0
 29 30  1  1
 29 31  1  0
 31 32  1  0
 31 33  1  0
 33 34  1  0
 34 35  1  0
 35 36  2  0
 36 37  1  0
 36 38  1  0
 38 39  2  0
 38 40  1  0
 29  2  1  0
 40 33  1  0
 25  3  1  0
 24  5  1  0
 17  8  1  0
  1 41  1  0
  1 42  1  0
  3 43  1  1
  4 44  1  0
  4 45  1  0
  6 46  1  0
  7 47  1  0
  9 48  1  0
 10 49  1  0
 15 50  1  0
 15 51  1  0
 15 52  1  0
 16 53  1  0
 16 54  1  0
 16 55  1  0
 17 56  1  1
 18 57  1  6
 21 58  1  0
 21 59  1  0
 21 60  1  0
 23 61  1  0
 23 62  1  0
 24 63  1  6
 26 64  1  0
 26 65  1  0
 26 66  1  0
 27 67  1  0
 27 68  1  0
 28 69  1  0
 28 70  1  0
 30 71  1  0
 31 72  1  1
 32 73  1  0
 32 74  1  0
 32 75  1  0
 33 76  1  6
 34 77  1  0
 34 78  1  0
 35 79  1  0
 37 80  1  0
 37 81  1  0
 37 82  1  0
M  END
>  <meeko>  (4) 
{"is_sidechain": [false], "free_energy": -5.585, "intermolecular_energy": -10.78, "internal_energy": 2.007}

$$$$
LIB_WUMNNWDKNWWLGB__M_PUB_ALL__e8__s20260927
     RDKit          3D

 82 86  0  0  0  0  0  0  0  0999 V2000
    7.4030  -10.8540   -1.4450 C   0  0  0  0  0  0  0  0  0  0  0  0
    7.4140  -12.0280   -0.7820 C   0  0  0  0  0  0  0  0  0  0  0  0
    6.0790  -12.7420   -0.5950 C   0  0  2  0  0  0  0  0  0  0  0  0
    5.4320  -12.6300    0.7890 C   0  0  0  0  0  0  0  0  0  0  0  0
    4.2610  -13.6170    0.6700 C   0  0  2  0  0  0  0  0  0  0  0  0
    3.2740  -13.0490   -0.1870 O   0  0  0  0  0  0  0  0  0  0  0  0
    3.6150  -13.9410    1.9830 C   0  0  0  0  0  0  0  0  0  0  0  0
    2.5800  -14.7870    2.1800 C   0  0  0  0  0  0  0  0  0  0  0  0
    2.1680  -14.9850    3.5550 C   0  0  0  0  0  0  0  0  0  0  0  0
    0.9250  -15.0500    4.0400 C   0  0  0  0  0  0  0  0  0  0  0  0
   -0.3150  -14.9200    3.3130 C   0  0  0  0  0  0  0  0  0  0  0  0
   -1.3000  -14.4720    3.8920 O   0  0  0  0  0  0  0  0  0  0  0  0
   -0.3700  -15.3110    2.0290 O   0  0  0  0  0  0  0  0  0  0  0  0
    0.5340  -16.2470    1.3680 C   0  0  0  0  0  0  0  0  0  0  0  0
   -0.2480  -16.5510    0.0630 C   0  0  0  0  0  0  0  0  0  0  0  0
    0.6270  -17.5750    2.1390 C   0  0  0  0  0  0  0  0  0  0  0  0
    1.8970  -15.5410    1.0270 C   0  0  2  0  0  0  0  0  0  0  0  0
    2.9380  -16.5090    0.3030 C   0  0  2  0  0  0  0  0  0  0  0  0
    3.6710  -17.2470    1.3110 O   0  0  0  0  0  0  0  0  0  0  0  0
    4.5190  -18.2180    0.8740 C   0  0  0  0  0  0  0  0  0  0  0  0
    3.7350  -19.3380    0.2630 C   0  0  0  0  0  0  0  0  0  0  0  0
    5.7380  -18.1890    0.9580 O   0  0  0  0  0  0  0  0  0  0  0  0
    3.9210  -15.8050   -0.6590 C   0  0  0  0  0  0  0  0  0  0  0  0
    4.9160  -14.8460    0.0050 C   0  0  1  0  0  0  0  0  0  0  0  0
    6.0540  -14.2620   -0.9280 C   0  0  1  0  0  0  0  0  0  0  0  0
    5.7960  -14.4390   -2.4380 C   0  0  0  0  0  0  0  0  0  0  0  0
    7.3900  -14.9590   -0.5660 C   0  0  0  0  0  0  0  0  0  0  0  0
    8.6410  -14.1630   -0.9480 C   0  0  0  0  0  0  0  0  0  0  0  0
    8.6740  -12.7610   -0.2930 C   0  0  2  0  0  0  0  0  0  0  0  0
    8.5270  -12.9330    1.1210 O   0  0  0  0  0  0  0  0  0  0  0  0
   10.0390  -12.0000   -0.5410 C   0  0  1  0  0  0  0  0  0  0  0  0
   10.9000  -11.9860    0.7450 C   0  0  0  0  0  0  0  0  0  0  0  0
   10.8670  -12.5790   -1.7250 C   0  0  1  0  0  0  0  0  0  0  0  0
   10.1270  -12.5930   -3.0650 C   0  0  0  0  0  0  0  0  0  0  0  0
   11.0660  -13.0840   -4.1210 C   0  0  0  0  0  0  0  0  0  0  0  0
   12.3940  -12.9150   -4.0090 C   0  0  0  0  0  0  0  0  0  0  0  0
   13.3730  -13.3830   -5.0390 C   0  0  0  0  0  0  0  0  0  0  0  0
   12.9610  -12.1660   -2.8540 C   0  0  0  0  0  0  0  0  0  0  0  0
   14.1380  -11.8300   -2.8160 O   0  0  0  0  0  0  0  0  0  0  0  0
   12.1010  -11.8430   -1.8510 O   0  0  0  0  0  0  0  0  0  0  0  0
    8.3419  -10.3033   -1.6039 H   0  0  0  0  0  0  0  0  0  0  0  0
    6.4552  -10.4469   -1.8270 H   0  0  0  0  0  0  0  0  0  0  0  0
    5.5056  -12.1701   -1.3394 H   0  0  0  0  0  0  0  0  0  0  0  0
    6.1307  -12.9316    1.5832 H   0  0  0  0  0  0  0  0  0  0  0  0
    5.1270  -11.6075    1.0564 H   0  0  0  0  0  0  0  0  0  0  0  0
    3.0430  -13.7270   -0.8460 H   0  0  0  0  0  0  0  0  0  0  0  0
    4.0235  -13.4411    2.8736 H   0  0  0  0  0  0  0  0  0  0  0  0
    2.9788  -15.0954    4.2901 H   0  0  0  0  0  0  0  0  0  0  0  0
    0.8359  -15.2233    5.1226 H   0  0  0  0  0  0  0  0  0  0  0  0
   -1.2459  -16.9389    0.3154 H   0  0  0  0  0  0  0  0  0  0  0  0
   -0.3517  -15.6277   -0.5259 H   0  0  0  0  0  0  0  0  0  0  0  0
    0.2991  -17.3019   -0.5259 H   0  0  0  0  0  0  0  0  0  0  0  0
    0.6129  -17.3730    3.2202 H   0  0  0  0  0  0  0  0  0  0  0  0
   -0.2286  -18.2135    1.8740 H   0  0  0  0  0  0  0  0  0  0  0  0
    1.5633  -18.0880    1.8740 H   0  0  0  0  0  0  0  0  0  0  0  0
    1.5798  -14.7608    0.3194 H   0  0  0  0  0  0  0  0  0  0  0  0
    2.3444  -17.1793   -0.3360 H   0  0  0  0  0  0  0  0  0  0  0  0
    3.3004  -19.9589    1.0602 H   0  0  0  0  0  0  0  0  0  0  0  0
    2.9286  -18.9239   -0.3600 H   0  0  0  0  0  0  0  0  0  0  0  0
    4.4002  -19.9540   -0.3600 H   0  0  0  0  0  0  0  0  0  0  0  0
    4.4966  -16.5813   -1.1844 H   0  0  0  0  0  0  0  0  0  0  0  0
    3.3024  -15.1866   -1.3261 H   0  0  0  0  0  0  0  0  0  0  0  0
    5.3614  -15.5239    0.7480 H   0  0  0  0  0  0  0  0  0  0  0  0
    4.8973  -15.0556   -2.5866 H   0  0  0  0  0  0  0  0  0  0  0  0
    5.6453  -13.4532   -2.9023 H   0  0  0  0  0  0  0  0  0  0  0  0
    6.6614  -14.9345   -2.9023 H   0  0  0  0  0  0  0  0  0  0  0  0
    7.4073  -15.1268    0.5210 H   0  0  0  0  0  0  0  0  0  0  0  0
    7.4236  -15.8942   -1.1441 H   0  0  0  0  0  0  0  0  0  0  0  0
    9.5294  -14.7249   -0.6238 H   0  0  0  0  0  0  0  0  0  0  0  0
    8.6276  -14.0222   -2.0389 H   0  0  0  0  0  0  0  0  0  0  0  0
    8.2810  -12.0640    1.4940 H   0  0  0  0  0  0  0  0  0  0  0  0
    9.7640  -10.9715   -0.8176 H   0  0  0  0  0  0  0  0  0  0  0  0
   10.2424  -11.9967    1.6267 H   0  0  0  0  0  0  0  0  0  0  0  0
   11.5494  -12.8737    0.7612 H   0  0  0  0  0  0  0  0  0  0  0  0
   11.5202  -11.0777    0.7612 H   0  0  0  0  0  0  0  0  0  0  0  0
   11.0601  -13.6340   -1.4809 H   0  0  0  0  0  0  0  0  0  0  0  0
    9.2570  -13.2632   -3.0014 H   0  0  0  0  0  0  0  0  0  0  0  0
    9.7775  -11.5799   -3.3130 H   0  0  0  0  0  0  0  0  0  0  0  0
   10.6607  -13.5939   -5.0074 H   0  0  0  0  0  0  0  0  0  0  0  0
   14.2571  -13.8056   -4.5392 H   0  0  0  0  0  0  0  0  0  0  0  0
   12.9035  -14.1540   -5.6675 H   0  0  0  0  0  0  0  0  0  0  0  0
   13.6782  -12.5334   -5.6675 H   0  0  0  0  0  0  0  0  0  0  0  0
  1  2  2  0
  2  3  1  0
  3  4  1  0
  4  5  1  0
  5  6  1  6
  5  7  1  0
  7  8  2  0
  8  9  1  0
  9 10  2  0
 10 11  1  0
 11 12  2  0
 11 13  1  0
 13 14  1  0
 14 15  1  0
 14 16  1  0
 14 17  1  0
 17 18  1  0
 18 19  1  0
 19 20  1  0
 20 21  1  0
 20 22  2  0
 18 23  1  0
 23 24  1  0
 24 25  1  0
 25 26  1  6
 25 27  1  0
 27 28  1  0
 28 29  1  0
 29 30  1  1
 29 31  1  0
 31 32  1  0
 31 33  1  0
 33 34  1  0
 34 35  1  0
 35 36  2  0
 36 37  1  0
 36 38  1  0
 38 39  2  0
 38 40  1  0
 29  2  1  0
 40 33  1  0
 25  3  1  0
 24  5  1  0
 17  8  1  0
  1 41  1  0
  1 42  1  0
  3 43  1  6
  4 44  1  0
  4 45  1  0
  6 46  1  0
  7 47  1  0
  9 48  1  0
 10 49  1  0
 15 50  1  0
 15 51  1  0
 15 52  1  0
 16 53  1  0
 16 54  1  0
 16 55  1  0
 17 56  1  6
 18 57  1  6
 21 58  1  0
 21 59  1  0
 21 60  1  0
 23 61  1  0
 23 62  1  0
 24 63  1  1
 26 64  1  0
 26 65  1  0
 26 66  1  0
 27 67  1  0
 27 68  1  0
 28 69  1  0
 28 70  1  0
 30 71  1  0
 31 72  1  6
 32 73  1  0
 32 74  1  0
 32 75  1  0
 33 76  1  1
 34 77  1  0
 34 78  1  0
 35 79  1  0
 37 80  1  0
 37 81  1  0
 37 82  1  0
M  END
>  <meeko>  (5) 
{"is_sidechain": [false], "free_energy": -5.362, "intermolecular_energy": -9.991, "internal_energy": 1.612}

$$$$
LIB_WUMNNWDKNWWLGB__M_PUB_ALL__e8__s20260927
     RDKit          3D

 82 86  0  0  0  0  0  0  0  0999 V2000
    3.0050  -14.3500   -3.8720 C   0  0  0  0  0  0  0  0  0  0  0  0
    3.9490  -14.3600   -2.9090 C   0  0  0  0  0  0  0  0  0  0  0  0
    5.4060  -14.4260   -3.3540 C   0  0  2  0  0  0  0  0  0  0  0  0
    6.0970  -15.7880   -3.2350 C   0  0  0  0  0  0  0  0  0  0  0  0
    7.5560  -15.4310   -3.5520 C   0  0  2  0  0  0  0  0  0  0  0  0
    7.6610  -15.1450   -4.9450 O   0  0  0  0  0  0  0  0  0  0  0  0
    8.5260  -16.5250   -3.2230 C   0  0  0  0  0  0  0  0  0  0  0  0
    9.8700  -16.4720   -3.3580 C   0  0  0  0  0  0  0  0  0  0  0  0
   10.6040  -17.6390   -2.9110 C   0  0  0  0  0  0  0  0  0  0  0  0
   11.6390  -18.2370   -3.5080 C   0  0  0  0  0  0  0  0  0  0  0  0
   12.2880  -17.8750   -4.7810 C   0  0  0  0  0  0  0  0  0  0  0  0
   12.8410  -18.7370   -5.4580 O   0  0  0  0  0  0  0  0  0  0  0  0
   12.2720  -16.5870   -5.1590 O   0  0  0  0  0  0  0  0  0  0  0  0
   12.1120  -15.4290   -4.2850 C   0  0  0  0  0  0  0  0  0  0  0  0
   12.5780  -14.2800   -5.2180 C   0  0  0  0  0  0  0  0  0  0  0  0
   13.1090  -15.4690   -3.1130 C   0  0  0  0  0  0  0  0  0  0  0  0
   10.5990  -15.2340   -3.9060 C   0  0  2  0  0  0  0  0  0  0  0  0
   10.3660  -13.9640   -2.9880 C   0  0  2  0  0  0  0  0  0  0  0  0
   10.5630  -14.3190   -1.5980 O   0  0  0  0  0  0  0  0  0  0  0  0
   11.2490  -13.4350   -0.8240 C   0  0  0  0  0  0  0  0  0  0  0  0
   11.8530  -12.3690   -1.6850 C   0  0  0  0  0  0  0  0  0  0  0  0
   11.3590  -13.4880    0.3920 O   0  0  0  0  0  0  0  0  0  0  0  0
    8.9790  -13.3090   -3.1770 C   0  0  0  0  0  0  0  0  0  0  0  0
    7.7850  -14.1540   -2.7170 C   0  0  1  0  0  0  0  0  0  0  0  0
    6.3830  -13.4210   -2.6760 C   0  0  1  0  0  0  0  0  0  0  0  0
    6.3370  -12.0850   -3.4460 C   0  0  0  0  0  0  0  0  0  0  0  0
    6.0110  -13.1560   -1.1960 C   0  0  0  0  0  0  0  0  0  0  0  0
    4.5110  -12.9760   -0.9440 C   0  0  0  0  0  0  0  0  0  0  0  0
    3.6830  -14.2010   -1.4040 C   0  0  2  0  0  0  0  0  0  0  0  0
    4.2250  -15.3630   -0.7650 O   0  0  0  0  0  0  0  0  0  0  0  0
    2.1590  -14.1000   -0.9920 C   0  0  1  0  0  0  0  0  0  0  0  0
    1.7960  -15.1930    0.0420 C   0  0  0  0  0  0  0  0  0  0  0  0
    1.7540  -12.7000   -0.4440 C   0  0  1  0  0  0  0  0  0  0  0  0
    1.4410  -11.6650   -1.5280 C   0  0  0  0  0  0  0  0  0  0  0  0
    0.9820  -10.4060   -0.8630 C   0  0  0  0  0  0  0  0  0  0  0  0
    0.3790  -10.4290    0.3370 C   0  0  0  0  0  0  0  0  0  0  0  0
   -0.1030   -9.1990    1.0400 C   0  0  0  0  0  0  0  0  0  0  0  0
    0.0880  -11.7260    1.0070 C   0  0  0  0  0  0  0  0  0  0  0  0
   -0.6220  -11.7960    2.0010 O   0  0  0  0  0  0  0  0  0  0  0  0
    0.6260  -12.8410    0.4440 O   0  0  0  0  0  0  0  0  0  0  0  0
    1.9406  -14.3031   -3.5983 H   0  0  0  0  0  0  0  0  0  0  0  0
    3.2994  -14.3887   -4.9312 H   0  0  0  0  0  0  0  0  0  0  0  0
    5.2446  -14.1632   -4.4099 H   0  0  0  0  0  0  0  0  0  0  0  0
    5.9973  -16.2000   -2.2200 H   0  0  0  0  0  0  0  0  0  0  0  0
    5.6747  -16.5601   -3.8949 H   0  0  0  0  0  0  0  0  0  0  0  0
    8.4550  -15.6020   -5.2720 H   0  0  0  0  0  0  0  0  0  0  0  0
    8.1030  -17.4628   -2.8336 H   0  0  0  0  0  0  0  0  0  0  0  0
   10.2679  -18.0873   -1.9644 H   0  0  0  0  0  0  0  0  0  0  0  0
   12.0592  -19.1082   -2.9841 H   0  0  0  0  0  0  0  0  0  0  0  0
   12.9225  -13.4306   -4.6098 H   0  0  0  0  0  0  0  0  0  0  0  0
   13.4032  -14.6350   -5.8528 H   0  0  0  0  0  0  0  0  0  0  0  0
   11.7386  -13.9599   -5.8528 H   0  0  0  0  0  0  0  0  0  0  0  0
   12.5575  -15.4469   -2.1615 H   0  0  0  0  0  0  0  0  0  0  0  0
   13.7050  -16.3918   -3.1700 H   0  0  0  0  0  0  0  0  0  0  0  0
   13.7770  -14.5969   -3.1700 H   0  0  0  0  0  0  0  0  0  0  0  0
   10.1203  -15.0552   -4.8801 H   0  0  0  0  0  0  0  0  0  0  0  0
   11.1068  -13.2128   -3.2993 H   0  0  0  0  0  0  0  0  0  0  0  0
   12.2948  -11.5892   -1.0473 H   0  0  0  0  0  0  0  0  0  0  0  0
   12.6353  -12.8101   -2.3201 H   0  0  0  0  0  0  0  0  0  0  0  0
   11.0725  -11.9246   -2.3201 H   0  0  0  0  0  0  0  0  0  0  0  0
    8.9678  -12.3676   -2.6082 H   0  0  0  0  0  0  0  0  0  0  0  0
    8.8536  -13.1716   -4.2612 H   0  0  0  0  0  0  0  0  0  0  0  0
    8.1065  -14.3886   -1.6915 H   0  0  0  0  0  0  0  0  0  0  0  0
    6.3083  -11.2501   -2.7303 H   0  0  0  0  0  0  0  0  0  0  0  0
    7.2326  -11.9952   -4.0783 H   0  0  0  0  0  0  0  0  0  0  0  0
    5.4374  -12.0570   -4.0783 H   0  0  0  0  0  0  0  0  0  0  0  0
    6.3611  -14.0083   -0.5952 H   0  0  0  0  0  0  0  0  0  0  0  0
    6.4928  -12.2077   -0.9158 H   0  0  0  0  0  0  0  0  0  0  0  0
    4.3496  -12.8252    0.1336 H   0  0  0  0  0  0  0  0  0  0  0  0
    4.1752  -12.1063   -1.5279 H   0  0  0  0  0  0  0  0  0  0  0  0
    3.6460  -16.1150   -0.9940 H   0  0  0  0  0  0  0  0  0  0  0  0
    1.5873  -14.2575   -1.9185 H   0  0  0  0  0  0  0  0  0  0  0  0
    1.9284  -14.7944    1.0587 H   0  0  0  0  0  0  0  0  0  0  0  0
    0.7485  -15.4976   -0.0989 H   0  0  0  0  0  0  0  0  0  0  0  0
    2.4532  -16.0638   -0.0989 H   0  0  0  0  0  0  0  0  0  0  0  0
    2.6320  -12.3120    0.0932 H   0  0  0  0  0  0  0  0  0  0  0  0
    2.3454  -11.4632   -2.1207 H   0  0  0  0  0  0  0  0  0  0  0  0
    0.6557  -12.0458   -2.1975 H   0  0  0  0  0  0  0  0  0  0  0  0
    1.1416   -9.4415   -1.3672 H   0  0  0  0  0  0  0  0  0  0  0  0
   -0.0433   -9.3512    2.1278 H   0  0  0  0  0  0  0  0  0  0  0  0
    0.5263   -8.3431    0.7545 H   0  0  0  0  0  0  0  0  0  0  0  0
   -1.1462   -8.9985    0.7545 H   0  0  0  0  0  0  0  0  0  0  0  0
  1  2  2  0
  2  3  1  0
  3  4  1  0
  4  5  1  0
  5  6  1  6
  5  7  1  0
  7  8  2  0
  8  9  1  0
  9 10  2  0
 10 11  1  0
 11 12  2  0
 11 13  1  0
 13 14  1  0
 14 15  1  0
 14 16  1  0
 14 17  1  0
 17 18  1  0
 18 19  1  0
 19 20  1  0
 20 21  1  0
 20 22  2  0
 18 23  1  0
 23 24  1  0
 24 25  1  0
 25 26  1  6
 25 27  1  0
 27 28  1  0
 28 29  1  0
 29 30  1  1
 29 31  1  0
 31 32  1  0
 31 33  1  0
 33 34  1  0
 34 35  1  0
 35 36  2  0
 36 37  1  0
 36 38  1  0
 38 39  2  0
 38 40  1  0
 29  2  1  0
 40 33  1  0
 25  3  1  0
 24  5  1  0
 17  8  1  0
  1 41  1  0
  1 42  1  0
  3 43  1  6
  4 44  1  0
  4 45  1  0
  6 46  1  0
  7 47  1  0
  9 48  1  0
 10 49  1  0
 15 50  1  0
 15 51  1  0
 15 52  1  0
 16 53  1  0
 16 54  1  0
 16 55  1  0
 17 56  1  6
 18 57  1  6
 21 58  1  0
 21 59  1  0
 21 60  1  0
 23 61  1  0
 23 62  1  0
 24 63  1  1
 26 64  1  0
 26 65  1  0
 26 66  1  0
 27 67  1  0
 27 68  1  0
 28 69  1  0
 28 70  1  0
 30 71  1  0
 31 72  1  6
 32 73  1  0
 32 74  1  0
 32 75  1  0
 33 76  1  1
 34 77  1  0
 34 78  1  0
 35 79  1  0
 37 80  1  0
 37 81  1  0
 37 82  1  0
M  END
>  <meeko>  (6) 
{"is_sidechain": [false], "free_energy": -5.279, "intermolecular_energy": -9.573, "internal_energy": 1.339}

$$$$
LIB_WUMNNWDKNWWLGB__M_PUB_ALL__e8__s20260927
     RDKit          3D

 82 86  0  0  0  0  0  0  0  0999 V2000
    3.5590  -17.8230   -1.3730 C   0  0  0  0  0  0  0  0  0  0  0  0
    4.4120  -17.2290   -0.5120 C   0  0  0  0  0  0  0  0  0  0  0  0
    5.5810  -16.4510   -1.1060 C   0  0  2  0  0  0  0  0  0  0  0  0
    6.9480  -17.1420   -1.0760 C   0  0  0  0  0  0  0  0  0  0  0  0
    7.8820  -16.0150   -1.5380 C   0  0  2  0  0  0  0  0  0  0  0  0
    7.6710  -15.7920   -2.9310 O   0  0  0  0  0  0  0  0  0  0  0  0
    9.3350  -16.3150   -1.3250 C   0  0  0  0  0  0  0  0  0  0  0  0
   10.3720  -15.4960   -1.6070 C   0  0  0  0  0  0  0  0  0  0  0  0
   11.6890  -15.9860   -1.2520 C   0  0  0  0  0  0  0  0  0  0  0  0
   12.8140  -15.9120   -1.9670 C   0  0  0  0  0  0  0  0  0  0  0  0
   12.9650  -15.3210   -3.2990 C   0  0  0  0  0  0  0  0  0  0  0  0
   13.7960  -15.8010   -4.0640 O   0  0  0  0  0  0  0  0  0  0  0  0
   12.2190  -14.2600   -3.6460 O   0  0  0  0  0  0  0  0  0  0  0  0
   11.4820  -13.3840   -2.7400 C   0  0  0  0  0  0  0  0  0  0  0  0
   11.1050  -12.2170   -3.6900 C   0  0  0  0  0  0  0  0  0  0  0  0
   12.4050  -12.7880   -1.6630 C   0  0  0  0  0  0  0  0  0  0  0  0
   10.1810  -14.1010   -2.2250 C   0  0  2  0  0  0  0  0  0  0  0  0
    9.3320  -13.1650   -1.2720 C   0  0  2  0  0  0  0  0  0  0  0  0
    9.8400  -13.2310    0.0820 O   0  0  0  0  0  0  0  0  0  0  0  0
    9.5210  -12.2030    0.9140 C   0  0  0  0  0  0  0  0  0  0  0  0
   10.7650  -11.4690    1.3130 C   0  0  0  0  0  0  0  0  0  0  0  0
    8.3940  -11.9070    1.2840 O   0  0  0  0  0  0  0  0  0  0  0  0
    7.8130  -13.4460   -1.2840 C   0  0  0  0  0  0  0  0  0  0  0  0
    7.3920  -14.8050   -0.7140 C   0  0  1  0  0  0  0  0  0  0  0  0
    5.8370  -15.0320   -0.5200 C   0  0  1  0  0  0  0  0  0  0  0  0
    4.9450  -14.0170   -1.2640 C   0  0  0  0  0  0  0  0  0  0  0  0
    5.5170  -14.9610    0.9940 C   0  0  0  0  0  0  0  0  0  0  0  0
    4.2280  -15.6820    1.4010 C   0  0  0  0  0  0  0  0  0  0  0  0
    4.2410  -17.1810    1.0140 C   0  0  2  0  0  0  0  0  0  0  0  0
    5.4180  -17.7710    1.5790 O   0  0  0  0  0  0  0  0  0  0  0  0
    2.9930  -17.9710    1.5820 C   0  0  1  0  0  0  0  0  0  0  0  0
    3.4310  -18.9700    2.6800 C   0  0  0  0  0  0  0  0  0  0  0  0
    1.8680  -17.0450    2.1290 C   0  0  1  0  0  0  0  0  0  0  0  0
    0.7310  -16.7820    1.1380 C   0  0  0  0  0  0  0  0  0  0  0  0
   -0.3150  -15.9610    1.8240 C   0  0  0  0  0  0  0  0  0  0  0  0
   -0.4900  -16.0210    3.1550 C   0  0  0  0  0  0  0  0  0  0  0  0
   -1.5250  -15.2250    3.8850 C   0  0  0  0  0  0  0  0  0  0  0  0
    0.3140  -16.9670    3.9760 C   0  0  0  0  0  0  0  0  0  0  0  0
    0.0540  -17.1850    5.1520 O   0  0  0  0  0  0  0  0  0  0  0  0
    1.3390  -17.6050    3.3490 O   0  0  0  0  0  0  0  0  0  0  0  0
    2.7009  -18.3951   -0.9904 H   0  0  0  0  0  0  0  0  0  0  0  0
    3.7219  -17.7350   -2.4573 H   0  0  0  0  0  0  0  0  0  0  0  0
    5.2007  -16.3860   -2.1361 H   0  0  0  0  0  0  0  0  0  0  0  0
    7.2024  -17.4819   -0.0612 H   0  0  0  0  0  0  0  0  0  0  0  0
    7.0022  -18.0476   -1.6981 H   0  0  0  0  0  0  0  0  0  0  0  0
    7.0740  -16.4930   -3.2460 H   0  0  0  0  0  0  0  0  0  0  0  0
    9.5812  -17.2981   -0.8973 H   0  0  0  0  0  0  0  0  0  0  0  0
   11.7718  -16.4798   -0.2726 H   0  0  0  0  0  0  0  0  0  0  0  0
   13.7192  -16.3379   -1.5097 H   0  0  0  0  0  0  0  0  0  0  0  0
   10.8207  -11.3368   -3.0947 H   0  0  0  0  0  0  0  0  0  0  0  0
   11.9682  -11.9672   -4.3245 H   0  0  0  0  0  0  0  0  0  0  0  0
   10.2589  -12.5194   -4.3245 H   0  0  0  0  0  0  0  0  0  0  0  0
   12.0151  -13.0398   -0.6657 H   0  0  0  0  0  0  0  0  0  0  0  0
   13.4171  -13.2036   -1.7766 H   0  0  0  0  0  0  0  0  0  0  0  0
   12.4427  -11.6945   -1.7766 H   0  0  0  0  0  0  0  0  0  0  0  0
    9.6143  -14.2923   -3.1481 H   0  0  0  0  0  0  0  0  0  0  0  0
    9.4511  -12.1488   -1.6758 H   0  0  0  0  0  0  0  0  0  0  0  0
   10.8316  -11.4297    2.4103 H   0  0  0  0  0  0  0  0  0  0  0  0
   11.6447  -11.9928    0.9108 H   0  0  0  0  0  0  0  0  0  0  0  0
   10.7319  -10.4457    0.9108 H   0  0  0  0  0  0  0  0  0  0  0  0
    7.3180  -12.6617   -0.6925 H   0  0  0  0  0  0  0  0  0  0  0  0
    7.5146  -13.4555   -2.3427 H   0  0  0  0  0  0  0  0  0  0  0  0
    7.8818  -14.7542    0.2696 H   0  0  0  0  0  0  0  0  0  0  0  0
    4.4028  -13.4000   -0.5324 H   0  0  0  0  0  0  0  0  0  0  0  0
    5.5727  -13.3707   -1.8951 H   0  0  0  0  0  0  0  0  0  0  0  0
    4.2234  -14.5565   -1.8951 H   0  0  0  0  0  0  0  0  0  0  0  0
    6.3541  -15.4150    1.5446 H   0  0  0  0  0  0  0  0  0  0  0  0
    5.3726  -13.8976    1.2356 H   0  0  0  0  0  0  0  0  0  0  0  0
    4.1068  -15.6000    2.4912 H   0  0  0  0  0  0  0  0  0  0  0  0
    3.3942  -15.2051    0.8650 H   0  0  0  0  0  0  0  0  0  0  0  0
    5.1930  -18.6900    1.8200 H   0  0  0  0  0  0  0  0  0  0  0  0
    2.5682  -18.5175    0.7271 H   0  0  0  0  0  0  0  0  0  0  0  0
    3.2393  -18.5328    3.6710 H   0  0  0  0  0  0  0  0  0  0  0  0
    2.8599  -19.9042    2.5747 H   0  0  0  0  0  0  0  0  0  0  0  0
    4.5050  -19.1829    2.5747 H   0  0  0  0  0  0  0  0  0  0  0  0
    2.3343  -16.0660    2.3139 H   0  0  0  0  0  0  0  0  0  0  0  0
    1.1182  -16.2359    0.2652 H   0  0  0  0  0  0  0  0  0  0  0  0
    0.2995  -17.7348    0.7973 H   0  0  0  0  0  0  0  0  0  0  0  0
   -0.9541  -15.2944    1.2263 H   0  0  0  0  0  0  0  0  0  0  0  0
   -1.3775  -15.3384    4.9692 H   0  0  0  0  0  0  0  0  0  0  0  0
   -1.4317  -14.1637    3.6113 H   0  0  0  0  0  0  0  0  0  0  0  0
   -2.5268  -15.5876    3.6113 H   0  0  0  0  0  0  0  0  0  0  0  0
  1  2  2  0
  2  3  1  0
  3  4  1  0
  4  5  1  0
  5  6  1  6
  5  7  1  0
  7  8  2  0
  8  9  1  0
  9 10  2  0
 10 11  1  0
 11 12  2  0
 11 13  1  0
 13 14  1  0
 14 15  1  0
 14 16  1  0
 14 17  1  0
 17 18  1  0
 18 19  1  0
 19 20  1  0
 20 21  1  0
 20 22  2  0
 18 23  1  0
 23 24  1  0
 24 25  1  0
 25 26  1  6
 25 27  1  0
 27 28  1  0
 28 29  1  0
 29 30  1  1
 29 31  1  0
 31 32  1  0
 31 33  1  0
 33 34  1  0
 34 35  1  0
 35 36  2  0
 36 37  1  0
 36 38  1  0
 38 39  2  0
 38 40  1  0
 29  2  1  0
 40 33  1  0
 25  3  1  0
 24  5  1  0
 17  8  1  0
  1 41  1  0
  1 42  1  0
  3 43  1  6
  4 44  1  0
  4 45  1  0
  6 46  1  0
  7 47  1  0
  9 48  1  0
 10 49  1  0
 15 50  1  0
 15 51  1  0
 15 52  1  0
 16 53  1  0
 16 54  1  0
 16 55  1  0
 17 56  1  6
 18 57  1  6
 21 58  1  0
 21 59  1  0
 21 60  1  0
 23 61  1  0
 23 62  1  0
 24 63  1  1
 26 64  1  0
 26 65  1  0
 26 66  1  0
 27 67  1  0
 27 68  1  0
 28 69  1  0
 28 70  1  0
 30 71  1  0
 31 72  1  6
 32 73  1  0
 32 74  1  0
 32 75  1  0
 33 76  1  1
 34 77  1  0
 34 78  1  0
 35 79  1  0
 37 80  1  0
 37 81  1  0
 37 82  1  0
M  END
>  <meeko>  (7) 
{"is_sidechain": [false], "free_energy": -5.246, "intermolecular_energy": -9.641, "internal_energy": 1.465}

$$$$
LIB_WUMNNWDKNWWLGB__M_PUB_ALL__e8__s20260927
     RDKit          3D

 82 86  0  0  0  0  0  0  0  0999 V2000
    7.9180  -14.0950   -2.3100 C   0  0  0  0  0  0  0  0  0  0  0  0
    7.7910  -14.1780   -3.6500 C   0  0  0  0  0  0  0  0  0  0  0  0
    8.8900  -14.9050   -4.4170 C   0  0  2  0  0  0  0  0  0  0  0  0
    9.9080  -14.0270   -5.1500 C   0  0  0  0  0  0  0  0  0  0  0  0
   10.6980  -15.0660   -5.9580 C   0  0  2  0  0  0  0  0  0  0  0  0
   11.5150  -15.8140   -5.0600 O   0  0  0  0  0  0  0  0  0  0  0  0
   11.5830  -14.4640   -7.0070 C   0  0  0  0  0  0  0  0  0  0  0  0
   12.3520  -15.1380   -7.8910 C   0  0  0  0  0  0  0  0  0  0  0  0
   13.0740  -14.3330   -8.8550 C   0  0  0  0  0  0  0  0  0  0  0  0
   14.3380  -14.4760   -9.2630 C   0  0  0  0  0  0  0  0  0  0  0  0
   15.3080  -15.5020   -8.7980 C   0  0  0  0  0  0  0  0  0  0  0  0
   16.5000  -15.2170   -8.7420 O   0  0  0  0  0  0  0  0  0  0  0  0
   14.8590  -16.7220   -8.4600 O   0  0  0  0  0  0  0  0  0  0  0  0
   13.5640  -17.2970   -8.8100 C   0  0  0  0  0  0  0  0  0  0  0  0
   13.7820  -18.7850   -8.4290 C   0  0  0  0  0  0  0  0  0  0  0  0
   13.3300  -17.2670  -10.3310 C   0  0  0  0  0  0  0  0  0  0  0  0
   12.4300  -16.6740   -7.9170 C   0  0  2  0  0  0  0  0  0  0  0  0
   11.0300  -17.3290   -8.2230 C   0  0  2  0  0  0  0  0  0  0  0  0
   10.3960  -16.6960   -9.3600 O   0  0  0  0  0  0  0  0  0  0  0  0
    9.3300  -17.3360   -9.9120 C   0  0  0  0  0  0  0  0  0  0  0  0
    8.1430  -16.4230   -9.9290 C   0  0  0  0  0  0  0  0  0  0  0  0
    9.3290  -18.4820  -10.3370 O   0  0  0  0  0  0  0  0  0  0  0  0
   10.0670  -17.3360   -7.0140 C   0  0  0  0  0  0  0  0  0  0  0  0
    9.5860  -15.9570   -6.5500 C   0  0  1  0  0  0  0  0  0  0  0  0
    8.4230  -15.9460   -5.4760 C   0  0  1  0  0  0  0  0  0  0  0  0
    8.1880  -17.3000   -4.7750 C   0  0  0  0  0  0  0  0  0  0  0  0
    7.1120  -15.5140   -6.1770 C   0  0  0  0  0  0  0  0  0  0  0  0
    6.0550  -14.9280   -5.2370 C   0  0  0  0  0  0  0  0  0  0  0  0
    6.5750  -13.6950   -4.4580 C   0  0  2  0  0  0  0  0  0  0  0  0
    7.0660  -12.7470   -5.4130 O   0  0  0  0  0  0  0  0  0  0  0  0
    5.4430  -12.9800   -3.6160 C   0  0  1  0  0  0  0  0  0  0  0  0
    4.6990  -11.9310   -4.4780 C   0  0  0  0  0  0  0  0  0  0  0  0
    4.4180  -13.9680   -2.9860 C   0  0  1  0  0  0  0  0  0  0  0  0
    4.3940  -13.9590   -1.4550 C   0  0  0  0  0  0  0  0  0  0  0  0
    3.3090  -14.8790   -0.9930 C   0  0  0  0  0  0  0  0  0  0  0  0
    2.2260  -15.1200   -1.7510 C   0  0  0  0  0  0  0  0  0  0  0  0
    1.1130  -16.0270   -1.3310 C   0  0  0  0  0  0  0  0  0  0  0  0
    2.0460  -14.4160   -3.0490 C   0  0  0  0  0  0  0  0  0  0  0  0
    0.9940  -14.4640   -3.6720 O   0  0  0  0  0  0  0  0  0  0  0  0
    3.1010  -13.6860   -3.5020 O   0  0  0  0  0  0  0  0  0  0  0  0
    7.1492  -13.5797   -1.7155 H   0  0  0  0  0  0  0  0  0  0  0  0
    8.7904  -14.5426   -1.8114 H   0  0  0  0  0  0  0  0  0  0  0  0
    9.3572  -15.4057   -3.5561 H   0  0  0  0  0  0  0  0  0  0  0  0
    9.4093  -13.3018   -5.8099 H   0  0  0  0  0  0  0  0  0  0  0  0
   10.5318  -13.4162   -4.4808 H   0  0  0  0  0  0  0  0  0  0  0  0
   12.3370  -16.0310   -5.5340 H   0  0  0  0  0  0  0  0  0  0  0  0
   11.6094  -13.3657   -7.0631 H   0  0  0  0  0  0  0  0  0  0  0  0
   12.5124  -13.5019   -9.3065 H   0  0  0  0  0  0  0  0  0  0  0  0
   14.6973  -13.7626  -10.0193 H   0  0  0  0  0  0  0  0  0  0  0  0
   13.7966  -18.8847   -7.3336 H   0  0  0  0  0  0  0  0  0  0  0  0
   12.9633  -19.3929   -8.8416 H   0  0  0  0  0  0  0  0  0  0  0  0
   14.7406  -19.1325   -8.8416 H   0  0  0  0  0  0  0  0  0  0  0  0
   12.2577  -17.1295  -10.5344 H   0  0  0  0  0  0  0  0  0  0  0  0
   13.8967  -16.4342  -10.7728 H   0  0  0  0  0  0  0  0  0  0  0  0
   13.6683  -18.2159  -10.7728 H   0  0  0  0  0  0  0  0  0  0  0  0
   12.7301  -16.9310   -6.8904 H   0  0  0  0  0  0  0  0  0  0  0  0
   11.2440  -18.3817   -8.4599 H   0  0  0  0  0  0  0  0  0  0  0  0
    7.8431  -16.1923   -8.8961 H   0  0  0  0  0  0  0  0  0  0  0  0
    8.4046  -15.4911  -10.4517 H   0  0  0  0  0  0  0  0  0  0  0  0
    7.3095  -16.9150  -10.4517 H   0  0  0  0  0  0  0  0  0  0  0  0
    9.1824  -17.9297   -7.2879 H   0  0  0  0  0  0  0  0  0  0  0  0
   10.6382  -17.7568   -6.1734 H   0  0  0  0  0  0  0  0  0  0  0  0
    9.2091  -15.5605   -7.5043 H   0  0  0  0  0  0  0  0  0  0  0  0
    8.2127  -17.1575   -3.6845 H   0  0  0  0  0  0  0  0  0  0  0  0
    7.2069  -17.7004   -5.0703 H   0  0  0  0  0  0  0  0  0  0  0  0
    8.9768  -18.0076   -5.0703 H   0  0  0  0  0  0  0  0  0  0  0  0
    7.3602  -14.7536   -6.9322 H   0  0  0  0  0  0  0  0  0  0  0  0
    6.6744  -16.4244   -6.6125 H   0  0  0  0  0  0  0  0  0  0  0  0
    5.1809  -14.6263   -5.8328 H   0  0  0  0  0  0  0  0  0  0  0  0
    5.7940  -15.7032   -4.5016 H   0  0  0  0  0  0  0  0  0  0  0  0
    6.8100  -11.8590   -5.0960 H   0  0  0  0  0  0  0  0  0  0  0  0
    5.9587  -12.4815   -2.7820 H   0  0  0  0  0  0  0  0  0  0  0  0
    4.1888  -11.2116   -3.8207 H   0  0  0  0  0  0  0  0  0  0  0  0
    5.4224  -11.3985   -5.1129 H   0  0  0  0  0  0  0  0  0  0  0  0
    3.9572  -12.4376   -5.1129 H   0  0  0  0  0  0  0  0  0  0  0  0
    4.7448  -14.9784   -3.2729 H   0  0  0  0  0  0  0  0  0  0  0  0
    5.3636  -14.3039   -1.0665 H   0  0  0  0  0  0  0  0  0  0  0  0
    4.2067  -12.9396   -1.0865 H   0  0  0  0  0  0  0  0  0  0  0  0
    3.3995  -15.3686   -0.0121 H   0  0  0  0  0  0  0  0  0  0  0  0
    1.0659  -16.0654   -0.2327 H   0  0  0  0  0  0  0  0  0  0  0  0
    0.1600  -15.6450   -1.7257 H   0  0  0  0  0  0  0  0  0  0  0  0
    1.2947  -17.0375   -1.7257 H   0  0  0  0  0  0  0  0  0  0  0  0
  1  2  2  0
  2  3  1  0
  3  4  1  0
  4  5  1  0
  5  6  1  1
  5  7  1  0
  7  8  2  0
  8  9  1  0
  9 10  2  0
 10 11  1  0
 11 12  2  0
 11 13  1  0
 13 14  1  0
 14 15  1  0
 14 16  1  0
 14 17  1  0
 17 18  1  0
 18 19  1  0
 19 20  1  0
 20 21  1  0
 20 22  2  0
 18 23  1  0
 23 24  1  0
 24 25  1  0
 25 26  1  1
 25 27  1  0
 27 28  1  0
 28 29  1  0
 29 30  1  6
 29 31  1  0
 31 32  1  0
 31 33  1  0
 33 34  1  0
 34 35  1  0
 35 36  2  0
 36 37  1  0
 36 38  1  0
 38 39  2  0
 38 40  1  0
 29  2  1  0
 40 33  1  0
 25  3  1  0
 24  5  1  0
 17  8  1  0
  1 41  1  0
  1 42  1  0
  3 43  1  1
  4 44  1  0
  4 45  1  0
  6 46  1  0
  7 47  1  0
  9 48  1  0
 10 49  1  0
 15 50  1  0
 15 51  1  0
 15 52  1  0
 16 53  1  0
 16 54  1  0
 16 55  1  0
 17 56  1  1
 18 57  1  6
 21 58  1  0
 21 59  1  0
 21 60  1  0
 23 61  1  0
 23 62  1  0
 24 63  1  6
 26 64  1  0
 26 65  1  0
 26 66  1  0
 27 67  1  0
 27 68  1  0
 28 69  1  0
 28 70  1  0
 30 71  1  0
 31 72  1  1
 32 73  1  0
 32 74  1  0
 32 75  1  0
 33 76  1  1
 34 77  1  0
 34 78  1  0
 35 79  1  0
 37 80  1  0
 37 81  1  0
 37 82  1  0
M  END
>  <meeko>  (8) 
{"is_sidechain": [false], "free_energy": -5.144, "intermolecular_energy": -9.201, "internal_energy": 1.205}

$$$$
LIB_WUMNNWDKNWWLGB__M_PUB_ALL__e8__s20260927
     RDKit          3D

 82 86  0  0  0  0  0  0  0  0999 V2000
   -0.4110  -17.3900    1.3110 C   0  0  0  0  0  0  0  0  0  0  0  0
    0.0300  -16.1300    1.1170 C   0  0  0  0  0  0  0  0  0  0  0  0
    0.9910  -15.8930   -0.0420 C   0  0  2  0  0  0  0  0  0  0  0  0
    2.4720  -15.7350    0.3190 C   0  0  0  0  0  0  0  0  0  0  0  0
    3.0800  -15.3070   -1.0230 C   0  0  2  0  0  0  0  0  0  0  0  0
    3.0880  -16.4320   -1.8990 O   0  0  0  0  0  0  0  0  0  0  0  0
    4.4840  -14.7920   -0.9080 C   0  0  0  0  0  0  0  0  0  0  0  0
    5.2430  -14.3020   -1.9140 C   0  0  0  0  0  0  0  0  0  0  0  0
    6.5510  -13.8040   -1.5430 C   0  0  0  0  0  0  0  0  0  0  0  0
    7.7120  -13.9860   -2.1790 C   0  0  0  0  0  0  0  0  0  0  0  0
    7.9080  -14.7920   -3.3980 C   0  0  0  0  0  0  0  0  0  0  0  0
    8.9480  -15.4310   -3.5190 O   0  0  0  0  0  0  0  0  0  0  0  0
    6.9570  -14.8090   -4.3460 O   0  0  0  0  0  0  0  0  0  0  0  0
    5.8250  -13.8930   -4.4570 C   0  0  0  0  0  0  0  0  0  0  0  0
    5.2850  -14.2490   -5.8670 C   0  0  0  0  0  0  0  0  0  0  0  0
    6.2950  -12.4290   -4.5280 C   0  0  0  0  0  0  0  0  0  0  0  0
    4.7440  -14.2260   -3.3670 C   0  0  2  0  0  0  0  0  0  0  0  0
    3.4850  -13.3110   -3.5130 C   0  0  2  0  0  0  0  0  0  0  0  0
    3.7030  -12.0550   -2.8270 O   0  0  0  0  0  0  0  0  0  0  0  0
    2.9140  -11.0070   -3.1880 C   0  0  0  0  0  0  0  0  0  0  0  0
    3.1170  -10.6940   -4.6380 C   0  0  0  0  0  0  0  0  0  0  0  0
    2.1460  -10.4060   -2.4510 O   0  0  0  0  0  0  0  0  0  0  0  0
    2.1690  -13.9590   -3.0290 C   0  0  0  0  0  0  0  0  0  0  0  0
    2.0880  -14.2360   -1.5230 C   0  0  1  0  0  0  0  0  0  0  0  0
    0.6740  -14.6820   -0.9680 C   0  0  1  0  0  0  0  0  0  0  0  0
   -0.3260  -15.1330   -2.0530 C   0  0  0  0  0  0  0  0  0  0  0  0
    0.0580  -13.4960   -0.1840 C   0  0  0  0  0  0  0  0  0  0  0  0
   -0.9960  -13.9020    0.8500 C   0  0  0  0  0  0  0  0  0  0  0  0
   -0.4420  -14.8950    1.9000 C   0  0  2  0  0  0  0  0  0  0  0  0
    0.7250  -14.3090    2.4880 O   0  0  0  0  0  0  0  0  0  0  0  0
   -1.4690  -15.1850    3.0690 C   0  0  1  0  0  0  0  0  0  0  0  0
   -2.7400  -15.8780    2.5230 C   0  0  0  0  0  0  0  0  0  0  0  0
   -0.8660  -16.0280    4.2310 C   0  0  1  0  0  0  0  0  0  0  0  0
   -0.4900  -15.2130    5.4710 C   0  0  0  0  0  0  0  0  0  0  0  0
   -0.0140  -16.1560    6.5320 C   0  0  0  0  0  0  0  0  0  0  0  0
   -0.4460  -17.4270    6.5820 C   0  0  0  0  0  0  0  0  0  0  0  0
   -0.0050  -18.4050    7.6240 C   0  0  0  0  0  0  0  0  0  0  0  0
   -1.4700  -17.9110    5.6160 C   0  0  0  0  0  0  0  0  0  0  0  0
   -2.0220  -18.9950    5.7480 O   0  0  0  0  0  0  0  0  0  0  0  0
   -1.7890  -17.0760    4.5910 O   0  0  0  0  0  0  0  0  0  0  0  0
   -1.1059  -17.6087    2.1352 H   0  0  0  0  0  0  0  0  0  0  0  0
   -0.0757  -18.1987    0.6450 H   0  0  0  0  0  0  0  0  0  0  0  0
    0.8177  -16.8435   -0.5679 H   0  0  0  0  0  0  0  0  0  0  0  0
    2.6162  -14.9621    1.0884 H   0  0  0  0  0  0  0  0  0  0  0  0
    2.9256  -16.6427    0.7435 H   0  0  0  0  0  0  0  0  0  0  0  0
    4.0140  -16.5930   -2.1500 H   0  0  0  0  0  0  0  0  0  0  0  0
    4.9408  -14.8152    0.0924 H   0  0  0  0  0  0  0  0  0  0  0  0
    6.5943  -13.2013   -0.6239 H   0  0  0  0  0  0  0  0  0  0  0  0
    8.5989  -13.4914   -1.7562 H   0  0  0  0  0  0  0  0  0  0  0  0
    4.3704  -14.8520   -5.7679 H   0  0  0  0  0  0  0  0  0  0  0  0
    5.0565  -13.3239   -6.4165 H   0  0  0  0  0  0  0  0  0  0  0  0
    6.0452  -14.8236   -6.4165 H   0  0  0  0  0  0  0  0  0  0  0  0
    6.4216  -12.0347   -3.5089 H   0  0  0  0  0  0  0  0  0  0  0  0
    7.2548  -12.3776   -5.0629 H   0  0  0  0  0  0  0  0  0  0  0  0
    5.5445  -11.8285   -5.0629 H   0  0  0  0  0  0  0  0  0  0  0  0
    4.4562  -15.2649   -3.5856 H   0  0  0  0  0  0  0  0  0  0  0  0
    3.3575  -13.1428   -4.5926 H   0  0  0  0  0  0  0  0  0  0  0  0
    3.7132   -9.7747   -4.7347 H   0  0  0  0  0  0  0  0  0  0  0  0
    3.6470  -11.5274   -5.1223 H   0  0  0  0  0  0  0  0  0  0  0  0
    2.1399  -10.5500   -5.1223 H   0  0  0  0  0  0  0  0  0  0  0  0
    1.3410  -13.2856   -3.2953 H   0  0  0  0  0  0  0  0  0  0  0  0
    2.1154  -14.9412   -3.5214 H   0  0  0  0  0  0  0  0  0  0  0  0
    2.3362  -13.2365   -1.1364 H   0  0  0  0  0  0  0  0  0  0  0  0
   -1.2284  -15.5400   -1.5735 H   0  0  0  0  0  0  0  0  0  0  0  0
   -0.6005  -14.2715   -2.6795 H   0  0  0  0  0  0  0  0  0  0  0  0
    0.1380  -15.9090   -2.6795 H   0  0  0  0  0  0  0  0  0  0  0  0
    0.8701  -12.9710    0.3402 H   0  0  0  0  0  0  0  0  0  0  0  0
   -0.4543  -12.8627   -0.9232 H   0  0  0  0  0  0  0  0  0  0  0  0
   -1.3474  -12.9983    1.3695 H   0  0  0  0  0  0  0  0  0  0  0  0
   -1.8152  -14.4036    0.3141 H   0  0  0  0  0  0  0  0  0  0  0  0
    1.3670  -14.1590    1.7660 H   0  0  0  0  0  0  0  0  0  0  0  0
   -1.7305  -14.2028    3.4896 H   0  0  0  0  0  0  0  0  0  0  0  0
   -3.3625  -16.2174    3.3640 H   0  0  0  0  0  0  0  0  0  0  0  0
   -3.3105  -15.1661    1.9084 H   0  0  0  0  0  0  0  0  0  0  0  0
   -2.4506  -16.7432    1.9084 H   0  0  0  0  0  0  0  0  0  0  0  0
    0.0779  -16.4472    3.8525 H   0  0  0  0  0  0  0  0  0  0  0  0
    0.3111  -14.5025    5.2193 H   0  0  0  0  0  0  0  0  0  0  0  0
   -1.3634  -14.6497    5.8313 H   0  0  0  0  0  0  0  0  0  0  0  0
    0.7040  -15.8009    7.2859 H   0  0  0  0  0  0  0  0  0  0  0  0
   -0.1939  -17.9861    8.6234 H   0  0  0  0  0  0  0  0  0  0  0  0
   -0.5671  -19.3433    7.5075 H   0  0  0  0  0  0  0  0  0  0  0  0
    1.0704  -18.6049    7.5075 H   0  0  0  0  0  0  0  0  0  0  0  0
  1  2  2  0
  2  3  1  0
  3  4  1  0
  4  5  1  0
  5  6  1  6
  5  7  1  0
  7  8  2  0
  8  9  1  0
  9 10  2  0
 10 11  1  0
 11 12  2  0
 11 13  1  0
 13 14  1  0
 14 15  1  0
 14 16  1  0
 14 17  1  0
 17 18  1  0
 18 19  1  0
 19 20  1  0
 20 21  1  0
 20 22  2  0
 18 23  1  0
 23 24  1  0
 24 25  1  0
 25 26  1  6
 25 27  1  0
 27 28  1  0
 28 29  1  0
 29 30  1  1
 29 31  1  0
 31 32  1  0
 31 33  1  0
 33 34  1  0
 34 35  1  0
 35 36  2  0
 36 37  1  0
 36 38  1  0
 38 39  2  0
 38 40  1  0
 29  2  1  0
 40 33  1  0
 25  3  1  0
 24  5  1  0
 17  8  1  0
  1 41  1  0
  1 42  1  0
  3 43  1  6
  4 44  1  0
  4 45  1  0
  6 46  1  0
  7 47  1  0
  9 48  1  0
 10 49  1  0
 15 50  1  0
 15 51  1  0
 15 52  1  0
 16 53  1  0
 16 54  1  0
 16 55  1  0
 17 56  1  6
 18 57  1  6
 21 58  1  0
 21 59  1  0
 21 60  1  0
 23 61  1  0
 23 62  1  0
 24 63  1  1
 26 64  1  0
 26 65  1  0
 26 66  1  0
 27 67  1  0
 27 68  1  0
 28 69  1  0
 28 70  1  0
 30 71  1  0
 31 72  1  1
 32 73  1  0
 32 74  1  0
 32 75  1  0
 33 76  1  6
 34 77  1  0
 34 78  1  0
 35 79  1  0
 37 80  1  0
 37 81  1  0
 37 82  1  0
M  END
>  <meeko>  (9) 
{"is_sidechain": [false], "free_energy": -5.049, "intermolecular_energy": -9.906, "internal_energy": 2.078}

$$$$
