LIB_PQAPIAXNANSJSC__M_PUB_ALL__e8__s20260927
     RDKit          3D

 57 60  0  0  0  0  0  0  0  0999 V2000
    7.0970  -12.4390  -10.6920 C   0  0  0  0  0  0  0  0  0  0  0  0
    8.3830  -12.6490  -11.2620 O   0  0  0  0  0  0  0  0  0  0  0  0
    9.2040  -11.5680  -11.3740 C   0  0  0  0  0  0  0  0  0  0  0  0
    8.8310  -10.3020  -11.7710 C   0  0  0  0  0  0  0  0  0  0  0  0
    9.6800   -9.2600  -11.8920 N   0  0  0  0  0  0  0  0  0  0  0  0
   10.9670   -9.4780  -11.6100 C   0  0  0  0  0  0  0  0  0  0  0  0
   11.9280   -8.4750  -11.6980 N   0  0  0  0  0  0  0  0  0  0  0  0
   11.8880   -7.1140  -12.0070 C   0  0  0  0  0  0  0  0  0  0  0  0
   12.3000   -6.5730  -13.2230 C   0  0  0  0  0  0  0  0  0  0  0  0
   12.2340   -5.1910  -13.4690 C   0  0  0  0  0  0  0  0  0  0  0  0
   11.7460   -4.2900  -12.5170 C   0  0  0  0  0  0  0  0  0  0  0  0
   11.6780   -2.9190  -12.7390 N   0  0  0  0  0  0  0  0  0  0  0  0
   12.4700   -1.9910  -11.9130 C   0  0  0  0  0  0  0  0  0  0  0  0
   11.9080   -0.5650  -12.0180 C   0  0  0  0  0  0  0  0  0  0  0  0
   11.8210   -0.1270  -13.3830 O   0  0  0  0  0  0  0  0  0  0  0  0
   10.9440   -0.9970  -14.1150 C   0  0  0  0  0  0  0  0  0  0  0  0
   11.4470   -2.4480  -14.1190 C   0  0  0  0  0  0  0  0  0  0  0  0
   11.3430   -4.8390  -11.2930 C   0  0  0  0  0  0  0  0  0  0  0  0
   11.4100   -6.2180  -11.0430 C   0  0  0  0  0  0  0  0  0  0  0  0
   11.4350  -10.6720  -11.2180 N   0  0  0  0  0  0  0  0  0  0  0  0
   10.5580  -11.7030  -11.0920 C   0  0  0  0  0  0  0  0  0  0  0  0
   11.1870  -12.9640  -10.6420 C   0  0  0  0  0  0  0  0  0  0  0  0
   11.8460  -13.8300  -11.5330 C   0  0  0  0  0  0  0  0  0  0  0  0
   12.4270  -15.0230  -11.0890 C   0  0  0  0  0  0  0  0  0  0  0  0
   12.3480  -15.3880   -9.7420 C   0  0  0  0  0  0  0  0  0  0  0  0
   12.9810  -16.6670   -9.3190 C   0  0  0  0  0  0  0  0  0  0  0  0
   13.5470  -16.7510   -8.2340 O   0  0  0  0  0  0  0  0  0  0  0  0
   12.9200  -17.7120  -10.2120 N   0  0  0  0  0  0  0  0  0  0  0  0
   13.5470  -18.9880   -9.9140 C   0  0  0  0  0  0  0  0  0  0  0  0
   14.9800  -18.9860  -10.2500 C   0  0  0  0  0  0  0  0  0  0  0  0
   16.1020  -18.9970  -10.5530 N   0  0  0  0  0  0  0  0  0  0  0  0
   11.7030  -14.5410   -8.8370 C   0  0  0  0  0  0  0  0  0  0  0  0
   11.1260  -13.3470   -9.2880 C   0  0  0  0  0  0  0  0  0  0  0  0
    7.1757  -12.4518   -9.5949 H   0  0  0  0  0  0  0  0  0  0  0  0
    6.7051  -11.4650  -11.0201 H   0  0  0  0  0  0  0  0  0  0  0  0
    6.4156  -13.2378  -11.0201 H   0  0  0  0  0  0  0  0  0  0  0  0
    7.7701  -10.1293  -12.0049 H   0  0  0  0  0  0  0  0  0  0  0  0
   12.8300   -8.8670  -11.4740 H   0  0  0  0  0  0  0  0  0  0  0  0
   12.6850   -7.2417  -14.0070 H   0  0  0  0  0  0  0  0  0  0  0  0
   12.5768   -4.8058  -14.4406 H   0  0  0  0  0  0  0  0  0  0  0  0
   12.4329   -2.3185  -10.8635 H   0  0  0  0  0  0  0  0  0  0  0  0
   13.5092   -1.9916  -12.2735 H   0  0  0  0  0  0  0  0  0  0  0  0
   10.9025   -0.5445  -11.5724 H   0  0  0  0  0  0  0  0  0  0  0  0
   12.5902    0.1124  -11.4835 H   0  0  0  0  0  0  0  0  0  0  0  0
    9.9467   -0.9679  -13.6519 H   0  0  0  0  0  0  0  0  0  0  0  0
   10.9085   -0.6462  -15.1570 H   0  0  0  0  0  0  0  0  0  0  0  0
   10.6946   -3.0906  -14.5996 H   0  0  0  0  0  0  0  0  0  0  0  0
   12.3955   -2.4942  -14.6741 H   0  0  0  0  0  0  0  0  0  0  0  0
   10.9635   -4.1706  -10.5061 H   0  0  0  0  0  0  0  0  0  0  0  0
   11.0795   -6.6040  -10.0674 H   0  0  0  0  0  0  0  0  0  0  0  0
   11.9058  -13.5645  -12.5988 H   0  0  0  0  0  0  0  0  0  0  0  0
   12.9485  -15.6769  -11.8035 H   0  0  0  0  0  0  0  0  0  0  0  0
   12.5590  -17.5640  -11.1440 H   0  0  0  0  0  0  0  0  0  0  0  0
   13.4336  -19.1980   -8.8402 H   0  0  0  0  0  0  0  0  0  0  0  0
   13.0547  -19.7607  -10.5228 H   0  0  0  0  0  0  0  0  0  0  0  0
   11.6485  -14.8114   -7.7722 H   0  0  0  0  0  0  0  0  0  0  0  0
   10.6130  -12.6929   -8.5676 H   0  0  0  0  0  0  0  0  0  0  0  0
  1  2  1  0
  2  3  1  0
  3  4  2  0
  4  5  1  0
  5  6  2  0
  6  7  1  0
  7  8  1  0
  8  9  2  0
  9 10  1  0
 10 11  2  0
 11 12  1  0
 12 13  1  0
 13 14  1  0
 14 15  1  0
 15 16  1  0
 16 17  1  0
 11 18  1  0
 18 19  2  0
  6 20  1  0
 20 21  2  0
 21 22  1  0
 22 23  2  0
 23 24  1  0
 24 25  2  0
 25 26  1  0
 26 27  2  0
 26 28  1  0
 28 29  1  0
 29 30  1  0
 30 31  3  0
 25 32  1  0
 32 33  2  0
 21  3  1  0
 33 22  1  0
 19  8  1  0
 17 12  1  0
  1 34  1  0
  1 35  1  0
  1 36  1  0
  4 37  1  0
  7 38  1  0
  9 39  1  0
 10 40  1  0
 13 41  1  0
 13 42  1  0
 14 43  1  0
 14 44  1  0
 16 45  1  0
 16 46  1  0
 17 47  1  0
 17 48  1  0
 18 49  1  0
 19 50  1  0
 23 51  1  0
 24 52  1  0
 28 53  1  0
 29 54  1  0
 29 55  1  0
 32 56  1  0
 33 57  1  0
M  END
>  <meeko>  (1) 
{"is_sidechain": [false], "free_energy": -8.008, "intermolecular_energy": -11.284, "internal_energy": -0.819}

$$$$
LIB_PQAPIAXNANSJSC__M_PUB_ALL__e8__s20260927
     RDKit          3D

 57 60  0  0  0  0  0  0  0  0999 V2000
    6.1070  -13.3790   -7.8370 C   0  0  0  0  0  0  0  0  0  0  0  0
    5.9840  -12.5810   -6.6650 O   0  0  0  0  0  0  0  0  0  0  0  0
    5.1290  -13.0170   -5.6980 C   0  0  0  0  0  0  0  0  0  0  0  0
    3.7890  -13.2910   -5.8620 C   0  0  0  0  0  0  0  0  0  0  0  0
    2.9680  -13.6990   -4.8710 N   0  0  0  0  0  0  0  0  0  0  0  0
    3.4950  -13.8400   -3.6520 C   0  0  0  0  0  0  0  0  0  0  0  0
    2.7420  -14.2560   -2.5590 N   0  0  0  0  0  0  0  0  0  0  0  0
    1.9510  -13.5990   -1.6150 C   0  0  0  0  0  0  0  0  0  0  0  0
    0.9750  -14.2200   -0.8390 C   0  0  0  0  0  0  0  0  0  0  0  0
    0.2120  -13.4980    0.0950 C   0  0  0  0  0  0  0  0  0  0  0  0
    0.3970  -12.1270    0.3020 C   0  0  0  0  0  0  0  0  0  0  0  0
   -0.3510  -11.3940    1.2170 N   0  0  0  0  0  0  0  0  0  0  0  0
   -0.5800  -11.9130    2.5760 C   0  0  0  0  0  0  0  0  0  0  0  0
   -1.7690  -11.1930    3.2330 C   0  0  0  0  0  0  0  0  0  0  0  0
   -1.5960   -9.7670    3.2250 O   0  0  0  0  0  0  0  0  0  0  0  0
   -1.4960   -9.2990    1.8720 C   0  0  0  0  0  0  0  0  0  0  0  0
   -0.2980   -9.9210    1.1370 C   0  0  0  0  0  0  0  0  0  0  0  0
    1.3730  -11.5070   -0.4880 C   0  0  0  0  0  0  0  0  0  0  0  0
    2.1340  -12.2240   -1.4230 C   0  0  0  0  0  0  0  0  0  0  0  0
    4.7870  -13.5950   -3.3840 N   0  0  0  0  0  0  0  0  0  0  0  0
    5.5960  -13.1980   -4.4020 C   0  0  0  0  0  0  0  0  0  0  0  0
    6.9980  -12.9710   -3.9890 C   0  0  0  0  0  0  0  0  0  0  0  0
    7.9900  -13.9570   -4.1350 C   0  0  0  0  0  0  0  0  0  0  0  0
    9.3090  -13.7260   -3.7290 C   0  0  0  0  0  0  0  0  0  0  0  0
    9.6660  -12.5040   -3.1500 C   0  0  0  0  0  0  0  0  0  0  0  0
   11.0810  -12.3070   -2.7340 C   0  0  0  0  0  0  0  0  0  0  0  0
   11.9930  -12.4700   -3.5380 O   0  0  0  0  0  0  0  0  0  0  0  0
   11.2980  -11.9700   -1.4180 N   0  0  0  0  0  0  0  0  0  0  0  0
   12.6440  -11.8010   -0.9010 C   0  0  0  0  0  0  0  0  0  0  0  0
   12.7530  -10.6160   -0.0340 C   0  0  0  0  0  0  0  0  0  0  0  0
   12.8490   -9.6580    0.6180 N   0  0  0  0  0  0  0  0  0  0  0  0
    8.6980  -11.5070   -3.0000 C   0  0  0  0  0  0  0  0  0  0  0  0
    7.3810  -11.7450   -3.4100 C   0  0  0  0  0  0  0  0  0  0  0  0
    6.2688  -14.4287   -7.5506 H   0  0  0  0  0  0  0  0  0  0  0  0
    5.1860  -13.2994   -8.4331 H   0  0  0  0  0  0  0  0  0  0  0  0
    6.9613  -13.0257   -8.4331 H   0  0  0  0  0  0  0  0  0  0  0  0
    3.3593  -13.1693   -6.8673 H   0  0  0  0  0  0  0  0  0  0  0  0
    2.8080  -15.2590   -2.4800 H   0  0  0  0  0  0  0  0  0  0  0  0
    0.7975  -15.2989   -0.9598 H   0  0  0  0  0  0  0  0  0  0  0  0
   -0.5539  -14.0272    0.6810 H   0  0  0  0  0  0  0  0  0  0  0  0
   -0.7946  -12.9904    2.5208 H   0  0  0  0  0  0  0  0  0  0  0  0
    0.3216  -11.7369    3.1811 H   0  0  0  0  0  0  0  0  0  0  0  0
   -2.6870  -11.4440    2.6813 H   0  0  0  0  0  0  0  0  0  0  0  0
   -1.8354  -11.5248    4.2797 H   0  0  0  0  0  0  0  0  0  0  0  0
   -2.4189   -9.5636    1.3351 H   0  0  0  0  0  0  0  0  0  0  0  0
   -1.3510   -8.2089    1.8984 H   0  0  0  0  0  0  0  0  0  0  0  0
   -0.3224   -9.6146    0.0808 H   0  0  0  0  0  0  0  0  0  0  0  0
    0.6310   -9.5720    1.6115 H   0  0  0  0  0  0  0  0  0  0  0  0
    1.5478  -10.4272   -0.3720 H   0  0  0  0  0  0  0  0  0  0  0  0
    2.8917  -11.6942   -2.0189 H   0  0  0  0  0  0  0  0  0  0  0  0
    7.7239  -14.9286   -4.5769 H   0  0  0  0  0  0  0  0  0  0  0  0
   10.0689  -14.5095   -3.8659 H   0  0  0  0  0  0  0  0  0  0  0  0
   10.5310  -11.9720   -0.7590 H   0  0  0  0  0  0  0  0  0  0  0  0
   12.9165  -12.6939   -0.3192 H   0  0  0  0  0  0  0  0  0  0  0  0
   13.3231  -11.6627   -1.7553 H   0  0  0  0  0  0  0  0  0  0  0  0
    8.9709  -10.5364   -2.5602 H   0  0  0  0  0  0  0  0  0  0  0  0
    6.6266  -10.9556   -3.2769 H   0  0  0  0  0  0  0  0  0  0  0  0
  1  2  1  0
  2  3  1  0
  3  4  2  0
  4  5  1  0
  5  6  2  0
  6  7  1  0
  7  8  1  0
  8  9  2  0
  9 10  1  0
 10 11  2  0
 11 12  1  0
 12 13  1  0
 13 14  1  0
 14 15  1  0
 15 16  1  0
 16 17  1  0
 11 18  1  0
 18 19  2  0
  6 20  1  0
 20 21  2  0
 21 22  1  0
 22 23  2  0
 23 24  1  0
 24 25  2  0
 25 26  1  0
 26 27  2  0
 26 28  1  0
 28 29  1  0
 29 30  1  0
 30 31  3  0
 25 32  1  0
 32 33  2  0
 21  3  1  0
 33 22  1  0
 19  8  1  0
 17 12  1  0
  1 34  1  0
  1 35  1  0
  1 36  1  0
  4 37  1  0
  7 38  1  0
  9 39  1  0
 10 40  1  0
 13 41  1  0
 13 42  1  0
 14 43  1  0
 14 44  1  0
 16 45  1  0
 16 46  1  0
 17 47  1  0
 17 48  1  0
 18 49  1  0
 19 50  1  0
 23 51  1  0
 24 52  1  0
 28 53  1  0
 29 54  1  0
 29 55  1  0
 32 56  1  0
 33 57  1  0
M  END
>  <meeko>  (2) 
{"is_sidechain": [false], "free_energy": -7.57, "intermolecular_energy": -10.575, "internal_energy": -0.912}

$$$$
LIB_PQAPIAXNANSJSC__M_PUB_ALL__e8__s20260927
     RDKit          3D

 57 60  0  0  0  0  0  0  0  0999 V2000
    1.0570  -14.1830   -4.3960 C   0  0  0  0  0  0  0  0  0  0  0  0
    1.1820  -14.0660   -2.9840 O   0  0  0  0  0  0  0  0  0  0  0  0
    2.4280  -14.2030   -2.4520 C   0  0  0  0  0  0  0  0  0  0  0  0
    3.5040  -14.8220   -3.0500 C   0  0  0  0  0  0  0  0  0  0  0  0
    4.7190  -14.9590   -2.4790 N   0  0  0  0  0  0  0  0  0  0  0  0
    4.8820  -14.4630   -1.2500 C   0  0  0  0  0  0  0  0  0  0  0  0
    6.0920  -14.5460   -0.5690 N   0  0  0  0  0  0  0  0  0  0  0  0
    7.3420  -13.9420   -0.7260 C   0  0  0  0  0  0  0  0  0  0  0  0
    7.8280  -12.9220    0.0890 C   0  0  0  0  0  0  0  0  0  0  0  0
    9.0960  -12.3560   -0.1240 C   0  0  0  0  0  0  0  0  0  0  0  0
    9.9390  -12.7890   -1.1540 C   0  0  0  0  0  0  0  0  0  0  0  0
   11.1940  -12.2390   -1.3850 N   0  0  0  0  0  0  0  0  0  0  0  0
   12.0370  -11.8070   -0.2570 C   0  0  0  0  0  0  0  0  0  0  0  0
   13.1310  -10.8430   -0.7410 C   0  0  0  0  0  0  0  0  0  0  0  0
   13.9100  -11.4150   -1.8040 O   0  0  0  0  0  0  0  0  0  0  0  0
   13.0600  -11.7080   -2.9230 C   0  0  0  0  0  0  0  0  0  0  0  0
   11.9570  -12.7130   -2.5570 C   0  0  0  0  0  0  0  0  0  0  0  0
    9.4390  -13.8080   -1.9760 C   0  0  0  0  0  0  0  0  0  0  0  0
    8.1720  -14.3730   -1.7660 C   0  0  0  0  0  0  0  0  0  0  0  0
    3.9000  -13.8460   -0.5770 N   0  0  0  0  0  0  0  0  0  0  0  0
    2.6880  -13.7090   -1.1790 C   0  0  0  0  0  0  0  0  0  0  0  0
    1.6900  -13.0020   -0.3470 C   0  0  0  0  0  0  0  0  0  0  0  0
    1.6730  -11.6020   -0.2290 C   0  0  0  0  0  0  0  0  0  0  0  0
    0.7260  -10.9520    0.5710 C   0  0  0  0  0  0  0  0  0  0  0  0
   -0.2190  -11.6920    1.2880 C   0  0  0  0  0  0  0  0  0  0  0  0
   -1.2050  -10.9560    2.1260 C   0  0  0  0  0  0  0  0  0  0  0  0
   -2.2600  -11.4860    2.4540 O   0  0  0  0  0  0  0  0  0  0  0  0
   -0.8780   -9.6650    2.4750 N   0  0  0  0  0  0  0  0  0  0  0  0
   -1.7920   -8.8460    3.2510 C   0  0  0  0  0  0  0  0  0  0  0  0
   -1.4110   -8.7960    4.6720 C   0  0  0  0  0  0  0  0  0  0  0  0
   -1.1320   -8.7900    5.8010 N   0  0  0  0  0  0  0  0  0  0  0  0
   -0.2250  -13.0860    1.1820 C   0  0  0  0  0  0  0  0  0  0  0  0
    0.7250  -13.7280    0.3780 C   0  0  0  0  0  0  0  0  0  0  0  0
    0.2731  -14.9167   -4.6352 H   0  0  0  0  0  0  0  0  0  0  0  0
    0.7869  -13.2057   -4.8224 H   0  0  0  0  0  0  0  0  0  0  0  0
    2.0144  -14.5171   -4.8224 H   0  0  0  0  0  0  0  0  0  0  0  0
    3.3631  -15.2321   -4.0609 H   0  0  0  0  0  0  0  0  0  0  0  0
    5.9900  -15.1900    0.2010 H   0  0  0  0  0  0  0  0  0  0  0  0
    7.2056  -12.5519    0.9170 H   0  0  0  0  0  0  0  0  0  0  0  0
    9.4369  -11.5474    0.5393 H   0  0  0  0  0  0  0  0  0  0  0  0
   11.4098  -11.2974    0.4893 H   0  0  0  0  0  0  0  0  0  0  0  0
   12.5145  -12.6917    0.1894 H   0  0  0  0  0  0  0  0  0  0  0  0
   12.6571   -9.9189   -1.1036 H   0  0  0  0  0  0  0  0  0  0  0  0
   13.8038  -10.6352    0.1041 H   0  0  0  0  0  0  0  0  0  0  0  0
   12.5907  -10.7746   -3.2671 H   0  0  0  0  0  0  0  0  0  0  0  0
   13.6799  -12.1553   -3.7140 H   0  0  0  0  0  0  0  0  0  0  0  0
   11.2738  -12.8279   -3.4114 H   0  0  0  0  0  0  0  0  0  0  0  0
   12.4228  -13.6788   -2.3115 H   0  0  0  0  0  0  0  0  0  0  0  0
   10.0569  -14.1750   -2.8088 H   0  0  0  0  0  0  0  0  0  0  0  0
    7.8233  -15.1736   -2.4349 H   0  0  0  0  0  0  0  0  0  0  0  0
    2.4181  -11.0054   -0.7757 H   0  0  0  0  0  0  0  0  0  0  0  0
    0.7253   -9.8539    0.6359 H   0  0  0  0  0  0  0  0  0  0  0  0
   -0.0600   -9.2230    2.0780 H   0  0  0  0  0  0  0  0  0  0  0  0
   -1.7861   -7.8237    2.8448 H   0  0  0  0  0  0  0  0  0  0  0  0
   -2.7943   -9.2938    3.1818 H   0  0  0  0  0  0  0  0  0  0  0  0
   -0.9743  -13.6772    1.7289 H   0  0  0  0  0  0  0  0  0  0  0  0
    0.7174  -14.8259    0.3110 H   0  0  0  0  0  0  0  0  0  0  0  0
  1  2  1  0
  2  3  1  0
  3  4  2  0
  4  5  1  0
  5  6  2  0
  6  7  1  0
  7  8  1  0
  8  9  2  0
  9 10  1  0
 10 11  2  0
 11 12  1  0
 12 13  1  0
 13 14  1  0
 14 15  1  0
 15 16  1  0
 16 17  1  0
 11 18  1  0
 18 19  2  0
  6 20  1  0
 20 21  2  0
 21 22  1  0
 22 23  2  0
 23 24  1  0
 24 25  2  0
 25 26  1  0
 26 27  2  0
 26 28  1  0
 28 29  1  0
 29 30  1  0
 30 31  3  0
 25 32  1  0
 32 33  2  0
 21  3  1  0
 33 22  1  0
 19  8  1  0
 17 12  1  0
  1 34  1  0
  1 35  1  0
  1 36  1  0
  4 37  1  0
  7 38  1  0
  9 39  1  0
 10 40  1  0
 13 41  1  0
 13 42  1  0
 14 43  1  0
 14 44  1  0
 16 45  1  0
 16 46  1  0
 17 47  1  0
 17 48  1  0
 18 49  1  0
 19 50  1  0
 23 51  1  0
 24 52  1  0
 28 53  1  0
 29 54  1  0
 29 55  1  0
 32 56  1  0
 33 57  1  0
M  END
>  <meeko>  (3) 
{"is_sidechain": [false], "free_energy": -7.343, "intermolecular_energy": -10.304, "internal_energy": -0.863}

$$$$
LIB_PQAPIAXNANSJSC__M_PUB_ALL__e8__s20260927
     RDKit          3D

 57 60  0  0  0  0  0  0  0  0999 V2000
   13.7590  -10.3350    0.1540 C   0  0  0  0  0  0  0  0  0  0  0  0
   13.2290  -11.5060   -0.4570 O   0  0  0  0  0  0  0  0  0  0  0  0
   11.9500  -11.8520   -0.1430 C   0  0  0  0  0  0  0  0  0  0  0  0
   11.2070  -11.3530    0.9040 C   0  0  0  0  0  0  0  0  0  0  0  0
    9.9480  -11.7400    1.1980 N   0  0  0  0  0  0  0  0  0  0  0  0
    9.3920  -12.6730    0.4190 C   0  0  0  0  0  0  0  0  0  0  0  0
    8.0990  -13.1430    0.6290 N   0  0  0  0  0  0  0  0  0  0  0  0
    6.9750  -13.2970   -0.1860 C   0  0  0  0  0  0  0  0  0  0  0  0
    6.5450  -14.5150   -0.7070 C   0  0  0  0  0  0  0  0  0  0  0  0
    5.4030  -14.6010   -1.5220 C   0  0  0  0  0  0  0  0  0  0  0  0
    4.6360  -13.4760   -1.8450 C   0  0  0  0  0  0  0  0  0  0  0  0
    3.5070  -13.5380   -2.6540 N   0  0  0  0  0  0  0  0  0  0  0  0
    3.4810  -12.8390   -3.9500 C   0  0  0  0  0  0  0  0  0  0  0  0
    2.0340  -12.6640   -4.4370 C   0  0  0  0  0  0  0  0  0  0  0  0
    1.3360  -13.9190   -4.4900 O   0  0  0  0  0  0  0  0  0  0  0  0
    1.2880  -14.5020   -3.1790 C   0  0  0  0  0  0  0  0  0  0  0  0
    2.6930  -14.7700   -2.6190 C   0  0  0  0  0  0  0  0  0  0  0  0
    5.0810  -12.2530   -1.3270 C   0  0  0  0  0  0  0  0  0  0  0  0
    6.2210  -12.1640   -0.5140 C   0  0  0  0  0  0  0  0  0  0  0  0
   10.0290  -13.2260   -0.6230 N   0  0  0  0  0  0  0  0  0  0  0  0
   11.2930  -12.8100   -0.9060 C   0  0  0  0  0  0  0  0  0  0  0  0
   11.8870  -13.4810   -2.0830 C   0  0  0  0  0  0  0  0  0  0  0  0
   11.8710  -12.9000   -3.3620 C   0  0  0  0  0  0  0  0  0  0  0  0
   12.4300  -13.5550   -4.4650 C   0  0  0  0  0  0  0  0  0  0  0  0
   13.0080  -14.8200   -4.3160 C   0  0  0  0  0  0  0  0  0  0  0  0
   13.5890  -15.4760   -5.5190 C   0  0  0  0  0  0  0  0  0  0  0  0
   13.2460  -16.6100   -5.8330 O   0  0  0  0  0  0  0  0  0  0  0  0
   14.5320  -14.7610   -6.2190 N   0  0  0  0  0  0  0  0  0  0  0  0
   15.1930  -15.3300   -7.3800 C   0  0  0  0  0  0  0  0  0  0  0  0
   14.5840  -14.8670   -8.6390 C   0  0  0  0  0  0  0  0  0  0  0  0
   14.0780  -14.5340   -9.6300 N   0  0  0  0  0  0  0  0  0  0  0  0
   13.0410  -15.4150   -3.0520 C   0  0  0  0  0  0  0  0  0  0  0  0
   12.4810  -14.7520   -1.9530 C   0  0  0  0  0  0  0  0  0  0  0  0
   13.7120  -10.4389    1.2481 H   0  0  0  0  0  0  0  0  0  0  0  0
   14.8056  -10.2008   -0.1569 H   0  0  0  0  0  0  0  0  0  0  0  0
   13.1691   -9.4602   -0.1569 H   0  0  0  0  0  0  0  0  0  0  0  0
   11.6710  -10.5876    1.5435 H   0  0  0  0  0  0  0  0  0  0  0  0
    8.0080  -13.4290    1.5910 H   0  0  0  0  0  0  0  0  0  0  0  0
    7.1112  -15.4293   -0.4757 H   0  0  0  0  0  0  0  0  0  0  0  0
    5.1031  -15.5825   -1.9179 H   0  0  0  0  0  0  0  0  0  0  0  0
    3.9473  -11.8492   -3.8371 H   0  0  0  0  0  0  0  0  0  0  0  0
    4.0355  -13.4368   -4.6883 H   0  0  0  0  0  0  0  0  0  0  0  0
    1.5046  -11.9904   -3.7471 H   0  0  0  0  0  0  0  0  0  0  0  0
    2.0625  -12.2441   -5.4533 H   0  0  0  0  0  0  0  0  0  0  0  0
    0.7611  -13.8129   -2.5025 H   0  0  0  0  0  0  0  0  0  0  0  0
    0.7615  -15.4649   -3.2534 H   0  0  0  0  0  0  0  0  0  0  0  0
    2.6079  -15.1183   -1.5791 H   0  0  0  0  0  0  0  0  0  0  0  0
    3.1821  -15.5374   -3.2369 H   0  0  0  0  0  0  0  0  0  0  0  0
    4.5209  -11.3365   -1.5643 H   0  0  0  0  0  0  0  0  0  0  0  0
    6.5292  -11.1821   -0.1257 H   0  0  0  0  0  0  0  0  0  0  0  0
   11.4100  -11.9107   -3.4991 H   0  0  0  0  0  0  0  0  0  0  0  0
   12.4148  -13.0729   -5.4536 H   0  0  0  0  0  0  0  0  0  0  0  0
   14.8800  -13.8840   -5.8540 H   0  0  0  0  0  0  0  0  0  0  0  0
   16.2523  -15.0339   -7.3671 H   0  0  0  0  0  0  0  0  0  0  0  0
   15.0871  -16.4238   -7.3314 H   0  0  0  0  0  0  0  0  0  0  0  0
   13.5063  -16.4030   -2.9205 H   0  0  0  0  0  0  0  0  0  0  0  0
   12.5054  -15.2349   -0.9649 H   0  0  0  0  0  0  0  0  0  0  0  0
  1  2  1  0
  2  3  1  0
  3  4  2  0
  4  5  1  0
  5  6  2  0
  6  7  1  0
  7  8  1  0
  8  9  2  0
  9 10  1  0
 10 11  2  0
 11 12  1  0
 12 13  1  0
 13 14  1  0
 14 15  1  0
 15 16  1  0
 16 17  1  0
 11 18  1  0
 18 19  2  0
  6 20  1  0
 20 21  2  0
 21 22  1  0
 22 23  2  0
 23 24  1  0
 24 25  2  0
 25 26  1  0
 26 27  2  0
 26 28  1  0
 28 29  1  0
 29 30  1  0
 30 31  3  0
 25 32  1  0
 32 33  2  0
 21  3  1  0
 33 22  1  0
 19  8  1  0
 17 12  1  0
  1 34  1  0
  1 35  1  0
  1 36  1  0
  4 37  1  0
  7 38  1  0
  9 39  1  0
 10 40  1  0
 13 41  1  0
 13 42  1  0
 14 43  1  0
 14 44  1  0
 16 45  1  0
 16 46  1  0
 17 47  1  0
 17 48  1  0
 18 49  1  0
 19 50  1  0
 23 51  1  0
 24 52  1  0
 28 53  1  0
 29 54  1  0
 29 55  1  0
 32 56  1  0
 33 57  1  0
M  END
>  <meeko>  (4) 
{"is_sidechain": [false], "free_energy": -7.329, "intermolecular_energy": -10.186, "internal_energy": -0.962}

$$$$
LIB_PQAPIAXNANSJSC__M_PUB_ALL__e8__s20260927
     RDKit          3D

 57 60  0  0  0  0  0  0  0  0999 V2000
    4.0790  -11.4320   -4.3990 C   0  0  0  0  0  0  0  0  0  0  0  0
    4.5920  -11.9760   -3.1890 O   0  0  0  0  0  0  0  0  0  0  0  0
    3.7330  -12.0870   -2.1380 C   0  0  0  0  0  0  0  0  0  0  0  0
    2.3580  -12.1180   -2.2130 C   0  0  0  0  0  0  0  0  0  0  0  0
    1.5380  -12.2050   -1.1440 N   0  0  0  0  0  0  0  0  0  0  0  0
    2.1050  -12.2630    0.0650 C   0  0  0  0  0  0  0  0  0  0  0  0
    1.3560  -12.3580    1.2340 N   0  0  0  0  0  0  0  0  0  0  0  0
    0.6090  -13.3750    1.8320 C   0  0  0  0  0  0  0  0  0  0  0  0
   -0.4480  -13.1580    2.7120 C   0  0  0  0  0  0  0  0  0  0  0  0
   -1.1590  -14.2290    3.2800 C   0  0  0  0  0  0  0  0  0  0  0  0
   -0.8530  -15.5620    2.9870 C   0  0  0  0  0  0  0  0  0  0  0  0
   -1.5400  -16.6350    3.5420 N   0  0  0  0  0  0  0  0  0  0  0  0
   -1.0970  -17.2240    4.8180 C   0  0  0  0  0  0  0  0  0  0  0  0
   -1.6910  -18.6300    4.9970 C   0  0  0  0  0  0  0  0  0  0  0  0
   -3.1220  -18.6190    4.8800 O   0  0  0  0  0  0  0  0  0  0  0  0
   -3.4980  -18.1500    3.5770 C   0  0  0  0  0  0  0  0  0  0  0  0
   -2.9970  -16.7210    3.3150 C   0  0  0  0  0  0  0  0  0  0  0  0
    0.2180  -15.7730    2.1090 C   0  0  0  0  0  0  0  0  0  0  0  0
    0.9310  -14.7060    1.5420 C   0  0  0  0  0  0  0  0  0  0  0  0
    3.4330  -12.2370    0.2480 N   0  0  0  0  0  0  0  0  0  0  0  0
    4.2380  -12.1600   -0.8450 C   0  0  0  0  0  0  0  0  0  0  0  0
    5.6810  -12.1510   -0.5190 C   0  0  0  0  0  0  0  0  0  0  0  0
    6.5480  -13.1740   -0.9390 C   0  0  0  0  0  0  0  0  0  0  0  0
    7.9090  -13.1520   -0.6120 C   0  0  0  0  0  0  0  0  0  0  0  0
    8.4330  -12.1110    0.1600 C   0  0  0  0  0  0  0  0  0  0  0  0
    9.8850  -12.1330    0.4820 C   0  0  0  0  0  0  0  0  0  0  0  0
   10.2630  -12.3120    1.6350 O   0  0  0  0  0  0  0  0  0  0  0  0
   10.7540  -11.9140   -0.5620 N   0  0  0  0  0  0  0  0  0  0  0  0
   12.1890  -11.8700   -0.3440 C   0  0  0  0  0  0  0  0  0  0  0  0
   12.6210  -10.5710    0.2000 C   0  0  0  0  0  0  0  0  0  0  0  0
   12.9670   -9.5330    0.5910 N   0  0  0  0  0  0  0  0  0  0  0  0
    7.5900  -11.0800    0.5840 C   0  0  0  0  0  0  0  0  0  0  0  0
    6.2300  -11.1080    0.2510 C   0  0  0  0  0  0  0  0  0  0  0  0
    3.3415  -10.6499   -4.1657 H   0  0  0  0  0  0  0  0  0  0  0  0
    4.9028  -10.9965   -4.9835 H   0  0  0  0  0  0  0  0  0  0  0  0
    3.5960  -12.2289   -4.9835 H   0  0  0  0  0  0  0  0  0  0  0  0
    1.8972  -12.0686   -3.2106 H   0  0  0  0  0  0  0  0  0  0  0  0
    1.4010  -11.4770    1.7220 H   0  0  0  0  0  0  0  0  0  0  0  0
   -0.7325  -12.1267    2.9680 H   0  0  0  0  0  0  0  0  0  0  0  0
   -1.9820  -14.0121    3.9769 H   0  0  0  0  0  0  0  0  0  0  0  0
    0.0009  -17.2915    4.8237 H   0  0  0  0  0  0  0  0  0  0  0  0
   -1.4420  -16.5844    5.6438 H   0  0  0  0  0  0  0  0  0  0  0  0
   -1.2750  -19.2940    4.2250 H   0  0  0  0  0  0  0  0  0  0  0  0
   -1.4313  -18.9871    6.0045 H   0  0  0  0  0  0  0  0  0  0  0  0
   -3.0681  -18.8219    2.8196 H   0  0  0  0  0  0  0  0  0  0  0  0
   -4.5966  -18.1412    3.5220 H   0  0  0  0  0  0  0  0  0  0  0  0
   -3.2182  -16.4449    2.2734 H   0  0  0  0  0  0  0  0  0  0  0  0
   -3.5063  -16.0327    4.0055 H   0  0  0  0  0  0  0  0  0  0  0  0
    0.5080  -16.8038    1.8572 H   0  0  0  0  0  0  0  0  0  0  0  0
    1.7620  -14.9203    0.8539 H   0  0  0  0  0  0  0  0  0  0  0  0
    6.1498  -14.0077   -1.5359 H   0  0  0  0  0  0  0  0  0  0  0  0
    8.5695  -13.9580   -0.9643 H   0  0  0  0  0  0  0  0  0  0  0  0
   10.4010  -11.6430   -1.4690 H   0  0  0  0  0  0  0  0  0  0  0  0
   12.4655  -12.6630    0.3664 H   0  0  0  0  0  0  0  0  0  0  0  0
   12.6865  -12.0165   -1.3141 H   0  0  0  0  0  0  0  0  0  0  0  0
    7.9943  -10.2475    1.1786 H   0  0  0  0  0  0  0  0  0  0  0  0
    5.5751  -10.2957    0.5994 H   0  0  0  0  0  0  0  0  0  0  0  0
  1  2  1  0
  2  3  1  0
  3  4  2  0
  4  5  1  0
  5  6  2  0
  6  7  1  0
  7  8  1  0
  8  9  2  0
  9 10  1  0
 10 11  2  0
 11 12  1  0
 12 13  1  0
 13 14  1  0
 14 15  1  0
 15 16  1  0
 16 17  1  0
 11 18  1  0
 18 19  2  0
  6 20  1  0
 20 21  2  0
 21 22  1  0
 22 23  2  0
 23 24  1  0
 24 25  2  0
 25 26  1  0
 26 27  2  0
 26 28  1  0
 28 29  1  0
 29 30  1  0
 30 31  3  0
 25 32  1  0
 32 33  2  0
 21  3  1  0
 33 22  1  0
 19  8  1  0
 17 12  1  0
  1 34  1  0
  1 35  1  0
  1 36  1  0
  4 37  1  0
  7 38  1  0
  9 39  1  0
 10 40  1  0
 13 41  1  0
 13 42  1  0
 14 43  1  0
 14 44  1  0
 16 45  1  0
 16 46  1  0
 17 47  1  0
 17 48  1  0
 18 49  1  0
 19 50  1  0
 23 51  1  0
 24 52  1  0
 28 53  1  0
 29 54  1  0
 29 55  1  0
 32 56  1  0
 33 57  1  0
M  END
>  <meeko>  (5) 
{"is_sidechain": [false], "free_energy": -7.318, "intermolecular_energy": -10.461, "internal_energy": -0.67}

$$$$
LIB_PQAPIAXNANSJSC__M_PUB_ALL__e8__s20260927
     RDKit          3D

 57 60  0  0  0  0  0  0  0  0999 V2000
    0.7700  -14.3700   -4.7680 C   0  0  0  0  0  0  0  0  0  0  0  0
    1.6970  -13.3030   -4.6090 O   0  0  0  0  0  0  0  0  0  0  0  0
    2.9130  -13.6040   -4.0730 C   0  0  0  0  0  0  0  0  0  0  0  0
    3.8910  -14.3770   -4.6600 C   0  0  0  0  0  0  0  0  0  0  0  0
    5.0750  -14.6730   -4.0860 N   0  0  0  0  0  0  0  0  0  0  0  0
    5.3080  -14.1840   -2.8650 C   0  0  0  0  0  0  0  0  0  0  0  0
    6.4960  -14.4240   -2.1810 N   0  0  0  0  0  0  0  0  0  0  0  0
    7.8360  -14.1060   -2.4160 C   0  0  0  0  0  0  0  0  0  0  0  0
    8.8780  -15.0300   -2.3830 C   0  0  0  0  0  0  0  0  0  0  0  0
   10.2070  -14.6440   -2.6280 C   0  0  0  0  0  0  0  0  0  0  0  0
   10.5510  -13.3210   -2.9270 C   0  0  0  0  0  0  0  0  0  0  0  0
   11.8600  -12.9170   -3.1670 N   0  0  0  0  0  0  0  0  0  0  0  0
   12.6090  -12.1720   -2.1410 C   0  0  0  0  0  0  0  0  0  0  0  0
   13.8130  -11.4540   -2.7710 C   0  0  0  0  0  0  0  0  0  0  0  0
   14.6560  -12.3650   -3.4940 O   0  0  0  0  0  0  0  0  0  0  0  0
   13.9080  -12.9760   -4.5560 C   0  0  0  0  0  0  0  0  0  0  0  0
   12.7050  -13.7710   -4.0260 C   0  0  0  0  0  0  0  0  0  0  0  0
    9.5000  -12.3960   -2.9480 C   0  0  0  0  0  0  0  0  0  0  0  0
    8.1730  -12.7780   -2.7010 C   0  0  0  0  0  0  0  0  0  0  0  0
    4.4220  -13.4240   -2.2040 N   0  0  0  0  0  0  0  0  0  0  0  0
    3.2410  -13.1300   -2.8090 C   0  0  0  0  0  0  0  0  0  0  0  0
    2.3520  -12.2760   -1.9900 C   0  0  0  0  0  0  0  0  0  0  0  0
    1.7220  -12.7530   -0.8270 C   0  0  0  0  0  0  0  0  0  0  0  0
    0.8780  -11.9320   -0.0710 C   0  0  0  0  0  0  0  0  0  0  0  0
    0.6300  -10.6150   -0.4700 C   0  0  0  0  0  0  0  0  0  0  0  0
   -0.2750   -9.7820    0.3680 C   0  0  0  0  0  0  0  0  0  0  0  0
    0.1210   -8.7280    0.8510 O   0  0  0  0  0  0  0  0  0  0  0  0
   -1.5430  -10.2730    0.5840 N   0  0  0  0  0  0  0  0  0  0  0  0
   -2.4880   -9.5590    1.4240 C   0  0  0  0  0  0  0  0  0  0  0  0
   -1.9680   -9.3620    2.7880 C   0  0  0  0  0  0  0  0  0  0  0  0
   -1.5740   -9.2410    3.8750 N   0  0  0  0  0  0  0  0  0  0  0  0
    1.2510  -10.1180   -1.6190 C   0  0  0  0  0  0  0  0  0  0  0  0
    2.0950  -10.9450   -2.3700 C   0  0  0  0  0  0  0  0  0  0  0  0
    0.4550  -14.7326   -3.7784 H   0  0  0  0  0  0  0  0  0  0  0  0
   -0.1090  -14.0123   -5.3243 H   0  0  0  0  0  0  0  0  0  0  0  0
    1.2471  -15.1903   -5.3243 H   0  0  0  0  0  0  0  0  0  0  0  0
    3.6928  -14.7797   -5.6642 H   0  0  0  0  0  0  0  0  0  0  0  0
    6.2880  -14.9340   -1.3360 H   0  0  0  0  0  0  0  0  0  0  0  0
    8.6559  -16.0841   -2.1605 H   0  0  0  0  0  0  0  0  0  0  0  0
   11.0004  -15.4046   -2.5834 H   0  0  0  0  0  0  0  0  0  0  0  0
   11.9453  -11.4275   -1.6771 H   0  0  0  0  0  0  0  0  0  0  0  0
   12.9733  -12.8795   -1.3816 H   0  0  0  0  0  0  0  0  0  0  0  0
   13.4456  -10.6823   -3.4635 H   0  0  0  0  0  0  0  0  0  0  0  0
   14.4074  -11.0060   -1.9611 H   0  0  0  0  0  0  0  0  0  0  0  0
   13.5438  -12.1891   -5.2329 H   0  0  0  0  0  0  0  0  0  0  0  0
   14.5735  -13.6757   -5.0828 H   0  0  0  0  0  0  0  0  0  0  0  0
   12.1078  -14.1337   -4.8756 H   0  0  0  0  0  0  0  0  0  0  0  0
   13.0731  -14.6204   -3.4319 H   0  0  0  0  0  0  0  0  0  0  0  0
    9.7211  -11.3404   -3.1642 H   0  0  0  0  0  0  0  0  0  0  0  0
    7.3796  -12.0167   -2.7320 H   0  0  0  0  0  0  0  0  0  0  0  0
    1.8958  -13.7905   -0.5056 H   0  0  0  0  0  0  0  0  0  0  0  0
    0.4070  -12.3248    0.8422 H   0  0  0  0  0  0  0  0  0  0  0  0
   -1.7870  -11.2040    0.2750 H   0  0  0  0  0  0  0  0  0  0  0  0
   -2.6910   -8.5756    0.9750 H   0  0  0  0  0  0  0  0  0  0  0  0
   -3.4067  -10.1601    1.4921 H   0  0  0  0  0  0  0  0  0  0  0  0
    1.0769   -9.0783   -1.9330 H   0  0  0  0  0  0  0  0  0  0  0  0
    2.5687  -10.5452   -3.2787 H   0  0  0  0  0  0  0  0  0  0  0  0
  1  2  1  0
  2  3  1  0
  3  4  2  0
  4  5  1  0
  5  6  2  0
  6  7  1  0
  7  8  1  0
  8  9  2  0
  9 10  1  0
 10 11  2  0
 11 12  1  0
 12 13  1  0
 13 14  1  0
 14 15  1  0
 15 16  1  0
 16 17  1  0
 11 18  1  0
 18 19  2  0
  6 20  1  0
 20 21  2  0
 21 22  1  0
 22 23  2  0
 23 24  1  0
 24 25  2  0
 25 26  1  0
 26 27  2  0
 26 28  1  0
 28 29  1  0
 29 30  1  0
 30 31  3  0
 25 32  1  0
 32 33  2  0
 21  3  1  0
 33 22  1  0
 19  8  1  0
 17 12  1  0
  1 34  1  0
  1 35  1  0
  1 36  1  0
  4 37  1  0
  7 38  1  0
  9 39  1  0
 10 40  1  0
 13 41  1  0
 13 42  1  0
 14 43  1  0
 14 44  1  0
 16 45  1  0
 16 46  1  0
 17 47  1  0
 17 48  1  0
 18 49  1  0
 19 50  1  0
 23 51  1  0
 24 52  1  0
 28 53  1  0
 29 54  1  0
 29 55  1  0
 32 56  1  0
 33 57  1  0
M  END
>  <meeko>  (6) 
{"is_sidechain": [false], "free_energy": -7.265, "intermolecular_energy": -10.584, "internal_energy": -0.472}

$$$$
LIB_PQAPIAXNANSJSC__M_PUB_ALL__e8__s20260927
     RDKit          3D

 57 60  0  0  0  0  0  0  0  0999 V2000
    6.8970  -11.0950   -2.0750 C   0  0  0  0  0  0  0  0  0  0  0  0
    6.4320  -11.9000   -3.1520 O   0  0  0  0  0  0  0  0  0  0  0  0
    5.3170  -12.6510   -2.9370 C   0  0  0  0  0  0  0  0  0  0  0  0
    4.6630  -12.8090   -1.7340 C   0  0  0  0  0  0  0  0  0  0  0  0
    3.5720  -13.5820   -1.5560 N   0  0  0  0  0  0  0  0  0  0  0  0
    3.1010  -14.2390   -2.6200 C   0  0  0  0  0  0  0  0  0  0  0  0
    1.9810  -15.0620   -2.5500 N   0  0  0  0  0  0  0  0  0  0  0  0
    1.1210  -15.4510   -1.5200 C   0  0  0  0  0  0  0  0  0  0  0  0
    1.4250  -16.4210   -0.5690 C   0  0  0  0  0  0  0  0  0  0  0  0
    0.5120  -16.7660    0.4430 C   0  0  0  0  0  0  0  0  0  0  0  0
   -0.7390  -16.1500    0.5540 C   0  0  0  0  0  0  0  0  0  0  0  0
   -1.6580  -16.4810    1.5440 N   0  0  0  0  0  0  0  0  0  0  0  0
   -1.6940  -17.8440    2.1020 C   0  0  0  0  0  0  0  0  0  0  0  0
   -3.0330  -18.1000    2.8100 C   0  0  0  0  0  0  0  0  0  0  0  0
   -3.3040  -17.1050    3.8090 O   0  0  0  0  0  0  0  0  0  0  0  0
   -3.3760  -15.8090    3.1950 C   0  0  0  0  0  0  0  0  0  0  0  0
   -2.0590  -15.4300    2.5010 C   0  0  0  0  0  0  0  0  0  0  0  0
   -1.0420  -15.1830   -0.4120 C   0  0  0  0  0  0  0  0  0  0  0  0
   -0.1340  -14.8380   -1.4240 C   0  0  0  0  0  0  0  0  0  0  0  0
    3.6640  -14.1580   -3.8340 N   0  0  0  0  0  0  0  0  0  0  0  0
    4.7560  -13.3620   -3.9900 C   0  0  0  0  0  0  0  0  0  0  0  0
    5.2810  -13.3430   -5.3730 C   0  0  0  0  0  0  0  0  0  0  0  0
    6.2350  -14.2710   -5.8240 C   0  0  0  0  0  0  0  0  0  0  0  0
    6.7270  -14.2310   -7.1340 C   0  0  0  0  0  0  0  0  0  0  0  0
    6.2840  -13.2470   -8.0230 C   0  0  0  0  0  0  0  0  0  0  0  0
    6.8370  -13.2450   -9.4050 C   0  0  0  0  0  0  0  0  0  0  0  0
    6.3530  -13.9690  -10.2680 O   0  0  0  0  0  0  0  0  0  0  0  0
    7.9150  -12.4230   -9.6390 N   0  0  0  0  0  0  0  0  0  0  0  0
    8.5560  -12.3830  -10.9410 C   0  0  0  0  0  0  0  0  0  0  0  0
    8.7000  -11.0050  -11.4390 C   0  0  0  0  0  0  0  0  0  0  0  0
    8.7780   -9.9200  -11.8490 N   0  0  0  0  0  0  0  0  0  0  0  0
    5.3310  -12.3170   -7.5990 C   0  0  0  0  0  0  0  0  0  0  0  0
    4.8430  -12.3650   -6.2880 C   0  0  0  0  0  0  0  0  0  0  0  0
    6.6242  -11.5673   -1.1198 H   0  0  0  0  0  0  0  0  0  0  0  0
    7.9909  -10.9969   -2.1363 H   0  0  0  0  0  0  0  0  0  0  0  0
    6.4355  -10.0984   -2.1363 H   0  0  0  0  0  0  0  0  0  0  0  0
    5.0571  -12.2686   -0.8607 H   0  0  0  0  0  0  0  0  0  0  0  0
    1.7850  -15.4250   -3.4700 H   0  0  0  0  0  0  0  0  0  0  0  0
    2.4002  -16.9283   -0.6101 H   0  0  0  0  0  0  0  0  0  0  0  0
    0.7898  -17.5439    1.1695 H   0  0  0  0  0  0  0  0  0  0  0  0
   -1.5704  -18.5723    1.2869 H   0  0  0  0  0  0  0  0  0  0  0  0
   -0.8789  -17.9510    2.8328 H   0  0  0  0  0  0  0  0  0  0  0  0
   -3.8401  -18.0841    2.0628 H   0  0  0  0  0  0  0  0  0  0  0  0
   -2.9761  -19.0793    3.3078 H   0  0  0  0  0  0  0  0  0  0  0  0
   -4.1832  -15.8139    2.4477 H   0  0  0  0  0  0  0  0  0  0  0  0
   -3.5709  -15.0681    3.9844 H   0  0  0  0  0  0  0  0  0  0  0  0
   -2.1942  -14.4812    1.9611 H   0  0  0  0  0  0  0  0  0  0  0  0
   -1.2729  -15.3237    3.2630 H   0  0  0  0  0  0  0  0  0  0  0  0
   -2.0195  -14.6797   -0.3764 H   0  0  0  0  0  0  0  0  0  0  0  0
   -0.4143  -14.0687   -2.1585 H   0  0  0  0  0  0  0  0  0  0  0  0
    6.6026  -15.0445   -5.1337 H   0  0  0  0  0  0  0  0  0  0  0  0
    7.4649  -14.9765   -7.4652 H   0  0  0  0  0  0  0  0  0  0  0  0
    8.3630  -11.9410   -8.8710 H   0  0  0  0  0  0  0  0  0  0  0  0
    9.5541  -12.8383  -10.8603 H   0  0  0  0  0  0  0  0  0  0  0  0
    7.9237  -12.9377  -11.6499 H   0  0  0  0  0  0  0  0  0  0  0  0
    4.9647  -11.5479   -8.2949 H   0  0  0  0  0  0  0  0  0  0  0  0
    4.0998  -11.6215   -5.9643 H   0  0  0  0  0  0  0  0  0  0  0  0
  1  2  1  0
  2  3  1  0
  3  4  2  0
  4  5  1  0
  5  6  2  0
  6  7  1  0
  7  8  1  0
  8  9  2  0
  9 10  1  0
 10 11  2  0
 11 12  1  0
 12 13  1  0
 13 14  1  0
 14 15  1  0
 15 16  1  0
 16 17  1  0
 11 18  1  0
 18 19  2  0
  6 20  1  0
 20 21  2  0
 21 22  1  0
 22 23  2  0
 23 24  1  0
 24 25  2  0
 25 26  1  0
 26 27  2  0
 26 28  1  0
 28 29  1  0
 29 30  1  0
 30 31  3  0
 25 32  1  0
 32 33  2  0
 21  3  1  0
 33 22  1  0
 19  8  1  0
 17 12  1  0
  1 34  1  0
  1 35  1  0
  1 36  1  0
  4 37  1  0
  7 38  1  0
  9 39  1  0
 10 40  1  0
 13 41  1  0
 13 42  1  0
 14 43  1  0
 14 44  1  0
 16 45  1  0
 16 46  1  0
 17 47  1  0
 17 48  1  0
 18 49  1  0
 19 50  1  0
 23 51  1  0
 24 52  1  0
 28 53  1  0
 29 54  1  0
 29 55  1  0
 32 56  1  0
 33 57  1  0
M  END
>  <meeko>  (7) 
{"is_sidechain": [false], "free_energy": -7.216, "intermolecular_energy": -10.149, "internal_energy": -0.839}

$$$$
LIB_PQAPIAXNANSJSC__M_PUB_ALL__e8__s20260927
     RDKit          3D

 57 60  0  0  0  0  0  0  0  0999 V2000
   13.2050  -10.9410   -0.1740 C   0  0  0  0  0  0  0  0  0  0  0  0
   12.6190  -12.1480    0.3000 O   0  0  0  0  0  0  0  0  0  0  0  0
   11.2640  -12.2570    0.2260 C   0  0  0  0  0  0  0  0  0  0  0  0
   10.3570  -11.7400    1.1260 C   0  0  0  0  0  0  0  0  0  0  0  0
    9.0190  -11.8900    1.0310 N   0  0  0  0  0  0  0  0  0  0  0  0
    8.5490  -12.5910   -0.0050 C   0  0  0  0  0  0  0  0  0  0  0  0
    7.1890  -12.8050   -0.2020 N   0  0  0  0  0  0  0  0  0  0  0  0
    6.2810  -13.7710    0.2400 C   0  0  0  0  0  0  0  0  0  0  0  0
    6.5820  -15.1240    0.3770 C   0  0  0  0  0  0  0  0  0  0  0  0
    5.6200  -16.0460    0.8270 C   0  0  0  0  0  0  0  0  0  0  0  0
    4.3210  -15.6550    1.1690 C   0  0  0  0  0  0  0  0  0  0  0  0
    3.3540  -16.5510    1.6100 N   0  0  0  0  0  0  0  0  0  0  0  0
    1.9610  -16.1110    1.7960 C   0  0  0  0  0  0  0  0  0  0  0  0
    1.2010  -17.0980    2.6960 C   0  0  0  0  0  0  0  0  0  0  0  0
    1.2760  -18.4410    2.1930 O   0  0  0  0  0  0  0  0  0  0  0  0
    2.6470  -18.8630    2.1430 C   0  0  0  0  0  0  0  0  0  0  0  0
    3.4890  -17.9690    1.2200 C   0  0  0  0  0  0  0  0  0  0  0  0
    4.0230  -14.2950    1.0180 C   0  0  0  0  0  0  0  0  0  0  0  0
    4.9800  -13.3730    0.5670 C   0  0  0  0  0  0  0  0  0  0  0  0
    9.3450  -13.1390   -0.9340 N   0  0  0  0  0  0  0  0  0  0  0  0
   10.6890  -12.9630   -0.8230 C   0  0  0  0  0  0  0  0  0  0  0  0
   11.4610  -13.6020   -1.9110 C   0  0  0  0  0  0  0  0  0  0  0  0
   11.7570  -12.9310   -3.1110 C   0  0  0  0  0  0  0  0  0  0  0  0
   12.4810  -13.5570   -4.1330 C   0  0  0  0  0  0  0  0  0  0  0  0
   12.9140  -14.8770   -3.9840 C   0  0  0  0  0  0  0  0  0  0  0  0
   13.6800  -15.4980   -5.0990 C   0  0  0  0  0  0  0  0  0  0  0  0
   13.7930  -16.7170   -5.1720 O   0  0  0  0  0  0  0  0  0  0  0  0
   14.2640  -14.6400   -6.0030 N   0  0  0  0  0  0  0  0  0  0  0  0
   15.0700  -15.1430   -7.1000 C   0  0  0  0  0  0  0  0  0  0  0  0
   14.3140  -15.1810   -8.3630 C   0  0  0  0  0  0  0  0  0  0  0  0
   13.7060  -15.2480   -9.3510 N   0  0  0  0  0  0  0  0  0  0  0  0
   12.6380  -15.5620   -2.7980 C   0  0  0  0  0  0  0  0  0  0  0  0
   11.9140  -14.9290   -1.7800 C   0  0  0  0  0  0  0  0  0  0  0  0
   13.5069  -10.3192    0.6817 H   0  0  0  0  0  0  0  0  0  0  0  0
   14.0885  -11.1776   -0.7851 H   0  0  0  0  0  0  0  0  0  0  0  0
   12.4726  -10.3931   -0.7851 H   0  0  0  0  0  0  0  0  0  0  0  0
   10.7499  -11.1668    1.9787 H   0  0  0  0  0  0  0  0  0  0  0  0
    6.8250  -12.0730   -0.7920 H   0  0  0  0  0  0  0  0  0  0  0  0
    7.5930  -15.4788    0.1281 H   0  0  0  0  0  0  0  0  0  0  0  0
    5.8974  -17.1070    0.9127 H   0  0  0  0  0  0  0  0  0  0  0  0
    1.9551  -15.1157    2.2643 H   0  0  0  0  0  0  0  0  0  0  0  0
    1.4663  -16.0709    0.8144 H   0  0  0  0  0  0  0  0  0  0  0  0
    1.6386  -17.0702    3.7048 H   0  0  0  0  0  0  0  0  0  0  0  0
    0.1429  -16.7982    2.7170 H   0  0  0  0  0  0  0  0  0  0  0  0
    3.0686  -18.8228    3.1582 H   0  0  0  0  0  0  0  0  0  0  0  0
    2.6738  -19.8871    1.7424 H   0  0  0  0  0  0  0  0  0  0  0  0
    4.5456  -18.2658    1.2938 H   0  0  0  0  0  0  0  0  0  0  0  0
    3.1329  -18.0893    0.1862 H   0  0  0  0  0  0  0  0  0  0  0  0
    3.0105  -13.9395    1.2597 H   0  0  0  0  0  0  0  0  0  0  0  0
    4.7011  -12.3135    0.4683 H   0  0  0  0  0  0  0  0  0  0  0  0
   11.4134  -11.8952   -3.2493 H   0  0  0  0  0  0  0  0  0  0  0  0
   12.7100  -13.0069   -5.0576 H   0  0  0  0  0  0  0  0  0  0  0  0
   14.2550  -13.6430   -5.8350 H   0  0  0  0  0  0  0  0  0  0  0  0
   15.9446  -14.4883   -7.2284 H   0  0  0  0  0  0  0  0  0  0  0  0
   15.3771  -16.1704   -6.8549 H   0  0  0  0  0  0  0  0  0  0  0  0
   12.9885  -16.5960   -2.6642 H   0  0  0  0  0  0  0  0  0  0  0  0
   11.6937  -15.4821   -0.8550 H   0  0  0  0  0  0  0  0  0  0  0  0
  1  2  1  0
  2  3  1  0
  3  4  2  0
  4  5  1  0
  5  6  2  0
  6  7  1  0
  7  8  1  0
  8  9  2  0
  9 10  1  0
 10 11  2  0
 11 12  1  0
 12 13  1  0
 13 14  1  0
 14 15  1  0
 15 16  1  0
 16 17  1  0
 11 18  1  0
 18 19  2  0
  6 20  1  0
 20 21  2  0
 21 22  1  0
 22 23  2  0
 23 24  1  0
 24 25  2  0
 25 26  1  0
 26 27  2  0
 26 28  1  0
 28 29  1  0
 29 30  1  0
 30 31  3  0
 25 32  1  0
 32 33  2  0
 21  3  1  0
 33 22  1  0
 19  8  1  0
 17 12  1  0
  1 34  1  0
  1 35  1  0
  1 36  1  0
  4 37  1  0
  7 38  1  0
  9 39  1  0
 10 40  1  0
 13 41  1  0
 13 42  1  0
 14 43  1  0
 14 44  1  0
 16 45  1  0
 16 46  1  0
 17 47  1  0
 17 48  1  0
 18 49  1  0
 19 50  1  0
 23 51  1  0
 24 52  1  0
 28 53  1  0
 29 54  1  0
 29 55  1  0
 32 56  1  0
 33 57  1  0
M  END
>  <meeko>  (8) 
{"is_sidechain": [false], "free_energy": -7.2, "intermolecular_energy": -10.012, "internal_energy": -0.952}

$$$$
LIB_PQAPIAXNANSJSC__M_PUB_ALL__e8__s20260927
     RDKit          3D

 57 60  0  0  0  0  0  0  0  0999 V2000
    4.8680  -11.9520   -6.8970 C   0  0  0  0  0  0  0  0  0  0  0  0
    5.4730  -12.8510   -5.9760 O   0  0  0  0  0  0  0  0  0  0  0  0
    4.6910  -13.3460   -4.9770 C   0  0  0  0  0  0  0  0  0  0  0  0
    3.3680  -13.7160   -5.0890 C   0  0  0  0  0  0  0  0  0  0  0  0
    2.6180  -14.1810   -4.0680 N   0  0  0  0  0  0  0  0  0  0  0  0
    3.2010  -14.2840   -2.8700 C   0  0  0  0  0  0  0  0  0  0  0  0
    2.5230  -14.7530   -1.7500 N   0  0  0  0  0  0  0  0  0  0  0  0
    1.2860  -14.4630   -1.1690 C   0  0  0  0  0  0  0  0  0  0  0  0
    0.1040  -15.1380   -1.4620 C   0  0  0  0  0  0  0  0  0  0  0  0
   -1.1090  -14.7950   -0.8400 C   0  0  0  0  0  0  0  0  0  0  0  0
   -1.1920  -13.7700    0.1090 C   0  0  0  0  0  0  0  0  0  0  0  0
   -2.3830  -13.4120    0.7310 N   0  0  0  0  0  0  0  0  0  0  0  0
   -3.6740  -13.8550    0.1780 C   0  0  0  0  0  0  0  0  0  0  0  0
   -4.8200  -12.9930    0.7300 C   0  0  0  0  0  0  0  0  0  0  0  0
   -4.8280  -12.9790    2.1670 O   0  0  0  0  0  0  0  0  0  0  0  0
   -3.5950  -12.4290    2.6520 C   0  0  0  0  0  0  0  0  0  0  0  0
   -2.3810  -13.2540    2.1990 C   0  0  0  0  0  0  0  0  0  0  0  0
   -0.0020  -13.0890    0.3910 C   0  0  0  0  0  0  0  0  0  0  0  0
    1.2100  -13.4270   -0.2300 C   0  0  0  0  0  0  0  0  0  0  0  0
    4.4810  -13.9460   -2.6530 N   0  0  0  0  0  0  0  0  0  0  0  0
    5.2190  -13.4920   -3.7000 C   0  0  0  0  0  0  0  0  0  0  0  0
    6.6170  -13.1640   -3.3420 C   0  0  0  0  0  0  0  0  0  0  0  0
    7.1260  -11.8580   -3.4350 C   0  0  0  0  0  0  0  0  0  0  0  0
    8.4540  -11.5700   -3.0990 C   0  0  0  0  0  0  0  0  0  0  0  0
    9.3120  -12.5900   -2.6760 C   0  0  0  0  0  0  0  0  0  0  0  0
   10.7150  -12.2330   -2.3320 C   0  0  0  0  0  0  0  0  0  0  0  0
   11.5070  -11.9110   -3.2100 O   0  0  0  0  0  0  0  0  0  0  0  0
   11.0660  -12.3160   -1.0040 N   0  0  0  0  0  0  0  0  0  0  0  0
   12.4230  -12.0340   -0.5700 C   0  0  0  0  0  0  0  0  0  0  0  0
   12.5230  -10.7270    0.1020 C   0  0  0  0  0  0  0  0  0  0  0  0
   12.6100   -9.6790    0.5970 N   0  0  0  0  0  0  0  0  0  0  0  0
    8.8260  -13.8960   -2.5700 C   0  0  0  0  0  0  0  0  0  0  0  0
    7.4960  -14.1750   -2.9060 C   0  0  0  0  0  0  0  0  0  0  0  0
    4.3370  -11.1630   -6.3442 H   0  0  0  0  0  0  0  0  0  0  0  0
    5.6446  -11.4974   -7.5296 H   0  0  0  0  0  0  0  0  0  0  0  0
    4.1544  -12.5003   -7.5296 H   0  0  0  0  0  0  0  0  0  0  0  0
    2.8917  -13.6263   -6.0765 H   0  0  0  0  0  0  0  0  0  0  0  0
    3.0850  -15.4580   -1.3000 H   0  0  0  0  0  0  0  0  0  0  0  0
    0.1197  -15.9572   -2.1959 H   0  0  0  0  0  0  0  0  0  0  0  0
   -2.0208  -15.3492   -1.1074 H   0  0  0  0  0  0  0  0  0  0  0  0
   -3.6485  -13.7646   -0.9180 H   0  0  0  0  0  0  0  0  0  0  0  0
   -3.8448  -14.9022    0.4682 H   0  0  0  0  0  0  0  0  0  0  0  0
   -4.6998  -11.9627    0.3638 H   0  0  0  0  0  0  0  0  0  0  0  0
   -5.7713  -13.4245    0.3853 H   0  0  0  0  0  0  0  0  0  0  0  0
   -3.4894  -11.4026    2.2708 H   0  0  0  0  0  0  0  0  0  0  0  0
   -3.6251  -12.4432    3.7515 H   0  0  0  0  0  0  0  0  0  0  0  0
   -1.4585  -12.7398    2.5067 H   0  0  0  0  0  0  0  0  0  0  0  0
   -2.4331  -14.2493    2.6644 H   0  0  0  0  0  0  0  0  0  0  0  0
   -0.0174  -12.2655    1.1201 H   0  0  0  0  0  0  0  0  0  0  0  0
    2.1206  -12.8657    0.0265 H   0  0  0  0  0  0  0  0  0  0  0  0
    6.4683  -11.0460   -3.7785 H   0  0  0  0  0  0  0  0  0  0  0  0
    8.8244  -10.5365   -3.1680 H   0  0  0  0  0  0  0  0  0  0  0  0
   10.4220  -12.7080   -0.3310 H   0  0  0  0  0  0  0  0  0  0  0  0
   12.7432  -12.8196    0.1302 H   0  0  0  0  0  0  0  0  0  0  0  0
   13.0684  -12.0104   -1.4605 H   0  0  0  0  0  0  0  0  0  0  0  0
    9.4875  -14.7035   -2.2231 H   0  0  0  0  0  0  0  0  0  0  0  0
    7.1283  -15.2087   -2.8277 H   0  0  0  0  0  0  0  0  0  0  0  0
  1  2  1  0
  2  3  1  0
  3  4  2  0
  4  5  1  0
  5  6  2  0
  6  7  1  0
  7  8  1  0
  8  9  2  0
  9 10  1  0
 10 11  2  0
 11 12  1  0
 12 13  1  0
 13 14  1  0
 14 15  1  0
 15 16  1  0
 16 17  1  0
 11 18  1  0
 18 19  2  0
  6 20  1  0
 20 21  2  0
 21 22  1  0
 22 23  2  0
 23 24  1  0
 24 25  2  0
 25 26  1  0
 26 27  2  0
 26 28  1  0
 28 29  1  0
 29 30  1  0
 30 31  3  0
 25 32  1  0
 32 33  2  0
 21  3  1  0
 33 22  1  0
 19  8  1  0
 17 12  1  0
  1 34  1  0
  1 35  1  0
  1 36  1  0
  4 37  1  0
  7 38  1  0
  9 39  1  0
 10 40  1  0
 13 41  1  0
 13 42  1  0
 14 43  1  0
 14 44  1  0
 16 45  1  0
 16 46  1  0
 17 47  1  0
 17 48  1  0
 18 49  1  0
 19 50  1  0
 23 51  1  0
 24 52  1  0
 28 53  1  0
 29 54  1  0
 29 55  1  0
 32 56  1  0
 33 57  1  0
M  END
>  <meeko>  (9) 
{"is_sidechain": [false], "free_energy": -7.167, "intermolecular_energy": -10.165, "internal_energy": -0.754}

$$$$
