LIB_REZFVUNAFUHYBW__M_PUB_ALL__e8__s20260927
     RDKit          3D

 77 82  0  0  0  0  0  0  0  0999 V2000
    6.7340  -14.7080   -0.9640 C   0  0  0  0  0  0  0  0  0  0  0  0
    7.0080  -14.4300   -2.4200 C   0  0  0  0  0  0  0  0  0  0  0  0
    5.9270  -14.0630   -3.2350 C   0  0  0  0  0  0  0  0  0  0  0  0
    6.1000  -13.8340   -4.6010 C   0  0  0  0  0  0  0  0  0  0  0  0
    7.3640  -13.9480   -5.1750 C   0  0  0  0  0  0  0  0  0  0  0  0
    7.4750  -13.7140   -6.5600 N   0  0  0  0  0  0  0  0  0  0  0  0
    7.2720  -14.6270   -7.5700 C   0  0  0  0  0  0  0  0  0  0  0  0
    7.2100  -15.8530   -7.4530 O   0  0  0  0  0  0  0  0  0  0  0  0
    7.2230  -14.0390   -8.9360 C   0  0  0  0  0  0  0  0  0  0  0  0
    7.4160  -14.8230  -10.0750 C   0  0  0  0  0  0  0  0  0  0  0  0
    7.4240  -14.2210  -11.3360 C   0  0  0  0  0  0  0  0  0  0  0  0
    7.2580  -12.8390  -11.4610 C   0  0  0  0  0  0  0  0  0  0  0  0
    7.0680  -12.0410  -10.3260 C   0  0  0  0  0  0  0  0  0  0  0  0
    6.9310  -10.5430  -10.4230 C   0  0  0  0  0  0  0  0  0  0  0  0
    5.9620  -10.1010  -11.2570 F   0  0  0  0  0  0  0  0  0  0  0  0
    8.1020   -9.9650  -10.8570 F   0  0  0  0  0  0  0  0  0  0  0  0
    6.7080   -9.9640   -9.2110 F   0  0  0  0  0  0  0  0  0  0  0  0
    7.0390  -12.6580   -9.0630 C   0  0  0  0  0  0  0  0  0  0  0  0
    8.4420  -14.3350   -4.3770 C   0  0  0  0  0  0  0  0  0  0  0  0
    8.2930  -14.5340   -2.9900 C   0  0  0  0  0  0  0  0  0  0  0  0
    9.4230  -14.9890   -2.2540 N   0  0  0  0  0  0  0  0  0  0  0  0
   10.3170  -14.1530   -1.6530 C   0  0  0  0  0  0  0  0  0  0  0  0
   10.1470  -13.6370   -0.4600 N   0  0  0  0  0  0  0  0  0  0  0  0
   11.0730  -12.6330   -0.3650 C   0  0  0  0  0  0  0  0  0  0  0  0
   11.2530  -11.6990    0.6660 C   0  0  0  0  0  0  0  0  0  0  0  0
   12.2630  -10.7390    0.5400 C   0  0  0  0  0  0  0  0  0  0  0  0
   13.0830  -10.7140   -0.5870 C   0  0  0  0  0  0  0  0  0  0  0  0
   12.9280  -11.6470   -1.6190 C   0  0  0  0  0  0  0  0  0  0  0  0
   11.9020  -12.5980   -1.4860 C   0  0  0  0  0  0  0  0  0  0  0  0
   11.4980  -13.6910   -2.2390 N   0  0  0  0  0  0  0  0  0  0  0  0
   12.2060  -14.2730   -3.3320 C   0  0  0  0  0  0  0  0  0  0  0  0
   12.0850  -13.7170   -4.5880 C   0  0  0  0  0  0  0  0  0  0  0  0
   12.8280  -14.3060   -5.5820 C   0  0  0  0  0  0  0  0  0  0  0  0
   12.7940  -13.7140   -6.9130 N   0  0  0  0  0  0  0  0  0  0  0  0
   12.2650  -14.6180   -7.9800 C   0  0  2  0  0  0  0  0  0  0  0  0
   13.2640  -14.7340   -9.1520 C   0  0  0  0  0  0  0  0  0  0  0  0
   12.5650  -14.8720  -10.5080 C   0  0  0  0  0  0  0  0  0  0  0  0
   11.7630  -13.6090  -10.8250 C   0  0  1  0  0  0  0  0  0  0  0  0
   10.8340  -13.8780  -11.9500 N   0  0  0  0  0  0  0  0  0  0  0  0
   10.9900  -13.0770   -9.6070 C   0  0  0  0  0  0  0  0  0  0  0  0
   10.8940  -14.0900   -8.4590 C   0  0  0  0  0  0  0  0  0  0  0  0
   13.6170  -15.3640   -5.4070 N   0  0  0  0  0  0  0  0  0  0  0  0
   13.6270  -15.8700   -4.1660 C   0  0  0  0  0  0  0  0  0  0  0  0
   12.9410  -15.3840   -3.1270 N   0  0  0  0  0  0  0  0  0  0  0  0
    7.3705  -14.0622   -0.3413 H   0  0  0  0  0  0  0  0  0  0  0  0
    5.6761  -14.5019   -0.7441 H   0  0  0  0  0  0  0  0  0  0  0  0
    6.9554  -15.7628   -0.7441 H   0  0  0  0  0  0  0  0  0  0  0  0
    4.9268  -13.9539   -2.7905 H   0  0  0  0  0  0  0  0  0  0  0  0
    5.2361  -13.5629   -5.2257 H   0  0  0  0  0  0  0  0  0  0  0  0
    7.8150  -12.7910   -6.8210 H   0  0  0  0  0  0  0  0  0  0  0  0
    7.5611  -15.9093   -9.9802 H   0  0  0  0  0  0  0  0  0  0  0  0
    7.5618  -14.8386  -12.2357 H   0  0  0  0  0  0  0  0  0  0  0  0
    7.2767  -12.3747  -12.4580 H   0  0  0  0  0  0  0  0  0  0  0  0
    6.8696  -12.0475   -8.1638 H   0  0  0  0  0  0  0  0  0  0  0  0
    9.4279  -14.4877   -4.8404 H   0  0  0  0  0  0  0  0  0  0  0  0
    9.1460  -15.7660   -1.6490 H   0  0  0  0  0  0  0  0  0  0  0  0
   10.6107  -11.7210    1.5588 H   0  0  0  0  0  0  0  0  0  0  0  0
   12.4114   -9.9967    1.3381 H   0  0  0  0  0  0  0  0  0  0  0  0
   13.8669   -9.9464   -0.6669 H   0  0  0  0  0  0  0  0  0  0  0  0
   13.5849  -11.6361   -2.5013 H   0  0  0  0  0  0  0  0  0  0  0  0
   11.4323  -12.8532   -4.7824 H   0  0  0  0  0  0  0  0  0  0  0  0
   13.7590  -13.3570   -7.0790 H   0  0  0  0  0  0  0  0  0  0  0  0
   12.2350  -12.8570   -6.8470 H   0  0  0  0  0  0  0  0  0  0  0  0
   12.1333  -15.6292   -7.5676 H   0  0  0  0  0  0  0  0  0  0  0  0
   13.8931  -13.8318   -9.1697 H   0  0  0  0  0  0  0  0  0  0  0  0
   13.8633  -15.6423   -8.9913 H   0  0  0  0  0  0  0  0  0  0  0  0
   13.3213  -15.0274  -11.2915 H   0  0  0  0  0  0  0  0  0  0  0  0
   11.8785  -15.7306  -10.4699 H   0  0  0  0  0  0  0  0  0  0  0  0
   12.4798  -12.8251  -11.1109 H   0  0  0  0  0  0  0  0  0  0  0  0
   10.6920  -14.8940  -12.0840 H   0  0  0  0  0  0  0  0  0  0  0  0
   11.1410  -13.4960  -12.8550 H   0  0  0  0  0  0  0  0  0  0  0  0
    9.8920  -13.4970  -11.7710 H   0  0  0  0  0  0  0  0  0  0  0  0
   11.5005  -12.1761   -9.2358 H   0  0  0  0  0  0  0  0  0  0  0  0
    9.9635  -12.8643   -9.9403 H   0  0  0  0  0  0  0  0  0  0  0  0
   10.3924  -13.6047   -7.6087 H   0  0  0  0  0  0  0  0  0  0  0  0
   10.3317  -14.9552   -8.8400 H   0  0  0  0  0  0  0  0  0  0  0  0
   14.2510  -16.7582   -3.9880 H   0  0  0  0  0  0  0  0  0  0  0  0
  1  2  1  0
  2  3  2  0
  3  4  1  0
  4  5  2  0
  5  6  1  0
  6  7  1  0
  7  8  2  0
  7  9  1  0
  9 10  2  0
 10 11  1  0
 11 12  2  0
 12 13  1  0
 13 14  1  0
 14 15  1  0
 14 16  1  0
 14 17  1  0
 13 18  2  0
  5 19  1  0
 19 20  2  0
 20 21  1  0
 21 22  1  0
 22 23  2  0
 23 24  1  0
 24 25  2  0
 25 26  1  0
 26 27  2  0
 27 28  1  0
 28 29  2  0
 29 30  1  0
 30 31  1  0
 31 32  2  0
 32 33  1  0
 33 34  1  0
 34 35  1  0
 35 36  1  0
 36 37  1  0
 37 38  1  0
 38 39  1  0
 38 40  1  0
 40 41  1  0
 33 42  2  0
 42 43  1  0
 43 44  2  0
 20  2  1  0
 30 22  1  0
 44 31  1  0
 18  9  1  0
 29 24  1  0
 41 35  1  0
  1 45  1  0
  1 46  1  0
  1 47  1  0
  3 48  1  0
  4 49  1  0
  6 50  1  0
 10 51  1  0
 11 52  1  0
 12 53  1  0
 18 54  1  0
 19 55  1  0
 21 56  1  0
 25 57  1  0
 26 58  1  0
 27 59  1  0
 28 60  1  0
 32 61  1  0
 34 62  1  0
 34 63  1  0
 35 64  1  6
 36 65  1  0
 36 66  1  0
 37 67  1  0
 37 68  1  0
 38 69  1  1
 39 70  1  0
 39 71  1  0
 39 72  1  0
 40 73  1  0
 40 74  1  0
 41 75  1  0
 41 76  1  0
 43 77  1  0
M  CHG  2  34   1  39   1
M  END
>  <meeko>  (1) 
{"is_sidechain": [false], "free_energy": -9.608, "intermolecular_energy": -14.382, "internal_energy": -3.425}

$$$$
LIB_REZFVUNAFUHYBW__M_PUB_ALL__e8__s20260927
     RDKit          3D

 77 82  0  0  0  0  0  0  0  0999 V2000
   10.4600  -13.8760   -9.6500 C   0  0  0  0  0  0  0  0  0  0  0  0
   10.7400  -12.4990  -10.1950 C   0  0  0  0  0  0  0  0  0  0  0  0
    9.7300  -11.8670  -10.9360 C   0  0  0  0  0  0  0  0  0  0  0  0
    9.9360  -10.6100  -11.5090 C   0  0  0  0  0  0  0  0  0  0  0  0
   11.1510   -9.9520  -11.3340 C   0  0  0  0  0  0  0  0  0  0  0  0
   11.3030   -8.6910  -11.9420 N   0  0  0  0  0  0  0  0  0  0  0  0
   11.3980   -7.4740  -11.3070 C   0  0  0  0  0  0  0  0  0  0  0  0
   11.1140   -7.2340  -10.1310 O   0  0  0  0  0  0  0  0  0  0  0  0
   11.7940   -6.3430  -12.1890 C   0  0  0  0  0  0  0  0  0  0  0  0
   12.4590   -6.5610  -13.3980 C   0  0  0  0  0  0  0  0  0  0  0  0
   12.8690   -5.4690  -14.1680 C   0  0  0  0  0  0  0  0  0  0  0  0
   12.6320   -4.1640  -13.7270 C   0  0  0  0  0  0  0  0  0  0  0  0
   11.9710   -3.9330  -12.5140 C   0  0  0  0  0  0  0  0  0  0  0  0
   11.7420   -2.5400  -11.9890 C   0  0  0  0  0  0  0  0  0  0  0  0
   12.8440   -1.7580  -11.9140 F   0  0  0  0  0  0  0  0  0  0  0  0
   11.2080   -2.5690  -10.7220 F   0  0  0  0  0  0  0  0  0  0  0  0
   10.8180   -1.8560  -12.7200 F   0  0  0  0  0  0  0  0  0  0  0  0
   11.5430   -5.0370  -11.7570 C   0  0  0  0  0  0  0  0  0  0  0  0
   12.1700  -10.5830  -10.6180 C   0  0  0  0  0  0  0  0  0  0  0  0
   11.9670  -11.8340  -10.0010 C   0  0  0  0  0  0  0  0  0  0  0  0
   13.0720  -12.4420   -9.3430 N   0  0  0  0  0  0  0  0  0  0  0  0
   13.8380  -13.4210   -9.9040 C   0  0  0  0  0  0  0  0  0  0  0  0
   14.6310  -13.2290  -10.9300 N   0  0  0  0  0  0  0  0  0  0  0  0
   14.9540  -14.4830  -11.3760 C   0  0  0  0  0  0  0  0  0  0  0  0
   15.6960  -14.8480  -12.5100 C   0  0  0  0  0  0  0  0  0  0  0  0
   15.8870  -16.2060  -12.7850 C   0  0  0  0  0  0  0  0  0  0  0  0
   15.3560  -17.1820  -11.9430 C   0  0  0  0  0  0  0  0  0  0  0  0
   14.6260  -16.8370  -10.8000 C   0  0  0  0  0  0  0  0  0  0  0  0
   14.4310  -15.4700  -10.5420 C   0  0  0  0  0  0  0  0  0  0  0  0
   13.8430  -14.7590   -9.5050 N   0  0  0  0  0  0  0  0  0  0  0  0
   13.4200  -15.2890   -8.2500 C   0  0  0  0  0  0  0  0  0  0  0  0
   13.9030  -14.7340   -7.0840 C   0  0  0  0  0  0  0  0  0  0  0  0
   13.4190  -15.2700   -5.9170 C   0  0  0  0  0  0  0  0  0  0  0  0
   13.8400  -14.6740   -4.6550 N   0  0  0  0  0  0  0  0  0  0  0  0
   13.2530  -13.3270   -4.3790 C   0  0  2  0  0  0  0  0  0  0  0  0
   14.2360  -12.4490   -3.5750 C   0  0  0  0  0  0  0  0  0  0  0  0
   13.5220  -11.5220   -2.5860 C   0  0  0  0  0  0  0  0  0  0  0  0
   12.7930  -12.3400   -1.5200 C   0  0  1  0  0  0  0  0  0  0  0  0
   11.8440  -11.4680   -0.7850 N   0  0  0  0  0  0  0  0  0  0  0  0
   12.0610  -13.5590   -2.1050 C   0  0  0  0  0  0  0  0  0  0  0  0
   11.9120  -13.5030   -3.6310 C   0  0  0  0  0  0  0  0  0  0  0  0
   12.5530  -16.2800   -5.8520 N   0  0  0  0  0  0  0  0  0  0  0  0
   12.1840  -16.7920   -7.0340 C   0  0  0  0  0  0  0  0  0  0  0  0
   12.5950  -16.3550   -8.2280 N   0  0  0  0  0  0  0  0  0  0  0  0
   10.4666  -13.8435   -8.5505 H   0  0  0  0  0  0  0  0  0  0  0  0
    9.4744  -14.2158  -10.0009 H   0  0  0  0  0  0  0  0  0  0  0  0
   11.2347  -14.5737  -10.0009 H   0  0  0  0  0  0  0  0  0  0  0  0
    8.7604  -12.3695  -11.0678 H   0  0  0  0  0  0  0  0  0  0  0  0
    9.1368  -10.1386  -12.0998 H   0  0  0  0  0  0  0  0  0  0  0  0
   11.2610   -8.6890  -12.9590 H   0  0  0  0  0  0  0  0  0  0  0  0
   12.6589   -7.5865  -13.7421 H   0  0  0  0  0  0  0  0  0  0  0  0
   13.3812   -5.6376  -15.1267 H   0  0  0  0  0  0  0  0  0  0  0  0
   12.9671   -3.3122  -14.3371 H   0  0  0  0  0  0  0  0  0  0  0  0
   11.0037   -4.8716  -10.8126 H   0  0  0  0  0  0  0  0  0  0  0  0
   13.1516  -10.0938  -10.5336 H   0  0  0  0  0  0  0  0  0  0  0  0
   13.6330  -11.7220   -8.8810 H   0  0  0  0  0  0  0  0  0  0  0  0
   16.1204  -14.0786  -13.1717 H   0  0  0  0  0  0  0  0  0  0  0  0
   16.4614  -16.5066  -13.6737 H   0  0  0  0  0  0  0  0  0  0  0  0
   15.5139  -18.2441  -12.1817 H   0  0  0  0  0  0  0  0  0  0  0  0
   14.2199  -17.6078  -10.1284 H   0  0  0  0  0  0  0  0  0  0  0  0
   14.6326  -13.9108   -7.0888 H   0  0  0  0  0  0  0  0  0  0  0  0
   14.8820  -14.7030   -4.6720 H   0  0  0  0  0  0  0  0  0  0  0  0
   13.6000  -15.3400   -3.9140 H   0  0  0  0  0  0  0  0  0  0  0  0
   13.0653  -12.8090   -5.3311 H   0  0  0  0  0  0  0  0  0  0  0  0
   14.9173  -13.1055   -3.0140 H   0  0  0  0  0  0  0  0  0  0  0  0
   14.7813  -11.8167   -4.2911 H   0  0  0  0  0  0  0  0  0  0  0  0
   14.2634  -10.8712   -2.0994 H   0  0  0  0  0  0  0  0  0  0  0  0
   12.7870  -10.9140   -3.1338 H   0  0  0  0  0  0  0  0  0  0  0  0
   13.5524  -12.7323   -0.8277 H   0  0  0  0  0  0  0  0  0  0  0  0
   11.1840  -12.0280   -0.2190 H   0  0  0  0  0  0  0  0  0  0  0  0
   11.2780  -10.8550   -1.3880 H   0  0  0  0  0  0  0  0  0  0  0  0
   12.3280  -10.8570   -0.1090 H   0  0  0  0  0  0  0  0  0  0  0  0
   12.6268  -14.4651   -1.8425 H   0  0  0  0  0  0  0  0  0  0  0  0
   11.0470  -13.5654   -1.6788 H   0  0  0  0  0  0  0  0  0  0  0  0
   11.4458  -14.4402   -3.9692 H   0  0  0  0  0  0  0  0  0  0  0  0
   11.2962  -12.6213   -3.8622 H   0  0  0  0  0  0  0  0  0  0  0  0
   11.4855  -17.6417   -7.0203 H   0  0  0  0  0  0  0  0  0  0  0  0
  1  2  1  0
  2  3  2  0
  3  4  1  0
  4  5  2  0
  5  6  1  0
  6  7  1  0
  7  8  2  0
  7  9  1  0
  9 10  2  0
 10 11  1  0
 11 12  2  0
 12 13  1  0
 13 14  1  0
 14 15  1  0
 14 16  1  0
 14 17  1  0
 13 18  2  0
  5 19  1  0
 19 20  2  0
 20 21  1  0
 21 22  1  0
 22 23  2  0
 23 24  1  0
 24 25  2  0
 25 26  1  0
 26 27  2  0
 27 28  1  0
 28 29  2  0
 29 30  1  0
 30 31  1  0
 31 32  2  0
 32 33  1  0
 33 34  1  0
 34 35  1  0
 35 36  1  0
 36 37  1  0
 37 38  1  0
 38 39  1  0
 38 40  1  0
 40 41  1  0
 33 42  2  0
 42 43  1  0
 43 44  2  0
 20  2  1  0
 30 22  1  0
 44 31  1  0
 18  9  1  0
 29 24  1  0
 41 35  1  0
  1 45  1  0
  1 46  1  0
  1 47  1  0
  3 48  1  0
  4 49  1  0
  6 50  1  0
 10 51  1  0
 11 52  1  0
 12 53  1  0
 18 54  1  0
 19 55  1  0
 21 56  1  0
 25 57  1  0
 26 58  1  0
 27 59  1  0
 28 60  1  0
 32 61  1  0
 34 62  1  0
 34 63  1  0
 35 64  1  1
 36 65  1  0
 36 66  1  0
 37 67  1  0
 37 68  1  0
 38 69  1  6
 39 70  1  0
 39 71  1  0
 39 72  1  0
 40 73  1  0
 40 74  1  0
 41 75  1  0
 41 76  1  0
 43 77  1  0
M  CHG  2  34   1  39   1
M  END
>  <meeko>  (2) 
{"is_sidechain": [false], "free_energy": -9.263, "intermolecular_energy": -15.694, "internal_energy": -1.597}

$$$$
LIB_REZFVUNAFUHYBW__M_PUB_ALL__e8__s20260927
     RDKit          3D

 77 82  0  0  0  0  0  0  0  0999 V2000
    2.8820  -12.1910   -4.2970 C   0  0  0  0  0  0  0  0  0  0  0  0
    4.2850  -12.1990   -3.7470 C   0  0  0  0  0  0  0  0  0  0  0  0
    4.5670  -11.3710   -2.6490 C   0  0  0  0  0  0  0  0  0  0  0  0
    5.8540  -11.2950   -2.1170 C   0  0  0  0  0  0  0  0  0  0  0  0
    6.8830  -12.0610   -2.6600 C   0  0  0  0  0  0  0  0  0  0  0  0
    8.1630  -11.9350   -2.0860 N   0  0  0  0  0  0  0  0  0  0  0  0
    8.8160  -12.8670   -1.3110 C   0  0  0  0  0  0  0  0  0  0  0  0
    8.3140  -13.8550   -0.7700 O   0  0  0  0  0  0  0  0  0  0  0  0
   10.2470  -12.5600   -1.0470 C   0  0  0  0  0  0  0  0  0  0  0  0
   10.7080  -12.2830    0.2420 C   0  0  0  0  0  0  0  0  0  0  0  0
   12.0480  -11.9390    0.4380 C   0  0  0  0  0  0  0  0  0  0  0  0
   12.9230  -11.8540   -0.6480 C   0  0  0  0  0  0  0  0  0  0  0  0
   12.4720  -12.1240   -1.9470 C   0  0  0  0  0  0  0  0  0  0  0  0
   13.3780  -11.9970   -3.1440 C   0  0  0  0  0  0  0  0  0  0  0  0
   14.4850  -12.7760   -3.1200 F   0  0  0  0  0  0  0  0  0  0  0  0
   13.8240  -10.7050   -3.2930 F   0  0  0  0  0  0  0  0  0  0  0  0
   12.7320  -12.2600   -4.3130 F   0  0  0  0  0  0  0  0  0  0  0  0
   11.1280  -12.4920   -2.1320 C   0  0  0  0  0  0  0  0  0  0  0  0
    6.6180  -12.8700   -3.7670 C   0  0  0  0  0  0  0  0  0  0  0  0
    5.3170  -12.9880   -4.2940 C   0  0  0  0  0  0  0  0  0  0  0  0
    5.1370  -13.7810   -5.4610 N   0  0  0  0  0  0  0  0  0  0  0  0
    5.9180  -13.6730   -6.5740 C   0  0  0  0  0  0  0  0  0  0  0  0
    5.9730  -12.6010   -7.3260 N   0  0  0  0  0  0  0  0  0  0  0  0
    6.5920  -13.0010   -8.4810 C   0  0  0  0  0  0  0  0  0  0  0  0
    6.8140  -12.2690   -9.6570 C   0  0  0  0  0  0  0  0  0  0  0  0
    7.4580  -12.8940  -10.7300 C   0  0  0  0  0  0  0  0  0  0  0  0
    7.8800  -14.2190  -10.6320 C   0  0  0  0  0  0  0  0  0  0  0  0
    7.6800  -14.9600   -9.4610 C   0  0  0  0  0  0  0  0  0  0  0  0
    7.0220  -14.3250   -8.3950 C   0  0  0  0  0  0  0  0  0  0  0  0
    6.7150  -14.6960   -7.0930 N   0  0  0  0  0  0  0  0  0  0  0  0
    7.2020  -15.8470   -6.4060 C   0  0  0  0  0  0  0  0  0  0  0  0
    8.5550  -15.9740   -6.1740 C   0  0  0  0  0  0  0  0  0  0  0  0
    8.9430  -17.0880   -5.4720 C   0  0  0  0  0  0  0  0  0  0  0  0
   10.3540  -17.2370   -5.1350 N   0  0  0  0  0  0  0  0  0  0  0  0
   10.9590  -16.0460   -4.4630 C   0  0  2  0  0  0  0  0  0  0  0  0
   12.4870  -16.2110   -4.3170 C   0  0  0  0  0  0  0  0  0  0  0  0
   13.0250  -15.5820   -3.0270 C   0  0  0  0  0  0  0  0  0  0  0  0
   12.4540  -16.3010   -1.8050 C   0  0  1  0  0  0  0  0  0  0  0  0
   12.7020  -15.4890   -0.5880 N   0  0  0  0  0  0  0  0  0  0  0  0
   10.9540  -16.6110   -1.9470 C   0  0  0  0  0  0  0  0  0  0  0  0
   10.2810  -15.8400   -3.0890 C   0  0  0  0  0  0  0  0  0  0  0  0
    8.1120  -18.0330   -5.0360 N   0  0  0  0  0  0  0  0  0  0  0  0
    6.8240  -17.8530   -5.3580 C   0  0  0  0  0  0  0  0  0  0  0  0
    6.3360  -16.8130   -6.0410 N   0  0  0  0  0  0  0  0  0  0  0  0
    2.1621  -12.1869   -3.4653 H   0  0  0  0  0  0  0  0  0  0  0  0
    2.7350  -11.2920   -4.9136 H   0  0  0  0  0  0  0  0  0  0  0  0
    2.7248  -13.0883   -4.9136 H   0  0  0  0  0  0  0  0  0  0  0  0
    3.7600  -10.7726   -2.2011 H   0  0  0  0  0  0  0  0  0  0  0  0
    6.0571  -10.6282   -1.2661 H   0  0  0  0  0  0  0  0  0  0  0  0
    8.6070  -11.0270   -2.2030 H   0  0  0  0  0  0  0  0  0  0  0  0
   10.0197  -12.3354    1.0985 H   0  0  0  0  0  0  0  0  0  0  0  0
   12.4165  -11.7338    1.4539 H   0  0  0  0  0  0  0  0  0  0  0  0
   13.9735  -11.5731   -0.4821 H   0  0  0  0  0  0  0  0  0  0  0  0
   10.7642  -12.7295   -3.1426 H   0  0  0  0  0  0  0  0  0  0  0  0
    7.4422  -13.4265   -4.2371 H   0  0  0  0  0  0  0  0  0  0  0  0
    4.9730  -14.7550   -5.1910 H   0  0  0  0  0  0  0  0  0  0  0  0
    6.4872  -11.2215   -9.7340 H   0  0  0  0  0  0  0  0  0  0  0  0
    7.6332  -12.3343  -11.6606 H   0  0  0  0  0  0  0  0  0  0  0  0
    8.3795  -14.6912  -11.4908 H   0  0  0  0  0  0  0  0  0  0  0  0
    8.0255  -16.0011   -9.3789 H   0  0  0  0  0  0  0  0  0  0  0  0
    9.2802  -15.2274   -6.5301 H   0  0  0  0  0  0  0  0  0  0  0  0
   10.8190  -17.5240   -6.0230 H   0  0  0  0  0  0  0  0  0  0  0  0
   10.4350  -18.0730   -4.5470 H   0  0  0  0  0  0  0  0  0  0  0  0
   10.7890  -15.1529   -5.0822 H   0  0  0  0  0  0  0  0  0  0  0  0
   12.7270  -17.2845   -4.3127 H   0  0  0  0  0  0  0  0  0  0  0  0
   12.9613  -15.6937   -5.1640 H   0  0  0  0  0  0  0  0  0  0  0  0
   14.1220  -15.6621   -3.0149 H   0  0  0  0  0  0  0  0  0  0  0  0
   12.7227  -14.5249   -2.9925 H   0  0  0  0  0  0  0  0  0  0  0  0
   12.9693  -17.2691   -1.7200 H   0  0  0  0  0  0  0  0  0  0  0  0
   13.3490  -14.7070   -0.7860 H   0  0  0  0  0  0  0  0  0  0  0  0
   13.0990  -16.0160    0.2010 H   0  0  0  0  0  0  0  0  0  0  0  0
   11.8380  -15.0420   -0.2420 H   0  0  0  0  0  0  0  0  0  0  0  0
   10.8364  -17.6882   -2.1361 H   0  0  0  0  0  0  0  0  0  0  0  0
   10.4667  -16.2989   -1.0115 H   0  0  0  0  0  0  0  0  0  0  0  0
    9.2355  -16.1736   -3.1643 H   0  0  0  0  0  0  0  0  0  0  0  0
   10.3641  -14.7702   -2.8470 H   0  0  0  0  0  0  0  0  0  0  0  0
    6.1098  -18.6242   -5.0337 H   0  0  0  0  0  0  0  0  0  0  0  0
  1  2  1  0
  2  3  2  0
  3  4  1  0
  4  5  2  0
  5  6  1  0
  6  7  1  0
  7  8  2  0
  7  9  1  0
  9 10  2  0
 10 11  1  0
 11 12  2  0
 12 13  1  0
 13 14  1  0
 14 15  1  0
 14 16  1  0
 14 17  1  0
 13 18  2  0
  5 19  1  0
 19 20  2  0
 20 21  1  0
 21 22  1  0
 22 23  2  0
 23 24  1  0
 24 25  2  0
 25 26  1  0
 26 27  2  0
 27 28  1  0
 28 29  2  0
 29 30  1  0
 30 31  1  0
 31 32  2  0
 32 33  1  0
 33 34  1  0
 34 35  1  0
 35 36  1  0
 36 37  1  0
 37 38  1  0
 38 39  1  0
 38 40  1  0
 40 41  1  0
 33 42  2  0
 42 43  1  0
 43 44  2  0
 20  2  1  0
 30 22  1  0
 44 31  1  0
 18  9  1  0
 29 24  1  0
 41 35  1  0
  1 45  1  0
  1 46  1  0
  1 47  1  0
  3 48  1  0
  4 49  1  0
  6 50  1  0
 10 51  1  0
 11 52  1  0
 12 53  1  0
 18 54  1  0
 19 55  1  0
 21 56  1  0
 25 57  1  0
 26 58  1  0
 27 59  1  0
 28 60  1  0
 32 61  1  0
 34 62  1  0
 34 63  1  0
 35 64  1  1
 36 65  1  0
 36 66  1  0
 37 67  1  0
 37 68  1  0
 38 69  1  6
 39 70  1  0
 39 71  1  0
 39 72  1  0
 40 73  1  0
 40 74  1  0
 41 75  1  0
 41 76  1  0
 43 77  1  0
M  CHG  2  34   1  39   1
M  END
>  <meeko>  (3) 
{"is_sidechain": [false], "free_energy": -9.172, "intermolecular_energy": -13.264, "internal_energy": -3.891}

$$$$
LIB_REZFVUNAFUHYBW__M_PUB_ALL__e8__s20260927
     RDKit          3D

 77 82  0  0  0  0  0  0  0  0999 V2000
    6.8370  -15.4320   -0.7950 C   0  0  0  0  0  0  0  0  0  0  0  0
    7.1770  -15.0300   -2.2070 C   0  0  0  0  0  0  0  0  0  0  0  0
    6.1190  -14.7630   -3.0890 C   0  0  0  0  0  0  0  0  0  0  0  0
    6.3590  -14.4300   -4.4230 C   0  0  0  0  0  0  0  0  0  0  0  0
    7.6660  -14.3360   -4.8960 C   0  0  0  0  0  0  0  0  0  0  0  0
    7.8470  -14.0040   -6.2530 N   0  0  0  0  0  0  0  0  0  0  0  0
    8.0190  -14.8800   -7.3010 C   0  0  0  0  0  0  0  0  0  0  0  0
    8.3010  -16.0780   -7.2200 O   0  0  0  0  0  0  0  0  0  0  0  0
    7.9430  -14.2550   -8.6490 C   0  0  0  0  0  0  0  0  0  0  0  0
    6.7170  -13.9360   -9.2370 C   0  0  0  0  0  0  0  0  0  0  0  0
    6.6870  -13.4080  -10.5300 C   0  0  0  0  0  0  0  0  0  0  0  0
    7.8740  -13.2130  -11.2420 C   0  0  0  0  0  0  0  0  0  0  0  0
    9.1090  -13.5330  -10.6660 C   0  0  0  0  0  0  0  0  0  0  0  0
   10.4020  -13.3780  -11.4230 C   0  0  0  0  0  0  0  0  0  0  0  0
   11.2270  -14.4510  -11.3900 F   0  0  0  0  0  0  0  0  0  0  0  0
   11.1350  -12.3180  -10.9430 F   0  0  0  0  0  0  0  0  0  0  0  0
   10.2010  -13.0720  -12.7350 F   0  0  0  0  0  0  0  0  0  0  0  0
    9.1320  -14.0440   -9.3560 C   0  0  0  0  0  0  0  0  0  0  0  0
    8.7250  -14.6220   -4.0320 C   0  0  0  0  0  0  0  0  0  0  0  0
    8.5030  -14.9240   -2.6740 C   0  0  0  0  0  0  0  0  0  0  0  0
    9.6260  -15.2660   -1.8720 N   0  0  0  0  0  0  0  0  0  0  0  0
   10.4780  -14.3470   -1.3350 C   0  0  0  0  0  0  0  0  0  0  0  0
   10.2360  -13.6860   -0.2280 N   0  0  0  0  0  0  0  0  0  0  0  0
   11.1450  -12.6620   -0.2120 C   0  0  0  0  0  0  0  0  0  0  0  0
   11.2580  -11.6020    0.7000 C   0  0  0  0  0  0  0  0  0  0  0  0
   12.2640  -10.6490    0.5080 C   0  0  0  0  0  0  0  0  0  0  0  0
   13.1460  -10.7540   -0.5670 C   0  0  0  0  0  0  0  0  0  0  0  0
   13.0570  -11.8120   -1.4790 C   0  0  0  0  0  0  0  0  0  0  0  0
   12.0360  -12.7560   -1.2810 C   0  0  0  0  0  0  0  0  0  0  0  0
   11.6850  -13.9430   -1.9100 N   0  0  0  0  0  0  0  0  0  0  0  0
   12.4590  -14.6460   -2.8790 C   0  0  0  0  0  0  0  0  0  0  0  0
   12.7080  -14.0580   -4.1010 C   0  0  0  0  0  0  0  0  0  0  0  0
   13.4930  -14.7780   -4.9670 C   0  0  0  0  0  0  0  0  0  0  0  0
   13.8480  -14.1720   -6.2450 N   0  0  0  0  0  0  0  0  0  0  0  0
   13.8920  -15.1280   -7.3930 C   0  0  2  0  0  0  0  0  0  0  0  0
   15.3440  -15.3620   -7.8630 C   0  0  0  0  0  0  0  0  0  0  0  0
   15.4450  -15.5680   -9.3780 C   0  0  0  0  0  0  0  0  0  0  0  0
   15.0120  -14.3020  -10.1180 C   0  0  1  0  0  0  0  0  0  0  0  0
   14.7890  -14.6140  -11.5510 N   0  0  0  0  0  0  0  0  0  0  0  0
   13.7570  -13.6570   -9.5070 C   0  0  0  0  0  0  0  0  0  0  0  0
   13.0100  -14.5840   -8.5390 C   0  0  0  0  0  0  0  0  0  0  0  0
   13.9940  -15.9840   -4.7060 N   0  0  0  0  0  0  0  0  0  0  0  0
   13.6530  -16.4990   -3.5180 C   0  0  0  0  0  0  0  0  0  0  0  0
   12.8910  -15.8930   -2.6020 N   0  0  0  0  0  0  0  0  0  0  0  0
    7.3818  -14.7879   -0.0891 H   0  0  0  0  0  0  0  0  0  0  0  0
    5.7548  -15.3208   -0.6326 H   0  0  0  0  0  0  0  0  0  0  0  0
    7.1263  -16.4808   -0.6326 H   0  0  0  0  0  0  0  0  0  0  0  0
    5.0831  -14.8170   -2.7230 H   0  0  0  0  0  0  0  0  0  0  0  0
    5.5145  -14.2414   -5.1022 H   0  0  0  0  0  0  0  0  0  0  0  0
    7.9320  -13.0100   -6.4520 H   0  0  0  0  0  0  0  0  0  0  0  0
    5.7798  -14.0997   -8.6848 H   0  0  0  0  0  0  0  0  0  0  0  0
    5.7235  -13.1441  -10.9906 H   0  0  0  0  0  0  0  0  0  0  0  0
    7.8373  -12.8049  -12.2628 H   0  0  0  0  0  0  0  0  0  0  0  0
   10.0958  -14.2806   -8.8816 H   0  0  0  0  0  0  0  0  0  0  0  0
    9.7543  -14.6113   -4.4199 H   0  0  0  0  0  0  0  0  0  0  0  0
    9.3590  -15.9910   -1.2010 H   0  0  0  0  0  0  0  0  0  0  0  0
   10.5670  -11.5215    1.5520 H   0  0  0  0  0  0  0  0  0  0  0  0
   12.3602   -9.8090    1.2116 H   0  0  0  0  0  0  0  0  0  0  0  0
   13.9267   -9.9907   -0.7008 H   0  0  0  0  0  0  0  0  0  0  0  0
   13.7607  -11.9009   -2.3198 H   0  0  0  0  0  0  0  0  0  0  0  0
   12.3018  -13.0707   -4.3662 H   0  0  0  0  0  0  0  0  0  0  0  0
   14.7380  -13.6590   -6.0670 H   0  0  0  0  0  0  0  0  0  0  0  0
   13.1740  -13.4200   -6.4170 H   0  0  0  0  0  0  0  0  0  0  0  0
   13.4974  -16.1028   -7.0704 H   0  0  0  0  0  0  0  0  0  0  0  0
   15.9500  -14.4871   -7.5849 H   0  0  0  0  0  0  0  0  0  0  0  0
   15.7090  -16.2784   -7.3763 H   0  0  0  0  0  0  0  0  0  0  0  0
   16.4860  -15.8046   -9.6430 H   0  0  0  0  0  0  0  0  0  0  0  0
   14.7829  -16.3964   -9.6704 H   0  0  0  0  0  0  0  0  0  0  0  0
   15.8239  -13.5667  -10.0174 H   0  0  0  0  0  0  0  0  0  0  0  0
   13.9720  -14.1010  -11.9220 H   0  0  0  0  0  0  0  0  0  0  0  0
   14.6340  -15.6120  -11.7490 H   0  0  0  0  0  0  0  0  0  0  0  0
   15.5840  -14.3150  -12.1380 H   0  0  0  0  0  0  0  0  0  0  0  0
   14.0602  -12.7520   -8.9602 H   0  0  0  0  0  0  0  0  0  0  0  0
   13.0706  -13.4291  -10.3358 H   0  0  0  0  0  0  0  0  0  0  0  0
   12.1737  -14.0228   -8.0968 H   0  0  0  0  0  0  0  0  0  0  0  0
   12.6713  -15.4523   -9.1232 H   0  0  0  0  0  0  0  0  0  0  0  0
   14.0309  -17.5033   -3.2759 H   0  0  0  0  0  0  0  0  0  0  0  0
  1  2  1  0
  2  3  2  0
  3  4  1  0
  4  5  2  0
  5  6  1  0
  6  7  1  0
  7  8  2  0
  7  9  1  0
  9 10  2  0
 10 11  1  0
 11 12  2  0
 12 13  1  0
 13 14  1  0
 14 15  1  0
 14 16  1  0
 14 17  1  0
 13 18  2  0
  5 19  1  0
 19 20  2  0
 20 21  1  0
 21 22  1  0
 22 23  2  0
 23 24  1  0
 24 25  2  0
 25 26  1  0
 26 27  2  0
 27 28  1  0
 28 29  2  0
 29 30  1  0
 30 31  1  0
 31 32  2  0
 32 33  1  0
 33 34  1  0
 34 35  1  0
 35 36  1  0
 36 37  1  0
 37 38  1  0
 38 39  1  0
 38 40  1  0
 40 41  1  0
 33 42  2  0
 42 43  1  0
 43 44  2  0
 20  2  1  0
 30 22  1  0
 44 31  1  0
 18  9  1  0
 29 24  1  0
 41 35  1  0
  1 45  1  0
  1 46  1  0
  1 47  1  0
  3 48  1  0
  4 49  1  0
  6 50  1  0
 10 51  1  0
 11 52  1  0
 12 53  1  0
 18 54  1  0
 19 55  1  0
 21 56  1  0
 25 57  1  0
 26 58  1  0
 27 59  1  0
 28 60  1  0
 32 61  1  0
 34 62  1  0
 34 63  1  0
 35 64  1  6
 36 65  1  0
 36 66  1  0
 37 67  1  0
 37 68  1  0
 38 69  1  1
 39 70  1  0
 39 71  1  0
 39 72  1  0
 40 73  1  0
 40 74  1  0
 41 75  1  0
 41 76  1  0
 43 77  1  0
M  CHG  2  34   1  39   1
M  END
>  <meeko>  (4) 
{"is_sidechain": [false], "free_energy": -9.038, "intermolecular_energy": -13.982, "internal_energy": -2.972}

$$$$
LIB_REZFVUNAFUHYBW__M_PUB_ALL__e8__s20260927
     RDKit          3D

 77 82  0  0  0  0  0  0  0  0999 V2000
   13.1900  -14.0870   -5.6980 C   0  0  0  0  0  0  0  0  0  0  0  0
   11.9970  -13.7510   -4.8400 C   0  0  0  0  0  0  0  0  0  0  0  0
   12.2100  -12.9720   -3.6920 C   0  0  0  0  0  0  0  0  0  0  0  0
   11.1590  -12.6600   -2.8280 C   0  0  0  0  0  0  0  0  0  0  0  0
    9.8690  -13.1050   -3.1070 C   0  0  0  0  0  0  0  0  0  0  0  0
    8.8500  -12.7680   -2.1940 N   0  0  0  0  0  0  0  0  0  0  0  0
    8.6240  -13.3370   -0.9610 C   0  0  0  0  0  0  0  0  0  0  0  0
    9.0950  -14.3980   -0.5430 O   0  0  0  0  0  0  0  0  0  0  0  0
    7.6320  -12.6170   -0.1190 C   0  0  0  0  0  0  0  0  0  0  0  0
    6.4540  -13.2340    0.3090 C   0  0  0  0  0  0  0  0  0  0  0  0
    5.5190  -12.5040    1.0460 C   0  0  0  0  0  0  0  0  0  0  0  0
    5.7480  -11.1570    1.3430 C   0  0  0  0  0  0  0  0  0  0  0  0
    6.9230  -10.5250    0.9160 C   0  0  0  0  0  0  0  0  0  0  0  0
    7.1790   -9.0650    1.1800 C   0  0  0  0  0  0  0  0  0  0  0  0
    6.8960   -8.2300    0.1530 F   0  0  0  0  0  0  0  0  0  0  0  0
    8.4980   -8.8420    1.5000 F   0  0  0  0  0  0  0  0  0  0  0  0
    6.4960   -8.6060    2.2650 F   0  0  0  0  0  0  0  0  0  0  0  0
    7.8680  -11.2740    0.1930 C   0  0  0  0  0  0  0  0  0  0  0  0
    9.6510  -13.9010   -4.2330 C   0  0  0  0  0  0  0  0  0  0  0  0
   10.6920  -14.1930   -5.1360 C   0  0  0  0  0  0  0  0  0  0  0  0
   10.4080  -15.0620   -6.2270 N   0  0  0  0  0  0  0  0  0  0  0  0
    9.7780  -14.6590   -7.3670 C   0  0  0  0  0  0  0  0  0  0  0  0
   10.3960  -14.1350   -8.3970 N   0  0  0  0  0  0  0  0  0  0  0  0
    9.4090  -13.5820   -9.1690 C   0  0  0  0  0  0  0  0  0  0  0  0
    9.5330  -12.8110  -10.3340 C   0  0  0  0  0  0  0  0  0  0  0  0
    8.3750  -12.3300  -10.9530 C   0  0  0  0  0  0  0  0  0  0  0  0
    7.1170  -12.6160  -10.4260 C   0  0  0  0  0  0  0  0  0  0  0  0
    6.9720  -13.3960   -9.2730 C   0  0  0  0  0  0  0  0  0  0  0  0
    8.1440  -13.8630   -8.6540 C   0  0  0  0  0  0  0  0  0  0  0  0
    8.3970  -14.6960   -7.5730 N   0  0  0  0  0  0  0  0  0  0  0  0
    7.4400  -15.4950   -6.8800 C   0  0  0  0  0  0  0  0  0  0  0  0
    6.5000  -14.8810   -6.0790 C   0  0  0  0  0  0  0  0  0  0  0  0
    5.5880  -15.7120   -5.4770 C   0  0  0  0  0  0  0  0  0  0  0  0
    4.5270  -15.1100   -4.6770 N   0  0  0  0  0  0  0  0  0  0  0  0
    4.6250  -13.6260   -4.5340 C   0  0  2  0  0  0  0  0  0  0  0  0
    4.9800  -13.2320   -3.0840 C   0  0  0  0  0  0  0  0  0  0  0  0
    4.3130  -11.9230   -2.6500 C   0  0  0  0  0  0  0  0  0  0  0  0
    2.7920  -12.0810   -2.6320 C   0  0  1  0  0  0  0  0  0  0  0  0
    2.1540  -10.7440   -2.5470 N   0  0  0  0  0  0  0  0  0  0  0  0
    2.2620  -12.8520   -3.8520 C   0  0  0  0  0  0  0  0  0  0  0  0
    3.2920  -12.9840   -4.9810 C   0  0  0  0  0  0  0  0  0  0  0  0
    5.5760  -17.0370   -5.6040 N   0  0  0  0  0  0  0  0  0  0  0  0
    6.5610  -17.5480   -6.3550 C   0  0  0  0  0  0  0  0  0  0  0  0
    7.5030  -16.8380   -6.9810 N   0  0  0  0  0  0  0  0  0  0  0  0
   14.0484  -14.3288   -5.0540 H   0  0  0  0  0  0  0  0  0  0  0  0
   12.9526  -14.9532   -6.3331 H   0  0  0  0  0  0  0  0  0  0  0  0
   13.4396  -13.2242   -6.3331 H   0  0  0  0  0  0  0  0  0  0  0  0
   13.2215  -12.6014   -3.4696 H   0  0  0  0  0  0  0  0  0  0  0  0
   11.3499  -12.0615   -1.9250 H   0  0  0  0  0  0  0  0  0  0  0  0
    8.1750  -12.0820   -2.5270 H   0  0  0  0  0  0  0  0  0  0  0  0
    6.2638  -14.2900    0.0666 H   0  0  0  0  0  0  0  0  0  0  0  0
    4.5968  -12.9916    1.3950 H   0  0  0  0  0  0  0  0  0  0  0  0
    5.0001  -10.5894    1.9161 H   0  0  0  0  0  0  0  0  0  0  0  0
    8.8050  -10.7978   -0.1315 H   0  0  0  0  0  0  0  0  0  0  0  0
    8.6462  -14.3083   -4.4188 H   0  0  0  0  0  0  0  0  0  0  0  0
   11.2240  -15.6500   -6.4180 H   0  0  0  0  0  0  0  0  0  0  0  0
   10.5250  -12.5883  -10.7540 H   0  0  0  0  0  0  0  0  0  0  0  0
    8.4579  -11.7200  -11.8646 H   0  0  0  0  0  0  0  0  0  0  0  0
    6.2204  -12.2210  -10.9260 H   0  0  0  0  0  0  0  0  0  0  0  0
    5.9780  -13.6345   -8.8666 H   0  0  0  0  0  0  0  0  0  0  0  0
    6.4821  -13.7911   -5.9314 H   0  0  0  0  0  0  0  0  0  0  0  0
    4.5280  -15.6390   -3.7790 H   0  0  0  0  0  0  0  0  0  0  0  0
    3.6370  -15.3810   -5.1080 H   0  0  0  0  0  0  0  0  0  0  0  0
    5.4351  -13.2516   -5.1771 H   0  0  0  0  0  0  0  0  0  0  0  0
    4.6504  -14.0360   -2.4095 H   0  0  0  0  0  0  0  0  0  0  0  0
    6.0689  -13.0835   -3.0358 H   0  0  0  0  0  0  0  0  0  0  0  0
    4.6617  -11.6553   -1.6417 H   0  0  0  0  0  0  0  0  0  0  0  0
    4.5814  -11.1313   -3.3649 H   0  0  0  0  0  0  0  0  0  0  0  0
    2.5313  -12.6772   -1.7451 H   0  0  0  0  0  0  0  0  0  0  0  0
    2.7180  -10.0280   -3.0350 H   0  0  0  0  0  0  0  0  0  0  0  0
    2.0040  -10.4060   -1.5870 H   0  0  0  0  0  0  0  0  0  0  0  0
    1.2340  -10.7270   -3.0160 H   0  0  0  0  0  0  0  0  0  0  0  0
    1.9691  -13.8612   -3.5269 H   0  0  0  0  0  0  0  0  0  0  0  0
    1.4107  -12.2821   -4.2528 H   0  0  0  0  0  0  0  0  0  0  0  0
    2.8568  -13.6059   -5.7772 H   0  0  0  0  0  0  0  0  0  0  0  0
    3.5250  -11.9652   -5.3243 H   0  0  0  0  0  0  0  0  0  0  0  0
    6.5966  -18.6419   -6.4649 H   0  0  0  0  0  0  0  0  0  0  0  0
  1  2  1  0
  2  3  2  0
  3  4  1  0
  4  5  2  0
  5  6  1  0
  6  7  1  0
  7  8  2  0
  7  9  1  0
  9 10  2  0
 10 11  1  0
 11 12  2  0
 12 13  1  0
 13 14  1  0
 14 15  1  0
 14 16  1  0
 14 17  1  0
 13 18  2  0
  5 19  1  0
 19 20  2  0
 20 21  1  0
 21 22  1  0
 22 23  2  0
 23 24  1  0
 24 25  2  0
 25 26  1  0
 26 27  2  0
 27 28  1  0
 28 29  2  0
 29 30  1  0
 30 31  1  0
 31 32  2  0
 32 33  1  0
 33 34  1  0
 34 35  1  0
 35 36  1  0
 36 37  1  0
 37 38  1  0
 38 39  1  0
 38 40  1  0
 40 41  1  0
 33 42  2  0
 42 43  1  0
 43 44  2  0
 20  2  1  0
 30 22  1  0
 44 31  1  0
 18  9  1  0
 29 24  1  0
 41 35  1  0
  1 45  1  0
  1 46  1  0
  1 47  1  0
  3 48  1  0
  4 49  1  0
  6 50  1  0
 10 51  1  0
 11 52  1  0
 12 53  1  0
 18 54  1  0
 19 55  1  0
 21 56  1  0
 25 57  1  0
 26 58  1  0
 27 59  1  0
 28 60  1  0
 32 61  1  0
 34 62  1  0
 34 63  1  0
 35 64  1  1
 36 65  1  0
 36 66  1  0
 37 67  1  0
 37 68  1  0
 38 69  1  6
 39 70  1  0
 39 71  1  0
 39 72  1  0
 40 73  1  0
 40 74  1  0
 41 75  1  0
 41 76  1  0
 43 77  1  0
M  CHG  2  34   1  39   1
M  END
>  <meeko>  (5) 
{"is_sidechain": [false], "free_energy": -8.859, "intermolecular_energy": -13.368, "internal_energy": -3.318}

$$$$
LIB_REZFVUNAFUHYBW__M_PUB_ALL__e8__s20260927
     RDKit          3D

 77 82  0  0  0  0  0  0  0  0999 V2000
    1.7210  -10.7020   -2.0920 C   0  0  0  0  0  0  0  0  0  0  0  0
    2.5740  -11.3550   -3.1500 C   0  0  0  0  0  0  0  0  0  0  0  0
    2.9760  -10.5750   -4.2450 C   0  0  0  0  0  0  0  0  0  0  0  0
    3.7290  -11.1260   -5.2830 C   0  0  0  0  0  0  0  0  0  0  0  0
    4.1110  -12.4640   -5.2370 C   0  0  0  0  0  0  0  0  0  0  0  0
    4.8620  -12.9660   -6.3180 N   0  0  0  0  0  0  0  0  0  0  0  0
    6.1350  -13.4880   -6.2670 C   0  0  0  0  0  0  0  0  0  0  0  0
    6.9380  -13.3800   -5.3380 O   0  0  0  0  0  0  0  0  0  0  0  0
    6.5790  -14.1590   -7.5180 C   0  0  0  0  0  0  0  0  0  0  0  0
    7.0180  -15.4860   -7.5180 C   0  0  0  0  0  0  0  0  0  0  0  0
    7.4850  -16.0590   -8.7030 C   0  0  0  0  0  0  0  0  0  0  0  0
    7.5320  -15.3100   -9.8820 C   0  0  0  0  0  0  0  0  0  0  0  0
    7.1000  -13.9780   -9.8940 C   0  0  0  0  0  0  0  0  0  0  0  0
    7.1800  -13.1290  -11.1370 C   0  0  0  0  0  0  0  0  0  0  0  0
    6.5930  -11.9130  -11.0480 F   0  0  0  0  0  0  0  0  0  0  0  0
    6.5900  -13.7600  -12.2070 F   0  0  0  0  0  0  0  0  0  0  0  0
    8.4630  -12.9230  -11.5420 F   0  0  0  0  0  0  0  0  0  0  0  0
    6.6100  -13.4150   -8.7030 C   0  0  0  0  0  0  0  0  0  0  0  0
    3.6960  -13.2540   -4.1640 C   0  0  0  0  0  0  0  0  0  0  0  0
    2.9680  -12.7070   -3.0890 C   0  0  0  0  0  0  0  0  0  0  0  0
    2.5260  -13.5870   -2.0620 N   0  0  0  0  0  0  0  0  0  0  0  0
    3.2020  -14.7120   -1.6910 C   0  0  0  0  0  0  0  0  0  0  0  0
    2.7420  -15.9280   -1.8560 N   0  0  0  0  0  0  0  0  0  0  0  0
    3.5410  -16.7260   -1.0810 C   0  0  0  0  0  0  0  0  0  0  0  0
    3.4210  -18.0990   -0.8190 C   0  0  0  0  0  0  0  0  0  0  0  0
    4.3520  -18.7090    0.0290 C   0  0  0  0  0  0  0  0  0  0  0  0
    5.3870  -17.9680    0.5980 C   0  0  0  0  0  0  0  0  0  0  0  0
    5.5300  -16.6000    0.3360 C   0  0  0  0  0  0  0  0  0  0  0  0
    4.5820  -15.9980   -0.5070 C   0  0  0  0  0  0  0  0  0  0  0  0
    4.4370  -14.7240   -1.0400 N   0  0  0  0  0  0  0  0  0  0  0  0
    5.4060  -13.6780   -1.0030 C   0  0  0  0  0  0  0  0  0  0  0  0
    6.5330  -13.7720   -1.7910 C   0  0  0  0  0  0  0  0  0  0  0  0
    7.3990  -12.7080   -1.7330 C   0  0  0  0  0  0  0  0  0  0  0  0
    8.5710  -12.7220   -2.6000 N   0  0  0  0  0  0  0  0  0  0  0  0
    9.8780  -12.6610   -1.8780 C   0  0  2  0  0  0  0  0  0  0  0  0
   11.0560  -12.5760   -2.8720 C   0  0  0  0  0  0  0  0  0  0  0  0
   12.3000  -13.3190   -2.3740 C   0  0  0  0  0  0  0  0  0  0  0  0
   12.0160  -14.8160   -2.2590 C   0  0  1  0  0  0  0  0  0  0  0  0
   13.0890  -15.4680   -1.4680 N   0  0  0  0  0  0  0  0  0  0  0  0
   10.6390  -15.1130   -1.6420 C   0  0  0  0  0  0  0  0  0  0  0  0
   10.0060  -13.8950   -0.9570 C   0  0  0  0  0  0  0  0  0  0  0  0
    7.2250  -11.6350   -0.9640 N   0  0  0  0  0  0  0  0  0  0  0  0
    6.1310  -11.6580   -0.1910 C   0  0  0  0  0  0  0  0  0  0  0  0
    5.2260  -12.6400   -0.1610 N   0  0  0  0  0  0  0  0  0  0  0  0
    2.0914  -10.9856   -1.0958 H   0  0  0  0  0  0  0  0  0  0  0  0
    1.7706   -9.6089   -2.2042 H   0  0  0  0  0  0  0  0  0  0  0  0
    0.6787  -11.0352   -2.2042 H   0  0  0  0  0  0  0  0  0  0  0  0
    2.6933   -9.5127   -4.2860 H   0  0  0  0  0  0  0  0  0  0  0  0
    4.0215  -10.5013   -6.1399 H   0  0  0  0  0  0  0  0  0  0  0  0
    4.4350  -12.8550   -7.2360 H   0  0  0  0  0  0  0  0  0  0  0  0
    6.9958  -16.0758   -6.5898 H   0  0  0  0  0  0  0  0  0  0  0  0
    7.8182  -17.1073   -8.7084 H   0  0  0  0  0  0  0  0  0  0  0  0
    7.9109  -15.7698  -10.8067 H   0  0  0  0  0  0  0  0  0  0  0  0
    6.2464  -12.3768   -8.7023 H   0  0  0  0  0  0  0  0  0  0  0  0
    3.9424  -14.3260   -4.1575 H   0  0  0  0  0  0  0  0  0  0  0  0
    2.2040  -13.0420   -1.2590 H   0  0  0  0  0  0  0  0  0  0  0  0
    2.6088  -18.6861   -1.2725 H   0  0  0  0  0  0  0  0  0  0  0  0
    4.2665  -19.7834    0.2488 H   0  0  0  0  0  0  0  0  0  0  0  0
    6.1047  -18.4675    1.2653 H   0  0  0  0  0  0  0  0  0  0  0  0
    6.3544  -16.0184    0.7743 H   0  0  0  0  0  0  0  0  0  0  0  0
    6.7271  -14.6473   -2.4284 H   0  0  0  0  0  0  0  0  0  0  0  0
    8.4120  -11.9540   -3.2870 H   0  0  0  0  0  0  0  0  0  0  0  0
    8.5070  -13.5680   -3.1760 H   0  0  0  0  0  0  0  0  0  0  0  0
    9.9112  -11.7505   -1.2617 H   0  0  0  0  0  0  0  0  0  0  0  0
   10.7418  -13.0168   -3.8296 H   0  0  0  0  0  0  0  0  0  0  0  0
   11.3232  -11.5147   -2.9830 H   0  0  0  0  0  0  0  0  0  0  0  0
   13.1254  -13.1601   -3.0836 H   0  0  0  0  0  0  0  0  0  0  0  0
   12.5743  -12.9307   -1.3821 H   0  0  0  0  0  0  0  0  0  0  0  0
   11.9999  -15.2282   -3.2787 H   0  0  0  0  0  0  0  0  0  0  0  0
   13.6460  -16.1130   -2.0540 H   0  0  0  0  0  0  0  0  0  0  0  0
   12.7520  -16.0090   -0.6600 H   0  0  0  0  0  0  0  0  0  0  0  0
   13.7690  -14.7810   -1.1040 H   0  0  0  0  0  0  0  0  0  0  0  0
    9.9644  -15.4540   -2.4412 H   0  0  0  0  0  0  0  0  0  0  0  0
   10.7871  -15.8814   -0.8689 H   0  0  0  0  0  0  0  0  0  0  0  0
    9.0004  -14.1753   -0.6102 H   0  0  0  0  0  0  0  0  0  0  0  0
   10.6715  -13.6102   -0.1287 H   0  0  0  0  0  0  0  0  0  0  0  0
    5.9643  -10.7975    0.4736 H   0  0  0  0  0  0  0  0  0  0  0  0
  1  2  1  0
  2  3  2  0
  3  4  1  0
  4  5  2  0
  5  6  1  0
  6  7  1  0
  7  8  2  0
  7  9  1  0
  9 10  2  0
 10 11  1  0
 11 12  2  0
 12 13  1  0
 13 14  1  0
 14 15  1  0
 14 16  1  0
 14 17  1  0
 13 18  2  0
  5 19  1  0
 19 20  2  0
 20 21  1  0
 21 22  1  0
 22 23  2  0
 23 24  1  0
 24 25  2  0
 25 26  1  0
 26 27  2  0
 27 28  1  0
 28 29  2  0
 29 30  1  0
 30 31  1  0
 31 32  2  0
 32 33  1  0
 33 34  1  0
 34 35  1  0
 35 36  1  0
 36 37  1  0
 37 38  1  0
 38 39  1  0
 38 40  1  0
 40 41  1  0
 33 42  2  0
 42 43  1  0
 43 44  2  0
 20  2  1  0
 30 22  1  0
 44 31  1  0
 18  9  1  0
 29 24  1  0
 41 35  1  0
  1 45  1  0
  1 46  1  0
  1 47  1  0
  3 48  1  0
  4 49  1  0
  6 50  1  0
 10 51  1  0
 11 52  1  0
 12 53  1  0
 18 54  1  0
 19 55  1  0
 21 56  1  0
 25 57  1  0
 26 58  1  0
 27 59  1  0
 28 60  1  0
 32 61  1  0
 34 62  1  0
 34 63  1  0
 35 64  1  6
 36 65  1  0
 36 66  1  0
 37 67  1  0
 37 68  1  0
 38 69  1  1
 39 70  1  0
 39 71  1  0
 39 72  1  0
 40 73  1  0
 40 74  1  0
 41 75  1  0
 41 76  1  0
 43 77  1  0
M  CHG  2  34   1  39   1
M  END
>  <meeko>  (6) 
{"is_sidechain": [false], "free_energy": -8.852, "intermolecular_energy": -14.01, "internal_energy": -2.665}

$$$$
LIB_REZFVUNAFUHYBW__M_PUB_ALL__e8__s20260927
     RDKit          3D

 77 82  0  0  0  0  0  0  0  0999 V2000
    6.1770  -12.4260    0.3950 C   0  0  0  0  0  0  0  0  0  0  0  0
    6.3750  -12.9440   -1.0070 C   0  0  0  0  0  0  0  0  0  0  0  0
    5.3810  -12.6680   -1.9580 C   0  0  0  0  0  0  0  0  0  0  0  0
    5.4770  -13.1540   -3.2620 C   0  0  0  0  0  0  0  0  0  0  0  0
    6.5810  -13.9100   -3.6480 C   0  0  0  0  0  0  0  0  0  0  0  0
    6.6190  -14.3810   -4.9750 N   0  0  0  0  0  0  0  0  0  0  0  0
    6.3720  -13.6530   -6.1160 C   0  0  0  0  0  0  0  0  0  0  0  0
    5.8320  -12.5460   -6.1800 O   0  0  0  0  0  0  0  0  0  0  0  0
    6.7200  -14.3500   -7.3830 C   0  0  0  0  0  0  0  0  0  0  0  0
    7.0830  -15.6990   -7.3980 C   0  0  0  0  0  0  0  0  0  0  0  0
    7.4630  -16.3000   -8.6000 C   0  0  0  0  0  0  0  0  0  0  0  0
    7.4970  -15.5570   -9.7830 C   0  0  0  0  0  0  0  0  0  0  0  0
    7.1400  -14.2020   -9.7810 C   0  0  0  0  0  0  0  0  0  0  0  0
    7.2100  -13.3620  -11.0300 C   0  0  0  0  0  0  0  0  0  0  0  0
    6.7440  -12.0980  -10.9060 F   0  0  0  0  0  0  0  0  0  0  0  0
    6.4930  -13.9350  -12.0540 F   0  0  0  0  0  0  0  0  0  0  0  0
    8.4760  -13.2720  -11.5240 F   0  0  0  0  0  0  0  0  0  0  0  0
    6.7380  -13.6110   -8.5710 C   0  0  0  0  0  0  0  0  0  0  0  0
    7.5640  -14.2110   -2.7030 C   0  0  0  0  0  0  0  0  0  0  0  0
    7.5030  -13.6970   -1.3920 C   0  0  0  0  0  0  0  0  0  0  0  0
    8.5070  -14.0980   -0.4680 N   0  0  0  0  0  0  0  0  0  0  0  0
    9.6420  -13.3810   -0.2290 C   0  0  0  0  0  0  0  0  0  0  0  0
    9.7290  -12.4300    0.6690 N   0  0  0  0  0  0  0  0  0  0  0  0
   10.8870  -11.7610    0.3770 C   0  0  0  0  0  0  0  0  0  0  0  0
   11.4020  -10.5970    0.9680 C   0  0  0  0  0  0  0  0  0  0  0  0
   12.6080  -10.0730    0.4900 C   0  0  0  0  0  0  0  0  0  0  0  0
   13.2920  -10.7000   -0.5510 C   0  0  0  0  0  0  0  0  0  0  0  0
   12.8000  -11.8690   -1.1430 C   0  0  0  0  0  0  0  0  0  0  0  0
   11.5830  -12.3780   -0.6620 C   0  0  0  0  0  0  0  0  0  0  0  0
   10.8380  -13.5170   -0.9370 N   0  0  0  0  0  0  0  0  0  0  0  0
   11.2610  -14.6360   -1.7130 C   0  0  0  0  0  0  0  0  0  0  0  0
   10.9480  -14.6860   -3.0540 C   0  0  0  0  0  0  0  0  0  0  0  0
   11.4240  -15.7730   -3.7440 C   0  0  0  0  0  0  0  0  0  0  0  0
   11.1840  -15.8410   -5.1800 N   0  0  0  0  0  0  0  0  0  0  0  0
   11.3330  -14.5360   -5.8950 C   0  0  2  0  0  0  0  0  0  0  0  0
   10.6430  -14.5810   -7.2760 C   0  0  0  0  0  0  0  0  0  0  0  0
   11.3880  -13.7560   -8.3310 C   0  0  0  0  0  0  0  0  0  0  0  0
   12.7750  -14.3460   -8.5870 C   0  0  1  0  0  0  0  0  0  0  0  0
   13.6010  -13.3680   -9.3380 N   0  0  0  0  0  0  0  0  0  0  0  0
   13.4880  -14.7690   -7.2920 C   0  0  0  0  0  0  0  0  0  0  0  0
   12.8350  -14.1980   -6.0270 C   0  0  0  0  0  0  0  0  0  0  0  0
   12.1310  -16.7620   -3.1990 N   0  0  0  0  0  0  0  0  0  0  0  0
   12.3380  -16.6560   -1.8800 C   0  0  0  0  0  0  0  0  0  0  0  0
   11.9160  -15.6490   -1.1100 N   0  0  0  0  0  0  0  0  0  0  0  0
    6.4732  -13.2008    1.1174 H   0  0  0  0  0  0  0  0  0  0  0  0
    6.7956  -11.5289    0.5452 H   0  0  0  0  0  0  0  0  0  0  0  0
    5.1177  -12.1703    0.5452 H   0  0  0  0  0  0  0  0  0  0  0  0
    4.5117  -12.0583   -1.6706 H   0  0  0  0  0  0  0  0  0  0  0  0
    4.6784  -12.9395   -3.9874 H   0  0  0  0  0  0  0  0  0  0  0  0
    6.7710  -15.3820   -5.0790 H   0  0  0  0  0  0  0  0  0  0  0  0
    7.0696  -16.2851   -6.4673 H   0  0  0  0  0  0  0  0  0  0  0  0
    7.7373  -17.3651   -8.6156 H   0  0  0  0  0  0  0  0  0  0  0  0
    7.8061  -16.0391  -10.7222 H   0  0  0  0  0  0  0  0  0  0  0  0
    6.4336  -12.5540   -8.5577 H   0  0  0  0  0  0  0  0  0  0  0  0
    8.4032  -14.8627   -2.9876 H   0  0  0  0  0  0  0  0  0  0  0  0
    8.0660  -14.4320    0.3930 H   0  0  0  0  0  0  0  0  0  0  0  0
   10.8665  -10.1048    1.7932 H   0  0  0  0  0  0  0  0  0  0  0  0
   13.0205   -9.1578    0.9396 H   0  0  0  0  0  0  0  0  0  0  0  0
   14.2362  -10.2676   -0.9138 H   0  0  0  0  0  0  0  0  0  0  0  0
   13.3466  -12.3705   -1.9552 H   0  0  0  0  0  0  0  0  0  0  0  0
   10.3519  -13.9012   -3.5427 H   0  0  0  0  0  0  0  0  0  0  0  0
   10.2500  -16.2930   -5.2810 H   0  0  0  0  0  0  0  0  0  0  0  0
   11.8270  -16.5430   -5.5590 H   0  0  0  0  0  0  0  0  0  0  0  0
   10.8393  -13.7437   -5.3133 H   0  0  0  0  0  0  0  0  0  0  0  0
   10.5972  -15.6269   -7.6136 H   0  0  0  0  0  0  0  0  0  0  0  0
    9.6380  -14.1487   -7.1619 H   0  0  0  0  0  0  0  0  0  0  0  0
   10.8128  -13.7622   -9.2686 H   0  0  0  0  0  0  0  0  0  0  0  0
   11.5009  -12.7253   -7.9637 H   0  0  0  0  0  0  0  0  0  0  0  0
   12.6409  -15.2596   -9.1848 H   0  0  0  0  0  0  0  0  0  0  0  0
   13.9250  -13.7640  -10.2360 H   0  0  0  0  0  0  0  0  0  0  0  0
   14.4370  -13.0430   -8.8330 H   0  0  0  0  0  0  0  0  0  0  0  0
   13.0620  -12.5250   -9.5930 H   0  0  0  0  0  0  0  0  0  0  0  0
   13.4731  -15.8670   -7.2277 H   0  0  0  0  0  0  0  0  0  0  0  0
   14.5124  -14.3710   -7.3385 H   0  0  0  0  0  0  0  0  0  0  0  0
   13.3607  -14.6055   -5.1509 H   0  0  0  0  0  0  0  0  0  0  0  0
   12.9129  -13.1027   -6.0921 H   0  0  0  0  0  0  0  0  0  0  0  0
   12.9015  -17.4641   -1.3907 H   0  0  0  0  0  0  0  0  0  0  0  0
  1  2  1  0
  2  3  2  0
  3  4  1  0
  4  5  2  0
  5  6  1  0
  6  7  1  0
  7  8  2  0
  7  9  1  0
  9 10  2  0
 10 11  1  0
 11 12  2  0
 12 13  1  0
 13 14  1  0
 14 15  1  0
 14 16  1  0
 14 17  1  0
 13 18  2  0
  5 19  1  0
 19 20  2  0
 20 21  1  0
 21 22  1  0
 22 23  2  0
 23 24  1  0
 24 25  2  0
 25 26  1  0
 26 27  2  0
 27 28  1  0
 28 29  2  0
 29 30  1  0
 30 31  1  0
 31 32  2  0
 32 33  1  0
 33 34  1  0
 34 35  1  0
 35 36  1  0
 36 37  1  0
 37 38  1  0
 38 39  1  0
 38 40  1  0
 40 41  1  0
 33 42  2  0
 42 43  1  0
 43 44  2  0
 20  2  1  0
 30 22  1  0
 44 31  1  0
 18  9  1  0
 29 24  1  0
 41 35  1  0
  1 45  1  0
  1 46  1  0
  1 47  1  0
  3 48  1  0
  4 49  1  0
  6 50  1  0
 10 51  1  0
 11 52  1  0
 12 53  1  0
 18 54  1  0
 19 55  1  0
 21 56  1  0
 25 57  1  0
 26 58  1  0
 27 59  1  0
 28 60  1  0
 32 61  1  0
 34 62  1  0
 34 63  1  0
 35 64  1  6
 36 65  1  0
 36 66  1  0
 37 67  1  0
 37 68  1  0
 38 69  1  1
 39 70  1  0
 39 71  1  0
 39 72  1  0
 40 73  1  0
 40 74  1  0
 41 75  1  0
 41 76  1  0
 43 77  1  0
M  CHG  2  34   1  39   1
M  END
>  <meeko>  (7) 
{"is_sidechain": [false], "free_energy": -8.789, "intermolecular_energy": -13.837, "internal_energy": -2.744}

$$$$
LIB_REZFVUNAFUHYBW__M_PUB_ALL__e8__s20260927
     RDKit          3D

 77 82  0  0  0  0  0  0  0  0999 V2000
    0.3500   -9.0450    0.9190 C   0  0  0  0  0  0  0  0  0  0  0  0
   -0.1320  -10.4440    1.2030 C   0  0  0  0  0  0  0  0  0  0  0  0
   -1.4500  -10.6090    1.6550 C   0  0  0  0  0  0  0  0  0  0  0  0
   -1.9480  -11.8720    1.9800 C   0  0  0  0  0  0  0  0  0  0  0  0
   -1.1420  -12.9990    1.8390 C   0  0  0  0  0  0  0  0  0  0  0  0
   -1.6960  -14.2450    2.1910 N   0  0  0  0  0  0  0  0  0  0  0  0
   -1.4100  -14.9890    3.3140 C   0  0  0  0  0  0  0  0  0  0  0  0
   -0.4500  -14.8350    4.0730 O   0  0  0  0  0  0  0  0  0  0  0  0
   -2.3210  -16.1420    3.5420 C   0  0  0  0  0  0  0  0  0  0  0  0
   -2.0750  -17.3910    2.9670 C   0  0  0  0  0  0  0  0  0  0  0  0
   -2.9880  -18.4310    3.1550 C   0  0  0  0  0  0  0  0  0  0  0  0
   -4.1530  -18.2240    3.9000 C   0  0  0  0  0  0  0  0  0  0  0  0
   -4.4140  -16.9750    4.4770 C   0  0  0  0  0  0  0  0  0  0  0  0
   -5.6810  -16.7060    5.2460 C   0  0  0  0  0  0  0  0  0  0  0  0
   -6.7590  -17.4290    4.8630 F   0  0  0  0  0  0  0  0  0  0  0  0
   -6.0530  -15.3850    5.1440 F   0  0  0  0  0  0  0  0  0  0  0  0
   -5.5260  -16.9010    6.5850 F   0  0  0  0  0  0  0  0  0  0  0  0
   -3.4790  -15.9400    4.3010 C   0  0  0  0  0  0  0  0  0  0  0  0
    0.1780  -12.8440    1.4120 C   0  0  0  0  0  0  0  0  0  0  0  0
    0.6860  -11.5820    1.0440 C   0  0  0  0  0  0  0  0  0  0  0  0
    2.0580  -11.4930    0.6800 N   0  0  0  0  0  0  0  0  0  0  0  0
    2.5360  -11.8380   -0.5500 C   0  0  0  0  0  0  0  0  0  0  0  0
    1.8970  -11.6110   -1.6710 N   0  0  0  0  0  0  0  0  0  0  0  0
    2.5350  -12.3770   -2.6120 C   0  0  0  0  0  0  0  0  0  0  0  0
    2.1920  -12.5810   -3.9570 C   0  0  0  0  0  0  0  0  0  0  0  0
    2.9870  -13.4290   -4.7350 C   0  0  0  0  0  0  0  0  0  0  0  0
    4.1040  -14.0570   -4.1870 C   0  0  0  0  0  0  0  0  0  0  0  0
    4.4690  -13.8540   -2.8510 C   0  0  0  0  0  0  0  0  0  0  0  0
    3.6560  -13.0090   -2.0770 C   0  0  0  0  0  0  0  0  0  0  0  0
    3.7320  -12.5230   -0.7790 N   0  0  0  0  0  0  0  0  0  0  0  0
    4.8500  -12.6290    0.0990 C   0  0  0  0  0  0  0  0  0  0  0  0
    6.0440  -12.0350   -0.2510 C   0  0  0  0  0  0  0  0  0  0  0  0
    7.0630  -12.1450    0.6630 C   0  0  0  0  0  0  0  0  0  0  0  0
    8.3240  -11.4730    0.3760 N   0  0  0  0  0  0  0  0  0  0  0  0
    9.5350  -12.3360    0.5330 C   0  0  2  0  0  0  0  0  0  0  0  0
   10.7720  -11.4900    0.9060 C   0  0  0  0  0  0  0  0  0  0  0  0
   12.0650  -12.0370    0.2910 C   0  0  0  0  0  0  0  0  0  0  0  0
   12.0040  -11.9580   -1.2340 C   0  0  1  0  0  0  0  0  0  0  0  0
   13.0880  -12.7860   -1.8190 N   0  0  0  0  0  0  0  0  0  0  0  0
   10.6390  -12.3870   -1.7970 C   0  0  0  0  0  0  0  0  0  0  0  0
    9.7670  -13.1270   -0.7750 C   0  0  0  0  0  0  0  0  0  0  0  0
    6.9690  -12.7930    1.8220 N   0  0  0  0  0  0  0  0  0  0  0  0
    5.7900  -13.3870    2.0510 C   0  0  0  0  0  0  0  0  0  0  0  0
    4.7340  -13.3510    1.2320 N   0  0  0  0  0  0  0  0  0  0  0  0
    0.5310   -8.5197    1.8684 H   0  0  0  0  0  0  0  0  0  0  0  0
    1.2846   -9.0895    0.3406 H   0  0  0  0  0  0  0  0  0  0  0  0
   -0.4137   -8.5044    0.3406 H   0  0  0  0  0  0  0  0  0  0  0  0
   -2.1017   -9.7285    1.7549 H   0  0  0  0  0  0  0  0  0  0  0  0
   -2.9792  -11.9773    2.3482 H   0  0  0  0  0  0  0  0  0  0  0  0
   -2.3130  -14.6610    1.4960 H   0  0  0  0  0  0  0  0  0  0  0  0
   -1.1664  -17.5547    2.3689 H   0  0  0  0  0  0  0  0  0  0  0  0
   -2.7894  -19.4191    2.7143 H   0  0  0  0  0  0  0  0  0  0  0  0
   -4.8694  -19.0479    4.0338 H   0  0  0  0  0  0  0  0  0  0  0  0
   -3.6600  -14.9595    4.7656 H   0  0  0  0  0  0  0  0  0  0  0  0
    0.8350  -13.7248    1.3617 H   0  0  0  0  0  0  0  0  0  0  0  0
    2.4450  -10.6060    1.0150 H   0  0  0  0  0  0  0  0  0  0  0  0
    1.3131  -12.0827   -4.3921 H   0  0  0  0  0  0  0  0  0  0  0  0
    2.7280  -13.6020   -5.7900 H   0  0  0  0  0  0  0  0  0  0  0  0
    4.7104  -14.7250   -4.8164 H   0  0  0  0  0  0  0  0  0  0  0  0
    5.3592  -14.3380   -2.4230 H   0  0  0  0  0  0  0  0  0  0  0  0
    6.1728  -11.5044   -1.2059 H   0  0  0  0  0  0  0  0  0  0  0  0
    8.3170  -10.6140    0.9670 H   0  0  0  0  0  0  0  0  0  0  0  0
    8.2570  -11.1030   -0.5770 H   0  0  0  0  0  0  0  0  0  0  0  0
    9.3713  -13.0474    1.3559 H   0  0  0  0  0  0  0  0  0  0  0  0
   10.6177  -10.4620    0.5462 H   0  0  0  0  0  0  0  0  0  0  0  0
   10.8822  -11.5237    2.0000 H   0  0  0  0  0  0  0  0  0  0  0  0
   12.9175  -11.4424    0.6510 H   0  0  0  0  0  0  0  0  0  0  0  0
   12.1852  -13.0889    0.5895 H   0  0  0  0  0  0  0  0  0  0  0  0
   12.1434  -10.9039   -1.5158 H   0  0  0  0  0  0  0  0  0  0  0  0
   13.8090  -13.0110   -1.1130 H   0  0  0  0  0  0  0  0  0  0  0  0
   13.5730  -12.3500   -2.6160 H   0  0  0  0  0  0  0  0  0  0  0  0
   12.7390  -13.7000   -2.1480 H   0  0  0  0  0  0  0  0  0  0  0  0
   10.1001  -11.4875   -2.1296 H   0  0  0  0  0  0  0  0  0  0  0  0
   10.8327  -13.0841   -2.6256 H   0  0  0  0  0  0  0  0  0  0  0  0
    8.7891  -13.3306   -1.2357 H   0  0  0  0  0  0  0  0  0  0  0  0
   10.3028  -14.0483   -0.5026 H   0  0  0  0  0  0  0  0  0  0  0  0
    5.6822  -13.9503    2.9896 H   0  0  0  0  0  0  0  0  0  0  0  0
  1  2  1  0
  2  3  2  0
  3  4  1  0
  4  5  2  0
  5  6  1  0
  6  7  1  0
  7  8  2  0
  7  9  1  0
  9 10  2  0
 10 11  1  0
 11 12  2  0
 12 13  1  0
 13 14  1  0
 14 15  1  0
 14 16  1  0
 14 17  1  0
 13 18  2  0
  5 19  1  0
 19 20  2  0
 20 21  1  0
 21 22  1  0
 22 23  2  0
 23 24  1  0
 24 25  2  0
 25 26  1  0
 26 27  2  0
 27 28  1  0
 28 29  2  0
 29 30  1  0
 30 31  1  0
 31 32  2  0
 32 33  1  0
 33 34  1  0
 34 35  1  0
 35 36  1  0
 36 37  1  0
 37 38  1  0
 38 39  1  0
 38 40  1  0
 40 41  1  0
 33 42  2  0
 42 43  1  0
 43 44  2  0
 20  2  1  0
 30 22  1  0
 44 31  1  0
 18  9  1  0
 29 24  1  0
 41 35  1  0
  1 45  1  0
  1 46  1  0
  1 47  1  0
  3 48  1  0
  4 49  1  0
  6 50  1  0
 10 51  1  0
 11 52  1  0
 12 53  1  0
 18 54  1  0
 19 55  1  0
 21 56  1  0
 25 57  1  0
 26 58  1  0
 27 59  1  0
 28 60  1  0
 32 61  1  0
 34 62  1  0
 34 63  1  0
 35 64  1  6
 36 65  1  0
 36 66  1  0
 37 67  1  0
 37 68  1  0
 38 69  1  6
 39 70  1  0
 39 71  1  0
 39 72  1  0
 40 73  1  0
 40 74  1  0
 41 75  1  0
 41 76  1  0
 43 77  1  0
M  CHG  2  34   1  39   1
M  END
>  <meeko>  (8) 
{"is_sidechain": [false], "free_energy": -8.697, "intermolecular_energy": -14.441, "internal_energy": -2.002}

$$$$
LIB_REZFVUNAFUHYBW__M_PUB_ALL__e8__s20260927
     RDKit          3D

 77 82  0  0  0  0  0  0  0  0999 V2000
   12.4680  -11.2230    0.2060 C   0  0  0  0  0  0  0  0  0  0  0  0
   12.6900  -11.8330   -1.1550 C   0  0  0  0  0  0  0  0  0  0  0  0
   13.6460  -11.2410   -1.9950 C   0  0  0  0  0  0  0  0  0  0  0  0
   13.8710  -11.7260   -3.2840 C   0  0  0  0  0  0  0  0  0  0  0  0
   13.1570  -12.8260   -3.7520 C   0  0  0  0  0  0  0  0  0  0  0  0
   13.4210  -13.2650   -5.0650 N   0  0  0  0  0  0  0  0  0  0  0  0
   13.3240  -14.5530   -5.5400 C   0  0  0  0  0  0  0  0  0  0  0  0
   13.2410  -15.5820   -4.8650 O   0  0  0  0  0  0  0  0  0  0  0  0
   13.4290  -14.6770   -7.0190 C   0  0  0  0  0  0  0  0  0  0  0  0
   14.5280  -15.2920   -7.6230 C   0  0  0  0  0  0  0  0  0  0  0  0
   14.6180  -15.3320   -9.0160 C   0  0  0  0  0  0  0  0  0  0  0  0
   13.6250  -14.7480   -9.8070 C   0  0  0  0  0  0  0  0  0  0  0  0
   12.5200  -14.1240   -9.2140 C   0  0  0  0  0  0  0  0  0  0  0  0
   11.4560  -13.4450  -10.0360 C   0  0  0  0  0  0  0  0  0  0  0  0
   10.8880  -14.2100  -10.9970 F   0  0  0  0  0  0  0  0  0  0  0  0
   11.9570  -12.3360  -10.6770 F   0  0  0  0  0  0  0  0  0  0  0  0
   10.4440  -12.9530   -9.2690 F   0  0  0  0  0  0  0  0  0  0  0  0
   12.4260  -14.1070   -7.8110 C   0  0  0  0  0  0  0  0  0  0  0  0
   12.1870  -13.4080   -2.9340 C   0  0  0  0  0  0  0  0  0  0  0  0
   11.9730  -12.9560   -1.6160 C   0  0  0  0  0  0  0  0  0  0  0  0
   10.9240  -13.5560   -0.8650 N   0  0  0  0  0  0  0  0  0  0  0  0
    9.6150  -13.1910   -0.9730 C   0  0  0  0  0  0  0  0  0  0  0  0
    9.0470  -12.2790   -0.2240 N   0  0  0  0  0  0  0  0  0  0  0  0
    7.7000  -12.4410   -0.4150 C   0  0  0  0  0  0  0  0  0  0  0  0
    6.6370  -11.7870    0.2260 C   0  0  0  0  0  0  0  0  0  0  0  0
    5.3260  -12.1300   -0.1190 C   0  0  0  0  0  0  0  0  0  0  0  0
    5.0770  -13.1000   -1.0890 C   0  0  0  0  0  0  0  0  0  0  0  0
    6.1250  -13.7520   -1.7490 C   0  0  0  0  0  0  0  0  0  0  0  0
    7.4370  -13.4070   -1.3840 C   0  0  0  0  0  0  0  0  0  0  0  0
    8.6930  -13.7710   -1.8490 N   0  0  0  0  0  0  0  0  0  0  0  0
    8.9740  -14.5100   -3.0360 C   0  0  0  0  0  0  0  0  0  0  0  0
    8.7110  -13.9420   -4.2640 C   0  0  0  0  0  0  0  0  0  0  0  0
    9.0450  -14.6970   -5.3610 C   0  0  0  0  0  0  0  0  0  0  0  0
    8.8550  -14.1160   -6.6840 N   0  0  0  0  0  0  0  0  0  0  0  0
    7.8650  -14.8370   -7.5410 C   0  0  2  0  0  0  0  0  0  0  0  0
    8.5600  -15.5020   -8.7490 C   0  0  0  0  0  0  0  0  0  0  0  0
    7.6840  -15.4960  -10.0070 C   0  0  0  0  0  0  0  0  0  0  0  0
    7.4240  -14.0620  -10.4680 C   0  0  1  0  0  0  0  0  0  0  0  0
    6.3200  -14.0500  -11.4600 N   0  0  0  0  0  0  0  0  0  0  0  0
    7.1090  -13.1110   -9.3020 C   0  0  0  0  0  0  0  0  0  0  0  0
    6.7720  -13.8430   -7.9970 C   0  0  0  0  0  0  0  0  0  0  0  0
    9.5730  -15.9180   -5.3030 N   0  0  0  0  0  0  0  0  0  0  0  0
    9.7410  -16.4110   -4.0680 C   0  0  0  0  0  0  0  0  0  0  0  0
    9.4460  -15.7690   -2.9340 N   0  0  0  0  0  0  0  0  0  0  0  0
   12.7341  -11.9543    0.9834 H   0  0  0  0  0  0  0  0  0  0  0  0
   13.0979  -10.3277    0.3137 H   0  0  0  0  0  0  0  0  0  0  0  0
   11.4100  -10.9420    0.3137 H   0  0  0  0  0  0  0  0  0  0  0  0
   14.2273  -10.3808   -1.6314 H   0  0  0  0  0  0  0  0  0  0  0  0
   14.6142  -11.2382   -3.9319 H   0  0  0  0  0  0  0  0  0  0  0  0
   13.7940  -12.5570   -5.6950 H   0  0  0  0  0  0  0  0  0  0  0  0
   15.3184  -15.7425   -7.0047 H   0  0  0  0  0  0  0  0  0  0  0  0
   15.4765  -15.8266   -9.4939 H   0  0  0  0  0  0  0  0  0  0  0  0
   13.7117  -14.7785  -10.9032 H   0  0  0  0  0  0  0  0  0  0  0  0
   11.5536  -13.6401   -7.3304 H   0  0  0  0  0  0  0  0  0  0  0  0
   11.5775  -14.2357   -3.3257 H   0  0  0  0  0  0  0  0  0  0  0  0
   11.0480  -14.5720   -0.8560 H   0  0  0  0  0  0  0  0  0  0  0  0
    6.8317  -11.0172    0.9873 H   0  0  0  0  0  0  0  0  0  0  0  0
    4.4829  -11.6296    0.3798 H   0  0  0  0  0  0  0  0  0  0  0  0
    4.0376  -13.3577   -1.3403 H   0  0  0  0  0  0  0  0  0  0  0  0
    5.9286  -14.5067   -2.5248 H   0  0  0  0  0  0  0  0  0  0  0  0
    8.2603  -12.9431   -4.3594 H   0  0  0  0  0  0  0  0  0  0  0  0
    9.8130  -14.0390   -7.0890 H   0  0  0  0  0  0  0  0  0  0  0  0
    8.5800  -13.1380   -6.5450 H   0  0  0  0  0  0  0  0  0  0  0  0
    7.3951  -15.6420   -6.9570 H   0  0  0  0  0  0  0  0  0  0  0  0
    9.4907  -14.9567   -8.9646 H   0  0  0  0  0  0  0  0  0  0  0  0
    8.7579  -16.5513   -8.4846 H   0  0  0  0  0  0  0  0  0  0  0  0
    8.1973  -16.0471  -10.8088 H   0  0  0  0  0  0  0  0  0  0  0  0
    6.7220  -15.9761   -9.7744 H   0  0  0  0  0  0  0  0  0  0  0  0
    8.3493  -13.6919  -10.9336 H   0  0  0  0  0  0  0  0  0  0  0  0
    6.6720  -14.2380  -12.4130 H   0  0  0  0  0  0  0  0  0  0  0  0
    5.7960  -13.1650  -11.5010 H   0  0  0  0  0  0  0  0  0  0  0  0
    5.6300  -14.7960  -11.2750 H   0  0  0  0  0  0  0  0  0  0  0  0
    7.9861  -12.4707   -9.1268 H   0  0  0  0  0  0  0  0  0  0  0  0
    6.2210  -12.5280   -9.5875 H   0  0  0  0  0  0  0  0  0  0  0  0
    6.6323  -13.0931   -7.2045 H   0  0  0  0  0  0  0  0  0  0  0  0
    5.8613  -14.4308   -8.1844 H   0  0  0  0  0  0  0  0  0  0  0  0
   10.1553  -17.4263   -3.9810 H   0  0  0  0  0  0  0  0  0  0  0  0
  1  2  1  0
  2  3  2  0
  3  4  1  0
  4  5  2  0
  5  6  1  0
  6  7  1  0
  7  8  2  0
  7  9  1  0
  9 10  2  0
 10 11  1  0
 11 12  2  0
 12 13  1  0
 13 14  1  0
 14 15  1  0
 14 16  1  0
 14 17  1  0
 13 18  2  0
  5 19  1  0
 19 20  2  0
 20 21  1  0
 21 22  1  0
 22 23  2  0
 23 24  1  0
 24 25  2  0
 25 26  1  0
 26 27  2  0
 27 28  1  0
 28 29  2  0
 29 30  1  0
 30 31  1  0
 31 32  2  0
 32 33  1  0
 33 34  1  0
 34 35  1  0
 35 36  1  0
 36 37  1  0
 37 38  1  0
 38 39  1  0
 38 40  1  0
 40 41  1  0
 33 42  2  0
 42 43  1  0
 43 44  2  0
 20  2  1  0
 30 22  1  0
 44 31  1  0
 18  9  1  0
 29 24  1  0
 41 35  1  0
  1 45  1  0
  1 46  1  0
  1 47  1  0
  3 48  1  0
  4 49  1  0
  6 50  1  0
 10 51  1  0
 11 52  1  0
 12 53  1  0
 18 54  1  0
 19 55  1  0
 21 56  1  0
 25 57  1  0
 26 58  1  0
 27 59  1  0
 28 60  1  0
 32 61  1  0
 34 62  1  0
 34 63  1  0
 35 64  1  6
 36 65  1  0
 36 66  1  0
 37 67  1  0
 37 68  1  0
 38 69  1  1
 39 70  1  0
 39 71  1  0
 39 72  1  0
 40 73  1  0
 40 74  1  0
 41 75  1  0
 41 76  1  0
 43 77  1  0
M  CHG  2  34   1  39   1
M  END
>  <meeko>  (9) 
{"is_sidechain": [false], "free_energy": -8.675, "intermolecular_energy": -13.131, "internal_energy": -3.279}

$$$$
