LIB_PLFCIUGPHZFBAC__M_PUB_ALL__e8__s20260927
     RDKit          3D

 55 59  0  0  0  0  0  0  0  0999 V2000
    3.0880  -12.7880    0.2180 C   0  0  0  0  0  0  0  0  0  0  0  0
    2.9190  -12.0540   -1.0820 C   0  0  0  0  0  0  0  0  0  0  0  0
    3.8650  -12.2680   -2.1120 C   0  0  0  0  0  0  0  0  0  0  0  0
    3.7600  -11.6130   -3.3420 C   0  0  0  0  0  0  0  0  0  0  0  0
    4.6760  -11.7610   -4.4060 N   0  0  0  0  0  0  0  0  0  0  0  0
    4.9230  -12.8860   -5.1780 C   0  0  0  0  0  0  0  0  0  0  0  0
    4.3040  -13.9410   -5.1270 O   0  0  0  0  0  0  0  0  0  0  0  0
    6.0010  -12.6460   -6.0260 N   0  0  0  0  0  0  0  0  0  0  0  0
    6.4920  -13.4800   -7.0530 C   0  0  0  0  0  0  0  0  0  0  0  0
    7.0570  -14.7420   -6.8320 C   0  0  0  0  0  0  0  0  0  0  0  0
    7.5450  -15.5470   -7.8770 C   0  0  0  0  0  0  0  0  0  0  0  0
    8.1050  -16.7930   -7.6150 N   0  0  0  0  0  0  0  0  0  0  0  0
    7.4200  -17.7770   -6.7640 C   0  0  0  0  0  0  0  0  0  0  0  0
    8.4190  -18.8110   -6.2240 C   0  0  0  0  0  0  0  0  0  0  0  0
    9.1540  -19.4420   -7.2830 O   0  0  0  0  0  0  0  0  0  0  0  0
    9.9100  -18.4520   -8.0000 C   0  0  0  0  0  0  0  0  0  0  0  0
    9.0000  -17.3890   -8.6330 C   0  0  0  0  0  0  0  0  0  0  0  0
    7.4120  -15.0440   -9.1780 C   0  0  0  0  0  0  0  0  0  0  0  0
    6.8420  -13.7850   -9.4370 C   0  0  0  0  0  0  0  0  0  0  0  0
    6.7080  -13.2950  -10.8530 C   0  0  0  0  0  0  0  0  0  0  0  0
    5.5580  -13.7120  -11.4570 F   0  0  0  0  0  0  0  0  0  0  0  0
    7.7210  -13.7040  -11.6680 F   0  0  0  0  0  0  0  0  0  0  0  0
    6.6940  -11.9350  -10.9330 F   0  0  0  0  0  0  0  0  0  0  0  0
    6.3780  -13.0140   -8.3630 C   0  0  0  0  0  0  0  0  0  0  0  0
    2.6960  -10.7310   -3.5500 C   0  0  0  0  0  0  0  0  0  0  0  0
    1.7560  -10.5090   -2.5450 C   0  0  0  0  0  0  0  0  0  0  0  0
    1.8560  -11.1610   -1.3090 C   0  0  0  0  0  0  0  0  0  0  0  0
    0.7230  -10.8170   -0.2320 C   0  0  0  0  0  0  0  0  0  0  0  0
    0.6570   -9.5900    0.4200 N   0  0  0  0  0  0  0  0  0  0  0  0
   -0.4050   -9.7120    1.2190 C   0  0  0  0  0  0  0  0  0  0  0  0
   -0.9980   -8.9020    2.0990 N   0  0  0  0  0  0  0  0  0  0  0  0
   -2.0730   -9.6950    2.5820 N   0  0  0  0  0  0  0  0  0  0  0  0
   -1.9800  -10.9010    1.9160 C   0  0  0  0  0  0  0  0  0  0  0  0
   -0.9350  -10.9030    1.0680 C   0  0  0  0  0  0  0  0  0  0  0  0
   -0.2970  -11.6670    0.1780 N   0  0  0  0  0  0  0  0  0  0  0  0
    2.9279  -12.0927    1.0552 H   0  0  0  0  0  0  0  0  0  0  0  0
    2.3547  -13.6059    0.2753 H   0  0  0  0  0  0  0  0  0  0  0  0
    4.1052  -13.2028    0.2753 H   0  0  0  0  0  0  0  0  0  0  0  0
    4.6997  -12.9638   -1.9413 H   0  0  0  0  0  0  0  0  0  0  0  0
    5.1640  -10.9180   -4.6570 H   0  0  0  0  0  0  0  0  0  0  0  0
    6.5390  -11.8200   -5.8180 H   0  0  0  0  0  0  0  0  0  0  0  0
    7.1217  -15.1186   -5.8005 H   0  0  0  0  0  0  0  0  0  0  0  0
    6.9457  -17.2565   -5.9189 H   0  0  0  0  0  0  0  0  0  0  0  0
    6.6595  -18.2977   -7.3645 H   0  0  0  0  0  0  0  0  0  0  0  0
    9.1269  -18.3052   -5.5509 H   0  0  0  0  0  0  0  0  0  0  0  0
    7.8531  -19.5879   -5.6890 H   0  0  0  0  0  0  0  0  0  0  0  0
   10.6025  -17.9584   -7.3023 H   0  0  0  0  0  0  0  0  0  0  0  0
   10.4580  -18.9587   -8.8081 H   0  0  0  0  0  0  0  0  0  0  0  0
    9.6228  -16.5970   -9.0744 H   0  0  0  0  0  0  0  0  0  0  0  0
    8.3842  -17.8672   -9.4089 H   0  0  0  0  0  0  0  0  0  0  0  0
    7.7646  -15.6532  -10.0233 H   0  0  0  0  0  0  0  0  0  0  0  0
    5.9197  -12.0325   -8.5545 H   0  0  0  0  0  0  0  0  0  0  0  0
    2.5997  -10.2085   -4.5132 H   0  0  0  0  0  0  0  0  0  0  0  0
    0.9241   -9.8122   -2.7248 H   0  0  0  0  0  0  0  0  0  0  0  0
   -2.6682  -11.7471    2.0594 H   0  0  0  0  0  0  0  0  0  0  0  0
  1  2  1  0
  2  3  2  0
  3  4  1  0
  4  5  1  0
  5  6  1  0
  6  7  2  0
  6  8  1  0
  8  9  1  0
  9 10  2  0
 10 11  1  0
 11 12  1  0
 12 13  1  0
 13 14  1  0
 14 15  1  0
 15 16  1  0
 16 17  1  0
 11 18  2  0
 18 19  1  0
 19 20  1  0
 20 21  1  0
 20 22  1  0
 20 23  1  0
 19 24  2  0
  4 25  2  0
 25 26  1  0
 26 27  2  0
 27 28  1  0
 28 29  2  0
 29 30  1  0
 30 31  1  0
 31 32  1  0
 32 33  2  0
 33 34  1  0
 34 35  1  0
 27  2  1  0
 35 28  1  0
 24  9  1  0
 34 30  2  0
 17 12  1  0
  1 36  1  0
  1 37  1  0
  1 38  1  0
  3 39  1  0
  5 40  1  0
  8 41  1  0
 10 42  1  0
 13 43  1  0
 13 44  1  0
 14 45  1  0
 14 46  1  0
 16 47  1  0
 16 48  1  0
 17 49  1  0
 17 50  1  0
 18 51  1  0
 24 52  1  0
 25 53  1  0
 26 54  1  0
 33 55  1  0
M  CHG  2  31  -1  35  -1
M  END
>  <meeko>  (1) 
{"is_sidechain": [false], "free_energy": -9.083, "intermolecular_energy": -11.738, "internal_energy": -0.823}

$$$$
LIB_PLFCIUGPHZFBAC__M_PUB_ALL__e8__s20260927
     RDKit          3D

 55 59  0  0  0  0  0  0  0  0999 V2000
    2.2070  -11.5260   -2.6060 C   0  0  0  0  0  0  0  0  0  0  0  0
    3.0780  -11.9240   -1.4480 C   0  0  0  0  0  0  0  0  0  0  0  0
    4.3760  -12.4230   -1.7140 C   0  0  0  0  0  0  0  0  0  0  0  0
    5.2310  -12.8100   -0.6790 C   0  0  0  0  0  0  0  0  0  0  0  0
    6.5280  -13.3340   -0.8690 N   0  0  0  0  0  0  0  0  0  0  0  0
    7.6360  -12.7110   -1.4230 C   0  0  0  0  0  0  0  0  0  0  0  0
    7.7020  -11.5380   -1.7650 O   0  0  0  0  0  0  0  0  0  0  0  0
    8.6760  -13.6270   -1.5510 N   0  0  0  0  0  0  0  0  0  0  0  0
   10.0050  -13.3720   -1.9510 C   0  0  0  0  0  0  0  0  0  0  0  0
   10.5660  -13.8430   -3.1440 C   0  0  0  0  0  0  0  0  0  0  0  0
   11.8980  -13.5770   -3.5120 C   0  0  0  0  0  0  0  0  0  0  0  0
   12.4190  -14.0680   -4.7040 N   0  0  0  0  0  0  0  0  0  0  0  0
   13.4900  -15.0760   -4.7140 C   0  0  0  0  0  0  0  0  0  0  0  0
   14.2220  -15.0720   -6.0650 C   0  0  0  0  0  0  0  0  0  0  0  0
   13.3120  -15.2490   -7.1610 O   0  0  0  0  0  0  0  0  0  0  0  0
   12.3690  -14.1650   -7.1830 C   0  0  0  0  0  0  0  0  0  0  0  0
   11.5370  -14.1070   -5.8920 C   0  0  0  0  0  0  0  0  0  0  0  0
   12.6490  -12.7810   -2.6370 C   0  0  0  0  0  0  0  0  0  0  0  0
   12.1150  -12.2850   -1.4350 C   0  0  0  0  0  0  0  0  0  0  0  0
   12.9560  -11.4200   -0.5360 C   0  0  0  0  0  0  0  0  0  0  0  0
   13.4500  -12.0920    0.5430 F   0  0  0  0  0  0  0  0  0  0  0  0
   12.2840  -10.3490   -0.0270 F   0  0  0  0  0  0  0  0  0  0  0  0
   14.0420  -10.9060   -1.1780 F   0  0  0  0  0  0  0  0  0  0  0  0
   10.7850  -12.5820   -1.1060 C   0  0  0  0  0  0  0  0  0  0  0  0
    4.7890  -12.6990    0.6410 C   0  0  0  0  0  0  0  0  0  0  0  0
    3.5130  -12.2100    0.9200 C   0  0  0  0  0  0  0  0  0  0  0  0
    2.6490  -11.8220   -0.1130 C   0  0  0  0  0  0  0  0  0  0  0  0
    1.2080  -11.2870    0.3310 C   0  0  0  0  0  0  0  0  0  0  0  0
    1.0190  -10.0340    0.9080 N   0  0  0  0  0  0  0  0  0  0  0  0
   -0.2970   -9.9820    1.1270 C   0  0  0  0  0  0  0  0  0  0  0  0
   -1.1100   -9.0650    1.6550 N   0  0  0  0  0  0  0  0  0  0  0  0
   -2.3830   -9.6890    1.5730 N   0  0  0  0  0  0  0  0  0  0  0  0
   -2.1610  -10.9240    0.9960 C   0  0  0  0  0  0  0  0  0  0  0  0
   -0.8550  -11.0980    0.7220 C   0  0  0  0  0  0  0  0  0  0  0  0
    0.0090  -11.9770    0.2080 N   0  0  0  0  0  0  0  0  0  0  0  0
    1.2676  -11.0967   -2.2276 H   0  0  0  0  0  0  0  0  0  0  0  0
    2.7312  -10.7781   -3.2190 H   0  0  0  0  0  0  0  0  0  0  0  0
    1.9846  -12.4119   -3.2190 H   0  0  0  0  0  0  0  0  0  0  0  0
    4.7180  -12.5077   -2.7560 H   0  0  0  0  0  0  0  0  0  0  0  0
    6.6630  -14.2600   -0.5000 H   0  0  0  0  0  0  0  0  0  0  0  0
    8.4190  -14.5930   -1.4250 H   0  0  0  0  0  0  0  0  0  0  0  0
    9.9411  -14.4447   -3.8203 H   0  0  0  0  0  0  0  0  0  0  0  0
   14.2084  -14.8485   -3.9126 H   0  0  0  0  0  0  0  0  0  0  0  0
   13.0446  -16.0690   -4.5543 H   0  0  0  0  0  0  0  0  0  0  0  0
   14.7430  -14.1107   -6.1856 H   0  0  0  0  0  0  0  0  0  0  0  0
   14.9350  -15.9096   -6.0718 H   0  0  0  0  0  0  0  0  0  0  0  0
   12.9173  -13.2181   -7.2962 H   0  0  0  0  0  0  0  0  0  0  0  0
   11.6814  -14.3266   -8.0263 H   0  0  0  0  0  0  0  0  0  0  0  0
   10.9101  -13.2032   -5.9064 H   0  0  0  0  0  0  0  0  0  0  0  0
   10.9069  -15.0069   -5.8360 H   0  0  0  0  0  0  0  0  0  0  0  0
   13.6890  -12.5366   -2.8989 H   0  0  0  0  0  0  0  0  0  0  0  0
   10.3528  -12.1889   -0.1739 H   0  0  0  0  0  0  0  0  0  0  0  0
    5.4516  -12.9992    1.4661 H   0  0  0  0  0  0  0  0  0  0  0  0
    3.1802  -12.1277    1.9652 H   0  0  0  0  0  0  0  0  0  0  0  0
   -2.9462  -11.6658    0.7883 H   0  0  0  0  0  0  0  0  0  0  0  0
  1  2  1  0
  2  3  2  0
  3  4  1  0
  4  5  1  0
  5  6  1  0
  6  7  2  0
  6  8  1  0
  8  9  1  0
  9 10  2  0
 10 11  1  0
 11 12  1  0
 12 13  1  0
 13 14  1  0
 14 15  1  0
 15 16  1  0
 16 17  1  0
 11 18  2  0
 18 19  1  0
 19 20  1  0
 20 21  1  0
 20 22  1  0
 20 23  1  0
 19 24  2  0
  4 25  2  0
 25 26  1  0
 26 27  2  0
 27 28  1  0
 28 29  2  0
 29 30  1  0
 30 31  1  0
 31 32  1  0
 32 33  2  0
 33 34  1  0
 34 35  1  0
 27  2  1  0
 35 28  1  0
 24  9  1  0
 34 30  2  0
 17 12  1  0
  1 36  1  0
  1 37  1  0
  1 38  1  0
  3 39  1  0
  5 40  1  0
  8 41  1  0
 10 42  1  0
 13 43  1  0
 13 44  1  0
 14 45  1  0
 14 46  1  0
 16 47  1  0
 16 48  1  0
 17 49  1  0
 17 50  1  0
 18 51  1  0
 24 52  1  0
 25 53  1  0
 26 54  1  0
 33 55  1  0
M  CHG  2  31  -1  35  -1
M  END
>  <meeko>  (2) 
{"is_sidechain": [false], "free_energy": -8.595, "intermolecular_energy": -11.118, "internal_energy": -0.812}

$$$$
LIB_PLFCIUGPHZFBAC__M_PUB_ALL__e8__s20260927
     RDKit          3D

 55 59  0  0  0  0  0  0  0  0999 V2000
    7.6640  -15.5680   -0.7010 C   0  0  0  0  0  0  0  0  0  0  0  0
    7.0430  -14.4390    0.0720 C   0  0  0  0  0  0  0  0  0  0  0  0
    5.7910  -14.6490    0.6960 C   0  0  0  0  0  0  0  0  0  0  0  0
    5.1650  -13.6370    1.4280 C   0  0  0  0  0  0  0  0  0  0  0  0
    3.9090  -13.7680    2.0600 N   0  0  0  0  0  0  0  0  0  0  0  0
    2.6480  -13.7020    1.4890 C   0  0  0  0  0  0  0  0  0  0  0  0
    2.4060  -13.6090    0.2930 O   0  0  0  0  0  0  0  0  0  0  0  0
    1.6770  -13.7430    2.4870 N   0  0  0  0  0  0  0  0  0  0  0  0
    0.2780  -13.8250    2.3260 C   0  0  0  0  0  0  0  0  0  0  0  0
   -0.5030  -14.8870    2.7960 C   0  0  0  0  0  0  0  0  0  0  0  0
   -1.8970  -14.9430    2.6130 C   0  0  0  0  0  0  0  0  0  0  0  0
   -2.6360  -16.0190    3.0910 N   0  0  0  0  0  0  0  0  0  0  0  0
   -3.8550  -15.8180    3.8880 C   0  0  0  0  0  0  0  0  0  0  0  0
   -4.1820  -17.0800    4.7000 C   0  0  0  0  0  0  0  0  0  0  0  0
   -4.2800  -18.2400    3.8600 O   0  0  0  0  0  0  0  0  0  0  0  0
   -3.0200  -18.4680    3.2070 C   0  0  0  0  0  0  0  0  0  0  0  0
   -2.6170  -17.2820    2.3180 C   0  0  0  0  0  0  0  0  0  0  0  0
   -2.4920  -13.8570    1.9570 C   0  0  0  0  0  0  0  0  0  0  0  0
   -1.7400  -12.7700    1.4790 C   0  0  0  0  0  0  0  0  0  0  0  0
   -2.4270  -11.6200    0.7940 C   0  0  0  0  0  0  0  0  0  0  0  0
   -3.3870  -12.0190   -0.0880 F   0  0  0  0  0  0  0  0  0  0  0  0
   -1.5790  -10.8260    0.0810 F   0  0  0  0  0  0  0  0  0  0  0  0
   -3.0570  -10.7930    1.6740 F   0  0  0  0  0  0  0  0  0  0  0  0
   -0.3520  -12.7620    1.6770 C   0  0  0  0  0  0  0  0  0  0  0  0
    5.7950  -12.3950    1.5410 C   0  0  0  0  0  0  0  0  0  0  0  0
    7.0280  -12.1720    0.9310 C   0  0  0  0  0  0  0  0  0  0  0  0
    7.6610  -13.1820    0.1940 C   0  0  0  0  0  0  0  0  0  0  0  0
    9.0690  -12.8020   -0.4660 C   0  0  0  0  0  0  0  0  0  0  0  0
    9.2180  -12.5720   -1.8310 N   0  0  0  0  0  0  0  0  0  0  0  0
   10.5170  -12.2960   -1.9650 C   0  0  0  0  0  0  0  0  0  0  0  0
   11.2950  -11.9930   -3.0070 N   0  0  0  0  0  0  0  0  0  0  0  0
   12.5720  -11.8300   -2.4090 N   0  0  0  0  0  0  0  0  0  0  0  0
   12.3900  -12.0620   -1.0590 C   0  0  0  0  0  0  0  0  0  0  0  0
   11.1030  -12.3530   -0.7920 C   0  0  0  0  0  0  0  0  0  0  0  0
   10.2750  -12.6620    0.2080 N   0  0  0  0  0  0  0  0  0  0  0  0
    8.0727  -16.3110   -0.0003 H   0  0  0  0  0  0  0  0  0  0  0  0
    6.9000  -16.0426   -1.3343 H   0  0  0  0  0  0  0  0  0  0  0  0
    8.4739  -15.1769   -1.3343 H   0  0  0  0  0  0  0  0  0  0  0  0
    5.3003  -15.6291    0.6030 H   0  0  0  0  0  0  0  0  0  0  0  0
    3.9560  -13.9920    3.0390 H   0  0  0  0  0  0  0  0  0  0  0  0
    2.0170  -13.6120    3.4260 H   0  0  0  0  0  0  0  0  0  0  0  0
   -0.0071  -15.7110    3.3299 H   0  0  0  0  0  0  0  0  0  0  0  0
   -3.7019  -14.9741    4.5768 H   0  0  0  0  0  0  0  0  0  0  0  0
   -4.6932  -15.6058    3.2080 H   0  0  0  0  0  0  0  0  0  0  0  0
   -3.3863  -17.2430    5.4418 H   0  0  0  0  0  0  0  0  0  0  0  0
   -5.1541  -16.9293    5.1922 H   0  0  0  0  0  0  0  0  0  0  0  0
   -2.2444  -18.6195    3.9722 H   0  0  0  0  0  0  0  0  0  0  0  0
   -3.1218  -19.3568    2.5669 H   0  0  0  0  0  0  0  0  0  0  0  0
   -1.6026  -17.4514    1.9277 H   0  0  0  0  0  0  0  0  0  0  0  0
   -3.3357  -17.2006    1.4893 H   0  0  0  0  0  0  0  0  0  0  0  0
   -3.5823  -13.8552    1.8115 H   0  0  0  0  0  0  0  0  0  0  0  0
    0.2453  -11.9110    1.3179 H   0  0  0  0  0  0  0  0  0  0  0  0
    5.3150  -11.5886    2.1148 H   0  0  0  0  0  0  0  0  0  0  0  0
    7.5114  -11.1888    1.0294 H   0  0  0  0  0  0  0  0  0  0  0  0
   13.1889  -12.0152   -0.3043 H   0  0  0  0  0  0  0  0  0  0  0  0
  1  2  1  0
  2  3  2  0
  3  4  1  0
  4  5  1  0
  5  6  1  0
  6  7  2  0
  6  8  1  0
  8  9  1  0
  9 10  2  0
 10 11  1  0
 11 12  1  0
 12 13  1  0
 13 14  1  0
 14 15  1  0
 15 16  1  0
 16 17  1  0
 11 18  2  0
 18 19  1  0
 19 20  1  0
 20 21  1  0
 20 22  1  0
 20 23  1  0
 19 24  2  0
  4 25  2  0
 25 26  1  0
 26 27  2  0
 27 28  1  0
 28 29  2  0
 29 30  1  0
 30 31  1  0
 31 32  1  0
 32 33  2  0
 33 34  1  0
 34 35  1  0
 27  2  1  0
 35 28  1  0
 24  9  1  0
 34 30  2  0
 17 12  1  0
  1 36  1  0
  1 37  1  0
  1 38  1  0
  3 39  1  0
  5 40  1  0
  8 41  1  0
 10 42  1  0
 13 43  1  0
 13 44  1  0
 14 45  1  0
 14 46  1  0
 16 47  1  0
 16 48  1  0
 17 49  1  0
 17 50  1  0
 18 51  1  0
 24 52  1  0
 25 53  1  0
 26 54  1  0
 33 55  1  0
M  CHG  2  31  -1  35  -1
M  END
>  <meeko>  (3) 
{"is_sidechain": [false], "free_energy": -8.506, "intermolecular_energy": -11.077, "internal_energy": -0.738}

$$$$
LIB_PLFCIUGPHZFBAC__M_PUB_ALL__e8__s20260927
     RDKit          3D

 55 59  0  0  0  0  0  0  0  0999 V2000
   -3.5570  -13.7220    2.7490 C   0  0  0  0  0  0  0  0  0  0  0  0
   -3.7280  -15.1480    3.1910 C   0  0  0  0  0  0  0  0  0  0  0  0
   -4.6420  -15.4310    4.2340 C   0  0  0  0  0  0  0  0  0  0  0  0
   -4.8430  -16.7370    4.6890 C   0  0  0  0  0  0  0  0  0  0  0  0
   -5.7210  -17.0920    5.7360 N   0  0  0  0  0  0  0  0  0  0  0  0
   -7.1070  -17.0660    5.7430 C   0  0  0  0  0  0  0  0  0  0  0  0
   -7.8240  -16.8150    4.7840 O   0  0  0  0  0  0  0  0  0  0  0  0
   -7.5760  -17.3600    7.0200 N   0  0  0  0  0  0  0  0  0  0  0  0
   -8.9140  -17.5580    7.4230 C   0  0  0  0  0  0  0  0  0  0  0  0
   -9.4800  -18.8150    7.6650 C   0  0  0  0  0  0  0  0  0  0  0  0
  -10.8210  -18.9800    8.0590 C   0  0  0  0  0  0  0  0  0  0  0  0
  -11.3470  -20.2470    8.2840 N   0  0  0  0  0  0  0  0  0  0  0  0
  -12.7740  -20.5320    8.0770 C   0  0  0  0  0  0  0  0  0  0  0  0
  -13.1910  -21.7910    8.8520 C   0  0  0  0  0  0  0  0  0  0  0  0
  -12.3680  -22.9180    8.5150 O   0  0  0  0  0  0  0  0  0  0  0  0
  -11.0020  -22.6350    8.8610 C   0  0  0  0  0  0  0  0  0  0  0  0
  -10.4600  -21.4180    8.0970 C   0  0  0  0  0  0  0  0  0  0  0  0
  -11.5760  -17.8120    8.2340 C   0  0  0  0  0  0  0  0  0  0  0  0
  -11.0370  -16.5340    8.0080 C   0  0  0  0  0  0  0  0  0  0  0  0
  -11.8840  -15.3090    8.2260 C   0  0  0  0  0  0  0  0  0  0  0  0
  -11.3500  -14.4430    9.1330 F   0  0  0  0  0  0  0  0  0  0  0  0
  -13.1390  -15.5900    8.6790 F   0  0  0  0  0  0  0  0  0  0  0  0
  -12.0560  -14.5870    7.0830 F   0  0  0  0  0  0  0  0  0  0  0  0
   -9.6990  -16.4190    7.6090 C   0  0  0  0  0  0  0  0  0  0  0  0
   -4.1230  -17.7780    4.0970 C   0  0  0  0  0  0  0  0  0  0  0  0
   -3.2190  -17.5150    3.0690 C   0  0  0  0  0  0  0  0  0  0  0  0
   -3.0110  -16.2080    2.6090 C   0  0  0  0  0  0  0  0  0  0  0  0
   -1.9410  -16.0320    1.4320 C   0  0  0  0  0  0  0  0  0  0  0  0
   -0.5680  -16.0360    1.6600 N   0  0  0  0  0  0  0  0  0  0  0  0
   -0.0440  -15.8610    0.4450 C   0  0  0  0  0  0  0  0  0  0  0  0
    1.2040  -15.7700   -0.0190 N   0  0  0  0  0  0  0  0  0  0  0  0
    1.0090  -15.5830   -1.4130 N   0  0  0  0  0  0  0  0  0  0  0  0
   -0.3590  -15.5850   -1.6060 C   0  0  0  0  0  0  0  0  0  0  0  0
   -1.0080  -15.7580   -0.4390 C   0  0  0  0  0  0  0  0  0  0  0  0
   -2.2320  -15.8540    0.0850 N   0  0  0  0  0  0  0  0  0  0  0  0
   -3.4790  -13.0712    3.6324 H   0  0  0  0  0  0  0  0  0  0  0  0
   -2.6417  -13.6324    2.1455 H   0  0  0  0  0  0  0  0  0  0  0  0
   -4.4252  -13.4185    2.1455 H   0  0  0  0  0  0  0  0  0  0  0  0
   -5.2053  -14.6066    4.6956 H   0  0  0  0  0  0  0  0  0  0  0  0
   -5.2660  -17.4580    6.5560 H   0  0  0  0  0  0  0  0  0  0  0  0
   -6.8820  -17.3420    7.7510 H   0  0  0  0  0  0  0  0  0  0  0  0
   -8.8517  -19.7095    7.5424 H   0  0  0  0  0  0  0  0  0  0  0  0
  -13.3686  -19.6765    8.4300 H   0  0  0  0  0  0  0  0  0  0  0  0
  -12.9503  -20.7007    7.0044 H   0  0  0  0  0  0  0  0  0  0  0  0
  -13.1000  -21.5926    9.9301 H   0  0  0  0  0  0  0  0  0  0  0  0
  -14.2299  -22.0317    8.5822 H   0  0  0  0  0  0  0  0  0  0  0  0
  -10.9428  -22.4328    9.9406 H   0  0  0  0  0  0  0  0  0  0  0  0
  -10.3923  -23.5090    8.5882 H   0  0  0  0  0  0  0  0  0  0  0  0
   -9.4552  -21.1739    8.4723 H   0  0  0  0  0  0  0  0  0  0  0  0
  -10.4173  -21.6626    7.0254 H   0  0  0  0  0  0  0  0  0  0  0  0
  -12.6235  -17.8985    8.5585 H   0  0  0  0  0  0  0  0  0  0  0  0
   -9.2635  -15.4229    7.4409 H   0  0  0  0  0  0  0  0  0  0  0  0
   -4.2705  -18.8113    4.4443 H   0  0  0  0  0  0  0  0  0  0  0  0
   -2.6609  -18.3456    2.6123 H   0  0  0  0  0  0  0  0  0  0  0  0
   -0.8517  -15.4618   -2.5817 H   0  0  0  0  0  0  0  0  0  0  0  0
  1  2  1  0
  2  3  2  0
  3  4  1  0
  4  5  1  0
  5  6  1  0
  6  7  2  0
  6  8  1  0
  8  9  1  0
  9 10  2  0
 10 11  1  0
 11 12  1  0
 12 13  1  0
 13 14  1  0
 14 15  1  0
 15 16  1  0
 16 17  1  0
 11 18  2  0
 18 19  1  0
 19 20  1  0
 20 21  1  0
 20 22  1  0
 20 23  1  0
 19 24  2  0
  4 25  2  0
 25 26  1  0
 26 27  2  0
 27 28  1  0
 28 29  2  0
 29 30  1  0
 30 31  1  0
 31 32  1  0
 32 33  2  0
 33 34  1  0
 34 35  1  0
 27  2  1  0
 35 28  1  0
 24  9  1  0
 34 30  2  0
 17 12  1  0
  1 36  1  0
  1 37  1  0
  1 38  1  0
  3 39  1  0
  5 40  1  0
  8 41  1  0
 10 42  1  0
 13 43  1  0
 13 44  1  0
 14 45  1  0
 14 46  1  0
 16 47  1  0
 16 48  1  0
 17 49  1  0
 17 50  1  0
 18 51  1  0
 24 52  1  0
 25 53  1  0
 26 54  1  0
 33 55  1  0
M  CHG  2  31  -1  35  -1
M  END
>  <meeko>  (4) 
{"is_sidechain": [false], "free_energy": -8.498, "intermolecular_energy": -10.918, "internal_energy": -0.887}

$$$$
LIB_PLFCIUGPHZFBAC__M_PUB_ALL__e8__s20260927
     RDKit          3D

 55 59  0  0  0  0  0  0  0  0999 V2000
   10.8410  -11.6990    1.2420 C   0  0  0  0  0  0  0  0  0  0  0  0
    9.6670  -12.1580    0.4240 C   0  0  0  0  0  0  0  0  0  0  0  0
    8.3910  -12.2050    1.0330 C   0  0  0  0  0  0  0  0  0  0  0  0
    7.2620  -12.6230    0.3230 C   0  0  0  0  0  0  0  0  0  0  0  0
    5.9640  -12.7150    0.8690 N   0  0  0  0  0  0  0  0  0  0  0  0
    4.7460  -12.5940    0.2190 C   0  0  0  0  0  0  0  0  0  0  0  0
    4.5870  -12.4780   -0.9890 O   0  0  0  0  0  0  0  0  0  0  0  0
    3.7110  -12.6110    1.1500 N   0  0  0  0  0  0  0  0  0  0  0  0
    2.3240  -12.6380    0.8970 C   0  0  0  0  0  0  0  0  0  0  0  0
    1.5290  -13.7840    1.0170 C   0  0  0  0  0  0  0  0  0  0  0  0
    0.1470  -13.7800    0.7500 C   0  0  0  0  0  0  0  0  0  0  0  0
   -0.6060  -14.9420    0.8760 N   0  0  0  0  0  0  0  0  0  0  0  0
   -0.3620  -15.8990    1.9660 C   0  0  0  0  0  0  0  0  0  0  0  0
   -0.9320  -17.2800    1.6090 C   0  0  0  0  0  0  0  0  0  0  0  0
   -2.3240  -17.2060    1.2650 O   0  0  0  0  0  0  0  0  0  0  0  0
   -2.4900  -16.3640    0.1120 C   0  0  0  0  0  0  0  0  0  0  0  0
   -2.0000  -14.9320    0.3760 C   0  0  0  0  0  0  0  0  0  0  0  0
   -0.4220  -12.5530    0.3830 C   0  0  0  0  0  0  0  0  0  0  0  0
    0.3440  -11.3810    0.2610 C   0  0  0  0  0  0  0  0  0  0  0  0
   -0.3160  -10.0850   -0.1210 C   0  0  0  0  0  0  0  0  0  0  0  0
   -1.6740  -10.1790   -0.2020 F   0  0  0  0  0  0  0  0  0  0  0  0
    0.0920   -9.6020   -1.3290 F   0  0  0  0  0  0  0  0  0  0  0  0
   -0.0690   -9.0910    0.7770 F   0  0  0  0  0  0  0  0  0  0  0  0
    1.7190  -11.4350    0.5290 C   0  0  0  0  0  0  0  0  0  0  0  0
    7.4060  -13.0000   -1.0150 C   0  0  0  0  0  0  0  0  0  0  0  0
    8.6570  -12.9600   -1.6290 C   0  0  0  0  0  0  0  0  0  0  0  0
    9.7930  -12.5430   -0.9230 C   0  0  0  0  0  0  0  0  0  0  0  0
   11.1730  -12.5490   -1.7330 C   0  0  0  0  0  0  0  0  0  0  0  0
   11.5950  -13.6400   -2.4870 N   0  0  0  0  0  0  0  0  0  0  0  0
   12.7700  -13.2470   -2.9850 C   0  0  0  0  0  0  0  0  0  0  0  0
   13.6780  -13.8220   -3.7750 N   0  0  0  0  0  0  0  0  0  0  0  0
   14.6780  -12.8200   -3.8870 N   0  0  0  0  0  0  0  0  0  0  0  0
   14.2300  -11.7540   -3.1310 C   0  0  0  0  0  0  0  0  0  0  0  0
   13.0370  -12.0300   -2.5710 C   0  0  0  0  0  0  0  0  0  0  0  0
   12.0950  -11.5100   -1.7820 N   0  0  0  0  0  0  0  0  0  0  0  0
   10.6017  -11.7926    2.3116 H   0  0  0  0  0  0  0  0  0  0  0  0
   11.7174  -12.3207    1.0066 H   0  0  0  0  0  0  0  0  0  0  0  0
   11.0633  -10.6477    1.0066 H   0  0  0  0  0  0  0  0  0  0  0  0
    8.2853  -11.9066    2.0865 H   0  0  0  0  0  0  0  0  0  0  0  0
    5.9380  -12.9520    1.8470 H   0  0  0  0  0  0  0  0  0  0  0  0
    3.9940  -12.5040    2.1110 H   0  0  0  0  0  0  0  0  0  0  0  0
    2.0032  -14.7251    1.3325 H   0  0  0  0  0  0  0  0  0  0  0  0
    0.7215  -15.9873    2.1341 H   0  0  0  0  0  0  0  0  0  0  0  0
   -0.8593  -15.5342    2.8769 H   0  0  0  0  0  0  0  0  0  0  0  0
   -0.3739  -17.6856    0.7522 H   0  0  0  0  0  0  0  0  0  0  0  0
   -0.8300  -17.9316    2.4893 H   0  0  0  0  0  0  0  0  0  0  0  0
   -1.9154  -16.7884   -0.7245 H   0  0  0  0  0  0  0  0  0  0  0  0
   -3.5627  -16.3197   -0.1274 H   0  0  0  0  0  0  0  0  0  0  0  0
   -2.0441  -14.3564   -0.5604 H   0  0  0  0  0  0  0  0  0  0  0  0
   -2.6465  -14.4706    1.1371 H   0  0  0  0  0  0  0  0  0  0  0  0
   -1.5028  -12.5057    0.1840 H   0  0  0  0  0  0  0  0  0  0  0  0
    2.3264  -10.5215    0.4486 H   0  0  0  0  0  0  0  0  0  0  0  0
    6.5267  -13.3304   -1.5873 H   0  0  0  0  0  0  0  0  0  0  0  0
    8.7535  -13.2601   -2.6829 H   0  0  0  0  0  0  0  0  0  0  0  0
   14.7748  -10.8069   -3.0036 H   0  0  0  0  0  0  0  0  0  0  0  0
  1  2  1  0
  2  3  2  0
  3  4  1  0
  4  5  1  0
  5  6  1  0
  6  7  2  0
  6  8  1  0
  8  9  1  0
  9 10  2  0
 10 11  1  0
 11 12  1  0
 12 13  1  0
 13 14  1  0
 14 15  1  0
 15 16  1  0
 16 17  1  0
 11 18  2  0
 18 19  1  0
 19 20  1  0
 20 21  1  0
 20 22  1  0
 20 23  1  0
 19 24  2  0
  4 25  2  0
 25 26  1  0
 26 27  2  0
 27 28  1  0
 28 29  2  0
 29 30  1  0
 30 31  1  0
 31 32  1  0
 32 33  2  0
 33 34  1  0
 34 35  1  0
 27  2  1  0
 35 28  1  0
 24  9  1  0
 34 30  2  0
 17 12  1  0
  1 36  1  0
  1 37  1  0
  1 38  1  0
  3 39  1  0
  5 40  1  0
  8 41  1  0
 10 42  1  0
 13 43  1  0
 13 44  1  0
 14 45  1  0
 14 46  1  0
 16 47  1  0
 16 48  1  0
 17 49  1  0
 17 50  1  0
 18 51  1  0
 24 52  1  0
 25 53  1  0
 26 54  1  0
 33 55  1  0
M  CHG  2  31  -1  35  -1
M  END
>  <meeko>  (5) 
{"is_sidechain": [false], "free_energy": -8.474, "intermolecular_energy": -11.54, "internal_energy": -0.234}

$$$$
LIB_PLFCIUGPHZFBAC__M_PUB_ALL__e8__s20260927
     RDKit          3D

 55 59  0  0  0  0  0  0  0  0999 V2000
    7.8790  -14.8860   -1.1010 C   0  0  0  0  0  0  0  0  0  0  0  0
    7.1490  -13.6050   -1.3920 C   0  0  0  0  0  0  0  0  0  0  0  0
    5.7400  -13.5810   -1.2650 C   0  0  0  0  0  0  0  0  0  0  0  0
    5.0070  -12.4200   -1.5230 C   0  0  0  0  0  0  0  0  0  0  0  0
    3.6010  -12.3280   -1.4370 N   0  0  0  0  0  0  0  0  0  0  0  0
    2.7950  -12.4880   -0.3210 C   0  0  0  0  0  0  0  0  0  0  0  0
    3.1840  -12.6480    0.8280 O   0  0  0  0  0  0  0  0  0  0  0  0
    1.4550  -12.4530   -0.6990 N   0  0  0  0  0  0  0  0  0  0  0  0
    0.3220  -12.4540    0.1410 C   0  0  0  0  0  0  0  0  0  0  0  0
   -0.2890  -13.6160    0.6290 C   0  0  0  0  0  0  0  0  0  0  0  0
   -1.4230  -13.5850    1.4600 C   0  0  0  0  0  0  0  0  0  0  0  0
   -2.0030  -14.7620    1.9190 N   0  0  0  0  0  0  0  0  0  0  0  0
   -3.1900  -14.7440    2.7860 C   0  0  0  0  0  0  0  0  0  0  0  0
   -3.3220  -16.0720    3.5470 C   0  0  0  0  0  0  0  0  0  0  0  0
   -3.3310  -17.1960    2.6550 O   0  0  0  0  0  0  0  0  0  0  0  0
   -2.0920  -17.2420    1.9270 C   0  0  0  0  0  0  0  0  0  0  0  0
   -1.8810  -15.9770    1.0810 C   0  0  0  0  0  0  0  0  0  0  0  0
   -1.9120  -12.3200    1.8150 C   0  0  0  0  0  0  0  0  0  0  0  0
   -1.3190  -11.1330    1.3500 C   0  0  0  0  0  0  0  0  0  0  0  0
   -1.8710   -9.7990    1.7720 C   0  0  0  0  0  0  0  0  0  0  0  0
   -2.6770   -9.2300    0.8300 F   0  0  0  0  0  0  0  0  0  0  0  0
   -0.9080   -8.8720    2.0410 F   0  0  0  0  0  0  0  0  0  0  0  0
   -2.6280   -9.8840    2.9020 F   0  0  0  0  0  0  0  0  0  0  0  0
   -0.1950  -11.2140    0.5170 C   0  0  0  0  0  0  0  0  0  0  0  0
    5.6870  -11.2630   -1.9130 C   0  0  0  0  0  0  0  0  0  0  0  0
    7.0750  -11.2700   -2.0430 C   0  0  0  0  0  0  0  0  0  0  0  0
    7.8160  -12.4320   -1.7880 C   0  0  0  0  0  0  0  0  0  0  0  0
    9.4010  -12.3190   -1.9810 C   0  0  0  0  0  0  0  0  0  0  0  0
    9.9880  -12.0400   -3.2120 N   0  0  0  0  0  0  0  0  0  0  0  0
   11.2960  -12.0390   -2.9460 C   0  0  0  0  0  0  0  0  0  0  0  0
   12.3890  -11.8430   -3.6860 N   0  0  0  0  0  0  0  0  0  0  0  0
   13.4390  -11.9930   -2.7420 N   0  0  0  0  0  0  0  0  0  0  0  0
   12.8250  -12.2650   -1.5350 C   0  0  0  0  0  0  0  0  0  0  0  0
   11.4870  -12.2930   -1.6730 C   0  0  0  0  0  0  0  0  0  0  0  0
   10.3570  -12.4820   -0.9860 N   0  0  0  0  0  0  0  0  0  0  0  0
    7.9577  -15.0241   -0.0125 H   0  0  0  0  0  0  0  0  0  0  0  0
    7.3265  -15.7305   -1.5387 H   0  0  0  0  0  0  0  0  0  0  0  0
    8.8872  -14.8411   -1.5387 H   0  0  0  0  0  0  0  0  0  0  0  0
    5.2111  -14.4949   -0.9569 H   0  0  0  0  0  0  0  0  0  0  0  0
    3.1470  -12.0570   -2.2930 H   0  0  0  0  0  0  0  0  0  0  0  0
    1.2840  -12.5230   -1.6900 H   0  0  0  0  0  0  0  0  0  0  0  0
    0.1352  -14.5921    0.3511 H   0  0  0  0  0  0  0  0  0  0  0  0
   -3.0974  -13.9203    3.5091 H   0  0  0  0  0  0  0  0  0  0  0  0
   -4.0842  -14.6021    2.1612 H   0  0  0  0  0  0  0  0  0  0  0  0
   -2.4726  -16.1725    4.2386 H   0  0  0  0  0  0  0  0  0  0  0  0
   -4.2763  -16.0605    4.0939 H   0  0  0  0  0  0  0  0  0  0  0  0
   -1.2617  -17.3346    2.6425 H   0  0  0  0  0  0  0  0  0  0  0  0
   -2.1261  -18.1064    1.2476 H   0  0  0  0  0  0  0  0  0  0  0  0
   -0.8776  -16.0064    0.6311 H   0  0  0  0  0  0  0  0  0  0  0  0
   -2.6501  -15.9440    0.2952 H   0  0  0  0  0  0  0  0  0  0  0  0
   -2.7871  -12.2540    2.4782 H   0  0  0  0  0  0  0  0  0  0  0  0
    0.2839  -10.2917    0.1564 H   0  0  0  0  0  0  0  0  0  0  0  0
    5.1235  -10.3410   -2.1187 H   0  0  0  0  0  0  0  0  0  0  0  0
    7.5957  -10.3510   -2.3499 H   0  0  0  0  0  0  0  0  0  0  0  0
   13.3583  -12.4358   -0.5882 H   0  0  0  0  0  0  0  0  0  0  0  0
  1  2  1  0
  2  3  2  0
  3  4  1  0
  4  5  1  0
  5  6  1  0
  6  7  2  0
  6  8  1  0
  8  9  1  0
  9 10  2  0
 10 11  1  0
 11 12  1  0
 12 13  1  0
 13 14  1  0
 14 15  1  0
 15 16  1  0
 16 17  1  0
 11 18  2  0
 18 19  1  0
 19 20  1  0
 20 21  1  0
 20 22  1  0
 20 23  1  0
 19 24  2  0
  4 25  2  0
 25 26  1  0
 26 27  2  0
 27 28  1  0
 28 29  2  0
 29 30  1  0
 30 31  1  0
 31 32  1  0
 32 33  2  0
 33 34  1  0
 34 35  1  0
 27  2  1  0
 35 28  1  0
 24  9  1  0
 34 30  2  0
 17 12  1  0
  1 36  1  0
  1 37  1  0
  1 38  1  0
  3 39  1  0
  5 40  1  0
  8 41  1  0
 10 42  1  0
 13 43  1  0
 13 44  1  0
 14 45  1  0
 14 46  1  0
 16 47  1  0
 16 48  1  0
 17 49  1  0
 17 50  1  0
 18 51  1  0
 24 52  1  0
 25 53  1  0
 26 54  1  0
 33 55  1  0
M  CHG  2  31  -1  35  -1
M  END
>  <meeko>  (6) 
{"is_sidechain": [false], "free_energy": -8.407, "intermolecular_energy": -10.84, "internal_energy": -0.847}

$$$$
LIB_PLFCIUGPHZFBAC__M_PUB_ALL__e8__s20260927
     RDKit          3D

 55 59  0  0  0  0  0  0  0  0999 V2000
    8.9850  -14.8690   -1.2730 C   0  0  0  0  0  0  0  0  0  0  0  0
    8.2030  -13.6970   -1.7920 C   0  0  0  0  0  0  0  0  0  0  0  0
    6.8120  -13.6410   -1.5380 C   0  0  0  0  0  0  0  0  0  0  0  0
    6.0320  -12.5760   -1.9960 C   0  0  0  0  0  0  0  0  0  0  0  0
    4.6390  -12.4640   -1.7980 N   0  0  0  0  0  0  0  0  0  0  0  0
    3.9300  -12.5270   -0.6080 C   0  0  0  0  0  0  0  0  0  0  0  0
    4.4170  -12.5990    0.5130 O   0  0  0  0  0  0  0  0  0  0  0  0
    2.5630  -12.5090   -0.8720 N   0  0  0  0  0  0  0  0  0  0  0  0
    1.5060  -12.4330    0.0590 C   0  0  0  0  0  0  0  0  0  0  0  0
    1.0060  -13.5330    0.7660 C   0  0  0  0  0  0  0  0  0  0  0  0
   -0.0550  -13.4250    1.6840 C   0  0  0  0  0  0  0  0  0  0  0  0
   -0.5260  -14.5440    2.3620 N   0  0  0  0  0  0  0  0  0  0  0  0
    0.3580  -15.6750    2.6810 C   0  0  0  0  0  0  0  0  0  0  0  0
   -0.4650  -16.9440    2.9500 C   0  0  0  0  0  0  0  0  0  0  0  0
   -1.4490  -16.7310    3.9730 O   0  0  0  0  0  0  0  0  0  0  0  0
   -2.3660  -15.7070    3.5520 C   0  0  0  0  0  0  0  0  0  0  0  0
   -1.6540  -14.3690    3.3060 C   0  0  0  0  0  0  0  0  0  0  0  0
   -0.5830  -12.1440    1.8920 C   0  0  0  0  0  0  0  0  0  0  0  0
   -0.1000  -11.0170    1.2050 C   0  0  0  0  0  0  0  0  0  0  0  0
   -0.6910   -9.6590    1.4750 C   0  0  0  0  0  0  0  0  0  0  0  0
    0.1820   -8.6390    1.2370 F   0  0  0  0  0  0  0  0  0  0  0  0
   -1.1090   -9.4940    2.7610 F   0  0  0  0  0  0  0  0  0  0  0  0
   -1.7780   -9.4020    0.6960 F   0  0  0  0  0  0  0  0  0  0  0  0
    0.9530  -11.1740    0.2940 C   0  0  0  0  0  0  0  0  0  0  0  0
    6.6460  -11.5490   -2.7180 C   0  0  0  0  0  0  0  0  0  0  0  0
    8.0150  -11.5900   -2.9770 C   0  0  0  0  0  0  0  0  0  0  0  0
    8.8030  -12.6560   -2.5230 C   0  0  0  0  0  0  0  0  0  0  0  0
   10.3590  -12.5950   -2.8910 C   0  0  0  0  0  0  0  0  0  0  0  0
   11.2890  -11.9190   -2.1070 N   0  0  0  0  0  0  0  0  0  0  0  0
   12.4430  -12.1050   -2.7520 C   0  0  0  0  0  0  0  0  0  0  0  0
   13.7000  -11.7160   -2.5290 N   0  0  0  0  0  0  0  0  0  0  0  0
   14.4020  -12.2760   -3.6280 N   0  0  0  0  0  0  0  0  0  0  0  0
   13.4550  -12.9390   -4.3830 C   0  0  0  0  0  0  0  0  0  0  0  0
   12.2340  -12.8260   -3.8280 C   0  0  0  0  0  0  0  0  0  0  0  0
   10.9580  -13.1810   -3.9990 N   0  0  0  0  0  0  0  0  0  0  0  0
    8.9770  -14.8570   -0.1731 H   0  0  0  0  0  0  0  0  0  0  0  0
    8.5283  -15.8028   -1.6328 H   0  0  0  0  0  0  0  0  0  0  0  0
   10.0226  -14.8058   -1.6328 H   0  0  0  0  0  0  0  0  0  0  0  0
    6.3351  -14.4523   -0.9685 H   0  0  0  0  0  0  0  0  0  0  0  0
    4.1140  -12.2580   -2.6310 H   0  0  0  0  0  0  0  0  0  0  0  0
    2.3080  -12.6560   -1.8360 H   0  0  0  0  0  0  0  0  0  0  0  0
    1.4603  -14.5205    0.5973 H   0  0  0  0  0  0  0  0  0  0  0  0
    1.0346  -15.8557    1.8327 H   0  0  0  0  0  0  0  0  0  0  0  0
    0.9372  -15.4295    3.5834 H   0  0  0  0  0  0  0  0  0  0  0  0
   -0.9744  -17.2421    2.0218 H   0  0  0  0  0  0  0  0  0  0  0  0
    0.2216  -17.7320    3.2930 H   0  0  0  0  0  0  0  0  0  0  0  0
   -2.8537  -16.0274    2.6195 H   0  0  0  0  0  0  0  0  0  0  0  0
   -3.1042  -15.5588    4.3539 H   0  0  0  0  0  0  0  0  0  0  0  0
   -2.3713  -13.6504    2.8828 H   0  0  0  0  0  0  0  0  0  0  0  0
   -1.2606  -13.9956    4.2630 H   0  0  0  0  0  0  0  0  0  0  0  0
   -1.4014  -12.0163    2.6158 H   0  0  0  0  0  0  0  0  0  0  0  0
    1.3470  -10.2970   -0.2405 H   0  0  0  0  0  0  0  0  0  0  0  0
    6.0454  -10.7033   -3.0841 H   0  0  0  0  0  0  0  0  0  0  0  0
    8.4836  -10.7736   -3.5461 H   0  0  0  0  0  0  0  0  0  0  0  0
   13.6695  -13.4860   -5.3129 H   0  0  0  0  0  0  0  0  0  0  0  0
  1  2  1  0
  2  3  2  0
  3  4  1  0
  4  5  1  0
  5  6  1  0
  6  7  2  0
  6  8  1  0
  8  9  1  0
  9 10  2  0
 10 11  1  0
 11 12  1  0
 12 13  1  0
 13 14  1  0
 14 15  1  0
 15 16  1  0
 16 17  1  0
 11 18  2  0
 18 19  1  0
 19 20  1  0
 20 21  1  0
 20 22  1  0
 20 23  1  0
 19 24  2  0
  4 25  2  0
 25 26  1  0
 26 27  2  0
 27 28  1  0
 28 29  2  0
 29 30  1  0
 30 31  1  0
 31 32  1  0
 32 33  2  0
 33 34  1  0
 34 35  1  0
 27  2  1  0
 35 28  1  0
 24  9  1  0
 34 30  2  0
 17 12  1  0
  1 36  1  0
  1 37  1  0
  1 38  1  0
  3 39  1  0
  5 40  1  0
  8 41  1  0
 10 42  1  0
 13 43  1  0
 13 44  1  0
 14 45  1  0
 14 46  1  0
 16 47  1  0
 16 48  1  0
 17 49  1  0
 17 50  1  0
 18 51  1  0
 24 52  1  0
 25 53  1  0
 26 54  1  0
 33 55  1  0
M  CHG  2  31  -1  35  -1
M  END
>  <meeko>  (7) 
{"is_sidechain": [false], "free_energy": -8.262, "intermolecular_energy": -10.631, "internal_energy": -0.869}

$$$$
LIB_PLFCIUGPHZFBAC__M_PUB_ALL__e8__s20260927
     RDKit          3D

 55 59  0  0  0  0  0  0  0  0999 V2000
    8.8880  -15.2910   -1.1900 C   0  0  0  0  0  0  0  0  0  0  0  0
    8.1940  -14.1310   -0.5330 C   0  0  0  0  0  0  0  0  0  0  0  0
    6.9500  -14.3550    0.1020 C   0  0  0  0  0  0  0  0  0  0  0  0
    6.2570  -13.3160    0.7290 C   0  0  0  0  0  0  0  0  0  0  0  0
    5.0040  -13.4600    1.3630 N   0  0  0  0  0  0  0  0  0  0  0  0
    3.7720  -13.7270    0.7850 C   0  0  0  0  0  0  0  0  0  0  0  0
    3.5740  -13.9830   -0.3950 O   0  0  0  0  0  0  0  0  0  0  0  0
    2.7730  -13.6490    1.7510 N   0  0  0  0  0  0  0  0  0  0  0  0
    1.4070  -13.9720    1.6060 C   0  0  0  0  0  0  0  0  0  0  0  0
    0.4220  -13.0510    1.2300 C   0  0  0  0  0  0  0  0  0  0  0  0
   -0.9350  -13.4020    1.1010 C   0  0  0  0  0  0  0  0  0  0  0  0
   -1.8830  -12.4550    0.7310 N   0  0  0  0  0  0  0  0  0  0  0  0
   -1.5100  -11.0570    0.4710 C   0  0  0  0  0  0  0  0  0  0  0  0
   -2.7370  -10.1410    0.5860 C   0  0  0  0  0  0  0  0  0  0  0  0
   -3.8060  -10.5740   -0.2680 O   0  0  0  0  0  0  0  0  0  0  0  0
   -4.2210  -11.8960    0.1160 C   0  0  0  0  0  0  0  0  0  0  0  0
   -3.0780  -12.9140   -0.0140 C   0  0  0  0  0  0  0  0  0  0  0  0
   -1.2660  -14.7430    1.3370 C   0  0  0  0  0  0  0  0  0  0  0  0
   -0.3010  -15.6960    1.7080 C   0  0  0  0  0  0  0  0  0  0  0  0
   -0.7040  -17.1280    1.9350 C   0  0  0  0  0  0  0  0  0  0  0  0
   -1.5340  -17.6100    0.9670 F   0  0  0  0  0  0  0  0  0  0  0  0
   -1.3570  -17.3280    3.1140 F   0  0  0  0  0  0  0  0  0  0  0  0
    0.3660  -17.9710    1.9560 F   0  0  0  0  0  0  0  0  0  0  0  0
    1.0370  -15.2980    1.8320 C   0  0  0  0  0  0  0  0  0  0  0  0
    6.8120  -12.0340    0.7240 C   0  0  0  0  0  0  0  0  0  0  0  0
    8.0370  -11.7970    0.1030 C   0  0  0  0  0  0  0  0  0  0  0  0
    8.7360  -12.8340   -0.5300 C   0  0  0  0  0  0  0  0  0  0  0  0
   10.1260  -12.4360   -1.2160 C   0  0  0  0  0  0  0  0  0  0  0  0
   10.2600  -12.2580   -2.5900 N   0  0  0  0  0  0  0  0  0  0  0  0
   11.5480  -11.9460   -2.7460 C   0  0  0  0  0  0  0  0  0  0  0  0
   12.3090  -11.6620   -3.8040 N   0  0  0  0  0  0  0  0  0  0  0  0
   13.5840  -11.4330   -3.2240 N   0  0  0  0  0  0  0  0  0  0  0  0
   13.4180  -11.6150   -1.8640 C   0  0  0  0  0  0  0  0  0  0  0  0
   12.1430  -11.9360   -1.5760 C   0  0  0  0  0  0  0  0  0  0  0  0
   11.3320  -12.2310   -0.5570 N   0  0  0  0  0  0  0  0  0  0  0  0
    9.2901  -15.9630   -0.4175 H   0  0  0  0  0  0  0  0  0  0  0  0
    8.1702  -15.8406   -1.8167 H   0  0  0  0  0  0  0  0  0  0  0  0
    9.7117  -14.9184   -1.8167 H   0  0  0  0  0  0  0  0  0  0  0  0
    6.5195  -15.3673    0.1023 H   0  0  0  0  0  0  0  0  0  0  0  0
    5.0370  -13.4140    2.3670 H   0  0  0  0  0  0  0  0  0  0  0  0
    3.0490  -13.2320    2.6260 H   0  0  0  0  0  0  0  0  0  0  0  0
    0.7203  -12.0118    1.0273 H   0  0  0  0  0  0  0  0  0  0  0  0
   -0.7535  -10.7420    1.2048 H   0  0  0  0  0  0  0  0  0  0  0  0
   -1.1048  -10.9814   -0.5489 H   0  0  0  0  0  0  0  0  0  0  0  0
   -3.0891  -10.1463    1.6281 H   0  0  0  0  0  0  0  0  0  0  0  0
   -2.4390   -9.1288    0.2751 H   0  0  0  0  0  0  0  0  0  0  0  0
   -4.5597  -11.8728    1.1623 H   0  0  0  0  0  0  0  0  0  0  0  0
   -5.0339  -12.2076   -0.5564 H   0  0  0  0  0  0  0  0  0  0  0  0
   -3.4077  -13.8815    0.3925 H   0  0  0  0  0  0  0  0  0  0  0  0
   -2.8148  -13.0174   -1.0770 H   0  0  0  0  0  0  0  0  0  0  0  0
   -2.3137  -15.0601    1.2286 H   0  0  0  0  0  0  0  0  0  0  0  0
    1.8022  -16.0377    2.1100 H   0  0  0  0  0  0  0  0  0  0  0  0
    6.2785  -11.2059    1.2136 H   0  0  0  0  0  0  0  0  0  0  0  0
    8.4611  -10.7821    0.1097 H   0  0  0  0  0  0  0  0  0  0  0  0
   14.2196  -11.5115   -1.1178 H   0  0  0  0  0  0  0  0  0  0  0  0
  1  2  1  0
  2  3  2  0
  3  4  1  0
  4  5  1  0
  5  6  1  0
  6  7  2  0
  6  8  1  0
  8  9  1  0
  9 10  2  0
 10 11  1  0
 11 12  1  0
 12 13  1  0
 13 14  1  0
 14 15  1  0
 15 16  1  0
 16 17  1  0
 11 18  2  0
 18 19  1  0
 19 20  1  0
 20 21  1  0
 20 22  1  0
 20 23  1  0
 19 24  2  0
  4 25  2  0
 25 26  1  0
 26 27  2  0
 27 28  1  0
 28 29  2  0
 29 30  1  0
 30 31  1  0
 31 32  1  0
 32 33  2  0
 33 34  1  0
 34 35  1  0
 27  2  1  0
 35 28  1  0
 24  9  1  0
 34 30  2  0
 17 12  1  0
  1 36  1  0
  1 37  1  0
  1 38  1  0
  3 39  1  0
  5 40  1  0
  8 41  1  0
 10 42  1  0
 13 43  1  0
 13 44  1  0
 14 45  1  0
 14 46  1  0
 16 47  1  0
 16 48  1  0
 17 49  1  0
 17 50  1  0
 18 51  1  0
 24 52  1  0
 25 53  1  0
 26 54  1  0
 33 55  1  0
M  CHG  2  31  -1  35  -1
M  END
>  <meeko>  (8) 
{"is_sidechain": [false], "free_energy": -8.162, "intermolecular_energy": -10.467, "internal_energy": -0.904}

$$$$
LIB_PLFCIUGPHZFBAC__M_PUB_ALL__e8__s20260927
     RDKit          3D

 55 59  0  0  0  0  0  0  0  0999 V2000
    4.2510  -12.6750    0.2460 C   0  0  0  0  0  0  0  0  0  0  0  0
    3.6530  -12.8220   -1.1240 C   0  0  0  0  0  0  0  0  0  0  0  0
    4.4300  -13.4190   -2.1450 C   0  0  0  0  0  0  0  0  0  0  0  0
    3.9280  -13.5820   -3.4390 C   0  0  0  0  0  0  0  0  0  0  0  0
    4.6510  -14.1500   -4.5100 N   0  0  0  0  0  0  0  0  0  0  0  0
    5.5770  -13.5400   -5.3420 C   0  0  0  0  0  0  0  0  0  0  0  0
    6.0050  -12.3990   -5.2250 O   0  0  0  0  0  0  0  0  0  0  0  0
    5.9500  -14.4190   -6.3560 N   0  0  0  0  0  0  0  0  0  0  0  0
    6.9530  -14.2360   -7.3300 C   0  0  0  0  0  0  0  0  0  0  0  0
    8.3000  -14.5690   -7.1380 C   0  0  0  0  0  0  0  0  0  0  0  0
    9.2790  -14.3670   -8.1270 C   0  0  0  0  0  0  0  0  0  0  0  0
   10.6070  -14.7060   -7.8940 N   0  0  0  0  0  0  0  0  0  0  0  0
   11.5980  -14.7160   -8.9800 C   0  0  0  0  0  0  0  0  0  0  0  0
   12.8080  -15.5830   -8.6000 C   0  0  0  0  0  0  0  0  0  0  0  0
   13.3870  -15.1670   -7.3540 O   0  0  0  0  0  0  0  0  0  0  0  0
   12.4160  -15.3040   -6.3030 C   0  0  0  0  0  0  0  0  0  0  0  0
   11.1770  -14.4310   -6.5550 C   0  0  0  0  0  0  0  0  0  0  0  0
    8.8440  -13.8400   -9.3500 C   0  0  0  0  0  0  0  0  0  0  0  0
    7.4990  -13.5030   -9.5810 C   0  0  0  0  0  0  0  0  0  0  0  0
    7.0770  -12.9540  -10.9170 C   0  0  0  0  0  0  0  0  0  0  0  0
    6.7510  -11.6310  -10.8730 F   0  0  0  0  0  0  0  0  0  0  0  0
    5.9900  -13.5840  -11.4450 F   0  0  0  0  0  0  0  0  0  0  0  0
    8.0590  -13.0610  -11.8550 F   0  0  0  0  0  0  0  0  0  0  0  0
    6.5590  -13.7130   -8.5620 C   0  0  0  0  0  0  0  0  0  0  0  0
    2.6320  -13.1440   -3.7220 C   0  0  0  0  0  0  0  0  0  0  0  0
    1.8540  -12.5530   -2.7280 C   0  0  0  0  0  0  0  0  0  0  0  0
    2.3520  -12.3850   -1.4280 C   0  0  0  0  0  0  0  0  0  0  0  0
    1.3680  -11.6840   -0.3770 C   0  0  0  0  0  0  0  0  0  0  0  0
    1.1740  -10.3070   -0.3360 N   0  0  0  0  0  0  0  0  0  0  0  0
    0.3030  -10.1390    0.6620 C   0  0  0  0  0  0  0  0  0  0  0  0
   -0.2810   -9.0720    1.2090 N   0  0  0  0  0  0  0  0  0  0  0  0
   -1.0850   -9.6430    2.2310 N   0  0  0  0  0  0  0  0  0  0  0  0
   -0.8710  -11.0050    2.1630 C   0  0  0  0  0  0  0  0  0  0  0  0
   -0.0020  -11.3060    1.1800 C   0  0  0  0  0  0  0  0  0  0  0  0
    0.6160  -12.3340    0.5940 N   0  0  0  0  0  0  0  0  0  0  0  0
    3.4784  -12.8649    1.0056 H   0  0  0  0  0  0  0  0  0  0  0  0
    5.0707  -13.3984    0.3678 H   0  0  0  0  0  0  0  0  0  0  0  0
    4.6419  -11.6540    0.3678 H   0  0  0  0  0  0  0  0  0  0  0  0
    5.4497  -13.7617   -1.9155 H   0  0  0  0  0  0  0  0  0  0  0  0
    4.5040  -15.1370   -4.6370 H   0  0  0  0  0  0  0  0  0  0  0  0
    5.3720  -15.2390   -6.4500 H   0  0  0  0  0  0  0  0  0  0  0  0
    8.6040  -15.0059   -6.1753 H   0  0  0  0  0  0  0  0  0  0  0  0
   11.1330  -15.1232   -9.8899 H   0  0  0  0  0  0  0  0  0  0  0  0
   11.9412  -13.6859   -9.1563 H   0  0  0  0  0  0  0  0  0  0  0  0
   12.4827  -16.6300   -8.5103 H   0  0  0  0  0  0  0  0  0  0  0  0
   13.5695  -15.4737   -9.3862 H   0  0  0  0  0  0  0  0  0  0  0  0
   12.1035  -16.3569   -6.2417 H   0  0  0  0  0  0  0  0  0  0  0  0
   12.8811  -14.9748   -5.3621 H   0  0  0  0  0  0  0  0  0  0  0  0
   10.4193  -14.6494   -5.7881 H   0  0  0  0  0  0  0  0  0  0  0  0
   11.4740  -13.3729   -6.5073 H   0  0  0  0  0  0  0  0  0  0  0  0
    9.5779  -13.6851  -10.1546 H   0  0  0  0  0  0  0  0  0  0  0  0
    5.5019  -13.4633   -8.7354 H   0  0  0  0  0  0  0  0  0  0  0  0
    2.2229  -13.2663   -4.7358 H   0  0  0  0  0  0  0  0  0  0  0  0
    0.8352  -12.2137   -2.9666 H   0  0  0  0  0  0  0  0  0  0  0  0
   -1.3467  -11.7450    2.8234 H   0  0  0  0  0  0  0  0  0  0  0  0
  1  2  1  0
  2  3  2  0
  3  4  1  0
  4  5  1  0
  5  6  1  0
  6  7  2  0
  6  8  1  0
  8  9  1  0
  9 10  2  0
 10 11  1  0
 11 12  1  0
 12 13  1  0
 13 14  1  0
 14 15  1  0
 15 16  1  0
 16 17  1  0
 11 18  2  0
 18 19  1  0
 19 20  1  0
 20 21  1  0
 20 22  1  0
 20 23  1  0
 19 24  2  0
  4 25  2  0
 25 26  1  0
 26 27  2  0
 27 28  1  0
 28 29  2  0
 29 30  1  0
 30 31  1  0
 31 32  1  0
 32 33  2  0
 33 34  1  0
 34 35  1  0
 27  2  1  0
 35 28  1  0
 24  9  1  0
 34 30  2  0
 17 12  1  0
  1 36  1  0
  1 37  1  0
  1 38  1  0
  3 39  1  0
  5 40  1  0
  8 41  1  0
 10 42  1  0
 13 43  1  0
 13 44  1  0
 14 45  1  0
 14 46  1  0
 16 47  1  0
 16 48  1  0
 17 49  1  0
 17 50  1  0
 18 51  1  0
 24 52  1  0
 25 53  1  0
 26 54  1  0
 33 55  1  0
M  CHG  2  31  -1  35  -1
M  END
>  <meeko>  (9) 
{"is_sidechain": [false], "free_energy": -8.152, "intermolecular_energy": -10.423, "internal_energy": -0.935}

$$$$
