LIB_XJOBUWSKCGTPQM__M_PUB_ALL__e8__s20260927
     RDKit          3D

 60 63  0  0  0  0  0  0  0  0999 V2000
   10.6240   -9.8240   14.8010 O   0  0  0  0  0  0  0  0  0  0  0  0
   11.2490   -9.0620   14.0730 C   0  0  0  0  0  0  0  0  0  0  0  0
   10.9450   -7.7430   13.7910 N   0  0  0  0  0  0  0  0  0  0  0  0
    9.9120   -6.9670   14.3570 C   0  0  0  0  0  0  0  0  0  0  0  0
   10.0820   -6.1150   15.4490 C   0  0  0  0  0  0  0  0  0  0  0  0
    9.0050   -5.3760   15.9490 C   0  0  0  0  0  0  0  0  0  0  0  0
    7.7470   -5.4800   15.3590 C   0  0  0  0  0  0  0  0  0  0  0  0
    7.5540   -6.3180   14.2550 C   0  0  0  0  0  0  0  0  0  0  0  0
    6.1930   -6.4560   13.6190 C   0  0  0  0  0  0  0  0  0  0  0  0
    5.3410   -5.4440   13.9390 F   0  0  0  0  0  0  0  0  0  0  0  0
    5.5690   -7.6080   13.9870 F   0  0  0  0  0  0  0  0  0  0  0  0
    6.2490   -6.4810   12.2570 F   0  0  0  0  0  0  0  0  0  0  0  0
    8.6440   -7.0620   13.7660 C   0  0  0  0  0  0  0  0  0  0  0  0
   12.4470   -9.6060   13.3680 C   0  0  0  0  0  0  0  0  0  0  0  0
   13.5030   -8.7220   13.0900 C   0  0  0  0  0  0  0  0  0  0  0  0
   14.6590   -9.1390   12.4180 C   0  0  0  0  0  0  0  0  0  0  0  0
   15.7090   -8.2700   12.1170 N   0  0  0  0  0  0  0  0  0  0  0  0
   17.0140   -8.5830   12.6960 C   0  0  0  0  0  0  0  0  0  0  0  0
   18.1120   -8.0020   11.8100 C   0  0  0  0  0  0  0  0  0  0  0  0
   17.8810   -6.5070   11.5700 C   0  0  0  0  0  0  0  0  0  0  0  0
   18.9350   -5.9700   10.6000 N   0  0  0  0  0  0  0  0  0  0  0  0
   19.8430   -4.8840   11.1690 C   0  0  0  0  0  0  0  0  0  0  0  0
   21.2480   -5.2400   10.7060 C   0  0  0  0  0  0  0  0  0  0  0  0
   21.0450   -6.1840    9.5430 C   0  0  0  0  0  0  0  0  0  0  0  0
   19.8550   -7.0050    9.9870 C   0  0  0  0  0  0  0  0  0  0  0  0
   16.4900   -6.2670   10.9760 C   0  0  0  0  0  0  0  0  0  0  0  0
   15.4090   -6.8620   11.8720 C   0  0  0  0  0  0  0  0  0  0  0  0
   14.7180  -10.4850   12.0240 C   0  0  0  0  0  0  0  0  0  0  0  0
   13.6710  -11.3910   12.2800 C   0  0  0  0  0  0  0  0  0  0  0  0
   13.7650  -12.8150   11.7900 C   0  0  0  0  0  0  0  0  0  0  0  0
   15.0290  -13.1600   11.4200 F   0  0  0  0  0  0  0  0  0  0  0  0
   12.9790  -13.0400   10.7050 F   0  0  0  0  0  0  0  0  0  0  0  0
   13.3890  -13.7230   12.7310 F   0  0  0  0  0  0  0  0  0  0  0  0
   12.5250  -10.9360   12.9470 C   0  0  0  0  0  0  0  0  0  0  0  0
   11.4870   -7.2820   13.0720 H   0  0  0  0  0  0  0  0  0  0  0  0
   11.0716   -6.0238   15.9206 H   0  0  0  0  0  0  0  0  0  0  0  0
    9.1517   -4.7097   16.8119 H   0  0  0  0  0  0  0  0  0  0  0  0
    6.9028   -4.9015   15.7623 H   0  0  0  0  0  0  0  0  0  0  0  0
    8.4985   -7.7302   12.9044 H   0  0  0  0  0  0  0  0  0  0  0  0
   13.4196   -7.6726   13.4091 H   0  0  0  0  0  0  0  0  0  0  0  0
   17.0839   -8.1448   13.7025 H   0  0  0  0  0  0  0  0  0  0  0  0
   17.1345   -9.6743   12.7639 H   0  0  0  0  0  0  0  0  0  0  0  0
   19.0854   -8.1422   12.3028 H   0  0  0  0  0  0  0  0  0  0  0  0
   18.0959   -8.5220   10.8408 H   0  0  0  0  0  0  0  0  0  0  0  0
   17.9574   -5.9847   12.5351 H   0  0  0  0  0  0  0  0  0  0  0  0
   18.4260   -5.5400    9.8140 H   0  0  0  0  0  0  0  0  0  0  0  0
   19.5499   -3.8969   10.7819 H   0  0  0  0  0  0  0  0  0  0  0  0
   19.7772   -4.8323   12.2658 H   0  0  0  0  0  0  0  0  0  0  0  0
   21.7894   -4.3385   10.3832 H   0  0  0  0  0  0  0  0  0  0  0  0
   21.8468   -5.6942   11.5092 H   0  0  0  0  0  0  0  0  0  0  0  0
   20.8234   -5.6320    8.6177 H   0  0  0  0  0  0  0  0  0  0  0  0
   21.9331   -6.7907    9.3124 H   0  0  0  0  0  0  0  0  0  0  0  0
   19.3759   -7.5017    9.1304 H   0  0  0  0  0  0  0  0  0  0  0  0
   20.1223   -7.8134   10.6835 H   0  0  0  0  0  0  0  0  0  0  0  0
   16.3216   -5.1844   10.8778 H   0  0  0  0  0  0  0  0  0  0  0  0
   16.4385   -6.7532    9.9906 H   0  0  0  0  0  0  0  0  0  0  0  0
   15.3843   -6.3194   12.8285 H   0  0  0  0  0  0  0  0  0  0  0  0
   14.4300   -6.7734   11.3783 H   0  0  0  0  0  0  0  0  0  0  0  0
   15.6138  -10.8447   11.4966 H   0  0  0  0  0  0  0  0  0  0  0  0
   11.6889  -11.6246   13.1385 H   0  0  0  0  0  0  0  0  0  0  0  0
  1  2  2  0
  2  3  1  0
  3  4  1  0
  4  5  2  0
  5  6  1  0
  6  7  2  0
  7  8  1  0
  8  9  1  0
  9 10  1  0
  9 11  1  0
  9 12  1  0
  8 13  2  0
  2 14  1  0
 14 15  2  0
 15 16  1  0
 16 17  1  0
 17 18  1  0
 18 19  1  0
 19 20  1  0
 20 21  1  0
 21 22  1  0
 22 23  1  0
 23 24  1  0
 24 25  1  0
 20 26  1  0
 26 27  1  0
 16 28  2  0
 28 29  1  0
 29 30  1  0
 30 31  1  0
 30 32  1  0
 30 33  1  0
 29 34  2  0
 13  4  1  0
 34 14  1  0
 27 17  1  0
 25 21  1  0
  3 35  1  0
  5 36  1  0
  6 37  1  0
  7 38  1  0
 13 39  1  0
 15 40  1  0
 18 41  1  0
 18 42  1  0
 19 43  1  0
 19 44  1  0
 20 45  1  0
 21 46  1  0
 22 47  1  0
 22 48  1  0
 23 49  1  0
 23 50  1  0
 24 51  1  0
 24 52  1  0
 25 53  1  0
 25 54  1  0
 26 55  1  0
 26 56  1  0
 27 57  1  0
 27 58  1  0
 28 59  1  0
 34 60  1  0
M  CHG  1  21   1
M  END
>  <meeko>  (1) 
{"is_sidechain": [false], "free_energy": -8.843, "intermolecular_energy": -11.945, "internal_energy": -1.295}

$$$$
LIB_XJOBUWSKCGTPQM__M_PUB_ALL__e8__s20260927
     RDKit          3D

 60 63  0  0  0  0  0  0  0  0999 V2000
   -8.0390  -18.0560    4.6610 O   0  0  0  0  0  0  0  0  0  0  0  0
   -8.0120  -17.2960    5.6220 C   0  0  0  0  0  0  0  0  0  0  0  0
   -7.0360  -16.3620    5.9170 N   0  0  0  0  0  0  0  0  0  0  0  0
   -5.9190  -16.0170    5.1250 C   0  0  0  0  0  0  0  0  0  0  0  0
   -4.7550  -16.7810    5.0400 C   0  0  0  0  0  0  0  0  0  0  0  0
   -3.6930  -16.3710    4.2280 C   0  0  0  0  0  0  0  0  0  0  0  0
   -3.7860  -15.1930    3.4900 C   0  0  0  0  0  0  0  0  0  0  0  0
   -4.9490  -14.4160    3.5490 C   0  0  0  0  0  0  0  0  0  0  0  0
   -5.0560  -13.1280    2.7720 C   0  0  0  0  0  0  0  0  0  0  0  0
   -3.9210  -12.3770    2.8070 F   0  0  0  0  0  0  0  0  0  0  0  0
   -6.0540  -12.3280    3.2380 F   0  0  0  0  0  0  0  0  0  0  0  0
   -5.3280  -13.3310    1.4510 F   0  0  0  0  0  0  0  0  0  0  0  0
   -6.0080  -14.8360    4.3760 C   0  0  0  0  0  0  0  0  0  0  0  0
   -9.1170  -17.4010    6.6190 C   0  0  0  0  0  0  0  0  0  0  0  0
   -9.3530  -18.6550    7.2070 C   0  0  0  0  0  0  0  0  0  0  0  0
  -10.3780  -18.8530    8.1400 C   0  0  0  0  0  0  0  0  0  0  0  0
  -10.6370  -20.0960    8.7200 N   0  0  0  0  0  0  0  0  0  0  0  0
  -12.0400  -20.4780    8.8680 C   0  0  0  0  0  0  0  0  0  0  0  0
  -12.1510  -22.0000    8.8750 C   0  0  0  0  0  0  0  0  0  0  0  0
  -11.2270  -22.6060    9.9360 C   0  0  0  0  0  0  0  0  0  0  0  0
  -11.2800  -24.1330    9.8570 N   0  0  0  0  0  0  0  0  0  0  0  0
  -11.7540  -24.8300   11.1280 C   0  0  0  0  0  0  0  0  0  0  0  0
  -12.7200  -25.9110   10.6670 C   0  0  0  0  0  0  0  0  0  0  0  0
  -12.4050  -26.1140    9.2020 C   0  0  0  0  0  0  0  0  0  0  0  0
  -12.1130  -24.7070    8.7290 C   0  0  0  0  0  0  0  0  0  0  0  0
   -9.7830  -22.1470    9.7170 C   0  0  0  0  0  0  0  0  0  0  0  0
   -9.6950  -20.6240    9.7040 C   0  0  0  0  0  0  0  0  0  0  0  0
  -11.1720  -17.7420    8.4630 C   0  0  0  0  0  0  0  0  0  0  0  0
  -10.9650  -16.4760    7.8810 C   0  0  0  0  0  0  0  0  0  0  0  0
  -11.8800  -15.3260    8.2260 C   0  0  0  0  0  0  0  0  0  0  0  0
  -12.0760  -14.4780    7.1790 F   0  0  0  0  0  0  0  0  0  0  0  0
  -11.3940  -14.5670    9.2430 F   0  0  0  0  0  0  0  0  0  0  0  0
  -13.1200  -15.7360    8.6120 F   0  0  0  0  0  0  0  0  0  0  0  0
   -9.9360  -16.3160    6.9440 C   0  0  0  0  0  0  0  0  0  0  0  0
   -7.0900  -15.8960    6.8130 H   0  0  0  0  0  0  0  0  0  0  0  0
   -4.6718  -17.7140    5.6167 H   0  0  0  0  0  0  0  0  0  0  0  0
   -2.7797  -16.9815    4.1717 H   0  0  0  0  0  0  0  0  0  0  0  0
   -2.9435  -14.8727    2.8594 H   0  0  0  0  0  0  0  0  0  0  0  0
   -6.9216  -14.2263    4.4353 H   0  0  0  0  0  0  0  0  0  0  0  0
   -8.7143  -19.5055    6.9264 H   0  0  0  0  0  0  0  0  0  0  0  0
  -12.4321  -20.0768    9.8142 H   0  0  0  0  0  0  0  0  0  0  0  0
  -12.6231  -20.0702    8.0292 H   0  0  0  0  0  0  0  0  0  0  0  0
  -13.1902  -22.2851    9.0959 H   0  0  0  0  0  0  0  0  0  0  0  0
  -11.8523  -22.3807    7.8872 H   0  0  0  0  0  0  0  0  0  0  0  0
  -11.5677  -22.2683   10.9259 H   0  0  0  0  0  0  0  0  0  0  0  0
  -10.3150  -24.4570    9.6910 H   0  0  0  0  0  0  0  0  0  0  0  0
  -10.9022  -25.2782   11.6604 H   0  0  0  0  0  0  0  0  0  0  0  0
  -12.2338  -24.1255   11.8233 H   0  0  0  0  0  0  0  0  0  0  0  0
  -12.5573  -26.8416   11.2306 H   0  0  0  0  0  0  0  0  0  0  0  0
  -13.7698  -25.6255   10.8295 H   0  0  0  0  0  0  0  0  0  0  0  0
  -11.5293  -26.7667    9.0709 H   0  0  0  0  0  0  0  0  0  0  0  0
  -13.2166  -26.6035    8.6438 H   0  0  0  0  0  0  0  0  0  0  0  0
  -11.5475  -24.7166    7.7855 H   0  0  0  0  0  0  0  0  0  0  0  0
  -13.0215  -24.1228    8.5209 H   0  0  0  0  0  0  0  0  0  0  0  0
   -9.1531  -22.5378   10.5298 H   0  0  0  0  0  0  0  0  0  0  0  0
   -9.4350  -22.5287    8.7458 H   0  0  0  0  0  0  0  0  0  0  0  0
   -9.9464  -20.2326   10.7008 H   0  0  0  0  0  0  0  0  0  0  0  0
   -8.6729  -20.3155    9.4393 H   0  0  0  0  0  0  0  0  0  0  0  0
  -11.9836  -17.8638    9.1955 H   0  0  0  0  0  0  0  0  0  0  0  0
   -9.7730  -15.3391    6.4653 H   0  0  0  0  0  0  0  0  0  0  0  0
  1  2  2  0
  2  3  1  0
  3  4  1  0
  4  5  2  0
  5  6  1  0
  6  7  2  0
  7  8  1  0
  8  9  1  0
  9 10  1  0
  9 11  1  0
  9 12  1  0
  8 13  2  0
  2 14  1  0
 14 15  2  0
 15 16  1  0
 16 17  1  0
 17 18  1  0
 18 19  1  0
 19 20  1  0
 20 21  1  0
 21 22  1  0
 22 23  1  0
 23 24  1  0
 24 25  1  0
 20 26  1  0
 26 27  1  0
 16 28  2  0
 28 29  1  0
 29 30  1  0
 30 31  1  0
 30 32  1  0
 30 33  1  0
 29 34  2  0
 13  4  1  0
 34 14  1  0
 27 17  1  0
 25 21  1  0
  3 35  1  0
  5 36  1  0
  6 37  1  0
  7 38  1  0
 13 39  1  0
 15 40  1  0
 18 41  1  0
 18 42  1  0
 19 43  1  0
 19 44  1  0
 20 45  1  0
 21 46  1  0
 22 47  1  0
 22 48  1  0
 23 49  1  0
 23 50  1  0
 24 51  1  0
 24 52  1  0
 25 53  1  0
 25 54  1  0
 26 55  1  0
 26 56  1  0
 27 57  1  0
 27 58  1  0
 28 59  1  0
 34 60  1  0
M  CHG  1  21   1
M  END
>  <meeko>  (2) 
{"is_sidechain": [false], "free_energy": -8.606, "intermolecular_energy": -11.673, "internal_energy": -1.247}

$$$$
LIB_XJOBUWSKCGTPQM__M_PUB_ALL__e8__s20260927
     RDKit          3D

 60 63  0  0  0  0  0  0  0  0999 V2000
    3.6290  -13.1150    1.1220 O   0  0  0  0  0  0  0  0  0  0  0  0
    3.0480  -12.6110    0.1680 C   0  0  0  0  0  0  0  0  0  0  0  0
    1.7140  -12.2550    0.0990 N   0  0  0  0  0  0  0  0  0  0  0  0
    0.7640  -12.3040    1.1420 C   0  0  0  0  0  0  0  0  0  0  0  0
    0.4930  -13.4430    1.9000 C   0  0  0  0  0  0  0  0  0  0  0  0
   -0.4630  -13.4080    2.9200 C   0  0  0  0  0  0  0  0  0  0  0  0
   -1.1550  -12.2300    3.1950 C   0  0  0  0  0  0  0  0  0  0  0  0
   -0.8910  -11.0700    2.4570 C   0  0  0  0  0  0  0  0  0  0  0  0
   -1.6460   -9.7940    2.7290 C   0  0  0  0  0  0  0  0  0  0  0  0
   -1.4580   -9.3100    3.9870 F   0  0  0  0  0  0  0  0  0  0  0  0
   -2.9900   -9.9500    2.5800 F   0  0  0  0  0  0  0  0  0  0  0  0
   -1.2930   -8.7830    1.8840 F   0  0  0  0  0  0  0  0  0  0  0  0
    0.0680  -11.1210    1.4280 C   0  0  0  0  0  0  0  0  0  0  0  0
    3.8340  -12.3890   -1.0810 C   0  0  0  0  0  0  0  0  0  0  0  0
    5.2060  -12.6900   -1.0560 C   0  0  0  0  0  0  0  0  0  0  0  0
    6.0260  -12.4990   -2.1750 C   0  0  0  0  0  0  0  0  0  0  0  0
    7.3940  -12.7750   -2.1620 N   0  0  0  0  0  0  0  0  0  0  0  0
    8.1340  -12.5170   -3.3950 C   0  0  0  0  0  0  0  0  0  0  0  0
    9.5950  -12.2330   -3.0580 C   0  0  0  0  0  0  0  0  0  0  0  0
   10.1830  -13.3600   -2.2040 C   0  0  0  0  0  0  0  0  0  0  0  0
   11.6150  -13.0060   -1.7950 N   0  0  0  0  0  0  0  0  0  0  0  0
   12.5660  -12.7200   -2.9530 C   0  0  0  0  0  0  0  0  0  0  0  0
   13.3570  -11.4880   -2.5380 C   0  0  0  0  0  0  0  0  0  0  0  0
   13.1940  -11.4090   -1.0370 C   0  0  0  0  0  0  0  0  0  0  0  0
   11.7580  -11.8400   -0.8380 C   0  0  0  0  0  0  0  0  0  0  0  0
    9.3440  -13.5730   -0.9410 C   0  0  0  0  0  0  0  0  0  0  0  0
    7.8870  -13.8470   -1.3000 C   0  0  0  0  0  0  0  0  0  0  0  0
    5.4190  -11.9830   -3.3310 C   0  0  0  0  0  0  0  0  0  0  0  0
    4.0490  -11.6630   -3.3820 C   0  0  0  0  0  0  0  0  0  0  0  0
    3.4580  -11.0640   -4.6350 C   0  0  0  0  0  0  0  0  0  0  0  0
    3.3280   -9.7100   -4.5590 F   0  0  0  0  0  0  0  0  0  0  0  0
    2.2170  -11.5490   -4.9030 F   0  0  0  0  0  0  0  0  0  0  0  0
    4.2110  -11.3060   -5.7420 F   0  0  0  0  0  0  0  0  0  0  0  0
    3.2600  -11.8590   -2.2400 C   0  0  0  0  0  0  0  0  0  0  0  0
    1.3530  -11.9660   -0.8000 H   0  0  0  0  0  0  0  0  0  0  0  0
    1.0361  -14.3771    1.6937 H   0  0  0  0  0  0  0  0  0  0  0  0
   -0.6697  -14.3144    3.5080 H   0  0  0  0  0  0  0  0  0  0  0  0
   -1.9107  -12.2116    3.9941 H   0  0  0  0  0  0  0  0  0  0  0  0
    0.2752  -10.2163    0.8375 H   0  0  0  0  0  0  0  0  0  0  0  0
    5.6489  -13.0872   -0.1308 H   0  0  0  0  0  0  0  0  0  0  0  0
    8.0730  -13.3979   -4.0510 H   0  0  0  0  0  0  0  0  0  0  0  0
    7.6994  -11.6474   -3.9098 H   0  0  0  0  0  0  0  0  0  0  0  0
   10.1711  -12.1492   -3.9913 H   0  0  0  0  0  0  0  0  0  0  0  0
    9.6503  -11.2930   -2.4894 H   0  0  0  0  0  0  0  0  0  0  0  0
   10.1790  -14.2842   -2.8005 H   0  0  0  0  0  0  0  0  0  0  0  0
   11.9960  -13.8270   -1.3030 H   0  0  0  0  0  0  0  0  0  0  0  0
   13.2411  -13.5732   -3.1151 H   0  0  0  0  0  0  0  0  0  0  0  0
   12.0225  -12.5565   -3.8953 H   0  0  0  0  0  0  0  0  0  0  0  0
   14.4177  -11.6004   -2.8068 H   0  0  0  0  0  0  0  0  0  0  0  0
   13.0004  -10.5776   -3.0419 H   0  0  0  0  0  0  0  0  0  0  0  0
   13.8881  -12.0922   -0.5257 H   0  0  0  0  0  0  0  0  0  0  0  0
   13.4129  -10.4129   -0.6250 H   0  0  0  0  0  0  0  0  0  0  0  0
   11.5809  -12.1570    0.2003 H   0  0  0  0  0  0  0  0  0  0  0  0
   11.0339  -11.0337   -1.0266 H   0  0  0  0  0  0  0  0  0  0  0  0
    9.7453  -14.4309   -0.3816 H   0  0  0  0  0  0  0  0  0  0  0  0
    9.3911  -12.6610   -0.3278 H   0  0  0  0  0  0  0  0  0  0  0  0
    7.8133  -14.8082   -1.8298 H   0  0  0  0  0  0  0  0  0  0  0  0
    7.2824  -13.8903   -0.3821 H   0  0  0  0  0  0  0  0  0  0  0  0
    6.0353  -11.8232   -4.2280 H   0  0  0  0  0  0  0  0  0  0  0  0
    2.1919  -11.5964   -2.2560 H   0  0  0  0  0  0  0  0  0  0  0  0
  1  2  2  0
  2  3  1  0
  3  4  1  0
  4  5  2  0
  5  6  1  0
  6  7  2  0
  7  8  1  0
  8  9  1  0
  9 10  1  0
  9 11  1  0
  9 12  1  0
  8 13  2  0
  2 14  1  0
 14 15  2  0
 15 16  1  0
 16 17  1  0
 17 18  1  0
 18 19  1  0
 19 20  1  0
 20 21  1  0
 21 22  1  0
 22 23  1  0
 23 24  1  0
 24 25  1  0
 20 26  1  0
 26 27  1  0
 16 28  2  0
 28 29  1  0
 29 30  1  0
 30 31  1  0
 30 32  1  0
 30 33  1  0
 29 34  2  0
 13  4  1  0
 34 14  1  0
 27 17  1  0
 25 21  1  0
  3 35  1  0
  5 36  1  0
  6 37  1  0
  7 38  1  0
 13 39  1  0
 15 40  1  0
 18 41  1  0
 18 42  1  0
 19 43  1  0
 19 44  1  0
 20 45  1  0
 21 46  1  0
 22 47  1  0
 22 48  1  0
 23 49  1  0
 23 50  1  0
 24 51  1  0
 24 52  1  0
 25 53  1  0
 25 54  1  0
 26 55  1  0
 26 56  1  0
 27 57  1  0
 27 58  1  0
 28 59  1  0
 34 60  1  0
M  CHG  1  21   1
M  END
>  <meeko>  (3) 
{"is_sidechain": [false], "free_energy": -8.605, "intermolecular_energy": -11.724, "internal_energy": -1.195}

$$$$
LIB_XJOBUWSKCGTPQM__M_PUB_ALL__e8__s20260927
     RDKit          3D

 60 63  0  0  0  0  0  0  0  0999 V2000
    1.6640  -13.4990    1.2020 O   0  0  0  0  0  0  0  0  0  0  0  0
    1.5140  -12.5840    0.4010 C   0  0  0  0  0  0  0  0  0  0  0  0
    0.4040  -11.7720    0.2630 N   0  0  0  0  0  0  0  0  0  0  0  0
   -0.7470  -11.7570    1.0790 C   0  0  0  0  0  0  0  0  0  0  0  0
   -0.7590  -11.3310    2.4070 C   0  0  0  0  0  0  0  0  0  0  0  0
   -1.9440  -11.3440    3.1480 C   0  0  0  0  0  0  0  0  0  0  0  0
   -3.1330  -11.7810    2.5660 C   0  0  0  0  0  0  0  0  0  0  0  0
   -3.1490  -12.2010    1.2310 C   0  0  0  0  0  0  0  0  0  0  0  0
   -4.4230  -12.6960    0.5940 C   0  0  0  0  0  0  0  0  0  0  0  0
   -5.5030  -12.6310    1.4200 F   0  0  0  0  0  0  0  0  0  0  0  0
   -4.3280  -13.9930    0.1940 F   0  0  0  0  0  0  0  0  0  0  0  0
   -4.7640  -11.9860   -0.5200 F   0  0  0  0  0  0  0  0  0  0  0  0
   -1.9480  -12.1900    0.4990 C   0  0  0  0  0  0  0  0  0  0  0  0
    2.6160  -12.3300   -0.5730 C   0  0  0  0  0  0  0  0  0  0  0  0
    3.9310  -12.6160   -0.1660 C   0  0  0  0  0  0  0  0  0  0  0  0
    5.0290  -12.3940   -1.0050 C   0  0  0  0  0  0  0  0  0  0  0  0
    6.3420  -12.6550   -0.6100 N   0  0  0  0  0  0  0  0  0  0  0  0
    6.8950  -13.9600   -0.9680 C   0  0  0  0  0  0  0  0  0  0  0  0
    8.4140  -13.8540   -1.0740 C   0  0  0  0  0  0  0  0  0  0  0  0
    9.0060  -13.2580    0.2070 C   0  0  0  0  0  0  0  0  0  0  0  0
   10.5150  -13.0680    0.0390 N   0  0  0  0  0  0  0  0  0  0  0  0
   11.0180  -13.1270   -1.4000 C   0  0  0  0  0  0  0  0  0  0  0  0
   12.0110  -11.9820   -1.5340 C   0  0  0  0  0  0  0  0  0  0  0  0
   12.3960  -11.6340   -0.1140 C   0  0  0  0  0  0  0  0  0  0  0  0
   11.0900  -11.7980    0.6310 C   0  0  0  0  0  0  0  0  0  0  0  0
    8.3660  -11.9010    0.5150 C   0  0  0  0  0  0  0  0  0  0  0  0
    6.8490  -12.0280    0.6080 C   0  0  0  0  0  0  0  0  0  0  0  0
    4.7650  -11.8640   -2.2770 C   0  0  0  0  0  0  0  0  0  0  0  0
    3.4590  -11.5580   -2.7080 C   0  0  0  0  0  0  0  0  0  0  0  0
    3.2360  -10.9430   -4.0680 C   0  0  0  0  0  0  0  0  0  0  0  0
    4.3280  -11.0420   -4.8750 F   0  0  0  0  0  0  0  0  0  0  0  0
    2.9410   -9.6190   -3.9920 F   0  0  0  0  0  0  0  0  0  0  0  0
    2.2120  -11.5250   -4.7490 F   0  0  0  0  0  0  0  0  0  0  0  0
    2.3840  -11.7850   -1.8380 C   0  0  0  0  0  0  0  0  0  0  0  0
    0.3810  -11.1420   -0.5280 H   0  0  0  0  0  0  0  0  0  0  0  0
    0.1728  -10.9815    2.8756 H   0  0  0  0  0  0  0  0  0  0  0  0
   -1.9384  -11.0078    4.1954 H   0  0  0  0  0  0  0  0  0  0  0  0
   -4.0605  -11.7958    3.1572 H   0  0  0  0  0  0  0  0  0  0  0  0
   -1.9509  -12.5274   -0.5480 H   0  0  0  0  0  0  0  0  0  0  0  0
    4.1017  -13.0259    0.8404 H   0  0  0  0  0  0  0  0  0  0  0  0
    6.6314  -14.6954   -0.1936 H   0  0  0  0  0  0  0  0  0  0  0  0
    6.4804  -14.2826   -1.9345 H   0  0  0  0  0  0  0  0  0  0  0  0
    8.8357  -14.8573   -1.2339 H   0  0  0  0  0  0  0  0  0  0  0  0
    8.6644  -13.1956   -1.9189 H   0  0  0  0  0  0  0  0  0  0  0  0
    8.8033  -13.9503    1.0374 H   0  0  0  0  0  0  0  0  0  0  0  0
   10.9710  -13.8470    0.5370 H   0  0  0  0  0  0  0  0  0  0  0  0
   11.5135  -14.0896   -1.5943 H   0  0  0  0  0  0  0  0  0  0  0  0
   10.1939  -13.0376   -2.1231 H   0  0  0  0  0  0  0  0  0  0  0  0
   12.8940  -12.3004   -2.1076 H   0  0  0  0  0  0  0  0  0  0  0  0
   11.5824  -11.1222   -2.0698 H   0  0  0  0  0  0  0  0  0  0  0  0
   13.1618  -12.3238    0.2703 H   0  0  0  0  0  0  0  0  0  0  0  0
   12.8346  -10.6303   -0.0129 H   0  0  0  0  0  0  0  0  0  0  0  0
   11.2629  -11.9089    1.7117 H   0  0  0  0  0  0  0  0  0  0  0  0
   10.4211  -10.9309    0.5277 H   0  0  0  0  0  0  0  0  0  0  0  0
    8.7563  -11.5270    1.4730 H   0  0  0  0  0  0  0  0  0  0  0  0
    8.6128  -11.2016   -0.2973 H   0  0  0  0  0  0  0  0  0  0  0  0
    6.5847  -12.6475    1.4777 H   0  0  0  0  0  0  0  0  0  0  0  0
    6.4017  -11.0296    0.7224 H   0  0  0  0  0  0  0  0  0  0  0  0
    5.6066  -11.6811   -2.9613 H   0  0  0  0  0  0  0  0  0  0  0  0
    1.3596  -11.5345   -2.1507 H   0  0  0  0  0  0  0  0  0  0  0  0
  1  2  2  0
  2  3  1  0
  3  4  1  0
  4  5  2  0
  5  6  1  0
  6  7  2  0
  7  8  1  0
  8  9  1  0
  9 10  1  0
  9 11  1  0
  9 12  1  0
  8 13  2  0
  2 14  1  0
 14 15  2  0
 15 16  1  0
 16 17  1  0
 17 18  1  0
 18 19  1  0
 19 20  1  0
 20 21  1  0
 21 22  1  0
 22 23  1  0
 23 24  1  0
 24 25  1  0
 20 26  1  0
 26 27  1  0
 16 28  2  0
 28 29  1  0
 29 30  1  0
 30 31  1  0
 30 32  1  0
 30 33  1  0
 29 34  2  0
 13  4  1  0
 34 14  1  0
 27 17  1  0
 25 21  1  0
  3 35  1  0
  5 36  1  0
  6 37  1  0
  7 38  1  0
 13 39  1  0
 15 40  1  0
 18 41  1  0
 18 42  1  0
 19 43  1  0
 19 44  1  0
 20 45  1  0
 21 46  1  0
 22 47  1  0
 22 48  1  0
 23 49  1  0
 23 50  1  0
 24 51  1  0
 24 52  1  0
 25 53  1  0
 25 54  1  0
 26 55  1  0
 26 56  1  0
 27 57  1  0
 27 58  1  0
 28 59  1  0
 34 60  1  0
M  CHG  1  21   1
M  END
>  <meeko>  (4) 
{"is_sidechain": [false], "free_energy": -8.548, "intermolecular_energy": -11.517, "internal_energy": -1.324}

$$$$
LIB_XJOBUWSKCGTPQM__M_PUB_ALL__e8__s20260927
     RDKit          3D

 60 63  0  0  0  0  0  0  0  0999 V2000
    9.6050   -9.1950   15.8060 O   0  0  0  0  0  0  0  0  0  0  0  0
    9.8440   -8.8070   14.6680 C   0  0  0  0  0  0  0  0  0  0  0  0
    9.1160   -7.8930   13.9300 N   0  0  0  0  0  0  0  0  0  0  0  0
    8.0050   -7.1380   14.3650 C   0  0  0  0  0  0  0  0  0  0  0  0
    8.0870   -6.0690   15.2570 C   0  0  0  0  0  0  0  0  0  0  0  0
    6.9370   -5.3690   15.6360 C   0  0  0  0  0  0  0  0  0  0  0  0
    5.6930   -5.7300   15.1220 C   0  0  0  0  0  0  0  0  0  0  0  0
    5.5870   -6.7910   14.2150 C   0  0  0  0  0  0  0  0  0  0  0  0
    4.2450   -7.2070   13.6670 C   0  0  0  0  0  0  0  0  0  0  0  0
    3.2220   -7.0330   14.5490 F   0  0  0  0  0  0  0  0  0  0  0  0
    4.2190   -8.5200   13.3110 F   0  0  0  0  0  0  0  0  0  0  0  0
    3.8950   -6.5100   12.5480 F   0  0  0  0  0  0  0  0  0  0  0  0
    6.7510   -7.4920   13.8480 C   0  0  0  0  0  0  0  0  0  0  0  0
   11.0160   -9.4070   13.9650 C   0  0  0  0  0  0  0  0  0  0  0  0
   11.1900  -10.7990   14.0490 C   0  0  0  0  0  0  0  0  0  0  0  0
   12.2700  -11.4470   13.4360 C   0  0  0  0  0  0  0  0  0  0  0  0
   12.4680  -12.8260   13.5250 N   0  0  0  0  0  0  0  0  0  0  0  0
   12.6970  -13.5440   12.2730 C   0  0  0  0  0  0  0  0  0  0  0  0
   13.5080  -14.8050   12.5550 C   0  0  0  0  0  0  0  0  0  0  0  0
   12.8380  -15.6500   13.6430 C   0  0  0  0  0  0  0  0  0  0  0  0
   13.7200  -16.8540   13.9790 N   0  0  0  0  0  0  0  0  0  0  0  0
   14.8190  -17.1540   12.9650 C   0  0  0  0  0  0  0  0  0  0  0  0
   16.0630  -17.4570   13.7860 C   0  0  0  0  0  0  0  0  0  0  0  0
   15.5450  -17.7900   15.1670 C   0  0  0  0  0  0  0  0  0  0  0  0
   14.3990  -16.8170   15.3330 C   0  0  0  0  0  0  0  0  0  0  0  0
   12.6250  -14.8200   14.9130 C   0  0  0  0  0  0  0  0  0  0  0  0
   11.8190  -13.5620   14.6070 C   0  0  0  0  0  0  0  0  0  0  0  0
   13.1820  -10.6440   12.7340 C   0  0  0  0  0  0  0  0  0  0  0  0
   13.0380   -9.2460   12.6420 C   0  0  0  0  0  0  0  0  0  0  0  0
   14.0760   -8.4250   11.9160 C   0  0  0  0  0  0  0  0  0  0  0  0
   15.2620   -9.0790   11.7810 F   0  0  0  0  0  0  0  0  0  0  0  0
   14.3560   -7.2620   12.5610 F   0  0  0  0  0  0  0  0  0  0  0  0
   13.6920   -8.0820   10.6560 F   0  0  0  0  0  0  0  0  0  0  0  0
   11.9510   -8.6300   13.2750 C   0  0  0  0  0  0  0  0  0  0  0  0
    9.3690   -7.7690   12.9590 H   0  0  0  0  0  0  0  0  0  0  0  0
    9.0646   -5.7739   15.6660 H   0  0  0  0  0  0  0  0  0  0  0  0
    7.0148   -4.5298   16.3429 H   0  0  0  0  0  0  0  0  0  0  0  0
    4.7917   -5.1796   15.4299 H   0  0  0  0  0  0  0  0  0  0  0  0
    6.6753   -8.3328   13.1428 H   0  0  0  0  0  0  0  0  0  0  0  0
   10.4576  -11.3964   14.6118 H   0  0  0  0  0  0  0  0  0  0  0  0
   11.7307  -13.8210   11.8264 H   0  0  0  0  0  0  0  0  0  0  0  0
   13.2503  -12.8990   11.5746 H   0  0  0  0  0  0  0  0  0  0  0  0
   13.5837  -15.3991   11.6323 H   0  0  0  0  0  0  0  0  0  0  0  0
   14.5088  -14.5102   12.9035 H   0  0  0  0  0  0  0  0  0  0  0  0
   11.8628  -15.9915   13.2658 H   0  0  0  0  0  0  0  0  0  0  0  0
   13.1040  -17.6800   13.9920 H   0  0  0  0  0  0  0  0  0  0  0  0
   14.5453  -18.0227   12.3481 H   0  0  0  0  0  0  0  0  0  0  0  0
   14.9805  -16.3096   12.2787 H   0  0  0  0  0  0  0  0  0  0  0  0
   16.6088  -18.3121   13.3606 H   0  0  0  0  0  0  0  0  0  0  0  0
   16.7665  -16.6115   13.7999 H   0  0  0  0  0  0  0  0  0  0  0  0
   15.1929  -18.8308   15.2187 H   0  0  0  0  0  0  0  0  0  0  0  0
   16.3093  -17.7041   15.9534 H   0  0  0  0  0  0  0  0  0  0  0  0
   13.7135  -17.1458   16.1279 H   0  0  0  0  0  0  0  0  0  0  0  0
   14.7262  -15.8085   15.6259 H   0  0  0  0  0  0  0  0  0  0  0  0
   12.0815  -15.4257   15.6531 H   0  0  0  0  0  0  0  0  0  0  0  0
   13.6070  -14.5227   15.3095 H   0  0  0  0  0  0  0  0  0  0  0  0
   10.8004  -13.8432   14.3012 H   0  0  0  0  0  0  0  0  0  0  0  0
   11.7676  -12.9290   15.5051 H   0  0  0  0  0  0  0  0  0  0  0  0
   14.0392  -11.1231   12.2383 H   0  0  0  0  0  0  0  0  0  0  0  0
   11.8333   -7.5373   13.2293 H   0  0  0  0  0  0  0  0  0  0  0  0
  1  2  2  0
  2  3  1  0
  3  4  1  0
  4  5  2  0
  5  6  1  0
  6  7  2  0
  7  8  1  0
  8  9  1  0
  9 10  1  0
  9 11  1  0
  9 12  1  0
  8 13  2  0
  2 14  1  0
 14 15  2  0
 15 16  1  0
 16 17  1  0
 17 18  1  0
 18 19  1  0
 19 20  1  0
 20 21  1  0
 21 22  1  0
 22 23  1  0
 23 24  1  0
 24 25  1  0
 20 26  1  0
 26 27  1  0
 16 28  2  0
 28 29  1  0
 29 30  1  0
 30 31  1  0
 30 32  1  0
 30 33  1  0
 29 34  2  0
 13  4  1  0
 34 14  1  0
 27 17  1  0
 25 21  1  0
  3 35  1  0
  5 36  1  0
  6 37  1  0
  7 38  1  0
 13 39  1  0
 15 40  1  0
 18 41  1  0
 18 42  1  0
 19 43  1  0
 19 44  1  0
 20 45  1  0
 21 46  1  0
 22 47  1  0
 22 48  1  0
 23 49  1  0
 23 50  1  0
 24 51  1  0
 24 52  1  0
 25 53  1  0
 25 54  1  0
 26 55  1  0
 26 56  1  0
 27 57  1  0
 27 58  1  0
 28 59  1  0
 34 60  1  0
M  CHG  1  21   1
M  END
>  <meeko>  (5) 
{"is_sidechain": [false], "free_energy": -8.408, "intermolecular_energy": -11.327, "internal_energy": -1.325}

$$$$
LIB_XJOBUWSKCGTPQM__M_PUB_ALL__e8__s20260927
     RDKit          3D

 60 63  0  0  0  0  0  0  0  0999 V2000
    6.1500  -13.4540    0.5730 O   0  0  0  0  0  0  0  0  0  0  0  0
    6.2910  -12.7080   -0.3890 C   0  0  0  0  0  0  0  0  0  0  0  0
    7.4610  -12.1010   -0.8070 N   0  0  0  0  0  0  0  0  0  0  0  0
    8.7550  -12.2890   -0.2770 C   0  0  0  0  0  0  0  0  0  0  0  0
    9.2230  -11.6710    0.8820 C   0  0  0  0  0  0  0  0  0  0  0  0
   10.5200  -11.9130    1.3440 C   0  0  0  0  0  0  0  0  0  0  0  0
   11.3630  -12.7800    0.6520 C   0  0  0  0  0  0  0  0  0  0  0  0
   10.9120  -13.4230   -0.5080 C   0  0  0  0  0  0  0  0  0  0  0  0
   11.8190  -14.3480   -1.2790 C   0  0  0  0  0  0  0  0  0  0  0  0
   12.5510  -15.1760   -0.4850 F   0  0  0  0  0  0  0  0  0  0  0  0
   12.7150  -13.6680   -2.0470 F   0  0  0  0  0  0  0  0  0  0  0  0
   11.1360  -15.1600   -2.1360 F   0  0  0  0  0  0  0  0  0  0  0  0
    9.6060  -13.1640   -0.9660 C   0  0  0  0  0  0  0  0  0  0  0  0
    5.0750  -12.3680   -1.1840 C   0  0  0  0  0  0  0  0  0  0  0  0
    3.8610  -12.2130   -0.4940 C   0  0  0  0  0  0  0  0  0  0  0  0
    2.6660  -11.9100   -1.1580 C   0  0  0  0  0  0  0  0  0  0  0  0
    1.4490  -11.7720   -0.4900 N   0  0  0  0  0  0  0  0  0  0  0  0
    1.0840  -10.4270   -0.0490 C   0  0  0  0  0  0  0  0  0  0  0  0
   -0.4360  -10.3190    0.0400 C   0  0  0  0  0  0  0  0  0  0  0  0
   -1.0090  -11.4370    0.9160 C   0  0  0  0  0  0  0  0  0  0  0  0
   -2.5370  -11.3690    0.9090 N   0  0  0  0  0  0  0  0  0  0  0  0
   -3.1290  -10.2230    0.0940 C   0  0  0  0  0  0  0  0  0  0  0  0
   -4.2890  -10.8280   -0.6820 C   0  0  0  0  0  0  0  0  0  0  0  0
   -4.6170  -12.1110    0.0490 C   0  0  0  0  0  0  0  0  0  0  0  0
   -3.2510  -12.6230    0.4470 C   0  0  0  0  0  0  0  0  0  0  0  0
   -0.5700  -12.8080    0.3940 C   0  0  0  0  0  0  0  0  0  0  0  0
    0.9500  -12.8920    0.3050 C   0  0  0  0  0  0  0  0  0  0  0  0
    2.7270  -11.7720   -2.5530 C   0  0  0  0  0  0  0  0  0  0  0  0
    3.9280  -11.9310   -3.2720 C   0  0  0  0  0  0  0  0  0  0  0  0
    3.9280  -11.8210   -4.7770 C   0  0  0  0  0  0  0  0  0  0  0  0
    3.3620  -10.6650   -5.2200 F   0  0  0  0  0  0  0  0  0  0  0  0
    3.2380  -12.8310   -5.3680 F   0  0  0  0  0  0  0  0  0  0  0  0
    5.1810  -11.8510   -5.3090 F   0  0  0  0  0  0  0  0  0  0  0  0
    5.1030  -12.2430   -2.5760 C   0  0  0  0  0  0  0  0  0  0  0  0
    7.3920  -11.4130   -1.5450 H   0  0  0  0  0  0  0  0  0  0  0  0
    8.5654  -10.9866    1.4380 H   0  0  0  0  0  0  0  0  0  0  0  0
   10.8768  -11.4165    2.2584 H   0  0  0  0  0  0  0  0  0  0  0  0
   12.3848  -12.9600    1.0173 H   0  0  0  0  0  0  0  0  0  0  0  0
    9.2470  -13.6574   -1.8813 H   0  0  0  0  0  0  0  0  0  0  0  0
    3.8489  -12.3331    0.5994 H   0  0  0  0  0  0  0  0  0  0  0  0
    1.5245  -10.2327    0.9400 H   0  0  0  0  0  0  0  0  0  0  0  0
    1.4638   -9.6878   -0.7696 H   0  0  0  0  0  0  0  0  0  0  0  0
   -0.7037   -9.3454    0.4765 H   0  0  0  0  0  0  0  0  0  0  0  0
   -0.8565  -10.4127   -0.9721 H   0  0  0  0  0  0  0  0  0  0  0  0
   -0.6314  -11.3020    1.9403 H   0  0  0  0  0  0  0  0  0  0  0  0
   -2.8340  -11.2150    1.8840 H   0  0  0  0  0  0  0  0  0  0  0  0
   -3.4877   -9.4240    0.7595 H   0  0  0  0  0  0  0  0  0  0  0  0
   -2.3822   -9.7727   -0.5765 H   0  0  0  0  0  0  0  0  0  0  0  0
   -5.1538  -10.1482   -0.6784 H   0  0  0  0  0  0  0  0  0  0  0  0
   -4.0344  -11.0054   -1.7373 H   0  0  0  0  0  0  0  0  0  0  0  0
   -5.2409  -11.9155    0.9336 H   0  0  0  0  0  0  0  0  0  0  0  0
   -5.1920  -12.8256   -0.5583 H   0  0  0  0  0  0  0  0  0  0  0  0
   -3.3265  -13.3578    1.2621 H   0  0  0  0  0  0  0  0  0  0  0  0
   -2.7286  -13.1428   -0.3696 H   0  0  0  0  0  0  0  0  0  0  0  0
   -0.9349  -13.5882    1.0782 H   0  0  0  0  0  0  0  0  0  0  0  0
   -0.9908  -12.9536   -0.6119 H   0  0  0  0  0  0  0  0  0  0  0  0
    1.3806  -12.8457    1.3162 H   0  0  0  0  0  0  0  0  0  0  0  0
    1.2398  -13.8403   -0.1711 H   0  0  0  0  0  0  0  0  0  0  0  0
    1.8058  -11.5315   -3.1039 H   0  0  0  0  0  0  0  0  0  0  0  0
    6.0457  -12.3893   -3.1237 H   0  0  0  0  0  0  0  0  0  0  0  0
  1  2  2  0
  2  3  1  0
  3  4  1  0
  4  5  2  0
  5  6  1  0
  6  7  2  0
  7  8  1  0
  8  9  1  0
  9 10  1  0
  9 11  1  0
  9 12  1  0
  8 13  2  0
  2 14  1  0
 14 15  2  0
 15 16  1  0
 16 17  1  0
 17 18  1  0
 18 19  1  0
 19 20  1  0
 20 21  1  0
 21 22  1  0
 22 23  1  0
 23 24  1  0
 24 25  1  0
 20 26  1  0
 26 27  1  0
 16 28  2  0
 28 29  1  0
 29 30  1  0
 30 31  1  0
 30 32  1  0
 30 33  1  0
 29 34  2  0
 13  4  1  0
 34 14  1  0
 27 17  1  0
 25 21  1  0
  3 35  1  0
  5 36  1  0
  6 37  1  0
  7 38  1  0
 13 39  1  0
 15 40  1  0
 18 41  1  0
 18 42  1  0
 19 43  1  0
 19 44  1  0
 20 45  1  0
 21 46  1  0
 22 47  1  0
 22 48  1  0
 23 49  1  0
 23 50  1  0
 24 51  1  0
 24 52  1  0
 25 53  1  0
 25 54  1  0
 26 55  1  0
 26 56  1  0
 27 57  1  0
 27 58  1  0
 28 59  1  0
 34 60  1  0
M  CHG  1  21   1
M  END
>  <meeko>  (6) 
{"is_sidechain": [false], "free_energy": -8.406, "intermolecular_energy": -11.307, "internal_energy": -1.342}

$$$$
LIB_XJOBUWSKCGTPQM__M_PUB_ALL__e8__s20260927
     RDKit          3D

 60 63  0  0  0  0  0  0  0  0999 V2000
    7.4400  -14.5020   -2.4030 O   0  0  0  0  0  0  0  0  0  0  0  0
    7.8670  -13.3810   -2.1540 C   0  0  0  0  0  0  0  0  0  0  0  0
    7.1230  -12.2410   -1.9140 N   0  0  0  0  0  0  0  0  0  0  0  0
    5.7190  -12.1470   -1.8050 C   0  0  0  0  0  0  0  0  0  0  0  0
    4.9880  -12.5980   -0.7060 C   0  0  0  0  0  0  0  0  0  0  0  0
    3.5970  -12.4650   -0.6730 C   0  0  0  0  0  0  0  0  0  0  0  0
    2.9220  -11.8750   -1.7400 C   0  0  0  0  0  0  0  0  0  0  0  0
    3.6340  -11.4020   -2.8480 C   0  0  0  0  0  0  0  0  0  0  0  0
    2.9150  -10.7800   -4.0190 C   0  0  0  0  0  0  0  0  0  0  0  0
    2.0230  -11.6180   -4.6140 F   0  0  0  0  0  0  0  0  0  0  0  0
    3.7740  -10.3830   -4.9980 F   0  0  0  0  0  0  0  0  0  0  0  0
    2.2070   -9.6680   -3.6710 F   0  0  0  0  0  0  0  0  0  0  0  0
    5.0340  -11.5490   -2.8720 C   0  0  0  0  0  0  0  0  0  0  0  0
    9.3470  -13.1900   -2.1500 C   0  0  0  0  0  0  0  0  0  0  0  0
   10.0660  -13.6040   -3.2850 C   0  0  0  0  0  0  0  0  0  0  0  0
   11.4580  -13.4790   -3.3640 C   0  0  0  0  0  0  0  0  0  0  0  0
   12.1890  -13.9020   -4.4750 N   0  0  0  0  0  0  0  0  0  0  0  0
   11.4360  -14.1850   -5.6950 C   0  0  0  0  0  0  0  0  0  0  0  0
   12.3430  -13.9860   -6.9060 C   0  0  0  0  0  0  0  0  0  0  0  0
   13.6270  -14.8090   -6.7640 C   0  0  0  0  0  0  0  0  0  0  0  0
   14.5620  -14.5160   -7.9390 N   0  0  0  0  0  0  0  0  0  0  0  0
   15.6010  -15.5960   -8.2230 C   0  0  0  0  0  0  0  0  0  0  0  0
   15.6140  -15.7660   -9.7340 C   0  0  0  0  0  0  0  0  0  0  0  0
   14.9800  -14.5030  -10.2720 C   0  0  0  0  0  0  0  0  0  0  0  0
   13.8860  -14.2270   -9.2640 C   0  0  0  0  0  0  0  0  0  0  0  0
   14.3460  -14.4610   -5.4570 C   0  0  0  0  0  0  0  0  0  0  0  0
   13.4210  -14.6590   -4.2610 C   0  0  0  0  0  0  0  0  0  0  0  0
   12.1150  -12.9270   -2.2530 C   0  0  0  0  0  0  0  0  0  0  0  0
   11.4210  -12.5130   -1.0990 C   0  0  0  0  0  0  0  0  0  0  0  0
   12.1820  -11.9710    0.0870 C   0  0  0  0  0  0  0  0  0  0  0  0
   13.2380  -11.1920   -0.2770 F   0  0  0  0  0  0  0  0  0  0  0  0
   12.6920  -12.9600    0.8670 F   0  0  0  0  0  0  0  0  0  0  0  0
   11.4110  -11.2000    0.9010 F   0  0  0  0  0  0  0  0  0  0  0  0
   10.0290  -12.6600   -1.0510 C   0  0  0  0  0  0  0  0  0  0  0  0
    7.6210  -11.3630   -1.8480 H   0  0  0  0  0  0  0  0  0  0  0  0
    5.5112  -13.0627    0.1427 H   0  0  0  0  0  0  0  0  0  0  0  0
    3.0327  -12.8276    0.1988 H   0  0  0  0  0  0  0  0  0  0  0  0
    1.8264  -11.7808   -1.7112 H   0  0  0  0  0  0  0  0  0  0  0  0
    5.6003  -11.1883   -3.7433 H   0  0  0  0  0  0  0  0  0  0  0  0
    9.5193  -14.0384   -4.1349 H   0  0  0  0  0  0  0  0  0  0  0  0
   11.0767  -15.2244   -5.6721 H   0  0  0  0  0  0  0  0  0  0  0  0
   10.5757  -13.5029   -5.7633 H   0  0  0  0  0  0  0  0  0  0  0  0
   11.8087  -14.3047   -7.8132 H   0  0  0  0  0  0  0  0  0  0  0  0
   12.6118  -12.9216   -6.9744 H   0  0  0  0  0  0  0  0  0  0  0  0
   13.3568  -15.8753   -6.7557 H   0  0  0  0  0  0  0  0  0  0  0  0
   15.0890  -13.6640   -7.6960 H   0  0  0  0  0  0  0  0  0  0  0  0
   16.5914  -15.2795   -7.8640 H   0  0  0  0  0  0  0  0  0  0  0  0
   15.3582  -16.5383   -7.7101 H   0  0  0  0  0  0  0  0  0  0  0  0
   16.6450  -15.8693  -10.1032 H   0  0  0  0  0  0  0  0  0  0  0  0
   15.0744  -16.6695  -10.0541 H   0  0  0  0  0  0  0  0  0  0  0  0
   15.7062  -13.6775  -10.3057 H   0  0  0  0  0  0  0  0  0  0  0  0
   14.6095  -14.6045  -11.3027 H   0  0  0  0  0  0  0  0  0  0  0  0
   13.5537  -13.1798   -9.3181 H   0  0  0  0  0  0  0  0  0  0  0  0
   12.9816  -14.8308   -9.4298 H   0  0  0  0  0  0  0  0  0  0  0  0
   15.2253  -15.1123   -5.3446 H   0  0  0  0  0  0  0  0  0  0  0  0
   14.6536  -13.4055   -5.4940 H   0  0  0  0  0  0  0  0  0  0  0  0
   13.1823  -15.7274   -4.1536 H   0  0  0  0  0  0  0  0  0  0  0  0
   13.9186  -14.3038   -3.3465 H   0  0  0  0  0  0  0  0  0  0  0  0
   13.2087  -12.8139   -2.2846 H   0  0  0  0  0  0  0  0  0  0  0  0
    9.4737  -12.3590   -0.1504 H   0  0  0  0  0  0  0  0  0  0  0  0
  1  2  2  0
  2  3  1  0
  3  4  1  0
  4  5  2  0
  5  6  1  0
  6  7  2  0
  7  8  1  0
  8  9  1  0
  9 10  1  0
  9 11  1  0
  9 12  1  0
  8 13  2  0
  2 14  1  0
 14 15  2  0
 15 16  1  0
 16 17  1  0
 17 18  1  0
 18 19  1  0
 19 20  1  0
 20 21  1  0
 21 22  1  0
 22 23  1  0
 23 24  1  0
 24 25  1  0
 20 26  1  0
 26 27  1  0
 16 28  2  0
 28 29  1  0
 29 30  1  0
 30 31  1  0
 30 32  1  0
 30 33  1  0
 29 34  2  0
 13  4  1  0
 34 14  1  0
 27 17  1  0
 25 21  1  0
  3 35  1  0
  5 36  1  0
  6 37  1  0
  7 38  1  0
 13 39  1  0
 15 40  1  0
 18 41  1  0
 18 42  1  0
 19 43  1  0
 19 44  1  0
 20 45  1  0
 21 46  1  0
 22 47  1  0
 22 48  1  0
 23 49  1  0
 23 50  1  0
 24 51  1  0
 24 52  1  0
 25 53  1  0
 25 54  1  0
 26 55  1  0
 26 56  1  0
 27 57  1  0
 27 58  1  0
 28 59  1  0
 34 60  1  0
M  CHG  1  21   1
M  END
>  <meeko>  (7) 
{"is_sidechain": [false], "free_energy": -8.289, "intermolecular_energy": -11.266, "internal_energy": -1.225}

$$$$
LIB_XJOBUWSKCGTPQM__M_PUB_ALL__e8__s20260927
     RDKit          3D

 60 63  0  0  0  0  0  0  0  0999 V2000
   -8.3240  -17.7720    4.6740 O   0  0  0  0  0  0  0  0  0  0  0  0
   -8.3180  -17.0370    5.6550 C   0  0  0  0  0  0  0  0  0  0  0  0
   -7.4130  -16.0310    5.9360 N   0  0  0  0  0  0  0  0  0  0  0  0
   -6.3670  -15.5690    5.1080 C   0  0  0  0  0  0  0  0  0  0  0  0
   -6.4200  -14.3900    4.3650 C   0  0  0  0  0  0  0  0  0  0  0  0
   -5.3380  -14.0010    3.5690 C   0  0  0  0  0  0  0  0  0  0  0  0
   -4.1880  -14.7870    3.5120 C   0  0  0  0  0  0  0  0  0  0  0  0
   -4.1060  -15.9680    4.2590 C   0  0  0  0  0  0  0  0  0  0  0  0
   -2.8770  -16.8400    4.1910 C   0  0  0  0  0  0  0  0  0  0  0  0
   -2.7540  -17.5110    3.0130 F   0  0  0  0  0  0  0  0  0  0  0  0
   -2.8620  -17.7850    5.1700 F   0  0  0  0  0  0  0  0  0  0  0  0
   -1.7210  -16.1310    4.3390 F   0  0  0  0  0  0  0  0  0  0  0  0
   -5.2050  -16.3530    5.0490 C   0  0  0  0  0  0  0  0  0  0  0  0
   -9.3630  -17.2650    6.6950 C   0  0  0  0  0  0  0  0  0  0  0  0
   -9.4500  -18.5440    7.2700 C   0  0  0  0  0  0  0  0  0  0  0  0
  -10.4100  -18.8540    8.2410 C   0  0  0  0  0  0  0  0  0  0  0  0
  -10.5230  -20.1250    8.8080 N   0  0  0  0  0  0  0  0  0  0  0  0
  -11.6600  -20.3550    9.6980 C   0  0  0  0  0  0  0  0  0  0  0  0
  -12.0110  -21.8400    9.6950 C   0  0  0  0  0  0  0  0  0  0  0  0
  -10.7800  -22.6890   10.0270 C   0  0  0  0  0  0  0  0  0  0  0  0
  -11.1320  -24.1740    9.9190 N   0  0  0  0  0  0  0  0  0  0  0  0
  -11.6010  -24.8230   11.2180 C   0  0  0  0  0  0  0  0  0  0  0  0
  -12.7970  -25.6820   10.8390 C   0  0  0  0  0  0  0  0  0  0  0  0
  -12.6760  -25.8780    9.3440 C   0  0  0  0  0  0  0  0  0  0  0  0
  -12.1690  -24.5330    8.8750 C   0  0  0  0  0  0  0  0  0  0  0  0
   -9.6350  -22.3780    9.0580 C   0  0  0  0  0  0  0  0  0  0  0  0
   -9.3060  -20.8890    9.0700 C   0  0  0  0  0  0  0  0  0  0  0  0
  -11.2940  -17.8310    8.6170 C   0  0  0  0  0  0  0  0  0  0  0  0
  -11.2360  -16.5420    8.0510 C   0  0  0  0  0  0  0  0  0  0  0  0
  -12.2420  -15.4930    8.4540 C   0  0  0  0  0  0  0  0  0  0  0  0
  -11.9660  -14.9390    9.6670 F   0  0  0  0  0  0  0  0  0  0  0  0
  -13.5020  -15.9940    8.5450 F   0  0  0  0  0  0  0  0  0  0  0  0
  -12.3050  -14.4560    7.5750 F   0  0  0  0  0  0  0  0  0  0  0  0
  -10.2680  -16.2700    7.0750 C   0  0  0  0  0  0  0  0  0  0  0  0
   -7.4660  -15.5950    6.8470 H   0  0  0  0  0  0  0  0  0  0  0  0
   -7.3210  -13.7603    4.4054 H   0  0  0  0  0  0  0  0  0  0  0  0
   -5.3946  -13.0705    2.9851 H   0  0  0  0  0  0  0  0  0  0  0  0
   -3.3432  -14.4785    2.8786 H   0  0  0  0  0  0  0  0  0  0  0  0
   -5.1521  -17.2852    5.6306 H   0  0  0  0  0  0  0  0  0  0  0  0
   -8.7440  -19.3238    6.9483 H   0  0  0  0  0  0  0  0  0  0  0  0
  -11.3965  -20.0418   10.7190 H   0  0  0  0  0  0  0  0  0  0  0  0
  -12.5247  -19.7714    9.3492 H   0  0  0  0  0  0  0  0  0  0  0  0
  -12.7922  -22.0277   10.4463 H   0  0  0  0  0  0  0  0  0  0  0  0
  -12.3705  -22.1160    8.6927 H   0  0  0  0  0  0  0  0  0  0  0  0
  -10.4609  -22.4512   11.0525 H   0  0  0  0  0  0  0  0  0  0  0  0
  -10.2690  -24.6660    9.6450 H   0  0  0  0  0  0  0  0  0  0  0  0
  -10.8017  -25.4456   11.6463 H   0  0  0  0  0  0  0  0  0  0  0  0
  -11.8647  -24.0708   11.9761 H   0  0  0  0  0  0  0  0  0  0  0  0
  -12.7595  -26.6497   11.3607 H   0  0  0  0  0  0  0  0  0  0  0  0
  -13.7509  -25.2114   11.1195 H   0  0  0  0  0  0  0  0  0  0  0  0
  -11.9596  -26.6778    9.1051 H   0  0  0  0  0  0  0  0  0  0  0  0
  -13.6185  -26.1816    8.8649 H   0  0  0  0  0  0  0  0  0  0  0  0
  -11.7142  -24.6087    7.8763 H   0  0  0  0  0  0  0  0  0  0  0  0
  -12.9652  -23.7800    8.7794 H   0  0  0  0  0  0  0  0  0  0  0  0
   -8.7430  -22.9470    9.3590 H   0  0  0  0  0  0  0  0  0  0  0  0
   -9.9454  -22.6627    8.0418 H   0  0  0  0  0  0  0  0  0  0  0  0
   -8.9012  -20.6098   10.0540 H   0  0  0  0  0  0  0  0  0  0  0  0
   -8.5583  -20.6699    8.2935 H   0  0  0  0  0  0  0  0  0  0  0  0
  -12.0581  -18.0426    9.3795 H   0  0  0  0  0  0  0  0  0  0  0  0
  -10.2205  -15.2749    6.6086 H   0  0  0  0  0  0  0  0  0  0  0  0
  1  2  2  0
  2  3  1  0
  3  4  1  0
  4  5  2  0
  5  6  1  0
  6  7  2  0
  7  8  1  0
  8  9  1  0
  9 10  1  0
  9 11  1  0
  9 12  1  0
  8 13  2  0
  2 14  1  0
 14 15  2  0
 15 16  1  0
 16 17  1  0
 17 18  1  0
 18 19  1  0
 19 20  1  0
 20 21  1  0
 21 22  1  0
 22 23  1  0
 23 24  1  0
 24 25  1  0
 20 26  1  0
 26 27  1  0
 16 28  2  0
 28 29  1  0
 29 30  1  0
 30 31  1  0
 30 32  1  0
 30 33  1  0
 29 34  2  0
 13  4  1  0
 34 14  1  0
 27 17  1  0
 25 21  1  0
  3 35  1  0
  5 36  1  0
  6 37  1  0
  7 38  1  0
 13 39  1  0
 15 40  1  0
 18 41  1  0
 18 42  1  0
 19 43  1  0
 19 44  1  0
 20 45  1  0
 21 46  1  0
 22 47  1  0
 22 48  1  0
 23 49  1  0
 23 50  1  0
 24 51  1  0
 24 52  1  0
 25 53  1  0
 25 54  1  0
 26 55  1  0
 26 56  1  0
 27 57  1  0
 27 58  1  0
 28 59  1  0
 34 60  1  0
M  CHG  1  21   1
M  END
>  <meeko>  (8) 
{"is_sidechain": [false], "free_energy": -8.255, "intermolecular_energy": -11.187, "internal_energy": -1.259}

$$$$
LIB_XJOBUWSKCGTPQM__M_PUB_ALL__e8__s20260927
     RDKit          3D

 60 63  0  0  0  0  0  0  0  0999 V2000
    7.5450  -11.4920    0.9930 O   0  0  0  0  0  0  0  0  0  0  0  0
    7.7020  -12.6030    0.5010 C   0  0  0  0  0  0  0  0  0  0  0  0
    8.8570  -13.1050   -0.0700 N   0  0  0  0  0  0  0  0  0  0  0  0
   10.1240  -12.4840   -0.1170 C   0  0  0  0  0  0  0  0  0  0  0  0
   10.6730  -11.7490    0.9340 C   0  0  0  0  0  0  0  0  0  0  0  0
   11.9380  -11.1660    0.8090 C   0  0  0  0  0  0  0  0  0  0  0  0
   12.6690  -11.3170   -0.3680 C   0  0  0  0  0  0  0  0  0  0  0  0
   12.1440  -12.0610   -1.4310 C   0  0  0  0  0  0  0  0  0  0  0  0
   12.9140  -12.2160   -2.7190 C   0  0  0  0  0  0  0  0  0  0  0  0
   13.3150  -13.4940   -2.9600 F   0  0  0  0  0  0  0  0  0  0  0  0
   14.0420  -11.4540   -2.7380 F   0  0  0  0  0  0  0  0  0  0  0  0
   12.1920  -11.8390   -3.8120 F   0  0  0  0  0  0  0  0  0  0  0  0
   10.8660  -12.6360   -1.2960 C   0  0  0  0  0  0  0  0  0  0  0  0
    6.5210  -13.5150    0.4600 C   0  0  0  0  0  0  0  0  0  0  0  0
    5.2420  -12.9340    0.4790 C   0  0  0  0  0  0  0  0  0  0  0  0
    4.0770  -13.7100    0.4600 C   0  0  0  0  0  0  0  0  0  0  0  0
    2.7990  -13.1500    0.4970 N   0  0  0  0  0  0  0  0  0  0  0  0
    1.6690  -14.0780    0.5230 C   0  0  0  0  0  0  0  0  0  0  0  0
    0.4780  -13.4040    1.1980 C   0  0  0  0  0  0  0  0  0  0  0  0
    0.1650  -12.0620    0.5320 C   0  0  0  0  0  0  0  0  0  0  0  0
   -0.9660  -11.3600    1.2880 N   0  0  0  0  0  0  0  0  0  0  0  0
   -1.2680  -11.9280    2.6710 C   0  0  0  0  0  0  0  0  0  0  0  0
   -1.4500  -10.7210    3.5790 C   0  0  0  0  0  0  0  0  0  0  0  0
   -1.7230   -9.5670    2.6400 C   0  0  0  0  0  0  0  0  0  0  0  0
   -0.8060   -9.8650    1.4750 C   0  0  0  0  0  0  0  0  0  0  0  0
    1.4010  -11.1570    0.5360 C   0  0  0  0  0  0  0  0  0  0  0  0
    2.5810  -11.8520   -0.1360 C   0  0  0  0  0  0  0  0  0  0  0  0
    4.2380  -15.1040    0.4290 C   0  0  0  0  0  0  0  0  0  0  0  0
    5.5080  -15.7140    0.4190 C   0  0  0  0  0  0  0  0  0  0  0  0
    5.6240  -17.2190    0.4360 C   0  0  0  0  0  0  0  0  0  0  0  0
    6.7580  -17.6650   -0.1730 F   0  0  0  0  0  0  0  0  0  0  0  0
    4.5890  -17.8230   -0.2040 F   0  0  0  0  0  0  0  0  0  0  0  0
    5.6490  -17.7330    1.6960 F   0  0  0  0  0  0  0  0  0  0  0  0
    6.6520  -14.9060    0.4480 C   0  0  0  0  0  0  0  0  0  0  0  0
    8.7940  -13.9950   -0.5460 H   0  0  0  0  0  0  0  0  0  0  0  0
   10.1062  -11.6270    1.8688 H   0  0  0  0  0  0  0  0  0  0  0  0
   12.3581  -10.5855    1.6436 H   0  0  0  0  0  0  0  0  0  0  0  0
   13.6607  -10.8504   -0.4618 H   0  0  0  0  0  0  0  0  0  0  0  0
   10.4427  -13.2145   -2.1303 H   0  0  0  0  0  0  0  0  0  0  0  0
    5.1535  -11.8380    0.5097 H   0  0  0  0  0  0  0  0  0  0  0  0
    1.3987  -14.3567   -0.5062 H   0  0  0  0  0  0  0  0  0  0  0  0
    1.9476  -14.9820    1.0844 H   0  0  0  0  0  0  0  0  0  0  0  0
   -0.4011  -14.0603    1.1179 H   0  0  0  0  0  0  0  0  0  0  0  0
    0.7261  -13.2244    2.2545 H   0  0  0  0  0  0  0  0  0  0  0  0
   -0.1391  -12.2545   -0.5075 H   0  0  0  0  0  0  0  0  0  0  0  0
   -1.8220  -11.4880    0.7290 H   0  0  0  0  0  0  0  0  0  0  0  0
   -2.1874  -12.5314    2.6457 H   0  0  0  0  0  0  0  0  0  0  0  0
   -0.4608  -12.5858    3.0257 H   0  0  0  0  0  0  0  0  0  0  0  0
   -2.2991  -10.8742    4.2613 H   0  0  0  0  0  0  0  0  0  0  0  0
   -0.5682  -10.5412    4.2115 H   0  0  0  0  0  0  0  0  0  0  0  0
   -2.7762   -9.5538    2.3229 H   0  0  0  0  0  0  0  0  0  0  0  0
   -1.5456   -8.5814    3.0952 H   0  0  0  0  0  0  0  0  0  0  0  0
   -1.1210   -9.3181    0.5741 H   0  0  0  0  0  0  0  0  0  0  0  0
    0.2355   -9.5599    1.6545 H   0  0  0  0  0  0  0  0  0  0  0  0
    1.1708  -10.2292   -0.0083 H   0  0  0  0  0  0  0  0  0  0  0  0
    1.6705  -10.9315    1.5783 H   0  0  0  0  0  0  0  0  0  0  0  0
    2.3631  -11.9959   -1.2045 H   0  0  0  0  0  0  0  0  0  0  0  0
    3.4839  -11.2328   -0.0290 H   0  0  0  0  0  0  0  0  0  0  0  0
    3.3421  -15.7420    0.4119 H   0  0  0  0  0  0  0  0  0  0  0  0
    7.6513  -15.3657    0.4613 H   0  0  0  0  0  0  0  0  0  0  0  0
  1  2  2  0
  2  3  1  0
  3  4  1  0
  4  5  2  0
  5  6  1  0
  6  7  2  0
  7  8  1  0
  8  9  1  0
  9 10  1  0
  9 11  1  0
  9 12  1  0
  8 13  2  0
  2 14  1  0
 14 15  2  0
 15 16  1  0
 16 17  1  0
 17 18  1  0
 18 19  1  0
 19 20  1  0
 20 21  1  0
 21 22  1  0
 22 23  1  0
 23 24  1  0
 24 25  1  0
 20 26  1  0
 26 27  1  0
 16 28  2  0
 28 29  1  0
 29 30  1  0
 30 31  1  0
 30 32  1  0
 30 33  1  0
 29 34  2  0
 13  4  1  0
 34 14  1  0
 27 17  1  0
 25 21  1  0
  3 35  1  0
  5 36  1  0
  6 37  1  0
  7 38  1  0
 13 39  1  0
 15 40  1  0
 18 41  1  0
 18 42  1  0
 19 43  1  0
 19 44  1  0
 20 45  1  0
 21 46  1  0
 22 47  1  0
 22 48  1  0
 23 49  1  0
 23 50  1  0
 24 51  1  0
 24 52  1  0
 25 53  1  0
 25 54  1  0
 26 55  1  0
 26 56  1  0
 27 57  1  0
 27 58  1  0
 28 59  1  0
 34 60  1  0
M  CHG  1  21   1
M  END
>  <meeko>  (9) 
{"is_sidechain": [false], "free_energy": -8.209, "intermolecular_energy": -11.238, "internal_energy": -1.146}

$$$$
