LIB_BARDROPHSZEBKC__M_PUB_ALL__e8__s20260927
     RDKit          3D

 61 64  0  0  0  0  0  0  0  0999 V2000
    0.4470  -16.6800   -0.6490 C   0  0  0  0  0  0  0  0  0  0  0  0
    0.9710  -15.2570   -0.4450 C   0  0  1  0  0  0  0  0  0  0  0  0
    0.7260  -14.5390   -1.6640 O   0  0  0  0  0  0  0  0  0  0  0  0
    1.9470  -14.1920   -2.3460 C   0  0  1  0  0  0  0  0  0  0  0  0
    1.5500  -13.6750   -3.6540 O   0  0  0  0  0  0  0  0  0  0  0  0
    2.7230  -13.4570   -4.4510 C   0  0  0  0  0  0  0  0  0  0  0  0
    3.6140  -12.3560   -3.8640 C   0  0  0  0  0  0  0  0  0  0  0  0
    3.9690  -12.6380   -2.4630 N   0  0  0  0  0  0  0  0  0  0  0  0
    5.0190  -11.7570   -1.8300 C   0  0  0  0  0  0  0  0  0  0  0  0
    6.2030  -12.6120   -1.5340 C   0  0  0  0  0  0  0  0  0  0  0  0
    7.4090  -12.1770   -1.3390 N   0  0  0  0  0  0  0  0  0  0  0  0
    7.9600  -13.0880   -0.4370 C   0  0  0  0  0  0  0  0  0  0  0  0
    9.1550  -13.1900   -0.1860 O   0  0  0  0  0  0  0  0  0  0  0  0
    6.9130  -13.9540   -0.0080 N   0  0  0  0  0  0  0  0  0  0  0  0
    6.2710  -13.3570    1.5700 P   0  0  0  0  0  0  0  0  0  0  0  0
    6.8000  -14.3940    2.5760 O   0  0  0  0  0  0  0  0  0  0  0  0
    6.8290  -11.9660    1.7510 O   0  0  0  0  0  0  0  0  0  0  0  0
    4.7630  -13.4840    1.4940 O   0  0  0  0  0  0  0  0  0  0  0  0
    5.9040  -13.8360   -1.1190 N   0  0  0  0  0  0  0  0  0  0  0  0
    2.8270  -13.1190   -1.5680 C   0  0  1  0  0  0  0  0  0  0  0  0
    2.0200  -11.9290   -1.0030 C   0  0  0  0  0  0  0  0  0  0  0  0
    1.9860  -11.7360    0.3940 C   0  0  0  0  0  0  0  0  0  0  0  0
    1.2840  -10.6700    0.9610 C   0  0  0  0  0  0  0  0  0  0  0  0
    0.6060   -9.7870    0.1340 C   0  0  0  0  0  0  0  0  0  0  0  0
   -0.0720   -8.7630    0.6710 F   0  0  0  0  0  0  0  0  0  0  0  0
    0.6170   -9.9510   -1.2460 C   0  0  0  0  0  0  0  0  0  0  0  0
    1.3240  -11.0160   -1.8120 C   0  0  0  0  0  0  0  0  0  0  0  0
    0.2350  -14.5810    0.6970 C   0  0  0  0  0  0  0  0  0  0  0  0
    0.6490  -14.7900    2.0230 C   0  0  0  0  0  0  0  0  0  0  0  0
   -0.0180  -14.1800    3.0940 C   0  0  0  0  0  0  0  0  0  0  0  0
    0.4200  -14.4070    4.5220 C   0  0  0  0  0  0  0  0  0  0  0  0
   -0.1010  -13.4400    5.3480 F   0  0  0  0  0  0  0  0  0  0  0  0
    0.0130  -15.5790    5.0700 F   0  0  0  0  0  0  0  0  0  0  0  0
    1.7660  -14.3100    4.6940 F   0  0  0  0  0  0  0  0  0  0  0  0
   -1.0990  -13.3250    2.8180 C   0  0  0  0  0  0  0  0  0  0  0  0
   -1.5230  -13.0840    1.5010 C   0  0  0  0  0  0  0  0  0  0  0  0
   -2.6810  -12.1640    1.2280 C   0  0  0  0  0  0  0  0  0  0  0  0
   -3.7800  -12.7850    0.7110 F   0  0  0  0  0  0  0  0  0  0  0  0
   -2.3780  -11.1640    0.3520 F   0  0  0  0  0  0  0  0  0  0  0  0
   -3.1180  -11.5350    2.3580 F   0  0  0  0  0  0  0  0  0  0  0  0
   -0.8560  -13.7300    0.4510 C   0  0  0  0  0  0  0  0  0  0  0  0
    0.2736  -17.1508    0.3299 H   0  0  0  0  0  0  0  0  0  0  0  0
   -0.4975  -16.6458   -1.2118 H   0  0  0  0  0  0  0  0  0  0  0  0
    1.1881  -17.2665   -1.2118 H   0  0  0  0  0  0  0  0  0  0  0  0
    2.0428  -15.2737   -0.1982 H   0  0  0  0  0  0  0  0  0  0  0  0
    2.5874  -15.0831   -2.4222 H   0  0  0  0  0  0  0  0  0  0  0  0
    3.2991  -14.3928   -4.5000 H   0  0  0  0  0  0  0  0  0  0  0  0
    2.4008  -13.1379   -5.4532 H   0  0  0  0  0  0  0  0  0  0  0  0
    4.5363  -12.2873   -4.4595 H   0  0  0  0  0  0  0  0  0  0  0  0
    3.0564  -11.4083   -3.8945 H   0  0  0  0  0  0  0  0  0  0  0  0
    4.5130  -13.5720   -2.5570 H   0  0  0  0  0  0  0  0  0  0  0  0
    5.3015  -10.9517   -2.5240 H   0  0  0  0  0  0  0  0  0  0  0  0
    4.6337  -11.2967   -0.9082 H   0  0  0  0  0  0  0  0  0  0  0  0
    3.2364  -13.6307   -0.6845 H   0  0  0  0  0  0  0  0  0  0  0  0
    2.5224  -12.4382    1.0490 H   0  0  0  0  0  0  0  0  0  0  0  0
    1.2690  -10.5322    2.0522 H   0  0  0  0  0  0  0  0  0  0  0  0
    0.0716   -9.2457   -1.8903 H   0  0  0  0  0  0  0  0  0  0  0  0
    1.3353  -11.1405   -2.9049 H   0  0  0  0  0  0  0  0  0  0  0  0
    1.5109  -15.4432    2.2240 H   0  0  0  0  0  0  0  0  0  0  0  0
   -1.6238  -12.8344    3.6510 H   0  0  0  0  0  0  0  0  0  0  0  0
   -1.1924  -13.5680   -0.5837 H   0  0  0  0  0  0  0  0  0  0  0  0
  1  2  1  0
  2  3  1  0
  3  4  1  0
  4  5  1  0
  5  6  1  0
  6  7  1  0
  7  8  1  0
  8  9  1  0
  9 10  1  0
 10 11  2  0
 11 12  1  0
 12 13  2  0
 12 14  1  0
 14 15  1  0
 15 16  2  0
 15 17  1  0
 15 18  1  0
 14 19  1  0
  8 20  1  0
 20 21  1  0
 21 22  2  0
 22 23  1  0
 23 24  2  0
 24 25  1  0
 24 26  1  0
 26 27  2  0
  2 28  1  0
 28 29  2  0
 29 30  1  0
 30 31  1  0
 31 32  1  0
 31 33  1  0
 31 34  1  0
 30 35  2  0
 35 36  1  0
 36 37  1  0
 37 38  1  0
 37 39  1  0
 37 40  1  0
 36 41  2  0
 20  4  1  0
 27 21  1  0
 41 28  1  0
 19 10  1  0
  1 42  1  0
  1 43  1  0
  1 44  1  0
  2 45  1  1
  4 46  1  6
  6 47  1  0
  6 48  1  0
  7 49  1  0
  7 50  1  0
  8 51  1  0
  9 52  1  0
  9 53  1  0
 20 54  1  1
 22 55  1  0
 23 56  1  0
 26 57  1  0
 27 58  1  0
 29 59  1  0
 35 60  1  0
 41 61  1  0
M  CHG  4   8   1  17  -1  18  -1  19  -1
M  END
>  <meeko>  (1) 
{"is_sidechain": [false], "free_energy": -8.086, "intermolecular_energy": -12.34, "internal_energy": -3.212}

$$$$
LIB_BARDROPHSZEBKC__M_PUB_ALL__e8__s20260927
     RDKit          3D

 61 64  0  0  0  0  0  0  0  0999 V2000
    0.9610  -15.6180   -1.4850 C   0  0  0  0  0  0  0  0  0  0  0  0
    2.1970  -14.8090   -1.0850 C   0  0  1  0  0  0  0  0  0  0  0  0
    3.2590  -15.1980   -1.9700 O   0  0  0  0  0  0  0  0  0  0  0  0
    4.5230  -15.3090   -1.2860 C   0  0  1  0  0  0  0  0  0  0  0  0
    4.9440  -16.7010   -1.4340 O   0  0  0  0  0  0  0  0  0  0  0  0
    6.1190  -16.9240   -0.6420 C   0  0  0  0  0  0  0  0  0  0  0  0
    7.3150  -16.1110   -1.1540 C   0  0  0  0  0  0  0  0  0  0  0  0
    6.9950  -14.6760   -1.2380 N   0  0  0  0  0  0  0  0  0  0  0  0
    8.1410  -13.7330   -1.5130 C   0  0  0  0  0  0  0  0  0  0  0  0
    8.0700  -12.6350   -0.5070 C   0  0  0  0  0  0  0  0  0  0  0  0
    7.3570  -11.5580   -0.6270 N   0  0  0  0  0  0  0  0  0  0  0  0
    7.0050  -11.2340    0.6840 C   0  0  0  0  0  0  0  0  0  0  0  0
    6.5490  -10.1530    1.0410 O   0  0  0  0  0  0  0  0  0  0  0  0
    7.4210  -12.3110    1.5190 N   0  0  0  0  0  0  0  0  0  0  0  0
    6.0130  -13.4010    1.8120 P   0  0  0  0  0  0  0  0  0  0  0  0
    5.5950  -13.0530    3.2510 O   0  0  0  0  0  0  0  0  0  0  0  0
    4.9870  -13.0530    0.7600 O   0  0  0  0  0  0  0  0  0  0  0  0
    6.5560  -14.8160    1.7950 O   0  0  0  0  0  0  0  0  0  0  0  0
    8.4990  -12.9720    0.7020 N   0  0  0  0  0  0  0  0  0  0  0  0
    5.6390  -14.3270   -1.8520 C   0  0  1  0  0  0  0  0  0  0  0  0
    5.7190  -14.2820   -3.3940 C   0  0  0  0  0  0  0  0  0  0  0  0
    5.5710  -13.0380   -4.0440 C   0  0  0  0  0  0  0  0  0  0  0  0
    5.6480  -12.9330   -5.4330 C   0  0  0  0  0  0  0  0  0  0  0  0
    5.8700  -14.0740   -6.1890 C   0  0  0  0  0  0  0  0  0  0  0  0
    5.9420  -13.9820   -7.5240 F   0  0  0  0  0  0  0  0  0  0  0  0
    6.0160  -15.3150   -5.5810 C   0  0  0  0  0  0  0  0  0  0  0  0
    5.9450  -15.4180   -4.1890 C   0  0  0  0  0  0  0  0  0  0  0  0
    1.9290  -13.3230   -1.2390 C   0  0  0  0  0  0  0  0  0  0  0  0
    2.4130  -12.6340   -2.3640 C   0  0  0  0  0  0  0  0  0  0  0  0
    2.1810  -11.2610   -2.5250 C   0  0  0  0  0  0  0  0  0  0  0  0
    2.7050  -10.5140   -3.7300 C   0  0  0  0  0  0  0  0  0  0  0  0
    2.4540  -11.2180   -4.8830 F   0  0  0  0  0  0  0  0  0  0  0  0
    2.1440   -9.2980   -3.9430 F   0  0  0  0  0  0  0  0  0  0  0  0
    4.0560  -10.3550   -3.7180 F   0  0  0  0  0  0  0  0  0  0  0  0
    1.4270  -10.5830   -1.5510 C   0  0  0  0  0  0  0  0  0  0  0  0
    0.9170  -11.2520   -0.4260 C   0  0  0  0  0  0  0  0  0  0  0  0
    0.1110  -10.5070    0.6030 C   0  0  0  0  0  0  0  0  0  0  0  0
   -1.2050  -10.3550    0.2800 F   0  0  0  0  0  0  0  0  0  0  0  0
    0.5780   -9.2480    0.8420 F   0  0  0  0  0  0  0  0  0  0  0  0
    0.1180  -11.1310    1.8160 F   0  0  0  0  0  0  0  0  0  0  0  0
    1.1870  -12.6180   -0.2750 C   0  0  0  0  0  0  0  0  0  0  0  0
    0.4381  -15.9603   -0.5798 H   0  0  0  0  0  0  0  0  0  0  0  0
    0.2864  -14.9861   -2.0814 H   0  0  0  0  0  0  0  0  0  0  0  0
    1.2701  -16.4891   -2.0814 H   0  0  0  0  0  0  0  0  0  0  0  0
    2.4596  -15.0017   -0.0343 H   0  0  0  0  0  0  0  0  0  0  0  0
    4.3956  -15.0175   -0.2330 H   0  0  0  0  0  0  0  0  0  0  0  0
    5.9085  -16.6314    0.3973 H   0  0  0  0  0  0  0  0  0  0  0  0
    6.3780  -17.9910   -0.7081 H   0  0  0  0  0  0  0  0  0  0  0  0
    8.1619  -16.2488   -0.4657 H   0  0  0  0  0  0  0  0  0  0  0  0
    7.5688  -16.4680   -2.1630 H   0  0  0  0  0  0  0  0  0  0  0  0
    6.7760  -14.4380   -0.2020 H   0  0  0  0  0  0  0  0  0  0  0  0
    9.0978  -14.2674   -1.4186 H   0  0  0  0  0  0  0  0  0  0  0  0
    8.0728  -13.3281   -2.5335 H   0  0  0  0  0  0  0  0  0  0  0  0
    5.3439  -13.3106   -1.5522 H   0  0  0  0  0  0  0  0  0  0  0  0
    5.3915  -12.1338   -3.4438 H   0  0  0  0  0  0  0  0  0  0  0  0
    5.5338  -11.9550   -5.9235 H   0  0  0  0  0  0  0  0  0  0  0  0
    6.1868  -16.2129   -6.1930 H   0  0  0  0  0  0  0  0  0  0  0  0
    6.0676  -16.4006   -3.7100 H   0  0  0  0  0  0  0  0  0  0  0  0
    2.9827  -13.1805   -3.1301 H   0  0  0  0  0  0  0  0  0  0  0  0
    1.2326   -9.5071   -1.6724 H   0  0  0  0  0  0  0  0  0  0  0  0
    0.8122  -13.1483    0.6129 H   0  0  0  0  0  0  0  0  0  0  0  0
  1  2  1  0
  2  3  1  0
  3  4  1  0
  4  5  1  0
  5  6  1  0
  6  7  1  0
  7  8  1  0
  8  9  1  0
  9 10  1  0
 10 11  2  0
 11 12  1  0
 12 13  2  0
 12 14  1  0
 14 15  1  0
 15 16  2  0
 15 17  1  0
 15 18  1  0
 14 19  1  0
  8 20  1  0
 20 21  1  0
 21 22  2  0
 22 23  1  0
 23 24  2  0
 24 25  1  0
 24 26  1  0
 26 27  2  0
  2 28  1  0
 28 29  2  0
 29 30  1  0
 30 31  1  0
 31 32  1  0
 31 33  1  0
 31 34  1  0
 30 35  2  0
 35 36  1  0
 36 37  1  0
 37 38  1  0
 37 39  1  0
 37 40  1  0
 36 41  2  0
 20  4  1  0
 27 21  1  0
 41 28  1  0
 19 10  1  0
  1 42  1  0
  1 43  1  0
  1 44  1  0
  2 45  1  1
  4 46  1  1
  6 47  1  0
  6 48  1  0
  7 49  1  0
  7 50  1  0
  8 51  1  0
  9 52  1  0
  9 53  1  0
 20 54  1  1
 22 55  1  0
 23 56  1  0
 26 57  1  0
 27 58  1  0
 29 59  1  0
 35 60  1  0
 41 61  1  0
M  CHG  4   8   1  17  -1  18  -1  19  -1
M  END
>  <meeko>  (2) 
{"is_sidechain": [false], "free_energy": -8.015, "intermolecular_energy": -12.616, "internal_energy": -2.827}

$$$$
LIB_BARDROPHSZEBKC__M_PUB_ALL__e8__s20260927
     RDKit          3D

 61 64  0  0  0  0  0  0  0  0999 V2000
    0.3920  -16.6400   -0.7490 C   0  0  0  0  0  0  0  0  0  0  0  0
    0.9440  -15.2290   -0.5350 C   0  0  1  0  0  0  0  0  0  0  0  0
    0.7070  -14.4950   -1.7460 O   0  0  0  0  0  0  0  0  0  0  0  0
    1.9320  -14.1470   -2.4200 C   0  0  1  0  0  0  0  0  0  0  0  0
    1.5420  -13.6070   -3.7220 O   0  0  0  0  0  0  0  0  0  0  0  0
    2.7180  -13.3870   -4.5120 C   0  0  0  0  0  0  0  0  0  0  0  0
    3.6160  -12.3010   -3.9060 C   0  0  0  0  0  0  0  0  0  0  0  0
    3.9650  -12.6060   -2.5090 N   0  0  0  0  0  0  0  0  0  0  0  0
    5.0200  -11.7420   -1.8610 C   0  0  0  0  0  0  0  0  0  0  0  0
    6.1850  -12.6180   -1.5450 C   0  0  0  0  0  0  0  0  0  0  0  0
    7.3980  -12.2040   -1.3470 N   0  0  0  0  0  0  0  0  0  0  0  0
    7.9240  -13.1140   -0.4290 C   0  0  0  0  0  0  0  0  0  0  0  0
    9.1160  -13.2370   -0.1690 O   0  0  0  0  0  0  0  0  0  0  0  0
    6.8570  -13.9520    0.0040 N   0  0  0  0  0  0  0  0  0  0  0  0
    6.2180  -13.3210    1.5690 P   0  0  0  0  0  0  0  0  0  0  0  0
    6.7340  -14.3440    2.5960 O   0  0  0  0  0  0  0  0  0  0  0  0
    6.7880  -11.9320    1.7270 O   0  0  0  0  0  0  0  0  0  0  0  0
    4.7080  -13.4350    1.4920 O   0  0  0  0  0  0  0  0  0  0  0  0
    5.8580  -13.8290   -1.1160 N   0  0  0  0  0  0  0  0  0  0  0  0
    2.8180  -13.0920   -1.6240 C   0  0  1  0  0  0  0  0  0  0  0  0
    2.0170  -11.9050   -1.0440 C   0  0  0  0  0  0  0  0  0  0  0  0
    1.9930  -11.7240    0.3550 C   0  0  0  0  0  0  0  0  0  0  0  0
    1.2990  -10.6610    0.9360 C   0  0  0  0  0  0  0  0  0  0  0  0
    0.6180   -9.7690    0.1210 C   0  0  0  0  0  0  0  0  0  0  0  0
   -0.0530   -8.7480    0.6710 F   0  0  0  0  0  0  0  0  0  0  0  0
    0.6190   -9.9210   -1.2600 C   0  0  0  0  0  0  0  0  0  0  0  0
    1.3190  -10.9820   -1.8400 C   0  0  0  0  0  0  0  0  0  0  0  0
    0.2250  -14.5490    0.6170 C   0  0  0  0  0  0  0  0  0  0  0  0
   -0.8620  -13.6980    0.3630 C   0  0  0  0  0  0  0  0  0  0  0  0
   -1.5380  -13.0570    1.4100 C   0  0  0  0  0  0  0  0  0  0  0  0
   -2.7050  -12.1340    1.1410 C   0  0  0  0  0  0  0  0  0  0  0  0
   -2.3530  -10.8270    1.3790 F   0  0  0  0  0  0  0  0  0  0  0  0
   -3.1600  -12.1380   -0.1370 F   0  0  0  0  0  0  0  0  0  0  0  0
   -3.7650  -12.3550    1.9630 F   0  0  0  0  0  0  0  0  0  0  0  0
   -1.1270  -13.3020    2.7310 C   0  0  0  0  0  0  0  0  0  0  0  0
   -0.0540  -14.1640    3.0140 C   0  0  0  0  0  0  0  0  0  0  0  0
    0.3680  -14.4140    4.4370 C   0  0  0  0  0  0  0  0  0  0  0  0
    1.7180  -14.4650    4.6190 F   0  0  0  0  0  0  0  0  0  0  0  0
   -0.1160  -15.5850    4.9420 F   0  0  0  0  0  0  0  0  0  0  0  0
   -0.0770  -13.4430    5.2860 F   0  0  0  0  0  0  0  0  0  0  0  0
    0.6220  -14.7690    1.9480 C   0  0  0  0  0  0  0  0  0  0  0  0
    0.2069  -17.1132    0.2266 H   0  0  0  0  0  0  0  0  0  0  0  0
   -0.5503  -16.5834   -1.3137 H   0  0  0  0  0  0  0  0  0  0  0  0
    1.1226  -17.2378   -1.3137 H   0  0  0  0  0  0  0  0  0  0  0  0
    2.0165  -15.2686   -0.2938 H   0  0  0  0  0  0  0  0  0  0  0  0
    2.5657  -15.0418   -2.5080 H   0  0  0  0  0  0  0  0  0  0  0  0
    3.2870  -14.3265   -4.5730 H   0  0  0  0  0  0  0  0  0  0  0  0
    2.4014  -13.0512   -5.5105 H   0  0  0  0  0  0  0  0  0  0  0  0
    4.5404  -12.2304   -4.4980 H   0  0  0  0  0  0  0  0  0  0  0  0
    3.0654  -11.3489   -3.9238 H   0  0  0  0  0  0  0  0  0  0  0  0
    4.5030  -13.5430   -2.6160 H   0  0  0  0  0  0  0  0  0  0  0  0
    5.3274  -10.9430   -2.5517 H   0  0  0  0  0  0  0  0  0  0  0  0
    4.6285  -11.2731   -0.9462 H   0  0  0  0  0  0  0  0  0  0  0  0
    3.2223  -13.6191   -0.7473 H   0  0  0  0  0  0  0  0  0  0  0  0
    2.5313  -12.4339    1.0002 H   0  0  0  0  0  0  0  0  0  0  0  0
    1.2924  -10.5323    2.0284 H   0  0  0  0  0  0  0  0  0  0  0  0
    0.0708   -9.2088   -1.8943 H   0  0  0  0  0  0  0  0  0  0  0  0
    1.3235  -11.0959   -2.9341 H   0  0  0  0  0  0  0  0  0  0  0  0
   -1.1884  -13.5316   -0.6742 H   0  0  0  0  0  0  0  0  0  0  0  0
   -1.6557  -12.8092    3.5602 H   0  0  0  0  0  0  0  0  0  0  0  0
    1.4783  -15.4277    2.1549 H   0  0  0  0  0  0  0  0  0  0  0  0
  1  2  1  0
  2  3  1  0
  3  4  1  0
  4  5  1  0
  5  6  1  0
  6  7  1  0
  7  8  1  0
  8  9  1  0
  9 10  1  0
 10 11  2  0
 11 12  1  0
 12 13  2  0
 12 14  1  0
 14 15  1  0
 15 16  2  0
 15 17  1  0
 15 18  1  0
 14 19  1  0
  8 20  1  0
 20 21  1  0
 21 22  2  0
 22 23  1  0
 23 24  2  0
 24 25  1  0
 24 26  1  0
 26 27  2  0
  2 28  1  0
 28 29  2  0
 29 30  1  0
 30 31  1  0
 31 32  1  0
 31 33  1  0
 31 34  1  0
 30 35  2  0
 35 36  1  0
 36 37  1  0
 37 38  1  0
 37 39  1  0
 37 40  1  0
 36 41  2  0
 20  4  1  0
 27 21  1  0
 41 28  1  0
 19 10  1  0
  1 42  1  0
  1 43  1  0
  1 44  1  0
  2 45  1  1
  4 46  1  6
  6 47  1  0
  6 48  1  0
  7 49  1  0
  7 50  1  0
  8 51  1  0
  9 52  1  0
  9 53  1  0
 20 54  1  1
 22 55  1  0
 23 56  1  0
 26 57  1  0
 27 58  1  0
 29 59  1  0
 35 60  1  0
 41 61  1  0
M  CHG  4   8   1  17  -1  18  -1  19  -1
M  END
>  <meeko>  (3) 
{"is_sidechain": [false], "free_energy": -8.01, "intermolecular_energy": -12.299, "internal_energy": -3.136}

$$$$
LIB_BARDROPHSZEBKC__M_PUB_ALL__e8__s20260927
     RDKit          3D

 61 64  0  0  0  0  0  0  0  0999 V2000
   -0.2850  -13.9730    5.4320 C   0  0  0  0  0  0  0  0  0  0  0  0
    0.0960  -14.0780    3.9540 C   0  0  1  0  0  0  0  0  0  0  0  0
   -0.0130  -15.4620    3.5880 O   0  0  0  0  0  0  0  0  0  0  0  0
    1.2750  -16.0650    3.3520 C   0  0  1  0  0  0  0  0  0  0  0  0
    1.0450  -17.5080    3.3010 O   0  0  0  0  0  0  0  0  0  0  0  0
    2.3080  -18.1840    3.2270 C   0  0  0  0  0  0  0  0  0  0  0  0
    3.0460  -17.8720    1.9190 C   0  0  0  0  0  0  0  0  0  0  0  0
    3.2070  -16.4210    1.7230 N   0  0  0  0  0  0  0  0  0  0  0  0
    4.1060  -15.9780    0.5950 C   0  0  0  0  0  0  0  0  0  0  0  0
    4.4750  -14.5550    0.8480 C   0  0  0  0  0  0  0  0  0  0  0  0
    5.1670  -14.1320    1.8600 N   0  0  0  0  0  0  0  0  0  0  0  0
    5.8610  -13.0280    1.3620 C   0  0  0  0  0  0  0  0  0  0  0  0
    6.4300  -12.1890    2.0500 O   0  0  0  0  0  0  0  0  0  0  0  0
    5.6410  -12.9820   -0.0450 N   0  0  0  0  0  0  0  0  0  0  0  0
    7.0400  -13.7600   -0.8800 P   0  0  0  0  0  0  0  0  0  0  0  0
    7.7470  -12.5730   -1.5570 O   0  0  0  0  0  0  0  0  0  0  0  0
    7.8480  -14.4400    0.1990 O   0  0  0  0  0  0  0  0  0  0  0  0
    6.4530  -14.6510   -1.9580 O   0  0  0  0  0  0  0  0  0  0  0  0
    4.3660  -13.7650   -0.2110 N   0  0  0  0  0  0  0  0  0  0  0  0
    1.9740  -15.5660    2.0140 C   0  0  1  0  0  0  0  0  0  0  0  0
    1.0320  -15.5090    0.7910 C   0  0  0  0  0  0  0  0  0  0  0  0
    0.9400  -14.3050    0.0620 C   0  0  0  0  0  0  0  0  0  0  0  0
    0.1160  -14.1980   -1.0600 C   0  0  0  0  0  0  0  0  0  0  0  0
   -0.6270  -15.2980   -1.4630 C   0  0  0  0  0  0  0  0  0  0  0  0
   -1.4220  -15.2030   -2.5370 F   0  0  0  0  0  0  0  0  0  0  0  0
   -0.5610  -16.4970   -0.7660 C   0  0  0  0  0  0  0  0  0  0  0  0
    0.2680  -16.6040    0.3540 C   0  0  0  0  0  0  0  0  0  0  0  0
   -0.8540  -13.2540    3.1040 C   0  0  0  0  0  0  0  0  0  0  0  0
   -0.8260  -11.8510    3.1760 C   0  0  0  0  0  0  0  0  0  0  0  0
   -1.6960  -11.0700    2.4040 C   0  0  0  0  0  0  0  0  0  0  0  0
   -1.6740   -9.5610    2.4840 C   0  0  0  0  0  0  0  0  0  0  0  0
   -1.7500   -9.1440    3.7910 F   0  0  0  0  0  0  0  0  0  0  0  0
   -0.5490   -8.9750    2.0030 F   0  0  0  0  0  0  0  0  0  0  0  0
   -2.7420   -8.9750    1.8790 F   0  0  0  0  0  0  0  0  0  0  0  0
   -2.5850  -11.7150    1.5260 C   0  0  0  0  0  0  0  0  0  0  0  0
   -2.6200  -13.1150    1.4210 C   0  0  0  0  0  0  0  0  0  0  0  0
   -3.5790  -13.7840    0.4730 C   0  0  0  0  0  0  0  0  0  0  0  0
   -3.4470  -15.1390    0.4080 F   0  0  0  0  0  0  0  0  0  0  0  0
   -3.4600  -13.3400   -0.8120 F   0  0  0  0  0  0  0  0  0  0  0  0
   -4.8820  -13.5610    0.8130 F   0  0  0  0  0  0  0  0  0  0  0  0
   -1.7600  -13.8720    2.2250 C   0  0  0  0  0  0  0  0  0  0  0  0
    0.5896  -14.2140    6.0541 H   0  0  0  0  0  0  0  0  0  0  0  0
   -0.6206  -12.9489    5.6523 H   0  0  0  0  0  0  0  0  0  0  0  0
   -1.0979  -14.6806    5.6523 H   0  0  0  0  0  0  0  0  0  0  0  0
    1.1161  -13.6998    3.7918 H   0  0  0  0  0  0  0  0  0  0  0  0
    1.9660  -15.7769    4.1579 H   0  0  0  0  0  0  0  0  0  0  0  0
    2.9332  -17.8639    4.0735 H   0  0  0  0  0  0  0  0  0  0  0  0
    2.1185  -19.2670    3.2624 H   0  0  0  0  0  0  0  0  0  0  0  0
    4.0405  -18.3412    1.9490 H   0  0  0  0  0  0  0  0  0  0  0  0
    2.4507  -18.2692    1.0836 H   0  0  0  0  0  0  0  0  0  0  0  0
    3.8080  -16.1480    2.5850 H   0  0  0  0  0  0  0  0  0  0  0  0
    5.0116  -16.6019    0.5693 H   0  0  0  0  0  0  0  0  0  0  0  0
    3.5921  -16.0788   -0.3723 H   0  0  0  0  0  0  0  0  0  0  0  0
    2.2767  -14.5231    2.1893 H   0  0  0  0  0  0  0  0  0  0  0  0
    1.5289  -13.4334    0.3837 H   0  0  0  0  0  0  0  0  0  0  0  0
    0.0566  -13.2520   -1.6182 H   0  0  0  0  0  0  0  0  0  0  0  0
   -1.1592  -17.3598   -1.0942 H   0  0  0  0  0  0  0  0  0  0  0  0
    0.3230  -17.5573    0.9001 H   0  0  0  0  0  0  0  0  0  0  0  0
   -0.1094  -11.3579    3.8494 H   0  0  0  0  0  0  0  0  0  0  0  0
   -3.2666  -11.1110    0.9091 H   0  0  0  0  0  0  0  0  0  0  0  0
   -1.7938  -14.9700    2.1679 H   0  0  0  0  0  0  0  0  0  0  0  0
  1  2  1  0
  2  3  1  0
  3  4  1  0
  4  5  1  0
  5  6  1  0
  6  7  1  0
  7  8  1  0
  8  9  1  0
  9 10  1  0
 10 11  2  0
 11 12  1  0
 12 13  2  0
 12 14  1  0
 14 15  1  0
 15 16  2  0
 15 17  1  0
 15 18  1  0
 14 19  1  0
  8 20  1  0
 20 21  1  0
 21 22  2  0
 22 23  1  0
 23 24  2  0
 24 25  1  0
 24 26  1  0
 26 27  2  0
  2 28  1  0
 28 29  2  0
 29 30  1  0
 30 31  1  0
 31 32  1  0
 31 33  1  0
 31 34  1  0
 30 35  2  0
 35 36  1  0
 36 37  1  0
 37 38  1  0
 37 39  1  0
 37 40  1  0
 36 41  2  0
 20  4  1  0
 27 21  1  0
 41 28  1  0
 19 10  1  0
  1 42  1  0
  1 43  1  0
  1 44  1  0
  2 45  1  1
  4 46  1  1
  6 47  1  0
  6 48  1  0
  7 49  1  0
  7 50  1  0
  8 51  1  0
  9 52  1  0
  9 53  1  0
 20 54  1  1
 22 55  1  0
 23 56  1  0
 26 57  1  0
 27 58  1  0
 29 59  1  0
 35 60  1  0
 41 61  1  0
M  CHG  4   8   1  17  -1  18  -1  19  -1
M  END
>  <meeko>  (4) 
{"is_sidechain": [false], "free_energy": -7.992, "intermolecular_energy": -12.031, "internal_energy": -3.377}

$$$$
LIB_BARDROPHSZEBKC__M_PUB_ALL__e8__s20260927
     RDKit          3D

 61 64  0  0  0  0  0  0  0  0999 V2000
    6.9840  -17.7360   -6.4790 C   0  0  0  0  0  0  0  0  0  0  0  0
    7.8490  -16.4810   -6.3470 C   0  0  1  0  0  0  0  0  0  0  0  0
    9.1050  -16.7660   -6.9810 O   0  0  0  0  0  0  0  0  0  0  0  0
   10.2260  -16.4620   -6.1280 C   0  0  1  0  0  0  0  0  0  0  0  0
   11.1690  -17.5690   -6.2860 O   0  0  0  0  0  0  0  0  0  0  0  0
   12.2400  -17.4130   -5.3440 C   0  0  0  0  0  0  0  0  0  0  0  0
   13.0760  -16.1610   -5.6340 C   0  0  0  0  0  0  0  0  0  0  0  0
   12.2370  -14.9520   -5.6880 N   0  0  0  0  0  0  0  0  0  0  0  0
   12.9510  -13.6230   -5.7440 C   0  0  0  0  0  0  0  0  0  0  0  0
   13.2290  -13.2040   -4.3410 C   0  0  0  0  0  0  0  0  0  0  0  0
   13.4160  -11.9820   -3.9490 N   0  0  0  0  0  0  0  0  0  0  0  0
   12.9170  -11.9600   -2.6460 C   0  0  0  0  0  0  0  0  0  0  0  0
   13.1290  -11.0710   -1.8300 O   0  0  0  0  0  0  0  0  0  0  0  0
   12.2760  -13.2100   -2.4110 N   0  0  0  0  0  0  0  0  0  0  0  0
   10.5030  -13.0180   -2.6890 P   0  0  0  0  0  0  0  0  0  0  0  0
    9.9290  -12.9630   -1.2620 O   0  0  0  0  0  0  0  0  0  0  0  0
   10.3370  -11.7430   -3.4810 O   0  0  0  0  0  0  0  0  0  0  0  0
   10.0320  -14.2990   -3.3490 O   0  0  0  0  0  0  0  0  0  0  0  0
   12.9210  -14.1140   -3.4270 N   0  0  0  0  0  0  0  0  0  0  0  0
   10.9310  -15.0790   -6.4740 C   0  0  1  0  0  0  0  0  0  0  0  0
   11.1620  -14.8460   -7.9830 C   0  0  0  0  0  0  0  0  0  0  0  0
   10.5970  -13.7030   -8.5870 C   0  0  0  0  0  0  0  0  0  0  0  0
   10.7830  -13.4330   -9.9440 C   0  0  0  0  0  0  0  0  0  0  0  0
   11.5350  -14.3080  -10.7130 C   0  0  0  0  0  0  0  0  0  0  0  0
   11.7170  -14.0570  -12.0160 F   0  0  0  0  0  0  0  0  0  0  0  0
   12.1030  -15.4440  -10.1500 C   0  0  0  0  0  0  0  0  0  0  0  0
   11.9200  -15.7100   -8.7900 C   0  0  0  0  0  0  0  0  0  0  0  0
    7.1860  -15.3060   -7.0430 C   0  0  0  0  0  0  0  0  0  0  0  0
    6.3510  -14.4390   -6.3190 C   0  0  0  0  0  0  0  0  0  0  0  0
    5.7250  -13.3510   -6.9410 C   0  0  0  0  0  0  0  0  0  0  0  0
    4.8210  -12.4190   -6.1670 C   0  0  0  0  0  0  0  0  0  0  0  0
    4.4540  -11.3450   -6.9430 F   0  0  0  0  0  0  0  0  0  0  0  0
    3.6470  -12.9620   -5.7590 F   0  0  0  0  0  0  0  0  0  0  0  0
    5.4230  -11.8630   -5.0830 F   0  0  0  0  0  0  0  0  0  0  0  0
    5.9690  -13.1200   -8.3060 C   0  0  0  0  0  0  0  0  0  0  0  0
    6.8140  -13.9610   -9.0490 C   0  0  0  0  0  0  0  0  0  0  0  0
    7.0620  -13.6940  -10.5090 C   0  0  0  0  0  0  0  0  0  0  0  0
    5.9370  -13.7050  -11.2790 F   0  0  0  0  0  0  0  0  0  0  0  0
    7.9090  -14.5970  -11.0830 F   0  0  0  0  0  0  0  0  0  0  0  0
    7.6360  -12.4750  -10.7220 F   0  0  0  0  0  0  0  0  0  0  0  0
    7.4040  -15.0580   -8.4090 C   0  0  0  0  0  0  0  0  0  0  0  0
    6.7259  -18.1104   -5.4774 H   0  0  0  0  0  0  0  0  0  0  0  0
    6.0626  -17.4902   -7.0272 H   0  0  0  0  0  0  0  0  0  0  0  0
    7.5416  -18.5096   -7.0272 H   0  0  0  0  0  0  0  0  0  0  0  0
    7.9856  -16.2181   -5.2877 H   0  0  0  0  0  0  0  0  0  0  0  0
    9.8756  -16.3511   -5.0912 H   0  0  0  0  0  0  0  0  0  0  0  0
   11.8154  -17.3311   -4.3326 H   0  0  0  0  0  0  0  0  0  0  0  0
   12.8984  -18.2903   -5.4268 H   0  0  0  0  0  0  0  0  0  0  0  0
   13.8262  -16.0401   -4.8387 H   0  0  0  0  0  0  0  0  0  0  0  0
   13.5603  -16.2888   -6.6133 H   0  0  0  0  0  0  0  0  0  0  0  0
   11.8260  -14.9230   -4.6840 H   0  0  0  0  0  0  0  0  0  0  0  0
   13.8951  -13.7270   -6.2989 H   0  0  0  0  0  0  0  0  0  0  0  0
   12.3321  -12.8722   -6.2570 H   0  0  0  0  0  0  0  0  0  0  0  0
   10.2325  -14.2864   -6.1676 H   0  0  0  0  0  0  0  0  0  0  0  0
    9.9982  -13.0110   -7.9767 H   0  0  0  0  0  0  0  0  0  0  0  0
   10.3377  -12.5356  -10.3983 H   0  0  0  0  0  0  0  0  0  0  0  0
   12.6946  -16.1316  -10.7722 H   0  0  0  0  0  0  0  0  0  0  0  0
   12.3755  -16.6075   -8.3462 H   0  0  0  0  0  0  0  0  0  0  0  0
    6.1860  -14.6173   -5.2462 H   0  0  0  0  0  0  0  0  0  0  0  0
    5.4887  -12.2637   -8.8021 H   0  0  0  0  0  0  0  0  0  0  0  0
    8.0492  -15.7373   -8.9854 H   0  0  0  0  0  0  0  0  0  0  0  0
  1  2  1  0
  2  3  1  0
  3  4  1  0
  4  5  1  0
  5  6  1  0
  6  7  1  0
  7  8  1  0
  8  9  1  0
  9 10  1  0
 10 11  2  0
 11 12  1  0
 12 13  2  0
 12 14  1  0
 14 15  1  0
 15 16  2  0
 15 17  1  0
 15 18  1  0
 14 19  1  0
  8 20  1  0
 20 21  1  0
 21 22  2  0
 22 23  1  0
 23 24  2  0
 24 25  1  0
 24 26  1  0
 26 27  2  0
  2 28  1  0
 28 29  2  0
 29 30  1  0
 30 31  1  0
 31 32  1  0
 31 33  1  0
 31 34  1  0
 30 35  2  0
 35 36  1  0
 36 37  1  0
 37 38  1  0
 37 39  1  0
 37 40  1  0
 36 41  2  0
 20  4  1  0
 27 21  1  0
 41 28  1  0
 19 10  1  0
  1 42  1  0
  1 43  1  0
  1 44  1  0
  2 45  1  1
  4 46  1  1
  6 47  1  0
  6 48  1  0
  7 49  1  0
  7 50  1  0
  8 51  1  0
  9 52  1  0
  9 53  1  0
 20 54  1  1
 22 55  1  0
 23 56  1  0
 26 57  1  0
 27 58  1  0
 29 59  1  0
 35 60  1  0
 41 61  1  0
M  CHG  4   8   1  17  -1  18  -1  19  -1
M  END
>  <meeko>  (5) 
{"is_sidechain": [false], "free_energy": -7.961, "intermolecular_energy": -12.457, "internal_energy": -2.904}

$$$$
LIB_BARDROPHSZEBKC__M_PUB_ALL__e8__s20260927
     RDKit          3D

 61 64  0  0  0  0  0  0  0  0999 V2000
   -0.2950  -13.9150    5.4500 C   0  0  0  0  0  0  0  0  0  0  0  0
    0.0920  -14.0400    3.9750 C   0  0  1  0  0  0  0  0  0  0  0  0
   -0.0310  -15.4270    3.6240 O   0  0  0  0  0  0  0  0  0  0  0  0
    1.2500  -16.0450    3.3930 C   0  0  1  0  0  0  0  0  0  0  0  0
    1.0060  -17.4870    3.3570 O   0  0  0  0  0  0  0  0  0  0  0  0
    2.2630  -18.1750    3.2890 C   0  0  0  0  0  0  0  0  0  0  0  0
    3.0020  -17.8850    1.9770 C   0  0  0  0  0  0  0  0  0  0  0  0
    3.1770  -16.4380    1.7650 N   0  0  0  0  0  0  0  0  0  0  0  0
    4.0790  -16.0150    0.6310 C   0  0  0  0  0  0  0  0  0  0  0  0
    4.4550  -14.5910    0.8640 C   0  0  0  0  0  0  0  0  0  0  0  0
    5.1440  -14.1570    1.8730 N   0  0  0  0  0  0  0  0  0  0  0  0
    5.8470  -13.0650    1.3620 C   0  0  0  0  0  0  0  0  0  0  0  0
    6.4170  -12.2190    2.0410 O   0  0  0  0  0  0  0  0  0  0  0  0
    5.6370  -13.0410   -0.0470 N   0  0  0  0  0  0  0  0  0  0  0  0
    7.0360  -13.8400   -0.8600 P   0  0  0  0  0  0  0  0  0  0  0  0
    6.3640  -14.7170   -1.9310 O   0  0  0  0  0  0  0  0  0  0  0  0
    7.8960  -12.7270   -1.4090 O   0  0  0  0  0  0  0  0  0  0  0  0
    7.6720  -14.7470    0.1760 O   0  0  0  0  0  0  0  0  0  0  0  0
    4.3580  -13.8180   -0.2090 N   0  0  0  0  0  0  0  0  0  0  0  0
    1.9530  -15.5670    2.0480 C   0  0  1  0  0  0  0  0  0  0  0  0
    1.0100  -15.5150    0.8260 C   0  0  0  0  0  0  0  0  0  0  0  0
    0.9180  -14.3130    0.0920 C   0  0  0  0  0  0  0  0  0  0  0  0
    0.0930  -14.2110   -1.0290 C   0  0  0  0  0  0  0  0  0  0  0  0
   -0.6520  -15.3110   -1.4270 C   0  0  0  0  0  0  0  0  0  0  0  0
   -1.4480  -15.2200   -2.5020 F   0  0  0  0  0  0  0  0  0  0  0  0
   -0.5860  -16.5080   -0.7250 C   0  0  0  0  0  0  0  0  0  0  0  0
    0.2440  -16.6110    0.3940 C   0  0  0  0  0  0  0  0  0  0  0  0
   -0.8440  -13.2150    3.1100 C   0  0  0  0  0  0  0  0  0  0  0  0
   -1.7540  -13.8530    2.2510 C   0  0  0  0  0  0  0  0  0  0  0  0
   -2.6240  -13.1120    1.4410 C   0  0  0  0  0  0  0  0  0  0  0  0
   -3.6010  -13.7940    0.5100 C   0  0  0  0  0  0  0  0  0  0  0  0
   -3.4340  -13.3460   -0.7780 F   0  0  0  0  0  0  0  0  0  0  0  0
   -3.4690  -15.1410    0.4240 F   0  0  0  0  0  0  0  0  0  0  0  0
   -4.9010  -13.5180    0.7990 F   0  0  0  0  0  0  0  0  0  0  0  0
   -2.5940  -11.7080    1.5220 C   0  0  0  0  0  0  0  0  0  0  0  0
   -1.7070  -11.0460    2.3860 C   0  0  0  0  0  0  0  0  0  0  0  0
   -1.6920   -9.5430    2.4580 C   0  0  0  0  0  0  0  0  0  0  0  0
   -2.6770   -8.9390    1.7340 F   0  0  0  0  0  0  0  0  0  0  0  0
   -0.5230   -8.9960    2.0160 F   0  0  0  0  0  0  0  0  0  0  0  0
   -1.8460   -9.0850    3.7340 F   0  0  0  0  0  0  0  0  0  0  0  0
   -0.8280  -11.8100    3.1630 C   0  0  0  0  0  0  0  0  0  0  0  0
    0.5636  -14.1923    6.0791 H   0  0  0  0  0  0  0  0  0  0  0  0
   -0.5874  -12.8767    5.6656 H   0  0  0  0  0  0  0  0  0  0  0  0
   -1.1395  -14.5861    5.6656 H   0  0  0  0  0  0  0  0  0  0  0  0
    1.1169  -13.6743    3.8142 H   0  0  0  0  0  0  0  0  0  0  0  0
    1.9443  -15.7551    4.1954 H   0  0  0  0  0  0  0  0  0  0  0  0
    2.8922  -17.8507    4.1310 H   0  0  0  0  0  0  0  0  0  0  0  0
    2.0637  -19.2557    3.3369 H   0  0  0  0  0  0  0  0  0  0  0  0
    3.9918  -18.3637    2.0109 H   0  0  0  0  0  0  0  0  0  0  0  0
    2.4018  -18.2855    1.1468 H   0  0  0  0  0  0  0  0  0  0  0  0
    3.7820  -16.1610    2.6230 H   0  0  0  0  0  0  0  0  0  0  0  0
    4.9814  -16.6438    0.6145 H   0  0  0  0  0  0  0  0  0  0  0  0
    3.5649  -16.1267   -0.3350 H   0  0  0  0  0  0  0  0  0  0  0  0
    2.2665  -14.5253    2.2112 H   0  0  0  0  0  0  0  0  0  0  0  0
    1.5076  -13.4403    0.4094 H   0  0  0  0  0  0  0  0  0  0  0  0
    0.0342  -13.2674   -1.5914 H   0  0  0  0  0  0  0  0  0  0  0  0
   -1.1852  -17.3717   -1.0491 H   0  0  0  0  0  0  0  0  0  0  0  0
    0.2986  -17.5621    0.9439 H   0  0  0  0  0  0  0  0  0  0  0  0
   -1.7839  -14.9520    2.2138 H   0  0  0  0  0  0  0  0  0  0  0  0
   -3.2789  -11.1171    0.8961 H   0  0  0  0  0  0  0  0  0  0  0  0
   -0.1124  -11.3023    3.8265 H   0  0  0  0  0  0  0  0  0  0  0  0
  1  2  1  0
  2  3  1  0
  3  4  1  0
  4  5  1  0
  5  6  1  0
  6  7  1  0
  7  8  1  0
  8  9  1  0
  9 10  1  0
 10 11  2  0
 11 12  1  0
 12 13  2  0
 12 14  1  0
 14 15  1  0
 15 16  2  0
 15 17  1  0
 15 18  1  0
 14 19  1  0
  8 20  1  0
 20 21  1  0
 21 22  2  0
 22 23  1  0
 23 24  2  0
 24 25  1  0
 24 26  1  0
 26 27  2  0
  2 28  1  0
 28 29  2  0
 29 30  1  0
 30 31  1  0
 31 32  1  0
 31 33  1  0
 31 34  1  0
 30 35  2  0
 35 36  1  0
 36 37  1  0
 37 38  1  0
 37 39  1  0
 37 40  1  0
 36 41  2  0
 20  4  1  0
 27 21  1  0
 41 28  1  0
 19 10  1  0
  1 42  1  0
  1 43  1  0
  1 44  1  0
  2 45  1  1
  4 46  1  1
  6 47  1  0
  6 48  1  0
  7 49  1  0
  7 50  1  0
  8 51  1  0
  9 52  1  0
  9 53  1  0
 20 54  1  1
 22 55  1  0
 23 56  1  0
 26 57  1  0
 27 58  1  0
 29 59  1  0
 35 60  1  0
 41 61  1  0
M  CHG  4   8   1  17  -1  18  -1  19  -1
M  END
>  <meeko>  (6) 
{"is_sidechain": [false], "free_energy": -7.956, "intermolecular_energy": -12.055, "internal_energy": -3.298}

$$$$
LIB_BARDROPHSZEBKC__M_PUB_ALL__e8__s20260927
     RDKit          3D

 61 64  0  0  0  0  0  0  0  0999 V2000
    2.7520  -14.7090    1.1820 C   0  0  0  0  0  0  0  0  0  0  0  0
    3.6130  -13.9860    0.1440 C   0  0  1  0  0  0  0  0  0  0  0  0
    3.9030  -14.9330   -0.8960 O   0  0  0  0  0  0  0  0  0  0  0  0
    5.2530  -15.4320   -0.8160 C   0  0  1  0  0  0  0  0  0  0  0  0
    5.2090  -16.8070   -1.3120 O   0  0  0  0  0  0  0  0  0  0  0  0
    6.4900  -17.4210   -1.1140 C   0  0  0  0  0  0  0  0  0  0  0  0
    7.5800  -16.7490   -1.9570 C   0  0  0  0  0  0  0  0  0  0  0  0
    7.6420  -15.3000   -1.7050 N   0  0  0  0  0  0  0  0  0  0  0  0
    8.8100  -14.5500   -2.2970 C   0  0  0  0  0  0  0  0  0  0  0  0
    9.5050  -13.8470   -1.1800 C   0  0  0  0  0  0  0  0  0  0  0  0
   10.3540  -14.3950   -0.3670 N   0  0  0  0  0  0  0  0  0  0  0  0
   11.2320  -13.3600   -0.0410 C   0  0  0  0  0  0  0  0  0  0  0  0
   12.0270  -13.3840    0.8920 O   0  0  0  0  0  0  0  0  0  0  0  0
   10.9140  -12.2500   -0.8750 N   0  0  0  0  0  0  0  0  0  0  0  0
   12.0330  -12.2450   -2.2910 P   0  0  0  0  0  0  0  0  0  0  0  0
   12.6270  -13.6640   -2.2720 O   0  0  0  0  0  0  0  0  0  0  0  0
   11.1800  -11.9380   -3.4990 O   0  0  0  0  0  0  0  0  0  0  0  0
   13.1340  -11.2560   -1.9630 O   0  0  0  0  0  0  0  0  0  0  0  0
    9.4880  -12.5250   -1.2710 N   0  0  0  0  0  0  0  0  0  0  0  0
    6.2980  -14.5730   -1.6520 C   0  0  1  0  0  0  0  0  0  0  0  0
    5.8130  -14.1900   -3.0680 C   0  0  0  0  0  0  0  0  0  0  0  0
    6.3520  -13.0390   -3.6800 C   0  0  0  0  0  0  0  0  0  0  0  0
    5.9620  -12.6510   -4.9640 C   0  0  0  0  0  0  0  0  0  0  0  0
    5.0250  -13.4120   -5.6470 C   0  0  0  0  0  0  0  0  0  0  0  0
    4.6440  -13.0450   -6.8780 F   0  0  0  0  0  0  0  0  0  0  0  0
    4.4730  -14.5490   -5.0710 C   0  0  0  0  0  0  0  0  0  0  0  0
    4.8680  -14.9390   -3.7880 C   0  0  0  0  0  0  0  0  0  0  0  0
    2.8570  -12.8080   -0.4420 C   0  0  0  0  0  0  0  0  0  0  0  0
    3.1420  -12.3670   -1.7450 C   0  0  0  0  0  0  0  0  0  0  0  0
    2.4600  -11.2790   -2.3060 C   0  0  0  0  0  0  0  0  0  0  0  0
    2.7680  -10.7970   -3.7050 C   0  0  0  0  0  0  0  0  0  0  0  0
    2.2010   -9.5660   -3.9290 F   0  0  0  0  0  0  0  0  0  0  0  0
    4.0850  -10.6210   -3.9770 F   0  0  0  0  0  0  0  0  0  0  0  0
    2.2430  -11.5930   -4.6750 F   0  0  0  0  0  0  0  0  0  0  0  0
    1.4580  -10.6470   -1.5500 C   0  0  0  0  0  0  0  0  0  0  0  0
    1.1400  -11.0780   -0.2510 C   0  0  0  0  0  0  0  0  0  0  0  0
    0.0630  -10.3880    0.5400 C   0  0  0  0  0  0  0  0  0  0  0  0
   -1.1490  -10.3440   -0.0850 F   0  0  0  0  0  0  0  0  0  0  0  0
    0.3670   -9.0930    0.8450 F   0  0  0  0  0  0  0  0  0  0  0  0
   -0.1690  -10.9960    1.7390 F   0  0  0  0  0  0  0  0  0  0  0  0
    1.8570  -12.1500    0.2950 C   0  0  0  0  0  0  0  0  0  0  0  0
    3.0844  -14.4298    2.1927 H   0  0  0  0  0  0  0  0  0  0  0  0
    1.6987  -14.4206    1.0497 H   0  0  0  0  0  0  0  0  0  0  0  0
    2.8539  -15.7963    1.0497 H   0  0  0  0  0  0  0  0  0  0  0  0
    4.5347  -13.6044    0.6076 H   0  0  0  0  0  0  0  0  0  0  0  0
    5.6030  -15.3710    0.2250 H   0  0  0  0  0  0  0  0  0  0  0  0
    6.7623  -17.3417   -0.0512 H   0  0  0  0  0  0  0  0  0  0  0  0
    6.4166  -18.4733   -1.4260 H   0  0  0  0  0  0  0  0  0  0  0  0
    8.5527  -17.1971   -1.7061 H   0  0  0  0  0  0  0  0  0  0  0  0
    7.3389  -16.9041   -3.0190 H   0  0  0  0  0  0  0  0  0  0  0  0
    7.8910  -15.2690   -0.6490 H   0  0  0  0  0  0  0  0  0  0  0  0
    9.5002  -15.2543   -2.7845 H   0  0  0  0  0  0  0  0  0  0  0  0
    8.4643  -13.8291   -3.0525 H   0  0  0  0  0  0  0  0  0  0  0  0
    6.4127  -13.6161   -1.1217 H   0  0  0  0  0  0  0  0  0  0  0  0
    7.0935  -12.4356   -3.1358 H   0  0  0  0  0  0  0  0  0  0  0  0
    6.3933  -11.7519   -5.4283 H   0  0  0  0  0  0  0  0  0  0  0  0
    3.7275  -15.1406   -5.6226 H   0  0  0  0  0  0  0  0  0  0  0  0
    4.4335  -15.8433   -3.3370 H   0  0  0  0  0  0  0  0  0  0  0  0
    3.9132  -12.8843   -2.3346 H   0  0  0  0  0  0  0  0  0  0  0  0
    0.9112   -9.7971   -1.9843 H   0  0  0  0  0  0  0  0  0  0  0  0
    1.6336  -12.4832    1.3192 H   0  0  0  0  0  0  0  0  0  0  0  0
  1  2  1  0
  2  3  1  0
  3  4  1  0
  4  5  1  0
  5  6  1  0
  6  7  1  0
  7  8  1  0
  8  9  1  0
  9 10  1  0
 10 11  2  0
 11 12  1  0
 12 13  2  0
 12 14  1  0
 14 15  1  0
 15 16  2  0
 15 17  1  0
 15 18  1  0
 14 19  1  0
  8 20  1  0
 20 21  1  0
 21 22  2  0
 22 23  1  0
 23 24  2  0
 24 25  1  0
 24 26  1  0
 26 27  2  0
  2 28  1  0
 28 29  2  0
 29 30  1  0
 30 31  1  0
 31 32  1  0
 31 33  1  0
 31 34  1  0
 30 35  2  0
 35 36  1  0
 36 37  1  0
 37 38  1  0
 37 39  1  0
 37 40  1  0
 36 41  2  0
 20  4  1  0
 27 21  1  0
 41 28  1  0
 19 10  1  0
  1 42  1  0
  1 43  1  0
  1 44  1  0
  2 45  1  1
  4 46  1  1
  6 47  1  0
  6 48  1  0
  7 49  1  0
  7 50  1  0
  8 51  1  0
  9 52  1  0
  9 53  1  0
 20 54  1  1
 22 55  1  0
 23 56  1  0
 26 57  1  0
 27 58  1  0
 29 59  1  0
 35 60  1  0
 41 61  1  0
M  CHG  4   8   1  17  -1  18  -1  19  -1
M  END
>  <meeko>  (7) 
{"is_sidechain": [false], "free_energy": -7.872, "intermolecular_energy": -13.045, "internal_energy": -2.181}

$$$$
LIB_BARDROPHSZEBKC__M_PUB_ALL__e8__s20260927
     RDKit          3D

 61 64  0  0  0  0  0  0  0  0999 V2000
    6.8560  -17.6500   -6.2760 C   0  0  0  0  0  0  0  0  0  0  0  0
    7.7600  -16.4180   -6.1890 C   0  0  1  0  0  0  0  0  0  0  0  0
    9.0020  -16.7600   -6.8220 O   0  0  0  0  0  0  0  0  0  0  0  0
   10.1390  -16.4630   -5.9880 C   0  0  1  0  0  0  0  0  0  0  0  0
   11.0600  -17.5880   -6.1390 O   0  0  0  0  0  0  0  0  0  0  0  0
   12.1450  -17.4360   -5.2130 C   0  0  0  0  0  0  0  0  0  0  0  0
   12.9980  -16.2030   -5.5320 C   0  0  0  0  0  0  0  0  0  0  0  0
   12.1790  -14.9810   -5.5950 N   0  0  0  0  0  0  0  0  0  0  0  0
   12.9160  -13.6660   -5.6810 C   0  0  0  0  0  0  0  0  0  0  0  0
   13.2200  -13.2320   -4.2870 C   0  0  0  0  0  0  0  0  0  0  0  0
   13.4200  -12.0060   -3.9140 N   0  0  0  0  0  0  0  0  0  0  0  0
   12.9450  -11.9660   -2.6020 C   0  0  0  0  0  0  0  0  0  0  0  0
   13.1750  -11.0680   -1.8010 O   0  0  0  0  0  0  0  0  0  0  0  0
   12.3020  -13.2100   -2.3410 N   0  0  0  0  0  0  0  0  0  0  0  0
   10.5250  -13.0120   -2.5900 P   0  0  0  0  0  0  0  0  0  0  0  0
   10.4330  -11.7560   -3.4730 O   0  0  0  0  0  0  0  0  0  0  0  0
   10.0500  -14.2830   -3.2530 O   0  0  0  0  0  0  0  0  0  0  0  0
    9.9360  -12.6900   -1.2310 O   0  0  0  0  0  0  0  0  0  0  0  0
   12.9250  -14.1300   -3.3570 N   0  0  0  0  0  0  0  0  0  0  0  0
   10.8630  -15.0980   -6.3630 C   0  0  1  0  0  0  0  0  0  0  0  0
   11.0790  -14.8920   -7.8790 C   0  0  0  0  0  0  0  0  0  0  0  0
   10.5770  -13.7200   -8.4820 C   0  0  0  0  0  0  0  0  0  0  0  0
   10.7540  -13.4740   -9.8450 C   0  0  0  0  0  0  0  0  0  0  0  0
   11.4340  -14.4020  -10.6190 C   0  0  0  0  0  0  0  0  0  0  0  0
   11.6060  -14.1740  -11.9290 F   0  0  0  0  0  0  0  0  0  0  0  0
   11.9390  -15.5670  -10.0560 C   0  0  0  0  0  0  0  0  0  0  0  0
   11.7660  -15.8100   -8.6910 C   0  0  0  0  0  0  0  0  0  0  0  0
    7.1270  -15.2450   -6.9170 C   0  0  0  0  0  0  0  0  0  0  0  0
    7.3650  -15.0580   -8.2880 C   0  0  0  0  0  0  0  0  0  0  0  0
    6.7950  -13.9810   -8.9800 C   0  0  0  0  0  0  0  0  0  0  0  0
    7.0540  -13.7720  -10.4550 C   0  0  0  0  0  0  0  0  0  0  0  0
    7.6570  -12.5570  -10.6730 F   0  0  0  0  0  0  0  0  0  0  0  0
    7.8880  -14.6750  -11.0270 F   0  0  0  0  0  0  0  0  0  0  0  0
    5.9160  -13.7230  -11.1980 F   0  0  0  0  0  0  0  0  0  0  0  0
    5.9510  -13.0990   -8.2830 C   0  0  0  0  0  0  0  0  0  0  0  0
    5.6820  -13.2740   -6.9150 C   0  0  0  0  0  0  0  0  0  0  0  0
    4.7750  -12.3190   -6.1890 C   0  0  0  0  0  0  0  0  0  0  0  0
    5.3160  -11.7840   -5.0570 F   0  0  0  0  0  0  0  0  0  0  0  0
    3.5970  -12.8880   -5.8000 F   0  0  0  0  0  0  0  0  0  0  0  0
    4.4220  -11.2510   -6.9620 F   0  0  0  0  0  0  0  0  0  0  0  0
    6.2880  -14.3420   -6.2410 C   0  0  0  0  0  0  0  0  0  0  0  0
    6.6046  -17.9927   -5.2614 H   0  0  0  0  0  0  0  0  0  0  0  0
    5.9328  -17.3900   -6.8145 H   0  0  0  0  0  0  0  0  0  0  0  0
    7.3810  -18.4527   -6.8145 H   0  0  0  0  0  0  0  0  0  0  0  0
    7.9127  -16.1270   -5.1392 H   0  0  0  0  0  0  0  0  0  0  0  0
    9.8035  -16.3303   -4.9489 H   0  0  0  0  0  0  0  0  0  0  0  0
   11.7346  -17.3319   -4.1978 H   0  0  0  0  0  0  0  0  0  0  0  0
   12.7876  -18.3254   -5.2907 H   0  0  0  0  0  0  0  0  0  0  0  0
   13.7596  -16.0827   -4.7474 H   0  0  0  0  0  0  0  0  0  0  0  0
   13.4683  -16.3540   -6.5149 H   0  0  0  0  0  0  0  0  0  0  0  0
   11.7820  -14.9300   -4.5870 H   0  0  0  0  0  0  0  0  0  0  0  0
   13.8506  -13.7953   -6.2466 H   0  0  0  0  0  0  0  0  0  0  0  0
   12.3045  -12.9116   -6.1976 H   0  0  0  0  0  0  0  0  0  0  0  0
   10.1823  -14.2887   -6.0601 H   0  0  0  0  0  0  0  0  0  0  0  0
   10.0359  -12.9859   -7.8669 H   0  0  0  0  0  0  0  0  0  0  0  0
   10.3583  -12.5539  -10.2998 H   0  0  0  0  0  0  0  0  0  0  0  0
   12.4735  -16.2960  -10.6828 H   0  0  0  0  0  0  0  0  0  0  0  0
   12.1724  -16.7307   -8.2469 H   0  0  0  0  0  0  0  0  0  0  0  0
    8.0090  -15.7681   -8.8274 H   0  0  0  0  0  0  0  0  0  0  0  0
    5.4921  -12.2552   -8.8191 H   0  0  0  0  0  0  0  0  0  0  0  0
    6.1043  -14.4764   -5.1648 H   0  0  0  0  0  0  0  0  0  0  0  0
  1  2  1  0
  2  3  1  0
  3  4  1  0
  4  5  1  0
  5  6  1  0
  6  7  1  0
  7  8  1  0
  8  9  1  0
  9 10  1  0
 10 11  2  0
 11 12  1  0
 12 13  2  0
 12 14  1  0
 14 15  1  0
 15 16  2  0
 15 17  1  0
 15 18  1  0
 14 19  1  0
  8 20  1  0
 20 21  1  0
 21 22  2  0
 22 23  1  0
 23 24  2  0
 24 25  1  0
 24 26  1  0
 26 27  2  0
  2 28  1  0
 28 29  2  0
 29 30  1  0
 30 31  1  0
 31 32  1  0
 31 33  1  0
 31 34  1  0
 30 35  2  0
 35 36  1  0
 36 37  1  0
 37 38  1  0
 37 39  1  0
 37 40  1  0
 36 41  2  0
 20  4  1  0
 27 21  1  0
 41 28  1  0
 19 10  1  0
  1 42  1  0
  1 43  1  0
  1 44  1  0
  2 45  1  1
  4 46  1  1
  6 47  1  0
  6 48  1  0
  7 49  1  0
  7 50  1  0
  8 51  1  0
  9 52  1  0
  9 53  1  0
 20 54  1  1
 22 55  1  0
 23 56  1  0
 26 57  1  0
 27 58  1  0
 29 59  1  0
 35 60  1  0
 41 61  1  0
M  CHG  4   8   1  17  -1  18  -1  19  -1
M  END
>  <meeko>  (8) 
{"is_sidechain": [false], "free_energy": -7.865, "intermolecular_energy": -12.436, "internal_energy": -2.779}

$$$$
LIB_BARDROPHSZEBKC__M_PUB_ALL__e8__s20260927
     RDKit          3D

 61 64  0  0  0  0  0  0  0  0999 V2000
    5.7750  -16.3690   -4.6210 C   0  0  0  0  0  0  0  0  0  0  0  0
    5.1530  -15.9210   -3.2960 C   0  0  1  0  0  0  0  0  0  0  0  0
    6.0040  -16.4060   -2.2460 O   0  0  0  0  0  0  0  0  0  0  0  0
    5.2800  -17.1860   -1.2750 C   0  0  1  0  0  0  0  0  0  0  0  0
    6.2890  -17.8610   -0.4600 O   0  0  0  0  0  0  0  0  0  0  0  0
    5.6390  -18.7810    0.4270 C   0  0  0  0  0  0  0  0  0  0  0  0
    4.7500  -18.0590    1.4470 C   0  0  0  0  0  0  0  0  0  0  0  0
    3.7720  -17.1800    0.7840 N   0  0  0  0  0  0  0  0  0  0  0  0
    2.6910  -16.5800    1.6510 C   0  0  0  0  0  0  0  0  0  0  0  0
    1.4460  -17.3690    1.4250 C   0  0  0  0  0  0  0  0  0  0  0  0
    0.3930  -17.3350    2.1810 N   0  0  0  0  0  0  0  0  0  0  0  0
   -0.6660  -17.5670    1.3030 C   0  0  0  0  0  0  0  0  0  0  0  0
   -1.8050  -17.8660    1.6430 O   0  0  0  0  0  0  0  0  0  0  0  0
   -0.1380  -17.5500   -0.0200 N   0  0  0  0  0  0  0  0  0  0  0  0
   -0.4020  -15.9130   -0.7330 P   0  0  0  0  0  0  0  0  0  0  0  0
   -0.8480  -15.0730    0.4760 O   0  0  0  0  0  0  0  0  0  0  0  0
    0.9200  -15.4980   -1.3330 O   0  0  0  0  0  0  0  0  0  0  0  0
   -1.5730  -16.0460   -1.6870 O   0  0  0  0  0  0  0  0  0  0  0  0
    1.3200  -17.8540    0.1970 N   0  0  0  0  0  0  0  0  0  0  0  0
    4.3120  -16.3190   -0.3580 C   0  0  1  0  0  0  0  0  0  0  0  0
    4.9470  -15.0160    0.1770 C   0  0  0  0  0  0  0  0  0  0  0  0
    4.1830  -13.8310    0.1530 C   0  0  0  0  0  0  0  0  0  0  0  0
    4.6990  -12.6260    0.6350 C   0  0  0  0  0  0  0  0  0  0  0  0
    5.9890  -12.5960    1.1440 C   0  0  0  0  0  0  0  0  0  0  0  0
    6.4920  -11.4430    1.6070 F   0  0  0  0  0  0  0  0  0  0  0  0
    6.7680  -13.7450    1.1800 C   0  0  0  0  0  0  0  0  0  0  0  0
    6.2490  -14.9510    0.7020 C   0  0  0  0  0  0  0  0  0  0  0  0
    5.0820  -14.4060   -3.2310 C   0  0  0  0  0  0  0  0  0  0  0  0
    3.8880  -13.7430   -3.5610 C   0  0  0  0  0  0  0  0  0  0  0  0
    3.8000  -12.3450   -3.5110 C   0  0  0  0  0  0  0  0  0  0  0  0
    2.5200  -11.6270   -3.8710 C   0  0  0  0  0  0  0  0  0  0  0  0
    2.7890  -10.4940   -4.5990 F   0  0  0  0  0  0  0  0  0  0  0  0
    1.6610  -12.3350   -4.6470 F   0  0  0  0  0  0  0  0  0  0  0  0
    1.8320  -11.1790   -2.7870 F   0  0  0  0  0  0  0  0  0  0  0  0
    4.9250  -11.6110   -3.0960 C   0  0  0  0  0  0  0  0  0  0  0  0
    6.1250  -12.2500   -2.7430 C   0  0  0  0  0  0  0  0  0  0  0  0
    7.3160  -11.4440   -2.3000 C   0  0  0  0  0  0  0  0  0  0  0  0
    8.1230  -11.0310   -3.3190 F   0  0  0  0  0  0  0  0  0  0  0  0
    8.1290  -12.1190   -1.4370 F   0  0  0  0  0  0  0  0  0  0  0  0
    6.9540  -10.3070   -1.6390 F   0  0  0  0  0  0  0  0  0  0  0  0
    6.1950  -13.6460   -2.8290 C   0  0  0  0  0  0  0  0  0  0  0  0
    6.6524  -17.0010   -4.4190 H   0  0  0  0  0  0  0  0  0  0  0  0
    5.0349  -16.9428   -5.1981 H   0  0  0  0  0  0  0  0  0  0  0  0
    6.0847  -15.4852   -5.1981 H   0  0  0  0  0  0  0  0  0  0  0  0
    4.1309  -16.3155   -3.1977 H   0  0  0  0  0  0  0  0  0  0  0  0
    4.6185  -17.8938   -1.7960 H   0  0  0  0  0  0  0  0  0  0  0  0
    5.0158  -19.4667   -0.1658 H   0  0  0  0  0  0  0  0  0  0  0  0
    6.4162  -19.3296    0.9794 H   0  0  0  0  0  0  0  0  0  0  0  0
    4.2098  -18.8085    2.0441 H   0  0  0  0  0  0  0  0  0  0  0  0
    5.3937  -17.4380    2.0873 H   0  0  0  0  0  0  0  0  0  0  0  0
    3.1970  -17.8910    0.2000 H   0  0  0  0  0  0  0  0  0  0  0  0
    2.9843  -16.6361    2.7097 H   0  0  0  0  0  0  0  0  0  0  0  0
    2.5313  -15.5222    1.3948 H   0  0  0  0  0  0  0  0  0  0  0  0
    3.4827  -15.9892   -1.0010 H   0  0  0  0  0  0  0  0  0  0  0  0
    3.1610  -13.8562   -0.2531 H   0  0  0  0  0  0  0  0  0  0  0  0
    4.0892  -11.7108    0.6112 H   0  0  0  0  0  0  0  0  0  0  0  0
    7.7905  -13.7058    1.5836 H   0  0  0  0  0  0  0  0  0  0  0  0
    6.8669  -15.8604    0.7370 H   0  0  0  0  0  0  0  0  0  0  0  0
    3.0084  -14.3303   -3.8634 H   0  0  0  0  0  0  0  0  0  0  0  0
    4.8642  -10.5138   -3.0467 H   0  0  0  0  0  0  0  0  0  0  0  0
    7.1363  -14.1567   -2.5779 H   0  0  0  0  0  0  0  0  0  0  0  0
  1  2  1  0
  2  3  1  0
  3  4  1  0
  4  5  1  0
  5  6  1  0
  6  7  1  0
  7  8  1  0
  8  9  1  0
  9 10  1  0
 10 11  2  0
 11 12  1  0
 12 13  2  0
 12 14  1  0
 14 15  1  0
 15 16  2  0
 15 17  1  0
 15 18  1  0
 14 19  1  0
  8 20  1  0
 20 21  1  0
 21 22  2  0
 22 23  1  0
 23 24  2  0
 24 25  1  0
 24 26  1  0
 26 27  2  0
  2 28  1  0
 28 29  2  0
 29 30  1  0
 30 31  1  0
 31 32  1  0
 31 33  1  0
 31 34  1  0
 30 35  2  0
 35 36  1  0
 36 37  1  0
 37 38  1  0
 37 39  1  0
 37 40  1  0
 36 41  2  0
 20  4  1  0
 27 21  1  0
 41 28  1  0
 19 10  1  0
  1 42  1  0
  1 43  1  0
  1 44  1  0
  2 45  1  1
  4 46  1  6
  6 47  1  0
  6 48  1  0
  7 49  1  0
  7 50  1  0
  8 51  1  0
  9 52  1  0
  9 53  1  0
 20 54  1  6
 22 55  1  0
 23 56  1  0
 26 57  1  0
 27 58  1  0
 29 59  1  0
 35 60  1  0
 41 61  1  0
M  CHG  4   8   1  17  -1  18  -1  19  -1
M  END
>  <meeko>  (9) 
{"is_sidechain": [false], "free_energy": -7.807, "intermolecular_energy": -11.512, "internal_energy": -3.615}

$$$$
