LIB_IKENVDNFQMCRTR__M_PUB_ALL__e8__s20260927
     RDKit          3D

 63 68  0  0  0  0  0  0  0  0999 V2000
   -1.6640   -9.6310    2.1520 C   0  0  0  0  0  0  0  0  0  0  0  0
   -1.2640  -11.0370    2.2900 C   0  0  0  0  0  0  0  0  0  0  0  0
   -0.8340  -11.6070    3.4320 N   0  0  0  0  0  0  0  0  0  0  0  0
   -0.5810  -12.9070    3.1420 C   0  0  0  0  0  0  0  0  0  0  0  0
   -0.8580  -13.1300    1.8010 C   0  0  0  0  0  0  0  0  0  0  0  0
   -1.3030  -11.9460    1.2970 N   0  0  0  0  0  0  0  0  0  0  0  0
   -0.7180  -14.4790    0.9710 C   0  0  0  0  0  0  0  0  0  0  0  0
   -1.0330  -14.3580   -0.3980 C   0  0  0  0  0  0  0  0  0  0  0  0
   -0.8940  -15.4290   -1.2740 C   0  0  0  0  0  0  0  0  0  0  0  0
   -0.4310  -16.6430   -0.7910 C   0  0  0  0  0  0  0  0  0  0  0  0
   -0.1170  -16.7770    0.5650 C   0  0  0  0  0  0  0  0  0  0  0  0
   -0.2500  -15.7120    1.4820 C   0  0  0  0  0  0  0  0  0  0  0  0
    0.0560  -15.9610    2.8730 N   0  0  0  0  0  0  0  0  0  0  0  0
   -0.3270  -17.1610    3.5050 C   0  0  0  0  0  0  0  0  0  0  0  0
    0.3850  -18.1220    3.7870 O   0  0  0  0  0  0  0  0  0  0  0  0
   -1.7300  -17.2840    3.9440 C   0  0  0  0  0  0  0  0  0  0  0  0
   -2.6310  -18.0660    3.2200 C   0  0  0  0  0  0  0  0  0  0  0  0
   -3.9810  -18.0770    3.5860 C   0  0  0  0  0  0  0  0  0  0  0  0
   -4.4220  -17.3200    4.6750 C   0  0  0  0  0  0  0  0  0  0  0  0
   -5.7750  -17.1610    5.0280 N   0  0  0  0  0  0  0  0  0  0  0  0
   -6.5090  -15.9930    5.0540 C   0  0  0  0  0  0  0  0  0  0  0  0
   -6.2170  -14.9210    4.5370 O   0  0  0  0  0  0  0  0  0  0  0  0
   -7.8120  -16.0970    5.7740 C   0  0  0  0  0  0  0  0  0  0  0  0
   -8.9480  -16.3140    4.9780 C   0  0  0  0  0  0  0  0  0  0  0  0
  -10.2070  -16.4400    5.5640 C   0  0  0  0  0  0  0  0  0  0  0  0
  -10.3380  -16.3390    6.9460 C   0  0  0  0  0  0  0  0  0  0  0  0
   -9.2140  -16.1030    7.7430 C   0  0  0  0  0  0  0  0  0  0  0  0
   -7.9300  -15.9690    7.1790 C   0  0  0  0  0  0  0  0  0  0  0  0
   -6.7890  -15.6800    8.0700 C   0  0  0  0  0  0  0  0  0  0  0  0
   -6.4150  -14.3570    8.3640 C   0  0  0  0  0  0  0  0  0  0  0  0
   -5.2910  -14.0880    9.1490 C   0  0  0  0  0  0  0  0  0  0  0  0
   -4.5300  -15.1340    9.6630 C   0  0  0  0  0  0  0  0  0  0  0  0
   -4.8980  -16.4520    9.4030 C   0  0  0  0  0  0  0  0  0  0  0  0
   -6.0210  -16.7230    8.6150 C   0  0  0  0  0  0  0  0  0  0  0  0
   -3.4900  -16.5970    5.4350 C   0  0  0  0  0  0  0  0  0  0  0  0
   -2.1430  -16.5840    5.0770 C   0  0  0  0  0  0  0  0  0  0  0  0
    0.7830  -14.8950    3.5900 C   0  0  0  0  0  0  0  0  0  0  0  0
   -0.1370  -13.8420    4.1820 C   0  0  0  0  0  0  0  0  0  0  0  0
   -1.7906   -9.1861    3.1500 H   0  0  0  0  0  0  0  0  0  0  0  0
   -0.8867   -9.0810    1.6013 H   0  0  0  0  0  0  0  0  0  0  0  0
   -2.6144   -9.5725    1.6013 H   0  0  0  0  0  0  0  0  0  0  0  0
   -1.3973  -13.3938   -0.7821 H   0  0  0  0  0  0  0  0  0  0  0  0
   -1.1485  -15.3141   -2.3380 H   0  0  0  0  0  0  0  0  0  0  0  0
   -0.3110  -17.4983   -1.4723 H   0  0  0  0  0  0  0  0  0  0  0  0
    0.2472  -17.7484    0.9308 H   0  0  0  0  0  0  0  0  0  0  0  0
   -2.2824  -18.6688    2.3685 H   0  0  0  0  0  0  0  0  0  0  0  0
   -4.6985  -18.6839    3.0144 H   0  0  0  0  0  0  0  0  0  0  0  0
   -6.2220  -17.9870    5.4060 H   0  0  0  0  0  0  0  0  0  0  0  0
   -8.8442  -16.3851    3.8852 H   0  0  0  0  0  0  0  0  0  0  0  0
  -11.0929  -16.6185    4.9368 H   0  0  0  0  0  0  0  0  0  0  0  0
  -11.3286  -16.4452    7.4123 H   0  0  0  0  0  0  0  0  0  0  0  0
   -9.3346  -16.0202    8.8332 H   0  0  0  0  0  0  0  0  0  0  0  0
   -7.0150  -13.5230    7.9710 H   0  0  0  0  0  0  0  0  0  0  0  0
   -5.0067  -13.0468    9.3614 H   0  0  0  0  0  0  0  0  0  0  0  0
   -3.6400  -14.9203   10.2731 H   0  0  0  0  0  0  0  0  0  0  0  0
   -4.3048  -17.2803    9.8178 H   0  0  0  0  0  0  0  0  0  0  0  0
   -6.3071  -17.7669    8.4191 H   0  0  0  0  0  0  0  0  0  0  0  0
   -3.8250  -16.0362    6.3200 H   0  0  0  0  0  0  0  0  0  0  0  0
   -1.4128  -16.0269    5.6824 H   0  0  0  0  0  0  0  0  0  0  0  0
    1.3615  -15.3532    4.4057 H   0  0  0  0  0  0  0  0  0  0  0  0
    1.4315  -14.3906    2.8585 H   0  0  0  0  0  0  0  0  0  0  0  0
   -1.0149  -14.3353    4.6245 H   0  0  0  0  0  0  0  0  0  0  0  0
    0.4116  -13.2825    4.9540 H   0  0  0  0  0  0  0  0  0  0  0  0
  1  2  1  0
  2  3  2  0
  3  4  1  0
  4  5  2  0
  5  6  1  0
  5  7  1  0
  7  8  2  0
  8  9  1  0
  9 10  2  0
 10 11  1  0
 11 12  2  0
 12 13  1  0
 13 14  1  0
 14 15  2  0
 14 16  1  0
 16 17  2  0
 17 18  1  0
 18 19  2  0
 19 20  1  0
 20 21  1  0
 21 22  2  0
 21 23  1  0
 23 24  2  0
 24 25  1  0
 25 26  2  0
 26 27  1  0
 27 28  2  0
 28 29  1  0
 29 30  2  0
 30 31  1  0
 31 32  2  0
 32 33  1  0
 33 34  2  0
 19 35  1  0
 35 36  2  0
 13 37  1  0
 37 38  1  0
  6  2  1  0
 12  7  1  0
 36 16  1  0
 38  4  1  0
 28 23  1  0
 34 29  1  0
  1 39  1  0
  1 40  1  0
  1 41  1  0
  8 42  1  0
  9 43  1  0
 10 44  1  0
 11 45  1  0
 17 46  1  0
 18 47  1  0
 20 48  1  0
 24 49  1  0
 25 50  1  0
 26 51  1  0
 27 52  1  0
 30 53  1  0
 31 54  1  0
 32 55  1  0
 33 56  1  0
 34 57  1  0
 35 58  1  0
 36 59  1  0
 37 60  1  0
 37 61  1  0
 38 62  1  0
 38 63  1  0
M  CHG  1   6  -1
M  END
>  <meeko>  (1) 
{"is_sidechain": [false], "free_energy": -8.344, "intermolecular_energy": -12.735, "internal_energy": -1.478}

$$$$
LIB_IKENVDNFQMCRTR__M_PUB_ALL__e8__s20260927
     RDKit          3D

 63 68  0  0  0  0  0  0  0  0999 V2000
   -3.1640  -16.8650    3.3220 C   0  0  0  0  0  0  0  0  0  0  0  0
   -2.7760  -15.4930    2.9720 C   0  0  0  0  0  0  0  0  0  0  0  0
   -1.7480  -14.8180    3.5220 N   0  0  0  0  0  0  0  0  0  0  0  0
   -1.7190  -13.6030    2.9230 C   0  0  0  0  0  0  0  0  0  0  0  0
   -2.7490  -13.5360    1.9950 C   0  0  0  0  0  0  0  0  0  0  0  0
   -3.3820  -14.7400    2.0330 N   0  0  0  0  0  0  0  0  0  0  0  0
   -3.1450  -12.3270    1.0400 C   0  0  0  0  0  0  0  0  0  0  0  0
   -4.3060  -12.5480    0.2700 C   0  0  0  0  0  0  0  0  0  0  0  0
   -4.8250  -11.5620   -0.5630 C   0  0  0  0  0  0  0  0  0  0  0  0
   -4.1890  -10.3330   -0.6340 C   0  0  0  0  0  0  0  0  0  0  0  0
   -3.0360  -10.1010    0.1230 C   0  0  0  0  0  0  0  0  0  0  0  0
   -2.4800  -11.0810    0.9750 C   0  0  0  0  0  0  0  0  0  0  0  0
   -1.2600  -10.7630    1.6830 N   0  0  0  0  0  0  0  0  0  0  0  0
   -0.2040  -10.0750    1.0510 C   0  0  0  0  0  0  0  0  0  0  0  0
    0.2230   -8.9520    1.3120 O   0  0  0  0  0  0  0  0  0  0  0  0
    0.5330  -10.7830   -0.0120 C   0  0  0  0  0  0  0  0  0  0  0  0
    0.9310  -12.1090    0.1670 C   0  0  0  0  0  0  0  0  0  0  0  0
    1.7270  -12.7250   -0.8040 C   0  0  0  0  0  0  0  0  0  0  0  0
    2.1130  -12.0220   -1.9490 C   0  0  0  0  0  0  0  0  0  0  0  0
    3.0220  -12.5110   -2.9040 N   0  0  0  0  0  0  0  0  0  0  0  0
    4.2210  -11.9500   -3.2950 C   0  0  0  0  0  0  0  0  0  0  0  0
    4.8500  -11.0710   -2.7190 O   0  0  0  0  0  0  0  0  0  0  0  0
    4.7950  -12.5260   -4.5460 C   0  0  0  0  0  0  0  0  0  0  0  0
    4.4440  -11.8830   -5.7450 C   0  0  0  0  0  0  0  0  0  0  0  0
    4.9440  -12.3400   -6.9630 C   0  0  0  0  0  0  0  0  0  0  0  0
    5.7860  -13.4470   -6.9920 C   0  0  0  0  0  0  0  0  0  0  0  0
    6.1240  -14.1040   -5.8040 C   0  0  0  0  0  0  0  0  0  0  0  0
    5.6320  -13.6670   -4.5590 C   0  0  0  0  0  0  0  0  0  0  0  0
    5.9910  -14.4280   -3.3460 C   0  0  0  0  0  0  0  0  0  0  0  0
    5.2320  -15.5360   -2.9340 C   0  0  0  0  0  0  0  0  0  0  0  0
    5.5320  -16.2090   -1.7470 C   0  0  0  0  0  0  0  0  0  0  0  0
    6.6030  -15.7940   -0.9590 C   0  0  0  0  0  0  0  0  0  0  0  0
    7.3820  -14.7130   -1.3630 C   0  0  0  0  0  0  0  0  0  0  0  0
    7.0810  -14.0370   -2.5490 C   0  0  0  0  0  0  0  0  0  0  0  0
    1.6440  -10.7150   -2.1460 C   0  0  0  0  0  0  0  0  0  0  0  0
    0.8470  -10.0960   -1.1840 C   0  0  0  0  0  0  0  0  0  0  0  0
   -1.1800  -11.2000    3.0900 C   0  0  0  0  0  0  0  0  0  0  0  0
   -0.6810  -12.6200    3.2530 C   0  0  0  0  0  0  0  0  0  0  0  0
   -3.1936  -16.9697    4.4166 H   0  0  0  0  0  0  0  0  0  0  0  0
   -4.1588  -17.0822    2.9058 H   0  0  0  0  0  0  0  0  0  0  0  0
   -2.4303  -17.5710    2.9058 H   0  0  0  0  0  0  0  0  0  0  0  0
   -4.8128  -13.5225    0.3295 H   0  0  0  0  0  0  0  0  0  0  0  0
   -5.7295  -11.7557   -1.1582 H   0  0  0  0  0  0  0  0  0  0  0  0
   -4.5900   -9.5416   -1.2843 H   0  0  0  0  0  0  0  0  0  0  0  0
   -2.5442   -9.1196    0.0523 H   0  0  0  0  0  0  0  0  0  0  0  0
    0.6211  -12.6647    1.0643 H   0  0  0  0  0  0  0  0  0  0  0  0
    2.0508  -13.7672   -0.6662 H   0  0  0  0  0  0  0  0  0  0  0  0
    2.7010  -13.3110   -3.4360 H   0  0  0  0  0  0  0  0  0  0  0  0
    3.7705  -11.0136   -5.7222 H   0  0  0  0  0  0  0  0  0  0  0  0
    4.6738  -11.8273   -7.8979 H   0  0  0  0  0  0  0  0  0  0  0  0
    6.1869  -13.8066   -7.9512 H   0  0  0  0  0  0  0  0  0  0  0  0
    6.7879  -14.9802   -5.8432 H   0  0  0  0  0  0  0  0  0  0  0  0
    4.3904  -15.8782   -3.5541 H   0  0  0  0  0  0  0  0  0  0  0  0
    4.9211  -17.0685   -1.4340 H   0  0  0  0  0  0  0  0  0  0  0  0
    6.8327  -16.3189   -0.0200 H   0  0  0  0  0  0  0  0  0  0  0  0
    8.2353  -14.3905   -0.7482 H   0  0  0  0  0  0  0  0  0  0  0  0
    7.7055  -13.1876   -2.8629 H   0  0  0  0  0  0  0  0  0  0  0  0
    1.9071  -10.1739   -3.0669 H   0  0  0  0  0  0  0  0  0  0  0  0
    0.4697   -9.0758   -1.3480 H   0  0  0  0  0  0  0  0  0  0  0  0
   -0.4948  -10.5264    3.6255 H   0  0  0  0  0  0  0  0  0  0  0  0
   -2.2009  -11.1666    3.4981 H   0  0  0  0  0  0  0  0  0  0  0  0
    0.1800  -12.7737    2.5859 H   0  0  0  0  0  0  0  0  0  0  0  0
   -0.3959  -12.7638    4.3056 H   0  0  0  0  0  0  0  0  0  0  0  0
  1  2  1  0
  2  3  2  0
  3  4  1  0
  4  5  2  0
  5  6  1  0
  5  7  1  0
  7  8  2  0
  8  9  1  0
  9 10  2  0
 10 11  1  0
 11 12  2  0
 12 13  1  0
 13 14  1  0
 14 15  2  0
 14 16  1  0
 16 17  2  0
 17 18  1  0
 18 19  2  0
 19 20  1  0
 20 21  1  0
 21 22  2  0
 21 23  1  0
 23 24  2  0
 24 25  1  0
 25 26  2  0
 26 27  1  0
 27 28  2  0
 28 29  1  0
 29 30  2  0
 30 31  1  0
 31 32  2  0
 32 33  1  0
 33 34  2  0
 19 35  1  0
 35 36  2  0
 13 37  1  0
 37 38  1  0
  6  2  1  0
 12  7  1  0
 36 16  1  0
 38  4  1  0
 28 23  1  0
 34 29  1  0
  1 39  1  0
  1 40  1  0
  1 41  1  0
  8 42  1  0
  9 43  1  0
 10 44  1  0
 11 45  1  0
 17 46  1  0
 18 47  1  0
 20 48  1  0
 24 49  1  0
 25 50  1  0
 26 51  1  0
 27 52  1  0
 30 53  1  0
 31 54  1  0
 32 55  1  0
 33 56  1  0
 34 57  1  0
 35 58  1  0
 36 59  1  0
 37 60  1  0
 37 61  1  0
 38 62  1  0
 38 63  1  0
M  CHG  1   6  -1
M  END
>  <meeko>  (2) 
{"is_sidechain": [false], "free_energy": -8.008, "intermolecular_energy": -12.582, "internal_energy": -1.117}

$$$$
LIB_IKENVDNFQMCRTR__M_PUB_ALL__e8__s20260927
     RDKit          3D

 63 68  0  0  0  0  0  0  0  0999 V2000
   13.8440  -11.0880   -9.9610 C   0  0  0  0  0  0  0  0  0  0  0  0
   12.8120  -12.1180   -9.7820 C   0  0  0  0  0  0  0  0  0  0  0  0
   13.0210  -13.3320   -9.2380 N   0  0  0  0  0  0  0  0  0  0  0  0
   11.8240  -13.9680   -9.2440 C   0  0  0  0  0  0  0  0  0  0  0  0
   10.8720  -13.1280   -9.8050 C   0  0  0  0  0  0  0  0  0  0  0  0
   11.5150  -11.9690  -10.1140 N   0  0  0  0  0  0  0  0  0  0  0  0
    9.3260  -13.4060  -10.0460 C   0  0  0  0  0  0  0  0  0  0  0  0
    8.6370  -12.3550  -10.6890 C   0  0  0  0  0  0  0  0  0  0  0  0
    7.2950  -12.4700  -11.0350 C   0  0  0  0  0  0  0  0  0  0  0  0
    6.6190  -13.6450  -10.7450 C   0  0  0  0  0  0  0  0  0  0  0  0
    7.2890  -14.6940  -10.1070 C   0  0  0  0  0  0  0  0  0  0  0  0
    8.6490  -14.6090   -9.7380 C   0  0  0  0  0  0  0  0  0  0  0  0
    9.2430  -15.7290   -9.0410 N   0  0  0  0  0  0  0  0  0  0  0  0
    8.5350  -16.4300   -8.0440 C   0  0  0  0  0  0  0  0  0  0  0  0
    7.9220  -17.4890   -8.1610 O   0  0  0  0  0  0  0  0  0  0  0  0
    8.5650  -15.8840   -6.6740 C   0  0  0  0  0  0  0  0  0  0  0  0
    7.6250  -14.9330   -6.2710 C   0  0  0  0  0  0  0  0  0  0  0  0
    7.7410  -14.3440   -5.0080 C   0  0  0  0  0  0  0  0  0  0  0  0
    8.7820  -14.7120   -4.1510 C   0  0  0  0  0  0  0  0  0  0  0  0
    9.0570  -14.0760   -2.9270 N   0  0  0  0  0  0  0  0  0  0  0  0
    9.3130  -12.7380   -2.7090 C   0  0  0  0  0  0  0  0  0  0  0  0
    9.1020  -11.8080   -3.4780 O   0  0  0  0  0  0  0  0  0  0  0  0
    9.8830  -12.4280   -1.3660 C   0  0  0  0  0  0  0  0  0  0  0  0
    8.9580  -12.1290   -0.3510 C   0  0  0  0  0  0  0  0  0  0  0  0
    9.3960  -11.8410    0.9400 C   0  0  0  0  0  0  0  0  0  0  0  0
   10.7580  -11.8390    1.2230 C   0  0  0  0  0  0  0  0  0  0  0  0
   11.6850  -12.1150    0.2140 C   0  0  0  0  0  0  0  0  0  0  0  0
   11.2730  -12.4070   -1.1010 C   0  0  0  0  0  0  0  0  0  0  0  0
   12.3020  -12.6490   -2.1320 C   0  0  0  0  0  0  0  0  0  0  0  0
   12.5070  -13.9340   -2.6650 C   0  0  0  0  0  0  0  0  0  0  0  0
   13.5290  -14.1730   -3.5870 C   0  0  0  0  0  0  0  0  0  0  0  0
   14.3540  -13.1310   -4.0010 C   0  0  0  0  0  0  0  0  0  0  0  0
   14.1520  -11.8460   -3.5030 C   0  0  0  0  0  0  0  0  0  0  0  0
   13.1310  -11.6060   -2.5790 C   0  0  0  0  0  0  0  0  0  0  0  0
    9.6740  -15.7210   -4.5450 C   0  0  0  0  0  0  0  0  0  0  0  0
    9.5640  -16.3140   -5.8010 C   0  0  0  0  0  0  0  0  0  0  0  0
   10.6200  -16.0910   -9.4260 C   0  0  0  0  0  0  0  0  0  0  0  0
   11.6780  -15.3110   -8.6720 C   0  0  0  0  0  0  0  0  0  0  0  0
   14.1910  -10.7416   -8.9763 H   0  0  0  0  0  0  0  0  0  0  0  0
   14.6913  -11.5112  -10.5204 H   0  0  0  0  0  0  0  0  0  0  0  0
   13.4224  -10.2398  -10.5204 H   0  0  0  0  0  0  0  0  0  0  0  0
    9.1740  -11.4236  -10.9217 H   0  0  0  0  0  0  0  0  0  0  0  0
    6.7758  -11.6380  -11.5332 H   0  0  0  0  0  0  0  0  0  0  0  0
    5.5583  -13.7521  -11.0160 H   0  0  0  0  0  0  0  0  0  0  0  0
    6.7362  -15.6187   -9.8847 H   0  0  0  0  0  0  0  0  0  0  0  0
    6.8003  -14.6496   -6.9415 H   0  0  0  0  0  0  0  0  0  0  0  0
    7.0095  -13.5875   -4.6875 H   0  0  0  0  0  0  0  0  0  0  0  0
    9.1830  -14.6970   -2.1370 H   0  0  0  0  0  0  0  0  0  0  0  0
    7.8815  -12.1223   -0.5772 H   0  0  0  0  0  0  0  0  0  0  0  0
    8.6673  -11.6160    1.7327 H   0  0  0  0  0  0  0  0  0  0  0  0
   11.1062  -11.6197    2.2431 H   0  0  0  0  0  0  0  0  0  0  0  0
   12.7589  -12.1040    0.4518 H   0  0  0  0  0  0  0  0  0  0  0  0
   11.8540  -14.7620   -2.3518 H   0  0  0  0  0  0  0  0  0  0  0  0
   13.6821  -15.1864   -3.9865 H   0  0  0  0  0  0  0  0  0  0  0  0
   15.1641  -13.3221   -4.7202 H   0  0  0  0  0  0  0  0  0  0  0  0
   14.7964  -11.0195   -3.8371 H   0  0  0  0  0  0  0  0  0  0  0  0
   12.9742  -10.5866   -2.1965 H   0  0  0  0  0  0  0  0  0  0  0  0
   10.4672  -16.0467   -3.8561 H   0  0  0  0  0  0  0  0  0  0  0  0
   10.2579  -17.1131   -6.1009 H   0  0  0  0  0  0  0  0  0  0  0  0
   10.7680  -17.1626   -9.2267 H   0  0  0  0  0  0  0  0  0  0  0  0
   10.7345  -15.8481  -10.4927 H   0  0  0  0  0  0  0  0  0  0  0  0
   11.3823  -15.2256   -7.6159 H   0  0  0  0  0  0  0  0  0  0  0  0
   12.6387  -15.8408   -8.7524 H   0  0  0  0  0  0  0  0  0  0  0  0
  1  2  1  0
  2  3  2  0
  3  4  1  0
  4  5  2  0
  5  6  1  0
  5  7  1  0
  7  8  2  0
  8  9  1  0
  9 10  2  0
 10 11  1  0
 11 12  2  0
 12 13  1  0
 13 14  1  0
 14 15  2  0
 14 16  1  0
 16 17  2  0
 17 18  1  0
 18 19  2  0
 19 20  1  0
 20 21  1  0
 21 22  2  0
 21 23  1  0
 23 24  2  0
 24 25  1  0
 25 26  2  0
 26 27  1  0
 27 28  2  0
 28 29  1  0
 29 30  2  0
 30 31  1  0
 31 32  2  0
 32 33  1  0
 33 34  2  0
 19 35  1  0
 35 36  2  0
 13 37  1  0
 37 38  1  0
  6  2  1  0
 12  7  1  0
 36 16  1  0
 38  4  1  0
 28 23  1  0
 34 29  1  0
  1 39  1  0
  1 40  1  0
  1 41  1  0
  8 42  1  0
  9 43  1  0
 10 44  1  0
 11 45  1  0
 17 46  1  0
 18 47  1  0
 20 48  1  0
 24 49  1  0
 25 50  1  0
 26 51  1  0
 27 52  1  0
 30 53  1  0
 31 54  1  0
 32 55  1  0
 33 56  1  0
 34 57  1  0
 35 58  1  0
 36 59  1  0
 37 60  1  0
 37 61  1  0
 38 62  1  0
 38 63  1  0
M  CHG  1   6  -1
M  END
>  <meeko>  (3) 
{"is_sidechain": [false], "free_energy": -7.773, "intermolecular_energy": -11.938, "internal_energy": -1.402}

$$$$
LIB_IKENVDNFQMCRTR__M_PUB_ALL__e8__s20260927
     RDKit          3D

 63 68  0  0  0  0  0  0  0  0999 V2000
    1.2720  -14.4660   -3.3040 C   0  0  0  0  0  0  0  0  0  0  0  0
    1.1910  -14.5740   -1.8420 C   0  0  0  0  0  0  0  0  0  0  0  0
    1.7410  -15.5620   -1.1110 N   0  0  0  0  0  0  0  0  0  0  0  0
    1.4510  -15.2890    0.1850 C   0  0  0  0  0  0  0  0  0  0  0  0
    0.7100  -14.1180    0.2420 C   0  0  0  0  0  0  0  0  0  0  0  0
    0.5790  -13.6810   -1.0400 N   0  0  0  0  0  0  0  0  0  0  0  0
    0.1210  -13.3800    1.5210 C   0  0  0  0  0  0  0  0  0  0  0  0
   -0.5980  -12.2000    1.2360 C   0  0  0  0  0  0  0  0  0  0  0  0
   -1.2350  -11.4760    2.2380 C   0  0  0  0  0  0  0  0  0  0  0  0
   -1.1660  -11.9260    3.5460 C   0  0  0  0  0  0  0  0  0  0  0  0
   -0.4550  -13.0930    3.8440 C   0  0  0  0  0  0  0  0  0  0  0  0
    0.2070  -13.8490    2.8530 C   0  0  0  0  0  0  0  0  0  0  0  0
    0.9540  -15.0160    3.2640 N   0  0  0  0  0  0  0  0  0  0  0  0
    0.5190  -15.8270    4.3330 C   0  0  0  0  0  0  0  0  0  0  0  0
    1.1900  -16.2720    5.2600 O   0  0  0  0  0  0  0  0  0  0  0  0
   -0.9200  -16.1440    4.4050 C   0  0  0  0  0  0  0  0  0  0  0  0
   -1.6580  -16.3510    3.2380 C   0  0  0  0  0  0  0  0  0  0  0  0
   -3.0410  -16.5370    3.3240 C   0  0  0  0  0  0  0  0  0  0  0  0
   -3.6790  -16.5270    4.5680 C   0  0  0  0  0  0  0  0  0  0  0  0
   -5.0750  -16.5650    4.7380 N   0  0  0  0  0  0  0  0  0  0  0  0
   -5.9580  -15.5060    4.7160 C   0  0  0  0  0  0  0  0  0  0  0  0
   -5.7490  -14.3750    4.2950 O   0  0  0  0  0  0  0  0  0  0  0  0
   -7.3170  -15.8220    5.2450 C   0  0  0  0  0  0  0  0  0  0  0  0
   -8.3260  -16.0250    4.2890 C   0  0  0  0  0  0  0  0  0  0  0  0
   -9.6240  -16.3400    4.6890 C   0  0  0  0  0  0  0  0  0  0  0  0
   -9.9230  -16.4420    6.0440 C   0  0  0  0  0  0  0  0  0  0  0  0
   -8.9280  -16.2220    7.0010 C   0  0  0  0  0  0  0  0  0  0  0  0
   -7.6090  -15.9000    6.6280 C   0  0  0  0  0  0  0  0  0  0  0  0
   -6.6140  -15.6380    7.6870 C   0  0  0  0  0  0  0  0  0  0  0  0
   -5.8860  -16.6870    8.2740 C   0  0  0  0  0  0  0  0  0  0  0  0
   -4.9980  -16.4420    9.3250 C   0  0  0  0  0  0  0  0  0  0  0  0
   -4.8130  -15.1460    9.7970 C   0  0  0  0  0  0  0  0  0  0  0  0
   -5.5070  -14.0890    9.2120 C   0  0  0  0  0  0  0  0  0  0  0  0
   -6.3980  -14.3330    8.1630 C   0  0  0  0  0  0  0  0  0  0  0  0
   -2.9110  -16.3900    5.7340 C   0  0  0  0  0  0  0  0  0  0  0  0
   -1.5320  -16.2070    5.6570 C   0  0  0  0  0  0  0  0  0  0  0  0
    2.1900  -15.3090    2.5130 C   0  0  0  0  0  0  0  0  0  0  0  0
    1.9460  -16.1470    1.2680 C   0  0  0  0  0  0  0  0  0  0  0  0
    1.9118  -13.6129   -3.5738 H   0  0  0  0  0  0  0  0  0  0  0  0
    1.7009  -15.3910   -3.7168 H   0  0  0  0  0  0  0  0  0  0  0  0
    0.2639  -14.3132   -3.7168 H   0  0  0  0  0  0  0  0  0  0  0  0
   -0.6561  -11.8443    0.1967 H   0  0  0  0  0  0  0  0  0  0  0  0
   -1.7873  -10.5564    1.9945 H   0  0  0  0  0  0  0  0  0  0  0  0
   -1.6692  -11.3669    4.3486 H   0  0  0  0  0  0  0  0  0  0  0  0
   -0.4101  -13.4340    4.8888 H   0  0  0  0  0  0  0  0  0  0  0  0
   -1.1557  -16.3676    2.2595 H   0  0  0  0  0  0  0  0  0  0  0  0
   -3.6302  -16.6920    2.4081 H   0  0  0  0  0  0  0  0  0  0  0  0
   -5.4510  -17.4650    5.0120 H   0  0  0  0  0  0  0  0  0  0  0  0
   -8.0906  -15.9349    3.2183 H   0  0  0  0  0  0  0  0  0  0  0  0
  -10.4085  -16.5072    3.9363 H   0  0  0  0  0  0  0  0  0  0  0  0
  -10.9446  -16.6963    6.3629 H   0  0  0  0  0  0  0  0  0  0  0  0
   -9.1810  -16.3022    8.0685 H   0  0  0  0  0  0  0  0  0  0  0  0
   -6.0167  -17.7138    7.9016 H   0  0  0  0  0  0  0  0  0  0  0  0
   -4.4437  -17.2759    9.7804 H   0  0  0  0  0  0  0  0  0  0  0  0
   -4.1203  -14.9565   10.6302 H   0  0  0  0  0  0  0  0  0  0  0  0
   -5.3537  -13.0622    9.5757 H   0  0  0  0  0  0  0  0  0  0  0  0
   -6.9378  -13.4919    7.7034 H   0  0  0  0  0  0  0  0  0  0  0  0
   -3.4019  -16.4274    6.7177 H   0  0  0  0  0  0  0  0  0  0  0  0
   -0.9319  -16.1132    6.5741 H   0  0  0  0  0  0  0  0  0  0  0  0
    2.6496  -14.3567    2.2097 H   0  0  0  0  0  0  0  0  0  0  0  0
    2.8473  -15.8902    3.1764 H   0  0  0  0  0  0  0  0  0  0  0  0
    2.8878  -16.6225    0.9567 H   0  0  0  0  0  0  0  0  0  0  0  0
    1.1977  -16.9219    1.4906 H   0  0  0  0  0  0  0  0  0  0  0  0
  1  2  1  0
  2  3  2  0
  3  4  1  0
  4  5  2  0
  5  6  1  0
  5  7  1  0
  7  8  2  0
  8  9  1  0
  9 10  2  0
 10 11  1  0
 11 12  2  0
 12 13  1  0
 13 14  1  0
 14 15  2  0
 14 16  1  0
 16 17  2  0
 17 18  1  0
 18 19  2  0
 19 20  1  0
 20 21  1  0
 21 22  2  0
 21 23  1  0
 23 24  2  0
 24 25  1  0
 25 26  2  0
 26 27  1  0
 27 28  2  0
 28 29  1  0
 29 30  2  0
 30 31  1  0
 31 32  2  0
 32 33  1  0
 33 34  2  0
 19 35  1  0
 35 36  2  0
 13 37  1  0
 37 38  1  0
  6  2  1  0
 12  7  1  0
 36 16  1  0
 38  4  1  0
 28 23  1  0
 34 29  1  0
  1 39  1  0
  1 40  1  0
  1 41  1  0
  8 42  1  0
  9 43  1  0
 10 44  1  0
 11 45  1  0
 17 46  1  0
 18 47  1  0
 20 48  1  0
 24 49  1  0
 25 50  1  0
 26 51  1  0
 27 52  1  0
 30 53  1  0
 31 54  1  0
 32 55  1  0
 33 56  1  0
 34 57  1  0
 35 58  1  0
 36 59  1  0
 37 60  1  0
 37 61  1  0
 38 62  1  0
 38 63  1  0
M  CHG  1   6  -1
M  END
>  <meeko>  (4) 
{"is_sidechain": [false], "free_energy": -7.653, "intermolecular_energy": -12.212, "internal_energy": -0.946}

$$$$
LIB_IKENVDNFQMCRTR__M_PUB_ALL__e8__s20260927
     RDKit          3D

 63 68  0  0  0  0  0  0  0  0999 V2000
   10.4770  -11.6490    0.8550 C   0  0  0  0  0  0  0  0  0  0  0  0
    9.0710  -12.0260    0.6680 C   0  0  0  0  0  0  0  0  0  0  0  0
    8.2920  -12.5930    1.6100 N   0  0  0  0  0  0  0  0  0  0  0  0
    7.0720  -12.7690    1.0470 C   0  0  0  0  0  0  0  0  0  0  0  0
    7.1090  -12.3050   -0.2600 C   0  0  0  0  0  0  0  0  0  0  0  0
    8.3670  -11.8270   -0.4640 N   0  0  0  0  0  0  0  0  0  0  0  0
    5.9430  -12.2930   -1.3410 C   0  0  0  0  0  0  0  0  0  0  0  0
    6.3000  -11.7180   -2.5790 C   0  0  0  0  0  0  0  0  0  0  0  0
    5.4150  -11.6950   -3.6520 C   0  0  0  0  0  0  0  0  0  0  0  0
    4.1550  -12.2520   -3.5020 C   0  0  0  0  0  0  0  0  0  0  0  0
    3.7880  -12.8240   -2.2800 C   0  0  0  0  0  0  0  0  0  0  0  0
    4.6590  -12.8610   -1.1690 C   0  0  0  0  0  0  0  0  0  0  0  0
    4.1730  -13.4320    0.0660 N   0  0  0  0  0  0  0  0  0  0  0  0
    3.3100  -14.5460    0.0690 C   0  0  0  0  0  0  0  0  0  0  0  0
    3.4630  -15.6170   -0.5140 O   0  0  0  0  0  0  0  0  0  0  0  0
    2.0990  -14.4700    0.9090 C   0  0  0  0  0  0  0  0  0  0  0  0
    2.0000  -15.2310    2.0760 C   0  0  0  0  0  0  0  0  0  0  0  0
    0.8020  -15.2320    2.7960 C   0  0  0  0  0  0  0  0  0  0  0  0
   -0.2850  -14.4700    2.3570 C   0  0  0  0  0  0  0  0  0  0  0  0
   -1.5670  -14.5200    2.9360 N   0  0  0  0  0  0  0  0  0  0  0  0
   -2.6890  -15.1570    2.4490 C   0  0  0  0  0  0  0  0  0  0  0  0
   -2.7360  -16.0080    1.5690 O   0  0  0  0  0  0  0  0  0  0  0  0
   -3.9640  -14.7600    3.1150 C   0  0  0  0  0  0  0  0  0  0  0  0
   -4.4900  -15.6710    4.0460 C   0  0  0  0  0  0  0  0  0  0  0  0
   -5.6700  -15.3790    4.7290 C   0  0  0  0  0  0  0  0  0  0  0  0
   -6.3350  -14.1830    4.4780 C   0  0  0  0  0  0  0  0  0  0  0  0
   -5.8270  -13.2810    3.5380 C   0  0  0  0  0  0  0  0  0  0  0  0
   -4.6400  -13.5490    2.8310 C   0  0  0  0  0  0  0  0  0  0  0  0
   -4.1780  -12.5760    1.8210 C   0  0  0  0  0  0  0  0  0  0  0  0
   -4.7310  -12.5520    0.5300 C   0  0  0  0  0  0  0  0  0  0  0  0
   -4.2410  -11.6780   -0.4440 C   0  0  0  0  0  0  0  0  0  0  0  0
   -3.2000  -10.8050   -0.1400 C   0  0  0  0  0  0  0  0  0  0  0  0
   -2.6550  -10.7960    1.1410 C   0  0  0  0  0  0  0  0  0  0  0  0
   -3.1420  -11.6720    2.1160 C   0  0  0  0  0  0  0  0  0  0  0  0
   -0.1430  -13.6570    1.2230 C   0  0  0  0  0  0  0  0  0  0  0  0
    1.0490  -13.6480    0.5020 C   0  0  0  0  0  0  0  0  0  0  0  0
    4.6230  -12.7870    1.3150 C   0  0  0  0  0  0  0  0  0  0  0  0
    5.9550  -13.3250    1.8190 C   0  0  0  0  0  0  0  0  0  0  0  0
   10.7006  -11.5890    1.9304 H   0  0  0  0  0  0  0  0  0  0  0  0
   11.1247  -12.4052    0.3874 H   0  0  0  0  0  0  0  0  0  0  0  0
   10.6595  -10.6702    0.3874 H   0  0  0  0  0  0  0  0  0  0  0  0
    7.3010  -11.2779   -2.6984 H   0  0  0  0  0  0  0  0  0  0  0  0
    5.7119  -11.2400   -4.6084 H   0  0  0  0  0  0  0  0  0  0  0  0
    3.4452  -12.2442   -4.3423 H   0  0  0  0  0  0  0  0  0  0  0  0
    2.7836  -13.2614   -2.1804 H   0  0  0  0  0  0  0  0  0  0  0  0
    2.8576  -15.8246    2.4255 H   0  0  0  0  0  0  0  0  0  0  0  0
    0.7140  -15.8348    3.7119 H   0  0  0  0  0  0  0  0  0  0  0  0
   -1.6970  -13.9290    3.7480 H   0  0  0  0  0  0  0  0  0  0  0  0
   -3.9680  -16.6202    4.2373 H   0  0  0  0  0  0  0  0  0  0  0  0
   -6.0736  -16.0915    5.4635 H   0  0  0  0  0  0  0  0  0  0  0  0
   -7.2624  -13.9465    5.0202 H   0  0  0  0  0  0  0  0  0  0  0  0
   -6.3668  -12.3418    3.3470 H   0  0  0  0  0  0  0  0  0  0  0  0
   -5.5609  -13.2303    0.2824 H   0  0  0  0  0  0  0  0  0  0  0  0
   -4.6788  -11.6798   -1.4531 H   0  0  0  0  0  0  0  0  0  0  0  0
   -2.8090  -10.1239   -0.9102 H   0  0  0  0  0  0  0  0  0  0  0  0
   -1.8403  -10.0989    1.3865 H   0  0  0  0  0  0  0  0  0  0  0  0
   -2.7090  -11.6538    3.1270 H   0  0  0  0  0  0  0  0  0  0  0  0
   -0.9802  -13.0208    0.9000 H   0  0  0  0  0  0  0  0  0  0  0  0
    1.1606  -12.9991   -0.3792 H   0  0  0  0  0  0  0  0  0  0  0  0
    4.7278  -11.7072    1.1332 H   0  0  0  0  0  0  0  0  0  0  0  0
    3.8690  -13.0037    2.0860 H   0  0  0  0  0  0  0  0  0  0  0  0
    6.0769  -13.0502    2.8771 H   0  0  0  0  0  0  0  0  0  0  0  0
    5.9582  -14.4188    1.7024 H   0  0  0  0  0  0  0  0  0  0  0  0
  1  2  1  0
  2  3  2  0
  3  4  1  0
  4  5  2  0
  5  6  1  0
  5  7  1  0
  7  8  2  0
  8  9  1  0
  9 10  2  0
 10 11  1  0
 11 12  2  0
 12 13  1  0
 13 14  1  0
 14 15  2  0
 14 16  1  0
 16 17  2  0
 17 18  1  0
 18 19  2  0
 19 20  1  0
 20 21  1  0
 21 22  2  0
 21 23  1  0
 23 24  2  0
 24 25  1  0
 25 26  2  0
 26 27  1  0
 27 28  2  0
 28 29  1  0
 29 30  2  0
 30 31  1  0
 31 32  2  0
 32 33  1  0
 33 34  2  0
 19 35  1  0
 35 36  2  0
 13 37  1  0
 37 38  1  0
  6  2  1  0
 12  7  1  0
 36 16  1  0
 38  4  1  0
 28 23  1  0
 34 29  1  0
  1 39  1  0
  1 40  1  0
  1 41  1  0
  8 42  1  0
  9 43  1  0
 10 44  1  0
 11 45  1  0
 17 46  1  0
 18 47  1  0
 20 48  1  0
 24 49  1  0
 25 50  1  0
 26 51  1  0
 27 52  1  0
 30 53  1  0
 31 54  1  0
 32 55  1  0
 33 56  1  0
 34 57  1  0
 35 58  1  0
 36 59  1  0
 37 60  1  0
 37 61  1  0
 38 62  1  0
 38 63  1  0
M  CHG  1   6  -1
M  END
>  <meeko>  (5) 
{"is_sidechain": [false], "free_energy": -7.648, "intermolecular_energy": -12.1, "internal_energy": -1.05}

$$$$
LIB_IKENVDNFQMCRTR__M_PUB_ALL__e8__s20260927
     RDKit          3D

 63 68  0  0  0  0  0  0  0  0999 V2000
    1.4280  -17.6990    0.5890 C   0  0  0  0  0  0  0  0  0  0  0  0
    1.5710  -16.4270   -0.1310 C   0  0  0  0  0  0  0  0  0  0  0  0
    2.1860  -16.2810   -1.3210 N   0  0  0  0  0  0  0  0  0  0  0  0
    2.0920  -14.9680   -1.6440 C   0  0  0  0  0  0  0  0  0  0  0  0
    1.4120  -14.3040   -0.6330 C   0  0  0  0  0  0  0  0  0  0  0  0
    1.0800  -15.2460    0.2920 N   0  0  0  0  0  0  0  0  0  0  0  0
    1.0500  -12.7590   -0.5310 C   0  0  0  0  0  0  0  0  0  0  0  0
    0.3270  -12.4040    0.6280 C   0  0  0  0  0  0  0  0  0  0  0  0
   -0.0060  -11.0810    0.9000 C   0  0  0  0  0  0  0  0  0  0  0  0
    0.3860  -10.0890    0.0160 C   0  0  0  0  0  0  0  0  0  0  0  0
    1.1010  -10.4270   -1.1370 C   0  0  0  0  0  0  0  0  0  0  0  0
    1.4520  -11.7590   -1.4470 C   0  0  0  0  0  0  0  0  0  0  0  0
    2.1530  -12.0150   -2.6850 N   0  0  0  0  0  0  0  0  0  0  0  0
    3.1010  -11.1040   -3.1920 C   0  0  0  0  0  0  0  0  0  0  0  0
    2.9030   -9.9610   -3.5980 O   0  0  0  0  0  0  0  0  0  0  0  0
    4.5170  -11.5210   -3.1920 C   0  0  0  0  0  0  0  0  0  0  0  0
    5.1340  -11.9260   -4.3760 C   0  0  0  0  0  0  0  0  0  0  0  0
    6.4390  -12.4270   -4.3350 C   0  0  0  0  0  0  0  0  0  0  0  0
    7.1240  -12.5100   -3.1190 C   0  0  0  0  0  0  0  0  0  0  0  0
    8.3790  -13.1260   -2.9630 N   0  0  0  0  0  0  0  0  0  0  0  0
    9.6150  -12.6260   -3.3160 C   0  0  0  0  0  0  0  0  0  0  0  0
    9.8940  -11.4650   -3.5910 O   0  0  0  0  0  0  0  0  0  0  0  0
   10.7130  -13.6370   -3.3230 C   0  0  0  0  0  0  0  0  0  0  0  0
   10.6600  -14.6050   -4.3400 C   0  0  0  0  0  0  0  0  0  0  0  0
   11.6500  -15.5820   -4.4350 C   0  0  0  0  0  0  0  0  0  0  0  0
   12.6910  -15.6030   -3.5120 C   0  0  0  0  0  0  0  0  0  0  0  0
   12.7390  -14.6540   -2.4860 C   0  0  0  0  0  0  0  0  0  0  0  0
   11.7520  -13.6570   -2.3620 C   0  0  0  0  0  0  0  0  0  0  0  0
   11.8350  -12.7100   -1.2330 C   0  0  0  0  0  0  0  0  0  0  0  0
   10.9580  -12.8050   -0.1390 C   0  0  0  0  0  0  0  0  0  0  0  0
   10.9940  -11.8640    0.8930 C   0  0  0  0  0  0  0  0  0  0  0  0
   11.9130  -10.8190    0.8540 C   0  0  0  0  0  0  0  0  0  0  0  0
   12.8070  -10.7210   -0.2090 C   0  0  0  0  0  0  0  0  0  0  0  0
   12.7710  -11.6610   -1.2430 C   0  0  0  0  0  0  0  0  0  0  0  0
    6.5140  -12.0320   -1.9510 C   0  0  0  0  0  0  0  0  0  0  0  0
    5.2140  -11.5290   -1.9840 C   0  0  0  0  0  0  0  0  0  0  0  0
    1.8200  -13.2710   -3.3860 C   0  0  0  0  0  0  0  0  0  0  0  0
    2.6210  -14.4620   -2.9150 C   0  0  0  0  0  0  0  0  0  0  0  0
    1.4491  -17.5113    1.6727 H   0  0  0  0  0  0  0  0  0  0  0  0
    0.4714  -18.1689    0.3168 H   0  0  0  0  0  0  0  0  0  0  0  0
    2.2564  -18.3695    0.3168 H   0  0  0  0  0  0  0  0  0  0  0  0
    0.0199  -13.1913    1.3322 H   0  0  0  0  0  0  0  0  0  0  0  0
   -0.5741  -10.8255    1.8066 H   0  0  0  0  0  0  0  0  0  0  0  0
    0.1353   -9.0377    0.2207 H   0  0  0  0  0  0  0  0  0  0  0  0
    1.4011   -9.6256   -1.8281 H   0  0  0  0  0  0  0  0  0  0  0  0
    4.5984  -11.8518   -5.3339 H   0  0  0  0  0  0  0  0  0  0  0  0
    6.9285  -12.7571   -5.2631 H   0  0  0  0  0  0  0  0  0  0  0  0
    8.3510  -14.0900   -2.6520 H   0  0  0  0  0  0  0  0  0  0  0  0
    9.8330  -14.5919   -5.0651 H   0  0  0  0  0  0  0  0  0  0  0  0
   11.6083  -16.3337   -5.2370 H   0  0  0  0  0  0  0  0  0  0  0  0
   13.4779  -16.3677   -3.5895 H   0  0  0  0  0  0  0  0  0  0  0  0
   13.5651  -14.6869   -1.7604 H   0  0  0  0  0  0  0  0  0  0  0  0
   10.2334  -13.6314   -0.0947 H   0  0  0  0  0  0  0  0  0  0  0  0
   10.2949  -11.9490    1.7380 H   0  0  0  0  0  0  0  0  0  0  0  0
   11.9328  -10.0722    1.6614 H   0  0  0  0  0  0  0  0  0  0  0  0
   13.5422   -9.9032   -0.2351 H   0  0  0  0  0  0  0  0  0  0  0  0
   13.4848  -11.5788   -2.0759 H   0  0  0  0  0  0  0  0  0  0  0  0
    7.0659  -12.0539   -0.9997 H   0  0  0  0  0  0  0  0  0  0  0  0
    4.7435  -11.1429   -1.0677 H   0  0  0  0  0  0  0  0  0  0  0  0
    0.7530  -13.4853   -3.2260 H   0  0  0  0  0  0  0  0  0  0  0  0
    2.0640  -13.1200   -4.4479 H   0  0  0  0  0  0  0  0  0  0  0  0
    2.5655  -15.2578   -3.6724 H   0  0  0  0  0  0  0  0  0  0  0  0
    3.6657  -14.1513   -2.7665 H   0  0  0  0  0  0  0  0  0  0  0  0
  1  2  1  0
  2  3  2  0
  3  4  1  0
  4  5  2  0
  5  6  1  0
  5  7  1  0
  7  8  2  0
  8  9  1  0
  9 10  2  0
 10 11  1  0
 11 12  2  0
 12 13  1  0
 13 14  1  0
 14 15  2  0
 14 16  1  0
 16 17  2  0
 17 18  1  0
 18 19  2  0
 19 20  1  0
 20 21  1  0
 21 22  2  0
 21 23  1  0
 23 24  2  0
 24 25  1  0
 25 26  2  0
 26 27  1  0
 27 28  2  0
 28 29  1  0
 29 30  2  0
 30 31  1  0
 31 32  2  0
 32 33  1  0
 33 34  2  0
 19 35  1  0
 35 36  2  0
 13 37  1  0
 37 38  1  0
  6  2  1  0
 12  7  1  0
 36 16  1  0
 38  4  1  0
 28 23  1  0
 34 29  1  0
  1 39  1  0
  1 40  1  0
  1 41  1  0
  8 42  1  0
  9 43  1  0
 10 44  1  0
 11 45  1  0
 17 46  1  0
 18 47  1  0
 20 48  1  0
 24 49  1  0
 25 50  1  0
 26 51  1  0
 27 52  1  0
 30 53  1  0
 31 54  1  0
 32 55  1  0
 33 56  1  0
 34 57  1  0
 35 58  1  0
 36 59  1  0
 37 60  1  0
 37 61  1  0
 38 62  1  0
 38 63  1  0
M  CHG  1   6  -1
M  END
>  <meeko>  (6) 
{"is_sidechain": [false], "free_energy": -7.471, "intermolecular_energy": -12.223, "internal_energy": -0.657}

$$$$
LIB_IKENVDNFQMCRTR__M_PUB_ALL__e8__s20260927
     RDKit          3D

 63 68  0  0  0  0  0  0  0  0999 V2000
    7.5120  -17.3110   -5.9710 C   0  0  0  0  0  0  0  0  0  0  0  0
    6.8960  -16.0510   -5.5330 C   0  0  0  0  0  0  0  0  0  0  0  0
    5.8790  -15.4320   -6.1610 N   0  0  0  0  0  0  0  0  0  0  0  0
    5.6000  -14.3190   -5.4390 C   0  0  0  0  0  0  0  0  0  0  0  0
    6.4640  -14.2600   -4.3550 C   0  0  0  0  0  0  0  0  0  0  0  0
    7.2510  -15.3670   -4.4280 N   0  0  0  0  0  0  0  0  0  0  0  0
    6.5510  -13.1530   -3.2170 C   0  0  0  0  0  0  0  0  0  0  0  0
    7.5900  -13.3540   -2.2840 C   0  0  0  0  0  0  0  0  0  0  0  0
    7.8430  -12.4380   -1.2680 C   0  0  0  0  0  0  0  0  0  0  0  0
    7.0590  -11.3000   -1.1730 C   0  0  0  0  0  0  0  0  0  0  0  0
    6.0240  -11.0890   -2.0900 C   0  0  0  0  0  0  0  0  0  0  0  0
    5.7370  -11.9990   -3.1290 C   0  0  0  0  0  0  0  0  0  0  0  0
    4.6180  -11.7170   -4.0000 N   0  0  0  0  0  0  0  0  0  0  0  0
    3.4050  -11.2080   -3.4930 C   0  0  0  0  0  0  0  0  0  0  0  0
    2.8430  -10.1590   -3.8010 O   0  0  0  0  0  0  0  0  0  0  0  0
    2.6690  -12.0380   -2.5200 C   0  0  0  0  0  0  0  0  0  0  0  0
    2.4180  -13.3850   -2.7890 C   0  0  0  0  0  0  0  0  0  0  0  0
    1.6220  -14.1240   -1.9090 C   0  0  0  0  0  0  0  0  0  0  0  0
    1.0900  -13.5230   -0.7640 C   0  0  0  0  0  0  0  0  0  0  0  0
    0.1700  -14.1460    0.0980 N   0  0  0  0  0  0  0  0  0  0  0  0
   -1.0770  -14.6470   -0.2170 C   0  0  0  0  0  0  0  0  0  0  0  0
   -1.5210  -14.8830   -1.3340 O   0  0  0  0  0  0  0  0  0  0  0  0
   -1.9370  -14.9500    0.9640 C   0  0  0  0  0  0  0  0  0  0  0  0
   -1.7660  -16.2150    1.5510 C   0  0  0  0  0  0  0  0  0  0  0  0
   -2.5160  -16.5820    2.6680 C   0  0  0  0  0  0  0  0  0  0  0  0
   -3.4470  -15.6940    3.1960 C   0  0  0  0  0  0  0  0  0  0  0  0
   -3.6370  -14.4410    2.6050 C   0  0  0  0  0  0  0  0  0  0  0  0
   -2.8970  -14.0430    1.4750 C   0  0  0  0  0  0  0  0  0  0  0  0
   -3.1730  -12.7250    0.8710 C   0  0  0  0  0  0  0  0  0  0  0  0
   -4.2900  -12.5260    0.0420 C   0  0  0  0  0  0  0  0  0  0  0  0
   -4.5080  -11.2960   -0.5850 C   0  0  0  0  0  0  0  0  0  0  0  0
   -3.6210  -10.2420   -0.3840 C   0  0  0  0  0  0  0  0  0  0  0  0
   -2.5210  -10.4110    0.4540 C   0  0  0  0  0  0  0  0  0  0  0  0
   -2.3010  -11.6420    1.0790 C   0  0  0  0  0  0  0  0  0  0  0  0
    1.4130  -12.1890   -0.4740 C   0  0  0  0  0  0  0  0  0  0  0  0
    2.2090  -11.4470   -1.3450 C   0  0  0  0  0  0  0  0  0  0  0  0
    4.8120  -11.9920   -5.4370 C   0  0  0  0  0  0  0  0  0  0  0  0
    4.4990  -13.4260   -5.8180 C   0  0  0  0  0  0  0  0  0  0  0  0
    7.8015  -17.9032   -5.0904 H   0  0  0  0  0  0  0  0  0  0  0  0
    6.7910  -17.8810   -6.5753 H   0  0  0  0  0  0  0  0  0  0  0  0
    8.4047  -17.0921   -6.5753 H   0  0  0  0  0  0  0  0  0  0  0  0
    8.2146  -14.2561   -2.3617 H   0  0  0  0  0  0  0  0  0  0  0  0
    8.6560  -12.6153   -0.5486 H   0  0  0  0  0  0  0  0  0  0  0  0
    7.2499  -10.5639   -0.3782 H   0  0  0  0  0  0  0  0  0  0  0  0
    5.4114  -10.1801   -1.9975 H   0  0  0  0  0  0  0  0  0  0  0  0
    2.8429  -13.8604   -3.6854 H   0  0  0  0  0  0  0  0  0  0  0  0
    1.4131  -15.1835   -2.1183 H   0  0  0  0  0  0  0  0  0  0  0  0
    0.4160  -14.1250    1.0800 H   0  0  0  0  0  0  0  0  0  0  0  0
   -1.0361  -16.9202    1.1269 H   0  0  0  0  0  0  0  0  0  0  0  0
   -2.3718  -17.5700    3.1296 H   0  0  0  0  0  0  0  0  0  0  0  0
   -4.0355  -15.9780    4.0809 H   0  0  0  0  0  0  0  0  0  0  0  0
   -4.3803  -13.7516    3.0319 H   0  0  0  0  0  0  0  0  0  0  0  0
   -5.0024  -13.3492   -0.1156 H   0  0  0  0  0  0  0  0  0  0  0  0
   -5.3823  -11.1605   -1.2387 H   0  0  0  0  0  0  0  0  0  0  0  0
   -3.7884   -9.2776   -0.8859 H   0  0  0  0  0  0  0  0  0  0  0  0
   -1.8256   -9.5758    0.6239 H   0  0  0  0  0  0  0  0  0  0  0  0
   -1.4329  -11.7650    1.7433 H   0  0  0  0  0  0  0  0  0  0  0  0
    1.0348  -11.7246    0.4487 H   0  0  0  0  0  0  0  0  0  0  0  0
    2.4714  -10.4055   -1.1072 H   0  0  0  0  0  0  0  0  0  0  0  0
    4.1530  -11.3254   -6.0127 H   0  0  0  0  0  0  0  0  0  0  0  0
    5.8745  -11.8181   -5.6627 H   0  0  0  0  0  0  0  0  0  0  0  0
    3.5821  -13.7445   -5.3005 H   0  0  0  0  0  0  0  0  0  0  0  0
    4.3620  -13.4789   -6.9082 H   0  0  0  0  0  0  0  0  0  0  0  0
  1  2  1  0
  2  3  2  0
  3  4  1  0
  4  5  2  0
  5  6  1  0
  5  7  1  0
  7  8  2  0
  8  9  1  0
  9 10  2  0
 10 11  1  0
 11 12  2  0
 12 13  1  0
 13 14  1  0
 14 15  2  0
 14 16  1  0
 16 17  2  0
 17 18  1  0
 18 19  2  0
 19 20  1  0
 20 21  1  0
 21 22  2  0
 21 23  1  0
 23 24  2  0
 24 25  1  0
 25 26  2  0
 26 27  1  0
 27 28  2  0
 28 29  1  0
 29 30  2  0
 30 31  1  0
 31 32  2  0
 32 33  1  0
 33 34  2  0
 19 35  1  0
 35 36  2  0
 13 37  1  0
 37 38  1  0
  6  2  1  0
 12  7  1  0
 36 16  1  0
 38  4  1  0
 28 23  1  0
 34 29  1  0
  1 39  1  0
  1 40  1  0
  1 41  1  0
  8 42  1  0
  9 43  1  0
 10 44  1  0
 11 45  1  0
 17 46  1  0
 18 47  1  0
 20 48  1  0
 24 49  1  0
 25 50  1  0
 26 51  1  0
 27 52  1  0
 30 53  1  0
 31 54  1  0
 32 55  1  0
 33 56  1  0
 34 57  1  0
 35 58  1  0
 36 59  1  0
 37 60  1  0
 37 61  1  0
 38 62  1  0
 38 63  1  0
M  CHG  1   6  -1
M  END
>  <meeko>  (7) 
{"is_sidechain": [false], "free_energy": -7.471, "intermolecular_energy": -11.648, "internal_energy": -1.232}

$$$$
LIB_IKENVDNFQMCRTR__M_PUB_ALL__e8__s20260927
     RDKit          3D

 63 68  0  0  0  0  0  0  0  0999 V2000
    9.3650  -17.8860   -1.3280 C   0  0  0  0  0  0  0  0  0  0  0  0
    8.6290  -16.6840   -1.7420 C   0  0  0  0  0  0  0  0  0  0  0  0
    8.1010  -16.4880   -2.9650 N   0  0  0  0  0  0  0  0  0  0  0  0
    7.5000  -15.2730   -2.9350 C   0  0  0  0  0  0  0  0  0  0  0  0
    7.6690  -14.7200   -1.6740 C   0  0  0  0  0  0  0  0  0  0  0  0
    8.3620  -15.6340   -0.9420 N   0  0  0  0  0  0  0  0  0  0  0  0
    7.1630  -13.3130   -1.1330 C   0  0  0  0  0  0  0  0  0  0  0  0
    7.5430  -13.0260    0.1950 C   0  0  0  0  0  0  0  0  0  0  0  0
    7.2390  -11.8080    0.7920 C   0  0  0  0  0  0  0  0  0  0  0  0
    6.5490  -10.8510    0.0640 C   0  0  0  0  0  0  0  0  0  0  0  0
    6.1640  -11.1230   -1.2530 C   0  0  0  0  0  0  0  0  0  0  0  0
    6.4520  -12.3510   -1.8880 C   0  0  0  0  0  0  0  0  0  0  0  0
    5.9730  -12.5560   -3.2360 N   0  0  0  0  0  0  0  0  0  0  0  0
    4.6930  -12.1190   -3.6330 C   0  0  0  0  0  0  0  0  0  0  0  0
    4.4110  -11.3600   -4.5580 O   0  0  0  0  0  0  0  0  0  0  0  0
    3.5290  -12.6680   -2.9110 C   0  0  0  0  0  0  0  0  0  0  0  0
    2.7990  -11.8650   -2.0340 C   0  0  0  0  0  0  0  0  0  0  0  0
    1.7730  -12.4340   -1.2730 C   0  0  0  0  0  0  0  0  0  0  0  0
    1.4740  -13.7940   -1.3970 C   0  0  0  0  0  0  0  0  0  0  0  0
    0.5590  -14.4770   -0.5760 N   0  0  0  0  0  0  0  0  0  0  0  0
   -0.7000  -14.9330   -0.9110 C   0  0  0  0  0  0  0  0  0  0  0  0
   -1.1660  -15.0650   -2.0360 O   0  0  0  0  0  0  0  0  0  0  0  0
   -1.5460  -15.3250    0.2540 C   0  0  0  0  0  0  0  0  0  0  0  0
   -1.4510  -16.6640    0.6680 C   0  0  0  0  0  0  0  0  0  0  0  0
   -2.1930  -17.1190    1.7570 C   0  0  0  0  0  0  0  0  0  0  0  0
   -3.0400  -16.2450    2.4300 C   0  0  0  0  0  0  0  0  0  0  0  0
   -3.1540  -14.9150    2.0110 C   0  0  0  0  0  0  0  0  0  0  0  0
   -2.4190  -14.4270    0.9130 C   0  0  0  0  0  0  0  0  0  0  0  0
   -2.6150  -13.0250    0.4930 C   0  0  0  0  0  0  0  0  0  0  0  0
   -1.6850  -12.0290    0.8360 C   0  0  0  0  0  0  0  0  0  0  0  0
   -1.9100  -10.6920    0.4990 C   0  0  0  0  0  0  0  0  0  0  0  0
   -3.0600  -10.3300   -0.1980 C   0  0  0  0  0  0  0  0  0  0  0  0
   -3.9810  -11.3070   -0.5690 C   0  0  0  0  0  0  0  0  0  0  0  0
   -3.7590  -12.6440   -0.2290 C   0  0  0  0  0  0  0  0  0  0  0  0
    2.1700  -14.5690   -2.3360 C   0  0  0  0  0  0  0  0  0  0  0  0
    3.1920  -14.0080   -3.1000 C   0  0  0  0  0  0  0  0  0  0  0  0
    6.8890  -13.2460   -4.1650 C   0  0  0  0  0  0  0  0  0  0  0  0
    6.7740  -14.7580   -4.1020 C   0  0  0  0  0  0  0  0  0  0  0  0
    9.3961  -17.9368   -0.2296 H   0  0  0  0  0  0  0  0  0  0  0  0
    8.8591  -18.7797   -1.7222 H   0  0  0  0  0  0  0  0  0  0  0  0
   10.3910  -17.8417   -1.7222 H   0  0  0  0  0  0  0  0  0  0  0  0
    8.0930  -13.7842    0.7718 H   0  0  0  0  0  0  0  0  0  0  0  0
    7.5424  -11.6059    1.8298 H   0  0  0  0  0  0  0  0  0  0  0  0
    6.3050   -9.8805    0.5207 H   0  0  0  0  0  0  0  0  0  0  0  0
    5.6166  -10.3518   -1.8148 H   0  0  0  0  0  0  0  0  0  0  0  0
    3.0287  -10.7932   -1.9420 H   0  0  0  0  0  0  0  0  0  0  0  0
    1.1986  -11.8087   -0.5737 H   0  0  0  0  0  0  0  0  0  0  0  0
    0.8210  -14.5440    0.4000 H   0  0  0  0  0  0  0  0  0  0  0  0
   -0.7876  -17.3572    0.1301 H   0  0  0  0  0  0  0  0  0  0  0  0
   -2.1088  -18.1662    2.0830 H   0  0  0  0  0  0  0  0  0  0  0  0
   -3.6215  -16.6002    3.2935 H   0  0  0  0  0  0  0  0  0  0  0  0
   -3.8315  -14.2365    2.5501 H   0  0  0  0  0  0  0  0  0  0  0  0
   -0.7680  -12.3056    1.3768 H   0  0  0  0  0  0  0  0  0  0  0  0
   -1.1770   -9.9233    0.7849 H   0  0  0  0  0  0  0  0  0  0  0  0
   -3.2405   -9.2757   -0.4548 H   0  0  0  0  0  0  0  0  0  0  0  0
   -4.8842  -11.0256   -1.1303 H   0  0  0  0  0  0  0  0  0  0  0  0
   -4.4897  -13.4089   -0.5306 H   0  0  0  0  0  0  0  0  0  0  0  0
    1.9072  -15.6286   -2.4707 H   0  0  0  0  0  0  0  0  0  0  0  0
    3.7272  -14.6159   -3.8443 H   0  0  0  0  0  0  0  0  0  0  0  0
    6.6589  -12.9199   -5.1901 H   0  0  0  0  0  0  0  0  0  0  0  0
    7.9153  -12.9827   -3.8693 H   0  0  0  0  0  0  0  0  0  0  0  0
    5.7134  -15.0388   -4.0232 H   0  0  0  0  0  0  0  0  0  0  0  0
    7.2097  -15.1896   -5.0152 H   0  0  0  0  0  0  0  0  0  0  0  0
  1  2  1  0
  2  3  2  0
  3  4  1  0
  4  5  2  0
  5  6  1  0
  5  7  1  0
  7  8  2  0
  8  9  1  0
  9 10  2  0
 10 11  1  0
 11 12  2  0
 12 13  1  0
 13 14  1  0
 14 15  2  0
 14 16  1  0
 16 17  2  0
 17 18  1  0
 18 19  2  0
 19 20  1  0
 20 21  1  0
 21 22  2  0
 21 23  1  0
 23 24  2  0
 24 25  1  0
 25 26  2  0
 26 27  1  0
 27 28  2  0
 28 29  1  0
 29 30  2  0
 30 31  1  0
 31 32  2  0
 32 33  1  0
 33 34  2  0
 19 35  1  0
 35 36  2  0
 13 37  1  0
 37 38  1  0
  6  2  1  0
 12  7  1  0
 36 16  1  0
 38  4  1  0
 28 23  1  0
 34 29  1  0
  1 39  1  0
  1 40  1  0
  1 41  1  0
  8 42  1  0
  9 43  1  0
 10 44  1  0
 11 45  1  0
 17 46  1  0
 18 47  1  0
 20 48  1  0
 24 49  1  0
 25 50  1  0
 26 51  1  0
 27 52  1  0
 30 53  1  0
 31 54  1  0
 32 55  1  0
 33 56  1  0
 34 57  1  0
 35 58  1  0
 36 59  1  0
 37 60  1  0
 37 61  1  0
 38 62  1  0
 38 63  1  0
M  CHG  1   6  -1
M  END
>  <meeko>  (8) 
{"is_sidechain": [false], "free_energy": -7.06, "intermolecular_energy": -11.058, "internal_energy": -1.194}

$$$$
LIB_IKENVDNFQMCRTR__M_PUB_ALL__e8__s20260927
     RDKit          3D

 63 68  0  0  0  0  0  0  0  0999 V2000
    6.6770  -17.0480   -6.7180 C   0  0  0  0  0  0  0  0  0  0  0  0
    6.4690  -16.0320   -5.6790 C   0  0  0  0  0  0  0  0  0  0  0  0
    7.0560  -16.0380   -4.4660 N   0  0  0  0  0  0  0  0  0  0  0  0
    6.6130  -14.9330   -3.8180 C   0  0  0  0  0  0  0  0  0  0  0  0
    5.7410  -14.2450   -4.6490 C   0  0  0  0  0  0  0  0  0  0  0  0
    5.6840  -14.9450   -5.8140 N   0  0  0  0  0  0  0  0  0  0  0  0
    4.9500  -12.8960   -4.3560 C   0  0  0  0  0  0  0  0  0  0  0  0
    4.1410  -12.4500   -5.4220 C   0  0  0  0  0  0  0  0  0  0  0  0
    3.3330  -11.3250   -5.3000 C   0  0  0  0  0  0  0  0  0  0  0  0
    3.3190  -10.6290   -4.1030 C   0  0  0  0  0  0  0  0  0  0  0  0
    4.1180  -11.0590   -3.0380 C   0  0  0  0  0  0  0  0  0  0  0  0
    4.9530  -12.1930   -3.1290 C   0  0  0  0  0  0  0  0  0  0  0  0
    5.7760  -12.5330   -1.9900 N   0  0  0  0  0  0  0  0  0  0  0  0
    5.3210  -12.3340   -0.6710 C   0  0  0  0  0  0  0  0  0  0  0  0
    5.8200  -11.6220    0.1970 O   0  0  0  0  0  0  0  0  0  0  0  0
    4.0650  -13.0000   -0.2750 C   0  0  0  0  0  0  0  0  0  0  0  0
    2.9800  -12.2490    0.1800 C   0  0  0  0  0  0  0  0  0  0  0  0
    1.8420  -12.9060    0.6580 C   0  0  0  0  0  0  0  0  0  0  0  0
    1.7870  -14.3030    0.6710 C   0  0  0  0  0  0  0  0  0  0  0  0
    0.7470  -15.0450    1.2610 N   0  0  0  0  0  0  0  0  0  0  0  0
   -0.4490  -15.4260    0.6870 C   0  0  0  0  0  0  0  0  0  0  0  0
   -0.7340  -15.4220   -0.5040 O   0  0  0  0  0  0  0  0  0  0  0  0
   -1.4700  -15.9180    1.6570 C   0  0  0  0  0  0  0  0  0  0  0  0
   -1.6370  -17.3110    1.7330 C   0  0  0  0  0  0  0  0  0  0  0  0
   -2.5580  -17.8640    2.6210 C   0  0  0  0  0  0  0  0  0  0  0  0
   -3.3250  -17.0300    3.4290 C   0  0  0  0  0  0  0  0  0  0  0  0
   -3.1780  -15.6420    3.3440 C   0  0  0  0  0  0  0  0  0  0  0  0
   -2.2580  -15.0540    2.4550 C   0  0  0  0  0  0  0  0  0  0  0  0
   -2.1800  -13.5810    2.3830 C   0  0  0  0  0  0  0  0  0  0  0  0
   -1.2710  -12.8630    3.1790 C   0  0  0  0  0  0  0  0  0  0  0  0
   -1.2500  -11.4660    3.1600 C   0  0  0  0  0  0  0  0  0  0  0  0
   -2.1280  -10.7650    2.3380 C   0  0  0  0  0  0  0  0  0  0  0  0
   -3.0190  -11.4590    1.5230 C   0  0  0  0  0  0  0  0  0  0  0  0
   -3.0430  -12.8560    1.5430 C   0  0  0  0  0  0  0  0  0  0  0  0
    2.8580  -15.0390    0.1440 C   0  0  0  0  0  0  0  0  0  0  0  0
    3.9950  -14.3910   -0.3370 C   0  0  0  0  0  0  0  0  0  0  0  0
    7.1110  -13.0910   -2.2820 C   0  0  0  0  0  0  0  0  0  0  0  0
    7.0970  -14.6000   -2.4740 C   0  0  0  0  0  0  0  0  0  0  0  0
    6.8762  -18.0209   -6.2449 H   0  0  0  0  0  0  0  0  0  0  0  0
    5.7754  -17.1224   -7.3438 H   0  0  0  0  0  0  0  0  0  0  0  0
    7.5352  -16.7621   -7.3438 H   0  0  0  0  0  0  0  0  0  0  0  0
    4.1495  -13.0050   -6.3717 H   0  0  0  0  0  0  0  0  0  0  0  0
    2.7121  -10.9917   -6.1446 H   0  0  0  0  0  0  0  0  0  0  0  0
    2.6811   -9.7400   -3.9897 H   0  0  0  0  0  0  0  0  0  0  0  0
    4.0945  -10.4925   -2.0954 H   0  0  0  0  0  0  0  0  0  0  0  0
    3.0198  -11.1499    0.1627 H   0  0  0  0  0  0  0  0  0  0  0  0
    0.9860  -12.3210    1.0255 H   0  0  0  0  0  0  0  0  0  0  0  0
    0.8530  -15.2240    2.2520 H   0  0  0  0  0  0  0  0  0  0  0  0
   -1.0370  -17.9693    1.0875 H   0  0  0  0  0  0  0  0  0  0  0  0
   -2.6782  -18.9557    2.6829 H   0  0  0  0  0  0  0  0  0  0  0  0
   -4.0481  -17.4633    4.1357 H   0  0  0  0  0  0  0  0  0  0  0  0
   -3.7946  -14.9954    3.9857 H   0  0  0  0  0  0  0  0  0  0  0  0
   -0.5671  -13.4078    3.8252 H   0  0  0  0  0  0  0  0  0  0  0  0
   -0.5383  -10.9190    3.7958 H   0  0  0  0  0  0  0  0  0  0  0  0
   -2.1181   -9.6651    2.3322 H   0  0  0  0  0  0  0  0  0  0  0  0
   -3.7044  -10.9070    0.8630 H   0  0  0  0  0  0  0  0  0  0  0  0
   -3.7469  -13.3958    0.8925 H   0  0  0  0  0  0  0  0  0  0  0  0
    2.8006  -16.1370    0.1098 H   0  0  0  0  0  0  0  0  0  0  0  0
    4.8279  -14.9711   -0.7609 H   0  0  0  0  0  0  0  0  0  0  0  0
    7.4920  -12.6243   -3.2023 H   0  0  0  0  0  0  0  0  0  0  0  0
    7.7535  -12.8761   -1.4154 H   0  0  0  0  0  0  0  0  0  0  0  0
    8.1168  -14.9923   -2.3471 H   0  0  0  0  0  0  0  0  0  0  0  0
    6.4265  -15.0515   -1.7279 H   0  0  0  0  0  0  0  0  0  0  0  0
  1  2  1  0
  2  3  2  0
  3  4  1  0
  4  5  2  0
  5  6  1  0
  5  7  1  0
  7  8  2  0
  8  9  1  0
  9 10  2  0
 10 11  1  0
 11 12  2  0
 12 13  1  0
 13 14  1  0
 14 15  2  0
 14 16  1  0
 16 17  2  0
 17 18  1  0
 18 19  2  0
 19 20  1  0
 20 21  1  0
 21 22  2  0
 21 23  1  0
 23 24  2  0
 24 25  1  0
 25 26  2  0
 26 27  1  0
 27 28  2  0
 28 29  1  0
 29 30  2  0
 30 31  1  0
 31 32  2  0
 32 33  1  0
 33 34  2  0
 19 35  1  0
 35 36  2  0
 13 37  1  0
 37 38  1  0
  6  2  1  0
 12  7  1  0
 36 16  1  0
 38  4  1  0
 28 23  1  0
 34 29  1  0
  1 39  1  0
  1 40  1  0
  1 41  1  0
  8 42  1  0
  9 43  1  0
 10 44  1  0
 11 45  1  0
 17 46  1  0
 18 47  1  0
 20 48  1  0
 24 49  1  0
 25 50  1  0
 26 51  1  0
 27 52  1  0
 30 53  1  0
 31 54  1  0
 32 55  1  0
 33 56  1  0
 34 57  1  0
 35 58  1  0
 36 59  1  0
 37 60  1  0
 37 61  1  0
 38 62  1  0
 38 63  1  0
M  CHG  1   6  -1
M  END
>  <meeko>  (9) 
{"is_sidechain": [false], "free_energy": -6.967, "intermolecular_energy": -10.838, "internal_energy": -1.272}

$$$$
