LIB_BVSAMPPWSKMOPZ__M_PUB_ALL__e8__s20260927
     RDKit          3D

 81 85  0  0  0  0  0  0  0  0999 V2000
    6.1890  -11.9480   -2.4950 C   0  0  0  0  0  0  0  0  0  0  0  0
    5.3250  -12.9770   -2.4260 C   0  0  0  0  0  0  0  0  0  0  0  0
    5.2850  -14.1670   -3.3950 C   0  0  2  0  0  0  0  0  0  0  0  0
    6.5090  -14.3140   -4.3700 C   0  0  1  0  0  0  0  0  0  0  0  0
    7.1660  -15.7000   -4.1940 C   0  0  0  0  0  0  0  0  0  0  0  0
    6.2210  -14.1070   -5.8860 C   0  0  1  0  0  0  0  0  0  0  0  0
    5.9720  -12.6570   -6.3020 C   0  0  0  0  0  0  0  0  0  0  0  0
    5.8710  -12.5830   -7.7910 C   0  0  0  0  0  0  0  0  0  0  0  0
    6.4520  -13.4970   -8.5850 C   0  0  0  0  0  0  0  0  0  0  0  0
    6.3690  -13.4560  -10.0810 C   0  0  0  0  0  0  0  0  0  0  0  0
    7.2890  -14.5820   -8.0070 C   0  0  0  0  0  0  0  0  0  0  0  0
    7.9720  -15.3110   -8.7150 O   0  0  0  0  0  0  0  0  0  0  0  0
    7.2890  -14.6980   -6.6540 O   0  0  0  0  0  0  0  0  0  0  0  0
    3.9120  -14.0880   -4.0920 C   0  0  0  0  0  0  0  0  0  0  0  0
    2.7760  -14.2350   -3.0750 C   0  0  0  0  0  0  0  0  0  0  0  0
    2.7800  -13.1790   -1.9370 C   0  0  2  0  0  0  0  0  0  0  0  0
    2.2130  -11.8550   -2.4840 C   0  0  0  0  0  0  0  0  0  0  0  0
    4.2160  -12.9290   -1.3900 C   0  0  1  0  0  0  0  0  0  0  0  0
    4.3540  -13.9100   -0.2230 C   0  0  0  0  0  0  0  0  0  0  0  0
    2.9980  -13.7480    0.4800 C   0  0  2  0  0  0  0  0  0  0  0  0
    2.9830  -12.4870    1.1420 O   0  0  0  0  0  0  0  0  0  0  0  0
    2.7080  -14.8230    1.4870 C   0  0  0  0  0  0  0  0  0  0  0  0
    1.5410  -14.9740    2.1530 C   0  0  0  0  0  0  0  0  0  0  0  0
    1.3580  -16.2150    2.8830 C   0  0  0  0  0  0  0  0  0  0  0  0
    0.2340  -16.7660    3.3590 C   0  0  0  0  0  0  0  0  0  0  0  0
   -1.1690  -16.3310    3.3020 C   0  0  0  0  0  0  0  0  0  0  0  0
   -2.0490  -17.1850    3.3610 O   0  0  0  0  0  0  0  0  0  0  0  0
   -1.4760  -15.0260    3.2400 O   0  0  0  0  0  0  0  0  0  0  0  0
   -0.5580  -13.9110    3.3040 C   0  0  0  0  0  0  0  0  0  0  0  0
   -1.4850  -12.6700    3.2470 C   0  0  0  0  0  0  0  0  0  0  0  0
    0.1340  -13.8240    4.6830 C   0  0  0  0  0  0  0  0  0  0  0  0
    0.4380  -13.9090    2.0910 C   0  0  2  0  0  0  0  0  0  0  0  0
   -0.2310  -13.8630    0.6780 C   0  0  2  0  0  0  0  0  0  0  0  0
   -0.5660  -15.2010    0.2440 O   0  0  0  0  0  0  0  0  0  0  0  0
   -1.5750  -15.3160   -0.6610 C   0  0  0  0  0  0  0  0  0  0  0  0
   -2.7350  -14.4670   -0.2390 C   0  0  0  0  0  0  0  0  0  0  0  0
   -1.5560  -16.0120   -1.6660 O   0  0  0  0  0  0  0  0  0  0  0  0
    0.6240  -13.1460   -0.3940 C   0  0  0  0  0  0  0  0  0  0  0  0
    1.9910  -13.7770   -0.7000 C   0  0  1  0  0  0  0  0  0  0  0  0
    6.1401  -11.1381   -1.7523 H   0  0  0  0  0  0  0  0  0  0  0  0
    6.9443  -11.9166   -3.2941 H   0  0  0  0  0  0  0  0  0  0  0  0
    5.3947  -15.1047   -2.8305 H   0  0  0  0  0  0  0  0  0  0  0  0
    7.1719  -13.4872   -4.0751 H   0  0  0  0  0  0  0  0  0  0  0  0
    7.2714  -15.9223   -3.1219 H   0  0  0  0  0  0  0  0  0  0  0  0
    6.5358  -16.4673   -4.6674 H   0  0  0  0  0  0  0  0  0  0  0  0
    8.1589  -15.6979   -4.6674 H   0  0  0  0  0  0  0  0  0  0  0  0
    5.2679  -14.6139   -6.0973 H   0  0  0  0  0  0  0  0  0  0  0  0
    5.0337  -12.3010   -5.8515 H   0  0  0  0  0  0  0  0  0  0  0  0
    6.8037  -12.0255   -5.9564 H   0  0  0  0  0  0  0  0  0  0  0  0
    5.3057  -11.7579   -8.2489 H   0  0  0  0  0  0  0  0  0  0  0  0
    5.4206  -12.9875  -10.3829 H   0  0  0  0  0  0  0  0  0  0  0  0
    7.2105  -12.8699  -10.4790 H   0  0  0  0  0  0  0  0  0  0  0  0
    6.4150  -14.4804  -10.4790 H   0  0  0  0  0  0  0  0  0  0  0  0
    3.8197  -13.1154   -4.5976 H   0  0  0  0  0  0  0  0  0  0  0  0
    3.8397  -14.9076   -4.8220 H   0  0  0  0  0  0  0  0  0  0  0  0
    1.8210  -14.1529   -3.6146 H   0  0  0  0  0  0  0  0  0  0  0  0
    2.9185  -15.2124   -2.5908 H   0  0  0  0  0  0  0  0  0  0  0  0
    1.9331  -11.2014   -1.6447 H   0  0  0  0  0  0  0  0  0  0  0  0
    2.9762  -11.3556   -3.0989 H   0  0  0  0  0  0  0  0  0  0  0  0
    1.3249  -12.0627   -3.0989 H   0  0  0  0  0  0  0  0  0  0  0  0
    4.3430  -11.8901   -1.0516 H   0  0  0  0  0  0  0  0  0  0  0  0
    4.5003  -14.9401   -0.5800 H   0  0  0  0  0  0  0  0  0  0  0  0
    5.2203  -13.7139    0.4259 H   0  0  0  0  0  0  0  0  0  0  0  0
    2.9540  -11.8010    0.4530 H   0  0  0  0  0  0  0  0  0  0  0  0
    3.5093  -15.5459    1.7002 H   0  0  0  0  0  0  0  0  0  0  0  0
    2.2780  -16.7872    3.0733 H   0  0  0  0  0  0  0  0  0  0  0  0
    0.3888  -17.7173    3.8892 H   0  0  0  0  0  0  0  0  0  0  0  0
   -1.7271  -12.3459    4.2699 H   0  0  0  0  0  0  0  0  0  0  0  0
   -0.9733  -11.8542    2.7153 H   0  0  0  0  0  0  0  0  0  0  0  0
   -2.4124  -12.9292    2.7153 H   0  0  0  0  0  0  0  0  0  0  0  0
   -0.6200  -13.9188    5.4783 H   0  0  0  0  0  0  0  0  0  0  0  0
    0.8693  -14.6368    4.7762 H   0  0  0  0  0  0  0  0  0  0  0  0
    0.6453  -12.8545    4.7762 H   0  0  0  0  0  0  0  0  0  0  0  0
    0.9387  -12.9384    2.2224 H   0  0  0  0  0  0  0  0  0  0  0  0
   -1.1460  -13.2624    0.7874 H   0  0  0  0  0  0  0  0  0  0  0  0
   -2.7832  -14.4317    0.8594 H   0  0  0  0  0  0  0  0  0  0  0  0
   -2.6063  -13.4482   -0.6333 H   0  0  0  0  0  0  0  0  0  0  0  0
   -3.6672  -14.8977   -0.6333 H   0  0  0  0  0  0  0  0  0  0  0  0
    0.0450  -13.1280   -1.3291 H   0  0  0  0  0  0  0  0  0  0  0  0
    0.8435  -12.1507    0.0197 H   0  0  0  0  0  0  0  0  0  0  0  0
    1.6641  -14.8024   -0.9274 H   0  0  0  0  0  0  0  0  0  0  0  0
  1  2  2  0
  2  3  1  0
  3  4  1  0
  4  5  1  0
  4  6  1  0
  6  7  1  0
  7  8  1  0
  8  9  2  0
  9 10  1  0
  9 11  1  0
 11 12  2  0
 11 13  1  0
  3 14  1  0
 14 15  1  0
 15 16  1  0
 16 17  1  6
 16 18  1  0
 18 19  1  0
 19 20  1  0
 20 21  1  1
 20 22  1  0
 22 23  2  0
 23 24  1  0
 24 25  2  0
 25 26  1  0
 26 27  2  0
 26 28  1  0
 28 29  1  0
 29 30  1  0
 29 31  1  0
 29 32  1  0
 32 33  1  0
 33 34  1  0
 34 35  1  0
 35 36  1  0
 35 37  2  0
 33 38  1  0
 38 39  1  0
 18  2  1  0
 39 20  1  0
 13  6  1  0
 39 16  1  0
 32 23  1  0
  1 40  1  0
  1 41  1  0
  3 42  1  1
  4 43  1  1
  5 44  1  0
  5 45  1  0
  5 46  1  0
  6 47  1  6
  7 48  1  0
  7 49  1  0
  8 50  1  0
 10 51  1  0
 10 52  1  0
 10 53  1  0
 14 54  1  0
 14 55  1  0
 15 56  1  0
 15 57  1  0
 17 58  1  0
 17 59  1  0
 17 60  1  0
 18 61  1  1
 19 62  1  0
 19 63  1  0
 21 64  1  0
 22 65  1  0
 24 66  1  0
 25 67  1  0
 30 68  1  0
 30 69  1  0
 30 70  1  0
 31 71  1  0
 31 72  1  0
 31 73  1  0
 32 74  1  1
 33 75  1  1
 36 76  1  0
 36 77  1  0
 36 78  1  0
 38 79  1  0
 38 80  1  0
 39 81  1  6
M  END
>  <meeko>  (1) 
{"is_sidechain": [false], "free_energy": -6.011, "intermolecular_energy": -10.403, "internal_energy": 0.966}

$$$$
LIB_BVSAMPPWSKMOPZ__M_PUB_ALL__e8__s20260927
     RDKit          3D

 81 85  0  0  0  0  0  0  0  0999 V2000
    1.7710  -13.3390   -2.4350 C   0  0  0  0  0  0  0  0  0  0  0  0
    2.7700  -13.5070   -1.5490 C   0  0  0  0  0  0  0  0  0  0  0  0
    2.6140  -13.4860   -0.0220 C   0  0  2  0  0  0  0  0  0  0  0  0
    1.1430  -13.5350    0.5280 C   0  0  1  0  0  0  0  0  0  0  0  0
    1.0230  -14.6080    1.6330 C   0  0  0  0  0  0  0  0  0  0  0  0
    0.5620  -12.2040    1.0870 C   0  0  1  0  0  0  0  0  0  0  0  0
    0.4090  -11.0850    0.0560 C   0  0  0  0  0  0  0  0  0  0  0  0
   -0.3000   -9.9300    0.6840 C   0  0  0  0  0  0  0  0  0  0  0  0
   -1.1210  -10.0910    1.7350 C   0  0  0  0  0  0  0  0  0  0  0  0
   -1.8470   -8.9570    2.3920 C   0  0  0  0  0  0  0  0  0  0  0  0
   -1.4130  -11.4500    2.2670 C   0  0  0  0  0  0  0  0  0  0  0  0
   -2.2920  -11.6360    3.1000 O   0  0  0  0  0  0  0  0  0  0  0  0
   -0.6860  -12.4760    1.7560 O   0  0  0  0  0  0  0  0  0  0  0  0
    3.4430  -12.2810    0.4630 C   0  0  0  0  0  0  0  0  0  0  0  0
    4.9240  -12.4640    0.1170 C   0  0  0  0  0  0  0  0  0  0  0  0
    5.2200  -12.6520   -1.3950 C   0  0  2  0  0  0  0  0  0  0  0  0
    5.1550  -11.2790   -2.0900 C   0  0  0  0  0  0  0  0  0  0  0  0
    4.1930  -13.6100   -2.0680 C   0  0  1  0  0  0  0  0  0  0  0  0
    4.8400  -14.9940   -1.9630 C   0  0  0  0  0  0  0  0  0  0  0  0
    6.2930  -14.6880   -2.3540 C   0  0  2  0  0  0  0  0  0  0  0  0
    6.3370  -14.4360   -3.7560 O   0  0  0  0  0  0  0  0  0  0  0  0
    7.2510  -15.7980   -2.0350 C   0  0  0  0  0  0  0  0  0  0  0  0
    8.5940  -15.7350   -2.1770 C   0  0  0  0  0  0  0  0  0  0  0  0
    9.3690  -16.8040   -1.5750 C   0  0  0  0  0  0  0  0  0  0  0  0
   10.6730  -16.8480   -1.2770 C   0  0  0  0  0  0  0  0  0  0  0  0
   11.7180  -15.8360   -1.4320 C   0  0  0  0  0  0  0  0  0  0  0  0
   12.6490  -15.8430   -0.6300 O   0  0  0  0  0  0  0  0  0  0  0  0
   11.6950  -14.9680   -2.4550 O   0  0  0  0  0  0  0  0  0  0  0  0
   10.6890  -14.8670   -3.4880 C   0  0  0  0  0  0  0  0  0  0  0  0
   11.1800  -13.6840   -4.3610 C   0  0  0  0  0  0  0  0  0  0  0  0
   10.7170  -16.0920   -4.4300 C   0  0  0  0  0  0  0  0  0  0  0  0
    9.2720  -14.5570   -2.8900 C   0  0  2  0  0  0  0  0  0  0  0  0
    9.1740  -13.2400   -2.0200 C   0  0  2  0  0  0  0  0  0  0  0  0
    9.5410  -13.5150   -0.6490 O   0  0  0  0  0  0  0  0  0  0  0  0
   10.3200  -12.5900   -0.0260 C   0  0  0  0  0  0  0  0  0  0  0  0
   11.3050  -12.0180   -1.0000 C   0  0  0  0  0  0  0  0  0  0  0  0
   10.2480  -12.2720    1.1510 O   0  0  0  0  0  0  0  0  0  0  0  0
    7.7800  -12.5710   -2.0820 C   0  0  0  0  0  0  0  0  0  0  0  0
    6.6080  -13.4040   -1.5420 C   0  0  1  0  0  0  0  0  0  0  0  0
    1.9818  -13.3705   -3.5141 H   0  0  0  0  0  0  0  0  0  0  0  0
    0.7436  -13.1702   -2.0800 H   0  0  0  0  0  0  0  0  0  0  0  0
    2.9932  -14.4285    0.3998 H   0  0  0  0  0  0  0  0  0  0  0  0
    0.5452  -13.7715   -0.3646 H   0  0  0  0  0  0  0  0  0  0  0  0
    1.0770  -14.1255    2.6200 H   0  0  0  0  0  0  0  0  0  0  0  0
    0.0607  -15.1314    1.5329 H   0  0  0  0  0  0  0  0  0  0  0  0
    1.8459  -15.3311    1.5329 H   0  0  0  0  0  0  0  0  0  0  0  0
    1.3032  -11.8132    1.7997 H   0  0  0  0  0  0  0  0  0  0  0  0
    1.4032  -10.7633   -0.2876 H   0  0  0  0  0  0  0  0  0  0  0  0
   -0.1721  -11.4517   -0.8030 H   0  0  0  0  0  0  0  0  0  0  0  0
   -0.1457   -8.9206    0.2749 H   0  0  0  0  0  0  0  0  0  0  0  0
   -1.7795   -9.0625    3.4848 H   0  0  0  0  0  0  0  0  0  0  0  0
   -1.3909   -8.0037    2.0868 H   0  0  0  0  0  0  0  0  0  0  0  0
   -2.9037   -8.9722    2.0868 H   0  0  0  0  0  0  0  0  0  0  0  0
    3.0695  -11.3675   -0.0228 H   0  0  0  0  0  0  0  0  0  0  0  0
    3.3437  -12.2020    1.5557 H   0  0  0  0  0  0  0  0  0  0  0  0
    5.4692  -11.5741    0.4645 H   0  0  0  0  0  0  0  0  0  0  0  0
    5.2461  -13.3912    0.6135 H   0  0  0  0  0  0  0  0  0  0  0  0
    5.1174  -10.4847   -1.3299 H   0  0  0  0  0  0  0  0  0  0  0  0
    6.0477  -11.1434   -2.7182 H   0  0  0  0  0  0  0  0  0  0  0  0
    4.2535  -11.2283   -2.7182 H   0  0  0  0  0  0  0  0  0  0  0  0
    4.0128  -13.3349   -3.1177 H   0  0  0  0  0  0  0  0  0  0  0  0
    4.7752  -15.3904   -0.9390 H   0  0  0  0  0  0  0  0  0  0  0  0
    4.3605  -15.7601   -2.5899 H   0  0  0  0  0  0  0  0  0  0  0  0
    5.4400  -14.1760   -4.0300 H   0  0  0  0  0  0  0  0  0  0  0  0
    6.8263  -16.7389   -1.6550 H   0  0  0  0  0  0  0  0  0  0  0  0
    8.8006  -17.7125   -1.3269 H   0  0  0  0  0  0  0  0  0  0  0  0
   11.0147  -17.8002   -0.8452 H   0  0  0  0  0  0  0  0  0  0  0  0
   11.5201  -12.8647   -3.7105 H   0  0  0  0  0  0  0  0  0  0  0  0
   12.0137  -14.0182   -4.9960 H   0  0  0  0  0  0  0  0  0  0  0  0
   10.3547  -13.3296   -4.9960 H   0  0  0  0  0  0  0  0  0  0  0  0
   10.7381  -17.0145   -3.8313 H   0  0  0  0  0  0  0  0  0  0  0  0
    9.8185  -16.0872   -5.0646 H   0  0  0  0  0  0  0  0  0  0  0  0
   11.6143  -16.0461   -5.0646 H   0  0  0  0  0  0  0  0  0  0  0  0
    8.6943  -14.3656   -3.8063 H   0  0  0  0  0  0  0  0  0  0  0  0
    9.8849  -12.5222   -2.4552 H   0  0  0  0  0  0  0  0  0  0  0  0
   12.1288  -11.5396   -0.4501 H   0  0  0  0  0  0  0  0  0  0  0  0
   11.7056  -12.8240   -1.6324 H   0  0  0  0  0  0  0  0  0  0  0  0
   10.8035  -11.2706   -1.6324 H   0  0  0  0  0  0  0  0  0  0  0  0
    7.8276  -11.6396   -1.4987 H   0  0  0  0  0  0  0  0  0  0  0  0
    7.5700  -12.4226   -3.1515 H   0  0  0  0  0  0  0  0  0  0  0  0
    7.0094  -13.6446   -0.5465 H   0  0  0  0  0  0  0  0  0  0  0  0
  1  2  2  0
  2  3  1  0
  3  4  1  0
  4  5  1  0
  4  6  1  0
  6  7  1  0
  7  8  1  0
  8  9  2  0
  9 10  1  0
  9 11  1  0
 11 12  2  0
 11 13  1  0
  3 14  1  0
 14 15  1  0
 15 16  1  0
 16 17  1  6
 16 18  1  0
 18 19  1  0
 19 20  1  0
 20 21  1  6
 20 22  1  0
 22 23  2  0
 23 24  1  0
 24 25  2  0
 25 26  1  0
 26 27  2  0
 26 28  1  0
 28 29  1  0
 29 30  1  0
 29 31  1  0
 29 32  1  0
 32 33  1  0
 33 34  1  0
 34 35  1  0
 35 36  1  0
 35 37  2  0
 33 38  1  0
 38 39  1  0
 18  2  1  0
 39 20  1  0
 13  6  1  0
 39 16  1  0
 32 23  1  0
  1 40  1  0
  1 41  1  0
  3 42  1  1
  4 43  1  6
  5 44  1  0
  5 45  1  0
  5 46  1  0
  6 47  1  1
  7 48  1  0
  7 49  1  0
  8 50  1  0
 10 51  1  0
 10 52  1  0
 10 53  1  0
 14 54  1  0
 14 55  1  0
 15 56  1  0
 15 57  1  0
 17 58  1  0
 17 59  1  0
 17 60  1  0
 18 61  1  6
 19 62  1  0
 19 63  1  0
 21 64  1  0
 22 65  1  0
 24 66  1  0
 25 67  1  0
 30 68  1  0
 30 69  1  0
 30 70  1  0
 31 71  1  0
 31 72  1  0
 31 73  1  0
 32 74  1  6
 33 75  1  6
 36 76  1  0
 36 77  1  0
 36 78  1  0
 38 79  1  0
 38 80  1  0
 39 81  1  1
M  END
>  <meeko>  (2) 
{"is_sidechain": [false], "free_energy": -5.754, "intermolecular_energy": -9.971, "internal_energy": 0.979}

$$$$
LIB_BVSAMPPWSKMOPZ__M_PUB_ALL__e8__s20260927
     RDKit          3D

 81 85  0  0  0  0  0  0  0  0999 V2000
   10.0160  -11.8540    0.6840 C   0  0  0  0  0  0  0  0  0  0  0  0
    9.2200  -12.5190   -0.1730 C   0  0  0  0  0  0  0  0  0  0  0  0
    9.6960  -13.2780   -1.4190 C   0  0  2  0  0  0  0  0  0  0  0  0
   11.2450  -13.5080   -1.5440 C   0  0  1  0  0  0  0  0  0  0  0  0
   11.6650  -14.7560   -0.7360 C   0  0  0  0  0  0  0  0  0  0  0  0
   11.8140  -13.6550   -2.9860 C   0  0  1  0  0  0  0  0  0  0  0  0
   13.1960  -13.0380   -3.2000 C   0  0  0  0  0  0  0  0  0  0  0  0
   13.6850  -13.3890   -4.5670 C   0  0  0  0  0  0  0  0  0  0  0  0
   13.2490  -14.4800   -5.2160 C   0  0  0  0  0  0  0  0  0  0  0  0
   13.7160  -14.8610   -6.5880 C   0  0  0  0  0  0  0  0  0  0  0  0
   12.3110  -15.4290   -4.5580 C   0  0  0  0  0  0  0  0  0  0  0  0
   12.0450  -16.5160   -5.0560 O   0  0  0  0  0  0  0  0  0  0  0  0
   11.7970  -15.0480   -3.3600 O   0  0  0  0  0  0  0  0  0  0  0  0
    9.0540  -12.5530   -2.6170 C   0  0  0  0  0  0  0  0  0  0  0  0
    7.5250  -12.6270   -2.5440 C   0  0  0  0  0  0  0  0  0  0  0  0
    6.9060  -12.0270   -1.2520 C   0  0  2  0  0  0  0  0  0  0  0  0
    6.8960  -10.4920   -1.3720 C   0  0  0  0  0  0  0  0  0  0  0  0
    7.7150  -12.4320    0.0150 C   0  0  1  0  0  0  0  0  0  0  0  0
    7.0320  -13.7100    0.5090 C   0  0  0  0  0  0  0  0  0  0  0  0
    5.5470  -13.3420    0.3720 C   0  0  2  0  0  0  0  0  0  0  0  0
    5.2220  -12.4070    1.3970 O   0  0  0  0  0  0  0  0  0  0  0  0
    4.6210  -14.5180    0.4820 C   0  0  0  0  0  0  0  0  0  0  0  0
    3.2850  -14.4790    0.2810 C   0  0  0  0  0  0  0  0  0  0  0  0
    2.6000  -15.7540    0.1740 C   0  0  0  0  0  0  0  0  0  0  0  0
    1.3870  -16.0310   -0.3200 C   0  0  0  0  0  0  0  0  0  0  0  0
    0.3640  -15.2040   -0.9250 C   0  0  0  0  0  0  0  0  0  0  0  0
   -0.4280  -15.7200   -1.7080 O   0  0  0  0  0  0  0  0  0  0  0  0
    0.2670  -13.9050   -0.6010 O   0  0  0  0  0  0  0  0  0  0  0  0
    1.0000  -13.2080    0.4320 C   0  0  0  0  0  0  0  0  0  0  0  0
    0.3880  -11.7840    0.4160 C   0  0  0  0  0  0  0  0  0  0  0  0
    0.6690  -13.7640    1.8350 C   0  0  0  0  0  0  0  0  0  0  0  0
    2.5360  -13.1500    0.1160 C   0  0  2  0  0  0  0  0  0  0  0  0
    2.8840  -12.4660   -1.2560 C   0  0  2  0  0  0  0  0  0  0  0  0
    2.8000  -13.4250   -2.3340 O   0  0  0  0  0  0  0  0  0  0  0  0
    2.2270  -12.9960   -3.4910 C   0  0  0  0  0  0  0  0  0  0  0  0
    1.6630  -14.1640   -4.2410 C   0  0  0  0  0  0  0  0  0  0  0  0
    2.1810  -11.8380   -3.8790 O   0  0  0  0  0  0  0  0  0  0  0  0
    4.2670  -11.7710   -1.2570 C   0  0  0  0  0  0  0  0  0  0  0  0
    5.4810  -12.6840   -1.0310 C   0  0  1  0  0  0  0  0  0  0  0  0
    9.5800  -11.3383    1.5523 H   0  0  0  0  0  0  0  0  0  0  0  0
   11.1028  -11.8260    0.5163 H   0  0  0  0  0  0  0  0  0  0  0  0
    9.3646  -14.3253   -1.3610 H   0  0  0  0  0  0  0  0  0  0  0  0
   11.6746  -12.5770   -1.1456 H   0  0  0  0  0  0  0  0  0  0  0  0
   11.5917  -14.5381    0.3397 H   0  0  0  0  0  0  0  0  0  0  0  0
   11.0000  -15.5957   -0.9862 H   0  0  0  0  0  0  0  0  0  0  0  0
   12.7024  -15.0228   -0.9862 H   0  0  0  0  0  0  0  0  0  0  0  0
   11.1551  -13.0702   -3.6447 H   0  0  0  0  0  0  0  0  0  0  0  0
   13.1296  -11.9443   -3.1027 H   0  0  0  0  0  0  0  0  0  0  0  0
   13.8954  -13.4284   -2.4461 H   0  0  0  0  0  0  0  0  0  0  0  0
   14.4228  -12.7354   -5.0553 H   0  0  0  0  0  0  0  0  0  0  0  0
   14.5660  -15.5545   -6.5066 H   0  0  0  0  0  0  0  0  0  0  0  0
   12.8946  -15.3500   -7.1323 H   0  0  0  0  0  0  0  0  0  0  0  0
   14.0302  -13.9582   -7.1323 H   0  0  0  0  0  0  0  0  0  0  0  0
    9.3646  -11.4978   -2.6082 H   0  0  0  0  0  0  0  0  0  0  0  0
    9.3862  -13.0429   -3.5441 H   0  0  0  0  0  0  0  0  0  0  0  0
    7.1142  -12.0810   -3.4060 H   0  0  0  0  0  0  0  0  0  0  0  0
    7.2658  -13.6960   -2.5446 H   0  0  0  0  0  0  0  0  0  0  0  0
    6.8931  -10.0456   -0.3666 H   0  0  0  0  0  0  0  0  0  0  0  0
    7.7920  -10.1610   -1.9175 H   0  0  0  0  0  0  0  0  0  0  0  0
    5.9958  -10.1727   -1.9175 H   0  0  0  0  0  0  0  0  0  0  0  0
    7.6840  -11.6440    0.7818 H   0  0  0  0  0  0  0  0  0  0  0  0
    7.2912  -14.5729   -0.1221 H   0  0  0  0  0  0  0  0  0  0  0  0
    7.3261  -14.0091    1.5259 H   0  0  0  0  0  0  0  0  0  0  0  0
    4.2560  -12.2900    1.3840 H   0  0  0  0  0  0  0  0  0  0  0  0
    5.0649  -15.4888    0.7473 H   0  0  0  0  0  0  0  0  0  0  0  0
    3.1602  -16.6206    0.5550 H   0  0  0  0  0  0  0  0  0  0  0  0
    1.1142  -17.0945   -0.2533 H   0  0  0  0  0  0  0  0  0  0  0  0
    0.2390  -11.4373    1.4493 H   0  0  0  0  0  0  0  0  0  0  0  0
    1.0705  -11.0974   -0.1063 H   0  0  0  0  0  0  0  0  0  0  0  0
   -0.5798  -11.8067   -0.1063 H   0  0  0  0  0  0  0  0  0  0  0  0
    1.0722  -13.0867    2.6023 H   0  0  0  0  0  0  0  0  0  0  0  0
   -0.4222  -13.8411    1.9508 H   0  0  0  0  0  0  0  0  0  0  0  0
    1.1213  -14.7600    1.9508 H   0  0  0  0  0  0  0  0  0  0  0  0
    2.9155  -12.4906    0.9105 H   0  0  0  0  0  0  0  0  0  0  0  0
    2.1358  -11.6744   -1.4098 H   0  0  0  0  0  0  0  0  0  0  0  0
    1.2992  -14.9173   -3.5267 H   0  0  0  0  0  0  0  0  0  0  0  0
    0.8291  -13.8255   -4.8734 H   0  0  0  0  0  0  0  0  0  0  0  0
    2.4466  -14.6066   -4.8734 H   0  0  0  0  0  0  0  0  0  0  0  0
    4.3945  -11.2771   -2.2316 H   0  0  0  0  0  0  0  0  0  0  0  0
    4.2521  -11.0811   -0.4004 H   0  0  0  0  0  0  0  0  0  0  0  0
    5.2884  -13.4285   -1.8175 H   0  0  0  0  0  0  0  0  0  0  0  0
  1  2  2  0
  2  3  1  0
  3  4  1  0
  4  5  1  0
  4  6  1  0
  6  7  1  0
  7  8  1  0
  8  9  2  0
  9 10  1  0
  9 11  1  0
 11 12  2  0
 11 13  1  0
  3 14  1  0
 14 15  1  0
 15 16  1  0
 16 17  1  6
 16 18  1  0
 18 19  1  0
 19 20  1  0
 20 21  1  1
 20 22  1  0
 22 23  2  0
 23 24  1  0
 24 25  2  0
 25 26  1  0
 26 27  2  0
 26 28  1  0
 28 29  1  0
 29 30  1  0
 29 31  1  0
 29 32  1  0
 32 33  1  0
 33 34  1  0
 34 35  1  0
 35 36  1  0
 35 37  2  0
 33 38  1  0
 38 39  1  0
 18  2  1  0
 39 20  1  0
 13  6  1  0
 39 16  1  0
 32 23  1  0
  1 40  1  0
  1 41  1  0
  3 42  1  1
  4 43  1  1
  5 44  1  0
  5 45  1  0
  5 46  1  0
  6 47  1  6
  7 48  1  0
  7 49  1  0
  8 50  1  0
 10 51  1  0
 10 52  1  0
 10 53  1  0
 14 54  1  0
 14 55  1  0
 15 56  1  0
 15 57  1  0
 17 58  1  0
 17 59  1  0
 17 60  1  0
 18 61  1  1
 19 62  1  0
 19 63  1  0
 21 64  1  0
 22 65  1  0
 24 66  1  0
 25 67  1  0
 30 68  1  0
 30 69  1  0
 30 70  1  0
 31 71  1  0
 31 72  1  0
 31 73  1  0
 32 74  1  1
 33 75  1  6
 36 76  1  0
 36 77  1  0
 36 78  1  0
 38 79  1  0
 38 80  1  0
 39 81  1  6
M  END
>  <meeko>  (3) 
{"is_sidechain": [false], "free_energy": -5.743, "intermolecular_energy": -10.09, "internal_energy": 1.117}

$$$$
LIB_BVSAMPPWSKMOPZ__M_PUB_ALL__e8__s20260927
     RDKit          3D

 81 85  0  0  0  0  0  0  0  0999 V2000
    6.0480  -13.7680  -10.4340 C   0  0  0  0  0  0  0  0  0  0  0  0
    6.8190  -13.5660   -9.3500 C   0  0  0  0  0  0  0  0  0  0  0  0
    8.3130  -13.2130   -9.3770 C   0  0  2  0  0  0  0  0  0  0  0  0
    8.9070  -12.8040  -10.7730 C   0  0  1  0  0  0  0  0  0  0  0  0
    8.5460  -11.3380  -11.0960 C   0  0  0  0  0  0  0  0  0  0  0  0
   10.4440  -12.9720  -10.9530 C   0  0  1  0  0  0  0  0  0  0  0  0
   10.8890  -13.3650  -12.3620 C   0  0  0  0  0  0  0  0  0  0  0  0
   12.3810  -13.3340  -12.4330 C   0  0  0  0  0  0  0  0  0  0  0  0
   13.1130  -12.5690  -11.6080 C   0  0  0  0  0  0  0  0  0  0  0  0
   14.6090  -12.5150  -11.6490 C   0  0  0  0  0  0  0  0  0  0  0  0
   12.4530  -11.6570  -10.6340 C   0  0  0  0  0  0  0  0  0  0  0  0
   13.0910  -10.8230  -10.0040 O   0  0  0  0  0  0  0  0  0  0  0  0
   11.1050  -11.7700  -10.5090 O   0  0  0  0  0  0  0  0  0  0  0  0
    9.0310  -14.3930   -8.6930 C   0  0  0  0  0  0  0  0  0  0  0  0
    8.5790  -14.5350   -7.2360 C   0  0  0  0  0  0  0  0  0  0  0  0
    7.0530  -14.7460   -7.0450 C   0  0  2  0  0  0  0  0  0  0  0  0
    6.7090  -16.2130   -7.3670 C   0  0  0  0  0  0  0  0  0  0  0  0
    6.2220  -13.8140   -7.9760 C   0  0  1  0  0  0  0  0  0  0  0  0
    5.9630  -12.5650   -7.1290 C   0  0  0  0  0  0  0  0  0  0  0  0
    5.5860  -13.1820   -5.7740 C   0  0  2  0  0  0  0  0  0  0  0  0
    4.2850  -13.7500   -5.8860 O   0  0  0  0  0  0  0  0  0  0  0  0
    5.5850  -12.1960   -4.6420 C   0  0  0  0  0  0  0  0  0  0  0  0
    5.3920  -12.5050   -3.3390 C   0  0  0  0  0  0  0  0  0  0  0  0
    5.6840  -11.4670   -2.3680 C   0  0  0  0  0  0  0  0  0  0  0  0
    5.8920  -11.5670   -1.0500 C   0  0  0  0  0  0  0  0  0  0  0  0
    5.8990  -12.7090   -0.1520 C   0  0  0  0  0  0  0  0  0  0  0  0
    6.5550  -12.6290    0.8830 O   0  0  0  0  0  0  0  0  0  0  0  0
    5.1630  -13.7990   -0.4200 O   0  0  0  0  0  0  0  0  0  0  0  0
    4.2270  -13.9720   -1.5080 C   0  0  0  0  0  0  0  0  0  0  0  0
    3.6400  -15.3850   -1.2650 C   0  0  0  0  0  0  0  0  0  0  0  0
    3.0200  -13.0150   -1.3760 C   0  0  0  0  0  0  0  0  0  0  0  0
    4.9400  -13.9060   -2.9040 C   0  0  2  0  0  0  0  0  0  0  0  0
    6.1030  -14.9560   -3.1170 C   0  0  2  0  0  0  0  0  0  0  0  0
    7.3390  -14.4200   -2.5960 O   0  0  0  0  0  0  0  0  0  0  0  0
    8.2180  -15.3120   -2.0650 C   0  0  0  0  0  0  0  0  0  0  0  0
    7.4730  -16.3780   -1.3210 C   0  0  0  0  0  0  0  0  0  0  0  0
    9.4360  -15.2600   -2.1630 O   0  0  0  0  0  0  0  0  0  0  0  0
    6.2810  -15.3910   -4.5920 C   0  0  0  0  0  0  0  0  0  0  0  0
    6.6640  -14.2800   -5.5810 C   0  0  1  0  0  0  0  0  0  0  0  0
    4.9836  -14.0177  -10.3131 H   0  0  0  0  0  0  0  0  0  0  0  0
    6.4821  -13.6835  -11.4412 H   0  0  0  0  0  0  0  0  0  0  0  0
    8.4783  -12.2727   -8.8307 H   0  0  0  0  0  0  0  0  0  0  0  0
    8.4441  -13.5204  -11.4676 H   0  0  0  0  0  0  0  0  0  0  0  0
    8.4084  -10.7792  -10.1586 H   0  0  0  0  0  0  0  0  0  0  0  0
    9.3583  -10.8804  -11.6798 H   0  0  0  0  0  0  0  0  0  0  0  0
    7.6141  -11.3099  -11.6798 H   0  0  0  0  0  0  0  0  0  0  0  0
   10.7416  -13.8284  -10.3301 H   0  0  0  0  0  0  0  0  0  0  0  0
   10.5308  -14.3795  -12.5913 H   0  0  0  0  0  0  0  0  0  0  0  0
   10.4697  -12.6576  -13.0926 H   0  0  0  0  0  0  0  0  0  0  0  0
   12.8938  -13.9553  -13.1821 H   0  0  0  0  0  0  0  0  0  0  0  0
   15.0037  -12.5008  -10.6223 H   0  0  0  0  0  0  0  0  0  0  0  0
   14.9935  -13.3999  -12.1774 H   0  0  0  0  0  0  0  0  0  0  0  0
   14.9287  -11.6047  -12.1774 H   0  0  0  0  0  0  0  0  0  0  0  0
    8.7965  -15.3209   -9.2353 H   0  0  0  0  0  0  0  0  0  0  0  0
   10.1144  -14.2032   -8.7089 H   0  0  0  0  0  0  0  0  0  0  0  0
    9.1012  -15.3986   -6.7984 H   0  0  0  0  0  0  0  0  0  0  0  0
    8.8241  -13.5833   -6.7418 H   0  0  0  0  0  0  0  0  0  0  0  0
    6.5777  -16.7731   -6.4294 H   0  0  0  0  0  0  0  0  0  0  0  0
    5.7775  -16.2516   -7.9507 H   0  0  0  0  0  0  0  0  0  0  0  0
    7.5263  -16.6616   -7.9507 H   0  0  0  0  0  0  0  0  0  0  0  0
    5.2781  -14.2883   -8.2826 H   0  0  0  0  0  0  0  0  0  0  0  0
    6.8651  -11.9407   -7.0485 H   0  0  0  0  0  0  0  0  0  0  0  0
    5.1959  -11.8947   -7.5439 H   0  0  0  0  0  0  0  0  0  0  0  0
    4.3410  -14.4720   -6.5350 H   0  0  0  0  0  0  0  0  0  0  0  0
    5.7547  -11.1382   -4.8917 H   0  0  0  0  0  0  0  0  0  0  0  0
    5.7431  -10.4471   -2.7757 H   0  0  0  0  0  0  0  0  0  0  0  0
    6.0954  -10.6062   -0.5545 H   0  0  0  0  0  0  0  0  0  0  0  0
    3.5635  -15.5692   -0.1832 H   0  0  0  0  0  0  0  0  0  0  0  0
    2.6404  -15.4500   -1.7196 H   0  0  0  0  0  0  0  0  0  0  0  0
    4.2993  -16.1391   -1.7196 H   0  0  0  0  0  0  0  0  0  0  0  0
    2.8031  -12.8430   -0.3114 H   0  0  0  0  0  0  0  0  0  0  0  0
    3.2570  -12.0567   -1.8613 H   0  0  0  0  0  0  0  0  0  0  0  0
    2.1410  -13.4643   -1.8613 H   0  0  0  0  0  0  0  0  0  0  0  0
    4.1203  -14.2003   -3.5759 H   0  0  0  0  0  0  0  0  0  0  0  0
    5.8196  -15.8648   -2.5658 H   0  0  0  0  0  0  0  0  0  0  0  0
    7.5857  -16.2168   -0.2387 H   0  0  0  0  0  0  0  0  0  0  0  0
    6.4070  -16.3354   -1.5890 H   0  0  0  0  0  0  0  0  0  0  0  0
    7.8794  -17.3644   -1.5890 H   0  0  0  0  0  0  0  0  0  0  0  0
    7.0702  -16.1566   -4.6240 H   0  0  0  0  0  0  0  0  0  0  0  0
    5.2927  -15.7487   -4.9166 H   0  0  0  0  0  0  0  0  0  0  0  0
    7.5532  -13.8865   -5.0667 H   0  0  0  0  0  0  0  0  0  0  0  0
  1  2  2  0
  2  3  1  0
  3  4  1  0
  4  5  1  0
  4  6  1  0
  6  7  1  0
  7  8  1  0
  8  9  2  0
  9 10  1  0
  9 11  1  0
 11 12  2  0
 11 13  1  0
  3 14  1  0
 14 15  1  0
 15 16  1  0
 16 17  1  1
 16 18  1  0
 18 19  1  0
 19 20  1  0
 20 21  1  6
 20 22  1  0
 22 23  2  0
 23 24  1  0
 24 25  2  0
 25 26  1  0
 26 27  2  0
 26 28  1  0
 28 29  1  0
 29 30  1  0
 29 31  1  0
 29 32  1  0
 32 33  1  0
 33 34  1  0
 34 35  1  0
 35 36  1  0
 35 37  2  0
 33 38  1  0
 38 39  1  0
 18  2  1  0
 39 20  1  0
 13  6  1  0
 39 16  1  0
 32 23  1  0
  1 40  1  0
  1 41  1  0
  3 42  1  1
  4 43  1  6
  5 44  1  0
  5 45  1  0
  5 46  1  0
  6 47  1  1
  7 48  1  0
  7 49  1  0
  8 50  1  0
 10 51  1  0
 10 52  1  0
 10 53  1  0
 14 54  1  0
 14 55  1  0
 15 56  1  0
 15 57  1  0
 17 58  1  0
 17 59  1  0
 17 60  1  0
 18 61  1  6
 19 62  1  0
 19 63  1  0
 21 64  1  0
 22 65  1  0
 24 66  1  0
 25 67  1  0
 30 68  1  0
 30 69  1  0
 30 70  1  0
 31 71  1  0
 31 72  1  0
 31 73  1  0
 32 74  1  6
 33 75  1  1
 36 76  1  0
 36 77  1  0
 36 78  1  0
 38 79  1  0
 38 80  1  0
 39 81  1  1
M  END
>  <meeko>  (4) 
{"is_sidechain": [false], "free_energy": -5.64, "intermolecular_energy": -9.741, "internal_energy": 0.947}

$$$$
LIB_BVSAMPPWSKMOPZ__M_PUB_ALL__e8__s20260927
     RDKit          3D

 81 85  0  0  0  0  0  0  0  0999 V2000
    7.6620  -15.8360   -0.7830 C   0  0  0  0  0  0  0  0  0  0  0  0
    6.6590  -14.9810   -1.0560 C   0  0  0  0  0  0  0  0  0  0  0  0
    6.7760  -13.7290   -1.9360 C   0  0  2  0  0  0  0  0  0  0  0  0
    8.0930  -13.5930   -2.7830 C   0  0  1  0  0  0  0  0  0  0  0  0
    7.7920  -12.8930   -4.1260 C   0  0  0  0  0  0  0  0  0  0  0  0
    9.2810  -12.8470   -2.1080 C   0  0  1  0  0  0  0  0  0  0  0  0
    9.7940  -13.4870   -0.8170 C   0  0  0  0  0  0  0  0  0  0  0  0
   11.0240  -12.7690   -0.3680 C   0  0  0  0  0  0  0  0  0  0  0  0
   11.8080  -12.1000   -1.2290 C   0  0  0  0  0  0  0  0  0  0  0  0
   13.0470  -11.3680   -0.8140 C   0  0  0  0  0  0  0  0  0  0  0  0
   11.5160  -12.1160   -2.6880 C   0  0  0  0  0  0  0  0  0  0  0  0
   12.3120  -11.6700   -3.5060 O   0  0  0  0  0  0  0  0  0  0  0  0
   10.3420  -12.6830   -3.0700 O   0  0  0  0  0  0  0  0  0  0  0  0
    6.4840  -12.5370   -1.0030 C   0  0  0  0  0  0  0  0  0  0  0  0
    5.0610  -12.6210   -0.4420 C   0  0  0  0  0  0  0  0  0  0  0  0
    4.7490  -13.9180    0.3510 C   0  0  2  0  0  0  0  0  0  0  0  0
    5.3710  -13.8050    1.7550 C   0  0  0  0  0  0  0  0  0  0  0  0
    5.3240  -15.1790   -0.3590 C   0  0  1  0  0  0  0  0  0  0  0  0
    4.1780  -15.6720   -1.2460 C   0  0  0  0  0  0  0  0  0  0  0  0
    2.9760  -15.5460   -0.2980 C   0  0  2  0  0  0  0  0  0  0  0  0
    3.0680  -16.5770    0.6810 O   0  0  0  0  0  0  0  0  0  0  0  0
    1.6480  -15.6570   -0.9900 C   0  0  0  0  0  0  0  0  0  0  0  0
    0.4450  -15.4720   -0.4020 C   0  0  0  0  0  0  0  0  0  0  0  0
   -0.7050  -15.3620   -1.2800 C   0  0  0  0  0  0  0  0  0  0  0  0
   -1.9170  -14.8500   -1.0370 C   0  0  0  0  0  0  0  0  0  0  0  0
   -2.4770  -14.2510    0.1770 C   0  0  0  0  0  0  0  0  0  0  0  0
   -3.3380  -13.3860    0.0470 O   0  0  0  0  0  0  0  0  0  0  0  0
   -2.0790  -14.6520    1.3940 O   0  0  0  0  0  0  0  0  0  0  0  0
   -1.1060  -15.6770    1.6980 C   0  0  0  0  0  0  0  0  0  0  0  0
   -1.0690  -15.6980    3.2480 C   0  0  0  0  0  0  0  0  0  0  0  0
   -1.6150  -17.0800    1.2970 C   0  0  0  0  0  0  0  0  0  0  0  0
    0.3090  -15.3250    1.1200 C   0  0  2  0  0  0  0  0  0  0  0  0
    0.9020  -13.9470    1.6080 C   0  0  2  0  0  0  0  0  0  0  0  0
    0.4220  -12.8940    0.7420 O   0  0  0  0  0  0  0  0  0  0  0  0
    0.1450  -11.6980    1.3290 C   0  0  0  0  0  0  0  0  0  0  0  0
    1.0190  -10.6310    0.7440 C   0  0  0  0  0  0  0  0  0  0  0  0
   -0.6800  -11.5100    2.2100 O   0  0  0  0  0  0  0  0  0  0  0  0
    2.4490  -13.9320    1.6700 C   0  0  0  0  0  0  0  0  0  0  0  0
    3.1800  -14.1460    0.3370 C   0  0  1  0  0  0  0  0  0  0  0  0
    7.4805  -16.7091   -0.1390 H   0  0  0  0  0  0  0  0  0  0  0  0
    8.6632  -15.6616   -1.2039 H   0  0  0  0  0  0  0  0  0  0  0  0
    6.0435  -13.7853   -2.7547 H   0  0  0  0  0  0  0  0  0  0  0  0
    8.4249  -14.6341   -2.9094 H   0  0  0  0  0  0  0  0  0  0  0  0
    7.3642  -11.8981   -3.9331 H   0  0  0  0  0  0  0  0  0  0  0  0
    8.7238  -12.7863   -4.7008 H   0  0  0  0  0  0  0  0  0  0  0  0
    7.0736  -13.4959   -4.7008 H   0  0  0  0  0  0  0  0  0  0  0  0
    8.8959  -11.8678   -1.7871 H   0  0  0  0  0  0  0  0  0  0  0  0
    9.0207  -13.4147   -0.0380 H   0  0  0  0  0  0  0  0  0  0  0  0
   10.0296  -14.5461   -0.9979 H   0  0  0  0  0  0  0  0  0  0  0  0
   11.2955  -12.7886    0.6978 H   0  0  0  0  0  0  0  0  0  0  0  0
   13.1029  -11.3350    0.2841 H   0  0  0  0  0  0  0  0  0  0  0  0
   13.9309  -11.8890   -1.2106 H   0  0  0  0  0  0  0  0  0  0  0  0
   13.0172  -10.3424   -1.2106 H   0  0  0  0  0  0  0  0  0  0  0  0
    7.2015  -12.5474   -0.1693 H   0  0  0  0  0  0  0  0  0  0  0  0
    6.5810  -11.6056   -1.5801 H   0  0  0  0  0  0  0  0  0  0  0  0
    4.9070  -11.7638    0.2299 H   0  0  0  0  0  0  0  0  0  0  0  0
    4.3855  -12.6191   -1.3102 H   0  0  0  0  0  0  0  0  0  0  0  0
    4.5887  -13.9471    2.5151 H   0  0  0  0  0  0  0  0  0  0  0  0
    6.1449  -14.5773    1.8764 H   0  0  0  0  0  0  0  0  0  0  0  0
    5.8238  -12.8099    1.8764 H   0  0  0  0  0  0  0  0  0  0  0  0
    5.6220  -15.9496    0.3671 H   0  0  0  0  0  0  0  0  0  0  0  0
    4.0563  -15.0356   -2.1349 H   0  0  0  0  0  0  0  0  0  0  0  0
    4.3270  -16.6855   -1.6467 H   0  0  0  0  0  0  0  0  0  0  0  0
    2.1800  -16.6960    1.0580 H   0  0  0  0  0  0  0  0  0  0  0  0
    1.6547  -15.9089   -2.0607 H   0  0  0  0  0  0  0  0  0  0  0  0
   -0.5587  -15.7582   -2.2957 H   0  0  0  0  0  0  0  0  0  0  0  0
   -2.6086  -14.8846   -1.8917 H   0  0  0  0  0  0  0  0  0  0  0  0
   -1.9619  -15.1912    3.6430 H   0  0  0  0  0  0  0  0  0  0  0  0
   -1.0528  -16.7399    3.6003 H   0  0  0  0  0  0  0  0  0  0  0  0
   -0.1661  -15.1777    3.6003 H   0  0  0  0  0  0  0  0  0  0  0  0
   -1.8275  -17.6658    2.2034 H   0  0  0  0  0  0  0  0  0  0  0  0
   -2.5342  -16.9801    0.7011 H   0  0  0  0  0  0  0  0  0  0  0  0
   -0.8456  -17.5927    0.7011 H   0  0  0  0  0  0  0  0  0  0  0  0
    0.9325  -16.1134    1.5668 H   0  0  0  0  0  0  0  0  0  0  0  0
    0.5561  -13.7863    2.6397 H   0  0  0  0  0  0  0  0  0  0  0  0
    1.4895  -10.0566    1.5556 H   0  0  0  0  0  0  0  0  0  0  0  0
    1.7994  -11.0956    0.1234 H   0  0  0  0  0  0  0  0  0  0  0  0
    0.4098   -9.9574    0.1234 H   0  0  0  0  0  0  0  0  0  0  0  0
    2.7599  -12.9560    2.0710 H   0  0  0  0  0  0  0  0  0  0  0  0
    2.7280  -14.7887    2.3011 H   0  0  0  0  0  0  0  0  0  0  0  0
    2.6944  -13.3582   -0.2576 H   0  0  0  0  0  0  0  0  0  0  0  0
  1  2  2  0
  2  3  1  0
  3  4  1  0
  4  5  1  0
  4  6  1  0
  6  7  1  0
  7  8  1  0
  8  9  2  0
  9 10  1  0
  9 11  1  0
 11 12  2  0
 11 13  1  0
  3 14  1  0
 14 15  1  0
 15 16  1  0
 16 17  1  1
 16 18  1  0
 18 19  1  0
 19 20  1  0
 20 21  1  1
 20 22  1  0
 22 23  2  0
 23 24  1  0
 24 25  2  0
 25 26  1  0
 26 27  2  0
 26 28  1  0
 28 29  1  0
 29 30  1  0
 29 31  1  0
 29 32  1  0
 32 33  1  0
 33 34  1  0
 34 35  1  0
 35 36  1  0
 35 37  2  0
 33 38  1  0
 38 39  1  0
 18  2  1  0
 39 20  1  0
 13  6  1  0
 39 16  1  0
 32 23  1  0
  1 40  1  0
  1 41  1  0
  3 42  1  6
  4 43  1  6
  5 44  1  0
  5 45  1  0
  5 46  1  0
  6 47  1  1
  7 48  1  0
  7 49  1  0
  8 50  1  0
 10 51  1  0
 10 52  1  0
 10 53  1  0
 14 54  1  0
 14 55  1  0
 15 56  1  0
 15 57  1  0
 17 58  1  0
 17 59  1  0
 17 60  1  0
 18 61  1  1
 19 62  1  0
 19 63  1  0
 21 64  1  0
 22 65  1  0
 24 66  1  0
 25 67  1  0
 30 68  1  0
 30 69  1  0
 30 70  1  0
 31 71  1  0
 31 72  1  0
 31 73  1  0
 32 74  1  1
 33 75  1  1
 36 76  1  0
 36 77  1  0
 36 78  1  0
 38 79  1  0
 38 80  1  0
 39 81  1  6
M  END
>  <meeko>  (5) 
{"is_sidechain": [false], "free_energy": -5.578, "intermolecular_energy": -10.023, "internal_energy": 1.335}

$$$$
LIB_BVSAMPPWSKMOPZ__M_PUB_ALL__e8__s20260927
     RDKit          3D

 81 85  0  0  0  0  0  0  0  0999 V2000
    8.7720  -12.1130    0.3970 C   0  0  0  0  0  0  0  0  0  0  0  0
    7.9370  -13.0380   -0.1120 C   0  0  0  0  0  0  0  0  0  0  0  0
    8.3370  -14.1510   -1.0910 C   0  0  2  0  0  0  0  0  0  0  0  0
    9.8780  -14.3750   -1.2990 C   0  0  1  0  0  0  0  0  0  0  0  0
   10.1660  -14.7580   -2.7680 C   0  0  0  0  0  0  0  0  0  0  0  0
   10.8130  -13.1890   -0.9200 C   0  0  1  0  0  0  0  0  0  0  0  0
   11.7160  -13.4410    0.2880 C   0  0  0  0  0  0  0  0  0  0  0  0
   12.6640  -12.2970    0.4410 C   0  0  0  0  0  0  0  0  0  0  0  0
   13.0110  -11.5230   -0.6000 C   0  0  0  0  0  0  0  0  0  0  0  0
   13.9560  -10.3660   -0.4830 C   0  0  0  0  0  0  0  0  0  0  0  0
   12.5180  -11.8270   -1.9700 C   0  0  0  0  0  0  0  0  0  0  0  0
   12.9640  -11.2510   -2.9540 O   0  0  0  0  0  0  0  0  0  0  0  0
   11.5800  -12.8030   -2.0780 O   0  0  0  0  0  0  0  0  0  0  0  0
    7.5460  -13.8690   -2.3830 C   0  0  0  0  0  0  0  0  0  0  0  0
    6.0380  -13.9490   -2.1280 C   0  0  0  0  0  0  0  0  0  0  0  0
    5.5100  -12.9760   -1.0400 C   0  0  2  0  0  0  0  0  0  0  0  0
    5.4030  -11.5630   -1.6440 C   0  0  0  0  0  0  0  0  0  0  0  0
    6.4540  -12.9280    0.1970 C   0  0  1  0  0  0  0  0  0  0  0  0
    5.8920  -13.9910    1.1450 C   0  0  0  0  0  0  0  0  0  0  0  0
    4.3840  -13.7200    1.0560 C   0  0  2  0  0  0  0  0  0  0  0  0
    4.1040  -12.5110    1.7540 O   0  0  0  0  0  0  0  0  0  0  0  0
    3.5380  -14.8170    1.6360 C   0  0  0  0  0  0  0  0  0  0  0  0
    2.1880  -14.8660    1.5930 C   0  0  0  0  0  0  0  0  0  0  0  0
    1.5640  -16.1210    1.9700 C   0  0  0  0  0  0  0  0  0  0  0  0
    0.3180  -16.5550    1.7440 C   0  0  0  0  0  0  0  0  0  0  0  0
   -0.8010  -15.9480    1.0350 C   0  0  0  0  0  0  0  0  0  0  0  0
   -1.6310  -16.6920    0.5210 O   0  0  0  0  0  0  0  0  0  0  0  0
   -0.9520  -14.6150    0.9990 O   0  0  0  0  0  0  0  0  0  0  0  0
   -0.1190  -13.6260    1.6460 C   0  0  0  0  0  0  0  0  0  0  0  0
   -0.7920  -12.2810    1.2740 C   0  0  0  0  0  0  0  0  0  0  0  0
   -0.2300  -13.7110    3.1850 C   0  0  0  0  0  0  0  0  0  0  0  0
    1.3560  -13.6690    1.1120 C   0  0  2  0  0  0  0  0  0  0  0  0
    1.5360  -13.4650   -0.4450 C   0  0  2  0  0  0  0  0  0  0  0  0
    1.3910  -14.7380   -1.1140 O   0  0  0  0  0  0  0  0  0  0  0  0
    0.6390  -14.7510   -2.2480 C   0  0  0  0  0  0  0  0  0  0  0  0
    1.5050  -14.4570   -3.4350 C   0  0  0  0  0  0  0  0  0  0  0  0
   -0.5640  -14.9580   -2.3040 O   0  0  0  0  0  0  0  0  0  0  0  0
    2.8720  -12.7940   -0.8450 C   0  0  0  0  0  0  0  0  0  0  0  0
    4.1500  -13.5570   -0.4690 C   0  0  1  0  0  0  0  0  0  0  0  0
    8.3909  -11.3523    1.0942 H   0  0  0  0  0  0  0  0  0  0  0  0
    9.8354  -12.1178    0.1157 H   0  0  0  0  0  0  0  0  0  0  0  0
    8.0722  -15.1299   -0.6648 H   0  0  0  0  0  0  0  0  0  0  0  0
   10.1168  -15.1828   -0.5915 H   0  0  0  0  0  0  0  0  0  0  0  0
   10.8269  -15.6369   -2.7950 H   0  0  0  0  0  0  0  0  0  0  0  0
    9.2202  -14.9947   -3.2774 H   0  0  0  0  0  0  0  0  0  0  0  0
   10.6559  -13.9151   -3.2774 H   0  0  0  0  0  0  0  0  0  0  0  0
   10.1595  -12.3645   -0.5987 H   0  0  0  0  0  0  0  0  0  0  0  0
   11.1001  -13.5320    1.1949 H   0  0  0  0  0  0  0  0  0  0  0  0
   12.2822  -14.3720    0.1377 H   0  0  0  0  0  0  0  0  0  0  0  0
   13.0892  -12.0829    1.4327 H   0  0  0  0  0  0  0  0  0  0  0  0
   14.1360  -10.1456    0.5796 H   0  0  0  0  0  0  0  0  0  0  0  0
   14.9085  -10.6197   -0.9713 H   0  0  0  0  0  0  0  0  0  0  0  0
   13.5172   -9.4834   -0.9713 H   0  0  0  0  0  0  0  0  0  0  0  0
    7.7970  -12.8616   -2.7465 H   0  0  0  0  0  0  0  0  0  0  0  0
    7.8166  -14.6263   -3.1335 H   0  0  0  0  0  0  0  0  0  0  0  0
    5.5189  -13.7224   -3.0710 H   0  0  0  0  0  0  0  0  0  0  0  0
    5.8398  -14.9655   -1.7573 H   0  0  0  0  0  0  0  0  0  0  0  0
    5.3468  -10.8212   -0.8337 H   0  0  0  0  0  0  0  0  0  0  0  0
    6.2885  -11.3616   -2.2648 H   0  0  0  0  0  0  0  0  0  0  0  0
    4.4973  -11.4972   -2.2648 H   0  0  0  0  0  0  0  0  0  0  0  0
    6.4503  -11.9344    0.6690 H   0  0  0  0  0  0  0  0  0  0  0  0
    6.1381  -15.0062    0.8004 H   0  0  0  0  0  0  0  0  0  0  0  0
    6.2962  -13.9372    2.1666 H   0  0  0  0  0  0  0  0  0  0  0  0
    4.4580  -11.7800    1.2190 H   0  0  0  0  0  0  0  0  0  0  0  0
    4.0588  -15.6470    2.1358 H   0  0  0  0  0  0  0  0  0  0  0  0
    2.2103  -16.8184    2.5230 H   0  0  0  0  0  0  0  0  0  0  0  0
    0.1001  -17.5459    2.1690 H   0  0  0  0  0  0  0  0  0  0  0  0
   -1.0627  -11.7400    2.1927 H   0  0  0  0  0  0  0  0  0  0  0  0
   -0.0924  -11.6721    0.6826 H   0  0  0  0  0  0  0  0  0  0  0  0
   -1.6988  -12.4759    0.6826 H   0  0  0  0  0  0  0  0  0  0  0  0
    0.5637  -13.1032    3.6440 H   0  0  0  0  0  0  0  0  0  0  0  0
   -1.2124  -13.3321    3.5033 H   0  0  0  0  0  0  0  0  0  0  0  0
   -0.1203  -14.7582    3.5033 H   0  0  0  0  0  0  0  0  0  0  0  0
    1.7666  -12.7680    1.5911 H   0  0  0  0  0  0  0  0  0  0  0  0
    0.7489  -12.7663   -0.7648 H   0  0  0  0  0  0  0  0  0  0  0  0
    2.4948  -14.1210   -3.0925 H   0  0  0  0  0  0  0  0  0  0  0  0
    1.6167  -15.3676   -4.0419 H   0  0  0  0  0  0  0  0  0  0  0  0
    1.0392  -13.6666   -4.0419 H   0  0  0  0  0  0  0  0  0  0  0  0
    2.8682  -12.6623   -1.9371 H   0  0  0  0  0  0  0  0  0  0  0  0
    2.9117  -11.8529   -0.2769 H   0  0  0  0  0  0  0  0  0  0  0  0
    3.9260  -14.5209   -0.9492 H   0  0  0  0  0  0  0  0  0  0  0  0
  1  2  2  0
  2  3  1  0
  3  4  1  0
  4  5  1  0
  4  6  1  0
  6  7  1  0
  7  8  1  0
  8  9  2  0
  9 10  1  0
  9 11  1  0
 11 12  2  0
 11 13  1  0
  3 14  1  0
 14 15  1  0
 15 16  1  0
 16 17  1  6
 16 18  1  0
 18 19  1  0
 19 20  1  0
 20 21  1  1
 20 22  1  0
 22 23  2  0
 23 24  1  0
 24 25  2  0
 25 26  1  0
 26 27  2  0
 26 28  1  0
 28 29  1  0
 29 30  1  0
 29 31  1  0
 29 32  1  0
 32 33  1  0
 33 34  1  0
 34 35  1  0
 35 36  1  0
 35 37  2  0
 33 38  1  0
 38 39  1  0
 18  2  1  0
 39 20  1  0
 13  6  1  0
 39 16  1  0
 32 23  1  0
  1 40  1  0
  1 41  1  0
  3 42  1  1
  4 43  1  1
  5 44  1  0
  5 45  1  0
  5 46  1  0
  6 47  1  1
  7 48  1  0
  7 49  1  0
  8 50  1  0
 10 51  1  0
 10 52  1  0
 10 53  1  0
 14 54  1  0
 14 55  1  0
 15 56  1  0
 15 57  1  0
 17 58  1  0
 17 59  1  0
 17 60  1  0
 18 61  1  1
 19 62  1  0
 19 63  1  0
 21 64  1  0
 22 65  1  0
 24 66  1  0
 25 67  1  0
 30 68  1  0
 30 69  1  0
 30 70  1  0
 31 71  1  0
 31 72  1  0
 31 73  1  0
 32 74  1  1
 33 75  1  6
 36 76  1  0
 36 77  1  0
 36 78  1  0
 38 79  1  0
 38 80  1  0
 39 81  1  6
M  END
>  <meeko>  (6) 
{"is_sidechain": [false], "free_energy": -5.346, "intermolecular_energy": -10.47, "internal_energy": 2.184}

$$$$
LIB_BVSAMPPWSKMOPZ__M_PUB_ALL__e8__s20260927
     RDKit          3D

 81 85  0  0  0  0  0  0  0  0999 V2000
   12.2490  -12.4870   -1.9080 C   0  0  0  0  0  0  0  0  0  0  0  0
   11.2910  -13.2810   -2.4200 C   0  0  0  0  0  0  0  0  0  0  0  0
   11.4640  -14.2160   -3.6250 C   0  0  2  0  0  0  0  0  0  0  0  0
   12.9380  -14.4480   -4.1210 C   0  0  1  0  0  0  0  0  0  0  0  0
   13.6380  -15.5000   -3.2320 C   0  0  0  0  0  0  0  0  0  0  0  0
   13.1140  -14.8790   -5.6060 C   0  0  1  0  0  0  0  0  0  0  0  0
   12.3690  -14.0110   -6.6210 C   0  0  0  0  0  0  0  0  0  0  0  0
   12.7510  -14.4330   -8.0020 C   0  0  0  0  0  0  0  0  0  0  0  0
   13.9210  -15.0400   -8.2590 C   0  0  0  0  0  0  0  0  0  0  0  0
   14.3360  -15.4780   -9.6300 C   0  0  0  0  0  0  0  0  0  0  0  0
   14.9210  -15.2470   -7.1760 C   0  0  0  0  0  0  0  0  0  0  0  0
   16.0590  -15.6300   -7.4200 O   0  0  0  0  0  0  0  0  0  0  0  0
   14.5210  -14.9540   -5.9120 O   0  0  0  0  0  0  0  0  0  0  0  0
   10.4990  -13.6860   -4.7030 C   0  0  0  0  0  0  0  0  0  0  0  0
    9.0470  -13.7620   -4.2200 C   0  0  0  0  0  0  0  0  0  0  0  0
    8.7560  -12.9800   -2.9110 C   0  0  2  0  0  0  0  0  0  0  0  0
    8.6410  -11.4800   -3.2420 C   0  0  0  0  0  0  0  0  0  0  0  0
    9.8840  -13.1810   -1.8570 C   0  0  1  0  0  0  0  0  0  0  0  0
    9.4160  -14.3760   -1.0230 C   0  0  0  0  0  0  0  0  0  0  0  0
    7.9300  -14.0460   -0.8140 C   0  0  2  0  0  0  0  0  0  0  0  0
    7.8370  -12.9700    0.1150 O   0  0  0  0  0  0  0  0  0  0  0  0
    7.1230  -15.2000   -0.2970 C   0  0  0  0  0  0  0  0  0  0  0  0
    5.7790  -15.2060   -0.1470 C   0  0  0  0  0  0  0  0  0  0  0  0
    5.1530  -16.4900    0.1160 C   0  0  0  0  0  0  0  0  0  0  0  0
    3.8690  -16.8500    0.0060 C   0  0  0  0  0  0  0  0  0  0  0  0
    2.6840  -16.0950   -0.4400 C   0  0  0  0  0  0  0  0  0  0  0  0
    1.7530  -16.7150   -0.9480 O   0  0  0  0  0  0  0  0  0  0  0  0
    2.6000  -14.7720   -0.2320 O   0  0  0  0  0  0  0  0  0  0  0  0
    3.5670  -13.9330    0.4410 C   0  0  0  0  0  0  0  0  0  0  0  0
    2.9200  -12.5250    0.4000 C   0  0  0  0  0  0  0  0  0  0  0  0
    3.6670  -14.2780    1.9440 C   0  0  0  0  0  0  0  0  0  0  0  0
    4.9470  -13.9260   -0.3040 C   0  0  2  0  0  0  0  0  0  0  0  0
    4.8940  -13.4550   -1.8050 C   0  0  2  0  0  0  0  0  0  0  0  0
    4.6040  -14.5790   -2.6660 O   0  0  0  0  0  0  0  0  0  0  0  0
    3.7610  -14.3490   -3.7090 C   0  0  0  0  0  0  0  0  0  0  0  0
    4.4490  -14.6770   -4.9990 C   0  0  0  0  0  0  0  0  0  0  0  0
    2.6170  -13.9280   -3.6230 O   0  0  0  0  0  0  0  0  0  0  0  0
    6.1970  -12.7510   -2.2560 C   0  0  0  0  0  0  0  0  0  0  0  0
    7.4710  -13.6090   -2.2300 C   0  0  1  0  0  0  0  0  0  0  0  0
   12.0287  -11.8495   -1.0391 H   0  0  0  0  0  0  0  0  0  0  0  0
   13.2525  -12.4754   -2.3584 H   0  0  0  0  0  0  0  0  0  0  0  0
   11.2105  -15.2452   -3.3311 H   0  0  0  0  0  0  0  0  0  0  0  0
   13.3950  -13.4505   -4.0430 H   0  0  0  0  0  0  0  0  0  0  0  0
   13.4735  -15.2528   -2.1728 H   0  0  0  0  0  0  0  0  0  0  0  0
   13.2217  -16.4956   -3.4451 H   0  0  0  0  0  0  0  0  0  0  0  0
   14.7172  -15.5005   -3.4451 H   0  0  0  0  0  0  0  0  0  0  0  0
   12.6448  -15.8691   -5.7038 H   0  0  0  0  0  0  0  0  0  0  0  0
   11.2845  -14.1348   -6.4852 H   0  0  0  0  0  0  0  0  0  0  0  0
   12.6357  -12.9545   -6.4702 H   0  0  0  0  0  0  0  0  0  0  0  0
   12.0546  -14.2412   -8.8316 H   0  0  0  0  0  0  0  0  0  0  0  0
   15.0905  -16.2743   -9.5478 H   0  0  0  0  0  0  0  0  0  0  0  0
   13.4592  -15.8584  -10.1745 H   0  0  0  0  0  0  0  0  0  0  0  0
   14.7631  -14.6230  -10.1745 H   0  0  0  0  0  0  0  0  0  0  0  0
   10.7497  -12.6388   -4.9277 H   0  0  0  0  0  0  0  0  0  0  0  0
   10.6030  -14.3073   -5.6048 H   0  0  0  0  0  0  0  0  0  0  0  0
    8.4009  -13.3560   -5.0123 H   0  0  0  0  0  0  0  0  0  0  0  0
    8.8485  -14.8212   -3.9993 H   0  0  0  0  0  0  0  0  0  0  0  0
    8.5966  -10.9008   -2.3079 H   0  0  0  0  0  0  0  0  0  0  0  0
    9.5177  -11.1654   -3.8272 H   0  0  0  0  0  0  0  0  0  0  0  0
    7.7266  -11.3027   -3.8272 H   0  0  0  0  0  0  0  0  0  0  0  0
   10.0135  -12.2865   -1.2301 H   0  0  0  0  0  0  0  0  0  0  0  0
    9.5438  -15.3217   -1.5702 H   0  0  0  0  0  0  0  0  0  0  0  0
    9.9784  -14.5161   -0.0881 H   0  0  0  0  0  0  0  0  0  0  0  0
    7.4980  -13.3390    0.9490 H   0  0  0  0  0  0  0  0  0  0  0  0
    7.6677  -16.1139   -0.0177 H   0  0  0  0  0  0  0  0  0  0  0  0
    5.8350  -17.2834    0.4557 H   0  0  0  0  0  0  0  0  0  0  0  0
    3.6617  -17.8897    0.2992 H   0  0  0  0  0  0  0  0  0  0  0  0
    2.7555  -12.1670    1.4270 H   0  0  0  0  0  0  0  0  0  0  0  0
    3.5888  -11.8294   -0.1281 H   0  0  0  0  0  0  0  0  0  0  0  0
    1.9566  -12.5794   -0.1281 H   0  0  0  0  0  0  0  0  0  0  0  0
    3.4099  -13.3911    2.5417 H   0  0  0  0  0  0  0  0  0  0  0  0
    2.9685  -15.0943    2.1801 H   0  0  0  0  0  0  0  0  0  0  0  0
    4.6938  -14.5942    2.1801 H   0  0  0  0  0  0  0  0  0  0  0  0
    5.4881  -13.1405    0.2440 H   0  0  0  0  0  0  0  0  0  0  0  0
    4.0875  -12.7112   -1.8845 H   0  0  0  0  0  0  0  0  0  0  0  0
    5.4233  -15.1415   -4.7871 H   0  0  0  0  0  0  0  0  0  0  0  0
    3.8279  -15.3759   -5.5785 H   0  0  0  0  0  0  0  0  0  0  0  0
    4.6009  -13.7544   -5.5785 H   0  0  0  0  0  0  0  0  0  0  0  0
    6.0494  -12.3992   -3.2877 H   0  0  0  0  0  0  0  0  0  0  0  0
    6.3669  -11.9464   -1.5254 H   0  0  0  0  0  0  0  0  0  0  0  0
    7.1181  -14.4659   -2.8226 H   0  0  0  0  0  0  0  0  0  0  0  0
  1  2  2  0
  2  3  1  0
  3  4  1  0
  4  5  1  0
  4  6  1  0
  6  7  1  0
  7  8  1  0
  8  9  2  0
  9 10  1  0
  9 11  1  0
 11 12  2  0
 11 13  1  0
  3 14  1  0
 14 15  1  0
 15 16  1  0
 16 17  1  6
 16 18  1  0
 18 19  1  0
 19 20  1  0
 20 21  1  1
 20 22  1  0
 22 23  2  0
 23 24  1  0
 24 25  2  0
 25 26  1  0
 26 27  2  0
 26 28  1  0
 28 29  1  0
 29 30  1  0
 29 31  1  0
 29 32  1  0
 32 33  1  0
 33 34  1  0
 34 35  1  0
 35 36  1  0
 35 37  2  0
 33 38  1  0
 38 39  1  0
 18  2  1  0
 39 20  1  0
 13  6  1  0
 39 16  1  0
 32 23  1  0
  1 40  1  0
  1 41  1  0
  3 42  1  1
  4 43  1  6
  5 44  1  0
  5 45  1  0
  5 46  1  0
  6 47  1  1
  7 48  1  0
  7 49  1  0
  8 50  1  0
 10 51  1  0
 10 52  1  0
 10 53  1  0
 14 54  1  0
 14 55  1  0
 15 56  1  0
 15 57  1  0
 17 58  1  0
 17 59  1  0
 17 60  1  0
 18 61  1  1
 19 62  1  0
 19 63  1  0
 21 64  1  0
 22 65  1  0
 24 66  1  0
 25 67  1  0
 30 68  1  0
 30 69  1  0
 30 70  1  0
 31 71  1  0
 31 72  1  0
 31 73  1  0
 32 74  1  1
 33 75  1  1
 36 76  1  0
 36 77  1  0
 36 78  1  0
 38 79  1  0
 38 80  1  0
 39 81  1  6
M  END
>  <meeko>  (7) 
{"is_sidechain": [false], "free_energy": -5.315, "intermolecular_energy": -10.056, "internal_energy": 1.824}

$$$$
LIB_BVSAMPPWSKMOPZ__M_PUB_ALL__e8__s20260927
     RDKit          3D

 81 85  0  0  0  0  0  0  0  0999 V2000
    2.6600  -11.8600   -2.4620 C   0  0  0  0  0  0  0  0  0  0  0  0
    3.0260  -13.0870   -2.8750 C   0  0  0  0  0  0  0  0  0  0  0  0
    2.2610  -14.3860   -2.5840 C   0  0  2  0  0  0  0  0  0  0  0  0
    0.8150  -14.2250   -1.9900 C   0  0  1  0  0  0  0  0  0  0  0  0
   -0.1850  -15.0980   -2.7780 C   0  0  0  0  0  0  0  0  0  0  0  0
    0.6450  -14.5440   -0.4760 C   0  0  1  0  0  0  0  0  0  0  0  0
   -0.2080  -13.5420    0.3030 C   0  0  0  0  0  0  0  0  0  0  0  0
   -0.4210  -14.0510    1.6910 C   0  0  0  0  0  0  0  0  0  0  0  0
   -0.3610  -15.3600    1.9810 C   0  0  0  0  0  0  0  0  0  0  0  0
   -0.5670  -15.9060    3.3610 C   0  0  0  0  0  0  0  0  0  0  0  0
   -0.1540  -16.3670    0.9050 C   0  0  0  0  0  0  0  0  0  0  0  0
   -0.2780  -17.5670    1.1180 O   0  0  0  0  0  0  0  0  0  0  0  0
    0.1400  -15.8870   -0.3310 O   0  0  0  0  0  0  0  0  0  0  0  0
    3.2150  -15.2480   -1.7340 C   0  0  0  0  0  0  0  0  0  0  0  0
    4.4880  -15.5850   -2.5160 C   0  0  0  0  0  0  0  0  0  0  0  0
    5.2930  -14.3530   -3.0110 C   0  0  2  0  0  0  0  0  0  0  0  0
    6.0900  -13.7710   -1.8280 C   0  0  0  0  0  0  0  0  0  0  0  0
    4.3580  -13.2490   -3.5860 C   0  0  1  0  0  0  0  0  0  0  0  0
    4.2790  -13.5600   -5.0830 C   0  0  0  0  0  0  0  0  0  0  0  0
    5.7460  -13.8690   -5.4140 C   0  0  2  0  0  0  0  0  0  0  0  0
    6.4770  -12.6470   -5.3950 O   0  0  0  0  0  0  0  0  0  0  0  0
    5.9380  -14.5240   -6.7510 C   0  0  0  0  0  0  0  0  0  0  0  0
    7.1100  -15.0070   -7.2210 C   0  0  0  0  0  0  0  0  0  0  0  0
    7.0480  -15.8340   -8.4130 C   0  0  0  0  0  0  0  0  0  0  0  0
    7.9550  -16.6850   -8.9070 C   0  0  0  0  0  0  0  0  0  0  0  0
    9.2640  -17.0930   -8.4360 C   0  0  0  0  0  0  0  0  0  0  0  0
    9.6860  -18.2000   -8.7590 O   0  0  0  0  0  0  0  0  0  0  0  0
   10.0140  -16.2540   -7.7050 O   0  0  0  0  0  0  0  0  0  0  0  0
    9.7200  -14.8740   -7.3890 C   0  0  0  0  0  0  0  0  0  0  0  0
   10.9740  -14.4030   -6.6090 C   0  0  0  0  0  0  0  0  0  0  0  0
    9.6930  -13.9950   -8.6600 C   0  0  0  0  0  0  0  0  0  0  0  0
    8.4370  -14.7430   -6.4960 C   0  0  2  0  0  0  0  0  0  0  0  0
    8.5240  -15.5260   -5.1450 C   0  0  2  0  0  0  0  0  0  0  0  0
    8.1230  -16.9010   -5.3410 O   0  0  0  0  0  0  0  0  0  0  0  0
    8.5690  -17.8040   -4.4270 C   0  0  0  0  0  0  0  0  0  0  0  0
   10.0670  -17.7830   -4.3810 C   0  0  0  0  0  0  0  0  0  0  0  0
    7.8670  -18.5370   -3.7470 O   0  0  0  0  0  0  0  0  0  0  0  0
    7.6910  -14.8770   -4.0130 C   0  0  0  0  0  0  0  0  0  0  0  0
    6.1760  -14.8000   -4.2490 C   0  0  1  0  0  0  0  0  0  0  0  0
    3.2755  -10.9860   -2.7215 H   0  0  0  0  0  0  0  0  0  0  0  0
    1.7453  -11.7308   -1.8649 H   0  0  0  0  0  0  0  0  0  0  0  0
    2.0086  -14.8845   -3.5315 H   0  0  0  0  0  0  0  0  0  0  0  0
    0.6138  -13.1486   -2.0939 H   0  0  0  0  0  0  0  0  0  0  0  0
   -0.8213  -15.6535   -2.0734 H   0  0  0  0  0  0  0  0  0  0  0  0
   -0.8138  -14.4547   -3.4111 H   0  0  0  0  0  0  0  0  0  0  0  0
    0.3675  -15.8079   -3.4111 H   0  0  0  0  0  0  0  0  0  0  0  0
    1.6433  -14.4552   -0.0227 H   0  0  0  0  0  0  0  0  0  0  0  0
    0.3087  -12.5717    0.3424 H   0  0  0  0  0  0  0  0  0  0  0  0
   -1.1796  -13.4169   -0.1974 H   0  0  0  0  0  0  0  0  0  0  0  0
   -0.6328  -13.3335    2.4974 H   0  0  0  0  0  0  0  0  0  0  0  0
   -0.2802  -15.1459    4.1026 H   0  0  0  0  0  0  0  0  0  0  0  0
   -1.6263  -16.1694    3.4967 H   0  0  0  0  0  0  0  0  0  0  0  0
    0.0543  -16.8035    3.4967 H   0  0  0  0  0  0  0  0  0  0  0  0
    3.4873  -14.6935   -0.8238 H   0  0  0  0  0  0  0  0  0  0  0  0
    2.7035  -16.1862   -1.4730 H   0  0  0  0  0  0  0  0  0  0  0  0
    5.1424  -16.1819   -1.8638 H   0  0  0  0  0  0  0  0  0  0  0  0
    4.1639  -16.1258   -3.4174 H   0  0  0  0  0  0  0  0  0  0  0  0
    5.6365  -14.1021   -0.8821 H   0  0  0  0  0  0  0  0  0  0  0  0
    7.1309  -14.1230   -1.8786 H   0  0  0  0  0  0  0  0  0  0  0  0
    6.0716  -12.6723   -1.8786 H   0  0  0  0  0  0  0  0  0  0  0  0
    4.7677  -12.2433   -3.4109 H   0  0  0  0  0  0  0  0  0  0  0  0
    3.6323  -14.4280   -5.2787 H   0  0  0  0  0  0  0  0  0  0  0  0
    3.8465  -12.7478   -5.6858 H   0  0  0  0  0  0  0  0  0  0  0  0
    7.3620  -12.8340   -5.7530 H   0  0  0  0  0  0  0  0  0  0  0  0
    5.0548  -14.6185   -7.3999 H   0  0  0  0  0  0  0  0  0  0  0  0
    6.1189  -15.7484   -8.9956 H   0  0  0  0  0  0  0  0  0  0  0  0
    7.6497  -17.1657   -9.8481 H   0  0  0  0  0  0  0  0  0  0  0  0
   10.7821  -14.4751   -5.5283 H   0  0  0  0  0  0  0  0  0  0  0  0
   11.8307  -15.0406   -6.8726 H   0  0  0  0  0  0  0  0  0  0  0  0
   11.1991  -13.3590   -6.8726 H   0  0  0  0  0  0  0  0  0  0  0  0
    9.6604  -12.9340   -8.3714 H   0  0  0  0  0  0  0  0  0  0  0  0
   10.5974  -14.1851   -9.2566 H   0  0  0  0  0  0  0  0  0  0  0  0
    8.8020  -14.2403   -9.2566 H   0  0  0  0  0  0  0  0  0  0  0  0
    8.4242  -13.6723   -6.2443 H   0  0  0  0  0  0  0  0  0  0  0  0
    9.5747  -15.4883   -4.8215 H   0  0  0  0  0  0  0  0  0  0  0  0
   10.4016  -17.7783   -3.3331 H   0  0  0  0  0  0  0  0  0  0  0  0
   10.4620  -18.6757   -4.8880 H   0  0  0  0  0  0  0  0  0  0  0  0
   10.4368  -16.8796   -4.8880 H   0  0  0  0  0  0  0  0  0  0  0  0
    7.8591  -15.4599   -3.0954 H   0  0  0  0  0  0  0  0  0  0  0  0
    8.0345  -13.8337   -3.9541 H   0  0  0  0  0  0  0  0  0  0  0  0
    5.9819  -15.8571   -4.4831 H   0  0  0  0  0  0  0  0  0  0  0  0
  1  2  2  0
  2  3  1  0
  3  4  1  0
  4  5  1  0
  4  6  1  0
  6  7  1  0
  7  8  1  0
  8  9  2  0
  9 10  1  0
  9 11  1  0
 11 12  2  0
 11 13  1  0
  3 14  1  0
 14 15  1  0
 15 16  1  0
 16 17  1  1
 16 18  1  0
 18 19  1  0
 19 20  1  0
 20 21  1  6
 20 22  1  0
 22 23  2  0
 23 24  1  0
 24 25  2  0
 25 26  1  0
 26 27  2  0
 26 28  1  0
 28 29  1  0
 29 30  1  0
 29 31  1  0
 29 32  1  0
 32 33  1  0
 33 34  1  0
 34 35  1  0
 35 36  1  0
 35 37  2  0
 33 38  1  0
 38 39  1  0
 18  2  1  0
 39 20  1  0
 13  6  1  0
 39 16  1  0
 32 23  1  0
  1 40  1  0
  1 41  1  0
  3 42  1  6
  4 43  1  1
  5 44  1  0
  5 45  1  0
  5 46  1  0
  6 47  1  1
  7 48  1  0
  7 49  1  0
  8 50  1  0
 10 51  1  0
 10 52  1  0
 10 53  1  0
 14 54  1  0
 14 55  1  0
 15 56  1  0
 15 57  1  0
 17 58  1  0
 17 59  1  0
 17 60  1  0
 18 61  1  6
 19 62  1  0
 19 63  1  0
 21 64  1  0
 22 65  1  0
 24 66  1  0
 25 67  1  0
 30 68  1  0
 30 69  1  0
 30 70  1  0
 31 71  1  0
 31 72  1  0
 31 73  1  0
 32 74  1  1
 33 75  1  1
 36 76  1  0
 36 77  1  0
 36 78  1  0
 38 79  1  0
 38 80  1  0
 39 81  1  6
M  END
>  <meeko>  (8) 
{"is_sidechain": [false], "free_energy": -4.813, "intermolecular_energy": -8.298, "internal_energy": 0.934}

$$$$
LIB_BVSAMPPWSKMOPZ__M_PUB_ALL__e8__s20260927
     RDKit          3D

 81 85  0  0  0  0  0  0  0  0999 V2000
   13.2000  -15.5630   -2.0050 C   0  0  0  0  0  0  0  0  0  0  0  0
   12.5460  -14.8650   -2.9510 C   0  0  0  0  0  0  0  0  0  0  0  0
   11.5590  -13.7200   -2.6850 C   0  0  2  0  0  0  0  0  0  0  0  0
   11.5210  -13.1600   -1.2160 C   0  0  1  0  0  0  0  0  0  0  0  0
   12.3270  -11.8460   -1.1260 C   0  0  0  0  0  0  0  0  0  0  0  0
   10.1120  -12.9030   -0.6050 C   0  0  1  0  0  0  0  0  0  0  0  0
   10.1180  -12.2140    0.7600 C   0  0  0  0  0  0  0  0  0  0  0  0
    8.7140  -11.8860    1.1510 C   0  0  0  0  0  0  0  0  0  0  0  0
    7.7460  -11.7180    0.2370 C   0  0  0  0  0  0  0  0  0  0  0  0
    6.3280  -11.3910    0.5930 C   0  0  0  0  0  0  0  0  0  0  0  0
    8.0570  -11.7770   -1.2170 C   0  0  0  0  0  0  0  0  0  0  0  0
    7.2340  -11.4490   -2.0630 O   0  0  0  0  0  0  0  0  0  0  0  0
    9.3100  -12.1760   -1.5580 O   0  0  0  0  0  0  0  0  0  0  0  0
   10.2000  -14.2090   -3.2230 C   0  0  0  0  0  0  0  0  0  0  0  0
   10.2720  -14.4630   -4.7320 C   0  0  0  0  0  0  0  0  0  0  0  0
   11.3440  -15.4990   -5.1670 C   0  0  2  0  0  0  0  0  0  0  0  0
   10.8110  -16.9160   -4.8830 C   0  0  0  0  0  0  0  0  0  0  0  0
   12.6830  -15.2970   -4.4000 C   0  0  1  0  0  0  0  0  0  0  0  0
   13.4970  -14.3600   -5.2980 C   0  0  0  0  0  0  0  0  0  0  0  0
   13.2470  -14.9670   -6.6870 C   0  0  2  0  0  0  0  0  0  0  0  0
   13.9750  -16.1880   -6.7800 O   0  0  0  0  0  0  0  0  0  0  0  0
   13.6610  -14.0720   -7.8190 C   0  0  0  0  0  0  0  0  0  0  0  0
   13.4400  -14.3210   -9.1300 C   0  0  0  0  0  0  0  0  0  0  0  0
   13.6740  -13.2270  -10.0540 C   0  0  0  0  0  0  0  0  0  0  0  0
   13.2340  -13.0610  -11.3070 C   0  0  0  0  0  0  0  0  0  0  0  0
   12.3950  -13.8880  -12.1470 C   0  0  0  0  0  0  0  0  0  0  0  0
   11.7390  -13.3390  -13.0280 O   0  0  0  0  0  0  0  0  0  0  0  0
   12.3860  -15.2230  -12.0090 O   0  0  0  0  0  0  0  0  0  0  0  0
   13.2040  -16.0120  -11.1160 C   0  0  0  0  0  0  0  0  0  0  0  0
   12.7950  -17.4710  -11.4390 C   0  0  0  0  0  0  0  0  0  0  0  0
   14.7000  -15.9280  -11.4950 C   0  0  0  0  0  0  0  0  0  0  0  0
   12.9100  -15.6780   -9.6110 C   0  0  2  0  0  0  0  0  0  0  0  0
   11.4110  -15.8860   -9.1940 C   0  0  2  0  0  0  0  0  0  0  0  0
   10.6260  -14.7150   -9.5130 O   0  0  0  0  0  0  0  0  0  0  0  0
    9.2820  -14.8120   -9.3320 C   0  0  0  0  0  0  0  0  0  0  0  0
    8.7930  -16.1320   -9.8470 C   0  0  0  0  0  0  0  0  0  0  0  0
    8.5650  -13.9550   -8.8360 O   0  0  0  0  0  0  0  0  0  0  0  0
   11.2360  -16.2640   -7.7030 C   0  0  0  0  0  0  0  0  0  0  0  0
   11.7170  -15.2220   -6.6830 C   0  0  1  0  0  0  0  0  0  0  0  0
   13.8901  -16.3691   -2.2947 H   0  0  0  0  0  0  0  0  0  0  0  0
   13.0447  -15.3276   -0.9418 H   0  0  0  0  0  0  0  0  0  0  0  0
   11.8954  -12.8150   -3.2120 H   0  0  0  0  0  0  0  0  0  0  0  0
   11.9628  -13.9726   -0.6206 H   0  0  0  0  0  0  0  0  0  0  0  0
   12.4868  -11.5855   -0.0693 H   0  0  0  0  0  0  0  0  0  0  0  0
   13.2998  -11.9778   -1.6223 H   0  0  0  0  0  0  0  0  0  0  0  0
   11.7686  -11.0386   -1.6223 H   0  0  0  0  0  0  0  0  0  0  0  0
    9.6709  -13.8905   -0.4043 H   0  0  0  0  0  0  0  0  0  0  0  0
   10.5611  -12.8863    1.5095 H   0  0  0  0  0  0  0  0  0  0  0  0
   10.7117  -11.2896    0.7047 H   0  0  0  0  0  0  0  0  0  0  0  0
    8.4669  -11.7793    2.2176 H   0  0  0  0  0  0  0  0  0  0  0  0
    6.2211  -11.3663    1.6875 H   0  0  0  0  0  0  0  0  0  0  0  0
    6.0627  -10.4081    0.1764 H   0  0  0  0  0  0  0  0  0  0  0  0
    5.6591  -12.1585    0.1764 H   0  0  0  0  0  0  0  0  0  0  0  0
    9.9253  -15.1439   -2.7126 H   0  0  0  0  0  0  0  0  0  0  0  0
    9.4449  -13.4323   -3.0318 H   0  0  0  0  0  0  0  0  0  0  0  0
    9.2890  -14.8272   -5.0651 H   0  0  0  0  0  0  0  0  0  0  0  0
   10.5596  -13.5070   -5.1938 H   0  0  0  0  0  0  0  0  0  0  0  0
   10.7514  -17.0743   -3.7961 H   0  0  0  0  0  0  0  0  0  0  0  0
    9.8098  -17.0266   -5.3251 H   0  0  0  0  0  0  0  0  0  0  0  0
   11.4911  -17.6590   -5.3251 H   0  0  0  0  0  0  0  0  0  0  0  0
   13.2057  -16.2523   -4.2447 H   0  0  0  0  0  0  0  0  0  0  0  0
   13.1264  -13.3260   -5.2394 H   0  0  0  0  0  0  0  0  0  0  0  0
   14.5604  -14.2912   -5.0250 H   0  0  0  0  0  0  0  0  0  0  0  0
   14.3670  -16.3570   -5.9060 H   0  0  0  0  0  0  0  0  0  0  0  0
   14.1856  -13.1400   -7.5619 H   0  0  0  0  0  0  0  0  0  0  0  0
   14.3064  -12.4141   -9.6676 H   0  0  0  0  0  0  0  0  0  0  0  0
   13.5706  -12.1286  -11.7838 H   0  0  0  0  0  0  0  0  0  0  0  0
   12.6398  -18.0245  -10.5011 H   0  0  0  0  0  0  0  0  0  0  0  0
   11.8626  -17.4698  -12.0226 H   0  0  0  0  0  0  0  0  0  0  0  0
   13.5922  -17.9546  -12.0226 H   0  0  0  0  0  0  0  0  0  0  0  0
   15.3088  -15.8938  -10.5795 H   0  0  0  0  0  0  0  0  0  0  0  0
   14.9783  -16.8119  -12.0876 H   0  0  0  0  0  0  0  0  0  0  0  0
   14.8776  -15.0185  -12.0876 H   0  0  0  0  0  0  0  0  0  0  0  0
   13.5030  -16.4354   -9.0775 H   0  0  0  0  0  0  0  0  0  0  0  0
   11.0446  -16.7426   -9.7787 H   0  0  0  0  0  0  0  0  0  0  0  0
    8.5496  -16.7890   -8.9990 H   0  0  0  0  0  0  0  0  0  0  0  0
    7.8931  -15.9758  -10.4600 H   0  0  0  0  0  0  0  0  0  0  0  0
    9.5775  -16.5998  -10.4600 H   0  0  0  0  0  0  0  0  0  0  0  0
   10.1651  -16.4405   -7.5241 H   0  0  0  0  0  0  0  0  0  0  0  0
   11.8708  -17.1483   -7.5450 H   0  0  0  0  0  0  0  0  0  0  0  0
   11.1608  -14.3469   -7.0503 H   0  0  0  0  0  0  0  0  0  0  0  0
  1  2  2  0
  2  3  1  0
  3  4  1  0
  4  5  1  0
  4  6  1  0
  6  7  1  0
  7  8  1  0
  8  9  2  0
  9 10  1  0
  9 11  1  0
 11 12  2  0
 11 13  1  0
  3 14  1  0
 14 15  1  0
 15 16  1  0
 16 17  1  6
 16 18  1  0
 18 19  1  0
 19 20  1  0
 20 21  1  1
 20 22  1  0
 22 23  2  0
 23 24  1  0
 24 25  2  0
 25 26  1  0
 26 27  2  0
 26 28  1  0
 28 29  1  0
 29 30  1  0
 29 31  1  0
 29 32  1  0
 32 33  1  0
 33 34  1  0
 34 35  1  0
 35 36  1  0
 35 37  2  0
 33 38  1  0
 38 39  1  0
 18  2  1  0
 39 20  1  0
 13  6  1  0
 39 16  1  0
 32 23  1  0
  1 40  1  0
  1 41  1  0
  3 42  1  6
  4 43  1  1
  5 44  1  0
  5 45  1  0
  5 46  1  0
  6 47  1  1
  7 48  1  0
  7 49  1  0
  8 50  1  0
 10 51  1  0
 10 52  1  0
 10 53  1  0
 14 54  1  0
 14 55  1  0
 15 56  1  0
 15 57  1  0
 17 58  1  0
 17 59  1  0
 17 60  1  0
 18 61  1  1
 19 62  1  0
 19 63  1  0
 21 64  1  0
 22 65  1  0
 24 66  1  0
 25 67  1  0
 30 68  1  0
 30 69  1  0
 30 70  1  0
 31 71  1  0
 31 72  1  0
 31 73  1  0
 32 74  1  1
 33 75  1  6
 36 76  1  0
 36 77  1  0
 36 78  1  0
 38 79  1  0
 38 80  1  0
 39 81  1  6
M  END
>  <meeko>  (9) 
{"is_sidechain": [false], "free_energy": -4.71, "intermolecular_energy": -9.063, "internal_energy": 1.876}

$$$$
