LIB_FRZNJFWQVYAVCE__M_PUB_ALL__e8__s20260927
     RDKit          3D

 71 74  0  0  0  0  0  0  0  0999 V2000
   -2.4980   -9.2480    1.2150 C   0  0  0  0  0  0  0  0  0  0  0  0
   -2.1110  -10.6030    1.7280 C   0  0  0  0  0  0  0  0  0  0  0  0
   -2.2630  -11.7350    0.9210 C   0  0  0  0  0  0  0  0  0  0  0  0
   -1.8790  -12.9960    1.3870 C   0  0  0  0  0  0  0  0  0  0  0  0
   -1.3090  -13.1390    2.6610 C   0  0  0  0  0  0  0  0  0  0  0  0
   -0.9620  -14.4440    3.1260 N   0  0  0  0  0  0  0  0  0  0  0  0
   -1.9430  -15.3870    3.2140 N   0  0  0  0  0  0  0  0  0  0  0  0
   -1.4990  -16.2820    4.1030 C   0  0  0  0  0  0  0  0  0  0  0  0
   -2.4010  -17.4280    4.5380 C   0  0  0  0  0  0  0  0  0  0  0  0
   -3.0920  -18.0510    3.3080 C   0  0  0  0  0  0  0  0  0  0  0  0
   -1.6090  -18.5400    5.2560 C   0  0  0  0  0  0  0  0  0  0  0  0
   -3.4810  -16.9160    5.5130 C   0  0  0  0  0  0  0  0  0  0  0  0
   -0.1610  -16.0100    4.4670 C   0  0  0  0  0  0  0  0  0  0  0  0
    0.2180  -14.9220    3.7080 C   0  0  0  0  0  0  0  0  0  0  0  0
    1.5150  -14.4430    3.5730 N   0  0  0  0  0  0  0  0  0  0  0  0
    2.2670  -14.6500    2.4220 C   0  0  0  0  0  0  0  0  0  0  0  0
    1.9250  -15.3830    1.5040 O   0  0  0  0  0  0  0  0  0  0  0  0
    3.4470  -13.9240    2.4760 N   0  0  0  0  0  0  0  0  0  0  0  0
    4.4800  -13.8990    1.5160 C   0  0  0  0  0  0  0  0  0  0  0  0
    5.6920  -14.5750    1.6550 C   0  0  0  0  0  0  0  0  0  0  0  0
    6.6740  -14.5080    0.6570 C   0  0  0  0  0  0  0  0  0  0  0  0
    6.4570  -13.7560   -0.4940 C   0  0  0  0  0  0  0  0  0  0  0  0
    7.3330  -13.6020   -1.5320 O   0  0  0  0  0  0  0  0  0  0  0  0
    7.7630  -12.2700   -1.8210 C   0  0  0  0  0  0  0  0  0  0  0  0
    9.2340  -12.3100   -2.2540 C   0  0  0  0  0  0  0  0  0  0  0  0
   10.2340  -12.3300   -1.1070 N   0  0  0  0  0  0  0  0  0  0  0  0
   11.0410  -13.6170   -0.9910 C   0  0  0  0  0  0  0  0  0  0  0  0
   12.1190  -13.4360    0.0870 C   0  0  0  0  0  0  0  0  0  0  0  0
   11.5390  -13.0720    1.3450 O   0  0  0  0  0  0  0  0  0  0  0  0
   10.8020  -11.8440    1.2680 C   0  0  0  0  0  0  0  0  0  0  0  0
    9.6550  -11.9590    0.2570 C   0  0  0  0  0  0  0  0  0  0  0  0
    5.2470  -13.0760   -0.6390 C   0  0  0  0  0  0  0  0  0  0  0  0
    4.2650  -13.1480    0.3570 C   0  0  0  0  0  0  0  0  0  0  0  0
   -1.1630  -12.0080    3.4730 C   0  0  0  0  0  0  0  0  0  0  0  0
   -1.5500  -10.7480    3.0030 C   0  0  0  0  0  0  0  0  0  0  0  0
   -2.6900   -8.5756    2.0641 H   0  0  0  0  0  0  0  0  0  0  0  0
   -1.6803   -8.8406    0.6023 H   0  0  0  0  0  0  0  0  0  0  0  0
   -3.4075   -9.3339    0.6023 H   0  0  0  0  0  0  0  0  0  0  0  0
   -2.6880  -11.6325   -0.0884 H   0  0  0  0  0  0  0  0  0  0  0  0
   -2.0247  -13.8815    0.7508 H   0  0  0  0  0  0  0  0  0  0  0  0
   -3.8706  -18.7530    3.6412 H   0  0  0  0  0  0  0  0  0  0  0  0
   -3.5505  -17.2551    2.7027 H   0  0  0  0  0  0  0  0  0  0  0  0
   -2.3477  -18.5892    2.7027 H   0  0  0  0  0  0  0  0  0  0  0  0
   -1.7008  -18.4111    6.3446 H   0  0  0  0  0  0  0  0  0  0  0  0
   -2.0123  -19.5220    4.9677 H   0  0  0  0  0  0  0  0  0  0  0  0
   -0.5491  -18.4799    4.9677 H   0  0  0  0  0  0  0  0  0  0  0  0
   -3.1454  -17.0751    6.5484 H   0  0  0  0  0  0  0  0  0  0  0  0
   -3.6492  -15.8423    5.3430 H   0  0  0  0  0  0  0  0  0  0  0  0
   -4.4187  -17.4654    5.3430 H   0  0  0  0  0  0  0  0  0  0  0  0
    0.4510  -16.5528    5.2024 H   0  0  0  0  0  0  0  0  0  0  0  0
    2.0180  -14.2370    4.4240 H   0  0  0  0  0  0  0  0  0  0  0  0
    3.5540  -13.3140    3.2710 H   0  0  0  0  0  0  0  0  0  0  0  0
    5.8800  -15.1695    2.5612 H   0  0  0  0  0  0  0  0  0  0  0  0
    7.6212  -15.0526    0.7841 H   0  0  0  0  0  0  0  0  0  0  0  0
    7.1497  -11.8511   -2.6325 H   0  0  0  0  0  0  0  0  0  0  0  0
    7.6530  -11.6388   -0.9269 H   0  0  0  0  0  0  0  0  0  0  0  0
    9.3886  -13.2154   -2.8592 H   0  0  0  0  0  0  0  0  0  0  0  0
    9.4192  -11.3801   -2.8116 H   0  0  0  0  0  0  0  0  0  0  0  0
   10.9100  -11.5890   -1.3340 H   0  0  0  0  0  0  0  0  0  0  0  0
   10.3746  -14.4460   -0.7106 H   0  0  0  0  0  0  0  0  0  0  0  0
   11.5158  -13.8460   -1.9564 H   0  0  0  0  0  0  0  0  0  0  0  0
   12.6694  -14.3809    0.2059 H   0  0  0  0  0  0  0  0  0  0  0  0
   12.7962  -12.6293   -0.2302 H   0  0  0  0  0  0  0  0  0  0  0  0
   10.3867  -11.6101    2.2593 H   0  0  0  0  0  0  0  0  0  0  0  0
   11.4825  -11.0447    0.9393 H   0  0  0  0  0  0  0  0  0  0  0  0
    8.9512  -12.7386    0.5840 H   0  0  0  0  0  0  0  0  0  0  0  0
    9.1216  -10.9995    0.1873 H   0  0  0  0  0  0  0  0  0  0  0  0
    5.0629  -12.4781   -1.5437 H   0  0  0  0  0  0  0  0  0  0  0  0
    3.3155  -12.6084    0.2259 H   0  0  0  0  0  0  0  0  0  0  0  0
   -0.7425  -12.1101    4.4843 H   0  0  0  0  0  0  0  0  0  0  0  0
   -1.4122   -9.8628    3.6413 H   0  0  0  0  0  0  0  0  0  0  0  0
  1  2  1  0
  2  3  2  0
  3  4  1  0
  4  5  2  0
  5  6  1  0
  6  7  1  0
  7  8  2  0
  8  9  1  0
  9 10  1  0
  9 11  1  0
  9 12  1  0
  8 13  1  0
 13 14  2  0
 14 15  1  0
 15 16  1  0
 16 17  2  0
 16 18  1  0
 18 19  1  0
 19 20  2  0
 20 21  1  0
 21 22  2  0
 22 23  1  0
 23 24  1  0
 24 25  1  0
 25 26  1  0
 26 27  1  0
 27 28  1  0
 28 29  1  0
 29 30  1  0
 30 31  1  0
 22 32  1  0
 32 33  2  0
  5 34  1  0
 34 35  2  0
 35  2  1  0
 14  6  1  0
 33 19  1  0
 31 26  1  0
  1 36  1  0
  1 37  1  0
  1 38  1  0
  3 39  1  0
  4 40  1  0
 10 41  1  0
 10 42  1  0
 10 43  1  0
 11 44  1  0
 11 45  1  0
 11 46  1  0
 12 47  1  0
 12 48  1  0
 12 49  1  0
 13 50  1  0
 15 51  1  0
 18 52  1  0
 20 53  1  0
 21 54  1  0
 24 55  1  0
 24 56  1  0
 25 57  1  0
 25 58  1  0
 26 59  1  0
 27 60  1  0
 27 61  1  0
 28 62  1  0
 28 63  1  0
 30 64  1  0
 30 65  1  0
 31 66  1  0
 31 67  1  0
 32 68  1  0
 33 69  1  0
 34 70  1  0
 35 71  1  0
M  CHG  1  26   1
M  END
>  <meeko>  (1) 
{"is_sidechain": [false], "free_energy": -7.773, "intermolecular_energy": -11.408, "internal_energy": -1.291}

$$$$
LIB_FRZNJFWQVYAVCE__M_PUB_ALL__e8__s20260927
     RDKit          3D

 71 74  0  0  0  0  0  0  0  0999 V2000
    2.4670  -18.2310    1.0440 C   0  0  0  0  0  0  0  0  0  0  0  0
    2.0590  -16.7900    0.9680 C   0  0  0  0  0  0  0  0  0  0  0  0
    1.1110  -16.3710    0.0290 C   0  0  0  0  0  0  0  0  0  0  0  0
    0.7100  -15.0330   -0.0260 C   0  0  0  0  0  0  0  0  0  0  0  0
    1.2320  -14.0970    0.8780 C   0  0  0  0  0  0  0  0  0  0  0  0
    0.8320  -12.7300    0.7730 N   0  0  0  0  0  0  0  0  0  0  0  0
   -0.2290  -12.3020    1.5150 N   0  0  0  0  0  0  0  0  0  0  0  0
   -0.6900  -11.2150    0.8860 C   0  0  0  0  0  0  0  0  0  0  0  0
   -1.9580  -10.5350    1.3800 C   0  0  0  0  0  0  0  0  0  0  0  0
   -2.9230  -10.2990    0.2000 C   0  0  0  0  0  0  0  0  0  0  0  0
   -2.6930  -11.3900    2.4340 C   0  0  0  0  0  0  0  0  0  0  0  0
   -1.6190   -9.1780    2.0290 C   0  0  0  0  0  0  0  0  0  0  0  0
    0.1720  -10.8420   -0.1700 C   0  0  0  0  0  0  0  0  0  0  0  0
    1.2260  -11.7300   -0.1240 C   0  0  0  0  0  0  0  0  0  0  0  0
    2.4160  -11.6110   -0.8320 N   0  0  0  0  0  0  0  0  0  0  0  0
    2.6040  -12.2110   -2.0720 C   0  0  0  0  0  0  0  0  0  0  0  0
    1.8200  -13.0030   -2.5750 O   0  0  0  0  0  0  0  0  0  0  0  0
    3.8000  -11.7940   -2.6360 N   0  0  0  0  0  0  0  0  0  0  0  0
    4.3540  -12.2030   -3.8660 C   0  0  0  0  0  0  0  0  0  0  0  0
    4.0930  -11.5800   -5.0870 C   0  0  0  0  0  0  0  0  0  0  0  0
    4.6830  -12.0390   -6.2720 C   0  0  0  0  0  0  0  0  0  0  0  0
    5.5430  -13.1340   -6.2520 C   0  0  0  0  0  0  0  0  0  0  0  0
    6.1720  -13.6820   -7.3350 O   0  0  0  0  0  0  0  0  0  0  0  0
    6.2960  -12.8560   -8.4950 C   0  0  0  0  0  0  0  0  0  0  0  0
    7.5080  -13.3280   -9.3080 C   0  0  0  0  0  0  0  0  0  0  0  0
    8.2450  -12.2230  -10.0500 N   0  0  0  0  0  0  0  0  0  0  0  0
    7.3540  -11.3240  -10.8990 C   0  0  0  0  0  0  0  0  0  0  0  0
    8.1930  -10.1620  -11.4480 C   0  0  0  0  0  0  0  0  0  0  0  0
    9.3140  -10.6410  -12.2000 O   0  0  0  0  0  0  0  0  0  0  0  0
   10.1860  -11.4620  -11.4120 C   0  0  0  0  0  0  0  0  0  0  0  0
    9.4410  -12.6920  -10.8760 C   0  0  0  0  0  0  0  0  0  0  0  0
    5.8080  -13.7620   -5.0350 C   0  0  0  0  0  0  0  0  0  0  0  0
    5.2210  -13.3000   -3.8500 C   0  0  0  0  0  0  0  0  0  0  0  0
    2.1860  -14.5130    1.8140 C   0  0  0  0  0  0  0  0  0  0  0  0
    2.5860  -15.8530    1.8650 C   0  0  0  0  0  0  0  0  0  0  0  0
    2.5524  -18.5328    2.0983 H   0  0  0  0  0  0  0  0  0  0  0  0
    1.7097  -18.8533    0.5447 H   0  0  0  0  0  0  0  0  0  0  0  0
    3.4381  -18.3640    0.5447 H   0  0  0  0  0  0  0  0  0  0  0  0
    0.6776  -17.0999   -0.6716 H   0  0  0  0  0  0  0  0  0  0  0  0
   -0.0201  -14.7123   -0.7837 H   0  0  0  0  0  0  0  0  0  0  0  0
   -3.9230  -10.0544    0.5874 H   0  0  0  0  0  0  0  0  0  0  0  0
   -2.5537   -9.4647   -0.4145 H   0  0  0  0  0  0  0  0  0  0  0  0
   -2.9804  -11.2096   -0.4145 H   0  0  0  0  0  0  0  0  0  0  0  0
   -2.4059  -11.0561    3.4420 H   0  0  0  0  0  0  0  0  0  0  0  0
   -3.7795  -11.2762    2.3056 H   0  0  0  0  0  0  0  0  0  0  0  0
   -2.4174  -12.4471    2.3056 H   0  0  0  0  0  0  0  0  0  0  0  0
   -1.6442   -9.2788    3.1241 H   0  0  0  0  0  0  0  0  0  0  0  0
   -0.6141   -8.8612    1.7130 H   0  0  0  0  0  0  0  0  0  0  0  0
   -2.3569   -8.4259    1.7130 H   0  0  0  0  0  0  0  0  0  0  0  0
    0.0313  -10.0147   -0.8812 H   0  0  0  0  0  0  0  0  0  0  0  0
    3.2420  -11.3720   -0.3020 H   0  0  0  0  0  0  0  0  0  0  0  0
    4.3050  -11.0860   -2.1260 H   0  0  0  0  0  0  0  0  0  0  0  0
    3.4137  -10.7154   -5.1197 H   0  0  0  0  0  0  0  0  0  0  0  0
    4.4656  -11.5315   -7.2234 H   0  0  0  0  0  0  0  0  0  0  0  0
    5.3854  -12.9379   -9.1067 H   0  0  0  0  0  0  0  0  0  0  0  0
    6.4320  -11.8065   -8.1948 H   0  0  0  0  0  0  0  0  0  0  0  0
    8.2169  -13.8094   -8.6182 H   0  0  0  0  0  0  0  0  0  0  0  0
    7.1193  -14.0125  -10.0763 H   0  0  0  0  0  0  0  0  0  0  0  0
    8.6340  -11.6230   -9.3110 H   0  0  0  0  0  0  0  0  0  0  0  0
    6.9353  -11.9035  -11.7350 H   0  0  0  0  0  0  0  0  0  0  0  0
    6.5312  -10.9298  -10.2845 H   0  0  0  0  0  0  0  0  0  0  0  0
    7.5619   -9.5413  -12.1011 H   0  0  0  0  0  0  0  0  0  0  0  0
    8.5699   -9.5735  -10.5986 H   0  0  0  0  0  0  0  0  0  0  0  0
   11.0290  -11.7945  -12.0355 H   0  0  0  0  0  0  0  0  0  0  0  0
   10.5501  -10.8712  -10.5586 H   0  0  0  0  0  0  0  0  0  0  0  0
    9.0903  -13.3074  -11.7176 H   0  0  0  0  0  0  0  0  0  0  0  0
   10.1156  -13.2929  -10.2484 H   0  0  0  0  0  0  0  0  0  0  0  0
    6.4847  -14.6287   -5.0055 H   0  0  0  0  0  0  0  0  0  0  0  0
    5.4441  -13.8047   -2.8984 H   0  0  0  0  0  0  0  0  0  0  0  0
    2.6229  -13.7838    2.5121 H   0  0  0  0  0  0  0  0  0  0  0  0
    3.3218  -16.1734    2.6173 H   0  0  0  0  0  0  0  0  0  0  0  0
  1  2  1  0
  2  3  2  0
  3  4  1  0
  4  5  2  0
  5  6  1  0
  6  7  1  0
  7  8  2  0
  8  9  1  0
  9 10  1  0
  9 11  1  0
  9 12  1  0
  8 13  1  0
 13 14  2  0
 14 15  1  0
 15 16  1  0
 16 17  2  0
 16 18  1  0
 18 19  1  0
 19 20  2  0
 20 21  1  0
 21 22  2  0
 22 23  1  0
 23 24  1  0
 24 25  1  0
 25 26  1  0
 26 27  1  0
 27 28  1  0
 28 29  1  0
 29 30  1  0
 30 31  1  0
 22 32  1  0
 32 33  2  0
  5 34  1  0
 34 35  2  0
 35  2  1  0
 14  6  1  0
 33 19  1  0
 31 26  1  0
  1 36  1  0
  1 37  1  0
  1 38  1  0
  3 39  1  0
  4 40  1  0
 10 41  1  0
 10 42  1  0
 10 43  1  0
 11 44  1  0
 11 45  1  0
 11 46  1  0
 12 47  1  0
 12 48  1  0
 12 49  1  0
 13 50  1  0
 15 51  1  0
 18 52  1  0
 20 53  1  0
 21 54  1  0
 24 55  1  0
 24 56  1  0
 25 57  1  0
 25 58  1  0
 26 59  1  0
 27 60  1  0
 27 61  1  0
 28 62  1  0
 28 63  1  0
 30 64  1  0
 30 65  1  0
 31 66  1  0
 31 67  1  0
 32 68  1  0
 33 69  1  0
 34 70  1  0
 35 71  1  0
M  CHG  1  26   1
M  END
>  <meeko>  (2) 
{"is_sidechain": [false], "free_energy": -7.641, "intermolecular_energy": -11.238, "internal_energy": -1.267}

$$$$
LIB_FRZNJFWQVYAVCE__M_PUB_ALL__e8__s20260927
     RDKit          3D

 71 74  0  0  0  0  0  0  0  0999 V2000
   13.7780  -10.0070    0.5380 C   0  0  0  0  0  0  0  0  0  0  0  0
   13.1340  -10.9080   -0.4740 C   0  0  0  0  0  0  0  0  0  0  0  0
   13.7170  -11.0890   -1.7320 C   0  0  0  0  0  0  0  0  0  0  0  0
   13.1340  -11.9480   -2.6680 C   0  0  0  0  0  0  0  0  0  0  0  0
   11.9700  -12.6620   -2.3470 C   0  0  0  0  0  0  0  0  0  0  0  0
   11.3750  -13.5030   -3.3360 N   0  0  0  0  0  0  0  0  0  0  0  0
   12.0340  -14.6370   -3.7100 N   0  0  0  0  0  0  0  0  0  0  0  0
   11.5640  -14.9390   -4.9250 C   0  0  0  0  0  0  0  0  0  0  0  0
   12.1700  -16.0980   -5.7040 C   0  0  0  0  0  0  0  0  0  0  0  0
   13.5440  -15.6880   -6.2730 C   0  0  0  0  0  0  0  0  0  0  0  0
   12.3720  -17.3420   -4.8160 C   0  0  0  0  0  0  0  0  0  0  0  0
   11.2440  -16.4990   -6.8710 C   0  0  0  0  0  0  0  0  0  0  0  0
   10.4830  -14.0980   -5.2710 C   0  0  0  0  0  0  0  0  0  0  0  0
   10.2720  -13.2910   -4.1720 C   0  0  0  0  0  0  0  0  0  0  0  0
    9.1750  -12.4610   -3.9760 N   0  0  0  0  0  0  0  0  0  0  0  0
    7.9830  -12.9240   -3.4300 C   0  0  0  0  0  0  0  0  0  0  0  0
    7.7400  -14.1040   -3.2180 O   0  0  0  0  0  0  0  0  0  0  0  0
    7.1210  -11.8670   -3.1800 N   0  0  0  0  0  0  0  0  0  0  0  0
    5.8120  -11.9360   -2.6610 C   0  0  0  0  0  0  0  0  0  0  0  0
    5.5150  -12.1590   -1.3160 C   0  0  0  0  0  0  0  0  0  0  0  0
    4.1870  -12.2110   -0.8700 C   0  0  0  0  0  0  0  0  0  0  0  0
    3.1360  -12.0430   -1.7670 C   0  0  0  0  0  0  0  0  0  0  0  0
    1.8040  -12.0800   -1.4620 O   0  0  0  0  0  0  0  0  0  0  0  0
    1.3150  -11.0620   -0.5860 C   0  0  0  0  0  0  0  0  0  0  0  0
    1.1870  -11.6470    0.8270 C   0  0  0  0  0  0  0  0  0  0  0  0
    0.0610  -11.0560    1.6610 N   0  0  0  0  0  0  0  0  0  0  0  0
   -1.1750  -11.9390    1.7780 C   0  0  0  0  0  0  0  0  0  0  0  0
   -2.1520  -11.3040    2.7770 C   0  0  0  0  0  0  0  0  0  0  0  0
   -2.5010   -9.9710    2.3850 O   0  0  0  0  0  0  0  0  0  0  0  0
   -1.3570   -9.1120    2.3020 C   0  0  0  0  0  0  0  0  0  0  0  0
   -0.3520   -9.6390    1.2690 C   0  0  0  0  0  0  0  0  0  0  0  0
    3.4260  -11.8200   -3.1130 C   0  0  0  0  0  0  0  0  0  0  0  0
    4.7530  -11.7640   -3.5580 C   0  0  0  0  0  0  0  0  0  0  0  0
   11.3810  -12.4760   -1.0910 C   0  0  0  0  0  0  0  0  0  0  0  0
   11.9680  -11.6140   -0.1580 C   0  0  0  0  0  0  0  0  0  0  0  0
   13.5286  -10.3559    1.5509 H   0  0  0  0  0  0  0  0  0  0  0  0
   14.8695  -10.0245    0.4025 H   0  0  0  0  0  0  0  0  0  0  0  0
   13.4081   -8.9799    0.4025 H   0  0  0  0  0  0  0  0  0  0  0  0
   14.6419  -10.5510   -1.9871 H   0  0  0  0  0  0  0  0  0  0  0  0
   13.5906  -12.0648   -3.6619 H   0  0  0  0  0  0  0  0  0  0  0  0
   14.2371  -15.4812   -5.4443 H   0  0  0  0  0  0  0  0  0  0  0  0
   13.9441  -16.5059   -6.8902 H   0  0  0  0  0  0  0  0  0  0  0  0
   13.4305  -14.7846   -6.8902 H   0  0  0  0  0  0  0  0  0  0  0  0
   12.3243  -17.0482   -3.7570 H   0  0  0  0  0  0  0  0  0  0  0  0
   11.5814  -18.0766   -5.0287 H   0  0  0  0  0  0  0  0  0  0  0  0
   13.3544  -17.7887   -5.0287 H   0  0  0  0  0  0  0  0  0  0  0  0
   10.3040  -16.9060   -6.4700 H   0  0  0  0  0  0  0  0  0  0  0  0
   11.0270  -15.6142   -7.4875 H   0  0  0  0  0  0  0  0  0  0  0  0
   11.7408  -17.2626   -7.4875 H   0  0  0  0  0  0  0  0  0  0  0  0
    9.9255  -14.0885   -6.2192 H   0  0  0  0  0  0  0  0  0  0  0  0
    9.1350  -11.6170   -4.5280 H   0  0  0  0  0  0  0  0  0  0  0  0
    7.4930  -10.9450   -3.3480 H   0  0  0  0  0  0  0  0  0  0  0  0
    6.3347  -12.2960   -0.5953 H   0  0  0  0  0  0  0  0  0  0  0  0
    3.9743  -12.3856    0.1950 H   0  0  0  0  0  0  0  0  0  0  0  0
    2.0175  -10.2157   -0.5738 H   0  0  0  0  0  0  0  0  0  0  0  0
    0.3338  -10.7077   -0.9348 H   0  0  0  0  0  0  0  0  0  0  0  0
    1.0133  -12.7293    0.7351 H   0  0  0  0  0  0  0  0  0  0  0  0
    2.1227  -11.4012    1.3505 H   0  0  0  0  0  0  0  0  0  0  0  0
    0.4490  -10.9800    2.6110 H   0  0  0  0  0  0  0  0  0  0  0  0
   -1.6593  -12.0273    0.7943 H   0  0  0  0  0  0  0  0  0  0  0  0
   -0.8839  -12.9400    2.1290 H   0  0  0  0  0  0  0  0  0  0  0  0
   -3.0655  -11.9151    2.8232 H   0  0  0  0  0  0  0  0  0  0  0  0
   -1.6638  -11.2607    3.7618 H   0  0  0  0  0  0  0  0  0  0  0  0
   -1.6837   -8.1044    2.0055 H   0  0  0  0  0  0  0  0  0  0  0  0
   -0.8670   -9.0822    3.2864 H   0  0  0  0  0  0  0  0  0  0  0  0
   -0.8186   -9.6523    0.2729 H   0  0  0  0  0  0  0  0  0  0  0  0
    0.5329   -8.9862    1.2424 H   0  0  0  0  0  0  0  0  0  0  0  0
    2.6044  -11.6868   -3.8322 H   0  0  0  0  0  0  0  0  0  0  0  0
    4.9639  -11.5831   -4.6223 H   0  0  0  0  0  0  0  0  0  0  0  0
   10.4533  -13.0094   -0.8364 H   0  0  0  0  0  0  0  0  0  0  0  0
   11.5083  -11.4902    0.8336 H   0  0  0  0  0  0  0  0  0  0  0  0
  1  2  1  0
  2  3  2  0
  3  4  1  0
  4  5  2  0
  5  6  1  0
  6  7  1  0
  7  8  2  0
  8  9  1  0
  9 10  1  0
  9 11  1  0
  9 12  1  0
  8 13  1  0
 13 14  2  0
 14 15  1  0
 15 16  1  0
 16 17  2  0
 16 18  1  0
 18 19  1  0
 19 20  2  0
 20 21  1  0
 21 22  2  0
 22 23  1  0
 23 24  1  0
 24 25  1  0
 25 26  1  0
 26 27  1  0
 27 28  1  0
 28 29  1  0
 29 30  1  0
 30 31  1  0
 22 32  1  0
 32 33  2  0
  5 34  1  0
 34 35  2  0
 35  2  1  0
 14  6  1  0
 33 19  1  0
 31 26  1  0
  1 36  1  0
  1 37  1  0
  1 38  1  0
  3 39  1  0
  4 40  1  0
 10 41  1  0
 10 42  1  0
 10 43  1  0
 11 44  1  0
 11 45  1  0
 11 46  1  0
 12 47  1  0
 12 48  1  0
 12 49  1  0
 13 50  1  0
 15 51  1  0
 18 52  1  0
 20 53  1  0
 21 54  1  0
 24 55  1  0
 24 56  1  0
 25 57  1  0
 25 58  1  0
 26 59  1  0
 27 60  1  0
 27 61  1  0
 28 62  1  0
 28 63  1  0
 30 64  1  0
 30 65  1  0
 31 66  1  0
 31 67  1  0
 32 68  1  0
 33 69  1  0
 34 70  1  0
 35 71  1  0
M  CHG  1  26   1
M  END
>  <meeko>  (3) 
{"is_sidechain": [false], "free_energy": -7.569, "intermolecular_energy": -11.343, "internal_energy": -1.057}

$$$$
LIB_FRZNJFWQVYAVCE__M_PUB_ALL__e8__s20260927
     RDKit          3D

 71 74  0  0  0  0  0  0  0  0999 V2000
   -1.6860   -9.1740    1.9180 C   0  0  0  0  0  0  0  0  0  0  0  0
   -1.6350  -10.6690    2.0290 C   0  0  0  0  0  0  0  0  0  0  0  0
   -1.2380  -11.2760    3.2240 C   0  0  0  0  0  0  0  0  0  0  0  0
   -1.2150  -12.6690    3.3390 C   0  0  0  0  0  0  0  0  0  0  0  0
   -1.6150  -13.4770    2.2640 C   0  0  0  0  0  0  0  0  0  0  0  0
   -1.5430  -14.8970    2.3960 N   0  0  0  0  0  0  0  0  0  0  0  0
   -2.5380  -15.5400    3.0730 N   0  0  0  0  0  0  0  0  0  0  0  0
   -2.0050  -16.6970    3.4790 C   0  0  0  0  0  0  0  0  0  0  0  0
   -2.8080  -17.6290    4.3740 C   0  0  0  0  0  0  0  0  0  0  0  0
   -3.5510  -16.8130    5.4510 C   0  0  0  0  0  0  0  0  0  0  0  0
   -3.8570  -18.4290    3.5740 C   0  0  0  0  0  0  0  0  0  0  0  0
   -1.8740  -18.6410    5.0670 C   0  0  0  0  0  0  0  0  0  0  0  0
   -0.7170  -16.8800    2.9250 C   0  0  0  0  0  0  0  0  0  0  0  0
   -0.5060  -15.7910    2.1050 C   0  0  0  0  0  0  0  0  0  0  0  0
    0.5310  -15.6560    1.1900 N   0  0  0  0  0  0  0  0  0  0  0  0
    1.7530  -15.0860    1.5310 C   0  0  0  0  0  0  0  0  0  0  0  0
    1.9730  -14.5270    2.5960 O   0  0  0  0  0  0  0  0  0  0  0  0
    2.6630  -15.2330    0.4950 N   0  0  0  0  0  0  0  0  0  0  0  0
    3.9910  -14.7620    0.4500 C   0  0  0  0  0  0  0  0  0  0  0  0
    4.3570  -13.5030   -0.0270 C   0  0  0  0  0  0  0  0  0  0  0  0
    5.6990  -13.0990   -0.0390 C   0  0  0  0  0  0  0  0  0  0  0  0
    6.6960  -13.9540    0.4240 C   0  0  0  0  0  0  0  0  0  0  0  0
    8.0360  -13.6840    0.4580 O   0  0  0  0  0  0  0  0  0  0  0  0
    8.5520  -12.8570   -0.5870 C   0  0  0  0  0  0  0  0  0  0  0  0
    9.6470  -13.6310   -1.3320 C   0  0  0  0  0  0  0  0  0  0  0  0
   11.0240  -12.9860   -1.2890 N   0  0  0  0  0  0  0  0  0  0  0  0
   11.2170  -11.9730   -0.1660 C   0  0  0  0  0  0  0  0  0  0  0  0
   12.6870  -11.5340   -0.1350 C   0  0  0  0  0  0  0  0  0  0  0  0
   13.0940  -10.9940   -1.3970 O   0  0  0  0  0  0  0  0  0  0  0  0
   12.9540  -11.9410   -2.4640 C   0  0  0  0  0  0  0  0  0  0  0  0
   11.4930  -12.3850   -2.6120 C   0  0  0  0  0  0  0  0  0  0  0  0
    6.3360  -15.2140    0.9030 C   0  0  0  0  0  0  0  0  0  0  0  0
    4.9940  -15.6150    0.9180 C   0  0  0  0  0  0  0  0  0  0  0  0
   -2.0040  -12.8710    1.0640 C   0  0  0  0  0  0  0  0  0  0  0  0
   -2.0250  -11.4760    0.9540 C   0  0  0  0  0  0  0  0  0  0  0  0
   -1.7011   -8.7319    2.9251 H   0  0  0  0  0  0  0  0  0  0  0  0
   -0.7995   -8.8163    1.3737 H   0  0  0  0  0  0  0  0  0  0  0  0
   -2.5948   -8.8775    1.3737 H   0  0  0  0  0  0  0  0  0  0  0  0
   -0.9414  -10.6527    4.0805 H   0  0  0  0  0  0  0  0  0  0  0  0
   -0.8812  -13.1345    4.2781 H   0  0  0  0  0  0  0  0  0  0  0  0
   -3.2400  -17.1546    6.4493 H   0  0  0  0  0  0  0  0  0  0  0  0
   -3.3074  -15.7465    5.3360 H   0  0  0  0  0  0  0  0  0  0  0  0
   -4.6356  -16.9559    5.3360 H   0  0  0  0  0  0  0  0  0  0  0  0
   -4.5339  -18.9452    4.2707 H   0  0  0  0  0  0  0  0  0  0  0  0
   -4.4371  -17.7419    2.9405 H   0  0  0  0  0  0  0  0  0  0  0  0
   -3.3479  -19.1702    2.9405 H   0  0  0  0  0  0  0  0  0  0  0  0
   -1.9680  -18.5391    6.1582 H   0  0  0  0  0  0  0  0  0  0  0  0
   -2.1538  -19.6621    4.7686 H   0  0  0  0  0  0  0  0  0  0  0  0
   -0.8338  -18.4438    4.7686 H   0  0  0  0  0  0  0  0  0  0  0  0
   -0.0270  -17.7165    3.1095 H   0  0  0  0  0  0  0  0  0  0  0  0
    0.2820  -15.6680    0.2110 H   0  0  0  0  0  0  0  0  0  0  0  0
    2.3490  -15.7770   -0.2940 H   0  0  0  0  0  0  0  0  0  0  0  0
    3.5812  -12.8176   -0.3990 H   0  0  0  0  0  0  0  0  0  0  0  0
    5.9663  -12.1009   -0.4163 H   0  0  0  0  0  0  0  0  0  0  0  0
    7.7434  -12.5954   -1.2853 H   0  0  0  0  0  0  0  0  0  0  0  0
    8.9700  -11.9328   -0.1615 H   0  0  0  0  0  0  0  0  0  0  0  0
    9.7238  -14.6325   -0.8837 H   0  0  0  0  0  0  0  0  0  0  0  0
    9.3470  -13.6518   -2.3901 H   0  0  0  0  0  0  0  0  0  0  0  0
   11.6710  -13.7600   -1.0890 H   0  0  0  0  0  0  0  0  0  0  0  0
   10.5747  -11.0980   -0.3444 H   0  0  0  0  0  0  0  0  0  0  0  0
   10.9457  -12.4302    0.7970 H   0  0  0  0  0  0  0  0  0  0  0  0
   12.8156  -10.7660    0.6419 H   0  0  0  0  0  0  0  0  0  0  0  0
   13.3085  -12.4150    0.0831 H   0  0  0  0  0  0  0  0  0  0  0  0
   13.2865  -11.4765   -3.4040 H   0  0  0  0  0  0  0  0  0  0  0  0
   13.5686  -12.8238   -2.2340 H   0  0  0  0  0  0  0  0  0  0  0  0
   10.8669  -11.5170   -2.8661 H   0  0  0  0  0  0  0  0  0  0  0  0
   11.4098  -13.1345   -3.4129 H   0  0  0  0  0  0  0  0  0  0  0  0
    7.1134  -15.8990    1.2724 H   0  0  0  0  0  0  0  0  0  0  0  0
    4.7272  -16.6107    1.3018 H   0  0  0  0  0  0  0  0  0  0  0  0
   -2.2942  -13.4931    0.2045 H   0  0  0  0  0  0  0  0  0  0  0  0
   -2.3514  -11.0090    0.0130 H   0  0  0  0  0  0  0  0  0  0  0  0
  1  2  1  0
  2  3  2  0
  3  4  1  0
  4  5  2  0
  5  6  1  0
  6  7  1  0
  7  8  2  0
  8  9  1  0
  9 10  1  0
  9 11  1  0
  9 12  1  0
  8 13  1  0
 13 14  2  0
 14 15  1  0
 15 16  1  0
 16 17  2  0
 16 18  1  0
 18 19  1  0
 19 20  2  0
 20 21  1  0
 21 22  2  0
 22 23  1  0
 23 24  1  0
 24 25  1  0
 25 26  1  0
 26 27  1  0
 27 28  1  0
 28 29  1  0
 29 30  1  0
 30 31  1  0
 22 32  1  0
 32 33  2  0
  5 34  1  0
 34 35  2  0
 35  2  1  0
 14  6  1  0
 33 19  1  0
 31 26  1  0
  1 36  1  0
  1 37  1  0
  1 38  1  0
  3 39  1  0
  4 40  1  0
 10 41  1  0
 10 42  1  0
 10 43  1  0
 11 44  1  0
 11 45  1  0
 11 46  1  0
 12 47  1  0
 12 48  1  0
 12 49  1  0
 13 50  1  0
 15 51  1  0
 18 52  1  0
 20 53  1  0
 21 54  1  0
 24 55  1  0
 24 56  1  0
 25 57  1  0
 25 58  1  0
 26 59  1  0
 27 60  1  0
 27 61  1  0
 28 62  1  0
 28 63  1  0
 30 64  1  0
 30 65  1  0
 31 66  1  0
 31 67  1  0
 32 68  1  0
 33 69  1  0
 34 70  1  0
 35 71  1  0
M  CHG  1  26   1
M  END
>  <meeko>  (4) 
{"is_sidechain": [false], "free_energy": -7.499, "intermolecular_energy": -10.991, "internal_energy": -1.306}

$$$$
LIB_FRZNJFWQVYAVCE__M_PUB_ALL__e8__s20260927
     RDKit          3D

 71 74  0  0  0  0  0  0  0  0999 V2000
   -2.2640   -9.1810    1.7180 C   0  0  0  0  0  0  0  0  0  0  0  0
   -1.6810  -10.5570    1.8510 C   0  0  0  0  0  0  0  0  0  0  0  0
   -1.3840  -11.3130    0.7120 C   0  0  0  0  0  0  0  0  0  0  0  0
   -0.8170  -12.5850    0.8330 C   0  0  0  0  0  0  0  0  0  0  0  0
   -0.5110  -13.1090    2.0970 C   0  0  0  0  0  0  0  0  0  0  0  0
    0.0320  -14.4270    2.1910 N   0  0  0  0  0  0  0  0  0  0  0  0
    1.1780  -14.7100    1.5070 N   0  0  0  0  0  0  0  0  0  0  0  0
    1.1800  -16.0380    1.3480 C   0  0  0  0  0  0  0  0  0  0  0  0
    2.2690  -16.6990    0.5150 C   0  0  0  0  0  0  0  0  0  0  0  0
    2.2960  -16.0840   -0.8990 C   0  0  0  0  0  0  0  0  0  0  0  0
    3.6650  -16.5110    1.1450 C   0  0  0  0  0  0  0  0  0  0  0  0
    2.0060  -18.2140    0.3990 C   0  0  0  0  0  0  0  0  0  0  0  0
    0.1220  -16.6330    2.0720 C   0  0  0  0  0  0  0  0  0  0  0  0
   -0.5040  -15.5990    2.7360 C   0  0  0  0  0  0  0  0  0  0  0  0
   -1.4580  -15.7400    3.7360 N   0  0  0  0  0  0  0  0  0  0  0  0
   -2.8210  -15.6490    3.4800 C   0  0  0  0  0  0  0  0  0  0  0  0
   -3.2940  -15.2960    2.4090 O   0  0  0  0  0  0  0  0  0  0  0  0
   -3.5510  -16.0000    4.6060 N   0  0  0  0  0  0  0  0  0  0  0  0
   -4.9540  -16.0030    4.7500 C   0  0  0  0  0  0  0  0  0  0  0  0
   -5.7490  -14.8590    4.6710 C   0  0  0  0  0  0  0  0  0  0  0  0
   -7.1400  -14.9370    4.8200 C   0  0  0  0  0  0  0  0  0  0  0  0
   -7.7550  -16.1640    5.0550 C   0  0  0  0  0  0  0  0  0  0  0  0
   -9.0960  -16.3720    5.2270 O   0  0  0  0  0  0  0  0  0  0  0  0
   -9.5070  -16.9200    6.4810 C   0  0  0  0  0  0  0  0  0  0  0  0
  -10.8140  -17.6980    6.2740 C   0  0  0  0  0  0  0  0  0  0  0  0
  -10.9000  -19.0110    7.0370 N   0  0  0  0  0  0  0  0  0  0  0  0
   -9.9440  -20.0930    6.5480 C   0  0  0  0  0  0  0  0  0  0  0  0
  -10.0140  -21.2910    7.5050 C   0  0  0  0  0  0  0  0  0  0  0  0
  -11.3520  -21.7910    7.6140 O   0  0  0  0  0  0  0  0  0  0  0  0
  -12.2630  -20.7990    8.1060 C   0  0  0  0  0  0  0  0  0  0  0  0
  -12.3080  -19.5870    7.1670 C   0  0  0  0  0  0  0  0  0  0  0  0
   -6.9660  -17.3110    5.1360 C   0  0  0  0  0  0  0  0  0  0  0  0
   -5.5760  -17.2330    4.9820 C   0  0  0  0  0  0  0  0  0  0  0  0
   -0.8150  -12.3580    3.2380 C   0  0  0  0  0  0  0  0  0  0  0  0
   -1.3840  -11.0850    3.1130 C   0  0  0  0  0  0  0  0  0  0  0  0
   -2.4423   -8.7601    2.7185 H   0  0  0  0  0  0  0  0  0  0  0  0
   -1.5616   -8.5367    1.1690 H   0  0  0  0  0  0  0  0  0  0  0  0
   -3.2155   -9.2374    1.1690 H   0  0  0  0  0  0  0  0  0  0  0  0
   -1.5982  -10.9035   -0.2862 H   0  0  0  0  0  0  0  0  0  0  0  0
   -0.6095  -13.1788   -0.0694 H   0  0  0  0  0  0  0  0  0  0  0  0
    2.3441  -14.9878   -0.8212 H   0  0  0  0  0  0  0  0  0  0  0  0
    3.1788  -16.4522   -1.4422 H   0  0  0  0  0  0  0  0  0  0  0  0
    1.3843  -16.3734   -1.4422 H   0  0  0  0  0  0  0  0  0  0  0  0
    3.5771  -16.5228    2.2414 H   0  0  0  0  0  0  0  0  0  0  0  0
    4.3264  -17.3282    0.8213 H   0  0  0  0  0  0  0  0  0  0  0  0
    4.0867  -15.5480    0.8213 H   0  0  0  0  0  0  0  0  0  0  0  0
    1.9301  -18.6511    1.4056 H   0  0  0  0  0  0  0  0  0  0  0  0
    1.0652  -18.3822   -0.1457 H   0  0  0  0  0  0  0  0  0  0  0  0
    2.8350  -18.6894   -0.1457 H   0  0  0  0  0  0  0  0  0  0  0  0
   -0.1464  -17.6994    2.1000 H   0  0  0  0  0  0  0  0  0  0  0  0
   -1.1520  -15.5780    4.6860 H   0  0  0  0  0  0  0  0  0  0  0  0
   -3.0150  -16.3330    5.3930 H   0  0  0  0  0  0  0  0  0  0  0  0
   -5.2770  -13.8822    4.4892 H   0  0  0  0  0  0  0  0  0  0  0  0
   -7.7496  -14.0239    4.7510 H   0  0  0  0  0  0  0  0  0  0  0  0
   -8.7289  -17.5982    6.8613 H   0  0  0  0  0  0  0  0  0  0  0  0
   -9.6639  -16.1112    7.2098 H   0  0  0  0  0  0  0  0  0  0  0  0
  -11.6484  -17.0584    6.5977 H   0  0  0  0  0  0  0  0  0  0  0  0
  -10.8558  -17.9563    5.2056 H   0  0  0  0  0  0  0  0  0  0  0  0
  -10.6030  -18.7800    7.9940 H   0  0  0  0  0  0  0  0  0  0  0  0
  -10.2343  -20.4118    5.5360 H   0  0  0  0  0  0  0  0  0  0  0  0
   -8.9177  -19.6980    6.5214 H   0  0  0  0  0  0  0  0  0  0  0  0
   -9.3619  -22.0915    7.1257 H   0  0  0  0  0  0  0  0  0  0  0  0
   -9.6841  -20.9603    8.5009 H   0  0  0  0  0  0  0  0  0  0  0  0
  -13.2693  -21.2374    8.1774 H   0  0  0  0  0  0  0  0  0  0  0  0
  -11.9195  -20.4652    9.0962 H   0  0  0  0  0  0  0  0  0  0  0  0
  -12.6721  -19.8998    6.1772 H   0  0  0  0  0  0  0  0  0  0  0  0
  -12.9872  -18.8239    7.5749 H   0  0  0  0  0  0  0  0  0  0  0  0
   -7.4397  -18.2861    5.3226 H   0  0  0  0  0  0  0  0  0  0  0  0
   -4.9685  -18.1479    5.0442 H   0  0  0  0  0  0  0  0  0  0  0  0
   -0.6062  -12.7693    4.2366 H   0  0  0  0  0  0  0  0  0  0  0  0
   -1.5998  -10.4939    4.0152 H   0  0  0  0  0  0  0  0  0  0  0  0
  1  2  1  0
  2  3  2  0
  3  4  1  0
  4  5  2  0
  5  6  1  0
  6  7  1  0
  7  8  2  0
  8  9  1  0
  9 10  1  0
  9 11  1  0
  9 12  1  0
  8 13  1  0
 13 14  2  0
 14 15  1  0
 15 16  1  0
 16 17  2  0
 16 18  1  0
 18 19  1  0
 19 20  2  0
 20 21  1  0
 21 22  2  0
 22 23  1  0
 23 24  1  0
 24 25  1  0
 25 26  1  0
 26 27  1  0
 27 28  1  0
 28 29  1  0
 29 30  1  0
 30 31  1  0
 22 32  1  0
 32 33  2  0
  5 34  1  0
 34 35  2  0
 35  2  1  0
 14  6  1  0
 33 19  1  0
 31 26  1  0
  1 36  1  0
  1 37  1  0
  1 38  1  0
  3 39  1  0
  4 40  1  0
 10 41  1  0
 10 42  1  0
 10 43  1  0
 11 44  1  0
 11 45  1  0
 11 46  1  0
 12 47  1  0
 12 48  1  0
 12 49  1  0
 13 50  1  0
 15 51  1  0
 18 52  1  0
 20 53  1  0
 21 54  1  0
 24 55  1  0
 24 56  1  0
 25 57  1  0
 25 58  1  0
 26 59  1  0
 27 60  1  0
 27 61  1  0
 28 62  1  0
 28 63  1  0
 30 64  1  0
 30 65  1  0
 31 66  1  0
 31 67  1  0
 32 68  1  0
 33 69  1  0
 34 70  1  0
 35 71  1  0
M  CHG  1  26   1
M  END
>  <meeko>  (5) 
{"is_sidechain": [false], "free_energy": -7.4, "intermolecular_energy": -10.937, "internal_energy": -1.215}

$$$$
LIB_FRZNJFWQVYAVCE__M_PUB_ALL__e8__s20260927
     RDKit          3D

 71 74  0  0  0  0  0  0  0  0999 V2000
   -4.4880  -11.7160   -0.5060 C   0  0  0  0  0  0  0  0  0  0  0  0
   -3.9370  -12.6000    0.5740 C   0  0  0  0  0  0  0  0  0  0  0  0
   -4.6130  -12.7360    1.7910 C   0  0  0  0  0  0  0  0  0  0  0  0
   -4.1160  -13.5790    2.7880 C   0  0  0  0  0  0  0  0  0  0  0  0
   -2.9470  -14.3230    2.5720 C   0  0  0  0  0  0  0  0  0  0  0  0
   -2.4410  -15.1470    3.6240 N   0  0  0  0  0  0  0  0  0  0  0  0
   -1.2030  -14.8760    4.1260 N   0  0  0  0  0  0  0  0  0  0  0  0
   -0.7840  -16.0190    4.6800 C   0  0  0  0  0  0  0  0  0  0  0  0
    0.6260  -16.1150    5.2430 C   0  0  0  0  0  0  0  0  0  0  0  0
    1.3740  -14.7840    5.0220 C   0  0  0  0  0  0  0  0  0  0  0  0
    0.6200  -16.4120    6.7570 C   0  0  0  0  0  0  0  0  0  0  0  0
    1.4050  -17.2490    4.5450 C   0  0  0  0  0  0  0  0  0  0  0  0
   -1.8160  -16.9850    4.6840 C   0  0  0  0  0  0  0  0  0  0  0  0
   -2.9190  -16.3540    4.1490 C   0  0  0  0  0  0  0  0  0  0  0  0
   -4.2180  -16.8470    4.1590 N   0  0  0  0  0  0  0  0  0  0  0  0
   -5.1340  -16.5050    5.1480 C   0  0  0  0  0  0  0  0  0  0  0  0
   -4.8480  -15.8770    6.1570 O   0  0  0  0  0  0  0  0  0  0  0  0
   -6.3950  -16.9870    4.8290 N   0  0  0  0  0  0  0  0  0  0  0  0
   -7.5730  -16.8720    5.5950 C   0  0  0  0  0  0  0  0  0  0  0  0
   -7.6450  -17.1350    6.9630 C   0  0  0  0  0  0  0  0  0  0  0  0
   -8.8520  -16.9950    7.6610 C   0  0  0  0  0  0  0  0  0  0  0  0
  -10.0080  -16.5930    6.9960 C   0  0  0  0  0  0  0  0  0  0  0  0
  -11.2430  -16.4290    7.5580 O   0  0  0  0  0  0  0  0  0  0  0  0
  -11.7610  -17.5290    8.3100 C   0  0  0  0  0  0  0  0  0  0  0  0
  -12.0860  -18.6760    7.3450 C   0  0  0  0  0  0  0  0  0  0  0  0
  -11.4330  -20.0050    7.6930 N   0  0  0  0  0  0  0  0  0  0  0  0
  -10.7640  -20.7110    6.5200 C   0  0  0  0  0  0  0  0  0  0  0  0
  -10.0060  -21.9400    7.0420 C   0  0  0  0  0  0  0  0  0  0  0  0
  -10.8800  -22.8260    7.7510 O   0  0  0  0  0  0  0  0  0  0  0  0
  -11.4950  -22.1920    8.8810 C   0  0  0  0  0  0  0  0  0  0  0  0
  -12.3340  -20.9860    8.4400 C   0  0  0  0  0  0  0  0  0  0  0  0
   -9.9430  -16.3300    5.6280 C   0  0  0  0  0  0  0  0  0  0  0  0
   -8.7350  -16.4650    4.9320 C   0  0  0  0  0  0  0  0  0  0  0  0
   -2.2650  -14.1830    1.3580 C   0  0  0  0  0  0  0  0  0  0  0  0
   -2.7660  -13.3370    0.3620 C   0  0  0  0  0  0  0  0  0  0  0  0
   -5.0175  -10.8665   -0.0499 H   0  0  0  0  0  0  0  0  0  0  0  0
   -3.6630  -11.3416   -1.1299 H   0  0  0  0  0  0  0  0  0  0  0  0
   -5.1874  -12.2918   -1.1299 H   0  0  0  0  0  0  0  0  0  0  0  0
   -5.5431  -12.1749    1.9644 H   0  0  0  0  0  0  0  0  0  0  0  0
   -4.6452  -13.6598    3.7490 H   0  0  0  0  0  0  0  0  0  0  0  0
    1.6246  -14.3381    5.9959 H   0  0  0  0  0  0  0  0  0  0  0  0
    2.2984  -14.9724    4.4563 H   0  0  0  0  0  0  0  0  0  0  0  0
    0.7324  -14.0924    4.4563 H   0  0  0  0  0  0  0  0  0  0  0  0
    0.6391  -15.4651    7.3165 H   0  0  0  0  0  0  0  0  0  0  0  0
   -0.2897  -16.9732    7.0170 H   0  0  0  0  0  0  0  0  0  0  0  0
    1.5063  -17.0095    7.0170 H   0  0  0  0  0  0  0  0  0  0  0  0
    1.8558  -17.9053    5.3040 H   0  0  0  0  0  0  0  0  0  0  0  0
    0.7170  -17.8337    3.9167 H   0  0  0  0  0  0  0  0  0  0  0  0
    2.1976  -16.8166    3.9167 H   0  0  0  0  0  0  0  0  0  0  0  0
   -1.7523  -18.0239    5.0399 H   0  0  0  0  0  0  0  0  0  0  0  0
   -4.3880  -17.7000    3.6440 H   0  0  0  0  0  0  0  0  0  0  0  0
   -6.4830  -17.4310    3.9280 H   0  0  0  0  0  0  0  0  0  0  0  0
   -6.7415  -17.4569    7.5015 H   0  0  0  0  0  0  0  0  0  0  0  0
   -8.8868  -17.2038    8.7404 H   0  0  0  0  0  0  0  0  0  0  0  0
  -11.0108  -17.8627    9.0420 H   0  0  0  0  0  0  0  0  0  0  0  0
  -12.6712  -17.2209    8.8454 H   0  0  0  0  0  0  0  0  0  0  0  0
  -13.1764  -18.8210    7.3403 H   0  0  0  0  0  0  0  0  0  0  0  0
  -11.6840  -18.3801    6.3648 H   0  0  0  0  0  0  0  0  0  0  0  0
  -10.6790  -19.7640    8.3490 H   0  0  0  0  0  0  0  0  0  0  0  0
  -11.5289  -21.0294    5.7964 H   0  0  0  0  0  0  0  0  0  0  0  0
  -10.0618  -20.0243    6.0247 H   0  0  0  0  0  0  0  0  0  0  0  0
   -9.5644  -22.4776    6.1900 H   0  0  0  0  0  0  0  0  0  0  0  0
   -9.2220  -21.5975    7.7335 H   0  0  0  0  0  0  0  0  0  0  0  0
  -12.1463  -22.9171    9.3910 H   0  0  0  0  0  0  0  0  0  0  0  0
  -10.7050  -21.8416    9.5615 H   0  0  0  0  0  0  0  0  0  0  0  0
  -13.1442  -21.3224    7.7764 H   0  0  0  0  0  0  0  0  0  0  0  0
  -12.7722  -20.4939    9.3209 H   0  0  0  0  0  0  0  0  0  0  0  0
  -10.8490  -16.0135    5.0904 H   0  0  0  0  0  0  0  0  0  0  0  0
   -8.7001  -16.2489    3.8540 H   0  0  0  0  0  0  0  0  0  0  0  0
   -1.3320  -14.7398    1.1860 H   0  0  0  0  0  0  0  0  0  0  0  0
   -2.2342  -13.2504   -0.5970 H   0  0  0  0  0  0  0  0  0  0  0  0
  1  2  1  0
  2  3  2  0
  3  4  1  0
  4  5  2  0
  5  6  1  0
  6  7  1  0
  7  8  2  0
  8  9  1  0
  9 10  1  0
  9 11  1  0
  9 12  1  0
  8 13  1  0
 13 14  2  0
 14 15  1  0
 15 16  1  0
 16 17  2  0
 16 18  1  0
 18 19  1  0
 19 20  2  0
 20 21  1  0
 21 22  2  0
 22 23  1  0
 23 24  1  0
 24 25  1  0
 25 26  1  0
 26 27  1  0
 27 28  1  0
 28 29  1  0
 29 30  1  0
 30 31  1  0
 22 32  1  0
 32 33  2  0
  5 34  1  0
 34 35  2  0
 35  2  1  0
 14  6  1  0
 33 19  1  0
 31 26  1  0
  1 36  1  0
  1 37  1  0
  1 38  1  0
  3 39  1  0
  4 40  1  0
 10 41  1  0
 10 42  1  0
 10 43  1  0
 11 44  1  0
 11 45  1  0
 11 46  1  0
 12 47  1  0
 12 48  1  0
 12 49  1  0
 13 50  1  0
 15 51  1  0
 18 52  1  0
 20 53  1  0
 21 54  1  0
 24 55  1  0
 24 56  1  0
 25 57  1  0
 25 58  1  0
 26 59  1  0
 27 60  1  0
 27 61  1  0
 28 62  1  0
 28 63  1  0
 30 64  1  0
 30 65  1  0
 31 66  1  0
 31 67  1  0
 32 68  1  0
 33 69  1  0
 34 70  1  0
 35 71  1  0
M  CHG  1  26   1
M  END
>  <meeko>  (6) 
{"is_sidechain": [false], "free_energy": -7.34, "intermolecular_energy": -10.915, "internal_energy": -1.15}

$$$$
LIB_FRZNJFWQVYAVCE__M_PUB_ALL__e8__s20260927
     RDKit          3D

 71 74  0  0  0  0  0  0  0  0999 V2000
   -2.5680   -9.0570    1.8340 C   0  0  0  0  0  0  0  0  0  0  0  0
   -1.3750   -9.7820    1.2840 C   0  0  0  0  0  0  0  0  0  0  0  0
   -1.5200  -11.0500    0.7130 C   0  0  0  0  0  0  0  0  0  0  0  0
   -0.4140  -11.7160    0.1750 C   0  0  0  0  0  0  0  0  0  0  0  0
    0.8500  -11.1090    0.1770 C   0  0  0  0  0  0  0  0  0  0  0  0
    1.9690  -11.8290   -0.3440 N   0  0  0  0  0  0  0  0  0  0  0  0
    2.4020  -11.5370   -1.6040 N   0  0  0  0  0  0  0  0  0  0  0  0
    3.0630  -12.6250   -2.0150 C   0  0  0  0  0  0  0  0  0  0  0  0
    3.5910  -12.6960   -3.4400 C   0  0  0  0  0  0  0  0  0  0  0  0
    5.0630  -12.2370   -3.4790 C   0  0  0  0  0  0  0  0  0  0  0  0
    3.5230  -14.1300   -4.0060 C   0  0  0  0  0  0  0  0  0  0  0  0
    2.7580  -11.7860   -4.3650 C   0  0  0  0  0  0  0  0  0  0  0  0
    3.2000  -13.5590   -0.9630 C   0  0  0  0  0  0  0  0  0  0  0  0
    2.6330  -12.9610    0.1430 C   0  0  0  0  0  0  0  0  0  0  0  0
    2.7350  -13.4180    1.4510 N   0  0  0  0  0  0  0  0  0  0  0  0
    1.8370  -14.3340    1.9890 C   0  0  0  0  0  0  0  0  0  0  0  0
    0.8140  -14.6990    1.4280 O   0  0  0  0  0  0  0  0  0  0  0  0
    2.2630  -14.7530    3.2400 N   0  0  0  0  0  0  0  0  0  0  0  0
    1.6100  -15.6490    4.1110 C   0  0  0  0  0  0  0  0  0  0  0  0
    1.5220  -17.0250    3.8950 C   0  0  0  0  0  0  0  0  0  0  0  0
    0.8580  -17.8570    4.8060 C   0  0  0  0  0  0  0  0  0  0  0  0
    0.2680  -17.3210    5.9480 C   0  0  0  0  0  0  0  0  0  0  0  0
   -0.4130  -18.0210    6.9050 O   0  0  0  0  0  0  0  0  0  0  0  0
   -0.0680  -17.7520    8.2660 C   0  0  0  0  0  0  0  0  0  0  0  0
    0.6930  -18.9590    8.8290 C   0  0  0  0  0  0  0  0  0  0  0  0
    2.1840  -18.7350    9.0260 N   0  0  0  0  0  0  0  0  0  0  0  0
    2.5500  -17.3830    9.6290 C   0  0  0  0  0  0  0  0  0  0  0  0
    4.0550  -17.3600    9.9290 C   0  0  0  0  0  0  0  0  0  0  0  0
    4.8240  -17.6280    8.7510 O   0  0  0  0  0  0  0  0  0  0  0  0
    4.5210  -18.9100    8.1850 C   0  0  0  0  0  0  0  0  0  0  0  0
    3.0420  -18.9970    7.7890 C   0  0  0  0  0  0  0  0  0  0  0  0
    0.3520  -15.9460    6.1700 C   0  0  0  0  0  0  0  0  0  0  0  0
    1.0190  -15.1160    5.2600 C   0  0  0  0  0  0  0  0  0  0  0  0
    0.9980   -9.8430    0.7550 C   0  0  0  0  0  0  0  0  0  0  0  0
   -0.1110   -9.1800    1.2930 C   0  0  0  0  0  0  0  0  0  0  0  0
   -2.5347   -9.0773    2.9333 H   0  0  0  0  0  0  0  0  0  0  0  0
   -2.5555   -8.0136    1.4860 H   0  0  0  0  0  0  0  0  0  0  0  0
   -3.4884   -9.5486    1.4860 H   0  0  0  0  0  0  0  0  0  0  0  0
   -2.5108  -11.5271    0.6867 H   0  0  0  0  0  0  0  0  0  0  0  0
   -0.5365  -12.7222   -0.2523 H   0  0  0  0  0  0  0  0  0  0  0  0
    5.4380  -12.1201   -2.4515 H   0  0  0  0  0  0  0  0  0  0  0  0
    5.6678  -12.9892   -4.0067 H   0  0  0  0  0  0  0  0  0  0  0  0
    5.1331  -11.2744   -4.0067 H   0  0  0  0  0  0  0  0  0  0  0  0
    3.4888  -14.8507   -3.1757 H   0  0  0  0  0  0  0  0  0  0  0  0
    2.6187  -14.2382   -4.6229 H   0  0  0  0  0  0  0  0  0  0  0  0
    4.4130  -14.3233   -4.6229 H   0  0  0  0  0  0  0  0  0  0  0  0
    2.1398  -11.1107   -3.7552 H   0  0  0  0  0  0  0  0  0  0  0  0
    3.4324  -11.1926   -4.9998 H   0  0  0  0  0  0  0  0  0  0  0  0
    2.1075  -12.4055   -4.9998 H   0  0  0  0  0  0  0  0  0  0  0  0
    3.6626  -14.5556   -1.0155 H   0  0  0  0  0  0  0  0  0  0  0  0
    3.2530  -12.8410    2.0990 H   0  0  0  0  0  0  0  0  0  0  0  0
    3.1640  -14.4100    3.5380 H   0  0  0  0  0  0  0  0  0  0  0  0
    1.9808  -17.4628    2.9962 H   0  0  0  0  0  0  0  0  0  0  0  0
    0.8024  -18.9394    4.6182 H   0  0  0  0  0  0  0  0  0  0  0  0
    0.5691  -16.8567    8.3162 H   0  0  0  0  0  0  0  0  0  0  0  0
   -0.9797  -17.5759    8.8557 H   0  0  0  0  0  0  0  0  0  0  0  0
    0.2535  -19.2167    9.8039 H   0  0  0  0  0  0  0  0  0  0  0  0
    0.5955  -19.7625    8.0841 H   0  0  0  0  0  0  0  0  0  0  0  0
    2.4680  -19.4420    9.7170 H   0  0  0  0  0  0  0  0  0  0  0  0
    2.3039  -16.5825    8.9159 H   0  0  0  0  0  0  0  0  0  0  0  0
    1.9835  -17.2254   10.5587 H   0  0  0  0  0  0  0  0  0  0  0  0
    4.3280  -16.3676   10.3172 H   0  0  0  0  0  0  0  0  0  0  0  0
    4.2732  -18.1416   10.6716 H   0  0  0  0  0  0  0  0  0  0  0  0
    5.1430  -19.0653    7.2911 H   0  0  0  0  0  0  0  0  0  0  0  0
    4.7298  -19.6848    8.9374 H   0  0  0  0  0  0  0  0  0  0  0  0
    2.8206  -18.2431    7.0192 H   0  0  0  0  0  0  0  0  0  0  0  0
    2.8214  -19.9966    7.3864 H   0  0  0  0  0  0  0  0  0  0  0  0
   -0.1099  -15.5098    7.0680 H   0  0  0  0  0  0  0  0  0  0  0  0
    1.0783  -14.0344    5.4514 H   0  0  0  0  0  0  0  0  0  0  0  0
    1.9894   -9.3674    0.7866 H   0  0  0  0  0  0  0  0  0  0  0  0
    0.0116   -8.1767    1.7269 H   0  0  0  0  0  0  0  0  0  0  0  0
  1  2  1  0
  2  3  2  0
  3  4  1  0
  4  5  2  0
  5  6  1  0
  6  7  1  0
  7  8  2  0
  8  9  1  0
  9 10  1  0
  9 11  1  0
  9 12  1  0
  8 13  1  0
 13 14  2  0
 14 15  1  0
 15 16  1  0
 16 17  2  0
 16 18  1  0
 18 19  1  0
 19 20  2  0
 20 21  1  0
 21 22  2  0
 22 23  1  0
 23 24  1  0
 24 25  1  0
 25 26  1  0
 26 27  1  0
 27 28  1  0
 28 29  1  0
 29 30  1  0
 30 31  1  0
 22 32  1  0
 32 33  2  0
  5 34  1  0
 34 35  2  0
 35  2  1  0
 14  6  1  0
 33 19  1  0
 31 26  1  0
  1 36  1  0
  1 37  1  0
  1 38  1  0
  3 39  1  0
  4 40  1  0
 10 41  1  0
 10 42  1  0
 10 43  1  0
 11 44  1  0
 11 45  1  0
 11 46  1  0
 12 47  1  0
 12 48  1  0
 12 49  1  0
 13 50  1  0
 15 51  1  0
 18 52  1  0
 20 53  1  0
 21 54  1  0
 24 55  1  0
 24 56  1  0
 25 57  1  0
 25 58  1  0
 26 59  1  0
 27 60  1  0
 27 61  1  0
 28 62  1  0
 28 63  1  0
 30 64  1  0
 30 65  1  0
 31 66  1  0
 31 67  1  0
 32 68  1  0
 33 69  1  0
 34 70  1  0
 35 71  1  0
M  CHG  1  26   1
M  END
>  <meeko>  (7) 
{"is_sidechain": [false], "free_energy": -7.286, "intermolecular_energy": -10.504, "internal_energy": -1.481}

$$$$
LIB_FRZNJFWQVYAVCE__M_PUB_ALL__e8__s20260927
     RDKit          3D

 71 74  0  0  0  0  0  0  0  0999 V2000
   -2.2210   -9.1770    1.3830 C   0  0  0  0  0  0  0  0  0  0  0  0
   -1.8470  -10.5670    1.8060 C   0  0  0  0  0  0  0  0  0  0  0  0
   -1.4420  -10.8210    3.1200 C   0  0  0  0  0  0  0  0  0  0  0  0
   -1.1170  -12.1200    3.5230 C   0  0  0  0  0  0  0  0  0  0  0  0
   -1.2200  -13.1900    2.6220 C   0  0  0  0  0  0  0  0  0  0  0  0
   -0.8440  -14.5000    3.0510 N   0  0  0  0  0  0  0  0  0  0  0  0
   -1.8090  -15.4600    3.1310 N   0  0  0  0  0  0  0  0  0  0  0  0
   -1.3370  -16.3690    3.9920 C   0  0  0  0  0  0  0  0  0  0  0  0
   -2.2130  -17.5390    4.4140 C   0  0  0  0  0  0  0  0  0  0  0  0
   -2.8000  -18.2330    3.1680 C   0  0  0  0  0  0  0  0  0  0  0  0
   -1.4190  -18.5900    5.2160 C   0  0  0  0  0  0  0  0  0  0  0  0
   -3.3720  -17.0450    5.3050 C   0  0  0  0  0  0  0  0  0  0  0  0
    0.0020  -16.0820    4.3440 C   0  0  0  0  0  0  0  0  0  0  0  0
    0.3510  -14.9720    3.6050 C   0  0  0  0  0  0  0  0  0  0  0  0
    1.6380  -14.4670    3.4620 N   0  0  0  0  0  0  0  0  0  0  0  0
    2.3020  -14.4600    2.2400 C   0  0  0  0  0  0  0  0  0  0  0  0
    1.8880  -15.0180    1.2340 O   0  0  0  0  0  0  0  0  0  0  0  0
    3.4880  -13.7480    2.3360 N   0  0  0  0  0  0  0  0  0  0  0  0
    4.4470  -13.5440    1.3230 C   0  0  0  0  0  0  0  0  0  0  0  0
    4.8530  -14.5280    0.4210 C   0  0  0  0  0  0  0  0  0  0  0  0
    5.8100  -14.2520   -0.5650 C   0  0  0  0  0  0  0  0  0  0  0  0
    6.3790  -12.9850   -0.6580 C   0  0  0  0  0  0  0  0  0  0  0  0
    7.3250  -12.5920   -1.5640 O   0  0  0  0  0  0  0  0  0  0  0  0
    6.9780  -11.5090   -2.4300 C   0  0  0  0  0  0  0  0  0  0  0  0
    6.4860  -12.0840   -3.7640 C   0  0  0  0  0  0  0  0  0  0  0  0
    4.9830  -11.9910   -3.9800 N   0  0  0  0  0  0  0  0  0  0  0  0
    4.2530  -11.0890   -2.9930 C   0  0  0  0  0  0  0  0  0  0  0  0
    2.7880  -10.9520   -3.4280 C   0  0  0  0  0  0  0  0  0  0  0  0
    2.1540  -12.2330   -3.5270 O   0  0  0  0  0  0  0  0  0  0  0  0
    2.8040  -13.0880   -4.4770 C   0  0  0  0  0  0  0  0  0  0  0  0
    4.2650  -13.3360   -4.0800 C   0  0  0  0  0  0  0  0  0  0  0  0
    5.9790  -11.9960    0.2410 C   0  0  0  0  0  0  0  0  0  0  0  0
    5.0180  -12.2720    1.2230 C   0  0  0  0  0  0  0  0  0  0  0  0
   -1.6170  -12.9360    1.3040 C   0  0  0  0  0  0  0  0  0  0  0  0
   -1.9400  -11.6340    0.9040 C   0  0  0  0  0  0  0  0  0  0  0  0
   -2.3884   -8.5549    2.2746 H   0  0  0  0  0  0  0  0  0  0  0  0
   -1.4071   -8.7451    0.7821 H   0  0  0  0  0  0  0  0  0  0  0  0
   -3.1417   -9.2118    0.7821 H   0  0  0  0  0  0  0  0  0  0  0  0
   -1.3786   -9.9933    3.8417 H   0  0  0  0  0  0  0  0  0  0  0  0
   -0.7784  -12.3039    4.5533 H   0  0  0  0  0  0  0  0  0  0  0  0
   -3.4806  -19.0377    3.4830 H   0  0  0  0  0  0  0  0  0  0  0  0
   -3.3548  -17.4981    2.5662 H   0  0  0  0  0  0  0  0  0  0  0  0
   -1.9833  -18.6582    2.5662 H   0  0  0  0  0  0  0  0  0  0  0  0
   -1.5553  -18.4095    6.2925 H   0  0  0  0  0  0  0  0  0  0  0  0
   -1.7843  -19.5965    4.9638 H   0  0  0  0  0  0  0  0  0  0  0  0
   -0.3510  -18.5137    4.9638 H   0  0  0  0  0  0  0  0  0  0  0  0
   -3.0965  -17.1624    6.3635 H   0  0  0  0  0  0  0  0  0  0  0  0
   -3.5707  -15.9840    5.0933 H   0  0  0  0  0  0  0  0  0  0  0  0
   -4.2750  -17.6364    5.0933 H   0  0  0  0  0  0  0  0  0  0  0  0
    0.6335  -16.6302    5.0586 H   0  0  0  0  0  0  0  0  0  0  0  0
    2.2040  -14.4140    4.2970 H   0  0  0  0  0  0  0  0  0  0  0  0
    3.6570  -13.2900    3.2180 H   0  0  0  0  0  0  0  0  0  0  0  0
    4.4155  -15.5353    0.4847 H   0  0  0  0  0  0  0  0  0  0  0  0
    6.1131  -15.0408   -1.2692 H   0  0  0  0  0  0  0  0  0  0  0  0
    6.1802  -10.9078   -1.9694 H   0  0  0  0  0  0  0  0  0  0  0  0
    7.8561  -10.8684   -2.5992 H   0  0  0  0  0  0  0  0  0  0  0  0
    6.9837  -11.5362   -4.5777 H   0  0  0  0  0  0  0  0  0  0  0  0
    6.7324  -13.1560   -3.7503 H   0  0  0  0  0  0  0  0  0  0  0  0
    4.8760  -11.5500   -4.9030 H   0  0  0  0  0  0  0  0  0  0  0  0
    4.2988  -11.5308   -1.9867 H   0  0  0  0  0  0  0  0  0  0  0  0
    4.7288  -10.0974   -2.9749 H   0  0  0  0  0  0  0  0  0  0  0  0
    2.2497  -10.3417   -2.6879 H   0  0  0  0  0  0  0  0  0  0  0  0
    2.7624  -10.4737   -4.4182 H   0  0  0  0  0  0  0  0  0  0  0  0
    2.2733  -14.0507   -4.5174 H   0  0  0  0  0  0  0  0  0  0  0  0
    2.7856  -12.5977   -5.4615 H   0  0  0  0  0  0  0  0  0  0  0  0
    4.3020  -13.8481   -3.1072 H   0  0  0  0  0  0  0  0  0  0  0  0
    4.7559  -13.9665   -4.8359 H   0  0  0  0  0  0  0  0  0  0  0  0
    6.4217  -10.9910    0.1785 H   0  0  0  0  0  0  0  0  0  0  0  0
    4.7101  -11.4802    1.9217 H   0  0  0  0  0  0  0  0  0  0  0  0
   -1.6754  -13.7622    0.5802 H   0  0  0  0  0  0  0  0  0  0  0  0
   -2.2700  -11.4473   -0.1286 H   0  0  0  0  0  0  0  0  0  0  0  0
  1  2  1  0
  2  3  2  0
  3  4  1  0
  4  5  2  0
  5  6  1  0
  6  7  1  0
  7  8  2  0
  8  9  1  0
  9 10  1  0
  9 11  1  0
  9 12  1  0
  8 13  1  0
 13 14  2  0
 14 15  1  0
 15 16  1  0
 16 17  2  0
 16 18  1  0
 18 19  1  0
 19 20  2  0
 20 21  1  0
 21 22  2  0
 22 23  1  0
 23 24  1  0
 24 25  1  0
 25 26  1  0
 26 27  1  0
 27 28  1  0
 28 29  1  0
 29 30  1  0
 30 31  1  0
 22 32  1  0
 32 33  2  0
  5 34  1  0
 34 35  2  0
 35  2  1  0
 14  6  1  0
 33 19  1  0
 31 26  1  0
  1 36  1  0
  1 37  1  0
  1 38  1  0
  3 39  1  0
  4 40  1  0
 10 41  1  0
 10 42  1  0
 10 43  1  0
 11 44  1  0
 11 45  1  0
 11 46  1  0
 12 47  1  0
 12 48  1  0
 12 49  1  0
 13 50  1  0
 15 51  1  0
 18 52  1  0
 20 53  1  0
 21 54  1  0
 24 55  1  0
 24 56  1  0
 25 57  1  0
 25 58  1  0
 26 59  1  0
 27 60  1  0
 27 61  1  0
 28 62  1  0
 28 63  1  0
 30 64  1  0
 30 65  1  0
 31 66  1  0
 31 67  1  0
 32 68  1  0
 33 69  1  0
 34 70  1  0
 35 71  1  0
M  CHG  1  26   1
M  END
>  <meeko>  (8) 
{"is_sidechain": [false], "free_energy": -7.182, "intermolecular_energy": -10.374, "internal_energy": -1.458}

$$$$
LIB_FRZNJFWQVYAVCE__M_PUB_ALL__e8__s20260927
     RDKit          3D

 71 74  0  0  0  0  0  0  0  0999 V2000
   -0.2050  -18.7830    9.4110 C   0  0  0  0  0  0  0  0  0  0  0  0
   -0.6450  -18.5710    7.9920 C   0  0  0  0  0  0  0  0  0  0  0  0
   -0.8620  -17.2780    7.5050 C   0  0  0  0  0  0  0  0  0  0  0  0
   -1.2460  -17.0760    6.1760 C   0  0  0  0  0  0  0  0  0  0  0  0
   -1.3920  -18.1670    5.3050 C   0  0  0  0  0  0  0  0  0  0  0  0
   -1.8240  -17.9330    3.9640 N   0  0  0  0  0  0  0  0  0  0  0  0
   -0.8780  -17.7480    2.9980 N   0  0  0  0  0  0  0  0  0  0  0  0
   -1.4940  -17.0770    2.0190 C   0  0  0  0  0  0  0  0  0  0  0  0
   -0.6980  -16.5940    0.8150 C   0  0  0  0  0  0  0  0  0  0  0  0
    0.3120  -17.6760    0.3840 C   0  0  0  0  0  0  0  0  0  0  0  0
   -1.6120  -16.2860   -0.3900 C   0  0  0  0  0  0  0  0  0  0  0  0
    0.0690  -15.3030    1.1650 C   0  0  0  0  0  0  0  0  0  0  0  0
   -2.8800  -16.9710    2.2760 C   0  0  0  0  0  0  0  0  0  0  0  0
   -3.0970  -17.6660    3.4470 C   0  0  0  0  0  0  0  0  0  0  0  0
   -4.3390  -18.0130    3.9640 N   0  0  0  0  0  0  0  0  0  0  0  0
   -5.0660  -17.1600    4.7860 C   0  0  0  0  0  0  0  0  0  0  0  0
   -4.6290  -16.1130    5.2430 O   0  0  0  0  0  0  0  0  0  0  0  0
   -6.3350  -17.6700    5.0150 N   0  0  0  0  0  0  0  0  0  0  0  0
   -7.3490  -17.1120    5.8200 C   0  0  0  0  0  0  0  0  0  0  0  0
   -8.5700  -16.6490    5.3290 C   0  0  0  0  0  0  0  0  0  0  0  0
   -9.5350  -16.1080    6.1890 C   0  0  0  0  0  0  0  0  0  0  0  0
   -9.2880  -16.0210    7.5570 C   0  0  0  0  0  0  0  0  0  0  0  0
  -10.1400  -15.5090    8.4970 O   0  0  0  0  0  0  0  0  0  0  0  0
  -11.4130  -16.1440    8.6260 C   0  0  0  0  0  0  0  0  0  0  0  0
  -11.2520  -17.4000    9.4930 C   0  0  0  0  0  0  0  0  0  0  0  0
  -11.6650  -18.6980    8.8160 N   0  0  0  0  0  0  0  0  0  0  0  0
  -10.6570  -19.8340    8.9510 C   0  0  0  0  0  0  0  0  0  0  0  0
  -11.2710  -21.1180    8.3780 C   0  0  0  0  0  0  0  0  0  0  0  0
  -11.6710  -20.9390    7.0140 O   0  0  0  0  0  0  0  0  0  0  0  0
  -12.6450  -19.8970    6.8670 C   0  0  0  0  0  0  0  0  0  0  0  0
  -12.0870  -18.5540    7.3560 C   0  0  0  0  0  0  0  0  0  0  0  0
   -8.0700  -16.4830    8.0540 C   0  0  0  0  0  0  0  0  0  0  0  0
   -7.1070  -17.0260    7.1940 C   0  0  0  0  0  0  0  0  0  0  0  0
   -1.1830  -19.4610    5.7940 C   0  0  0  0  0  0  0  0  0  0  0  0
   -0.8000  -19.6590    7.1250 C   0  0  0  0  0  0  0  0  0  0  0  0
   -0.9809  -18.4091   10.0952 H   0  0  0  0  0  0  0  0  0  0  0  0
   -0.0456  -19.8568    9.5889 H   0  0  0  0  0  0  0  0  0  0  0  0
    0.7341  -18.2385    9.5889 H   0  0  0  0  0  0  0  0  0  0  0  0
   -0.7296  -16.4137    8.1725 H   0  0  0  0  0  0  0  0  0  0  0  0
   -1.4349  -16.0558    5.8106 H   0  0  0  0  0  0  0  0  0  0  0  0
    0.7501  -18.1453    1.2772 H   0  0  0  0  0  0  0  0  0  0  0  0
   -0.2033  -18.4402   -0.2164 H   0  0  0  0  0  0  0  0  0  0  0  0
    1.1099  -17.2145   -0.2164 H   0  0  0  0  0  0  0  0  0  0  0  0
   -2.5964  -15.9543   -0.0282 H   0  0  0  0  0  0  0  0  0  0  0  0
   -1.1587  -15.4910   -1.0003 H   0  0  0  0  0  0  0  0  0  0  0  0
   -1.7323  -17.1932   -1.0003 H   0  0  0  0  0  0  0  0  0  0  0  0
    0.1312  -15.1984    2.2582 H   0  0  0  0  0  0  0  0  0  0  0  0
    1.0837  -15.3535    0.7432 H   0  0  0  0  0  0  0  0  0  0  0  0
   -0.4606  -14.4361    0.7432 H   0  0  0  0  0  0  0  0  0  0  0  0
   -3.6298  -16.4436    1.6680 H   0  0  0  0  0  0  0  0  0  0  0  0
   -4.5550  -18.9990    4.0110 H   0  0  0  0  0  0  0  0  0  0  0  0
   -6.5690  -18.5130    4.5120 H   0  0  0  0  0  0  0  0  0  0  0  0
   -8.7783  -16.7095    4.2506 H   0  0  0  0  0  0  0  0  0  0  0  0
  -10.4922  -15.7503    5.7818 H   0  0  0  0  0  0  0  0  0  0  0  0
  -12.1241  -15.4537    9.1033 H   0  0  0  0  0  0  0  0  0  0  0  0
  -11.7953  -16.4214    7.6326 H   0  0  0  0  0  0  0  0  0  0  0  0
  -10.1934  -17.4850    9.7795 H   0  0  0  0  0  0  0  0  0  0  0  0
  -11.9248  -17.2712   10.3537 H   0  0  0  0  0  0  0  0  0  0  0  0
  -12.5070  -19.0020    9.3220 H   0  0  0  0  0  0  0  0  0  0  0  0
   -9.7418  -19.5829    8.3948 H   0  0  0  0  0  0  0  0  0  0  0  0
  -10.4057  -19.9836   10.0114 H   0  0  0  0  0  0  0  0  0  0  0  0
  -10.5262  -21.9258    8.4301 H   0  0  0  0  0  0  0  0  0  0  0  0
  -12.1620  -21.3719    8.9710 H   0  0  0  0  0  0  0  0  0  0  0  0
  -12.9199  -19.8079    5.8056 H   0  0  0  0  0  0  0  0  0  0  0  0
  -13.5275  -20.1525    7.4720 H   0  0  0  0  0  0  0  0  0  0  0  0
  -11.2165  -18.2713    6.7459 H   0  0  0  0  0  0  0  0  0  0  0  0
  -12.8575  -17.7742    7.2652 H   0  0  0  0  0  0  0  0  0  0  0  0
   -7.8632  -16.4204    9.1326 H   0  0  0  0  0  0  0  0  0  0  0  0
   -6.1522  -17.3878    7.6033 H   0  0  0  0  0  0  0  0  0  0  0  0
   -1.3204  -20.3265    5.1291 H   0  0  0  0  0  0  0  0  0  0  0  0
   -0.6189  -20.6794    7.4937 H   0  0  0  0  0  0  0  0  0  0  0  0
  1  2  1  0
  2  3  2  0
  3  4  1  0
  4  5  2  0
  5  6  1  0
  6  7  1  0
  7  8  2  0
  8  9  1  0
  9 10  1  0
  9 11  1  0
  9 12  1  0
  8 13  1  0
 13 14  2  0
 14 15  1  0
 15 16  1  0
 16 17  2  0
 16 18  1  0
 18 19  1  0
 19 20  2  0
 20 21  1  0
 21 22  2  0
 22 23  1  0
 23 24  1  0
 24 25  1  0
 25 26  1  0
 26 27  1  0
 27 28  1  0
 28 29  1  0
 29 30  1  0
 30 31  1  0
 22 32  1  0
 32 33  2  0
  5 34  1  0
 34 35  2  0
 35  2  1  0
 14  6  1  0
 33 19  1  0
 31 26  1  0
  1 36  1  0
  1 37  1  0
  1 38  1  0
  3 39  1  0
  4 40  1  0
 10 41  1  0
 10 42  1  0
 10 43  1  0
 11 44  1  0
 11 45  1  0
 11 46  1  0
 12 47  1  0
 12 48  1  0
 12 49  1  0
 13 50  1  0
 15 51  1  0
 18 52  1  0
 20 53  1  0
 21 54  1  0
 24 55  1  0
 24 56  1  0
 25 57  1  0
 25 58  1  0
 26 59  1  0
 27 60  1  0
 27 61  1  0
 28 62  1  0
 28 63  1  0
 30 64  1  0
 30 65  1  0
 31 66  1  0
 31 67  1  0
 32 68  1  0
 33 69  1  0
 34 70  1  0
 35 71  1  0
M  CHG  1  26   1
M  END
>  <meeko>  (9) 
{"is_sidechain": [false], "free_energy": -7.125, "intermolecular_energy": -10.335, "internal_energy": -1.413}

$$$$
