LIB_UFBADNGLONOAHT__M_PUB_ALL__e8__s20260927
     RDKit          3D

 84 88  0  0  0  0  0  0  0  0999 V2000
   -0.4670  -14.4210    4.4850 C   0  0  0  0  0  0  0  0  0  0  0  0
    0.9960  -14.5110    4.1720 C   0  0  0  0  0  0  0  0  0  0  0  0
    1.8490  -14.8510    4.9830 O   0  0  0  0  0  0  0  0  0  0  0  0
    1.2080  -14.1200    2.8930 O   0  0  0  0  0  0  0  0  0  0  0  0
    0.5100  -14.8410    1.8460 C   0  0  2  0  0  0  0  0  0  0  0  0
    1.2950  -16.1390    1.6120 C   0  0  0  0  0  0  0  0  0  0  0  0
    2.7170  -15.8770    1.0920 C   0  0  0  0  0  0  0  0  0  0  0  0
    2.7700  -15.0210   -0.2090 C   0  0  1  0  0  0  0  0  0  0  0  0
    2.2530  -15.9230   -1.3620 C   0  0  0  0  0  0  0  0  0  0  0  0
    1.9000  -13.7240    0.0190 C   0  0  1  0  0  0  0  0  0  0  0  0
    1.9900  -12.7980   -1.2120 C   0  0  0  0  0  0  0  0  0  0  0  0
    3.4300  -12.3030   -1.4010 C   0  0  0  0  0  0  0  0  0  0  0  0
    4.4910  -13.4300   -1.5630 C   0  0  2  0  0  0  0  0  0  0  0  0
    4.3000  -14.0340   -2.9890 C   0  0  0  0  0  0  0  0  0  0  0  0
    4.2690  -14.5310   -0.4520 C   0  0  2  0  0  0  0  0  0  0  0  0
    5.3030  -15.6710   -0.5790 C   0  0  0  0  0  0  0  0  0  0  0  0
    6.6690  -15.2450   -1.0280 C   0  0  0  0  0  0  0  0  0  0  0  0
    7.0300  -14.0040   -1.4160 C   0  0  0  0  0  0  0  0  0  0  0  0
    8.4840  -13.7730   -1.8480 C   0  0  2  0  0  0  0  0  0  0  0  0
    9.4410  -13.5080   -0.6650 C   0  0  0  0  0  0  0  0  0  0  0  0
   10.9280  -13.6640   -1.0870 C   0  0  2  0  0  0  0  0  0  0  0  0
   11.4190  -15.1010   -0.8420 C   0  0  0  0  0  0  0  0  0  0  0  0
   11.7680  -12.7750   -0.1160 C   0  0  0  0  0  0  0  0  0  0  0  0
   12.5260  -11.9200   -0.6580 O   0  0  0  0  0  0  0  0  0  0  0  0
   11.6100  -13.0090    1.1170 O   0  0  0  0  0  0  0  0  0  0  0  0
   11.1360  -13.3180   -2.5790 C   0  0  0  0  0  0  0  0  0  0  0  0
   10.1600  -12.2390   -3.0460 C   0  0  0  0  0  0  0  0  0  0  0  0
    8.6790  -12.7150   -2.9750 C   0  0  1  0  0  0  0  0  0  0  0  0
    8.3120  -13.3570   -4.3360 C   0  0  0  0  0  0  0  0  0  0  0  0
    7.7940  -11.4760   -2.7240 C   0  0  0  0  0  0  0  0  0  0  0  0
    6.3160  -11.8270   -2.5590 C   0  0  0  0  0  0  0  0  0  0  0  0
    6.0150  -12.8450   -1.4190 C   0  0  1  0  0  0  0  0  0  0  0  0
    6.2240  -12.0900   -0.0720 C   0  0  0  0  0  0  0  0  0  0  0  0
    0.4540  -13.9610    0.5680 C   0  0  1  0  0  0  0  0  0  0  0  0
   -0.5150  -14.5450   -0.4780 C   0  0  0  0  0  0  0  0  0  0  0  0
   -0.2770  -12.6800    1.1050 C   0  0  0  0  0  0  0  0  0  0  0  0
   -1.5170  -12.8030    1.3340 O   0  0  0  0  0  0  0  0  0  0  0  0
    0.4360  -11.6500    1.2660 O   0  0  0  0  0  0  0  0  0  0  0  0
   -0.6087  -14.4123    5.5758 H   0  0  0  0  0  0  0  0  0  0  0  0
   -0.8778  -13.4959    4.0545 H   0  0  0  0  0  0  0  0  0  0  0  0
   -0.9881  -15.2888    4.0545 H   0  0  0  0  0  0  0  0  0  0  0  0
   -0.5283  -15.0779    2.1213 H   0  0  0  0  0  0  0  0  0  0  0  0
    1.3620  -16.6878    2.5630 H   0  0  0  0  0  0  0  0  0  0  0  0
    0.7601  -16.7217    0.8476 H   0  0  0  0  0  0  0  0  0  0  0  0
    3.2800  -15.3494    1.8760 H   0  0  0  0  0  0  0  0  0  0  0  0
    3.1505  -16.8573    0.8450 H   0  0  0  0  0  0  0  0  0  0  0  0
    1.7479  -16.8043   -0.9398 H   0  0  0  0  0  0  0  0  0  0  0  0
    1.5432  -15.3553   -1.9816 H   0  0  0  0  0  0  0  0  0  0  0  0
    3.1016  -16.2485   -1.9816 H   0  0  0  0  0  0  0  0  0  0  0  0
    2.3513  -13.1887    0.8674 H   0  0  0  0  0  0  0  0  0  0  0  0
    1.6767  -13.3538   -2.1080 H   0  0  0  0  0  0  0  0  0  0  0  0
    1.3308  -11.9312   -1.0570 H   0  0  0  0  0  0  0  0  0  0  0  0
    3.4598  -11.6727   -2.3020 H   0  0  0  0  0  0  0  0  0  0  0  0
    3.6937  -11.7588   -0.4821 H   0  0  0  0  0  0  0  0  0  0  0  0
    3.9694  -15.0796   -2.9030 H   0  0  0  0  0  0  0  0  0  0  0  0
    3.5417  -13.4533   -3.5346 H   0  0  0  0  0  0  0  0  0  0  0  0
    5.2543  -13.9949   -3.5346 H   0  0  0  0  0  0  0  0  0  0  0  0
    4.4628  -14.0091    0.4967 H   0  0  0  0  0  0  0  0  0  0  0  0
    5.4026  -16.1517    0.4054 H   0  0  0  0  0  0  0  0  0  0  0  0
    4.9208  -16.3451   -1.3597 H   0  0  0  0  0  0  0  0  0  0  0  0
    7.4514  -16.0180   -1.0424 H   0  0  0  0  0  0  0  0  0  0  0  0
    8.7638  -14.7384   -2.2950 H   0  0  0  0  0  0  0  0  0  0  0  0
    9.2796  -12.4838   -0.2977 H   0  0  0  0  0  0  0  0  0  0  0  0
    9.2274  -14.2457    0.1225 H   0  0  0  0  0  0  0  0  0  0  0  0
   11.4826  -15.2872    0.2403 H   0  0  0  0  0  0  0  0  0  0  0  0
   10.7128  -15.8121   -1.2955 H   0  0  0  0  0  0  0  0  0  0  0  0
   12.4126  -15.2313   -1.2955 H   0  0  0  0  0  0  0  0  0  0  0  0
   12.1646  -12.9552   -2.7216 H   0  0  0  0  0  0  0  0  0  0  0  0
   10.9550  -14.2266   -3.1720 H   0  0  0  0  0  0  0  0  0  0  0  0
   10.2784  -11.3528   -2.4051 H   0  0  0  0  0  0  0  0  0  0  0  0
   10.3902  -12.0071   -4.0963 H   0  0  0  0  0  0  0  0  0  0  0  0
    7.7729  -14.3001   -4.1630 H   0  0  0  0  0  0  0  0  0  0  0  0
    7.6715  -12.6677   -4.9057 H   0  0  0  0  0  0  0  0  0  0  0  0
    9.2310  -13.5592   -4.9057 H   0  0  0  0  0  0  0  0  0  0  0  0
    8.1409  -10.9763   -1.8075 H   0  0  0  0  0  0  0  0  0  0  0  0
    7.8826  -10.8222   -3.6041 H   0  0  0  0  0  0  0  0  0  0  0  0
    5.7648  -10.8994   -2.3451 H   0  0  0  0  0  0  0  0  0  0  0  0
    6.0030  -12.3080   -3.4974 H   0  0  0  0  0  0  0  0  0  0  0  0
    6.0340  -12.7764    0.7663 H   0  0  0  0  0  0  0  0  0  0  0  0
    7.2584  -11.7200   -0.0157 H   0  0  0  0  0  0  0  0  0  0  0  0
    5.5272  -11.2407   -0.0157 H   0  0  0  0  0  0  0  0  0  0  0  0
   -1.3486  -15.0474    0.0346 H   0  0  0  0  0  0  0  0  0  0  0  0
   -0.9077  -13.7330   -1.1077 H   0  0  0  0  0  0  0  0  0  0  0  0
    0.0195  -15.2715   -1.1077 H   0  0  0  0  0  0  0  0  0  0  0  0
  1  2  1  0
  2  3  2  0
  2  4  1  0
  4  5  1  0
  5  6  1  0
  6  7  1  0
  7  8  1  0
  8  9  1  6
  8 10  1  0
 10 11  1  0
 11 12  1  0
 12 13  1  0
 13 14  1  6
 13 15  1  0
 15 16  1  0
 16 17  1  0
 17 18  2  0
 18 19  1  0
 19 20  1  0
 20 21  1  0
 21 22  1  6
 21 23  1  0
 23 24  2  0
 23 25  1  0
 21 26  1  0
 26 27  1  0
 27 28  1  0
 28 29  1  6
 28 30  1  0
 30 31  1  0
 31 32  1  0
 32 33  1  1
 10 34  1  0
 34 35  1  6
 34 36  1  0
 36 37  2  0
 36 38  1  0
 34  5  1  0
 15  8  1  0
 32 18  1  0
 32 13  1  0
 28 19  1  0
  1 39  1  0
  1 40  1  0
  1 41  1  0
  5 42  1  1
  6 43  1  0
  6 44  1  0
  7 45  1  0
  7 46  1  0
  9 47  1  0
  9 48  1  0
  9 49  1  0
 10 50  1  1
 11 51  1  0
 11 52  1  0
 12 53  1  0
 12 54  1  0
 14 55  1  0
 14 56  1  0
 14 57  1  0
 15 58  1  1
 16 59  1  0
 16 60  1  0
 17 61  1  0
 19 62  1  6
 20 63  1  0
 20 64  1  0
 22 65  1  0
 22 66  1  0
 22 67  1  0
 26 68  1  0
 26 69  1  0
 27 70  1  0
 27 71  1  0
 29 72  1  0
 29 73  1  0
 29 74  1  0
 30 75  1  0
 30 76  1  0
 31 77  1  0
 31 78  1  0
 33 79  1  0
 33 80  1  0
 33 81  1  0
 35 82  1  0
 35 83  1  0
 35 84  1  0
M  CHG  2  25  -1  38  -1
M  END
>  <meeko>  (1) 
{"is_sidechain": [false], "free_energy": -8.35, "intermolecular_energy": -10.302, "internal_energy": -0.55}

$$$$
LIB_UFBADNGLONOAHT__M_PUB_ALL__e8__s20260927
     RDKit          3D

 84 88  0  0  0  0  0  0  0  0999 V2000
    6.4380  -16.0790   -6.1170 C   0  0  0  0  0  0  0  0  0  0  0  0
    5.8890  -16.5540   -4.8060 C   0  0  0  0  0  0  0  0  0  0  0  0
    6.0630  -17.6820   -4.3590 O   0  0  0  0  0  0  0  0  0  0  0  0
    5.1550  -15.5660   -4.2400 O   0  0  0  0  0  0  0  0  0  0  0  0
    5.8520  -14.3630   -3.8310 C   0  0  2  0  0  0  0  0  0  0  0  0
    6.4470  -14.6520   -2.4460 C   0  0  0  0  0  0  0  0  0  0  0  0
    5.3650  -14.9150   -1.3880 C   0  0  0  0  0  0  0  0  0  0  0  0
    4.3190  -13.7670   -1.2510 C   0  0  1  0  0  0  0  0  0  0  0  0
    5.0430  -12.5780   -0.5650 C   0  0  0  0  0  0  0  0  0  0  0  0
    3.7680  -13.4290   -2.6910 C   0  0  1  0  0  0  0  0  0  0  0  0
    2.6630  -12.3560   -2.6000 C   0  0  0  0  0  0  0  0  0  0  0  0
    1.4610  -12.8950   -1.8120 C   0  0  0  0  0  0  0  0  0  0  0  0
    1.7910  -13.3760   -0.3690 C   0  0  2  0  0  0  0  0  0  0  0  0
    2.0350  -12.0980    0.4920 C   0  0  0  0  0  0  0  0  0  0  0  0
    3.0780  -14.2910   -0.3950 C   0  0  2  0  0  0  0  0  0  0  0  0
    3.4400  -14.7890    1.0210 C   0  0  0  0  0  0  0  0  0  0  0  0
    2.2700  -15.0720    1.9160 C   0  0  0  0  0  0  0  0  0  0  0  0
    0.9730  -14.8380    1.6290 C   0  0  0  0  0  0  0  0  0  0  0  0
   -0.0800  -15.1940    2.6870 C   0  0  2  0  0  0  0  0  0  0  0  0
   -0.5060  -16.6790    2.6530 C   0  0  0  0  0  0  0  0  0  0  0  0
   -1.2570  -17.0870    3.9510 C   0  0  2  0  0  0  0  0  0  0  0  0
   -0.2780  -17.6470    4.9970 C   0  0  0  0  0  0  0  0  0  0  0  0
   -2.1840  -18.2870    3.5770 C   0  0  0  0  0  0  0  0  0  0  0  0
   -2.7580  -18.8700    4.5410 O   0  0  0  0  0  0  0  0  0  0  0  0
   -2.2570  -18.5600    2.3430 O   0  0  0  0  0  0  0  0  0  0  0  0
   -2.0130  -15.8910    4.5720 C   0  0  0  0  0  0  0  0  0  0  0  0
   -2.5010  -14.9180    3.4990 C   0  0  0  0  0  0  0  0  0  0  0  0
   -1.3220  -14.2550    2.7270 C   0  0  1  0  0  0  0  0  0  0  0  0
   -0.9390  -12.9460    3.4600 C   0  0  0  0  0  0  0  0  0  0  0  0
   -1.8130  -13.9330    1.2990 C   0  0  0  0  0  0  0  0  0  0  0  0
   -0.7150  -13.3440    0.4150 C   0  0  0  0  0  0  0  0  0  0  0  0
    0.5530  -14.2380    0.2740 C   0  0  1  0  0  0  0  0  0  0  0  0
    0.1560  -15.4460   -0.6260 C   0  0  0  0  0  0  0  0  0  0  0  0
    4.8490  -13.1770   -3.7930 C   0  0  1  0  0  0  0  0  0  0  0  0
    5.5760  -11.8270   -3.6470 C   0  0  0  0  0  0  0  0  0  0  0  0
    4.3140  -13.1760   -5.2680 C   0  0  0  0  0  0  0  0  0  0  0  0
    5.1000  -12.7030   -6.1430 O   0  0  0  0  0  0  0  0  0  0  0  0
    3.1580  -13.6510   -5.4490 O   0  0  0  0  0  0  0  0  0  0  0  0
    7.2584  -15.3691   -5.9354 H   0  0  0  0  0  0  0  0  0  0  0  0
    6.8169  -16.9388   -6.6890 H   0  0  0  0  0  0  0  0  0  0  0  0
    5.6416  -15.5804   -6.6890 H   0  0  0  0  0  0  0  0  0  0  0  0
    6.6542  -14.0861   -4.5309 H   0  0  0  0  0  0  0  0  0  0  0  0
    7.0943  -15.5385   -2.5174 H   0  0  0  0  0  0  0  0  0  0  0  0
    7.0143  -13.7634   -2.1323 H   0  0  0  0  0  0  0  0  0  0  0  0
    4.8319  -15.8378   -1.6605 H   0  0  0  0  0  0  0  0  0  0  0  0
    5.8799  -14.9933   -0.4191 H   0  0  0  0  0  0  0  0  0  0  0  0
    4.9756  -12.6886    0.5273 H   0  0  0  0  0  0  0  0  0  0  0  0
    6.1004  -12.5684   -0.8681 H   0  0  0  0  0  0  0  0  0  0  0  0
    4.5661  -11.6342   -0.8681 H   0  0  0  0  0  0  0  0  0  0  0  0
    3.3035  -14.3499   -3.0734 H   0  0  0  0  0  0  0  0  0  0  0  0
    3.0619  -11.4666   -2.0902 H   0  0  0  0  0  0  0  0  0  0  0  0
    2.3355  -12.0924   -3.6165 H   0  0  0  0  0  0  0  0  0  0  0  0
    0.7100  -12.0943   -1.7427 H   0  0  0  0  0  0  0  0  0  0  0  0
    1.1024  -13.7792   -2.3594 H   0  0  0  0  0  0  0  0  0  0  0  0
    1.9850  -12.3598    1.5592 H   0  0  0  0  0  0  0  0  0  0  0  0
    3.0282  -11.6850    0.2619 H   0  0  0  0  0  0  0  0  0  0  0  0
    1.2638  -11.3481    0.2619 H   0  0  0  0  0  0  0  0  0  0  0  0
    2.7827  -15.1677   -0.9901 H   0  0  0  0  0  0  0  0  0  0  0  0
    4.0216  -15.7169    0.9173 H   0  0  0  0  0  0  0  0  0  0  0  0
    3.9996  -13.9714    1.4988 H   0  0  0  0  0  0  0  0  0  0  0  0
    2.4907  -15.5121    2.8997 H   0  0  0  0  0  0  0  0  0  0  0  0
    0.4537  -15.0200    3.6330 H   0  0  0  0  0  0  0  0  0  0  0  0
   -1.1694  -16.8407    1.7906 H   0  0  0  0  0  0  0  0  0  0  0  0
    0.4010  -17.2960    2.5711 H   0  0  0  0  0  0  0  0  0  0  0  0
   -0.6568  -17.4303    6.0067 H   0  0  0  0  0  0  0  0  0  0  0  0
   -0.1845  -18.7352    4.8661 H   0  0  0  0  0  0  0  0  0  0  0  0
    0.7074  -17.1760    4.8661 H   0  0  0  0  0  0  0  0  0  0  0  0
   -2.8805  -16.2689    5.1329 H   0  0  0  0  0  0  0  0  0  0  0  0
   -1.3209  -15.3529    5.2365 H   0  0  0  0  0  0  0  0  0  0  0  0
   -3.1297  -15.4669    2.7824 H   0  0  0  0  0  0  0  0  0  0  0  0
   -3.0686  -14.1197    3.9996 H   0  0  0  0  0  0  0  0  0  0  0  0
   -0.9862  -13.1072    4.5471 H   0  0  0  0  0  0  0  0  0  0  0  0
    0.0826  -12.6526    3.1768 H   0  0  0  0  0  0  0  0  0  0  0  0
   -1.6414  -12.1482    3.1768 H   0  0  0  0  0  0  0  0  0  0  0  0
   -2.1779  -14.8612    0.8350 H   0  0  0  0  0  0  0  0  0  0  0  0
   -2.6097  -13.1794    1.3844 H   0  0  0  0  0  0  0  0  0  0  0  0
   -1.1334  -13.1811   -0.5892 H   0  0  0  0  0  0  0  0  0  0  0  0
   -0.3880  -12.4135    0.9022 H   0  0  0  0  0  0  0  0  0  0  0  0
   -0.1245  -16.2995    0.0087 H   0  0  0  0  0  0  0  0  0  0  0  0
   -0.6972  -15.1653   -1.2611 H   0  0  0  0  0  0  0  0  0  0  0  0
    1.0093  -15.7261   -1.2611 H   0  0  0  0  0  0  0  0  0  0  0  0
    5.7025  -11.5922   -2.5798 H   0  0  0  0  0  0  0  0  0  0  0  0
    6.5631  -11.8882   -4.1285 H   0  0  0  0  0  0  0  0  0  0  0  0
    4.9816  -11.0365   -4.1285 H   0  0  0  0  0  0  0  0  0  0  0  0
  1  2  1  0
  2  3  2  0
  2  4  1  0
  4  5  1  0
  5  6  1  0
  6  7  1  0
  7  8  1  0
  8  9  1  1
  8 10  1  0
 10 11  1  0
 11 12  1  0
 12 13  1  0
 13 14  1  1
 13 15  1  0
 15 16  1  0
 16 17  1  0
 17 18  2  0
 18 19  1  0
 19 20  1  0
 20 21  1  0
 21 22  1  1
 21 23  1  0
 23 24  2  0
 23 25  1  0
 21 26  1  0
 26 27  1  0
 27 28  1  0
 28 29  1  1
 28 30  1  0
 30 31  1  0
 31 32  1  0
 32 33  1  6
 10 34  1  0
 34 35  1  1
 34 36  1  0
 36 37  2  0
 36 38  1  0
 34  5  1  0
 15  8  1  0
 32 18  1  0
 32 13  1  0
 28 19  1  0
  1 39  1  0
  1 40  1  0
  1 41  1  0
  5 42  1  6
  6 43  1  0
  6 44  1  0
  7 45  1  0
  7 46  1  0
  9 47  1  0
  9 48  1  0
  9 49  1  0
 10 50  1  6
 11 51  1  0
 11 52  1  0
 12 53  1  0
 12 54  1  0
 14 55  1  0
 14 56  1  0
 14 57  1  0
 15 58  1  6
 16 59  1  0
 16 60  1  0
 17 61  1  0
 19 62  1  1
 20 63  1  0
 20 64  1  0
 22 65  1  0
 22 66  1  0
 22 67  1  0
 26 68  1  0
 26 69  1  0
 27 70  1  0
 27 71  1  0
 29 72  1  0
 29 73  1  0
 29 74  1  0
 30 75  1  0
 30 76  1  0
 31 77  1  0
 31 78  1  0
 33 79  1  0
 33 80  1  0
 33 81  1  0
 35 82  1  0
 35 83  1  0
 35 84  1  0
M  CHG  2  25  -1  38  -1
M  END
>  <meeko>  (2) 
{"is_sidechain": [false], "free_energy": -7.992, "intermolecular_energy": -9.799, "internal_energy": -0.612}

$$$$
LIB_UFBADNGLONOAHT__M_PUB_ALL__e8__s20260927
     RDKit          3D

 84 88  0  0  0  0  0  0  0  0999 V2000
   10.4460  -12.4130   -3.2900 C   0  0  0  0  0  0  0  0  0  0  0  0
    9.0320  -11.9180   -3.2500 C   0  0  0  0  0  0  0  0  0  0  0  0
    8.6830  -10.8120   -3.6430 O   0  0  0  0  0  0  0  0  0  0  0  0
    8.2420  -12.8590   -2.6800 O   0  0  0  0  0  0  0  0  0  0  0  0
    8.0150  -14.0840   -3.4210 C   0  0  2  0  0  0  0  0  0  0  0  0
    6.8780  -13.7910   -4.4110 C   0  0  0  0  0  0  0  0  0  0  0  0
    5.5580  -13.4550   -3.7020 C   0  0  0  0  0  0  0  0  0  0  0  0
    5.0780  -14.5500   -2.7020 C   0  0  1  0  0  0  0  0  0  0  0  0
    4.5960  -15.7560   -3.5520 C   0  0  0  0  0  0  0  0  0  0  0  0
    6.2770  -14.8950   -1.7360 C   0  0  1  0  0  0  0  0  0  0  0  0
    5.8270  -15.9130   -0.6680 C   0  0  0  0  0  0  0  0  0  0  0  0
    4.7380  -15.3010    0.2240 C   0  0  0  0  0  0  0  0  0  0  0  0
    3.4740  -14.8040   -0.5370 C   0  0  2  0  0  0  0  0  0  0  0  0
    2.6800  -16.0720   -0.9770 C   0  0  0  0  0  0  0  0  0  0  0  0
    3.9120  -13.9500   -1.7910 C   0  0  2  0  0  0  0  0  0  0  0  0
    2.6840  -13.4380   -2.5760 C   0  0  0  0  0  0  0  0  0  0  0  0
    1.4950  -13.0810   -1.7360 C   0  0  0  0  0  0  0  0  0  0  0  0
    1.3760  -13.2610   -0.4040 C   0  0  0  0  0  0  0  0  0  0  0  0
    0.0680  -12.8330    0.2730 C   0  0  2  0  0  0  0  0  0  0  0  0
    0.0270  -11.3320    0.6350 C   0  0  0  0  0  0  0  0  0  0  0  0
   -1.4200  -10.8600    0.9510 C   0  0  2  0  0  0  0  0  0  0  0  0
   -2.1090  -10.3230   -0.3150 C   0  0  0  0  0  0  0  0  0  0  0  0
   -1.2950   -9.6280    1.9010 C   0  0  0  0  0  0  0  0  0  0  0  0
   -0.3200   -8.8520    1.6820 O   0  0  0  0  0  0  0  0  0  0  0  0
   -2.1780   -9.5370    2.8020 O   0  0  0  0  0  0  0  0  0  0  0  0
   -2.2790  -12.0060    1.5320 C   0  0  0  0  0  0  0  0  0  0  0  0
   -1.4330  -12.9790    2.3530 C   0  0  0  0  0  0  0  0  0  0  0  0
   -0.3700  -13.7130    1.4820 C   0  0  1  0  0  0  0  0  0  0  0  0
   -1.0030  -15.0220    0.9480 C   0  0  0  0  0  0  0  0  0  0  0  0
    0.8360  -14.0440    2.3860 C   0  0  0  0  0  0  0  0  0  0  0  0
    1.9840  -14.7030    1.6230 C   0  0  0  0  0  0  0  0  0  0  0  0
    2.5250  -13.8720    0.4210 C   0  0  1  0  0  0  0  0  0  0  0  0
    3.3100  -12.6670    1.0220 C   0  0  0  0  0  0  0  0  0  0  0  0
    7.6400  -15.2210   -2.4310 C   0  0  1  0  0  0  0  0  0  0  0  0
    7.6680  -16.5990   -3.1170 C   0  0  0  0  0  0  0  0  0  0  0  0
    8.8910  -15.2300   -1.4830 C   0  0  0  0  0  0  0  0  0  0  0  0
    8.7610  -14.6040   -0.3880 O   0  0  0  0  0  0  0  0  0  0  0  0
    9.9040  -15.8630   -1.8920 O   0  0  0  0  0  0  0  0  0  0  0  0
   10.8181  -12.5433   -2.2631 H   0  0  0  0  0  0  0  0  0  0  0  0
   10.4821  -13.3772   -3.8181 H   0  0  0  0  0  0  0  0  0  0  0  0
   11.0756  -11.6818   -3.8181 H   0  0  0  0  0  0  0  0  0  0  0  0
    8.9106  -14.4139   -3.9679 H   0  0  0  0  0  0  0  0  0  0  0  0
    7.1686  -12.9369   -5.0403 H   0  0  0  0  0  0  0  0  0  0  0  0
    6.7148  -14.6972   -5.0128 H   0  0  0  0  0  0  0  0  0  0  0  0
    5.6933  -12.5151   -3.1468 H   0  0  0  0  0  0  0  0  0  0  0  0
    4.7878  -13.3787   -4.4836 H   0  0  0  0  0  0  0  0  0  0  0  0
    4.2714  -16.5683   -2.8850 H   0  0  0  0  0  0  0  0  0  0  0  0
    3.7535  -15.4439   -4.1867 H   0  0  0  0  0  0  0  0  0  0  0  0
    5.4215  -16.1105   -4.1867 H   0  0  0  0  0  0  0  0  0  0  0  0
    6.5358  -13.9624   -1.2133 H   0  0  0  0  0  0  0  0  0  0  0  0
    5.4276  -16.8089   -1.1658 H   0  0  0  0  0  0  0  0  0  0  0  0
    6.6915  -16.1833   -0.0438 H   0  0  0  0  0  0  0  0  0  0  0  0
    4.4220  -16.0640    0.9507 H   0  0  0  0  0  0  0  0  0  0  0  0
    5.1856  -14.4130    0.6942 H   0  0  0  0  0  0  0  0  0  0  0  0
    2.3380  -16.6181   -0.0855 H   0  0  0  0  0  0  0  0  0  0  0  0
    1.8097  -15.7695   -1.5779 H   0  0  0  0  0  0  0  0  0  0  0  0
    3.3322  -16.7228   -1.5779 H   0  0  0  0  0  0  0  0  0  0  0  0
    4.4238  -13.0744   -1.3651 H   0  0  0  0  0  0  0  0  0  0  0  0
    2.9873  -12.5409   -3.1357 H   0  0  0  0  0  0  0  0  0  0  0  0
    2.3644  -14.2699   -3.2208 H   0  0  0  0  0  0  0  0  0  0  0  0
    0.6371  -12.6289   -2.2552 H   0  0  0  0  0  0  0  0  0  0  0  0
   -0.6833  -13.0093   -0.5109 H   0  0  0  0  0  0  0  0  0  0  0  0
    0.6596  -11.1602    1.5183 H   0  0  0  0  0  0  0  0  0  0  0  0
    0.3953  -10.7591   -0.2288 H   0  0  0  0  0  0  0  0  0  0  0  0
   -2.9465   -9.6702   -0.0278 H   0  0  0  0  0  0  0  0  0  0  0  0
   -1.3845   -9.7490   -0.9113 H   0  0  0  0  0  0  0  0  0  0  0  0
   -2.4887  -11.1658   -0.9113 H   0  0  0  0  0  0  0  0  0  0  0  0
   -3.0582  -11.5762    2.1787 H   0  0  0  0  0  0  0  0  0  0  0  0
   -2.7273  -12.5603    0.6943 H   0  0  0  0  0  0  0  0  0  0  0  0
   -0.9158  -12.4177    3.1451 H   0  0  0  0  0  0  0  0  0  0  0  0
   -2.1066  -13.7389    2.7759 H   0  0  0  0  0  0  0  0  0  0  0  0
   -1.3085  -15.6537    1.7951 H   0  0  0  0  0  0  0  0  0  0  0  0
   -1.8836  -14.7799    0.3348 H   0  0  0  0  0  0  0  0  0  0  0  0
   -0.2664  -15.5619    0.3348 H   0  0  0  0  0  0  0  0  0  0  0  0
    1.2038  -13.1106    2.8372 H   0  0  0  0  0  0  0  0  0  0  0  0
    0.4922  -14.7579    3.1489 H   0  0  0  0  0  0  0  0  0  0  0  0
    2.8132  -14.8687    2.3265 H   0  0  0  0  0  0  0  0  0  0  0  0
    1.5830  -15.6365    1.2014 H   0  0  0  0  0  0  0  0  0  0  0  0
    3.2764  -12.7186    2.1203 H   0  0  0  0  0  0  0  0  0  0  0  0
    4.3563  -12.7062    0.6849 H   0  0  0  0  0  0  0  0  0  0  0  0
    2.8513  -11.7258    0.6849 H   0  0  0  0  0  0  0  0  0  0  0  0
    7.6841  -17.3892   -2.3519 H   0  0  0  0  0  0  0  0  0  0  0  0
    6.7720  -16.7144   -3.7446 H   0  0  0  0  0  0  0  0  0  0  0  0
    8.5679  -16.6779   -3.7446 H   0  0  0  0  0  0  0  0  0  0  0  0
  1  2  1  0
  2  3  2  0
  2  4  1  0
  4  5  1  0
  5  6  1  0
  6  7  1  0
  7  8  1  0
  8  9  1  6
  8 10  1  0
 10 11  1  0
 11 12  1  0
 12 13  1  0
 13 14  1  6
 13 15  1  0
 15 16  1  0
 16 17  1  0
 17 18  2  0
 18 19  1  0
 19 20  1  0
 20 21  1  0
 21 22  1  6
 21 23  1  0
 23 24  2  0
 23 25  1  0
 21 26  1  0
 26 27  1  0
 27 28  1  0
 28 29  1  6
 28 30  1  0
 30 31  1  0
 31 32  1  0
 32 33  1  1
 10 34  1  0
 34 35  1  6
 34 36  1  0
 36 37  2  0
 36 38  1  0
 34  5  1  0
 15  8  1  0
 32 18  1  0
 32 13  1  0
 28 19  1  0
  1 39  1  0
  1 40  1  0
  1 41  1  0
  5 42  1  6
  6 43  1  0
  6 44  1  0
  7 45  1  0
  7 46  1  0
  9 47  1  0
  9 48  1  0
  9 49  1  0
 10 50  1  1
 11 51  1  0
 11 52  1  0
 12 53  1  0
 12 54  1  0
 14 55  1  0
 14 56  1  0
 14 57  1  0
 15 58  1  1
 16 59  1  0
 16 60  1  0
 17 61  1  0
 19 62  1  6
 20 63  1  0
 20 64  1  0
 22 65  1  0
 22 66  1  0
 22 67  1  0
 26 68  1  0
 26 69  1  0
 27 70  1  0
 27 71  1  0
 29 72  1  0
 29 73  1  0
 29 74  1  0
 30 75  1  0
 30 76  1  0
 31 77  1  0
 31 78  1  0
 33 79  1  0
 33 80  1  0
 33 81  1  0
 35 82  1  0
 35 83  1  0
 35 84  1  0
M  CHG  2  25  -1  38  -1
M  END
>  <meeko>  (3) 
{"is_sidechain": [false], "free_energy": -7.868, "intermolecular_energy": -9.698, "internal_energy": -0.56}

$$$$
LIB_UFBADNGLONOAHT__M_PUB_ALL__e8__s20260927
     RDKit          3D

 84 88  0  0  0  0  0  0  0  0999 V2000
    1.6740  -16.6840   -0.9610 C   0  0  0  0  0  0  0  0  0  0  0  0
    1.2410  -15.4470   -1.6880 C   0  0  0  0  0  0  0  0  0  0  0  0
    0.0760  -15.1930   -1.9730 O   0  0  0  0  0  0  0  0  0  0  0  0
    2.3300  -14.7050   -2.0030 O   0  0  0  0  0  0  0  0  0  0  0  0
    2.1180  -13.4950   -2.7730 C   0  0  2  0  0  0  0  0  0  0  0  0
    2.5540  -13.8100   -4.2100 C   0  0  0  0  0  0  0  0  0  0  0  0
    4.0510  -14.1380   -4.3090 C   0  0  0  0  0  0  0  0  0  0  0  0
    4.9830  -13.0270   -3.7390 C   0  0  1  0  0  0  0  0  0  0  0  0
    4.9290  -11.8380   -4.7360 C   0  0  0  0  0  0  0  0  0  0  0  0
    4.4810  -12.6600   -2.2880 C   0  0  1  0  0  0  0  0  0  0  0  0
    5.4250  -11.6240   -1.6430 C   0  0  0  0  0  0  0  0  0  0  0  0
    6.8260  -12.2230   -1.4580 C   0  0  0  0  0  0  0  0  0  0  0  0
    7.4930  -12.7390   -2.7670 C   0  0  2  0  0  0  0  0  0  0  0  0
    7.9210  -11.4810   -3.5850 C   0  0  0  0  0  0  0  0  0  0  0  0
    6.4590  -13.6140   -3.5800 C   0  0  2  0  0  0  0  0  0  0  0  0
    7.0820  -14.1450   -4.8890 C   0  0  0  0  0  0  0  0  0  0  0  0
    8.5390  -14.4900   -4.8070 C   0  0  0  0  0  0  0  0  0  0  0  0
    9.3480  -14.2860   -3.7470 C   0  0  0  0  0  0  0  0  0  0  0  0
   10.8190  -14.7060   -3.8650 C   0  0  2  0  0  0  0  0  0  0  0  0
   11.0570  -16.2010   -3.5550 C   0  0  0  0  0  0  0  0  0  0  0  0
   12.4520  -16.6720   -4.0510 C   0  0  2  0  0  0  0  0  0  0  0  0
   12.3630  -17.2350   -5.4800 C   0  0  0  0  0  0  0  0  0  0  0  0
   12.8610  -17.8870   -3.1590 C   0  0  0  0  0  0  0  0  0  0  0  0
   12.1900  -18.0520   -2.1010 O   0  0  0  0  0  0  0  0  0  0  0  0
   13.8320  -18.5780   -3.5850 O   0  0  0  0  0  0  0  0  0  0  0  0
   13.4810  -15.5190   -4.0380 C   0  0  0  0  0  0  0  0  0  0  0  0
   13.1970  -14.5280   -2.9090 C   0  0  0  0  0  0  0  0  0  0  0  0
   11.8280  -13.8070   -3.0920 C   0  0  1  0  0  0  0  0  0  0  0  0
   12.0700  -12.5100   -3.9030 C   0  0  0  0  0  0  0  0  0  0  0  0
   11.2880  -13.4550   -1.6890 C   0  0  0  0  0  0  0  0  0  0  0  0
    9.9060  -12.8060   -1.7330 C   0  0  0  0  0  0  0  0  0  0  0  0
    8.8120  -13.6570   -2.4470 C   0  0  1  0  0  0  0  0  0  0  0  0
    8.4780  -14.8470   -1.4990 C   0  0  0  0  0  0  0  0  0  0  0  0
    2.9550  -12.3420   -2.1550 C   0  0  1  0  0  0  0  0  0  0  0  0
    2.5570  -10.9760   -2.7440 C   0  0  0  0  0  0  0  0  0  0  0  0
    2.4040  -12.3100   -0.6860 C   0  0  0  0  0  0  0  0  0  0  0  0
    1.2040  -11.9260   -0.5520 O   0  0  0  0  0  0  0  0  0  0  0  0
    3.2000  -12.6760    0.2240 O   0  0  0  0  0  0  0  0  0  0  0  0
    1.6137  -16.5118    0.1238 H   0  0  0  0  0  0  0  0  0  0  0  0
    1.0153  -17.5208   -1.2366 H   0  0  0  0  0  0  0  0  0  0  0  0
    2.7107  -16.9273   -1.2366 H   0  0  0  0  0  0  0  0  0  0  0  0
    1.0664  -13.1723   -2.7649 H   0  0  0  0  0  0  0  0  0  0  0  0
    1.9783  -14.6744   -4.5724 H   0  0  0  0  0  0  0  0  0  0  0  0
    2.3656  -12.9152   -4.8214 H   0  0  0  0  0  0  0  0  0  0  0  0
    4.2391  -15.0670   -3.7509 H   0  0  0  0  0  0  0  0  0  0  0  0
    4.2858  -14.2316   -5.3796 H   0  0  0  0  0  0  0  0  0  0  0  0
    4.8860  -10.8919   -4.1764 H   0  0  0  0  0  0  0  0  0  0  0  0
    5.8286  -11.8491   -5.3690 H   0  0  0  0  0  0  0  0  0  0  0  0
    4.0341  -11.9306   -5.3690 H   0  0  0  0  0  0  0  0  0  0  0  0
    4.5464  -13.5816   -1.6910 H   0  0  0  0  0  0  0  0  0  0  0  0
    5.4915  -10.7393   -2.2932 H   0  0  0  0  0  0  0  0  0  0  0  0
    5.0248  -11.3389   -0.6589 H   0  0  0  0  0  0  0  0  0  0  0  0
    7.4754  -11.4476   -1.0256 H   0  0  0  0  0  0  0  0  0  0  0  0
    6.7043  -13.1002   -0.8056 H   0  0  0  0  0  0  0  0  0  0  0  0
    8.1967  -10.6707   -2.8940 H   0  0  0  0  0  0  0  0  0  0  0  0
    8.7843  -11.7320   -4.2188 H   0  0  0  0  0  0  0  0  0  0  0  0
    7.0837  -11.1535   -4.2188 H   0  0  0  0  0  0  0  0  0  0  0  0
    6.2590  -14.4796   -2.9314 H   0  0  0  0  0  0  0  0  0  0  0  0
    6.5334  -15.0517   -5.1840 H   0  0  0  0  0  0  0  0  0  0  0  0
    7.0021  -13.3267   -5.6198 H   0  0  0  0  0  0  0  0  0  0  0  0
    8.9913  -14.9537   -5.6961 H   0  0  0  0  0  0  0  0  0  0  0  0
   11.0348  -14.5457   -4.9316 H   0  0  0  0  0  0  0  0  0  0  0  0
   10.9940  -16.3547   -2.4676 H   0  0  0  0  0  0  0  0  0  0  0  0
   10.2887  -16.7881   -4.0795 H   0  0  0  0  0  0  0  0  0  0  0  0
   12.1914  -18.3207   -5.4363 H   0  0  0  0  0  0  0  0  0  0  0  0
   11.5299  -16.7532   -6.0127 H   0  0  0  0  0  0  0  0  0  0  0  0
   13.3041  -17.0337   -6.0127 H   0  0  0  0  0  0  0  0  0  0  0  0
   14.4878  -15.9399   -3.8995 H   0  0  0  0  0  0  0  0  0  0  0  0
   13.4098  -14.9817   -4.9952 H   0  0  0  0  0  0  0  0  0  0  0  0
   13.1859  -15.0727   -1.9534 H   0  0  0  0  0  0  0  0  0  0  0  0
   13.9872  -13.7629   -2.9234 H   0  0  0  0  0  0  0  0  0  0  0  0
   12.2269  -11.6691   -3.2115 H   0  0  0  0  0  0  0  0  0  0  0  0
   12.9604  -12.6346   -4.5368 H   0  0  0  0  0  0  0  0  0  0  0  0
   11.1946  -12.3051   -4.5368 H   0  0  0  0  0  0  0  0  0  0  0  0
   11.2239  -14.3786   -1.0950 H   0  0  0  0  0  0  0  0  0  0  0  0
   11.9811  -12.7286   -1.2397 H   0  0  0  0  0  0  0  0  0  0  0  0
    9.5789  -12.6248   -0.6985 H   0  0  0  0  0  0  0  0  0  0  0  0
   10.0141  -11.8816   -2.3194 H   0  0  0  0  0  0  0  0  0  0  0  0
    8.5699  -14.5194   -0.4529 H   0  0  0  0  0  0  0  0  0  0  0  0
    7.4494  -15.1883   -1.6873 H   0  0  0  0  0  0  0  0  0  0  0  0
    9.1788  -15.6737   -1.6873 H   0  0  0  0  0  0  0  0  0  0  0  0
    2.3513  -10.2699   -1.9260 H   0  0  0  0  0  0  0  0  0  0  0  0
    3.3800  -10.5899   -3.3634 H   0  0  0  0  0  0  0  0  0  0  0  0
    1.6554  -11.0924   -3.3634 H   0  0  0  0  0  0  0  0  0  0  0  0
  1  2  1  0
  2  3  2  0
  2  4  1  0
  4  5  1  0
  5  6  1  0
  6  7  1  0
  7  8  1  0
  8  9  1  6
  8 10  1  0
 10 11  1  0
 11 12  1  0
 12 13  1  0
 13 14  1  6
 13 15  1  0
 15 16  1  0
 16 17  1  0
 17 18  2  0
 18 19  1  0
 19 20  1  0
 20 21  1  0
 21 22  1  6
 21 23  1  0
 23 24  2  0
 23 25  1  0
 21 26  1  0
 26 27  1  0
 27 28  1  0
 28 29  1  6
 28 30  1  0
 30 31  1  0
 31 32  1  0
 32 33  1  1
 10 34  1  0
 34 35  1  6
 34 36  1  0
 36 37  2  0
 36 38  1  0
 34  5  1  0
 15  8  1  0
 32 18  1  0
 32 13  1  0
 28 19  1  0
  1 39  1  0
  1 40  1  0
  1 41  1  0
  5 42  1  6
  6 43  1  0
  6 44  1  0
  7 45  1  0
  7 46  1  0
  9 47  1  0
  9 48  1  0
  9 49  1  0
 10 50  1  1
 11 51  1  0
 11 52  1  0
 12 53  1  0
 12 54  1  0
 14 55  1  0
 14 56  1  0
 14 57  1  0
 15 58  1  1
 16 59  1  0
 16 60  1  0
 17 61  1  0
 19 62  1  6
 20 63  1  0
 20 64  1  0
 22 65  1  0
 22 66  1  0
 22 67  1  0
 26 68  1  0
 26 69  1  0
 27 70  1  0
 27 71  1  0
 29 72  1  0
 29 73  1  0
 29 74  1  0
 30 75  1  0
 30 76  1  0
 31 77  1  0
 31 78  1  0
 33 79  1  0
 33 80  1  0
 33 81  1  0
 35 82  1  0
 35 83  1  0
 35 84  1  0
M  CHG  2  25  -1  38  -1
M  END
>  <meeko>  (4) 
{"is_sidechain": [false], "free_energy": -7.815, "intermolecular_energy": -9.735, "internal_energy": -0.458}

$$$$
LIB_UFBADNGLONOAHT__M_PUB_ALL__e8__s20260927
     RDKit          3D

 84 88  0  0  0  0  0  0  0  0999 V2000
    4.3970  -17.8550   11.5000 C   0  0  0  0  0  0  0  0  0  0  0  0
    4.0450  -17.5290   10.0800 C   0  0  0  0  0  0  0  0  0  0  0  0
    4.8530  -17.1330    9.2490 O   0  0  0  0  0  0  0  0  0  0  0  0
    2.7140  -17.7020    9.8950 O   0  0  0  0  0  0  0  0  0  0  0  0
    2.2210  -19.0610    9.7960 C   0  0  2  0  0  0  0  0  0  0  0  0
    2.8820  -19.6770    8.5560 C   0  0  0  0  0  0  0  0  0  0  0  0
    2.4710  -18.9640    7.2590 C   0  0  0  0  0  0  0  0  0  0  0  0
    0.9310  -18.9090    7.0260 C   0  0  1  0  0  0  0  0  0  0  0  0
    0.4780  -20.3490    6.6650 C   0  0  0  0  0  0  0  0  0  0  0  0
    0.2550  -18.3420    8.3350 C   0  0  1  0  0  0  0  0  0  0  0  0
   -1.2650  -18.1840    8.1250 C   0  0  0  0  0  0  0  0  0  0  0  0
   -1.5470  -17.1470    7.0300 C   0  0  0  0  0  0  0  0  0  0  0  0
   -0.8960  -17.4610    5.6510 C   0  0  2  0  0  0  0  0  0  0  0  0
   -1.7070  -18.6370    5.0230 C   0  0  0  0  0  0  0  0  0  0  0  0
    0.6160  -17.8680    5.8580 C   0  0  2  0  0  0  0  0  0  0  0  0
    1.2990  -18.1900    4.5110 C   0  0  0  0  0  0  0  0  0  0  0  0
    0.8420  -17.3590    3.3500 C   0  0  0  0  0  0  0  0  0  0  0  0
   -0.1580  -16.4520    3.3630 C   0  0  0  0  0  0  0  0  0  0  0  0
   -0.4770  -15.7060    2.0610 C   0  0  2  0  0  0  0  0  0  0  0  0
    0.4230  -14.4730    1.8250 C   0  0  0  0  0  0  0  0  0  0  0  0
    0.3420  -13.9810    0.3530 C   0  0  2  0  0  0  0  0  0  0  0  0
    1.4370  -14.6380   -0.5050 C   0  0  0  0  0  0  0  0  0  0  0  0
    0.6930  -12.4590    0.3660 C   0  0  0  0  0  0  0  0  0  0  0  0
    1.3100  -12.0210   -0.6470 O   0  0  0  0  0  0  0  0  0  0  0  0
    0.3310  -11.8210    1.3970 O   0  0  0  0  0  0  0  0  0  0  0  0
   -1.0340  -14.2940   -0.2780 C   0  0  0  0  0  0  0  0  0  0  0  0
   -2.1510  -14.2510    0.7640 C   0  0  0  0  0  0  0  0  0  0  0  0
   -1.9800  -15.3510    1.8540 C   0  0  1  0  0  0  0  0  0  0  0  0
   -2.7360  -16.6190    1.3850 C   0  0  0  0  0  0  0  0  0  0  0  0
   -2.6050  -14.8220    3.1630 C   0  0  0  0  0  0  0  0  0  0  0  0
   -2.4320  -15.7870    4.3340 C   0  0  0  0  0  0  0  0  0  0  0  0
   -0.9530  -16.1640    4.6500 C   0  0  1  0  0  0  0  0  0  0  0  0
   -0.2940  -14.9060    5.2900 C   0  0  0  0  0  0  0  0  0  0  0  0
    0.6720  -19.0360    9.6730 C   0  0  1  0  0  0  0  0  0  0  0  0
    0.0690  -20.4410    9.8540 C   0  0  0  0  0  0  0  0  0  0  0  0
    0.2700  -18.2660   10.9810 C   0  0  0  0  0  0  0  0  0  0  0  0
    0.9850  -18.4950   12.0020 O   0  0  0  0  0  0  0  0  0  0  0  0
   -0.7210  -17.4880   10.8940 O   0  0  0  0  0  0  0  0  0  0  0  0
    3.7622  -17.2671   12.1793 H   0  0  0  0  0  0  0  0  0  0  0  0
    4.2333  -18.9275   11.6814 H   0  0  0  0  0  0  0  0  0  0  0  0
    5.4538  -17.6096   11.6814 H   0  0  0  0  0  0  0  0  0  0  0  0
    2.4660  -19.6607   10.6850 H   0  0  0  0  0  0  0  0  0  0  0  0
    3.9742  -19.6076    8.6665 H   0  0  0  0  0  0  0  0  0  0  0  0
    2.5502  -20.7233    8.4835 H   0  0  0  0  0  0  0  0  0  0  0  0
    2.8523  -17.9328    7.2955 H   0  0  0  0  0  0  0  0  0  0  0  0
    2.8979  -19.5445    6.4279 H   0  0  0  0  0  0  0  0  0  0  0  0
    0.2986  -20.9193    7.5884 H   0  0  0  0  0  0  0  0  0  0  0  0
   -0.4496  -20.3046    6.0754 H   0  0  0  0  0  0  0  0  0  0  0  0
    1.2639  -20.8437    6.0754 H   0  0  0  0  0  0  0  0  0  0  0  0
    0.6720  -17.3364    8.4926 H   0  0  0  0  0  0  0  0  0  0  0  0
   -1.6925  -19.1525    7.8262 H   0  0  0  0  0  0  0  0  0  0  0  0
   -1.7225  -17.8439    9.0658 H   0  0  0  0  0  0  0  0  0  0  0  0
   -2.6362  -17.0862    6.8885 H   0  0  0  0  0  0  0  0  0  0  0  0
   -1.1011  -16.2026    7.3753 H   0  0  0  0  0  0  0  0  0  0  0  0
   -2.1345  -19.2569    5.8248 H   0  0  0  0  0  0  0  0  0  0  0  0
   -2.5185  -18.2316    4.4007 H   0  0  0  0  0  0  0  0  0  0  0  0
   -1.0397  -19.2514    4.4007 H   0  0  0  0  0  0  0  0  0  0  0  0
    1.0922  -16.9638    6.2650 H   0  0  0  0  0  0  0  0  0  0  0  0
    2.3816  -18.0381    4.6333 H   0  0  0  0  0  0  0  0  0  0  0  0
    1.0259  -19.2280    4.2702 H   0  0  0  0  0  0  0  0  0  0  0  0
    1.3719  -17.5018    2.3967 H   0  0  0  0  0  0  0  0  0  0  0  0
   -0.2375  -16.4490    1.2860 H   0  0  0  0  0  0  0  0  0  0  0  0
    0.0980  -13.6606    2.4916 H   0  0  0  0  0  0  0  0  0  0  0  0
    1.4637  -14.7604    2.0357 H   0  0  0  0  0  0  0  0  0  0  0  0
    2.1939  -15.0922    0.1513 H   0  0  0  0  0  0  0  0  0  0  0  0
    0.9879  -15.4160   -1.1399 H   0  0  0  0  0  0  0  0  0  0  0  0
    1.9121  -13.8756   -1.1399 H   0  0  0  0  0  0  0  0  0  0  0  0
   -1.2460  -13.5502   -1.0601 H   0  0  0  0  0  0  0  0  0  0  0  0
   -0.9965  -15.3083   -0.7020 H   0  0  0  0  0  0  0  0  0  0  0  0
   -2.1434  -13.2649    1.2513 H   0  0  0  0  0  0  0  0  0  0  0  0
   -3.1040  -14.4335    0.2459 H   0  0  0  0  0  0  0  0  0  0  0  0
   -3.0758  -17.1889    2.2624 H   0  0  0  0  0  0  0  0  0  0  0  0
   -3.6060  -16.3244    0.7798 H   0  0  0  0  0  0  0  0  0  0  0  0
   -2.0631  -17.2442    0.7798 H   0  0  0  0  0  0  0  0  0  0  0  0
   -2.1244  -13.8667    3.4209 H   0  0  0  0  0  0  0  0  0  0  0  0
   -3.6846  -14.7021    2.9896 H   0  0  0  0  0  0  0  0  0  0  0  0
   -2.8663  -15.3203    5.2304 H   0  0  0  0  0  0  0  0  0  0  0  0
   -2.9374  -16.7207    4.0463 H   0  0  0  0  0  0  0  0  0  0  0  0
   -0.3366  -14.9873    6.3862 H   0  0  0  0  0  0  0  0  0  0  0  0
    0.7556  -14.8379    4.9679 H   0  0  0  0  0  0  0  0  0  0  0  0
   -0.8356  -14.0044    4.9679 H   0  0  0  0  0  0  0  0  0  0  0  0
   -0.0265  -20.6636   10.9270 H   0  0  0  0  0  0  0  0  0  0  0  0
   -0.9240  -20.4774    9.3822 H   0  0  0  0  0  0  0  0  0  0  0  0
    0.7267  -21.1859    9.3822 H   0  0  0  0  0  0  0  0  0  0  0  0
  1  2  1  0
  2  3  2  0
  2  4  1  0
  4  5  1  0
  5  6  1  0
  6  7  1  0
  7  8  1  0
  8  9  1  6
  8 10  1  0
 10 11  1  0
 11 12  1  0
 12 13  1  0
 13 14  1  6
 13 15  1  0
 15 16  1  0
 16 17  1  0
 17 18  2  0
 18 19  1  0
 19 20  1  0
 20 21  1  0
 21 22  1  6
 21 23  1  0
 23 24  2  0
 23 25  1  0
 21 26  1  0
 26 27  1  0
 27 28  1  0
 28 29  1  6
 28 30  1  0
 30 31  1  0
 31 32  1  0
 32 33  1  1
 10 34  1  0
 34 35  1  1
 34 36  1  0
 36 37  2  0
 36 38  1  0
 34  5  1  0
 15  8  1  0
 32 18  1  0
 32 13  1  0
 28 19  1  0
  1 39  1  0
  1 40  1  0
  1 41  1  0
  5 42  1  1
  6 43  1  0
  6 44  1  0
  7 45  1  0
  7 46  1  0
  9 47  1  0
  9 48  1  0
  9 49  1  0
 10 50  1  1
 11 51  1  0
 11 52  1  0
 12 53  1  0
 12 54  1  0
 14 55  1  0
 14 56  1  0
 14 57  1  0
 15 58  1  1
 16 59  1  0
 16 60  1  0
 17 61  1  0
 19 62  1  6
 20 63  1  0
 20 64  1  0
 22 65  1  0
 22 66  1  0
 22 67  1  0
 26 68  1  0
 26 69  1  0
 27 70  1  0
 27 71  1  0
 29 72  1  0
 29 73  1  0
 29 74  1  0
 30 75  1  0
 30 76  1  0
 31 77  1  0
 31 78  1  0
 33 79  1  0
 33 80  1  0
 33 81  1  0
 35 82  1  0
 35 83  1  0
 35 84  1  0
M  CHG  2  25  -1  38  -1
M  END
>  <meeko>  (5) 
{"is_sidechain": [false], "free_energy": -7.688, "intermolecular_energy": -9.986, "internal_energy": -0.05}

$$$$
LIB_UFBADNGLONOAHT__M_PUB_ALL__e8__s20260927
     RDKit          3D

 84 88  0  0  0  0  0  0  0  0999 V2000
   12.3780  -19.5020   -2.0250 C   0  0  0  0  0  0  0  0  0  0  0  0
   13.1030  -18.5640   -2.9420 C   0  0  0  0  0  0  0  0  0  0  0  0
   14.1830  -18.8130   -3.4630 O   0  0  0  0  0  0  0  0  0  0  0  0
   12.3980  -17.4120   -3.0560 O   0  0  0  0  0  0  0  0  0  0  0  0
   13.1080  -16.1670   -2.8400 C   0  0  2  0  0  0  0  0  0  0  0  0
   12.7340  -15.6900   -1.4290 C   0  0  0  0  0  0  0  0  0  0  0  0
   11.2370  -15.3720   -1.2970 C   0  0  0  0  0  0  0  0  0  0  0  0
   10.7170  -14.3270   -2.3300 C   0  0  1  0  0  0  0  0  0  0  0  0
   11.2950  -12.9500   -1.9070 C   0  0  0  0  0  0  0  0  0  0  0  0
   11.1700  -14.7900   -3.7690 C   0  0  1  0  0  0  0  0  0  0  0  0
   10.6040  -13.8340   -4.8390 C   0  0  0  0  0  0  0  0  0  0  0  0
    9.0700  -13.8920   -4.8480 C   0  0  0  0  0  0  0  0  0  0  0  0
    8.3970  -13.5510   -3.4870 C   0  0  2  0  0  0  0  0  0  0  0  0
    8.5350  -12.0100   -3.2850 C   0  0  0  0  0  0  0  0  0  0  0  0
    9.1210  -14.3380   -2.3240 C   0  0  2  0  0  0  0  0  0  0  0  0
    8.4820  -14.0250   -0.9540 C   0  0  0  0  0  0  0  0  0  0  0  0
    6.9990  -13.8090   -0.9760 C   0  0  0  0  0  0  0  0  0  0  0  0
    6.2160  -13.7660   -2.0740 C   0  0  0  0  0  0  0  0  0  0  0  0
    4.7120  -13.5280   -1.8850 C   0  0  2  0  0  0  0  0  0  0  0  0
    3.9220  -14.8160   -1.5680 C   0  0  0  0  0  0  0  0  0  0  0  0
    2.5070  -14.4960   -1.0090 C   0  0  2  0  0  0  0  0  0  0  0  0
    2.5290  -14.4240    0.5270 C   0  0  0  0  0  0  0  0  0  0  0  0
    1.6000  -15.7210   -1.3470 C   0  0  0  0  0  0  0  0  0  0  0  0
    0.4050  -15.4590   -1.6650 O   0  0  0  0  0  0  0  0  0  0  0  0
    2.1550  -16.8550   -1.2590 O   0  0  0  0  0  0  0  0  0  0  0  0
    1.9680  -13.1550   -1.5590 C   0  0  0  0  0  0  0  0  0  0  0  0
    2.4760  -12.8850   -2.9740 C   0  0  0  0  0  0  0  0  0  0  0  0
    4.0240  -12.7130   -3.0200 C   0  0  1  0  0  0  0  0  0  0  0  0
    4.3490  -11.2110   -2.8290 C   0  0  0  0  0  0  0  0  0  0  0  0
    4.5120  -13.1830   -4.4070 C   0  0  0  0  0  0  0  0  0  0  0  0
    6.0320  -13.1320   -4.5480 C   0  0  0  0  0  0  0  0  0  0  0  0
    6.8100  -13.9610   -3.4820 C   0  0  1  0  0  0  0  0  0  0  0  0
    6.5960  -15.4630   -3.8350 C   0  0  0  0  0  0  0  0  0  0  0  0
   12.6860  -15.1400   -3.9270 C   0  0  1  0  0  0  0  0  0  0  0  0
   13.6080  -13.9070   -3.9270 C   0  0  0  0  0  0  0  0  0  0  0  0
   13.0620  -15.9100   -5.2420 C   0  0  0  0  0  0  0  0  0  0  0  0
   12.0900  -16.3640   -5.9170 O   0  0  0  0  0  0  0  0  0  0  0  0
   14.2930  -16.0000   -5.5110 O   0  0  0  0  0  0  0  0  0  0  0  0
   12.5887  -19.2294   -0.9803 H   0  0  0  0  0  0  0  0  0  0  0  0
   11.2960  -19.4332   -2.2108 H   0  0  0  0  0  0  0  0  0  0  0  0
   12.7172  -20.5318   -2.2108 H   0  0  0  0  0  0  0  0  0  0  0  0
   14.1985  -16.2892   -2.9162 H   0  0  0  0  0  0  0  0  0  0  0  0
   12.9923  -16.4802   -0.7087 H   0  0  0  0  0  0  0  0  0  0  0  0
   13.2929  -14.7641   -1.2284 H   0  0  0  0  0  0  0  0  0  0  0  0
   10.6717  -16.3055   -1.4349 H   0  0  0  0  0  0  0  0  0  0  0  0
   11.0920  -14.9323   -0.2992 H   0  0  0  0  0  0  0  0  0  0  0  0
   11.3222  -12.8853   -0.8092 H   0  0  0  0  0  0  0  0  0  0  0  0
   12.3144  -12.8420   -2.3060 H   0  0  0  0  0  0  0  0  0  0  0  0
   10.6581  -12.1468   -2.3060 H   0  0  0  0  0  0  0  0  0  0  0  0
   10.7178  -15.7786   -3.9370 H   0  0  0  0  0  0  0  0  0  0  0  0
   10.9269  -12.8066   -4.6149 H   0  0  0  0  0  0  0  0  0  0  0  0
   10.9793  -14.1402   -5.8266 H   0  0  0  0  0  0  0  0  0  0  0  0
    8.7047  -13.1764   -5.5994 H   0  0  0  0  0  0  0  0  0  0  0  0
    8.8004  -14.9341   -5.0747 H   0  0  0  0  0  0  0  0  0  0  0  0
    8.5555  -11.7816   -2.2092 H   0  0  0  0  0  0  0  0  0  0  0  0
    9.4680  -11.6611   -3.7517 H   0  0  0  0  0  0  0  0  0  0  0  0
    7.6789  -11.5009   -3.7517 H   0  0  0  0  0  0  0  0  0  0  0  0
    8.9295  -15.3984   -2.5451 H   0  0  0  0  0  0  0  0  0  0  0  0
    8.6932  -14.8679   -0.2795 H   0  0  0  0  0  0  0  0  0  0  0  0
    8.9240  -13.0744   -0.6210 H   0  0  0  0  0  0  0  0  0  0  0  0
    6.5016  -13.6725   -0.0044 H   0  0  0  0  0  0  0  0  0  0  0  0
    4.6751  -12.8851   -0.9932 H   0  0  0  0  0  0  0  0  0  0  0  0
    3.8165  -15.4062   -2.4902 H   0  0  0  0  0  0  0  0  0  0  0  0
    4.4753  -15.3795   -0.8023 H   0  0  0  0  0  0  0  0  0  0  0  0
    2.2316  -15.3975    0.9440 H   0  0  0  0  0  0  0  0  0  0  0  0
    3.5445  -14.1740    0.8678 H   0  0  0  0  0  0  0  0  0  0  0  0
    1.8266  -13.6491    0.8678 H   0  0  0  0  0  0  0  0  0  0  0  0
    0.8687  -13.1913   -1.5748 H   0  0  0  0  0  0  0  0  0  0  0  0
    2.3240  -12.3458   -0.9045 H   0  0  0  0  0  0  0  0  0  0  0  0
    2.1940  -13.7302   -3.6191 H   0  0  0  0  0  0  0  0  0  0  0  0
    2.0211  -11.9463   -3.3231 H   0  0  0  0  0  0  0  0  0  0  0  0
    4.3989  -10.9804   -1.7546 H   0  0  0  0  0  0  0  0  0  0  0  0
    5.3173  -10.9828   -3.2984 H   0  0  0  0  0  0  0  0  0  0  0  0
    3.5616  -10.6029   -3.2984 H   0  0  0  0  0  0  0  0  0  0  0  0
    4.1790  -14.2196   -4.5641 H   0  0  0  0  0  0  0  0  0  0  0  0
    4.0866  -12.4998   -5.1569 H   0  0  0  0  0  0  0  0  0  0  0  0
    6.2975  -13.5176   -5.5434 H   0  0  0  0  0  0  0  0  0  0  0  0
    6.3240  -12.0818   -4.4005 H   0  0  0  0  0  0  0  0  0  0  0  0
    6.5125  -16.0492   -2.9080 H   0  0  0  0  0  0  0  0  0  0  0  0
    5.6730  -15.5735   -4.4231 H   0  0  0  0  0  0  0  0  0  0  0  0
    7.4514  -15.8269   -4.4231 H   0  0  0  0  0  0  0  0  0  0  0  0
   13.8276  -13.6134   -2.8899 H   0  0  0  0  0  0  0  0  0  0  0  0
   14.5469  -14.1512   -4.4455 H   0  0  0  0  0  0  0  0  0  0  0  0
   13.1083  -13.0755   -4.4455 H   0  0  0  0  0  0  0  0  0  0  0  0
  1  2  1  0
  2  3  2  0
  2  4  1  0
  4  5  1  0
  5  6  1  0
  6  7  1  0
  7  8  1  0
  8  9  1  1
  8 10  1  0
 10 11  1  0
 11 12  1  0
 12 13  1  0
 13 14  1  1
 13 15  1  0
 15 16  1  0
 16 17  1  0
 17 18  2  0
 18 19  1  0
 19 20  1  0
 20 21  1  0
 21 22  1  1
 21 23  1  0
 23 24  2  0
 23 25  1  0
 21 26  1  0
 26 27  1  0
 27 28  1  0
 28 29  1  1
 28 30  1  0
 30 31  1  0
 31 32  1  0
 32 33  1  6
 10 34  1  0
 34 35  1  1
 34 36  1  0
 36 37  2  0
 36 38  1  0
 34  5  1  0
 15  8  1  0
 32 18  1  0
 32 13  1  0
 28 19  1  0
  1 39  1  0
  1 40  1  0
  1 41  1  0
  5 42  1  1
  6 43  1  0
  6 44  1  0
  7 45  1  0
  7 46  1  0
  9 47  1  0
  9 48  1  0
  9 49  1  0
 10 50  1  6
 11 51  1  0
 11 52  1  0
 12 53  1  0
 12 54  1  0
 14 55  1  0
 14 56  1  0
 14 57  1  0
 15 58  1  6
 16 59  1  0
 16 60  1  0
 17 61  1  0
 19 62  1  1
 20 63  1  0
 20 64  1  0
 22 65  1  0
 22 66  1  0
 22 67  1  0
 26 68  1  0
 26 69  1  0
 27 70  1  0
 27 71  1  0
 29 72  1  0
 29 73  1  0
 29 74  1  0
 30 75  1  0
 30 76  1  0
 31 77  1  0
 31 78  1  0
 33 79  1  0
 33 80  1  0
 33 81  1  0
 35 82  1  0
 35 83  1  0
 35 84  1  0
M  CHG  2  25  -1  38  -1
M  END
>  <meeko>  (6) 
{"is_sidechain": [false], "free_energy": -7.681, "intermolecular_energy": -9.527, "internal_energy": -0.501}

$$$$
LIB_UFBADNGLONOAHT__M_PUB_ALL__e8__s20260927
     RDKit          3D

 84 88  0  0  0  0  0  0  0  0999 V2000
   -5.6540  -13.2940    3.2330 C   0  0  0  0  0  0  0  0  0  0  0  0
   -4.6890  -13.1780    2.0930 C   0  0  0  0  0  0  0  0  0  0  0  0
   -4.9820  -12.7310    0.9900 O   0  0  0  0  0  0  0  0  0  0  0  0
   -3.4870  -13.6780    2.4680 O   0  0  0  0  0  0  0  0  0  0  0  0
   -2.6140  -14.1800    1.4250 C   0  0  2  0  0  0  0  0  0  0  0  0
   -2.9840  -15.6550    1.2190 C   0  0  0  0  0  0  0  0  0  0  0  0
   -2.7130  -16.5070    2.4680 C   0  0  0  0  0  0  0  0  0  0  0  0
   -1.2440  -16.4300    2.9820 C   0  0  1  0  0  0  0  0  0  0  0  0
   -0.3690  -17.2090    1.9630 C   0  0  0  0  0  0  0  0  0  0  0  0
   -0.8500  -14.9080    3.1210 C   0  0  1  0  0  0  0  0  0  0  0  0
    0.5690  -14.7760    3.7120 C   0  0  0  0  0  0  0  0  0  0  0  0
    0.6080  -15.3470    5.1360 C   0  0  0  0  0  0  0  0  0  0  0  0
    0.1700  -16.8360    5.2540 C   0  0  2  0  0  0  0  0  0  0  0  0
    1.3270  -17.7000    4.6620 C   0  0  0  0  0  0  0  0  0  0  0  0
   -1.1690  -17.0600    4.4460 C   0  0  2  0  0  0  0  0  0  0  0  0
   -1.6390  -18.5290    4.5370 C   0  0  0  0  0  0  0  0  0  0  0  0
   -1.3670  -19.2040    5.8480 C   0  0  0  0  0  0  0  0  0  0  0  0
   -0.6780  -18.6850    6.8850 C   0  0  0  0  0  0  0  0  0  0  0  0
   -0.5040  -19.5450    8.1440 C   0  0  2  0  0  0  0  0  0  0  0  0
   -1.7060  -19.4650    9.1110 C   0  0  0  0  0  0  0  0  0  0  0  0
   -1.6750  -20.6160   10.1560 C   0  0  2  0  0  0  0  0  0  0  0  0
   -2.4720  -21.8320    9.6550 C   0  0  0  0  0  0  0  0  0  0  0  0
   -2.4530  -20.1070   11.4100 C   0  0  0  0  0  0  0  0  0  0  0  0
   -1.8400  -20.1820   12.5140 O   0  0  0  0  0  0  0  0  0  0  0  0
   -3.6230  -19.6790   11.1940 O   0  0  0  0  0  0  0  0  0  0  0  0
   -0.2290  -21.0660   10.4640 C   0  0  0  0  0  0  0  0  0  0  0  0
    0.7560  -19.9030   10.3530 C   0  0  0  0  0  0  0  0  0  0  0  0
    0.8410  -19.3410    8.9030 C   0  0  1  0  0  0  0  0  0  0  0  0
    1.9620  -20.1030    8.1540 C   0  0  0  0  0  0  0  0  0  0  0  0
    1.1980  -17.8420    8.9960 C   0  0  0  0  0  0  0  0  0  0  0  0
    1.2360  -17.1570    7.6320 C   0  0  0  0  0  0  0  0  0  0  0  0
   -0.0870  -17.2640    6.8150 C   0  0  1  0  0  0  0  0  0  0  0  0
   -1.1240  -16.3330    7.5110 C   0  0  0  0  0  0  0  0  0  0  0  0
   -1.1350  -14.0130    1.8700 C   0  0  1  0  0  0  0  0  0  0  0  0
   -0.1620  -14.2580    0.7020 C   0  0  0  0  0  0  0  0  0  0  0  0
   -1.0600  -12.4660    2.1230 C   0  0  0  0  0  0  0  0  0  0  0  0
   -1.1300  -11.7310    1.0930 O   0  0  0  0  0  0  0  0  0  0  0  0
   -0.9450  -12.0960    3.3250 O   0  0  0  0  0  0  0  0  0  0  0  0
   -5.1066  -13.2282    4.1849 H   0  0  0  0  0  0  0  0  0  0  0  0
   -6.3892  -12.4778    3.1756 H   0  0  0  0  0  0  0  0  0  0  0  0
   -6.1748  -14.2612    3.1756 H   0  0  0  0  0  0  0  0  0  0  0  0
   -2.7320  -13.6298    0.4798 H   0  0  0  0  0  0  0  0  0  0  0  0
   -4.0541  -15.7196    0.9728 H   0  0  0  0  0  0  0  0  0  0  0  0
   -2.3582  -16.0469    0.4036 H   0  0  0  0  0  0  0  0  0  0  0  0
   -3.3794  -16.1628    3.2726 H   0  0  0  0  0  0  0  0  0  0  0  0
   -2.8963  -17.5540    2.1846 H   0  0  0  0  0  0  0  0  0  0  0  0
    0.3460  -17.8455    2.5049 H   0  0  0  0  0  0  0  0  0  0  0  0
   -1.0138  -17.8375    1.3311 H   0  0  0  0  0  0  0  0  0  0  0  0
    0.1807  -16.4959    1.3311 H   0  0  0  0  0  0  0  0  0  0  0  0
   -1.5506  -14.4677    3.8457 H   0  0  0  0  0  0  0  0  0  0  0  0
    1.2785  -15.3296    3.0795 H   0  0  0  0  0  0  0  0  0  0  0  0
    0.8451  -13.7118    3.7455 H   0  0  0  0  0  0  0  0  0  0  0  0
    1.6389  -15.2628    5.5104 H   0  0  0  0  0  0  0  0  0  0  0  0
   -0.1160  -14.7636    5.7237 H   0  0  0  0  0  0  0  0  0  0  0  0
    1.9140  -18.1384    5.4825 H   0  0  0  0  0  0  0  0  0  0  0  0
    0.9038  -18.5049    4.0431 H   0  0  0  0  0  0  0  0  0  0  0  0
    1.9786  -17.0657    4.0431 H   0  0  0  0  0  0  0  0  0  0  0  0
   -1.9131  -16.4391    4.9665 H   0  0  0  0  0  0  0  0  0  0  0  0
   -2.7247  -18.5509    4.3613 H   0  0  0  0  0  0  0  0  0  0  0  0
   -1.0616  -19.0826    3.7819 H   0  0  0  0  0  0  0  0  0  0  0  0
   -1.7679  -20.2202    5.9765 H   0  0  0  0  0  0  0  0  0  0  0  0
   -0.4653  -20.5678    7.7410 H   0  0  0  0  0  0  0  0  0  0  0  0
   -1.6754  -18.5011    9.6401 H   0  0  0  0  0  0  0  0  0  0  0  0
   -2.6298  -19.5593    8.5214 H   0  0  0  0  0  0  0  0  0  0  0  0
   -2.8472  -22.4045   10.5161 H   0  0  0  0  0  0  0  0  0  0  0  0
   -3.3206  -21.4883    9.0453 H   0  0  0  0  0  0  0  0  0  0  0  0
   -1.8183  -22.4730    9.0453 H   0  0  0  0  0  0  0  0  0  0  0  0
   -0.1907  -21.4703   11.4863 H   0  0  0  0  0  0  0  0  0  0  0  0
    0.0577  -21.8320    9.7285 H   0  0  0  0  0  0  0  0  0  0  0  0
    0.4300  -19.0970   11.0269 H   0  0  0  0  0  0  0  0  0  0  0  0
    1.7529  -20.2770   10.6294 H   0  0  0  0  0  0  0  0  0  0  0  0
    2.6422  -20.5654    8.8844 H   0  0  0  0  0  0  0  0  0  0  0  0
    1.5151  -20.8852    7.5228 H   0  0  0  0  0  0  0  0  0  0  0  0
    2.5249  -19.3996    7.5228 H   0  0  0  0  0  0  0  0  0  0  0  0
    0.4449  -17.3395    9.6208 H   0  0  0  0  0  0  0  0  0  0  0  0
    2.2052  -17.7679    9.4319 H   0  0  0  0  0  0  0  0  0  0  0  0
    1.4567  -16.0909    7.7895 H   0  0  0  0  0  0  0  0  0  0  0  0
    2.0080  -17.6753    7.0443 H   0  0  0  0  0  0  0  0  0  0  0  0
   -1.0233  -16.4234    8.6026 H   0  0  0  0  0  0  0  0  0  0  0  0
   -0.9405  -15.2908    7.2109 H   0  0  0  0  0  0  0  0  0  0  0  0
   -2.1405  -16.6274    7.2109 H   0  0  0  0  0  0  0  0  0  0  0  0
    0.8326  -14.5084    1.0997 H   0  0  0  0  0  0  0  0  0  0  0  0
   -0.5310  -15.0913    0.0860 H   0  0  0  0  0  0  0  0  0  0  0  0
   -0.0924  -13.3493    0.0860 H   0  0  0  0  0  0  0  0  0  0  0  0
  1  2  1  0
  2  3  2  0
  2  4  1  0
  4  5  1  0
  5  6  1  0
  6  7  1  0
  7  8  1  0
  8  9  1  6
  8 10  1  0
 10 11  1  0
 11 12  1  0
 12 13  1  0
 13 14  1  6
 13 15  1  0
 15 16  1  0
 16 17  1  0
 17 18  2  0
 18 19  1  0
 19 20  1  0
 20 21  1  0
 21 22  1  6
 21 23  1  0
 23 24  2  0
 23 25  1  0
 21 26  1  0
 26 27  1  0
 27 28  1  0
 28 29  1  6
 28 30  1  0
 30 31  1  0
 31 32  1  0
 32 33  1  1
 10 34  1  0
 34 35  1  6
 34 36  1  0
 36 37  2  0
 36 38  1  0
 34  5  1  0
 15  8  1  0
 32 18  1  0
 32 13  1  0
 28 19  1  0
  1 39  1  0
  1 40  1  0
  1 41  1  0
  5 42  1  6
  6 43  1  0
  6 44  1  0
  7 45  1  0
  7 46  1  0
  9 47  1  0
  9 48  1  0
  9 49  1  0
 10 50  1  1
 11 51  1  0
 11 52  1  0
 12 53  1  0
 12 54  1  0
 14 55  1  0
 14 56  1  0
 14 57  1  0
 15 58  1  1
 16 59  1  0
 16 60  1  0
 17 61  1  0
 19 62  1  6
 20 63  1  0
 20 64  1  0
 22 65  1  0
 22 66  1  0
 22 67  1  0
 26 68  1  0
 26 69  1  0
 27 70  1  0
 27 71  1  0
 29 72  1  0
 29 73  1  0
 29 74  1  0
 30 75  1  0
 30 76  1  0
 31 77  1  0
 31 78  1  0
 33 79  1  0
 33 80  1  0
 33 81  1  0
 35 82  1  0
 35 83  1  0
 35 84  1  0
M  CHG  2  25  -1  38  -1
M  END
>  <meeko>  (7) 
{"is_sidechain": [false], "free_energy": -7.643, "intermolecular_energy": -9.516, "internal_energy": -0.465}

$$$$
LIB_UFBADNGLONOAHT__M_PUB_ALL__e8__s20260927
     RDKit          3D

 84 88  0  0  0  0  0  0  0  0999 V2000
   11.7590  -11.4860    0.5460 C   0  0  0  0  0  0  0  0  0  0  0  0
   11.8460  -11.8070   -0.9150 C   0  0  0  0  0  0  0  0  0  0  0  0
   12.6920  -11.3420   -1.6690 O   0  0  0  0  0  0  0  0  0  0  0  0
   10.8320  -12.6400   -1.2540 O   0  0  0  0  0  0  0  0  0  0  0  0
   10.7140  -13.0210   -2.6470 C   0  0  2  0  0  0  0  0  0  0  0  0
    9.5300  -12.2270   -3.2180 C   0  0  0  0  0  0  0  0  0  0  0  0
    8.1990  -12.5980   -2.5460 C   0  0  0  0  0  0  0  0  0  0  0  0
    7.8580  -14.1180   -2.6100 C   0  0  1  0  0  0  0  0  0  0  0  0
    7.4810  -14.4330   -4.0830 C   0  0  0  0  0  0  0  0  0  0  0  0
    9.1090  -14.9260   -2.0890 C   0  0  1  0  0  0  0  0  0  0  0  0
    8.7910  -16.4350   -2.0500 C   0  0  0  0  0  0  0  0  0  0  0  0
    7.6670  -16.7160   -1.0430 C   0  0  0  0  0  0  0  0  0  0  0  0
    6.3410  -15.9460   -1.3140 C   0  0  2  0  0  0  0  0  0  0  0  0
    5.6700  -16.6180   -2.5520 C   0  0  0  0  0  0  0  0  0  0  0  0
    6.6590  -14.4260   -1.6020 C   0  0  2  0  0  0  0  0  0  0  0  0
    5.3670  -13.6270   -1.8780 C   0  0  0  0  0  0  0  0  0  0  0  0
    4.1680  -14.0620   -1.0910 C   0  0  0  0  0  0  0  0  0  0  0  0
    4.1000  -15.1260   -0.2630 C   0  0  0  0  0  0  0  0  0  0  0  0
    2.7720  -15.4070    0.4490 C   0  0  2  0  0  0  0  0  0  0  0  0
    2.5860  -14.5900    1.7470 C   0  0  0  0  0  0  0  0  0  0  0  0
    1.1060  -14.6020    2.2230 C   0  0  2  0  0  0  0  0  0  0  0  0
    0.3360  -13.4020    1.6470 C   0  0  0  0  0  0  0  0  0  0  0  0
    1.1280  -14.3700    3.7670 C   0  0  0  0  0  0  0  0  0  0  0  0
    2.1430  -14.8070    4.3820 O   0  0  0  0  0  0  0  0  0  0  0  0
    0.1200  -13.7740    4.2470 O   0  0  0  0  0  0  0  0  0  0  0  0
    0.3840  -15.9020    1.8020 C   0  0  0  0  0  0  0  0  0  0  0  0
    1.3440  -17.0900    1.7650 C   0  0  0  0  0  0  0  0  0  0  0  0
    2.4550  -16.9140    0.6870 C   0  0  1  0  0  0  0  0  0  0  0  0
    1.9470  -17.5360   -0.6370 C   0  0  0  0  0  0  0  0  0  0  0  0
    3.7100  -17.6690    1.1730 C   0  0  0  0  0  0  0  0  0  0  0  0
    4.9010  -17.5070    0.2300 C   0  0  0  0  0  0  0  0  0  0  0  0
    5.3250  -16.0310   -0.0300 C   0  0  1  0  0  0  0  0  0  0  0  0
    5.9960  -15.5170    1.2780 C   0  0  0  0  0  0  0  0  0  0  0  0
   10.4810  -14.5540   -2.7420 C   0  0  1  0  0  0  0  0  0  0  0  0
   10.6340  -15.0600   -4.1880 C   0  0  0  0  0  0  0  0  0  0  0  0
   11.7480  -15.1060   -1.9990 C   0  0  0  0  0  0  0  0  0  0  0  0
   11.5360  -15.6670   -0.8820 O   0  0  0  0  0  0  0  0  0  0  0  0
   12.8580  -14.9480   -2.5810 O   0  0  0  0  0  0  0  0  0  0  0  0
   12.0022  -12.3835    1.1337 H   0  0  0  0  0  0  0  0  0  0  0  0
   12.4723  -10.6845    0.7884 H   0  0  0  0  0  0  0  0  0  0  0  0
   10.7386  -11.1544    0.7884 H   0  0  0  0  0  0  0  0  0  0  0  0
   11.6254  -12.7965   -3.2206 H   0  0  0  0  0  0  0  0  0  0  0  0
    9.7168  -11.1540   -3.0639 H   0  0  0  0  0  0  0  0  0  0  0  0
    9.4461  -12.4714   -4.2872 H   0  0  0  0  0  0  0  0  0  0  0  0
    8.2504  -12.2993   -1.4886 H   0  0  0  0  0  0  0  0  0  0  0  0
    7.4065  -12.0707   -3.0972 H   0  0  0  0  0  0  0  0  0  0  0  0
    6.6370  -15.1382   -4.1027 H   0  0  0  0  0  0  0  0  0  0  0  0
    7.1936  -13.5028   -4.5949 H   0  0  0  0  0  0  0  0  0  0  0  0
    8.3453  -14.8812   -4.5949 H   0  0  0  0  0  0  0  0  0  0  0  0
    9.2839  -14.5988   -1.0535 H   0  0  0  0  0  0  0  0  0  0  0  0
    8.4733  -16.7650   -3.0501 H   0  0  0  0  0  0  0  0  0  0  0  0
    9.6934  -16.9833   -1.7417 H   0  0  0  0  0  0  0  0  0  0  0  0
    7.4480  -17.7937   -1.0664 H   0  0  0  0  0  0  0  0  0  0  0  0
    8.0328  -16.3690   -0.0654 H   0  0  0  0  0  0  0  0  0  0  0  0
    4.9309  -17.3582   -2.2117 H   0  0  0  0  0  0  0  0  0  0  0  0
    5.1675  -15.8502   -3.1585 H   0  0  0  0  0  0  0  0  0  0  0  0
    6.4386  -17.1194   -3.1585 H   0  0  0  0  0  0  0  0  0  0  0  0
    7.0887  -14.0489   -0.6623 H   0  0  0  0  0  0  0  0  0  0  0  0
    5.5634  -12.5705   -1.6431 H   0  0  0  0  0  0  0  0  0  0  0  0
    5.1189  -13.8030   -2.9351 H   0  0  0  0  0  0  0  0  0  0  0  0
    3.2561  -13.4563   -1.1984 H   0  0  0  0  0  0  0  0  0  0  0  0
    2.0251  -15.0560   -0.2783 H   0  0  0  0  0  0  0  0  0  0  0  0
    3.2183  -15.0238    2.5357 H   0  0  0  0  0  0  0  0  0  0  0  0
    2.8734  -13.5481    1.5422 H   0  0  0  0  0  0  0  0  0  0  0  0
   -0.0574  -12.7889    2.4712 H   0  0  0  0  0  0  0  0  0  0  0  0
    1.0132  -12.7943    1.0289 H   0  0  0  0  0  0  0  0  0  0  0  0
   -0.4986  -13.7644    1.0289 H   0  0  0  0  0  0  0  0  0  0  0  0
   -0.4193  -16.1141    2.5230 H   0  0  0  0  0  0  0  0  0  0  0  0
   -0.0247  -15.7574    0.7910 H   0  0  0  0  0  0  0  0  0  0  0  0
    1.8201  -17.1918    2.7514 H   0  0  0  0  0  0  0  0  0  0  0  0
    0.7620  -17.9872    1.5075 H   0  0  0  0  0  0  0  0  0  0  0  0
    1.2658  -18.3701   -0.4126 H   0  0  0  0  0  0  0  0  0  0  0  0
    1.4115  -16.7718   -1.2194 H   0  0  0  0  0  0  0  0  0  0  0  0
    2.8028  -17.9080   -1.2194 H   0  0  0  0  0  0  0  0  0  0  0  0
    3.9911  -17.2823    2.1637 H   0  0  0  0  0  0  0  0  0  0  0  0
    3.4592  -18.7394    1.2087 H   0  0  0  0  0  0  0  0  0  0  0  0
    5.7592  -18.0389    0.6665 H   0  0  0  0  0  0  0  0  0  0  0  0
    4.5881  -17.9176   -0.7414 H   0  0  0  0  0  0  0  0  0  0  0  0
    5.4625  -15.9257    2.1488 H   0  0  0  0  0  0  0  0  0  0  0  0
    7.0459  -15.8441    1.3045 H   0  0  0  0  0  0  0  0  0  0  0  0
    5.9536  -14.4181    1.3045 H   0  0  0  0  0  0  0  0  0  0  0  0
   10.9524  -16.1129   -4.1763 H   0  0  0  0  0  0  0  0  0  0  0  0
    9.6698  -14.9743   -4.7104 H   0  0  0  0  0  0  0  0  0  0  0  0
   11.3892  -14.4544   -4.7104 H   0  0  0  0  0  0  0  0  0  0  0  0
  1  2  1  0
  2  3  2  0
  2  4  1  0
  4  5  1  0
  5  6  1  0
  6  7  1  0
  7  8  1  0
  8  9  1  6
  8 10  1  0
 10 11  1  0
 11 12  1  0
 12 13  1  0
 13 14  1  6
 13 15  1  0
 15 16  1  0
 16 17  1  0
 17 18  2  0
 18 19  1  0
 19 20  1  0
 20 21  1  0
 21 22  1  6
 21 23  1  0
 23 24  2  0
 23 25  1  0
 21 26  1  0
 26 27  1  0
 27 28  1  0
 28 29  1  6
 28 30  1  0
 30 31  1  0
 31 32  1  0
 32 33  1  1
 10 34  1  0
 34 35  1  6
 34 36  1  0
 36 37  2  0
 36 38  1  0
 34  5  1  0
 15  8  1  0
 32 18  1  0
 32 13  1  0
 28 19  1  0
  1 39  1  0
  1 40  1  0
  1 41  1  0
  5 42  1  6
  6 43  1  0
  6 44  1  0
  7 45  1  0
  7 46  1  0
  9 47  1  0
  9 48  1  0
  9 49  1  0
 10 50  1  1
 11 51  1  0
 11 52  1  0
 12 53  1  0
 12 54  1  0
 14 55  1  0
 14 56  1  0
 14 57  1  0
 15 58  1  1
 16 59  1  0
 16 60  1  0
 17 61  1  0
 19 62  1  6
 20 63  1  0
 20 64  1  0
 22 65  1  0
 22 66  1  0
 22 67  1  0
 26 68  1  0
 26 69  1  0
 27 70  1  0
 27 71  1  0
 29 72  1  0
 29 73  1  0
 29 74  1  0
 30 75  1  0
 30 76  1  0
 31 77  1  0
 31 78  1  0
 33 79  1  0
 33 80  1  0
 33 81  1  0
 35 82  1  0
 35 83  1  0
 35 84  1  0
M  CHG  2  25  -1  38  -1
M  END
>  <meeko>  (8) 
{"is_sidechain": [false], "free_energy": -7.604, "intermolecular_energy": -9.496, "internal_energy": -0.436}

$$$$
LIB_UFBADNGLONOAHT__M_PUB_ALL__e8__s20260927
     RDKit          3D

 84 88  0  0  0  0  0  0  0  0999 V2000
   10.7130  -12.5620   -1.1090 C   0  0  0  0  0  0  0  0  0  0  0  0
    9.5090  -12.6020   -0.2170 C   0  0  0  0  0  0  0  0  0  0  0  0
    9.5290  -12.3080    0.9730 O   0  0  0  0  0  0  0  0  0  0  0  0
    8.4410  -13.0480   -0.9210 O   0  0  0  0  0  0  0  0  0  0  0  0
    7.8880  -12.1670   -1.9300 C   0  0  2  0  0  0  0  0  0  0  0  0
    6.9800  -11.1730   -1.1930 C   0  0  0  0  0  0  0  0  0  0  0  0
    5.7890  -11.8640   -0.5110 C   0  0  0  0  0  0  0  0  0  0  0  0
    4.9120  -12.7170   -1.4760 C   0  0  1  0  0  0  0  0  0  0  0  0
    4.1320  -11.7200   -2.3750 C   0  0  0  0  0  0  0  0  0  0  0  0
    5.8650  -13.6840   -2.2820 C   0  0  1  0  0  0  0  0  0  0  0  0
    5.0360  -14.6140   -3.1910 C   0  0  0  0  0  0  0  0  0  0  0  0
    4.1390  -15.5270   -2.3430 C   0  0  0  0  0  0  0  0  0  0  0  0
    3.1600  -14.7770   -1.3920 C   0  0  2  0  0  0  0  0  0  0  0  0
    2.0350  -14.1690   -2.2860 C   0  0  0  0  0  0  0  0  0  0  0  0
    3.9380  -13.6430   -0.6160 C   0  0  2  0  0  0  0  0  0  0  0  0
    2.9990  -12.8730    0.3390 C   0  0  0  0  0  0  0  0  0  0  0  0
    1.9290  -13.7010    0.9850 C   0  0  0  0  0  0  0  0  0  0  0  0
    1.6630  -14.9990    0.7310 C   0  0  0  0  0  0  0  0  0  0  0  0
    0.5160  -15.6680    1.4980 C   0  0  2  0  0  0  0  0  0  0  0  0
    0.9320  -16.1920    2.8910 C   0  0  0  0  0  0  0  0  0  0  0  0
   -0.3060  -16.5030    3.7780 C   0  0  2  0  0  0  0  0  0  0  0  0
   -0.6930  -15.2780    4.6250 C   0  0  0  0  0  0  0  0  0  0  0  0
    0.1380  -17.5880    4.8090 C   0  0  0  0  0  0  0  0  0  0  0  0
    1.1300  -17.2920    5.5360 O   0  0  0  0  0  0  0  0  0  0  0  0
   -0.5360  -18.6580    4.8040 O   0  0  0  0  0  0  0  0  0  0  0  0
   -1.5270  -16.9200    2.9260 C   0  0  0  0  0  0  0  0  0  0  0  0
   -1.0990  -17.6600    1.6590 C   0  0  0  0  0  0  0  0  0  0  0  0
   -0.2680  -16.7550    0.7020 C   0  0  1  0  0  0  0  0  0  0  0  0
   -1.2460  -16.0550   -0.2740 C   0  0  0  0  0  0  0  0  0  0  0  0
    0.7000  -17.6620   -0.0860 C   0  0  0  0  0  0  0  0  0  0  0  0
    1.6290  -16.8760   -1.0100 C   0  0  0  0  0  0  0  0  0  0  0  0
    2.4930  -15.7950   -0.2940 C   0  0  1  0  0  0  0  0  0  0  0  0
    3.5760  -16.5560    0.5280 C   0  0  0  0  0  0  0  0  0  0  0  0
    7.0980  -13.0100   -2.9690 C   0  0  1  0  0  0  0  0  0  0  0  0
    6.7320  -12.1770   -4.2120 C   0  0  0  0  0  0  0  0  0  0  0  0
    8.2070  -13.9990   -3.4730 C   0  0  0  0  0  0  0  0  0  0  0  0
    9.1200  -13.4900   -4.1900 O   0  0  0  0  0  0  0  0  0  0  0  0
    8.0930  -15.2050   -3.1150 O   0  0  0  0  0  0  0  0  0  0  0  0
   11.6243  -12.5317   -0.4937 H   0  0  0  0  0  0  0  0  0  0  0  0
   10.7289  -13.4601   -1.7439 H   0  0  0  0  0  0  0  0  0  0  0  0
   10.6693  -11.6648   -1.7439 H   0  0  0  0  0  0  0  0  0  0  0  0
    8.6679  -11.6211   -2.4812 H   0  0  0  0  0  0  0  0  0  0  0  0
    7.5736  -10.6534   -0.4264 H   0  0  0  0  0  0  0  0  0  0  0  0
    6.5789  -10.4691   -1.9370 H   0  0  0  0  0  0  0  0  0  0  0  0
    6.1780  -12.5248    0.2777 H   0  0  0  0  0  0  0  0  0  0  0  0
    5.1428  -11.0664   -0.1157 H   0  0  0  0  0  0  0  0  0  0  0  0
    3.5778  -11.0116   -1.7418 H   0  0  0  0  0  0  0  0  0  0  0  0
    4.8402  -11.1676   -3.0101 H   0  0  0  0  0  0  0  0  0  0  0  0
    3.4254  -12.2744   -3.0101 H   0  0  0  0  0  0  0  0  0  0  0  0
    6.3716  -14.3163   -1.5380 H   0  0  0  0  0  0  0  0  0  0  0  0
    4.4073  -14.0045   -3.8568 H   0  0  0  0  0  0  0  0  0  0  0  0
    5.7208  -15.2370   -3.7852 H   0  0  0  0  0  0  0  0  0  0  0  0
    3.5431  -16.1512   -3.0251 H   0  0  0  0  0  0  0  0  0  0  0  0
    4.8119  -16.1111   -1.6980 H   0  0  0  0  0  0  0  0  0  0  0  0
    1.2479  -13.7436   -1.6461 H   0  0  0  0  0  0  0  0  0  0  0  0
    2.4590  -13.3772   -2.9211 H   0  0  0  0  0  0  0  0  0  0  0  0
    1.6050  -14.9575   -2.9211 H   0  0  0  0  0  0  0  0  0  0  0  0
    4.6715  -14.1828    0.0010 H   0  0  0  0  0  0  0  0  0  0  0  0
    3.6135  -12.4287    1.1359 H   0  0  0  0  0  0  0  0  0  0  0  0
    2.4774  -12.1279   -0.2798 H   0  0  0  0  0  0  0  0  0  0  0  0
    1.3008  -13.2026    1.7380 H   0  0  0  0  0  0  0  0  0  0  0  0
   -0.1930  -14.8406    1.6488 H   0  0  0  0  0  0  0  0  0  0  0  0
    1.5212  -17.1123    2.7650 H   0  0  0  0  0  0  0  0  0  0  0  0
    1.5252  -15.4112    3.3895 H   0  0  0  0  0  0  0  0  0  0  0  0
   -0.6132  -15.5304    5.6927 H   0  0  0  0  0  0  0  0  0  0  0  0
   -0.0148  -14.4434    4.3939 H   0  0  0  0  0  0  0  0  0  0  0  0
   -1.7276  -14.9845    4.3939 H   0  0  0  0  0  0  0  0  0  0  0  0
   -2.1721  -17.5798    3.5247 H   0  0  0  0  0  0  0  0  0  0  0  0
   -2.0674  -16.0094    2.6281 H   0  0  0  0  0  0  0  0  0  0  0  0
   -0.4876  -18.5284    1.9453 H   0  0  0  0  0  0  0  0  0  0  0  0
   -2.0093  -17.9702    1.1251 H   0  0  0  0  0  0  0  0  0  0  0  0
   -2.0089  -15.5089    0.3002 H   0  0  0  0  0  0  0  0  0  0  0  0
   -0.6891  -15.3491   -0.9077 H   0  0  0  0  0  0  0  0  0  0  0  0
   -1.7346  -16.8098   -0.9077 H   0  0  0  0  0  0  0  0  0  0  0  0
    1.3135  -18.2276    0.6307 H   0  0  0  0  0  0  0  0  0  0  0  0
    0.0913  -18.3269   -0.7164 H   0  0  0  0  0  0  0  0  0  0  0  0
    2.3083  -17.5886   -1.5006 H   0  0  0  0  0  0  0  0  0  0  0  0
    0.9821  -16.3387   -1.7191 H   0  0  0  0  0  0  0  0  0  0  0  0
    3.3832  -16.4205    1.6025 H   0  0  0  0  0  0  0  0  0  0  0  0
    3.5383  -17.6272    0.2809 H   0  0  0  0  0  0  0  0  0  0  0  0
    4.5711  -16.1575    0.2809 H   0  0  0  0  0  0  0  0  0  0  0  0
    6.3082  -11.2126   -3.8953 H   0  0  0  0  0  0  0  0  0  0  0  0
    7.6355  -12.0005   -4.8142 H   0  0  0  0  0  0  0  0  0  0  0  0
    5.9909  -12.7231   -4.8142 H   0  0  0  0  0  0  0  0  0  0  0  0
  1  2  1  0
  2  3  2  0
  2  4  1  0
  4  5  1  0
  5  6  1  0
  6  7  1  0
  7  8  1  0
  8  9  1  6
  8 10  1  0
 10 11  1  0
 11 12  1  0
 12 13  1  0
 13 14  1  6
 13 15  1  0
 15 16  1  0
 16 17  1  0
 17 18  2  0
 18 19  1  0
 19 20  1  0
 20 21  1  0
 21 22  1  1
 21 23  1  0
 23 24  2  0
 23 25  1  0
 21 26  1  0
 26 27  1  0
 27 28  1  0
 28 29  1  6
 28 30  1  0
 30 31  1  0
 31 32  1  0
 32 33  1  1
 10 34  1  0
 34 35  1  6
 34 36  1  0
 36 37  2  0
 36 38  1  0
 34  5  1  0
 15  8  1  0
 32 18  1  0
 32 13  1  0
 28 19  1  0
  1 39  1  0
  1 40  1  0
  1 41  1  0
  5 42  1  6
  6 43  1  0
  6 44  1  0
  7 45  1  0
  7 46  1  0
  9 47  1  0
  9 48  1  0
  9 49  1  0
 10 50  1  1
 11 51  1  0
 11 52  1  0
 12 53  1  0
 12 54  1  0
 14 55  1  0
 14 56  1  0
 14 57  1  0
 15 58  1  1
 16 59  1  0
 16 60  1  0
 17 61  1  0
 19 62  1  1
 20 63  1  0
 20 64  1  0
 22 65  1  0
 22 66  1  0
 22 67  1  0
 26 68  1  0
 26 69  1  0
 27 70  1  0
 27 71  1  0
 29 72  1  0
 29 73  1  0
 29 74  1  0
 30 75  1  0
 30 76  1  0
 31 77  1  0
 31 78  1  0
 33 79  1  0
 33 80  1  0
 33 81  1  0
 35 82  1  0
 35 83  1  0
 35 84  1  0
M  CHG  2  25  -1  38  -1
M  END
>  <meeko>  (9) 
{"is_sidechain": [false], "free_energy": -7.59, "intermolecular_energy": -9.391, "internal_energy": -0.523}

$$$$
