LIB_UXMLFMZVVWDUFA__M_PUB_ALL__e8__s20260927
     RDKit          3D

 78 83  0  0  0  0  0  0  0  0999 V2000
    4.5100  -14.1800   -3.2080 C   0  0  0  0  0  0  0  0  0  0  0  0
    4.0800  -13.6420   -2.0500 C   0  0  0  0  0  0  0  0  0  0  0  0
    4.6010  -12.3340   -1.4600 C   0  0  2  0  0  0  0  0  0  0  0  0
    5.5520  -11.4680   -2.3160 C   0  0  0  0  0  0  0  0  0  0  0  0
    6.9890  -11.7410   -1.8230 C   0  0  2  0  0  0  0  0  0  0  0  0
    7.4800  -10.5170   -1.2650 O   0  0  0  0  0  0  0  0  0  0  0  0
    7.9030  -12.2120   -2.9160 C   0  0  1  0  0  0  0  0  0  0  0  0
    8.9610  -11.3160   -3.2540 O   0  0  0  0  0  0  0  0  0  0  0  0
    9.3640  -12.5750   -2.6580 C   0  0  2  0  0  0  0  0  0  0  0  0
    9.9360  -13.6190   -3.5260 C   0  0  0  0  0  0  0  0  0  0  0  0
   11.1710  -13.5970   -4.0410 C   0  0  0  0  0  0  0  0  0  0  0  0
   12.1600  -12.5210   -3.7820 C   0  0  0  0  0  0  0  0  0  0  0  0
   13.0100  -12.2330   -4.6170 O   0  0  0  0  0  0  0  0  0  0  0  0
   12.1050  -11.9050   -2.5790 O   0  0  0  0  0  0  0  0  0  0  0  0
   11.5730  -12.4760   -1.3380 C   0  0  0  0  0  0  0  0  0  0  0  0
   12.1540  -11.5300   -0.2570 C   0  0  0  0  0  0  0  0  0  0  0  0
   12.1980  -13.8600   -1.0720 C   0  0  0  0  0  0  0  0  0  0  0  0
   10.0040  -12.3780   -1.2810 C   0  0  2  0  0  0  0  0  0  0  0  0
    9.3520  -13.2750   -0.1790 C   0  0  2  0  0  0  0  0  0  0  0  0
    9.2620  -14.6390   -0.5940 O   0  0  0  0  0  0  0  0  0  0  0  0
    7.9770  -12.7970    0.3210 C   0  0  0  0  0  0  0  0  0  0  0  0
    6.8560  -12.8170   -0.7280 C   0  0  1  0  0  0  0  0  0  0  0  0
    5.4170  -12.6290   -0.1640 C   0  0  1  0  0  0  0  0  0  0  0  0
    5.2870  -11.4400    0.8140 C   0  0  0  0  0  0  0  0  0  0  0  0
    4.9300  -13.9160    0.5540 C   0  0  0  0  0  0  0  0  0  0  0  0
    3.4260  -14.1200    0.3510 C   0  0  0  0  0  0  0  0  0  0  0  0
    3.0610  -14.3670   -1.1400 C   0  0  2  0  0  0  0  0  0  0  0  0
    3.2200  -15.7730   -1.3690 O   0  0  0  0  0  0  0  0  0  0  0  0
    1.5740  -13.9400   -1.4480 C   0  0  1  0  0  0  0  0  0  0  0  0
    0.6040  -15.1300   -1.3080 C   0  0  0  0  0  0  0  0  0  0  0  0
    1.1070  -12.7370   -0.5750 C   0  0  1  0  0  0  0  0  0  0  0  0
    1.1690  -11.3800   -1.2800 C   0  0  0  0  0  0  0  0  0  0  0  0
    0.6190  -10.3400   -0.3580 C   0  0  0  0  0  0  0  0  0  0  0  0
   -0.2980  -10.6470    0.5750 C   0  0  0  0  0  0  0  0  0  0  0  0
   -0.8840   -9.6420    1.5180 C   0  0  0  0  0  0  0  0  0  0  0  0
   -0.8400  -12.0300    0.6680 C   0  0  0  0  0  0  0  0  0  0  0  0
   -1.8040  -12.3020    1.3730 O   0  0  0  0  0  0  0  0  0  0  0  0
   -0.2310  -12.9810   -0.0910 O   0  0  0  0  0  0  0  0  0  0  0  0
    4.0830  -15.1285   -3.5658 H   0  0  0  0  0  0  0  0  0  0  0  0
    5.2881  -13.6708   -3.7956 H   0  0  0  0  0  0  0  0  0  0  0  0
    3.6678  -11.7659   -1.3318 H   0  0  0  0  0  0  0  0  0  0  0  0
    5.4593  -11.7431   -3.3770 H   0  0  0  0  0  0  0  0  0  0  0  0
    5.3023  -10.4012   -2.2176 H   0  0  0  0  0  0  0  0  0  0  0  0
    7.5000  -10.6490   -0.2970 H   0  0  0  0  0  0  0  0  0  0  0  0
    7.0799  -12.7442   -3.4152 H   0  0  0  0  0  0  0  0  0  0  0  0
    9.2994  -14.4824   -3.7693 H   0  0  0  0  0  0  0  0  0  0  0  0
   11.4717  -14.4275   -4.6966 H   0  0  0  0  0  0  0  0  0  0  0  0
   11.9128  -11.9227    0.7418 H   0  0  0  0  0  0  0  0  0  0  0  0
   13.2461  -11.4679   -0.3727 H   0  0  0  0  0  0  0  0  0  0  0  0
   11.7155  -10.5278   -0.3727 H   0  0  0  0  0  0  0  0  0  0  0  0
   12.2730  -14.0261    0.0128 H   0  0  0  0  0  0  0  0  0  0  0  0
   11.5649  -14.6404   -1.5195 H   0  0  0  0  0  0  0  0  0  0  0  0
   13.2020  -13.9011   -1.5195 H   0  0  0  0  0  0  0  0  0  0  0  0
    9.7849  -11.3460   -0.9697 H   0  0  0  0  0  0  0  0  0  0  0  0
   10.0391  -13.1852    0.6753 H   0  0  0  0  0  0  0  0  0  0  0  0
    9.6590  -15.1910    0.1050 H   0  0  0  0  0  0  0  0  0  0  0  0
    7.6738  -13.4466    1.1553 H   0  0  0  0  0  0  0  0  0  0  0  0
    8.1066  -11.7432    0.6087 H   0  0  0  0  0  0  0  0  0  0  0  0
    6.9873  -13.8302   -1.1357 H   0  0  0  0  0  0  0  0  0  0  0  0
    5.3275  -11.8104    1.8490 H   0  0  0  0  0  0  0  0  0  0  0  0
    6.1133  -10.7339    0.6447 H   0  0  0  0  0  0  0  0  0  0  0  0
    4.3276  -10.9291    0.6447 H   0  0  0  0  0  0  0  0  0  0  0  0
    5.4694  -14.7828    0.1444 H   0  0  0  0  0  0  0  0  0  0  0  0
    5.1282  -13.8136    1.6311 H   0  0  0  0  0  0  0  0  0  0  0  0
    3.1037  -14.9893    0.9430 H   0  0  0  0  0  0  0  0  0  0  0  0
    2.9146  -13.2017    0.6754 H   0  0  0  0  0  0  0  0  0  0  0  0
    2.8120  -16.2490   -0.6210 H   0  0  0  0  0  0  0  0  0  0  0  0
    1.5570  -13.6052   -2.4957 H   0  0  0  0  0  0  0  0  0  0  0  0
    0.4328  -15.3400   -0.2419 H   0  0  0  0  0  0  0  0  0  0  0  0
   -0.3526  -14.8821   -1.7911 H   0  0  0  0  0  0  0  0  0  0  0  0
    1.0397  -16.0170   -1.7911 H   0  0  0  0  0  0  0  0  0  0  0  0
    1.8208  -12.6707    0.2594 H   0  0  0  0  0  0  0  0  0  0  0  0
    2.2128  -11.1393   -1.5301 H   0  0  0  0  0  0  0  0  0  0  0  0
    0.5791  -11.4105   -2.2079 H   0  0  0  0  0  0  0  0  0  0  0  0
    0.9722   -9.3019   -0.4450 H   0  0  0  0  0  0  0  0  0  0  0  0
   -0.6985   -9.9601    2.5545 H   0  0  0  0  0  0  0  0  0  0  0  0
   -0.4161   -8.6615    1.3461 H   0  0  0  0  0  0  0  0  0  0  0  0
   -1.9678   -9.5663    1.3461 H   0  0  0  0  0  0  0  0  0  0  0  0
  1  2  2  0
  2  3  1  0
  3  4  1  0
  4  5  1  0
  5  6  1  1
  5  7  1  0
  7  8  1  0
  9  8  1  6
  9 10  1  0
 10 11  2  0
 11 12  1  0
 12 13  2  0
 12 14  1  0
 14 15  1  0
 15 16  1  0
 15 17  1  0
 15 18  1  0
 18 19  1  0
 19 20  1  0
 19 21  1  0
 21 22  1  0
 22 23  1  0
 23 24  1  1
 23 25  1  0
 25 26  1  0
 26 27  1  0
 27 28  1  6
 27 29  1  0
 29 30  1  0
 29 31  1  0
 31 32  1  0
 32 33  1  0
 33 34  2  0
 34 35  1  0
 34 36  1  0
 36 37  2  0
 36 38  1  0
 27  2  1  0
 38 31  1  0
 23  3  1  0
 22  5  1  0
  9  7  1  0
 18  9  1  0
  1 39  1  0
  1 40  1  0
  3 41  1  1
  4 42  1  0
  4 43  1  0
  6 44  1  0
  7 45  1  6
 10 46  1  0
 11 47  1  0
 16 48  1  0
 16 49  1  0
 16 50  1  0
 17 51  1  0
 17 52  1  0
 17 53  1  0
 18 54  1  1
 19 55  1  1
 20 56  1  0
 21 57  1  0
 21 58  1  0
 22 59  1  6
 24 60  1  0
 24 61  1  0
 24 62  1  0
 25 63  1  0
 25 64  1  0
 26 65  1  0
 26 66  1  0
 28 67  1  0
 29 68  1  6
 30 69  1  0
 30 70  1  0
 30 71  1  0
 31 72  1  1
 32 73  1  0
 32 74  1  0
 33 75  1  0
 35 76  1  0
 35 77  1  0
 35 78  1  0
M  END
>  <meeko>  (1) 
{"is_sidechain": [false], "free_energy": -6.502, "intermolecular_energy": -10.873, "internal_energy": 1.98}

$$$$
LIB_UXMLFMZVVWDUFA__M_PUB_ALL__e8__s20260927
     RDKit          3D

 78 83  0  0  0  0  0  0  0  0999 V2000
    5.8800  -14.9180   -2.8910 C   0  0  0  0  0  0  0  0  0  0  0  0
    6.5900  -14.0810   -2.1100 C   0  0  0  0  0  0  0  0  0  0  0  0
    6.4710  -14.0090   -0.5900 C   0  0  2  0  0  0  0  0  0  0  0  0
    5.6200  -15.0780    0.1330 C   0  0  0  0  0  0  0  0  0  0  0  0
    4.2510  -14.4380    0.4450 C   0  0  2  0  0  0  0  0  0  0  0  0
    4.1360  -14.3660    1.8700 O   0  0  0  0  0  0  0  0  0  0  0  0
    3.0990  -15.2140   -0.1250 C   0  0  1  0  0  0  0  0  0  0  0  0
    2.2400  -15.8250    0.8380 O   0  0  0  0  0  0  0  0  0  0  0  0
    1.6480  -14.7650    0.0440 C   0  0  2  0  0  0  0  0  0  0  0  0
    0.7270  -15.1260   -1.0460 C   0  0  0  0  0  0  0  0  0  0  0  0
   -0.5230  -15.5740   -0.8780 C   0  0  0  0  0  0  0  0  0  0  0  0
   -1.1410  -15.7120    0.4520 C   0  0  0  0  0  0  0  0  0  0  0  0
   -1.9480  -16.6150    0.6450 O   0  0  0  0  0  0  0  0  0  0  0  0
   -0.8100  -14.8330    1.4260 O   0  0  0  0  0  0  0  0  0  0  0  0
   -0.2520  -13.4930    1.2270 C   0  0  0  0  0  0  0  0  0  0  0  0
   -0.4220  -12.8470    2.6250 C   0  0  0  0  0  0  0  0  0  0  0  0
   -1.1440  -12.6760    0.2710 C   0  0  0  0  0  0  0  0  0  0  0  0
    1.2850  -13.5470    0.8970 C   0  0  2  0  0  0  0  0  0  0  0  0
    1.8790  -12.2190    0.3040 C   0  0  2  0  0  0  0  0  0  0  0  0
    1.5760  -12.0900   -1.0850 O   0  0  0  0  0  0  0  0  0  0  0  0
    3.3880  -12.0010    0.5250 C   0  0  0  0  0  0  0  0  0  0  0  0
    4.3020  -13.0240   -0.1650 C   0  0  1  0  0  0  0  0  0  0  0  0
    5.8160  -12.6560   -0.1770 C   0  0  1  0  0  0  0  0  0  0  0  0
    6.3560  -12.2180    1.2030 C   0  0  0  0  0  0  0  0  0  0  0  0
    6.1050  -11.5280   -1.2020 C   0  0  0  0  0  0  0  0  0  0  0  0
    7.4770  -11.7210   -1.8560 C   0  0  0  0  0  0  0  0  0  0  0  0
    7.5460  -13.0210   -2.7050 C   0  0  2  0  0  0  0  0  0  0  0  0
    7.0430  -12.6850   -4.0050 O   0  0  0  0  0  0  0  0  0  0  0  0
    9.0270  -13.5520   -2.8260 C   0  0  1  0  0  0  0  0  0  0  0  0
    9.4890  -13.6060   -4.2960 C   0  0  0  0  0  0  0  0  0  0  0  0
   10.0280  -12.7290   -1.9600 C   0  0  1  0  0  0  0  0  0  0  0  0
   10.3680  -13.3640   -0.6100 C   0  0  0  0  0  0  0  0  0  0  0  0
   11.3920  -12.5130    0.0710 C   0  0  0  0  0  0  0  0  0  0  0  0
   12.2560  -11.7620   -0.6320 C   0  0  0  0  0  0  0  0  0  0  0  0
   13.3020  -10.8980    0.0010 C   0  0  0  0  0  0  0  0  0  0  0  0
   12.2570  -11.8130   -2.1200 C   0  0  0  0  0  0  0  0  0  0  0  0
   13.1430  -11.2930   -2.7850 O   0  0  0  0  0  0  0  0  0  0  0  0
   11.2350  -12.4900   -2.7120 O   0  0  0  0  0  0  0  0  0  0  0  0
    6.0245  -14.9083   -3.9814 H   0  0  0  0  0  0  0  0  0  0  0  0
    5.1557  -15.6112   -2.4383 H   0  0  0  0  0  0  0  0  0  0  0  0
    7.5161  -14.1603   -0.2819 H   0  0  0  0  0  0  0  0  0  0  0  0
    5.4863  -15.9557   -0.5165 H   0  0  0  0  0  0  0  0  0  0  0  0
    6.1148  -15.4110    1.0573 H   0  0  0  0  0  0  0  0  0  0  0  0
    4.9380  -14.7940    2.2280 H   0  0  0  0  0  0  0  0  0  0  0  0
    3.6915  -15.5033   -1.0055 H   0  0  0  0  0  0  0  0  0  0  0  0
    1.0941  -15.0194   -2.0774 H   0  0  0  0  0  0  0  0  0  0  0  0
   -1.1107  -15.8494   -1.7661 H   0  0  0  0  0  0  0  0  0  0  0  0
   -0.2241  -13.5991    3.4030 H   0  0  0  0  0  0  0  0  0  0  0  0
    0.2873  -12.0131    2.7323 H   0  0  0  0  0  0  0  0  0  0  0  0
   -1.4499  -12.4702    2.7323 H   0  0  0  0  0  0  0  0  0  0  0  0
   -1.8303  -12.0474    0.8573 H   0  0  0  0  0  0  0  0  0  0  0  0
   -0.5124  -12.0366   -0.3632 H   0  0  0  0  0  0  0  0  0  0  0  0
   -1.7257  -13.3612   -0.3632 H   0  0  0  0  0  0  0  0  0  0  0  0
    1.7737  -13.6603    1.8760 H   0  0  0  0  0  0  0  0  0  0  0  0
    1.3787  -11.4304    0.8852 H   0  0  0  0  0  0  0  0  0  0  0  0
    1.4050  -11.1480   -1.2690 H   0  0  0  0  0  0  0  0  0  0  0  0
    3.6472  -11.0017    0.1451 H   0  0  0  0  0  0  0  0  0  0  0  0
    3.5592  -12.1170    1.6054 H   0  0  0  0  0  0  0  0  0  0  0  0
    3.8848  -13.0054   -1.1826 H   0  0  0  0  0  0  0  0  0  0  0  0
    5.7648  -12.6975    1.9971 H   0  0  0  0  0  0  0  0  0  0  0  0
    7.4096  -12.5199    1.2971 H   0  0  0  0  0  0  0  0  0  0  0  0
    6.2780  -11.1248    1.2971 H   0  0  0  0  0  0  0  0  0  0  0  0
    5.3292  -11.5426   -1.9817 H   0  0  0  0  0  0  0  0  0  0  0  0
    6.1006  -10.5634   -0.6732 H   0  0  0  0  0  0  0  0  0  0  0  0
    7.6821  -10.8601   -2.5093 H   0  0  0  0  0  0  0  0  0  0  0  0
    8.2248  -11.8022   -1.0534 H   0  0  0  0  0  0  0  0  0  0  0  0
    7.5620  -13.1800   -4.6660 H   0  0  0  0  0  0  0  0  0  0  0  0
    9.0229  -14.5778   -2.4289 H   0  0  0  0  0  0  0  0  0  0  0  0
   10.5810  -13.7336   -4.3327 H   0  0  0  0  0  0  0  0  0  0  0  0
    9.0036  -14.4535   -4.8020 H   0  0  0  0  0  0  0  0  0  0  0  0
    9.2121  -12.6694   -4.8020 H   0  0  0  0  0  0  0  0  0  0  0  0
    9.5202  -11.7825   -1.7227 H   0  0  0  0  0  0  0  0  0  0  0  0
    9.4620  -13.4226    0.0110 H   0  0  0  0  0  0  0  0  0  0  0  0
   10.7622  -14.3799   -0.7603 H   0  0  0  0  0  0  0  0  0  0  0  0
   11.4387  -12.5018    1.1700 H   0  0  0  0  0  0  0  0  0  0  0  0
   13.2201  -10.9656    1.0959 H   0  0  0  0  0  0  0  0  0  0  0  0
   14.2992  -11.2392   -0.3139 H   0  0  0  0  0  0  0  0  0  0  0  0
   13.1552   -9.8543   -0.3139 H   0  0  0  0  0  0  0  0  0  0  0  0
  1  2  2  0
  2  3  1  0
  3  4  1  0
  4  5  1  0
  5  6  1  1
  5  7  1  0
  7  8  1  0
  9  8  1  1
  9 10  1  0
 10 11  2  0
 11 12  1  0
 12 13  2  0
 12 14  1  0
 14 15  1  0
 15 16  1  0
 15 17  1  0
 15 18  1  0
 18 19  1  0
 19 20  1  0
 19 21  1  0
 21 22  1  0
 22 23  1  0
 23 24  1  1
 23 25  1  0
 25 26  1  0
 26 27  1  0
 27 28  1  6
 27 29  1  0
 29 30  1  0
 29 31  1  0
 31 32  1  0
 32 33  1  0
 33 34  2  0
 34 35  1  0
 34 36  1  0
 36 37  2  0
 36 38  1  0
 27  2  1  0
 38 31  1  0
 23  3  1  0
 22  5  1  0
  9  7  1  0
 18  9  1  0
  1 39  1  0
  1 40  1  0
  3 41  1  1
  4 42  1  0
  4 43  1  0
  6 44  1  0
  7 45  1  6
 10 46  1  0
 11 47  1  0
 16 48  1  0
 16 49  1  0
 16 50  1  0
 17 51  1  0
 17 52  1  0
 17 53  1  0
 18 54  1  1
 19 55  1  1
 20 56  1  0
 21 57  1  0
 21 58  1  0
 22 59  1  6
 24 60  1  0
 24 61  1  0
 24 62  1  0
 25 63  1  0
 25 64  1  0
 26 65  1  0
 26 66  1  0
 28 67  1  0
 29 68  1  1
 30 69  1  0
 30 70  1  0
 30 71  1  0
 31 72  1  1
 32 73  1  0
 32 74  1  0
 33 75  1  0
 35 76  1  0
 35 77  1  0
 35 78  1  0
M  END
>  <meeko>  (2) 
{"is_sidechain": [false], "free_energy": -5.985, "intermolecular_energy": -10.062, "internal_energy": 2.034}

$$$$
LIB_UXMLFMZVVWDUFA__M_PUB_ALL__e8__s20260927
     RDKit          3D

 78 83  0  0  0  0  0  0  0  0999 V2000
    3.4350  -14.3260   -2.6030 C   0  0  0  0  0  0  0  0  0  0  0  0
    3.1590  -13.6300   -1.4830 C   0  0  0  0  0  0  0  0  0  0  0  0
    3.8490  -12.3280   -1.0840 C   0  0  2  0  0  0  0  0  0  0  0  0
    4.7980  -11.6570   -2.1020 C   0  0  0  0  0  0  0  0  0  0  0  0
    6.2410  -12.0220   -1.6920 C   0  0  2  0  0  0  0  0  0  0  0  0
    6.8910  -10.8040   -1.3140 O   0  0  0  0  0  0  0  0  0  0  0  0
    7.0090  -12.6960   -2.7930 C   0  0  1  0  0  0  0  0  0  0  0  0
    8.1010  -11.9440   -3.3210 O   0  0  0  0  0  0  0  0  0  0  0  0
    8.4530  -13.1610   -2.6140 C   0  0  2  0  0  0  0  0  0  0  0  0
    8.8550  -14.3430   -3.3940 C   0  0  0  0  0  0  0  0  0  0  0  0
   10.0320  -14.4910   -4.0130 C   0  0  0  0  0  0  0  0  0  0  0  0
   11.1060  -13.5000   -3.9630 C   0  0  0  0  0  0  0  0  0  0  0  0
   11.8630  -13.3690   -4.9180 O   0  0  0  0  0  0  0  0  0  0  0  0
   11.2330  -12.7510   -2.8440 O   0  0  0  0  0  0  0  0  0  0  0  0
   10.7750  -13.1180   -1.5010 C   0  0  0  0  0  0  0  0  0  0  0  0
   11.5290  -12.1080   -0.6010 C   0  0  0  0  0  0  0  0  0  0  0  0
   11.3070  -14.5120   -1.1140 C   0  0  0  0  0  0  0  0  0  0  0  0
    9.2310  -12.8700   -1.3280 C   0  0  2  0  0  0  0  0  0  0  0  0
    8.5950  -13.5800   -0.0860 C   0  0  2  0  0  0  0  0  0  0  0  0
    8.3620  -14.9600   -0.3710 O   0  0  0  0  0  0  0  0  0  0  0  0
    7.3090  -12.9460    0.4750 C   0  0  0  0  0  0  0  0  0  0  0  0
    6.1040  -12.9600   -0.4770 C   0  0  1  0  0  0  0  0  0  0  0  0
    4.7430  -12.5690    0.1700 C   0  0  1  0  0  0  0  0  0  0  0  0
    4.8100  -11.2780    1.0160 C   0  0  0  0  0  0  0  0  0  0  0  0
    4.2030  -13.7180    1.0630 C   0  0  0  0  0  0  0  0  0  0  0  0
    2.6740  -13.7880    0.9990 C   0  0  0  0  0  0  0  0  0  0  0  0
    2.1600  -14.1490   -0.4220 C   0  0  2  0  0  0  0  0  0  0  0  0
    2.1660  -15.5800   -0.5050 O   0  0  0  0  0  0  0  0  0  0  0  0
    0.6980  -13.6070   -0.6620 C   0  0  1  0  0  0  0  0  0  0  0  0
   -0.3460  -14.7370   -0.5700 C   0  0  0  0  0  0  0  0  0  0  0  0
    0.3330  -12.4340    0.2980 C   0  0  1  0  0  0  0  0  0  0  0  0
    0.6410  -11.0420   -0.2570 C   0  0  0  0  0  0  0  0  0  0  0  0
    0.1680  -10.0230    0.7300 C   0  0  0  0  0  0  0  0  0  0  0  0
   -0.8560  -10.2780    1.5620 C   0  0  0  0  0  0  0  0  0  0  0  0
   -1.3720   -9.2900    2.5610 C   0  0  0  0  0  0  0  0  0  0  0  0
   -1.5920  -11.5690    1.4730 C   0  0  0  0  0  0  0  0  0  0  0  0
   -2.6380  -11.7600    2.0790 O   0  0  0  0  0  0  0  0  0  0  0  0
   -1.0610  -12.5240    0.6630 O   0  0  0  0  0  0  0  0  0  0  0  0
    2.8919  -15.2578   -2.8193 H   0  0  0  0  0  0  0  0  0  0  0  0
    4.2034  -13.9625   -3.3011 H   0  0  0  0  0  0  0  0  0  0  0  0
    2.9879  -11.6571   -0.9485 H   0  0  0  0  0  0  0  0  0  0  0  0
    4.5884  -12.0304   -3.1152 H   0  0  0  0  0  0  0  0  0  0  0  0
    4.6577  -10.5660   -2.1056 H   0  0  0  0  0  0  0  0  0  0  0  0
    7.3100  -10.4580   -2.1260 H   0  0  0  0  0  0  0  0  0  0  0  0
    6.1029  -13.2032   -3.1558 H   0  0  0  0  0  0  0  0  0  0  0  0
    8.1320  -15.1682   -3.4741 H   0  0  0  0  0  0  0  0  0  0  0  0
   10.2013  -15.4105   -4.5925 H   0  0  0  0  0  0  0  0  0  0  0  0
   11.3470  -12.3518    0.4561 H   0  0  0  0  0  0  0  0  0  0  0  0
   12.6075  -12.1647   -0.8099 H   0  0  0  0  0  0  0  0  0  0  0  0
   11.1681  -11.0901   -0.8099 H   0  0  0  0  0  0  0  0  0  0  0  0
   11.3407  -14.6003   -0.0181 H   0  0  0  0  0  0  0  0  0  0  0  0
   10.6409  -15.2855   -1.5239 H   0  0  0  0  0  0  0  0  0  0  0  0
   12.3191  -14.6450   -1.5239 H   0  0  0  0  0  0  0  0  0  0  0  0
    9.1411  -11.7941   -1.1176 H   0  0  0  0  0  0  0  0  0  0  0  0
    9.3443  -13.4523    0.7092 H   0  0  0  0  0  0  0  0  0  0  0  0
    8.8660  -15.4880    0.2750 H   0  0  0  0  0  0  0  0  0  0  0  0
    7.0289  -13.4943    1.3866 H   0  0  0  0  0  0  0  0  0  0  0  0
    7.5441  -11.8865    0.6543 H   0  0  0  0  0  0  0  0  0  0  0  0
    6.1048  -14.0181   -0.7778 H   0  0  0  0  0  0  0  0  0  0  0  0
    4.7965  -11.5387    2.0846 H   0  0  0  0  0  0  0  0  0  0  0  0
    5.7376  -10.7346    0.7829 H   0  0  0  0  0  0  0  0  0  0  0  0
    3.9437  -10.6415    0.7829 H   0  0  0  0  0  0  0  0  0  0  0  0
    4.6221  -14.6731    0.7135 H   0  0  0  0  0  0  0  0  0  0  0  0
    4.5026  -13.5247    2.1036 H   0  0  0  0  0  0  0  0  0  0  0  0
    2.3249  -14.5542    1.7068 H   0  0  0  0  0  0  0  0  0  0  0  0
    2.2802  -12.7939    1.2572 H   0  0  0  0  0  0  0  0  0  0  0  0
    2.1900  -15.8280   -1.4480 H   0  0  0  0  0  0  0  0  0  0  0  0
    0.6792  -13.2056   -1.6860 H   0  0  0  0  0  0  0  0  0  0  0  0
   -0.5524  -14.9604    0.4871 H   0  0  0  0  0  0  0  0  0  0  0  0
   -1.2751  -14.4191   -1.0657 H   0  0  0  0  0  0  0  0  0  0  0  0
    0.0443  -15.6381   -1.0657 H   0  0  0  0  0  0  0  0  0  0  0  0
    0.9782  -12.5498    1.1813 H   0  0  0  0  0  0  0  0  0  0  0  0
    1.7250  -10.9350   -0.4103 H   0  0  0  0  0  0  0  0  0  0  0  0
    0.1306  -10.8988   -1.2208 H   0  0  0  0  0  0  0  0  0  0  0  0
    0.6686   -9.0446    0.7759 H   0  0  0  0  0  0  0  0  0  0  0  0
   -1.1780   -9.6615    3.5780 H   0  0  0  0  0  0  0  0  0  0  0  0
   -0.8625   -8.3254    2.4196 H   0  0  0  0  0  0  0  0  0  0  0  0
   -2.4547   -9.1570    2.4196 H   0  0  0  0  0  0  0  0  0  0  0  0
  1  2  2  0
  2  3  1  0
  3  4  1  0
  4  5  1  0
  5  6  1  1
  5  7  1  0
  7  8  1  0
  9  8  1  6
  9 10  1  0
 10 11  2  0
 11 12  1  0
 12 13  2  0
 12 14  1  0
 14 15  1  0
 15 16  1  0
 15 17  1  0
 15 18  1  0
 18 19  1  0
 19 20  1  0
 19 21  1  0
 21 22  1  0
 22 23  1  0
 23 24  1  1
 23 25  1  0
 25 26  1  0
 26 27  1  0
 27 28  1  1
 27 29  1  0
 29 30  1  0
 29 31  1  0
 31 32  1  0
 32 33  1  0
 33 34  2  0
 34 35  1  0
 34 36  1  0
 36 37  2  0
 36 38  1  0
 27  2  1  0
 38 31  1  0
 23  3  1  0
 22  5  1  0
  9  7  1  0
 18  9  1  0
  1 39  1  0
  1 40  1  0
  3 41  1  1
  4 42  1  0
  4 43  1  0
  6 44  1  0
  7 45  1  6
 10 46  1  0
 11 47  1  0
 16 48  1  0
 16 49  1  0
 16 50  1  0
 17 51  1  0
 17 52  1  0
 17 53  1  0
 18 54  1  1
 19 55  1  1
 20 56  1  0
 21 57  1  0
 21 58  1  0
 22 59  1  6
 24 60  1  0
 24 61  1  0
 24 62  1  0
 25 63  1  0
 25 64  1  0
 26 65  1  0
 26 66  1  0
 28 67  1  0
 29 68  1  6
 30 69  1  0
 30 70  1  0
 30 71  1  0
 31 72  1  1
 32 73  1  0
 32 74  1  0
 33 75  1  0
 35 76  1  0
 35 77  1  0
 35 78  1  0
M  END
>  <meeko>  (3) 
{"is_sidechain": [false], "free_energy": -5.854, "intermolecular_energy": -9.817, "internal_energy": 2.007}

$$$$
LIB_UXMLFMZVVWDUFA__M_PUB_ALL__e8__s20260927
     RDKit          3D

 78 83  0  0  0  0  0  0  0  0999 V2000
   -0.1300  -13.2610    2.6100 C   0  0  0  0  0  0  0  0  0  0  0  0
    0.2520  -14.0080    1.5550 C   0  0  0  0  0  0  0  0  0  0  0  0
   -0.3360  -15.3720    1.2060 C   0  0  2  0  0  0  0  0  0  0  0  0
   -1.5730  -15.8630    1.9910 C   0  0  0  0  0  0  0  0  0  0  0  0
   -1.0700  -16.8570    3.0610 C   0  0  2  0  0  0  0  0  0  0  0  0
   -1.6180  -18.1380    2.7340 O   0  0  0  0  0  0  0  0  0  0  0  0
   -1.4690  -16.4670    4.4550 C   0  0  1  0  0  0  0  0  0  0  0  0
   -2.3800  -17.3570    5.0990 O   0  0  0  0  0  0  0  0  0  0  0  0
   -1.0530  -17.2790    5.6800 C   0  0  2  0  0  0  0  0  0  0  0  0
   -0.8700  -16.5210    6.9290 C   0  0  0  0  0  0  0  0  0  0  0  0
   -1.2660  -16.9290    8.1400 C   0  0  0  0  0  0  0  0  0  0  0  0
   -1.8860  -18.2250    8.4000 C   0  0  0  0  0  0  0  0  0  0  0  0
   -2.6730  -18.3490    9.3320 O   0  0  0  0  0  0  0  0  0  0  0  0
   -1.5400  -19.2710    7.6160 O   0  0  0  0  0  0  0  0  0  0  0  0
   -0.2810  -19.4220    6.8810 C   0  0  0  0  0  0  0  0  0  0  0  0
   -0.2810  -20.9290    6.5210 C   0  0  0  0  0  0  0  0  0  0  0  0
    0.9200  -19.2110    7.8240 C   0  0  0  0  0  0  0  0  0  0  0  0
   -0.2900  -18.5990    5.5400 C   0  0  2  0  0  0  0  0  0  0  0  0
    1.1320  -18.4130    4.9060 C   0  0  2  0  0  0  0  0  0  0  0  0
    1.8640  -17.3670    5.5460 O   0  0  0  0  0  0  0  0  0  0  0  0
    1.1280  -18.1810    3.3840 C   0  0  0  0  0  0  0  0  0  0  0  0
    0.4650  -16.8750    2.9240 C   0  0  1  0  0  0  0  0  0  0  0  0
    0.7320  -16.4830    1.4400 C   0  0  1  0  0  0  0  0  0  0  0  0
    0.5040  -17.6420    0.4450 C   0  0  0  0  0  0  0  0  0  0  0  0
    2.1790  -15.9530    1.2580 C   0  0  0  0  0  0  0  0  0  0  0  0
    2.2260  -14.8430    0.2030 C   0  0  0  0  0  0  0  0  0  0  0  0
    1.4210  -13.5860    0.6350 C   0  0  2  0  0  0  0  0  0  0  0  0
    2.3100  -12.7860    1.4250 O   0  0  0  0  0  0  0  0  0  0  0  0
    0.9280  -12.7590   -0.6160 C   0  0  1  0  0  0  0  0  0  0  0  0
    0.8330  -11.2550   -0.2960 C   0  0  0  0  0  0  0  0  0  0  0  0
    1.8110  -13.0040   -1.8770 C   0  0  1  0  0  0  0  0  0  0  0  0
    1.2470  -14.0380   -2.8540 C   0  0  0  0  0  0  0  0  0  0  0  0
    2.1500  -14.1080   -4.0440 C   0  0  0  0  0  0  0  0  0  0  0  0
    2.8840  -13.0500   -4.4280 C   0  0  0  0  0  0  0  0  0  0  0  0
    3.7970  -13.0680   -5.6140 C   0  0  0  0  0  0  0  0  0  0  0  0
    2.7620  -11.7520   -3.7100 C   0  0  0  0  0  0  0  0  0  0  0  0
    3.2670  -10.7240   -4.1420 O   0  0  0  0  0  0  0  0  0  0  0  0
    2.0380  -11.7530   -2.5580 O   0  0  0  0  0  0  0  0  0  0  0  0
    0.3441  -12.2856    2.7937 H   0  0  0  0  0  0  0  0  0  0  0  0
   -0.9159  -13.6268    3.2872 H   0  0  0  0  0  0  0  0  0  0  0  0
   -0.6529  -15.2117    0.1649 H   0  0  0  0  0  0  0  0  0  0  0  0
   -2.0752  -15.0117    2.4738 H   0  0  0  0  0  0  0  0  0  0  0  0
   -2.2960  -16.3468    1.3177 H   0  0  0  0  0  0  0  0  0  0  0  0
   -1.1390  -18.4430    1.9390 H   0  0  0  0  0  0  0  0  0  0  0  0
   -1.3932  -15.3974    4.2094 H   0  0  0  0  0  0  0  0  0  0  0  0
   -0.3691  -15.5440    6.8611 H   0  0  0  0  0  0  0  0  0  0  0  0
   -1.1155  -16.2476    8.9903 H   0  0  0  0  0  0  0  0  0  0  0  0
    0.7561  -21.2856    6.4358 H   0  0  0  0  0  0  0  0  0  0  0  0
   -0.7995  -21.4943    7.3094 H   0  0  0  0  0  0  0  0  0  0  0  0
   -0.7995  -21.0770    5.5622 H   0  0  0  0  0  0  0  0  0  0  0  0
    0.5808  -19.2706    8.8687 H   0  0  0  0  0  0  0  0  0  0  0  0
    1.6735  -19.9905    7.6381 H   0  0  0  0  0  0  0  0  0  0  0  0
    1.3627  -18.2213    7.6381 H   0  0  0  0  0  0  0  0  0  0  0  0
   -0.8459  -19.2132    4.8162 H   0  0  0  0  0  0  0  0  0  0  0  0
    1.6327  -19.3773    5.0777 H   0  0  0  0  0  0  0  0  0  0  0  0
    2.5310  -17.0390    4.9160 H   0  0  0  0  0  0  0  0  0  0  0  0
    2.1722  -18.1728    3.0382 H   0  0  0  0  0  0  0  0  0  0  0  0
    0.5288  -18.9962    2.9524 H   0  0  0  0  0  0  0  0  0  0  0  0
    0.9428  -16.1603    3.6102 H   0  0  0  0  0  0  0  0  0  0  0  0
    0.3209  -18.5727    1.0020 H   0  0  0  0  0  0  0  0  0  0  0  0
   -0.3669  -17.4160   -0.1878 H   0  0  0  0  0  0  0  0  0  0  0  0
    1.3956  -17.7627   -0.1878 H   0  0  0  0  0  0  0  0  0  0  0  0
    2.5396  -15.5535    2.2174 H   0  0  0  0  0  0  0  0  0  0  0  0
    2.8179  -16.7834    0.9231 H   0  0  0  0  0  0  0  0  0  0  0  0
    3.2746  -14.5532    0.0406 H   0  0  0  0  0  0  0  0  0  0  0  0
    1.7707  -15.2345   -0.7186 H   0  0  0  0  0  0  0  0  0  0  0  0
    2.9870  -12.4100    0.8310 H   0  0  0  0  0  0  0  0  0  0  0  0
   -0.0824  -13.1240   -0.8525 H   0  0  0  0  0  0  0  0  0  0  0  0
    0.8240  -11.1120    0.7946 H   0  0  0  0  0  0  0  0  0  0  0  0
    1.7000  -10.7329   -0.7271 H   0  0  0  0  0  0  0  0  0  0  0  0
   -0.0928  -10.8462   -0.7271 H   0  0  0  0  0  0  0  0  0  0  0  0
    2.7571  -13.4284   -1.5100 H   0  0  0  0  0  0  0  0  0  0  0  0
    1.1995  -15.0226   -2.3658 H   0  0  0  0  0  0  0  0  0  0  0  0
    0.2331  -13.7475   -3.1666 H   0  0  0  0  0  0  0  0  0  0  0  0
    2.2147  -15.0449   -4.6168 H   0  0  0  0  0  0  0  0  0  0  0  0
    4.8422  -13.0886   -5.2718 H   0  0  0  0  0  0  0  0  0  0  0  0
    3.5922  -13.9623   -6.2209 H   0  0  0  0  0  0  0  0  0  0  0  0
    3.6276  -12.1663   -6.2209 H   0  0  0  0  0  0  0  0  0  0  0  0
  1  2  2  0
  2  3  1  0
  3  4  1  0
  4  5  1  0
  5  6  1  6
  5  7  1  0
  7  8  1  0
  9  8  1  1
  9 10  1  0
 10 11  2  0
 11 12  1  0
 12 13  2  0
 12 14  1  0
 14 15  1  0
 15 16  1  0
 15 17  1  0
 15 18  1  0
 18 19  1  0
 19 20  1  0
 19 21  1  0
 21 22  1  0
 22 23  1  0
 23 24  1  6
 23 25  1  0
 25 26  1  0
 26 27  1  0
 27 28  1  1
 27 29  1  0
 29 30  1  0
 29 31  1  0
 31 32  1  0
 32 33  1  0
 33 34  2  0
 34 35  1  0
 34 36  1  0
 36 37  2  0
 36 38  1  0
 27  2  1  0
 38 31  1  0
 23  3  1  0
 22  5  1  0
  9  7  1  0
 18  9  1  0
  1 39  1  0
  1 40  1  0
  3 41  1  6
  4 42  1  0
  4 43  1  0
  6 44  1  0
  7 45  1  1
 10 46  1  0
 11 47  1  0
 16 48  1  0
 16 49  1  0
 16 50  1  0
 17 51  1  0
 17 52  1  0
 17 53  1  0
 18 54  1  6
 19 55  1  6
 20 56  1  0
 21 57  1  0
 21 58  1  0
 22 59  1  1
 24 60  1  0
 24 61  1  0
 24 62  1  0
 25 63  1  0
 25 64  1  0
 26 65  1  0
 26 66  1  0
 28 67  1  0
 29 68  1  6
 30 69  1  0
 30 70  1  0
 30 71  1  0
 31 72  1  1
 32 73  1  0
 32 74  1  0
 33 75  1  0
 35 76  1  0
 35 77  1  0
 35 78  1  0
M  END
>  <meeko>  (4) 
{"is_sidechain": [false], "free_energy": -5.725, "intermolecular_energy": -9.956, "internal_energy": 2.363}

$$$$
LIB_UXMLFMZVVWDUFA__M_PUB_ALL__e8__s20260927
     RDKit          3D

 78 83  0  0  0  0  0  0  0  0999 V2000
    1.6930  -14.5020   -3.0800 C   0  0  0  0  0  0  0  0  0  0  0  0
    2.8570  -14.0080   -2.6140 C   0  0  0  0  0  0  0  0  0  0  0  0
    3.2210  -13.9070   -1.1350 C   0  0  2  0  0  0  0  0  0  0  0  0
    2.2860  -14.5730   -0.1000 C   0  0  0  0  0  0  0  0  0  0  0  0
    1.4050  -13.4580    0.5040 C   0  0  2  0  0  0  0  0  0  0  0  0
    1.7460  -13.3590    1.8900 O   0  0  0  0  0  0  0  0  0  0  0  0
   -0.0640  -13.7280    0.3530 C   0  0  1  0  0  0  0  0  0  0  0  0
   -0.7720  -13.9450    1.5730 O   0  0  0  0  0  0  0  0  0  0  0  0
   -1.1290  -12.7460    0.8390 C   0  0  2  0  0  0  0  0  0  0  0  0
   -2.3900  -12.7290    0.0790 C   0  0  0  0  0  0  0  0  0  0  0  0
   -3.6110  -12.6440    0.6210 C   0  0  0  0  0  0  0  0  0  0  0  0
   -3.8490  -12.4930    2.0670 C   0  0  0  0  0  0  0  0  0  0  0  0
   -4.8770  -12.9390    2.5660 O   0  0  0  0  0  0  0  0  0  0  0  0
   -2.9320  -11.8250    2.8030 O   0  0  0  0  0  0  0  0  0  0  0  0
   -1.9940  -10.8150    2.3060 C   0  0  0  0  0  0  0  0  0  0  0  0
   -1.5050  -10.1390    3.6120 C   0  0  0  0  0  0  0  0  0  0  0  0
   -2.7470   -9.7240    1.5190 C   0  0  0  0  0  0  0  0  0  0  0  0
   -0.7510  -11.4740    1.6020 C   0  0  2  0  0  0  0  0  0  0  0  0
    0.0930  -10.4700    0.7370 C   0  0  2  0  0  0  0  0  0  0  0  0
   -0.4960  -10.2360   -0.5430 O   0  0  0  0  0  0  0  0  0  0  0  0
    1.5670  -10.8780    0.5590 C   0  0  0  0  0  0  0  0  0  0  0  0
    1.7960  -12.1680   -0.2420 C   0  0  1  0  0  0  0  0  0  0  0  0
    3.2630  -12.4100   -0.7040 C   0  0  1  0  0  0  0  0  0  0  0  0
    4.3040  -12.2230    0.4230 C   0  0  0  0  0  0  0  0  0  0  0  0
    3.6370  -11.4710   -1.8820 C   0  0  0  0  0  0  0  0  0  0  0  0
    4.5850  -12.1710   -2.8600 C   0  0  0  0  0  0  0  0  0  0  0  0
    3.9190  -13.3910   -3.5540 C   0  0  2  0  0  0  0  0  0  0  0  0
    3.2200  -12.8780   -4.6960 O   0  0  0  0  0  0  0  0  0  0  0  0
    4.9940  -14.4500   -4.0170 C   0  0  1  0  0  0  0  0  0  0  0  0
    5.2610  -14.3570   -5.5320 C   0  0  0  0  0  0  0  0  0  0  0  0
    6.3230  -14.3400   -3.2110 C   0  0  1  0  0  0  0  0  0  0  0  0
    6.3110  -15.0730   -1.8670 C   0  0  0  0  0  0  0  0  0  0  0  0
    7.6660  -14.9500   -1.2470 C   0  0  0  0  0  0  0  0  0  0  0  0
    8.7690  -14.8050   -2.0010 C   0  0  0  0  0  0  0  0  0  0  0  0
   10.1480  -14.6850   -1.4310 C   0  0  0  0  0  0  0  0  0  0  0  0
    8.6720  -14.8310   -3.4870 C   0  0  0  0  0  0  0  0  0  0  0  0
    9.6650  -14.8900   -4.1990 O   0  0  0  0  0  0  0  0  0  0  0  0
    7.4200  -14.8110   -4.0200 O   0  0  0  0  0  0  0  0  0  0  0  0
    1.5064  -14.5407   -4.1634 H   0  0  0  0  0  0  0  0  0  0  0  0
    0.9295  -14.8665   -2.3770 H   0  0  0  0  0  0  0  0  0  0  0  0
    4.1773  -14.4500   -1.1084 H   0  0  0  0  0  0  0  0  0  0  0  0
    1.6545  -15.3268   -0.5929 H   0  0  0  0  0  0  0  0  0  0  0  0
    2.8688  -15.0780    0.6844 H   0  0  0  0  0  0  0  0  0  0  0  0
    2.0600  -14.2450    2.1560 H   0  0  0  0  0  0  0  0  0  0  0  0
    0.0982  -14.2348   -0.6097 H   0  0  0  0  0  0  0  0  0  0  0  0
   -2.3237  -12.7908   -1.0173 H   0  0  0  0  0  0  0  0  0  0  0  0
   -4.4826  -12.6893   -0.0486 H   0  0  0  0  0  0  0  0  0  0  0  0
   -1.9015  -10.6872    4.4793 H   0  0  0  0  0  0  0  0  0  0  0  0
   -0.4055  -10.1514    3.6418 H   0  0  0  0  0  0  0  0  0  0  0  0
   -1.8609   -9.0986    3.6418 H   0  0  0  0  0  0  0  0  0  0  0  0
   -3.2268   -9.0288    2.2236 H   0  0  0  0  0  0  0  0  0  0  0  0
   -2.0366   -9.1722    0.8859 H   0  0  0  0  0  0  0  0  0  0  0  0
   -3.5149  -10.1926    0.8859 H   0  0  0  0  0  0  0  0  0  0  0  0
   -0.0758  -11.7805    2.4145 H   0  0  0  0  0  0  0  0  0  0  0  0
    0.0832   -9.5365    1.3187 H   0  0  0  0  0  0  0  0  0  0  0  0
    0.2160  -10.2600   -1.2090 H   0  0  0  0  0  0  0  0  0  0  0  0
    2.0867  -10.0587    0.0406 H   0  0  0  0  0  0  0  0  0  0  0  0
    1.9539  -11.0736    1.5700 H   0  0  0  0  0  0  0  0  0  0  0  0
    1.1397  -11.9822   -1.1050 H   0  0  0  0  0  0  0  0  0  0  0  0
    3.8066  -12.3123    1.4001 H   0  0  0  0  0  0  0  0  0  0  0  0
    5.0819  -12.9958    0.3355 H   0  0  0  0  0  0  0  0  0  0  0  0
    4.7643  -11.2278    0.3355 H   0  0  0  0  0  0  0  0  0  0  0  0
    2.7201  -11.1799   -2.4154 H   0  0  0  0  0  0  0  0  0  0  0  0
    4.1441  -10.5833   -1.4761 H   0  0  0  0  0  0  0  0  0  0  0  0
    4.8935  -11.4499   -3.6313 H   0  0  0  0  0  0  0  0  0  0  0  0
    5.4486  -12.5394   -2.2868 H   0  0  0  0  0  0  0  0  0  0  0  0
    3.8420  -12.8640   -5.4490 H   0  0  0  0  0  0  0  0  0  0  0  0
    4.5674  -15.4412   -3.8038 H   0  0  0  0  0  0  0  0  0  0  0  0
    6.2873  -13.9995   -5.7022 H   0  0  0  0  0  0  0  0  0  0  0  0
    5.1386  -15.3507   -5.9876 H   0  0  0  0  0  0  0  0  0  0  0  0
    4.5477  -13.6544   -5.9876 H   0  0  0  0  0  0  0  0  0  0  0  0
    6.4447  -13.2743   -2.9673 H   0  0  0  0  0  0  0  0  0  0  0  0
    5.5576  -14.6214   -1.2048 H   0  0  0  0  0  0  0  0  0  0  0  0
    6.0608  -16.1334   -2.0184 H   0  0  0  0  0  0  0  0  0  0  0  0
    7.7620  -14.9788   -0.1516 H   0  0  0  0  0  0  0  0  0  0  0  0
   10.0924  -14.6898   -0.3324 H   0  0  0  0  0  0  0  0  0  0  0  0
   10.7603  -15.5333   -1.7709 H   0  0  0  0  0  0  0  0  0  0  0  0
   10.6046  -13.7437   -1.7709 H   0  0  0  0  0  0  0  0  0  0  0  0
  1  2  2  0
  2  3  1  0
  3  4  1  0
  4  5  1  0
  5  6  1  1
  5  7  1  0
  7  8  1  0
  9  8  1  1
  9 10  1  0
 10 11  2  0
 11 12  1  0
 12 13  2  0
 12 14  1  0
 14 15  1  0
 15 16  1  0
 15 17  1  0
 15 18  1  0
 18 19  1  0
 19 20  1  0
 19 21  1  0
 21 22  1  0
 22 23  1  0
 23 24  1  1
 23 25  1  0
 25 26  1  0
 26 27  1  0
 27 28  1  6
 27 29  1  0
 29 30  1  0
 29 31  1  0
 31 32  1  0
 32 33  1  0
 33 34  2  0
 34 35  1  0
 34 36  1  0
 36 37  2  0
 36 38  1  0
 27  2  1  0
 38 31  1  0
 23  3  1  0
 22  5  1  0
  9  7  1  0
 18  9  1  0
  1 39  1  0
  1 40  1  0
  3 41  1  6
  4 42  1  0
  4 43  1  0
  6 44  1  0
  7 45  1  6
 10 46  1  0
 11 47  1  0
 16 48  1  0
 16 49  1  0
 16 50  1  0
 17 51  1  0
 17 52  1  0
 17 53  1  0
 18 54  1  1
 19 55  1  1
 20 56  1  0
 21 57  1  0
 21 58  1  0
 22 59  1  6
 24 60  1  0
 24 61  1  0
 24 62  1  0
 25 63  1  0
 25 64  1  0
 26 65  1  0
 26 66  1  0
 28 67  1  0
 29 68  1  6
 30 69  1  0
 30 70  1  0
 30 71  1  0
 31 72  1  1
 32 73  1  0
 32 74  1  0
 33 75  1  0
 35 76  1  0
 35 77  1  0
 35 78  1  0
M  END
>  <meeko>  (5) 
{"is_sidechain": [false], "free_energy": -5.651, "intermolecular_energy": -9.463, "internal_energy": 1.992}

$$$$
LIB_UXMLFMZVVWDUFA__M_PUB_ALL__e8__s20260927
     RDKit          3D

 78 83  0  0  0  0  0  0  0  0999 V2000
    5.6280  -14.0430    0.1850 C   0  0  0  0  0  0  0  0  0  0  0  0
    5.2930  -13.5350   -1.0170 C   0  0  0  0  0  0  0  0  0  0  0  0
    4.0520  -12.6860   -1.2800 C   0  0  2  0  0  0  0  0  0  0  0  0
    3.2110  -12.2180   -0.0710 C   0  0  0  0  0  0  0  0  0  0  0  0
    1.9930  -13.1610    0.0310 C   0  0  2  0  0  0  0  0  0  0  0  0
    0.8280  -12.3680   -0.2180 O   0  0  0  0  0  0  0  0  0  0  0  0
    1.8830  -13.8320    1.3690 C   0  0  1  0  0  0  0  0  0  0  0  0
    0.7460  -13.4560    2.1470 O   0  0  0  0  0  0  0  0  0  0  0  0
    0.7750  -14.8330    1.6920 C   0  0  2  0  0  0  0  0  0  0  0  0
    1.1180  -15.8920    2.6560 C   0  0  0  0  0  0  0  0  0  0  0  0
    0.3090  -16.3410    3.6230 C   0  0  0  0  0  0  0  0  0  0  0  0
   -1.0880  -15.8680    3.8310 C   0  0  0  0  0  0  0  0  0  0  0  0
   -1.5960  -15.8720    4.9470 O   0  0  0  0  0  0  0  0  0  0  0  0
   -1.7750  -15.4680    2.7360 O   0  0  0  0  0  0  0  0  0  0  0  0
   -1.5400  -15.9100    1.3590 C   0  0  0  0  0  0  0  0  0  0  0  0
   -2.8490  -15.4910    0.6450 C   0  0  0  0  0  0  0  0  0  0  0  0
   -1.4930  -17.4500    1.2900 C   0  0  0  0  0  0  0  0  0  0  0  0
   -0.3480  -15.1290    0.6940 C   0  0  2  0  0  0  0  0  0  0  0  0
    0.1790  -15.7960   -0.6270 C   0  0  2  0  0  0  0  0  0  0  0  0
    1.0440  -16.8980   -0.3500 O   0  0  0  0  0  0  0  0  0  0  0  0
    0.8760  -14.8270   -1.6010 C   0  0  0  0  0  0  0  0  0  0  0  0
    2.1820  -14.2080   -1.0840 C   0  0  1  0  0  0  0  0  0  0  0  0
    3.0440  -13.4850   -2.1600 C   0  0  1  0  0  0  0  0  0  0  0  0
    2.2370  -12.5070   -3.0430 C   0  0  0  0  0  0  0  0  0  0  0  0
    3.7560  -14.5110   -3.0820 C   0  0  0  0  0  0  0  0  0  0  0  0
    5.1380  -14.0020   -3.5030 C   0  0  0  0  0  0  0  0  0  0  0  0
    6.1040  -13.8550   -2.2940 C   0  0  2  0  0  0  0  0  0  0  0  0
    6.7070  -15.1410   -2.0980 O   0  0  0  0  0  0  0  0  0  0  0  0
    7.2230  -12.7790   -2.5770 C   0  0  1  0  0  0  0  0  0  0  0  0
    6.7540  -11.3620   -2.1930 C   0  0  0  0  0  0  0  0  0  0  0  0
    8.5730  -13.1250   -1.8790 C   0  0  1  0  0  0  0  0  0  0  0  0
    9.8130  -12.8810   -2.7420 C   0  0  0  0  0  0  0  0  0  0  0  0
   11.0280  -13.1780   -1.9210 C   0  0  0  0  0  0  0  0  0  0  0  0
   11.0180  -13.0430   -0.5840 C   0  0  0  0  0  0  0  0  0  0  0  0
   12.2070  -13.3200    0.2810 C   0  0  0  0  0  0  0  0  0  0  0  0
    9.8060  -12.5260    0.1090 C   0  0  0  0  0  0  0  0  0  0  0  0
    9.8210  -12.2140    1.2930 O   0  0  0  0  0  0  0  0  0  0  0  0
    8.6800  -12.3910   -0.6420 O   0  0  0  0  0  0  0  0  0  0  0  0
    6.5414  -14.6465    0.2918 H   0  0  0  0  0  0  0  0  0  0  0  0
    4.9881  -13.8543    1.0596 H   0  0  0  0  0  0  0  0  0  0  0  0
    4.4948  -11.7887   -1.7369 H   0  0  0  0  0  0  0  0  0  0  0  0
    3.8102  -12.2756    0.8497 H   0  0  0  0  0  0  0  0  0  0  0  0
    2.8871  -11.1749   -0.2013 H   0  0  0  0  0  0  0  0  0  0  0  0
    0.9350  -12.0040   -1.1190 H   0  0  0  0  0  0  0  0  0  0  0  0
    2.9774  -13.8737    1.4712 H   0  0  0  0  0  0  0  0  0  0  0  0
    2.1153  -16.3489    2.5751 H   0  0  0  0  0  0  0  0  0  0  0  0
    0.7006  -17.1079    4.3075 H   0  0  0  0  0  0  0  0  0  0  0  0
   -3.6142  -15.2461    1.3963 H   0  0  0  0  0  0  0  0  0  0  0  0
   -2.6574  -14.6093    0.0158 H   0  0  0  0  0  0  0  0  0  0  0  0
   -3.2050  -16.3201    0.0158 H   0  0  0  0  0  0  0  0  0  0  0  0
   -1.4804  -17.8625    2.3096 H   0  0  0  0  0  0  0  0  0  0  0  0
   -2.3803  -17.8203    0.7556 H   0  0  0  0  0  0  0  0  0  0  0  0
   -0.5848  -17.7655    0.7556 H   0  0  0  0  0  0  0  0  0  0  0  0
   -0.7624  -14.1588    0.3825 H   0  0  0  0  0  0  0  0  0  0  0  0
   -0.7305  -16.1508   -1.1338 H   0  0  0  0  0  0  0  0  0  0  0  0
    1.9510  -16.6360   -0.5930 H   0  0  0  0  0  0  0  0  0  0  0  0
    1.1032  -15.3784   -2.5253 H   0  0  0  0  0  0  0  0  0  0  0  0
    0.1788  -13.9892   -1.7494 H   0  0  0  0  0  0  0  0  0  0  0  0
    2.6928  -15.1090   -0.7135 H   0  0  0  0  0  0  0  0  0  0  0  0
    1.6683  -11.8178   -2.4015 H   0  0  0  0  0  0  0  0  0  0  0  0
    2.9269  -11.9319   -3.6781 H   0  0  0  0  0  0  0  0  0  0  0  0
    1.5413  -13.0751   -3.6781 H   0  0  0  0  0  0  0  0  0  0  0  0
    3.8720  -15.4616   -2.5407 H   0  0  0  0  0  0  0  0  0  0  0  0
    3.1447  -14.6547   -3.9851 H   0  0  0  0  0  0  0  0  0  0  0  0
    5.5739  -14.7132   -4.2201 H   0  0  0  0  0  0  0  0  0  0  0  0
    5.0081  -13.0071   -3.9538 H   0  0  0  0  0  0  0  0  0  0  0  0
    7.1910  -15.1210   -1.2500 H   0  0  0  0  0  0  0  0  0  0  0  0
    7.4053  -12.7982   -3.6616 H   0  0  0  0  0  0  0  0  0  0  0  0
    6.7236  -11.2702   -1.0973 H   0  0  0  0  0  0  0  0  0  0  0  0
    7.4545  -10.6200   -2.6038 H   0  0  0  0  0  0  0  0  0  0  0  0
    5.7492  -11.1844   -2.6038 H   0  0  0  0  0  0  0  0  0  0  0  0
    8.5507  -14.2087   -1.6914 H   0  0  0  0  0  0  0  0  0  0  0  0
    9.7889  -13.5412   -3.6215 H   0  0  0  0  0  0  0  0  0  0  0  0
    9.8350  -11.8356   -3.0836 H   0  0  0  0  0  0  0  0  0  0  0  0
   11.9480  -13.5136   -2.4219 H   0  0  0  0  0  0  0  0  0  0  0  0
   11.9144  -13.2518    1.3392 H   0  0  0  0  0  0  0  0  0  0  0  0
   12.5866  -14.3306    0.0699 H   0  0  0  0  0  0  0  0  0  0  0  0
   12.9941  -12.5812    0.0699 H   0  0  0  0  0  0  0  0  0  0  0  0
  1  2  2  0
  2  3  1  0
  3  4  1  0
  4  5  1  0
  5  6  1  6
  5  7  1  0
  7  8  1  0
  9  8  1  1
  9 10  1  0
 10 11  2  0
 11 12  1  0
 12 13  2  0
 12 14  1  0
 14 15  1  0
 15 16  1  0
 15 17  1  0
 15 18  1  0
 18 19  1  0
 19 20  1  0
 19 21  1  0
 21 22  1  0
 22 23  1  0
 23 24  1  6
 23 25  1  0
 25 26  1  0
 26 27  1  0
 27 28  1  1
 27 29  1  0
 29 30  1  0
 29 31  1  0
 31 32  1  0
 32 33  1  0
 33 34  2  0
 34 35  1  0
 34 36  1  0
 36 37  2  0
 36 38  1  0
 27  2  1  0
 38 31  1  0
 23  3  1  0
 22  5  1  0
  9  7  1  0
 18  9  1  0
  1 39  1  0
  1 40  1  0
  3 41  1  6
  4 42  1  0
  4 43  1  0
  6 44  1  0
  7 45  1  1
 10 46  1  0
 11 47  1  0
 16 48  1  0
 16 49  1  0
 16 50  1  0
 17 51  1  0
 17 52  1  0
 17 53  1  0
 18 54  1  6
 19 55  1  6
 20 56  1  0
 21 57  1  0
 21 58  1  0
 22 59  1  1
 24 60  1  0
 24 61  1  0
 24 62  1  0
 25 63  1  0
 25 64  1  0
 26 65  1  0
 26 66  1  0
 28 67  1  0
 29 68  1  6
 30 69  1  0
 30 70  1  0
 30 71  1  0
 31 72  1  1
 32 73  1  0
 32 74  1  0
 33 75  1  0
 35 76  1  0
 35 77  1  0
 35 78  1  0
M  END
>  <meeko>  (6) 
{"is_sidechain": [false], "free_energy": -5.604, "intermolecular_energy": -9.828, "internal_energy": 2.436}

$$$$
LIB_UXMLFMZVVWDUFA__M_PUB_ALL__e8__s20260927
     RDKit          3D

 78 83  0  0  0  0  0  0  0  0999 V2000
    1.3080  -13.3230    1.3600 C   0  0  0  0  0  0  0  0  0  0  0  0
    1.8030  -14.2620    0.5300 C   0  0  0  0  0  0  0  0  0  0  0  0
    1.1120  -15.5870    0.2170 C   0  0  2  0  0  0  0  0  0  0  0  0
   -0.3270  -15.8070    0.7350 C   0  0  0  0  0  0  0  0  0  0  0  0
   -0.2280  -16.6740    2.0070 C   0  0  2  0  0  0  0  0  0  0  0  0
   -0.8710  -17.9200    1.7170 O   0  0  0  0  0  0  0  0  0  0  0  0
   -0.8660  -16.0320    3.2050 C   0  0  1  0  0  0  0  0  0  0  0  0
   -2.0240  -16.6980    3.7080 O   0  0  0  0  0  0  0  0  0  0  0  0
   -0.8670  -16.6920    4.5820 C   0  0  2  0  0  0  0  0  0  0  0  0
   -0.8560  -15.7790    5.7380 C   0  0  0  0  0  0  0  0  0  0  0  0
   -1.5610  -15.9560    6.8620 C   0  0  0  0  0  0  0  0  0  0  0  0
   -2.4270  -17.0950    7.0920 C   0  0  0  0  0  0  0  0  0  0  0  0
   -3.4410  -16.9590    7.7690 O   0  0  0  0  0  0  0  0  0  0  0  0
   -2.0810  -18.2890    6.5590 O   0  0  0  0  0  0  0  0  0  0  0  0
   -0.7290  -18.7070    6.1790 C   0  0  0  0  0  0  0  0  0  0  0  0
   -0.8870  -20.2380    6.0050 C   0  0  0  0  0  0  0  0  0  0  0  0
    0.2450  -18.5120    7.3590 C   0  0  0  0  0  0  0  0  0  0  0  0
   -0.3010  -18.0990    4.7930 C   0  0  2  0  0  0  0  0  0  0  0  0
    1.2280  -18.1800    4.5010 C   0  0  2  0  0  0  0  0  0  0  0  0
    1.9200  -17.1320    5.1810 O   0  0  0  0  0  0  0  0  0  0  0  0
    1.6220  -18.1760    3.0130 C   0  0  0  0  0  0  0  0  0  0  0  0
    1.2780  -16.8890    2.2500 C   0  0  1  0  0  0  0  0  0  0  0  0
    1.9250  -16.7630    0.8380 C   0  0  1  0  0  0  0  0  0  0  0  0
    1.7570  -18.0280   -0.0330 C   0  0  0  0  0  0  0  0  0  0  0  0
    3.4390  -16.4360    0.9490 C   0  0  0  0  0  0  0  0  0  0  0  0
    3.8840  -15.5150   -0.1910 C   0  0  0  0  0  0  0  0  0  0  0  0
    3.1970  -14.1220   -0.1250 C   0  0  2  0  0  0  0  0  0  0  0  0
    3.9940  -13.3170    0.7530 O   0  0  0  0  0  0  0  0  0  0  0  0
    3.1230  -13.4470   -1.5490 C   0  0  1  0  0  0  0  0  0  0  0  0
    2.2790  -12.1580   -1.5200 C   0  0  0  0  0  0  0  0  0  0  0  0
    4.5350  -13.1730   -2.1520 C   0  0  1  0  0  0  0  0  0  0  0  0
    4.5970  -13.2470   -3.6790 C   0  0  0  0  0  0  0  0  0  0  0  0
    5.9810  -12.8860   -4.1160 C   0  0  0  0  0  0  0  0  0  0  0  0
    6.7530  -12.0670   -3.3820 C   0  0  0  0  0  0  0  0  0  0  0  0
    8.1410  -11.6700   -3.7780 C   0  0  0  0  0  0  0  0  0  0  0  0
    6.2190  -11.4420   -2.1410 C   0  0  0  0  0  0  0  0  0  0  0  0
    6.8210  -10.5530   -1.5540 O   0  0  0  0  0  0  0  0  0  0  0  0
    5.0130  -11.8890   -1.7000 O   0  0  0  0  0  0  0  0  0  0  0  0
    1.8679  -12.3923    1.5338 H   0  0  0  0  0  0  0  0  0  0  0  0
    0.3440  -13.4872    1.8637 H   0  0  0  0  0  0  0  0  0  0  0  0
    1.0619  -15.5530   -0.8813 H   0  0  0  0  0  0  0  0  0  0  0  0
   -0.7933  -14.8398    0.9738 H   0  0  0  0  0  0  0  0  0  0  0  0
   -0.9444  -16.3035   -0.0281 H   0  0  0  0  0  0  0  0  0  0  0  0
   -1.7880  -17.8330    2.0440 H   0  0  0  0  0  0  0  0  0  0  0  0
   -0.5734  -15.0293    2.8601 H   0  0  0  0  0  0  0  0  0  0  0  0
   -0.2201  -14.8838    5.6726 H   0  0  0  0  0  0  0  0  0  0  0  0
   -1.4786  -15.1964    7.6533 H   0  0  0  0  0  0  0  0  0  0  0  0
   -0.9364  -20.7163    6.9943 H   0  0  0  0  0  0  0  0  0  0  0  0
   -1.8118  -20.4503    5.4485 H   0  0  0  0  0  0  0  0  0  0  0  0
   -0.0250  -20.6347    5.4485 H   0  0  0  0  0  0  0  0  0  0  0  0
   -0.3014  -18.6214    8.3074 H   0  0  0  0  0  0  0  0  0  0  0  0
    1.0418  -19.2684    7.3056 H   0  0  0  0  0  0  0  0  0  0  0  0
    0.6892  -17.5071    7.3056 H   0  0  0  0  0  0  0  0  0  0  0  0
   -0.7620  -18.7519    4.0372 H   0  0  0  0  0  0  0  0  0  0  0  0
    1.5291  -19.1675    4.8808 H   0  0  0  0  0  0  0  0  0  0  0  0
    1.9940  -16.3760    4.5690 H   0  0  0  0  0  0  0  0  0  0  0  0
    2.7093  -18.3299    2.9483 H   0  0  0  0  0  0  0  0  0  0  0  0
    1.0362  -18.9777    2.5396 H   0  0  0  0  0  0  0  0  0  0  0  0
    1.6895  -16.1373    2.9396 H   0  0  0  0  0  0  0  0  0  0  0  0
    1.6402  -18.9078    0.6169 H   0  0  0  0  0  0  0  0  0  0  0  0
    0.8653  -17.9202   -0.6680 H   0  0  0  0  0  0  0  0  0  0  0  0
    2.6459  -18.1567   -0.6680 H   0  0  0  0  0  0  0  0  0  0  0  0
    3.6302  -15.9372    1.9106 H   0  0  0  0  0  0  0  0  0  0  0  0
    4.0073  -17.3756    0.8840 H   0  0  0  0  0  0  0  0  0  0  0  0
    4.9734  -15.3757   -0.1287 H   0  0  0  0  0  0  0  0  0  0  0  0
    3.5938  -15.9892   -1.1401 H   0  0  0  0  0  0  0  0  0  0  0  0
    3.7220  -12.3870    0.6400 H   0  0  0  0  0  0  0  0  0  0  0  0
    2.6227  -14.1696   -2.2104 H   0  0  0  0  0  0  0  0  0  0  0  0
    2.0889  -11.8676   -0.4762 H   0  0  0  0  0  0  0  0  0  0  0  0
    2.8242  -11.3511   -2.0316 H   0  0  0  0  0  0  0  0  0  0  0  0
    1.3214  -12.3351   -2.0316 H   0  0  0  0  0  0  0  0  0  0  0  0
    5.1843  -13.9835   -1.7892 H   0  0  0  0  0  0  0  0  0  0  0  0
    4.3576  -14.2680   -4.0110 H   0  0  0  0  0  0  0  0  0  0  0  0
    3.8689  -12.5503   -4.1199 H   0  0  0  0  0  0  0  0  0  0  0  0
    6.3746  -13.2990   -5.0565 H   0  0  0  0  0  0  0  0  0  0  0  0
    8.7447  -11.4973   -2.8748 H   0  0  0  0  0  0  0  0  0  0  0  0
    8.5961  -12.4740   -4.3751 H   0  0  0  0  0  0  0  0  0  0  0  0
    8.1021  -10.7470   -4.3751 H   0  0  0  0  0  0  0  0  0  0  0  0
  1  2  2  0
  2  3  1  0
  3  4  1  0
  4  5  1  0
  5  6  1  6
  5  7  1  0
  7  8  1  0
  9  8  1  1
  9 10  1  0
 10 11  2  0
 11 12  1  0
 12 13  2  0
 12 14  1  0
 14 15  1  0
 15 16  1  0
 15 17  1  0
 15 18  1  0
 18 19  1  0
 19 20  1  0
 19 21  1  0
 21 22  1  0
 22 23  1  0
 23 24  1  6
 23 25  1  0
 25 26  1  0
 26 27  1  0
 27 28  1  1
 27 29  1  0
 29 30  1  0
 29 31  1  0
 31 32  1  0
 32 33  1  0
 33 34  2  0
 34 35  1  0
 34 36  1  0
 36 37  2  0
 36 38  1  0
 27  2  1  0
 38 31  1  0
 23  3  1  0
 22  5  1  0
  9  7  1  0
 18  9  1  0
  1 39  1  0
  1 40  1  0
  3 41  1  6
  4 42  1  0
  4 43  1  0
  6 44  1  0
  7 45  1  1
 10 46  1  0
 11 47  1  0
 16 48  1  0
 16 49  1  0
 16 50  1  0
 17 51  1  0
 17 52  1  0
 17 53  1  0
 18 54  1  6
 19 55  1  1
 20 56  1  0
 21 57  1  0
 21 58  1  0
 22 59  1  1
 24 60  1  0
 24 61  1  0
 24 62  1  0
 25 63  1  0
 25 64  1  0
 26 65  1  0
 26 66  1  0
 28 67  1  0
 29 68  1  6
 30 69  1  0
 30 70  1  0
 30 71  1  0
 31 72  1  1
 32 73  1  0
 32 74  1  0
 33 75  1  0
 35 76  1  0
 35 77  1  0
 35 78  1  0
M  END
>  <meeko>  (7) 
{"is_sidechain": [false], "free_energy": -5.399, "intermolecular_energy": -9.456, "internal_energy": 2.407}

$$$$
LIB_UXMLFMZVVWDUFA__M_PUB_ALL__e8__s20260927
     RDKit          3D

 78 83  0  0  0  0  0  0  0  0999 V2000
    0.4850  -13.5230   -1.4590 C   0  0  0  0  0  0  0  0  0  0  0  0
    0.3110  -14.4650   -0.5120 C   0  0  0  0  0  0  0  0  0  0  0  0
    1.3160  -14.7720    0.5950 C   0  0  2  0  0  0  0  0  0  0  0  0
    2.5330  -13.8350    0.7650 C   0  0  0  0  0  0  0  0  0  0  0  0
    3.7400  -14.5260    0.0950 C   0  0  2  0  0  0  0  0  0  0  0  0
    4.6830  -14.8180    1.1310 O   0  0  0  0  0  0  0  0  0  0  0  0
    4.3840  -13.6800   -0.9650 C   0  0  1  0  0  0  0  0  0  0  0  0
    5.7080  -13.2360   -0.6680 O   0  0  0  0  0  0  0  0  0  0  0  0
    5.5850  -14.1630   -1.7770 C   0  0  2  0  0  0  0  0  0  0  0  0
    5.6900  -13.6430   -3.1500 C   0  0  0  0  0  0  0  0  0  0  0  0
    6.8240  -13.2370   -3.7330 C   0  0  0  0  0  0  0  0  0  0  0  0
    8.1210  -13.3130   -3.0450 C   0  0  0  0  0  0  0  0  0  0  0  0
    8.9580  -12.4460   -3.2690 O   0  0  0  0  0  0  0  0  0  0  0  0
    8.3710  -14.3470   -2.2100 O   0  0  0  0  0  0  0  0  0  0  0  0
    7.6620  -15.6290   -2.1860 C   0  0  0  0  0  0  0  0  0  0  0  0
    8.5760  -16.5020   -1.2900 C   0  0  0  0  0  0  0  0  0  0  0  0
    7.6840  -16.2840   -3.5810 C   0  0  0  0  0  0  0  0  0  0  0  0
    6.2610  -15.5030   -1.4790 C   0  0  2  0  0  0  0  0  0  0  0  0
    5.2910  -16.7270   -1.7450 C   0  0  2  0  0  0  0  0  0  0  0  0
    4.6550  -16.6010   -3.0180 O   0  0  0  0  0  0  0  0  0  0  0  0
    4.2250  -16.9520   -0.6570 C   0  0  0  0  0  0  0  0  0  0  0  0
    3.1880  -15.8280   -0.5160 C   0  0  1  0  0  0  0  0  0  0  0  0
    1.9470  -16.1780    0.3580 C   0  0  1  0  0  0  0  0  0  0  0  0
    2.3100  -16.8200    1.7160 C   0  0  0  0  0  0  0  0  0  0  0  0
    0.9860  -17.1320   -0.4000 C   0  0  0  0  0  0  0  0  0  0  0  0
   -0.4740  -16.8300   -0.0480 C   0  0  0  0  0  0  0  0  0  0  0  0
   -0.9110  -15.4130   -0.5160 C   0  0  2  0  0  0  0  0  0  0  0  0
   -1.3320  -15.5480   -1.8800 O   0  0  0  0  0  0  0  0  0  0  0  0
   -2.1020  -14.8580    0.3580 C   0  0  1  0  0  0  0  0  0  0  0  0
   -2.2780  -15.6740    1.6530 C   0  0  0  0  0  0  0  0  0  0  0  0
   -1.9510  -13.3390    0.6740 C   0  0  1  0  0  0  0  0  0  0  0  0
   -3.1100  -12.4710    0.1790 C   0  0  0  0  0  0  0  0  0  0  0  0
   -2.8700  -11.0630    0.6200 C   0  0  0  0  0  0  0  0  0  0  0  0
   -2.1610  -10.7890    1.7280 C   0  0  0  0  0  0  0  0  0  0  0  0
   -1.8980   -9.3980    2.2150 C   0  0  0  0  0  0  0  0  0  0  0  0
   -1.6500  -11.8940    2.5850 C   0  0  0  0  0  0  0  0  0  0  0  0
   -1.1680  -11.6850    3.6900 O   0  0  0  0  0  0  0  0  0  0  0  0
   -1.7680  -13.1570    2.0930 O   0  0  0  0  0  0  0  0  0  0  0  0
   -0.2888  -13.3628   -2.2242 H   0  0  0  0  0  0  0  0  0  0  0  0
    1.4009  -12.9139   -1.4672 H   0  0  0  0  0  0  0  0  0  0  0  0
    0.6909  -14.6616    1.4934 H   0  0  0  0  0  0  0  0  0  0  0  0
    2.3349  -12.8683    0.2789 H   0  0  0  0  0  0  0  0  0  0  0  0
    2.7337  -13.6458    1.8299 H   0  0  0  0  0  0  0  0  0  0  0  0
    5.3170  -14.0740    1.1380 H   0  0  0  0  0  0  0  0  0  0  0  0
    3.4135  -13.2504   -1.2541 H   0  0  0  0  0  0  0  0  0  0  0  0
    4.7651  -13.5836   -3.7424 H   0  0  0  0  0  0  0  0  0  0  0  0
    6.7846  -12.8350   -4.7561 H   0  0  0  0  0  0  0  0  0  0  0  0
    8.3586  -16.2943   -0.2319 H   0  0  0  0  0  0  0  0  0  0  0  0
    8.3888  -17.5652   -1.5010 H   0  0  0  0  0  0  0  0  0  0  0  0
    9.6295  -16.2663   -1.5010 H   0  0  0  0  0  0  0  0  0  0  0  0
    7.7207  -17.3780   -3.4719 H   0  0  0  0  0  0  0  0  0  0  0  0
    6.7758  -16.0009   -4.1334 H   0  0  0  0  0  0  0  0  0  0  0  0
    8.5711  -15.9406   -4.1334 H   0  0  0  0  0  0  0  0  0  0  0  0
    6.4790  -15.5337   -0.4012 H   0  0  0  0  0  0  0  0  0  0  0  0
    5.9423  -17.6132   -1.7245 H   0  0  0  0  0  0  0  0  0  0  0  0
    4.0380  -17.3490   -3.1200 H   0  0  0  0  0  0  0  0  0  0  0  0
    3.6883  -17.8826   -0.8936 H   0  0  0  0  0  0  0  0  0  0  0  0
    4.7675  -16.9889    0.2992 H   0  0  0  0  0  0  0  0  0  0  0  0
    2.9000  -15.6925   -1.5689 H   0  0  0  0  0  0  0  0  0  0  0  0
    1.9476  -16.1790    2.5332 H   0  0  0  0  0  0  0  0  0  0  0  0
    1.8386  -17.8111    1.7907 H   0  0  0  0  0  0  0  0  0  0  0  0
    3.4022  -16.9269    1.7907 H   0  0  0  0  0  0  0  0  0  0  0  0
    1.1297  -17.0022   -1.4828 H   0  0  0  0  0  0  0  0  0  0  0  0
    1.2121  -18.1669   -0.1038 H   0  0  0  0  0  0  0  0  0  0  0  0
   -1.1175  -17.5777   -0.5346 H   0  0  0  0  0  0  0  0  0  0  0  0
   -0.5719  -16.8687    1.0469 H   0  0  0  0  0  0  0  0  0  0  0  0
   -1.7980  -14.7290   -2.1350 H   0  0  0  0  0  0  0  0  0  0  0  0
   -3.0135  -14.9731   -0.2470 H   0  0  0  0  0  0  0  0  0  0  0  0
   -2.1361  -15.0161    2.5231 H   0  0  0  0  0  0  0  0  0  0  0  0
   -3.2897  -16.1049    1.6802 H   0  0  0  0  0  0  0  0  0  0  0  0
   -1.5338  -16.4836    1.6802 H   0  0  0  0  0  0  0  0  0  0  0  0
   -1.0661  -12.9971    0.1172 H   0  0  0  0  0  0  0  0  0  0  0  0
   -3.1618  -12.5122   -0.9190 H   0  0  0  0  0  0  0  0  0  0  0  0
   -4.0602  -12.8390    0.5933 H   0  0  0  0  0  0  0  0  0  0  0  0
   -3.2822  -10.2344    0.0254 H   0  0  0  0  0  0  0  0  0  0  0  0
   -1.8963   -9.3888    3.3150 H   0  0  0  0  0  0  0  0  0  0  0  0
   -0.9197   -9.0584    1.8439 H   0  0  0  0  0  0  0  0  0  0  0  0
   -2.6848   -8.7247    1.8439 H   0  0  0  0  0  0  0  0  0  0  0  0
  1  2  2  0
  2  3  1  0
  3  4  1  0
  4  5  1  0
  5  6  1  1
  5  7  1  0
  7  8  1  0
  9  8  1  1
  9 10  1  0
 10 11  2  0
 11 12  1  0
 12 13  2  0
 12 14  1  0
 14 15  1  0
 15 16  1  0
 15 17  1  0
 15 18  1  0
 18 19  1  0
 19 20  1  0
 19 21  1  0
 21 22  1  0
 22 23  1  0
 23 24  1  1
 23 25  1  0
 25 26  1  0
 26 27  1  0
 27 28  1  6
 27 29  1  0
 29 30  1  0
 29 31  1  0
 31 32  1  0
 32 33  1  0
 33 34  2  0
 34 35  1  0
 34 36  1  0
 36 37  2  0
 36 38  1  0
 27  2  1  0
 38 31  1  0
 23  3  1  0
 22  5  1  0
  9  7  1  0
 18  9  1  0
  1 39  1  0
  1 40  1  0
  3 41  1  1
  4 42  1  0
  4 43  1  0
  6 44  1  0
  7 45  1  6
 10 46  1  0
 11 47  1  0
 16 48  1  0
 16 49  1  0
 16 50  1  0
 17 51  1  0
 17 52  1  0
 17 53  1  0
 18 54  1  1
 19 55  1  6
 20 56  1  0
 21 57  1  0
 21 58  1  0
 22 59  1  6
 24 60  1  0
 24 61  1  0
 24 62  1  0
 25 63  1  0
 25 64  1  0
 26 65  1  0
 26 66  1  0
 28 67  1  0
 29 68  1  6
 30 69  1  0
 30 70  1  0
 30 71  1  0
 31 72  1  6
 32 73  1  0
 32 74  1  0
 33 75  1  0
 35 76  1  0
 35 77  1  0
 35 78  1  0
M  END
>  <meeko>  (8) 
{"is_sidechain": [false], "free_energy": -5.387, "intermolecular_energy": -9.242, "internal_energy": 2.213}

$$$$
LIB_UXMLFMZVVWDUFA__M_PUB_ALL__e8__s20260927
     RDKit          3D

 78 83  0  0  0  0  0  0  0  0999 V2000
    3.9410  -17.1880    1.2570 C   0  0  0  0  0  0  0  0  0  0  0  0
    3.5930  -16.1640    0.4530 C   0  0  0  0  0  0  0  0  0  0  0  0
    2.8290  -14.9250    0.9140 C   0  0  2  0  0  0  0  0  0  0  0  0
    2.5900  -14.7310    2.4280 C   0  0  0  0  0  0  0  0  0  0  0  0
    1.1430  -15.1800    2.7240 C   0  0  2  0  0  0  0  0  0  0  0  0
    0.4230  -14.0200    3.1540 O   0  0  0  0  0  0  0  0  0  0  0  0
    1.0660  -16.2520    3.7720 C   0  0  1  0  0  0  0  0  0  0  0  0
    0.4270  -15.8680    4.9900 O   0  0  0  0  0  0  0  0  0  0  0  0
   -0.2600  -16.8760    4.2050 C   0  0  2  0  0  0  0  0  0  0  0  0
   -0.2010  -18.2800    4.6470 C   0  0  0  0  0  0  0  0  0  0  0  0
   -0.8680  -18.7840    5.6920 C   0  0  0  0  0  0  0  0  0  0  0  0
   -1.8110  -17.9880    6.5230 C   0  0  0  0  0  0  0  0  0  0  0  0
   -1.9610  -18.2490    7.7110 O   0  0  0  0  0  0  0  0  0  0  0  0
   -2.5130  -17.0040    5.9150 O   0  0  0  0  0  0  0  0  0  0  0  0
   -2.8190  -16.9180    4.4850 C   0  0  0  0  0  0  0  0  0  0  0  0
   -3.9450  -15.8540    4.4460 C   0  0  0  0  0  0  0  0  0  0  0  0
   -3.4580  -18.2310    3.9910 C   0  0  0  0  0  0  0  0  0  0  0  0
   -1.5970  -16.3660    3.6620 C   0  0  2  0  0  0  0  0  0  0  0  0
   -1.7440  -16.5730    2.1250 C   0  0  2  0  0  0  0  0  0  0  0  0
   -1.4340  -17.9140    1.7450 O   0  0  0  0  0  0  0  0  0  0  0  0
   -0.9420  -15.5920    1.2500 C   0  0  0  0  0  0  0  0  0  0  0  0
    0.5840  -15.6950    1.3840 C   0  0  1  0  0  0  0  0  0  0  0  0
    1.3980  -14.9290    0.2980 C   0  0  1  0  0  0  0  0  0  0  0  0
    0.9210  -13.4750    0.0820 C   0  0  0  0  0  0  0  0  0  0  0  0
    1.3460  -15.6740   -1.0620 C   0  0  0  0  0  0  0  0  0  0  0  0
    2.6700  -15.5220   -1.8190 C   0  0  0  0  0  0  0  0  0  0  0  0
    3.8550  -16.1940   -1.0710 C   0  0  2  0  0  0  0  0  0  0  0  0
    3.8570  -17.5720   -1.4690 O   0  0  0  0  0  0  0  0  0  0  0  0
    5.2320  -15.5260   -1.4540 C   0  0  1  0  0  0  0  0  0  0  0  0
    5.3020  -15.2000   -2.9590 C   0  0  0  0  0  0  0  0  0  0  0  0
    5.5390  -14.2610   -0.5960 C   0  0  1  0  0  0  0  0  0  0  0  0
    6.6600  -14.4470    0.4280 C   0  0  0  0  0  0  0  0  0  0  0  0
    6.8970  -13.1400    1.1150 C   0  0  0  0  0  0  0  0  0  0  0  0
    6.6410  -11.9720    0.5020 C   0  0  0  0  0  0  0  0  0  0  0  0
    6.8670  -10.6380    1.1430 C   0  0  0  0  0  0  0  0  0  0  0  0
    6.1750  -11.9520   -0.9110 C   0  0  0  0  0  0  0  0  0  0  0  0
    6.1120  -10.9150   -1.5580 O   0  0  0  0  0  0  0  0  0  0  0  0
    5.8430  -13.1500   -1.4650 O   0  0  0  0  0  0  0  0  0  0  0  0
    4.4923  -18.0468    0.8465 H   0  0  0  0  0  0  0  0  0  0  0  0
    3.6737  -17.1651    2.3238 H   0  0  0  0  0  0  0  0  0  0  0  0
    3.4999  -14.1186    0.5830 H   0  0  0  0  0  0  0  0  0  0  0  0
    3.2997  -15.3440    3.0030 H   0  0  0  0  0  0  0  0  0  0  0  0
    2.7385  -13.6795    2.7147 H   0  0  0  0  0  0  0  0  0  0  0  0
    0.8160  -13.7590    4.0100 H   0  0  0  0  0  0  0  0  0  0  0  0
    2.0209  -16.6862    3.4410 H   0  0  0  0  0  0  0  0  0  0  0  0
    0.4401  -18.9664    4.0745 H   0  0  0  0  0  0  0  0  0  0  0  0
   -0.7109  -19.8417    5.9499 H   0  0  0  0  0  0  0  0  0  0  0  0
   -4.2304  -15.5843    5.4735 H   0  0  0  0  0  0  0  0  0  0  0  0
   -3.5851  -14.9584    3.9184 H   0  0  0  0  0  0  0  0  0  0  0  0
   -4.8188  -16.2640    3.9184 H   0  0  0  0  0  0  0  0  0  0  0  0
   -3.7554  -18.8421    4.8559 H   0  0  0  0  0  0  0  0  0  0  0  0
   -4.3449  -18.0009    3.3823 H   0  0  0  0  0  0  0  0  0  0  0  0
   -2.7297  -18.7869    3.3823 H   0  0  0  0  0  0  0  0  0  0  0  0
   -1.6003  -15.2756    3.8071 H   0  0  0  0  0  0  0  0  0  0  0  0
   -2.8050  -16.3573    1.9309 H   0  0  0  0  0  0  0  0  0  0  0  0
   -1.7230  -18.0390    0.8230 H   0  0  0  0  0  0  0  0  0  0  0  0
   -1.2049  -15.7805    0.1986 H   0  0  0  0  0  0  0  0  0  0  0  0
   -1.2117  -14.5833    1.5960 H   0  0  0  0  0  0  0  0  0  0  0  0
    0.7164  -16.7820    1.2797 H   0  0  0  0  0  0  0  0  0  0  0  0
    0.7626  -12.9923    1.0577 H   0  0  0  0  0  0  0  0  0  0  0  0
    1.6838  -12.9189   -0.4827 H   0  0  0  0  0  0  0  0  0  0  0  0
   -0.0230  -13.4789   -0.4827 H   0  0  0  0  0  0  0  0  0  0  0  0
    1.1552  -16.7420   -0.8807 H   0  0  0  0  0  0  0  0  0  0  0  0
    0.5404  -15.2382   -1.6712 H   0  0  0  0  0  0  0  0  0  0  0  0
    2.5668  -15.9880   -2.8101 H   0  0  0  0  0  0  0  0  0  0  0  0
    2.8895  -14.4474   -1.9025 H   0  0  0  0  0  0  0  0  0  0  0  0
    2.9420  -17.9050   -1.4070 H   0  0  0  0  0  0  0  0  0  0  0  0
    6.0121  -16.2677   -1.2273 H   0  0  0  0  0  0  0  0  0  0  0  0
    5.5312  -14.1325   -3.0927 H   0  0  0  0  0  0  0  0  0  0  0  0
    6.0905  -15.8060   -3.4292 H   0  0  0  0  0  0  0  0  0  0  0  0
    4.3342  -15.4289   -3.4292 H   0  0  0  0  0  0  0  0  0  0  0  0
    4.6306  -14.0627   -0.0082 H   0  0  0  0  0  0  0  0  0  0  0  0
    6.3652  -15.2065    1.1670 H   0  0  0  0  0  0  0  0  0  0  0  0
    7.5793  -14.7800   -0.0760 H   0  0  0  0  0  0  0  0  0  0  0  0
    7.2888  -13.1347    2.1428 H   0  0  0  0  0  0  0  0  0  0  0  0
    6.8482  -10.7491    2.2372 H   0  0  0  0  0  0  0  0  0  0  0  0
    7.8450  -10.2424    0.8314 H   0  0  0  0  0  0  0  0  0  0  0  0
    6.0739   -9.9424    0.8314 H   0  0  0  0  0  0  0  0  0  0  0  0
  1  2  2  0
  2  3  1  0
  3  4  1  0
  4  5  1  0
  5  6  1  1
  5  7  1  0
  7  8  1  0
  9  8  1  1
  9 10  1  0
 10 11  2  0
 11 12  1  0
 12 13  2  0
 12 14  1  0
 14 15  1  0
 15 16  1  0
 15 17  1  0
 15 18  1  0
 18 19  1  0
 19 20  1  0
 19 21  1  0
 21 22  1  0
 22 23  1  0
 23 24  1  6
 23 25  1  0
 25 26  1  0
 26 27  1  0
 27 28  1  6
 27 29  1  0
 29 30  1  0
 29 31  1  0
 31 32  1  0
 32 33  1  0
 33 34  2  0
 34 35  1  0
 34 36  1  0
 36 37  2  0
 36 38  1  0
 27  2  1  0
 38 31  1  0
 23  3  1  0
 22  5  1  0
  9  7  1  0
 18  9  1  0
  1 39  1  0
  1 40  1  0
  3 41  1  6
  4 42  1  0
  4 43  1  0
  6 44  1  0
  7 45  1  1
 10 46  1  0
 11 47  1  0
 16 48  1  0
 16 49  1  0
 16 50  1  0
 17 51  1  0
 17 52  1  0
 17 53  1  0
 18 54  1  6
 19 55  1  6
 20 56  1  0
 21 57  1  0
 21 58  1  0
 22 59  1  6
 24 60  1  0
 24 61  1  0
 24 62  1  0
 25 63  1  0
 25 64  1  0
 26 65  1  0
 26 66  1  0
 28 67  1  0
 29 68  1  6
 30 69  1  0
 30 70  1  0
 30 71  1  0
 31 72  1  1
 32 73  1  0
 32 74  1  0
 33 75  1  0
 35 76  1  0
 35 77  1  0
 35 78  1  0
M  END
>  <meeko>  (9) 
{"is_sidechain": [false], "free_energy": -5.364, "intermolecular_energy": -9.34, "internal_energy": 2.349}

$$$$
