LIB_NXDBMKBCSMHZLE__M_PUB_ALL__e8__s20260927
     RDKit          3D

 83 89  0  0  0  0  0  0  0  0999 V2000
    2.7610  -14.1000   -4.7220 C   0  0  0  0  0  0  0  0  0  0  0  0
    2.8190  -14.2150   -3.2000 C   0  0  2  0  0  0  0  0  0  0  0  0
    1.4070  -14.0730   -2.6020 C   0  0  0  0  0  0  0  0  0  0  0  0
    1.4200  -13.8530   -1.0770 C   0  0  1  0  0  0  0  0  0  0  0  0
    2.7330  -14.1640   -0.5760 O   0  0  0  0  0  0  0  0  0  0  0  0
    3.5490  -13.0570   -1.0150 C   0  0  1  0  0  0  0  0  0  0  0  0
    2.6710  -11.8410   -0.6760 C   0  0  0  0  0  0  0  0  0  0  0  0
    1.2320  -12.3770   -0.7070 C   0  0  2  0  0  0  0  0  0  0  0  0
    0.4550  -12.1480    0.6210 C   0  0  0  0  0  0  0  0  0  0  0  0
   -0.9590  -12.7390    0.6380 C   0  0  0  0  0  0  0  0  0  0  0  0
    0.3820  -10.6530    0.9650 C   0  0  0  0  0  0  0  0  0  0  0  0
    1.1820  -12.7830    1.6830 O   0  0  0  0  0  0  0  0  0  0  0  0
    4.9500  -13.1140   -0.3470 C   0  0  2  0  0  0  0  0  0  0  0  0
    5.0540  -12.3380    0.8360 O   0  0  0  0  0  0  0  0  0  0  0  0
    5.9300  -12.6700   -1.4620 C   0  0  1  0  0  0  0  0  0  0  0  0
    5.8510  -11.1200   -1.6380 C   0  0  0  0  0  0  0  0  0  0  0  0
    7.4090  -13.0880   -1.2250 C   0  0  2  0  0  0  0  0  0  0  0  0
    8.1220  -12.2830   -0.1280 C   0  0  0  0  0  0  0  0  0  0  0  0
    9.5550  -12.7710    0.0650 C   0  0  0  0  0  0  0  0  0  0  0  0
   10.4020  -12.4170   -1.1640 C   0  0  1  0  0  0  0  0  0  0  0  0
   11.9060  -12.8250   -1.0540 C   0  0  0  0  0  0  0  0  0  0  0  0
   12.1310  -14.3350   -0.8840 C   0  0  0  0  0  0  0  0  0  0  0  0
   12.5690  -12.1080    0.1410 C   0  0  0  0  0  0  0  0  0  0  0  0
   12.6190  -12.3800   -2.3460 C   0  0  0  0  0  0  0  0  0  0  0  0
   13.7170  -11.8190   -2.3370 O   0  0  0  0  0  0  0  0  0  0  0  0
   11.9710  -12.7450   -3.6620 C   0  0  0  0  0  0  0  0  0  0  0  0
   10.5150  -12.3130   -3.6780 C   0  0  0  0  0  0  0  0  0  0  0  0
    9.7710  -12.8900   -2.4830 C   0  0  1  0  0  0  0  0  0  0  0  0
    9.2180  -14.2800   -2.6400 C   0  0  0  0  0  0  0  0  0  0  0  0
    8.2340  -13.1220   -2.5460 C   0  0  1  0  0  0  0  0  0  0  0  0
    7.5190  -12.7110   -3.8420 C   0  0  0  0  0  0  0  0  0  0  0  0
    6.0050  -12.9560   -3.9560 C   0  0  0  0  0  0  0  0  0  0  0  0
    5.3450  -13.4790   -2.6780 C   0  0  1  0  0  0  0  0  0  0  0  0
    5.6100  -15.0140   -2.6130 C   0  0  0  0  0  0  0  0  0  0  0  0
    3.7990  -13.1990   -2.5600 C   0  0  1  0  0  0  0  0  0  0  0  0
    2.2817  -13.1497   -4.9999 H   0  0  0  0  0  0  0  0  0  0  0  0
    3.7817  -14.1293   -5.1311 H   0  0  0  0  0  0  0  0  0  0  0  0
    2.1778  -14.9382   -5.1311 H   0  0  0  0  0  0  0  0  0  0  0  0
    3.2110  -15.2151   -2.9628 H   0  0  0  0  0  0  0  0  0  0  0  0
    0.9100  -13.2138   -3.0762 H   0  0  0  0  0  0  0  0  0  0  0  0
    0.8711  -15.0141   -2.7948 H   0  0  0  0  0  0  0  0  0  0  0  0
    0.6135  -14.4764   -0.6637 H   0  0  0  0  0  0  0  0  0  0  0  0
    2.9180  -11.4507    0.3223 H   0  0  0  0  0  0  0  0  0  0  0  0
    2.8206  -11.0105   -1.3816 H   0  0  0  0  0  0  0  0  0  0  0  0
    0.5937  -11.8453   -1.4280 H   0  0  0  0  0  0  0  0  0  0  0  0
   -1.2867  -12.8760    1.6791 H   0  0  0  0  0  0  0  0  0  0  0  0
   -1.6489  -12.0539    0.1236 H   0  0  0  0  0  0  0  0  0  0  0  0
   -0.9562  -13.7113    0.1236 H   0  0  0  0  0  0  0  0  0  0  0  0
    0.3759  -10.5281    2.0579 H   0  0  0  0  0  0  0  0  0  0  0  0
    1.2560  -10.1363    0.5418 H   0  0  0  0  0  0  0  0  0  0  0  0
   -0.5382  -10.2239    0.5418 H   0  0  0  0  0  0  0  0  0  0  0  0
    0.9130  -12.3750    2.5250 H   0  0  0  0  0  0  0  0  0  0  0  0
    5.1781  -14.1255    0.0201 H   0  0  0  0  0  0  0  0  0  0  0  0
    4.2500  -11.7890    0.8800 H   0  0  0  0  0  0  0  0  0  0  0  0
    5.8265  -10.6394   -0.6488 H   0  0  0  0  0  0  0  0  0  0  0  0
    6.7324  -10.7688   -2.1946 H   0  0  0  0  0  0  0  0  0  0  0  0
    4.9384  -10.8602   -2.1946 H   0  0  0  0  0  0  0  0  0  0  0  0
    7.3520  -14.1178   -0.8426 H   0  0  0  0  0  0  0  0  0  0  0  0
    8.1392  -11.2212   -0.4147 H   0  0  0  0  0  0  0  0  0  0  0  0
    7.5756  -12.4183    0.8170 H   0  0  0  0  0  0  0  0  0  0  0  0
    9.9865  -12.2899    0.9552 H   0  0  0  0  0  0  0  0  0  0  0  0
    9.5490  -13.8632    0.1959 H   0  0  0  0  0  0  0  0  0  0  0  0
   10.4020  -11.3172   -1.1823 H   0  0  0  0  0  0  0  0  0  0  0  0
   12.1678  -14.5819    0.1873 H   0  0  0  0  0  0  0  0  0  0  0  0
   11.3048  -14.8846   -1.3588 H   0  0  0  0  0  0  0  0  0  0  0  0
   13.0815  -14.6198   -1.3588 H   0  0  0  0  0  0  0  0  0  0  0  0
   12.1813  -12.5273    1.0812 H   0  0  0  0  0  0  0  0  0  0  0  0
   13.6586  -12.2526    0.0968 H   0  0  0  0  0  0  0  0  0  0  0  0
   12.3397  -11.0331    0.0968 H   0  0  0  0  0  0  0  0  0  0  0  0
   12.5065  -12.2419   -4.4806 H   0  0  0  0  0  0  0  0  0  0  0  0
   12.0189  -13.8364   -3.7906 H   0  0  0  0  0  0  0  0  0  0  0  0
   10.4635  -11.2149   -3.6398 H   0  0  0  0  0  0  0  0  0  0  0  0
   10.0454  -12.6846   -4.6007 H   0  0  0  0  0  0  0  0  0  0  0  0
    9.3439  -14.8118   -3.5946 H   0  0  0  0  0  0  0  0  0  0  0  0
    9.3469  -15.2233   -2.0890 H   0  0  0  0  0  0  0  0  0  0  0  0
    7.6839  -11.6316   -3.9752 H   0  0  0  0  0  0  0  0  0  0  0  0
    7.9558  -13.3671   -4.6094 H   0  0  0  0  0  0  0  0  0  0  0  0
    5.5231  -12.0048   -4.2262 H   0  0  0  0  0  0  0  0  0  0  0  0
    5.8729  -13.7389   -4.7173 H   0  0  0  0  0  0  0  0  0  0  0  0
    5.6650  -15.3324   -1.5615 H   0  0  0  0  0  0  0  0  0  0  0  0
    4.7909  -15.5491   -3.1158 H   0  0  0  0  0  0  0  0  0  0  0  0
    6.5611  -15.2435   -3.1158 H   0  0  0  0  0  0  0  0  0  0  0  0
    3.5702  -12.3038   -3.1569 H   0  0  0  0  0  0  0  0  0  0  0  0
  1  2  1  0
  2  3  1  0
  3  4  1  0
  4  5  1  0
  5  6  1  0
  6  7  1  6
  7  8  1  0
  8  9  1  0
  9 10  1  0
  9 11  1  0
  9 12  1  0
  6 13  1  0
 13 14  1  0
 13 15  1  0
 15 16  1  6
 15 17  1  0
 17 18  1  0
 18 19  1  0
 19 20  1  0
 20 21  1  0
 21 22  1  0
 21 23  1  0
 21 24  1  0
 24 25  2  0
 24 26  1  0
 26 27  1  0
 28 27  1  6
 28 29  1  0
 30 29  1  6
 30 31  1  0
 31 32  1  0
 32 33  1  0
 33 34  1  1
 33 35  1  0
 35  2  1  0
  8  4  1  0
 33 15  1  0
 35  6  1  0
 30 17  1  0
 28 20  1  0
 30 28  1  0
  1 36  1  0
  1 37  1  0
  1 38  1  0
  2 39  1  6
  3 40  1  0
  3 41  1  0
  4 42  1  1
  7 43  1  0
  7 44  1  0
  8 45  1  6
 10 46  1  0
 10 47  1  0
 10 48  1  0
 11 49  1  0
 11 50  1  0
 11 51  1  0
 12 52  1  0
 13 53  1  1
 14 54  1  0
 16 55  1  0
 16 56  1  0
 16 57  1  0
 17 58  1  1
 18 59  1  0
 18 60  1  0
 19 61  1  0
 19 62  1  0
 20 63  1  6
 22 64  1  0
 22 65  1  0
 22 66  1  0
 23 67  1  0
 23 68  1  0
 23 69  1  0
 26 70  1  0
 26 71  1  0
 27 72  1  0
 27 73  1  0
 29 74  1  0
 29 75  1  0
 31 76  1  0
 31 77  1  0
 32 78  1  0
 32 79  1  0
 34 80  1  0
 34 81  1  0
 34 82  1  0
 35 83  1  6
M  END
>  <meeko>  (1) 
{"is_sidechain": [false], "free_energy": -8.581, "intermolecular_energy": -9.584, "internal_energy": -0.49}

$$$$
LIB_NXDBMKBCSMHZLE__M_PUB_ALL__e8__s20260927
     RDKit          3D

 83 89  0  0  0  0  0  0  0  0999 V2000
    4.8680  -15.7370    0.6250 C   0  0  0  0  0  0  0  0  0  0  0  0
    4.6440  -14.3070    0.1400 C   0  0  2  0  0  0  0  0  0  0  0  0
    3.7140  -13.5550    1.1100 C   0  0  0  0  0  0  0  0  0  0  0  0
    3.1840  -12.2300    0.5290 C   0  0  1  0  0  0  0  0  0  0  0  0
    3.9590  -11.8930   -0.6360 O   0  0  0  0  0  0  0  0  0  0  0  0
    3.5090  -12.8270   -1.6410 C   0  0  1  0  0  0  0  0  0  0  0  0
    1.9810  -12.7820   -1.4760 C   0  0  0  0  0  0  0  0  0  0  0  0
    1.7570  -12.3700   -0.0140 C   0  0  2  0  0  0  0  0  0  0  0  0
    0.8880  -11.0890    0.1440 C   0  0  0  0  0  0  0  0  0  0  0  0
   -0.5580  -11.3550    0.5770 C   0  0  0  0  0  0  0  0  0  0  0  0
    0.8840  -10.2630   -1.1500 C   0  0  0  0  0  0  0  0  0  0  0  0
    1.4800  -10.2670    1.1600 O   0  0  0  0  0  0  0  0  0  0  0  0
    4.0730  -12.4390   -3.0350 C   0  0  2  0  0  0  0  0  0  0  0  0
    3.1930  -11.6390   -3.8080 O   0  0  0  0  0  0  0  0  0  0  0  0
    4.4190  -13.7940   -3.7030 C   0  0  1  0  0  0  0  0  0  0  0  0
    3.1070  -14.4820   -4.1980 C   0  0  0  0  0  0  0  0  0  0  0  0
    5.4250  -13.6930   -4.8850 C   0  0  2  0  0  0  0  0  0  0  0  0
    4.8310  -13.0890   -6.1670 C   0  0  0  0  0  0  0  0  0  0  0  0
    5.8830  -12.9950   -7.2670 C   0  0  0  0  0  0  0  0  0  0  0  0
    6.2690  -14.3990   -7.7490 C   0  0  1  0  0  0  0  0  0  0  0  0
    7.3070  -14.4230   -8.9160 C   0  0  0  0  0  0  0  0  0  0  0  0
    8.6570  -13.7810   -8.5620 C   0  0  0  0  0  0  0  0  0  0  0  0
    6.7410  -13.6890  -10.1510 C   0  0  0  0  0  0  0  0  0  0  0  0
    7.5650  -15.8930   -9.2990 C   0  0  0  0  0  0  0  0  0  0  0  0
    7.6100  -16.2740  -10.4700 O   0  0  0  0  0  0  0  0  0  0  0  0
    7.8670  -16.8630   -8.1800 C   0  0  0  0  0  0  0  0  0  0  0  0
    6.8100  -16.7700   -7.0930 C   0  0  0  0  0  0  0  0  0  0  0  0
    6.6710  -15.3380   -6.6000 C   0  0  1  0  0  0  0  0  0  0  0  0
    7.6230  -14.9010   -5.5200 C   0  0  0  0  0  0  0  0  0  0  0  0
    6.1490  -15.0430   -5.1640 C   0  0  1  0  0  0  0  0  0  0  0  0
    5.7570  -16.2520   -4.3040 C   0  0  0  0  0  0  0  0  0  0  0  0
    5.2680  -16.0050   -2.8660 C   0  0  0  0  0  0  0  0  0  0  0  0
    5.1050  -14.5290   -2.4930 C   0  0  1  0  0  0  0  0  0  0  0  0
    6.5190  -13.9830   -2.1300 C   0  0  0  0  0  0  0  0  0  0  0  0
    4.1030  -14.2440   -1.3110 C   0  0  1  0  0  0  0  0  0  0  0  0
    4.8708  -15.7549    1.7248 H   0  0  0  0  0  0  0  0  0  0  0  0
    4.0600  -16.3822    0.2498 H   0  0  0  0  0  0  0  0  0  0  0  0
    5.8346  -16.1043    0.2498 H   0  0  0  0  0  0  0  0  0  0  0  0
    5.6255  -13.8106    0.1261 H   0  0  0  0  0  0  0  0  0  0  0  0
    2.8565  -14.2022    1.3463 H   0  0  0  0  0  0  0  0  0  0  0  0
    4.3021  -13.3097    2.0066 H   0  0  0  0  0  0  0  0  0  0  0  0
    3.2338  -11.4897    1.3410 H   0  0  0  0  0  0  0  0  0  0  0  0
    1.5390  -12.0419   -2.1593 H   0  0  0  0  0  0  0  0  0  0  0  0
    1.5090  -13.7470   -1.7127 H   0  0  0  0  0  0  0  0  0  0  0  0
    1.1668  -13.1061    0.5516 H   0  0  0  0  0  0  0  0  0  0  0  0
   -0.6158  -11.3656    1.6754 H   0  0  0  0  0  0  0  0  0  0  0  0
   -1.2105  -10.5618    0.1832 H   0  0  0  0  0  0  0  0  0  0  0  0
   -0.8855  -12.3285    0.1832 H   0  0  0  0  0  0  0  0  0  0  0  0
    0.8788   -9.1916   -0.9010 H   0  0  0  0  0  0  0  0  0  0  0  0
    1.7833  -10.4984   -1.7381 H   0  0  0  0  0  0  0  0  0  0  0  0
   -0.0130  -10.5071   -1.7381 H   0  0  0  0  0  0  0  0  0  0  0  0
    2.4410  -10.2390    1.0100 H   0  0  0  0  0  0  0  0  0  0  0  0
    4.9556  -11.7888   -2.9440 H   0  0  0  0  0  0  0  0  0  0  0  0
    3.4570  -10.7130   -3.6590 H   0  0  0  0  0  0  0  0  0  0  0  0
    2.5079  -14.7961   -3.3306 H   0  0  0  0  0  0  0  0  0  0  0  0
    2.5274  -13.7718   -4.8060 H   0  0  0  0  0  0  0  0  0  0  0  0
    3.3617  -15.3626   -4.8060 H   0  0  0  0  0  0  0  0  0  0  0  0
    6.1844  -12.9730   -4.5462 H   0  0  0  0  0  0  0  0  0  0  0  0
    4.0037  -13.7253   -6.5143 H   0  0  0  0  0  0  0  0  0  0  0  0
    4.4696  -12.0749   -5.9410 H   0  0  0  0  0  0  0  0  0  0  0  0
    5.4759  -12.4196   -8.1115 H   0  0  0  0  0  0  0  0  0  0  0  0
    6.7768  -12.4930   -6.8682 H   0  0  0  0  0  0  0  0  0  0  0  0
    5.3398  -14.7975   -8.1824 H   0  0  0  0  0  0  0  0  0  0  0  0
    8.7634  -13.7304   -7.4683 H   0  0  0  0  0  0  0  0  0  0  0  0
    9.4729  -14.3875   -8.9821 H   0  0  0  0  0  0  0  0  0  0  0  0
    8.7014  -12.7653   -8.9821 H   0  0  0  0  0  0  0  0  0  0  0  0
    6.1001  -12.8578   -9.8217 H   0  0  0  0  0  0  0  0  0  0  0  0
    7.5711  -13.2947  -10.7555 H   0  0  0  0  0  0  0  0  0  0  0  0
    6.1486  -14.3916  -10.7555 H   0  0  0  0  0  0  0  0  0  0  0  0
    7.8824  -17.8865   -8.5829 H   0  0  0  0  0  0  0  0  0  0  0  0
    8.8457  -16.6106   -7.7459 H   0  0  0  0  0  0  0  0  0  0  0  0
    5.8447  -17.1078   -7.4981 H   0  0  0  0  0  0  0  0  0  0  0  0
    7.1134  -17.4069   -6.2490 H   0  0  0  0  0  0  0  0  0  0  0  0
    8.3528  -15.6172   -5.1146 H   0  0  0  0  0  0  0  0  0  0  0  0
    8.3589  -14.0884   -5.4293 H   0  0  0  0  0  0  0  0  0  0  0  0
    4.9508  -16.7797   -4.8346 H   0  0  0  0  0  0  0  0  0  0  0  0
    6.6982  -16.8067   -4.1758 H   0  0  0  0  0  0  0  0  0  0  0  0
    4.2926  -16.4991   -2.7457 H   0  0  0  0  0  0  0  0  0  0  0  0
    6.0427  -16.4114   -2.1991 H   0  0  0  0  0  0  0  0  0  0  0  0
    6.6263  -13.9416   -1.0360 H   0  0  0  0  0  0  0  0  0  0  0  0
    7.2878  -14.6489   -2.5489 H   0  0  0  0  0  0  0  0  0  0  0  0
    6.6408  -12.9732   -2.5489 H   0  0  0  0  0  0  0  0  0  0  0  0
    3.3708  -15.0644   -1.2821 H   0  0  0  0  0  0  0  0  0  0  0  0
  1  2  1  0
  2  3  1  0
  3  4  1  0
  4  5  1  0
  5  6  1  0
  6  7  1  6
  7  8  1  0
  8  9  1  0
  9 10  1  0
  9 11  1  0
  9 12  1  0
  6 13  1  0
 13 14  1  0
 13 15  1  0
 15 16  1  6
 15 17  1  0
 17 18  1  0
 18 19  1  0
 19 20  1  0
 20 21  1  0
 21 22  1  0
 21 23  1  0
 21 24  1  0
 24 25  2  0
 24 26  1  0
 26 27  1  0
 28 27  1  6
 28 29  1  0
 30 29  1  1
 30 31  1  0
 31 32  1  0
 32 33  1  0
 33 34  1  1
 33 35  1  0
 35  2  1  0
  8  4  1  0
 33 15  1  0
 35  6  1  0
 30 17  1  0
 28 20  1  0
 30 28  1  0
  1 36  1  0
  1 37  1  0
  1 38  1  0
  2 39  1  6
  3 40  1  0
  3 41  1  0
  4 42  1  1
  7 43  1  0
  7 44  1  0
  8 45  1  1
 10 46  1  0
 10 47  1  0
 10 48  1  0
 11 49  1  0
 11 50  1  0
 11 51  1  0
 12 52  1  0
 13 53  1  1
 14 54  1  0
 16 55  1  0
 16 56  1  0
 16 57  1  0
 17 58  1  1
 18 59  1  0
 18 60  1  0
 19 61  1  0
 19 62  1  0
 20 63  1  6
 22 64  1  0
 22 65  1  0
 22 66  1  0
 23 67  1  0
 23 68  1  0
 23 69  1  0
 26 70  1  0
 26 71  1  0
 27 72  1  0
 27 73  1  0
 29 74  1  0
 29 75  1  0
 31 76  1  0
 31 77  1  0
 32 78  1  0
 32 79  1  0
 34 80  1  0
 34 81  1  0
 34 82  1  0
 35 83  1  1
M  END
>  <meeko>  (2) 
{"is_sidechain": [false], "free_energy": -8.563, "intermolecular_energy": -9.715, "internal_energy": -0.339}

$$$$
LIB_NXDBMKBCSMHZLE__M_PUB_ALL__e8__s20260927
     RDKit          3D

 83 89  0  0  0  0  0  0  0  0999 V2000
    1.9710  -12.8260   -4.3360 C   0  0  0  0  0  0  0  0  0  0  0  0
    2.8140  -12.3180   -3.1680 C   0  0  2  0  0  0  0  0  0  0  0  0
    4.0940  -11.6410   -3.6910 C   0  0  0  0  0  0  0  0  0  0  0  0
    5.1390  -11.3960   -2.5860 C   0  0  1  0  0  0  0  0  0  0  0  0
    4.5060  -11.5710   -1.3040 O   0  0  0  0  0  0  0  0  0  0  0  0
    4.3260  -12.9990   -1.1930 C   0  0  1  0  0  0  0  0  0  0  0  0
    5.6860  -13.5440   -1.6590 C   0  0  0  0  0  0  0  0  0  0  0  0
    6.2430  -12.4600   -2.5920 C   0  0  2  0  0  0  0  0  0  0  0  0
    7.6410  -11.9290   -2.1620 C   0  0  0  0  0  0  0  0  0  0  0  0
    8.6350  -11.7560   -3.3160 C   0  0  0  0  0  0  0  0  0  0  0  0
    8.2650  -12.8300   -1.0870 C   0  0  0  0  0  0  0  0  0  0  0  0
    7.4670  -10.6340   -1.5690 O   0  0  0  0  0  0  0  0  0  0  0  0
    3.8750  -13.3800    0.2430 C   0  0  2  0  0  0  0  0  0  0  0  0
    4.9430  -13.7470    1.1020 O   0  0  0  0  0  0  0  0  0  0  0  0
    2.8370  -14.5120    0.0370 C   0  0  1  0  0  0  0  0  0  0  0  0
    3.5780  -15.8430   -0.3050 C   0  0  0  0  0  0  0  0  0  0  0  0
    1.8870  -14.7460    1.2460 C   0  0  2  0  0  0  0  0  0  0  0  0
    2.5560  -15.4310    2.4470 C   0  0  0  0  0  0  0  0  0  0  0  0
    1.5710  -15.5970    3.6010 C   0  0  0  0  0  0  0  0  0  0  0  0
    0.4950  -16.6260    3.2300 C   0  0  1  0  0  0  0  0  0  0  0  0
   -0.5430  -16.9160    4.3620 C   0  0  0  0  0  0  0  0  0  0  0  0
   -1.3540  -15.6850    4.7930 C   0  0  0  0  0  0  0  0  0  0  0  0
    0.1720  -17.4760    5.6110 C   0  0  0  0  0  0  0  0  0  0  0  0
   -1.5300  -17.9800    3.8470 C   0  0  0  0  0  0  0  0  0  0  0  0
   -1.8860  -18.9410    4.5320 O   0  0  0  0  0  0  0  0  0  0  0  0
   -2.1440  -17.7600    2.4830 C   0  0  0  0  0  0  0  0  0  0  0  0
   -1.0660  -17.4850    1.4490 C   0  0  0  0  0  0  0  0  0  0  0  0
   -0.1870  -16.3220    1.8870 C   0  0  1  0  0  0  0  0  0  0  0  0
   -0.6760  -14.9420    1.5430 C   0  0  0  0  0  0  0  0  0  0  0  0
    0.5670  -15.4620    0.8330 C   0  0  1  0  0  0  0  0  0  0  0  0
    0.4070  -15.8650   -0.6400 C   0  0  0  0  0  0  0  0  0  0  0  0
    1.1090  -15.0180   -1.7150 C   0  0  0  0  0  0  0  0  0  0  0  0
    2.0160  -13.9140   -1.1660 C   0  0  1  0  0  0  0  0  0  0  0  0
    1.1030  -12.7100   -0.7830 C   0  0  0  0  0  0  0  0  0  0  0  0
    3.1520  -13.4320   -2.1450 C   0  0  1  0  0  0  0  0  0  0  0  0
    1.0894  -13.3573   -3.9481 H   0  0  0  0  0  0  0  0  0  0  0  0
    1.6447  -11.9740   -4.9505 H   0  0  0  0  0  0  0  0  0  0  0  0
    2.5718  -13.5126   -4.9505 H   0  0  0  0  0  0  0  0  0  0  0  0
    2.2092  -11.5746   -2.6280 H   0  0  0  0  0  0  0  0  0  0  0  0
    4.5424  -12.2861   -4.4609 H   0  0  0  0  0  0  0  0  0  0  0  0
    3.8058  -10.6594   -4.0952 H   0  0  0  0  0  0  0  0  0  0  0  0
    5.5495  -10.3904   -2.7602 H   0  0  0  0  0  0  0  0  0  0  0  0
    6.3564  -13.6986   -0.8007 H   0  0  0  0  0  0  0  0  0  0  0  0
    5.5931  -14.5178   -2.1622 H   0  0  0  0  0  0  0  0  0  0  0  0
    6.4533  -12.8350   -3.6045 H   0  0  0  0  0  0  0  0  0  0  0  0
    9.6420  -11.5807   -2.9094 H   0  0  0  0  0  0  0  0  0  0  0  0
    8.6422  -12.6664   -3.9334 H   0  0  0  0  0  0  0  0  0  0  0  0
    8.3342  -10.8967   -3.9334 H   0  0  0  0  0  0  0  0  0  0  0  0
    8.0006  -12.4482   -0.0899 H   0  0  0  0  0  0  0  0  0  0  0  0
    7.8824  -13.8551   -1.2004 H   0  0  0  0  0  0  0  0  0  0  0  0
    9.3591  -12.8323   -1.2004 H   0  0  0  0  0  0  0  0  0  0  0  0
    8.0760  -10.0130   -2.0050 H   0  0  0  0  0  0  0  0  0  0  0  0
    3.4414  -12.5163    0.7684 H   0  0  0  0  0  0  0  0  0  0  0  0
    4.5390  -14.0450    1.9360 H   0  0  0  0  0  0  0  0  0  0  0  0
    3.8625  -16.3541    0.6266 H   0  0  0  0  0  0  0  0  0  0  0  0
    2.9120  -16.4932   -0.8913 H   0  0  0  0  0  0  0  0  0  0  0  0
    4.4815  -15.6195   -0.8913 H   0  0  0  0  0  0  0  0  0  0  0  0
    1.6214  -13.7369    1.5942 H   0  0  0  0  0  0  0  0  0  0  0  0
    2.9195  -16.4225    2.1390 H   0  0  0  0  0  0  0  0  0  0  0  0
    3.3920  -14.8026    2.7877 H   0  0  0  0  0  0  0  0  0  0  0  0
    2.1119  -15.9419    4.4946 H   0  0  0  0  0  0  0  0  0  0  0  0
    1.0894  -14.6295    3.8060 H   0  0  0  0  0  0  0  0  0  0  0  0
    1.0541  -17.5648    3.1035 H   0  0  0  0  0  0  0  0  0  0  0  0
   -1.3875  -15.6341    5.8913 H   0  0  0  0  0  0  0  0  0  0  0  0
   -0.8777  -14.7755    4.3982 H   0  0  0  0  0  0  0  0  0  0  0  0
   -2.3777  -15.7637    4.3982 H   0  0  0  0  0  0  0  0  0  0  0  0
   -0.3186  -17.0918    6.5175 H   0  0  0  0  0  0  0  0  0  0  0  0
    0.1181  -18.5746    5.6026 H   0  0  0  0  0  0  0  0  0  0  0  0
    1.2257  -17.1605    5.6026 H   0  0  0  0  0  0  0  0  0  0  0  0
   -2.7049  -18.6596    2.1898 H   0  0  0  0  0  0  0  0  0  0  0  0
   -2.8169  -16.8912    2.5332 H   0  0  0  0  0  0  0  0  0  0  0  0
   -0.4430  -18.3836    1.3286 H   0  0  0  0  0  0  0  0  0  0  0  0
   -1.5480  -17.2253    0.4950 H   0  0  0  0  0  0  0  0  0  0  0  0
   -1.6138  -14.8206    0.9810 H   0  0  0  0  0  0  0  0  0  0  0  0
   -0.9027  -14.0401    2.1306 H   0  0  0  0  0  0  0  0  0  0  0  0
    0.7863  -16.8929   -0.7381 H   0  0  0  0  0  0  0  0  0  0  0  0
   -0.6646  -15.7214   -0.8427 H   0  0  0  0  0  0  0  0  0  0  0  0
    1.7222  -15.6893   -2.3341 H   0  0  0  0  0  0  0  0  0  0  0  0
    0.3132  -14.5135   -2.2826 H   0  0  0  0  0  0  0  0  0  0  0  0
    1.0422  -12.6298    0.3124 H   0  0  0  0  0  0  0  0  0  0  0  0
    1.5269  -11.7826   -1.1956 H   0  0  0  0  0  0  0  0  0  0  0  0
    0.0956  -12.8680   -1.1956 H   0  0  0  0  0  0  0  0  0  0  0  0
    3.3842  -14.2619   -2.8286 H   0  0  0  0  0  0  0  0  0  0  0  0
  1  2  1  0
  2  3  1  0
  3  4  1  0
  4  5  1  0
  5  6  1  0
  6  7  1  6
  7  8  1  0
  8  9  1  0
  9 10  1  0
  9 11  1  0
  9 12  1  0
  6 13  1  0
 13 14  1  0
 13 15  1  0
 15 16  1  6
 15 17  1  0
 17 18  1  0
 18 19  1  0
 19 20  1  0
 20 21  1  0
 21 22  1  0
 21 23  1  0
 21 24  1  0
 24 25  2  0
 24 26  1  0
 26 27  1  0
 28 27  1  6
 28 29  1  0
 30 29  1  6
 30 31  1  0
 31 32  1  0
 32 33  1  0
 33 34  1  1
 33 35  1  0
 35  2  1  0
  8  4  1  0
 33 15  1  0
 35  6  1  0
 30 17  1  0
 28 20  1  0
 30 28  1  0
  1 36  1  0
  1 37  1  0
  1 38  1  0
  2 39  1  1
  3 40  1  0
  3 41  1  0
  4 42  1  1
  7 43  1  0
  7 44  1  0
  8 45  1  6
 10 46  1  0
 10 47  1  0
 10 48  1  0
 11 49  1  0
 11 50  1  0
 11 51  1  0
 12 52  1  0
 13 53  1  1
 14 54  1  0
 16 55  1  0
 16 56  1  0
 16 57  1  0
 17 58  1  1
 18 59  1  0
 18 60  1  0
 19 61  1  0
 19 62  1  0
 20 63  1  6
 22 64  1  0
 22 65  1  0
 22 66  1  0
 23 67  1  0
 23 68  1  0
 23 69  1  0
 26 70  1  0
 26 71  1  0
 27 72  1  0
 27 73  1  0
 29 74  1  0
 29 75  1  0
 31 76  1  0
 31 77  1  0
 32 78  1  0
 32 79  1  0
 34 80  1  0
 34 81  1  0
 34 82  1  0
 35 83  1  6
M  END
>  <meeko>  (3) 
{"is_sidechain": [false], "free_energy": -8.366, "intermolecular_energy": -9.348, "internal_energy": -0.486}

$$$$
LIB_NXDBMKBCSMHZLE__M_PUB_ALL__e8__s20260927
     RDKit          3D

 83 89  0  0  0  0  0  0  0  0999 V2000
    7.6870  -14.4880   -5.2050 C   0  0  0  0  0  0  0  0  0  0  0  0
    7.8860  -13.5880   -3.9870 C   0  0  2  0  0  0  0  0  0  0  0  0
    9.3110  -13.0070   -3.9810 C   0  0  0  0  0  0  0  0  0  0  0  0
    9.6910  -12.3600   -2.6350 C   0  0  1  0  0  0  0  0  0  0  0  0
    8.4960  -12.1860   -1.8520 O   0  0  0  0  0  0  0  0  0  0  0  0
    8.1570  -13.5220   -1.4230 C   0  0  1  0  0  0  0  0  0  0  0  0
    9.5150  -14.0790   -0.9650 C   0  0  0  0  0  0  0  0  0  0  0  0
   10.5550  -13.2900   -1.7740 C   0  0  2  0  0  0  0  0  0  0  0  0
   11.5990  -12.5500   -0.8890 C   0  0  0  0  0  0  0  0  0  0  0  0
   12.7430  -11.8980   -1.6720 C   0  0  0  0  0  0  0  0  0  0  0  0
   12.1850  -13.4910    0.1730 C   0  0  0  0  0  0  0  0  0  0  0  0
   10.9260  -11.4970   -0.1850 O   0  0  0  0  0  0  0  0  0  0  0  0
    7.0240  -13.4820   -0.3620 C   0  0  2  0  0  0  0  0  0  0  0  0
    7.4920  -13.4900    0.9780 O   0  0  0  0  0  0  0  0  0  0  0  0
    6.1270  -14.6970   -0.7060 C   0  0  1  0  0  0  0  0  0  0  0  0
    6.8180  -16.0110   -0.2180 C   0  0  0  0  0  0  0  0  0  0  0  0
    4.6880  -14.6250   -0.1220 C   0  0  2  0  0  0  0  0  0  0  0  0
    4.6120  -14.8610    1.3950 C   0  0  0  0  0  0  0  0  0  0  0  0
    3.1760  -14.7420    1.8960 C   0  0  0  0  0  0  0  0  0  0  0  0
    2.3360  -15.9120    1.3690 C   0  0  1  0  0  0  0  0  0  0  0  0
    0.8540  -15.9220    1.8640 C   0  0  0  0  0  0  0  0  0  0  0  0
    0.0490  -14.6830    1.4440 C   0  0  0  0  0  0  0  0  0  0  0  0
    0.8050  -16.0220    3.4030 C   0  0  0  0  0  0  0  0  0  0  0  0
    0.1590  -17.1640    1.2720 C   0  0  0  0  0  0  0  0  0  0  0  0
   -0.5720  -17.8950    1.9420 O   0  0  0  0  0  0  0  0  0  0  0  0
    0.3210  -17.4150   -0.2100 C   0  0  0  0  0  0  0  0  0  0  0  0
    1.7880  -17.3860   -0.6000 C   0  0  0  0  0  0  0  0  0  0  0  0
    2.4360  -16.0830   -0.1550 C   0  0  1  0  0  0  0  0  0  0  0  0
    2.3070  -14.9120   -1.0920 C   0  0  0  0  0  0  0  0  0  0  0  0
    3.6860  -15.5290   -0.8980 C   0  0  1  0  0  0  0  0  0  0  0  0
    4.2380  -16.3700   -2.0580 C   0  0  0  0  0  0  0  0  0  0  0  0
    5.4520  -15.8390   -2.8400 C   0  0  0  0  0  0  0  0  0  0  0  0
    6.0640  -14.5560   -2.2720 C   0  0  1  0  0  0  0  0  0  0  0  0
    5.1920  -13.3640   -2.7730 C   0  0  0  0  0  0  0  0  0  0  0  0
    7.5730  -14.3100   -2.6510 C   0  0  1  0  0  0  0  0  0  0  0  0
    7.4607  -15.5115   -4.8715 H   0  0  0  0  0  0  0  0  0  0  0  0
    6.8515  -14.1064   -5.8103 H   0  0  0  0  0  0  0  0  0  0  0  0
    8.6055  -14.4942   -5.8103 H   0  0  0  0  0  0  0  0  0  0  0  0
    7.1629  -12.7632   -4.0700 H   0  0  0  0  0  0  0  0  0  0  0  0
   10.0218  -13.8194   -4.1926 H   0  0  0  0  0  0  0  0  0  0  0  0
    9.3486  -12.2189   -4.7475 H   0  0  0  0  0  0  0  0  0  0  0  0
   10.2208  -11.4262   -2.8742 H   0  0  0  0  0  0  0  0  0  0  0  0
    9.6573  -13.9153    0.1134 H   0  0  0  0  0  0  0  0  0  0  0  0
    9.5961  -15.1636   -1.1298 H   0  0  0  0  0  0  0  0  0  0  0  0
   11.2037  -13.9372   -2.3826 H   0  0  0  0  0  0  0  0  0  0  0  0
   13.4773  -11.4795   -0.9680 H   0  0  0  0  0  0  0  0  0  0  0  0
   13.2313  -12.6535   -2.3051 H   0  0  0  0  0  0  0  0  0  0  0  0
   12.3418  -11.0929   -2.3051 H   0  0  0  0  0  0  0  0  0  0  0  0
   11.9457  -13.1067    1.1755 H   0  0  0  0  0  0  0  0  0  0  0  0
   11.7522  -14.4950    0.0522 H   0  0  0  0  0  0  0  0  0  0  0  0
   13.2770  -13.5455    0.0522 H   0  0  0  0  0  0  0  0  0  0  0  0
   11.5060  -10.7160   -0.1750 H   0  0  0  0  0  0  0  0  0  0  0  0
    6.4664  -12.5349   -0.4069 H   0  0  0  0  0  0  0  0  0  0  0  0
    7.3410  -12.5940    1.3290 H   0  0  0  0  0  0  0  0  0  0  0  0
    6.8294  -16.0327    0.8817 H   0  0  0  0  0  0  0  0  0  0  0  0
    6.2606  -16.8807   -0.5961 H   0  0  0  0  0  0  0  0  0  0  0  0
    7.8504  -16.0446   -0.5961 H   0  0  0  0  0  0  0  0  0  0  0  0
    4.3769  -13.5807   -0.2729 H   0  0  0  0  0  0  0  0  0  0  0  0
    4.9895  -15.8690    1.6215 H   0  0  0  0  0  0  0  0  0  0  0  0
    5.2232  -14.0980    1.8992 H   0  0  0  0  0  0  0  0  0  0  0  0
    3.1718  -14.7573    2.9959 H   0  0  0  0  0  0  0  0  0  0  0  0
    2.7451  -13.7970    1.5336 H   0  0  0  0  0  0  0  0  0  0  0  0
    2.7981  -16.8000    1.8249 H   0  0  0  0  0  0  0  0  0  0  0  0
   -0.2976  -14.1495    2.3413 H   0  0  0  0  0  0  0  0  0  0  0  0
    0.6872  -14.0168    0.8450 H   0  0  0  0  0  0  0  0  0  0  0  0
   -0.8191  -14.9955    0.8450 H   0  0  0  0  0  0  0  0  0  0  0  0
    1.2485  -15.1169    3.8436 H   0  0  0  0  0  0  0  0  0  0  0  0
   -0.2407  -16.1150    3.7313 H   0  0  0  0  0  0  0  0  0  0  0  0
    1.3723  -16.9054    3.7313 H   0  0  0  0  0  0  0  0  0  0  0  0
   -0.0994  -18.4008   -0.4577 H   0  0  0  0  0  0  0  0  0  0  0  0
   -0.2086  -16.6254   -0.7632 H   0  0  0  0  0  0  0  0  0  0  0  0
    2.3061  -18.2295   -0.1203 H   0  0  0  0  0  0  0  0  0  0  0  0
    1.8651  -17.4642   -1.6945 H   0  0  0  0  0  0  0  0  0  0  0  0
    1.7842  -15.0371   -2.0517 H   0  0  0  0  0  0  0  0  0  0  0  0
    1.9020  -13.8938   -0.9957 H   0  0  0  0  0  0  0  0  0  0  0  0
    4.5223  -17.3481   -1.6428 H   0  0  0  0  0  0  0  0  0  0  0  0
    3.4236  -16.3743   -2.7974 H   0  0  0  0  0  0  0  0  0  0  0  0
    6.2280  -16.6186   -2.8399 H   0  0  0  0  0  0  0  0  0  0  0  0
    5.0893  -15.5916   -3.8486 H   0  0  0  0  0  0  0  0  0  0  0  0
    4.7903  -12.8149   -1.9087 H   0  0  0  0  0  0  0  0  0  0  0  0
    5.8102  -12.6879   -3.3819 H   0  0  0  0  0  0  0  0  0  0  0  0
    4.3605  -13.7485   -3.3819 H   0  0  0  0  0  0  0  0  0  0  0  0
    8.0370  -15.2884   -2.8445 H   0  0  0  0  0  0  0  0  0  0  0  0
  1  2  1  0
  2  3  1  0
  3  4  1  0
  4  5  1  0
  5  6  1  0
  6  7  1  1
  7  8  1  0
  8  9  1  0
  9 10  1  0
  9 11  1  0
  9 12  1  0
  6 13  1  0
 13 14  1  0
 13 15  1  0
 15 16  1  6
 15 17  1  0
 17 18  1  0
 18 19  1  0
 19 20  1  0
 20 21  1  0
 21 22  1  0
 21 23  1  0
 21 24  1  0
 24 25  2  0
 24 26  1  0
 26 27  1  0
 28 27  1  6
 28 29  1  0
 30 29  1  6
 30 31  1  0
 31 32  1  0
 32 33  1  0
 33 34  1  1
 33 35  1  0
 35  2  1  0
  8  4  1  0
 33 15  1  0
 35  6  1  0
 30 17  1  0
 28 20  1  0
 30 28  1  0
  1 36  1  0
  1 37  1  0
  1 38  1  0
  2 39  1  6
  3 40  1  0
  3 41  1  0
  4 42  1  6
  7 43  1  0
  7 44  1  0
  8 45  1  6
 10 46  1  0
 10 47  1  0
 10 48  1  0
 11 49  1  0
 11 50  1  0
 11 51  1  0
 12 52  1  0
 13 53  1  6
 14 54  1  0
 16 55  1  0
 16 56  1  0
 16 57  1  0
 17 58  1  1
 18 59  1  0
 18 60  1  0
 19 61  1  0
 19 62  1  0
 20 63  1  1
 22 64  1  0
 22 65  1  0
 22 66  1  0
 23 67  1  0
 23 68  1  0
 23 69  1  0
 26 70  1  0
 26 71  1  0
 27 72  1  0
 27 73  1  0
 29 74  1  0
 29 75  1  0
 31 76  1  0
 31 77  1  0
 32 78  1  0
 32 79  1  0
 34 80  1  0
 34 81  1  0
 34 82  1  0
 35 83  1  6
M  END
>  <meeko>  (4) 
{"is_sidechain": [false], "free_energy": -8.321, "intermolecular_energy": -9.296, "internal_energy": -0.488}

$$$$
LIB_NXDBMKBCSMHZLE__M_PUB_ALL__e8__s20260927
     RDKit          3D

 83 89  0  0  0  0  0  0  0  0999 V2000
    1.0840  -10.6750    0.8690 C   0  0  0  0  0  0  0  0  0  0  0  0
    0.9880  -11.9650    0.0560 C   0  0  2  0  0  0  0  0  0  0  0  0
   -0.4280  -12.5580    0.1650 C   0  0  0  0  0  0  0  0  0  0  0  0
   -0.5150  -14.0070   -0.3510 C   0  0  1  0  0  0  0  0  0  0  0  0
    0.6810  -14.3050   -1.0960 O   0  0  0  0  0  0  0  0  0  0  0  0
    1.7020  -14.4390   -0.0840 C   0  0  1  0  0  0  0  0  0  0  0  0
    1.0070  -15.3080    0.9770 C   0  0  0  0  0  0  0  0  0  0  0  0
   -0.4910  -15.0270    0.7930 C   0  0  2  0  0  0  0  0  0  0  0  0
   -1.3340  -16.3060    0.5240 C   0  0  0  0  0  0  0  0  0  0  0  0
   -2.8480  -16.1060    0.6520 C   0  0  0  0  0  0  0  0  0  0  0  0
   -0.8970  -17.4580    1.4400 C   0  0  0  0  0  0  0  0  0  0  0  0
   -1.0870  -16.7320   -0.8240 O   0  0  0  0  0  0  0  0  0  0  0  0
    3.0100  -15.0030   -0.7020 C   0  0  2  0  0  0  0  0  0  0  0  0
    3.1350  -16.4120   -0.5940 O   0  0  0  0  0  0  0  0  0  0  0  0
    4.1440  -14.2280    0.0160 C   0  0  1  0  0  0  0  0  0  0  0  0
    4.3350  -14.8010    1.4560 C   0  0  0  0  0  0  0  0  0  0  0  0
    5.5090  -14.2420   -0.7300 C   0  0  2  0  0  0  0  0  0  0  0  0
    6.2440  -15.5900   -0.6710 C   0  0  0  0  0  0  0  0  0  0  0  0
    7.5550  -15.5330   -1.4490 C   0  0  0  0  0  0  0  0  0  0  0  0
    8.5530  -14.6150   -0.7320 C   0  0  1  0  0  0  0  0  0  0  0  0
    9.9560  -14.5220   -1.4150 C   0  0  0  0  0  0  0  0  0  0  0  0
    9.9150  -13.9620   -2.8450 C   0  0  0  0  0  0  0  0  0  0  0  0
   10.6180  -15.9150   -1.4680 C   0  0  0  0  0  0  0  0  0  0  0  0
   10.8420  -13.5920   -0.5650 C   0  0  0  0  0  0  0  0  0  0  0  0
   12.0120  -13.8650   -0.2870 O   0  0  0  0  0  0  0  0  0  0  0  0
   10.2620  -12.2580   -0.1540 C   0  0  0  0  0  0  0  0  0  0  0  0
    8.9030  -12.4450    0.4980 C   0  0  0  0  0  0  0  0  0  0  0  0
    7.9730  -13.2280   -0.4160 C   0  0  1  0  0  0  0  0  0  0  0  0
    7.2160  -12.4350   -1.4460 C   0  0  0  0  0  0  0  0  0  0  0  0
    6.4300  -13.0620   -0.3020 C   0  0  1  0  0  0  0  0  0  0  0  0
    5.9090  -12.1100    0.7850 C   0  0  0  0  0  0  0  0  0  0  0  0
    4.3910  -11.8920    0.9070 C   0  0  0  0  0  0  0  0  0  0  0  0
    3.5440  -12.7740   -0.0160 C   0  0  1  0  0  0  0  0  0  0  0  0
    3.5490  -12.1090   -1.4260 C   0  0  0  0  0  0  0  0  0  0  0  0
    2.0610  -13.0080    0.4600 C   0  0  1  0  0  0  0  0  0  0  0  0
    1.0661  -10.9158    1.9422 H   0  0  0  0  0  0  0  0  0  0  0  0
    2.0232  -10.1569    0.6251 H   0  0  0  0  0  0  0  0  0  0  0  0
    0.2318  -10.0236    0.6251 H   0  0  0  0  0  0  0  0  0  0  0  0
    1.1885  -11.7050   -0.9938 H   0  0  0  0  0  0  0  0  0  0  0  0
   -0.7339  -12.5431    1.2215 H   0  0  0  0  0  0  0  0  0  0  0  0
   -1.0909  -11.9447   -0.4630 H   0  0  0  0  0  0  0  0  0  0  0  0
   -1.4459  -14.0774   -0.9327 H   0  0  0  0  0  0  0  0  0  0  0  0
    1.2251  -16.3730    0.8093 H   0  0  0  0  0  0  0  0  0  0  0  0
    1.3514  -15.0752    1.9954 H   0  0  0  0  0  0  0  0  0  0  0  0
   -0.9680  -14.6391    1.7051 H   0  0  0  0  0  0  0  0  0  0  0  0
   -3.1244  -16.0695    1.7161 H   0  0  0  0  0  0  0  0  0  0  0  0
   -3.1356  -15.1621    0.1659 H   0  0  0  0  0  0  0  0  0  0  0  0
   -3.3708  -16.9429    0.1659 H   0  0  0  0  0  0  0  0  0  0  0  0
   -1.0121  -17.1546    2.4910 H   0  0  0  0  0  0  0  0  0  0  0  0
   -1.5227  -18.3409    1.2426 H   0  0  0  0  0  0  0  0  0  0  0  0
    0.1569  -17.7038    1.2426 H   0  0  0  0  0  0  0  0  0  0  0  0
   -0.7400  -15.9730   -1.3260 H   0  0  0  0  0  0  0  0  0  0  0  0
    3.0363  -14.8520   -1.7913 H   0  0  0  0  0  0  0  0  0  0  0  0
    2.4320  -16.7960   -1.1480 H   0  0  0  0  0  0  0  0  0  0  0  0
    4.0774  -14.0283    2.1953 H   0  0  0  0  0  0  0  0  0  0  0  0
    3.6790  -15.6732    1.5936 H   0  0  0  0  0  0  0  0  0  0  0  0
    5.3831  -15.1052    1.5936 H   0  0  0  0  0  0  0  0  0  0  0  0
    5.2519  -14.0945   -1.7893 H   0  0  0  0  0  0  0  0  0  0  0  0
    6.4595  -15.8365    0.3792 H   0  0  0  0  0  0  0  0  0  0  0  0
    5.6013  -16.3594   -1.1237 H   0  0  0  0  0  0  0  0  0  0  0  0
    7.9792  -16.5453   -1.5220 H   0  0  0  0  0  0  0  0  0  0  0  0
    7.3595  -15.1360   -2.4561 H   0  0  0  0  0  0  0  0  0  0  0  0
    8.7330  -15.1163    0.2305 H   0  0  0  0  0  0  0  0  0  0  0  0
    9.8347  -12.8656   -2.8072 H   0  0  0  0  0  0  0  0  0  0  0  0
   10.8362  -14.2441   -3.3758 H   0  0  0  0  0  0  0  0  0  0  0  0
    9.0447  -14.3753   -3.3758 H   0  0  0  0  0  0  0  0  0  0  0  0
   10.7906  -16.2781   -0.4441 H   0  0  0  0  0  0  0  0  0  0  0  0
    9.9564  -16.6154   -1.9988 H   0  0  0  0  0  0  0  0  0  0  0  0
   11.5788  -15.8444   -1.9988 H   0  0  0  0  0  0  0  0  0  0  0  0
   10.9425  -11.7726    0.5611 H   0  0  0  0  0  0  0  0  0  0  0  0
   10.1426  -11.6315   -1.0503 H   0  0  0  0  0  0  0  0  0  0  0  0
    9.0280  -12.9944    1.4428 H   0  0  0  0  0  0  0  0  0  0  0  0
    8.4622  -11.4553    0.6883 H   0  0  0  0  0  0  0  0  0  0  0  0
    7.3370  -11.3425   -1.4894 H   0  0  0  0  0  0  0  0  0  0  0  0
    7.1397  -12.4776   -2.5425 H   0  0  0  0  0  0  0  0  0  0  0  0
    6.2594  -12.4994    1.7522 H   0  0  0  0  0  0  0  0  0  0  0  0
    6.2984  -11.1250    0.4880 H   0  0  0  0  0  0  0  0  0  0  0  0
    4.0968  -12.1008    1.9461 H   0  0  0  0  0  0  0  0  0  0  0  0
    4.2002  -10.8515    0.6055 H   0  0  0  0  0  0  0  0  0  0  0  0
    3.5572  -11.0146   -1.3152 H   0  0  0  0  0  0  0  0  0  0  0  0
    4.4448  -12.4283   -1.9788 H   0  0  0  0  0  0  0  0  0  0  0  0
    2.6485  -12.4148   -1.9788 H   0  0  0  0  0  0  0  0  0  0  0  0
    2.0357  -12.9013    1.5545 H   0  0  0  0  0  0  0  0  0  0  0  0
  1  2  1  0
  2  3  1  0
  3  4  1  0
  4  5  1  0
  5  6  1  0
  6  7  1  1
  7  8  1  0
  8  9  1  0
  9 10  1  0
  9 11  1  0
  9 12  1  0
  6 13  1  0
 13 14  1  0
 13 15  1  0
 15 16  1  1
 15 17  1  0
 17 18  1  0
 18 19  1  0
 19 20  1  0
 20 21  1  0
 21 22  1  0
 21 23  1  0
 21 24  1  0
 24 25  2  0
 24 26  1  0
 26 27  1  0
 28 27  1  1
 28 29  1  0
 30 29  1  6
 30 31  1  0
 31 32  1  0
 32 33  1  0
 33 34  1  6
 33 35  1  0
 35  2  1  0
  8  4  1  0
 33 15  1  0
 35  6  1  0
 30 17  1  0
 28 20  1  0
 30 28  1  0
  1 36  1  0
  1 37  1  0
  1 38  1  0
  2 39  1  6
  3 40  1  0
  3 41  1  0
  4 42  1  6
  7 43  1  0
  7 44  1  0
  8 45  1  1
 10 46  1  0
 10 47  1  0
 10 48  1  0
 11 49  1  0
 11 50  1  0
 11 51  1  0
 12 52  1  0
 13 53  1  6
 14 54  1  0
 16 55  1  0
 16 56  1  0
 16 57  1  0
 17 58  1  6
 18 59  1  0
 18 60  1  0
 19 61  1  0
 19 62  1  0
 20 63  1  1
 22 64  1  0
 22 65  1  0
 22 66  1  0
 23 67  1  0
 23 68  1  0
 23 69  1  0
 26 70  1  0
 26 71  1  0
 27 72  1  0
 27 73  1  0
 29 74  1  0
 29 75  1  0
 31 76  1  0
 31 77  1  0
 32 78  1  0
 32 79  1  0
 34 80  1  0
 34 81  1  0
 34 82  1  0
 35 83  1  1
M  END
>  <meeko>  (5) 
{"is_sidechain": [false], "free_energy": -8.177, "intermolecular_energy": -9.135, "internal_energy": -0.488}

$$$$
LIB_NXDBMKBCSMHZLE__M_PUB_ALL__e8__s20260927
     RDKit          3D

 83 89  0  0  0  0  0  0  0  0999 V2000
   -2.2770  -12.5580    0.6480 C   0  0  0  0  0  0  0  0  0  0  0  0
   -1.9580  -14.0500    0.5890 C   0  0  2  0  0  0  0  0  0  0  0  0
   -3.0790  -14.8610    1.2660 C   0  0  0  0  0  0  0  0  0  0  0  0
   -2.6840  -16.3250    1.5330 C   0  0  1  0  0  0  0  0  0  0  0  0
   -1.4910  -16.6270    0.7860 O   0  0  0  0  0  0  0  0  0  0  0  0
   -0.4450  -15.9300    1.4950 C   0  0  1  0  0  0  0  0  0  0  0  0
   -0.7520  -16.2730    2.9620 C   0  0  0  0  0  0  0  0  0  0  0  0
   -2.2620  -16.5500    2.9910 C   0  0  2  0  0  0  0  0  0  0  0  0
   -2.6250  -17.9560    3.5490 C   0  0  0  0  0  0  0  0  0  0  0  0
   -4.0910  -18.1110    3.9690 C   0  0  0  0  0  0  0  0  0  0  0  0
   -1.7190  -18.3300    4.7300 C   0  0  0  0  0  0  0  0  0  0  0  0
   -2.3850  -18.9240    2.5180 O   0  0  0  0  0  0  0  0  0  0  0  0
    0.9500  -16.3510    0.9580 C   0  0  2  0  0  0  0  0  0  0  0  0
    1.5570  -17.4020    1.6940 O   0  0  0  0  0  0  0  0  0  0  0  0
    1.7780  -15.0420    0.9600 C   0  0  1  0  0  0  0  0  0  0  0  0
    2.2160  -14.7040    2.4210 C   0  0  0  0  0  0  0  0  0  0  0  0
    3.0320  -15.0680    0.0400 C   0  0  2  0  0  0  0  0  0  0  0  0
    4.1870  -15.9270    0.5750 C   0  0  0  0  0  0  0  0  0  0  0  0
    5.3640  -15.9270   -0.3950 C   0  0  0  0  0  0  0  0  0  0  0  0
    6.0160  -14.5400   -0.4330 C   0  0  1  0  0  0  0  0  0  0  0  0
    7.2710  -14.4360   -1.3590 C   0  0  0  0  0  0  0  0  0  0  0  0
    6.9800  -14.7380   -2.8370 C   0  0  0  0  0  0  0  0  0  0  0  0
    8.3690  -15.4100   -0.8820 C   0  0  0  0  0  0  0  0  0  0  0  0
    7.8190  -12.9990   -1.2650 C   0  0  0  0  0  0  0  0  0  0  0  0
    9.0220  -12.7560   -1.1460 O   0  0  0  0  0  0  0  0  0  0  0  0
    6.8340  -11.8640   -1.4250 C   0  0  0  0  0  0  0  0  0  0  0  0
    5.6510  -12.0480   -0.4910 C   0  0  0  0  0  0  0  0  0  0  0  0
    5.0080  -13.4110   -0.7000 C   0  0  1  0  0  0  0  0  0  0  0  0
    3.9820  -13.5110   -1.7960 C   0  0  0  0  0  0  0  0  0  0  0  0
    3.5080  -13.6380   -0.3540 C   0  0  1  0  0  0  0  0  0  0  0  0
    2.7390  -12.4450    0.2320 C   0  0  0  0  0  0  0  0  0  0  0  0
    1.2450  -12.6200    0.5550 C   0  0  0  0  0  0  0  0  0  0  0  0
    0.7150  -14.0440    0.3680 C   0  0  1  0  0  0  0  0  0  0  0  0
    0.4310  -14.2390   -1.1520 C   0  0  0  0  0  0  0  0  0  0  0  0
   -0.5760  -14.3920    1.2010 C   0  0  1  0  0  0  0  0  0  0  0  0
   -2.3452  -12.2389    1.6985 H   0  0  0  0  0  0  0  0  0  0  0  0
   -1.4795  -11.9923    0.1440 H   0  0  0  0  0  0  0  0  0  0  0  0
   -3.2361  -12.3679    0.1440 H   0  0  0  0  0  0  0  0  0  0  0  0
   -1.9034  -14.3298   -0.4734 H   0  0  0  0  0  0  0  0  0  0  0  0
   -3.3264  -14.3839    2.2258 H   0  0  0  0  0  0  0  0  0  0  0  0
   -3.9385  -14.8716    0.5796 H   0  0  0  0  0  0  0  0  0  0  0  0
   -3.5577  -16.9381    1.2670 H   0  0  0  0  0  0  0  0  0  0  0  0
   -0.1884  -17.1632    3.2782 H   0  0  0  0  0  0  0  0  0  0  0  0
   -0.4649  -15.4620    3.6474 H   0  0  0  0  0  0  0  0  0  0  0  0
   -2.8036  -15.8924    3.6869 H   0  0  0  0  0  0  0  0  0  0  0  0
   -4.1591  -18.1182    5.0669 H   0  0  0  0  0  0  0  0  0  0  0  0
   -4.6774  -17.2699    3.5708 H   0  0  0  0  0  0  0  0  0  0  0  0
   -4.4885  -19.0562    3.5708 H   0  0  0  0  0  0  0  0  0  0  0  0
   -2.2402  -18.1148    5.6745 H   0  0  0  0  0  0  0  0  0  0  0  0
   -1.4764  -19.4018    4.6810 H   0  0  0  0  0  0  0  0  0  0  0  0
   -0.7910  -17.7414    4.6810 H   0  0  0  0  0  0  0  0  0  0  0  0
   -1.5110  -18.7460    2.1280 H   0  0  0  0  0  0  0  0  0  0  0  0
    0.8757  -16.7880   -0.0487 H   0  0  0  0  0  0  0  0  0  0  0  0
    2.4890  -17.1500    1.8190 H   0  0  0  0  0  0  0  0  0  0  0  0
    1.5510  -15.2172    3.1312 H   0  0  0  0  0  0  0  0  0  0  0  0
    3.2514  -15.0395    2.5803 H   0  0  0  0  0  0  0  0  0  0  0  0
    2.1540  -13.6174    2.5803 H   0  0  0  0  0  0  0  0  0  0  0  0
    2.6955  -15.5701   -0.8790 H   0  0  0  0  0  0  0  0  0  0  0  0
    4.5184  -15.5217    1.5425 H   0  0  0  0  0  0  0  0  0  0  0  0
    3.8296  -16.9607    0.6918 H   0  0  0  0  0  0  0  0  0  0  0  0
    6.1064  -16.6690   -0.0661 H   0  0  0  0  0  0  0  0  0  0  0  0
    5.0007  -16.1815   -1.4016 H   0  0  0  0  0  0  0  0  0  0  0  0
    6.3993  -14.3973    0.5881 H   0  0  0  0  0  0  0  0  0  0  0  0
    6.2183  -15.5285   -2.9066 H   0  0  0  0  0  0  0  0  0  0  0  0
    6.6099  -13.8277   -3.3313 H   0  0  0  0  0  0  0  0  0  0  0  0
    7.9034  -15.0740   -3.3313 H   0  0  0  0  0  0  0  0  0  0  0  0
    8.3901  -15.4287    0.2176 H   0  0  0  0  0  0  0  0  0  0  0  0
    8.1538  -16.4197   -1.2618 H   0  0  0  0  0  0  0  0  0  0  0  0
    9.3458  -15.0759   -1.2618 H   0  0  0  0  0  0  0  0  0  0  0  0
    7.3359  -10.9138   -1.1900 H   0  0  0  0  0  0  0  0  0  0  0  0
    6.4688  -11.8547   -2.4626 H   0  0  0  0  0  0  0  0  0  0  0  0
    5.9969  -11.9677    0.5501 H   0  0  0  0  0  0  0  0  0  0  0  0
    4.9055  -11.2684   -0.7065 H   0  0  0  0  0  0  0  0  0  0  0  0
    3.7188  -12.6162   -2.3792 H   0  0  0  0  0  0  0  0  0  0  0  0
    3.8788  -14.1364   -2.6950 H   0  0  0  0  0  0  0  0  0  0  0  0
    3.2425  -12.1628    1.1684 H   0  0  0  0  0  0  0  0  0  0  0  0
    2.7539  -11.6946   -0.5722 H   0  0  0  0  0  0  0  0  0  0  0  0
    1.0843  -12.3291    1.6036 H   0  0  0  0  0  0  0  0  0  0  0  0
    0.6958  -11.9869   -0.1575 H   0  0  0  0  0  0  0  0  0  0  0  0
   -0.4696  -14.8574   -1.2804 H   0  0  0  0  0  0  0  0  0  0  0  0
    0.2727  -13.2582   -1.6242 H   0  0  0  0  0  0  0  0  0  0  0  0
    1.2895  -14.7390   -1.6242 H   0  0  0  0  0  0  0  0  0  0  0  0
   -0.5894  -13.7439    2.0897 H   0  0  0  0  0  0  0  0  0  0  0  0
  1  2  1  0
  2  3  1  0
  3  4  1  0
  4  5  1  0
  5  6  1  0
  6  7  1  1
  7  8  1  0
  8  9  1  0
  9 10  1  0
  9 11  1  0
  9 12  1  0
  6 13  1  0
 13 14  1  0
 13 15  1  0
 15 16  1  1
 15 17  1  0
 17 18  1  0
 18 19  1  0
 19 20  1  0
 20 21  1  0
 21 22  1  0
 21 23  1  0
 21 24  1  0
 24 25  2  0
 24 26  1  0
 26 27  1  0
 28 27  1  1
 28 29  1  0
 30 29  1  6
 30 31  1  0
 31 32  1  0
 32 33  1  0
 33 34  1  6
 33 35  1  0
 35  2  1  0
  8  4  1  0
 33 15  1  0
 35  6  1  0
 30 17  1  0
 28 20  1  0
 30 28  1  0
  1 36  1  0
  1 37  1  0
  1 38  1  0
  2 39  1  6
  3 40  1  0
  3 41  1  0
  4 42  1  6
  7 43  1  0
  7 44  1  0
  8 45  1  1
 10 46  1  0
 10 47  1  0
 10 48  1  0
 11 49  1  0
 11 50  1  0
 11 51  1  0
 12 52  1  0
 13 53  1  6
 14 54  1  0
 16 55  1  0
 16 56  1  0
 16 57  1  0
 17 58  1  6
 18 59  1  0
 18 60  1  0
 19 61  1  0
 19 62  1  0
 20 63  1  1
 22 64  1  0
 22 65  1  0
 22 66  1  0
 23 67  1  0
 23 68  1  0
 23 69  1  0
 26 70  1  0
 26 71  1  0
 27 72  1  0
 27 73  1  0
 29 74  1  0
 29 75  1  0
 31 76  1  0
 31 77  1  0
 32 78  1  0
 32 79  1  0
 34 80  1  0
 34 81  1  0
 34 82  1  0
 35 83  1  1
M  END
>  <meeko>  (6) 
{"is_sidechain": [false], "free_energy": -8.156, "intermolecular_energy": -9.113, "internal_energy": -0.487}

$$$$
LIB_NXDBMKBCSMHZLE__M_PUB_ALL__e8__s20260927
     RDKit          3D

 83 89  0  0  0  0  0  0  0  0999 V2000
   -3.7470  -14.7360    2.8180 C   0  0  0  0  0  0  0  0  0  0  0  0
   -2.9300  -16.0160    2.6600 C   0  0  2  0  0  0  0  0  0  0  0  0
   -3.2640  -17.0050    3.7910 C   0  0  0  0  0  0  0  0  0  0  0  0
   -2.2600  -18.1690    3.8880 C   0  0  1  0  0  0  0  0  0  0  0  0
   -1.4640  -18.1950    2.6890 O   0  0  0  0  0  0  0  0  0  0  0  0
   -0.5790  -17.0630    2.8290 C   0  0  1  0  0  0  0  0  0  0  0  0
   -0.1010  -17.1930    4.2840 C   0  0  0  0  0  0  0  0  0  0  0  0
   -1.2290  -17.9480    5.0010 C   0  0  2  0  0  0  0  0  0  0  0  0
   -0.7560  -19.2550    5.6990 C   0  0  0  0  0  0  0  0  0  0  0  0
   -1.0670  -19.3220    7.1980 C   0  0  0  0  0  0  0  0  0  0  0  0
    0.7480  -19.4810    5.4840 C   0  0  0  0  0  0  0  0  0  0  0  0
   -1.4330  -20.3620    5.0870 O   0  0  0  0  0  0  0  0  0  0  0  0
    0.5160  -17.0890    1.7290 C   0  0  2  0  0  0  0  0  0  0  0  0
    1.7260  -17.7090    2.1370 O   0  0  0  0  0  0  0  0  0  0  0  0
    0.6940  -15.6050    1.3220 C   0  0  1  0  0  0  0  0  0  0  0  0
    1.5220  -14.8600    2.4170 C   0  0  0  0  0  0  0  0  0  0  0  0
    1.3630  -15.3900   -0.0650 C   0  0  2  0  0  0  0  0  0  0  0  0
    2.8700  -15.6890   -0.0900 C   0  0  0  0  0  0  0  0  0  0  0  0
    3.4450  -15.4860   -1.4870 C   0  0  0  0  0  0  0  0  0  0  0  0
    3.4300  -13.9960   -1.8520 C   0  0  1  0  0  0  0  0  0  0  0  0
    4.0480  -13.6630   -3.2480 C   0  0  0  0  0  0  0  0  0  0  0  0
    3.3200  -14.3290   -4.4260 C   0  0  0  0  0  0  0  0  0  0  0  0
    5.5280  -14.0990   -3.2960 C   0  0  0  0  0  0  0  0  0  0  0  0
    3.9820  -12.1370   -3.4500 C   0  0  0  0  0  0  0  0  0  0  0  0
    4.9300  -11.4870   -3.8950 O   0  0  0  0  0  0  0  0  0  0  0  0
    2.6630  -11.4530   -3.1750 C   0  0  0  0  0  0  0  0  0  0  0  0
    2.1390  -11.8340   -1.8020 C   0  0  0  0  0  0  0  0  0  0  0  0
    2.0510  -13.3460   -1.6620 C   0  0  1  0  0  0  0  0  0  0  0  0
    0.7940  -13.9980   -2.1710 C   0  0  0  0  0  0  0  0  0  0  0  0
    1.0420  -13.9910   -0.6680 C   0  0  1  0  0  0  0  0  0  0  0  0
    0.1830  -13.0340    0.1720 C   0  0  0  0  0  0  0  0  0  0  0  0
   -0.8510  -13.6320    1.1410 C   0  0  0  0  0  0  0  0  0  0  0  0
   -0.8140  -15.1580    1.2520 C   0  0  1  0  0  0  0  0  0  0  0  0
   -1.5950  -15.7320    0.0300 C   0  0  0  0  0  0  0  0  0  0  0  0
   -1.4050  -15.7480    2.5880 C   0  0  1  0  0  0  0  0  0  0  0  0
   -3.8855  -14.5191    3.8875 H   0  0  0  0  0  0  0  0  0  0  0  0
   -3.2150  -13.9001    2.3402 H   0  0  0  0  0  0  0  0  0  0  0  0
   -4.7292  -14.8666    2.3402 H   0  0  0  0  0  0  0  0  0  0  0  0
   -3.2120  -16.4648    1.6961 H   0  0  0  0  0  0  0  0  0  0  0  0
   -3.2615  -16.4593    4.7461 H   0  0  0  0  0  0  0  0  0  0  0  0
   -4.2502  -17.4385    3.5687 H   0  0  0  0  0  0  0  0  0  0  0  0
   -2.8521  -19.0793    4.0635 H   0  0  0  0  0  0  0  0  0  0  0  0
    0.8390  -17.7622    4.3337 H   0  0  0  0  0  0  0  0  0  0  0  0
    0.1014  -16.2144    4.7437 H   0  0  0  0  0  0  0  0  0  0  0  0
   -1.6468  -17.3863    5.8495 H   0  0  0  0  0  0  0  0  0  0  0  0
   -0.1497  -19.1244    7.7720 H   0  0  0  0  0  0  0  0  0  0  0  0
   -1.8264  -18.5669    7.4490 H   0  0  0  0  0  0  0  0  0  0  0  0
   -1.4481  -20.3229    7.4490 H   0  0  0  0  0  0  0  0  0  0  0  0
    1.2506  -19.5565    6.4596 H   0  0  0  0  0  0  0  0  0  0  0  0
    0.9018  -20.4123    4.9192 H   0  0  0  0  0  0  0  0  0  0  0  0
    1.1687  -18.6360    4.9192 H   0  0  0  0  0  0  0  0  0  0  0  0
   -1.0230  -21.1860    5.4030 H   0  0  0  0  0  0  0  0  0  0  0  0
    0.2116  -17.7143    0.8767 H   0  0  0  0  0  0  0  0  0  0  0  0
    1.6760  -18.6360    1.8410 H   0  0  0  0  0  0  0  0  0  0  0  0
    1.1759  -15.1714    3.4136 H   0  0  0  0  0  0  0  0  0  0  0  0
    2.5874  -15.1096    2.3043 H   0  0  0  0  0  0  0  0  0  0  0  0
    1.3859  -13.7743    2.3043 H   0  0  0  0  0  0  0  0  0  0  0  0
    0.9028  -16.1462   -0.7179 H   0  0  0  0  0  0  0  0  0  0  0  0
    3.3822  -15.0138    0.6112 H   0  0  0  0  0  0  0  0  0  0  0  0
    3.0236  -16.7381    0.2027 H   0  0  0  0  0  0  0  0  0  0  0  0
    4.4806  -15.8562   -1.5115 H   0  0  0  0  0  0  0  0  0  0  0  0
    2.8320  -16.0406   -2.2127 H   0  0  0  0  0  0  0  0  0  0  0  0
    4.1083  -13.5344   -1.1193 H   0  0  0  0  0  0  0  0  0  0  0  0
    2.5597  -15.0246   -4.0412 H   0  0  0  0  0  0  0  0  0  0  0  0
    2.8334  -13.5569   -5.0401 H   0  0  0  0  0  0  0  0  0  0  0  0
    4.0458  -14.8823   -5.0401 H   0  0  0  0  0  0  0  0  0  0  0  0
    5.9105  -14.2117   -2.2708 H   0  0  0  0  0  0  0  0  0  0  0  0
    5.6103  -15.0595   -3.8257 H   0  0  0  0  0  0  0  0  0  0  0  0
    6.1179  -13.3365   -3.8257 H   0  0  0  0  0  0  0  0  0  0  0  0
    2.8052  -10.3631   -3.2179 H   0  0  0  0  0  0  0  0  0  0  0  0
    1.9334  -11.7719   -3.9339 H   0  0  0  0  0  0  0  0  0  0  0  0
    2.8194  -11.4390   -1.0332 H   0  0  0  0  0  0  0  0  0  0  0  0
    1.1329  -11.4075   -1.6760 H   0  0  0  0  0  0  0  0  0  0  0  0
   -0.0094  -13.3766   -2.5935 H   0  0  0  0  0  0  0  0  0  0  0  0
    0.5837  -14.7854   -2.9098 H   0  0  0  0  0  0  0  0  0  0  0  0
    0.8721  -12.4206    0.7710 H   0  0  0  0  0  0  0  0  0  0  0  0
   -0.4247  -12.4965   -0.5709 H   0  0  0  0  0  0  0  0  0  0  0  0
   -0.6678  -13.2110    2.1406 H   0  0  0  0  0  0  0  0  0  0  0  0
   -1.8413  -13.3732    0.7380 H   0  0  0  0  0  0  0  0  0  0  0  0
   -2.4333  -16.3481    0.3872 H   0  0  0  0  0  0  0  0  0  0  0  0
   -1.9831  -14.9026   -0.5795 H   0  0  0  0  0  0  0  0  0  0  0  0
   -0.9193  -16.3501   -0.5795 H   0  0  0  0  0  0  0  0  0  0  0  0
   -1.3047  -14.9813    3.3704 H   0  0  0  0  0  0  0  0  0  0  0  0
  1  2  1  0
  2  3  1  0
  3  4  1  0
  4  5  1  0
  5  6  1  0
  6  7  1  1
  7  8  1  0
  8  9  1  0
  9 10  1  0
  9 11  1  0
  9 12  1  0
  6 13  1  0
 13 14  1  0
 13 15  1  0
 15 16  1  1
 15 17  1  0
 17 18  1  0
 18 19  1  0
 19 20  1  0
 20 21  1  0
 21 22  1  0
 21 23  1  0
 21 24  1  0
 24 25  2  0
 24 26  1  0
 26 27  1  0
 28 27  1  1
 28 29  1  0
 30 29  1  6
 30 31  1  0
 31 32  1  0
 32 33  1  0
 33 34  1  6
 33 35  1  0
 35  2  1  0
  8  4  1  0
 33 15  1  0
 35  6  1  0
 30 17  1  0
 28 20  1  0
 30 28  1  0
  1 36  1  0
  1 37  1  0
  1 38  1  0
  2 39  1  6
  3 40  1  0
  3 41  1  0
  4 42  1  1
  7 43  1  0
  7 44  1  0
  8 45  1  1
 10 46  1  0
 10 47  1  0
 10 48  1  0
 11 49  1  0
 11 50  1  0
 11 51  1  0
 12 52  1  0
 13 53  1  6
 14 54  1  0
 16 55  1  0
 16 56  1  0
 16 57  1  0
 17 58  1  6
 18 59  1  0
 18 60  1  0
 19 61  1  0
 19 62  1  0
 20 63  1  1
 22 64  1  0
 22 65  1  0
 22 66  1  0
 23 67  1  0
 23 68  1  0
 23 69  1  0
 26 70  1  0
 26 71  1  0
 27 72  1  0
 27 73  1  0
 29 74  1  0
 29 75  1  0
 31 76  1  0
 31 77  1  0
 32 78  1  0
 32 79  1  0
 34 80  1  0
 34 81  1  0
 34 82  1  0
 35 83  1  1
M  END
>  <meeko>  (7) 
{"is_sidechain": [false], "free_energy": -8.135, "intermolecular_energy": -9.12, "internal_energy": -0.455}

$$$$
LIB_NXDBMKBCSMHZLE__M_PUB_ALL__e8__s20260927
     RDKit          3D

 83 89  0  0  0  0  0  0  0  0999 V2000
   10.8300  -17.4150   -3.3810 C   0  0  0  0  0  0  0  0  0  0  0  0
   10.7830  -15.9420   -3.7800 C   0  0  2  0  0  0  0  0  0  0  0  0
   12.2100  -15.3890   -3.9470 C   0  0  0  0  0  0  0  0  0  0  0  0
   12.2530  -13.8520   -4.0280 C   0  0  1  0  0  0  0  0  0  0  0  0
   10.9180  -13.3620   -4.2520 O   0  0  0  0  0  0  0  0  0  0  0  0
   10.2570  -13.5470   -2.9820 C   0  0  1  0  0  0  0  0  0  0  0  0
   11.3020  -13.0210   -1.9840 C   0  0  0  0  0  0  0  0  0  0  0  0
   12.6510  -13.2160   -2.6900 C   0  0  2  0  0  0  0  0  0  0  0  0
   13.4750  -11.9040   -2.8290 C   0  0  0  0  0  0  0  0  0  0  0  0
   14.8840  -12.0980   -3.3980 C   0  0  0  0  0  0  0  0  0  0  0  0
   13.5680  -11.1680   -1.4850 C   0  0  0  0  0  0  0  0  0  0  0  0
   12.7810  -11.0310   -3.7330 O   0  0  0  0  0  0  0  0  0  0  0  0
    8.8740  -12.8420   -2.9810 C   0  0  2  0  0  0  0  0  0  0  0  0
    8.8980  -11.5300   -2.4430 O   0  0  0  0  0  0  0  0  0  0  0  0
    7.9460  -13.8090   -2.2020 C   0  0  1  0  0  0  0  0  0  0  0  0
    8.2370  -13.6900   -0.6720 C   0  0  0  0  0  0  0  0  0  0  0  0
    6.4270  -13.5930   -2.4570 C   0  0  2  0  0  0  0  0  0  0  0  0
    5.8520  -12.3330   -1.7930 C   0  0  0  0  0  0  0  0  0  0  0  0
    4.3690  -12.1740   -2.1140 C   0  0  0  0  0  0  0  0  0  0  0  0
    3.5590  -13.2750   -1.4180 C   0  0  1  0  0  0  0  0  0  0  0  0
    2.0140  -13.1800   -1.6350 C   0  0  0  0  0  0  0  0  0  0  0  0
    1.5840  -13.2910   -3.1060 C   0  0  0  0  0  0  0  0  0  0  0  0
    1.4780  -11.8420   -1.0820 C   0  0  0  0  0  0  0  0  0  0  0  0
    1.3490  -14.3320   -0.8570 C   0  0  0  0  0  0  0  0  0  0  0  0
    0.3400  -14.1680   -0.1670 O   0  0  0  0  0  0  0  0  0  0  0  0
    1.9180  -15.7200   -1.0420 C   0  0  0  0  0  0  0  0  0  0  0  0
    3.4190  -15.7170   -0.8130 C   0  0  0  0  0  0  0  0  0  0  0  0
    4.0950  -14.6860   -1.7050 C   0  0  1  0  0  0  0  0  0  0  0  0
    4.4470  -15.1290   -3.1000 C   0  0  0  0  0  0  0  0  0  0  0  0
    5.5840  -14.8590   -2.1230 C   0  0  1  0  0  0  0  0  0  0  0  0
    6.3270  -16.0820   -1.5670 C   0  0  0  0  0  0  0  0  0  0  0  0
    7.7900  -16.3070   -1.9850 C   0  0  0  0  0  0  0  0  0  0  0  0
    8.3930  -15.1810   -2.8300 C   0  0  1  0  0  0  0  0  0  0  0  0
    7.9180  -15.3980   -4.2990 C   0  0  0  0  0  0  0  0  0  0  0  0
    9.9640  -15.0780   -2.7870 C   0  0  1  0  0  0  0  0  0  0  0  0
   10.8326  -17.4979   -2.2841 H   0  0  0  0  0  0  0  0  0  0  0  0
    9.9479  -17.9328   -3.7857 H   0  0  0  0  0  0  0  0  0  0  0  0
   11.7433  -17.8755   -3.7857 H   0  0  0  0  0  0  0  0  0  0  0  0
   10.2602  -15.8833   -4.7460 H   0  0  0  0  0  0  0  0  0  0  0  0
   12.8142  -15.7119   -3.0863 H   0  0  0  0  0  0  0  0  0  0  0  0
   12.6059  -15.7801   -4.8959 H   0  0  0  0  0  0  0  0  0  0  0  0
   12.9714  -13.6008   -4.8222 H   0  0  0  0  0  0  0  0  0  0  0  0
   11.1288  -11.9568   -1.7664 H   0  0  0  0  0  0  0  0  0  0  0  0
   11.2578  -13.5485   -1.0197 H   0  0  0  0  0  0  0  0  0  0  0  0
   13.3448  -13.8497   -2.1181 H   0  0  0  0  0  0  0  0  0  0  0  0
   15.6029  -12.1970   -2.5713 H   0  0  0  0  0  0  0  0  0  0  0  0
   14.9079  -13.0079   -4.0156 H   0  0  0  0  0  0  0  0  0  0  0  0
   15.1530  -11.2284   -4.0156 H   0  0  0  0  0  0  0  0  0  0  0  0
   13.4764  -11.8930   -0.6628 H   0  0  0  0  0  0  0  0  0  0  0  0
   14.5382  -10.6544   -1.4146 H   0  0  0  0  0  0  0  0  0  0  0  0
   12.7561  -10.4292   -1.4146 H   0  0  0  0  0  0  0  0  0  0  0  0
   12.0690  -11.5380   -4.1620 H   0  0  0  0  0  0  0  0  0  0  0  0
    8.5146  -12.6643   -4.0053 H   0  0  0  0  0  0  0  0  0  0  0  0
    9.8360  -11.3020   -2.3080 H   0  0  0  0  0  0  0  0  0  0  0  0
    7.3650  -14.0466   -0.1041 H   0  0  0  0  0  0  0  0  0  0  0  0
    9.1154  -14.3011   -0.4172 H   0  0  0  0  0  0  0  0  0  0  0  0
    8.4355  -12.6385   -0.4172 H   0  0  0  0  0  0  0  0  0  0  0  0
    6.3456  -13.4173   -3.5398 H   0  0  0  0  0  0  0  0  0  0  0  0
    5.9777  -12.4116   -0.7030 H   0  0  0  0  0  0  0  0  0  0  0  0
    6.3905  -11.4557   -2.1808 H   0  0  0  0  0  0  0  0  0  0  0  0
    4.0238  -11.1906   -1.7622 H   0  0  0  0  0  0  0  0  0  0  0  0
    4.2251  -12.2536   -3.2016 H   0  0  0  0  0  0  0  0  0  0  0  0
    3.7124  -13.0827   -0.3459 H   0  0  0  0  0  0  0  0  0  0  0  0
    0.5201  -13.5656   -3.1573 H   0  0  0  0  0  0  0  0  0  0  0  0
    1.7376  -12.3238   -3.6069 H   0  0  0  0  0  0  0  0  0  0  0  0
    2.1865  -14.0630   -3.6069 H   0  0  0  0  0  0  0  0  0  0  0  0
    1.4888  -11.8691    0.0176 H   0  0  0  0  0  0  0  0  0  0  0  0
    2.1154  -11.0178   -1.4348 H   0  0  0  0  0  0  0  0  0  0  0  0
    0.4479  -11.6858   -1.4348 H   0  0  0  0  0  0  0  0  0  0  0  0
    1.4439  -16.4039   -0.3226 H   0  0  0  0  0  0  0  0  0  0  0  0
    1.7169  -16.0515   -2.0714 H   0  0  0  0  0  0  0  0  0  0  0  0
    3.6235  -15.4735    0.2400 H   0  0  0  0  0  0  0  0  0  0  0  0
    3.8170  -16.7129   -1.0576 H   0  0  0  0  0  0  0  0  0  0  0  0
    4.2323  -16.1610   -3.4144 H   0  0  0  0  0  0  0  0  0  0  0  0
    4.1978  -14.7626   -4.1068 H   0  0  0  0  0  0  0  0  0  0  0  0
    6.3121  -15.9995   -0.4702 H   0  0  0  0  0  0  0  0  0  0  0  0
    5.7901  -16.9405   -1.9968 H   0  0  0  0  0  0  0  0  0  0  0  0
    8.3950  -16.4126   -1.0724 H   0  0  0  0  0  0  0  0  0  0  0  0
    7.7985  -17.2083   -2.6156 H   0  0  0  0  0  0  0  0  0  0  0  0
    6.9175  -15.8551   -4.2971 H   0  0  0  0  0  0  0  0  0  0  0  0
    7.8775  -14.4291   -4.8182 H   0  0  0  0  0  0  0  0  0  0  0  0
    8.6239  -16.0629   -4.8182 H   0  0  0  0  0  0  0  0  0  0  0  0
   10.3051  -15.5026   -1.8313 H   0  0  0  0  0  0  0  0  0  0  0  0
  1  2  1  0
  2  3  1  0
  3  4  1  0
  4  5  1  0
  5  6  1  0
  6  7  1  1
  7  8  1  0
  8  9  1  0
  9 10  1  0
  9 11  1  0
  9 12  1  0
  6 13  1  0
 13 14  1  0
 13 15  1  0
 15 16  1  1
 15 17  1  0
 17 18  1  0
 18 19  1  0
 19 20  1  0
 20 21  1  0
 21 22  1  0
 21 23  1  0
 21 24  1  0
 24 25  2  0
 24 26  1  0
 26 27  1  0
 28 27  1  1
 28 29  1  0
 30 29  1  6
 30 31  1  0
 31 32  1  0
 32 33  1  0
 33 34  1  6
 33 35  1  0
 35  2  1  0
  8  4  1  0
 33 15  1  0
 35  6  1  0
 30 17  1  0
 28 20  1  0
 30 28  1  0
  1 36  1  0
  1 37  1  0
  1 38  1  0
  2 39  1  6
  3 40  1  0
  3 41  1  0
  4 42  1  6
  7 43  1  0
  7 44  1  0
  8 45  1  1
 10 46  1  0
 10 47  1  0
 10 48  1  0
 11 49  1  0
 11 50  1  0
 11 51  1  0
 12 52  1  0
 13 53  1  6
 14 54  1  0
 16 55  1  0
 16 56  1  0
 16 57  1  0
 17 58  1  6
 18 59  1  0
 18 60  1  0
 19 61  1  0
 19 62  1  0
 20 63  1  1
 22 64  1  0
 22 65  1  0
 22 66  1  0
 23 67  1  0
 23 68  1  0
 23 69  1  0
 26 70  1  0
 26 71  1  0
 27 72  1  0
 27 73  1  0
 29 74  1  0
 29 75  1  0
 31 76  1  0
 31 77  1  0
 32 78  1  0
 32 79  1  0
 34 80  1  0
 34 81  1  0
 34 82  1  0
 35 83  1  1
M  END
>  <meeko>  (8) 
{"is_sidechain": [false], "free_energy": -8.1, "intermolecular_energy": -9.048, "internal_energy": -0.489}

$$$$
LIB_NXDBMKBCSMHZLE__M_PUB_ALL__e8__s20260927
     RDKit          3D

 83 89  0  0  0  0  0  0  0  0999 V2000
   -1.0160  -15.2440   -1.5550 C   0  0  0  0  0  0  0  0  0  0  0  0
   -0.4220  -14.4940   -0.3650 C   0  0  2  0  0  0  0  0  0  0  0  0
   -1.5280  -13.7380    0.3930 C   0  0  0  0  0  0  0  0  0  0  0  0
   -0.9730  -12.7100    1.3970 C   0  0  1  0  0  0  0  0  0  0  0  0
    0.4310  -12.9620    1.5900 O   0  0  0  0  0  0  0  0  0  0  0  0
    1.0430  -12.5020    0.3660 C   0  0  1  0  0  0  0  0  0  0  0  0
    0.3490  -11.1500    0.1340 C   0  0  0  0  0  0  0  0  0  0  0  0
   -1.0090  -11.2820    0.8380 C   0  0  2  0  0  0  0  0  0  0  0  0
   -1.2630  -10.1840    1.9110 C   0  0  0  0  0  0  0  0  0  0  0  0
   -1.5190  -10.7250    3.3220 C   0  0  0  0  0  0  0  0  0  0  0  0
   -2.4270   -9.2710    1.5000 C   0  0  0  0  0  0  0  0  0  0  0  0
   -0.0940   -9.3560    1.9910 O   0  0  0  0  0  0  0  0  0  0  0  0
    2.5900  -12.4780    0.5060 C   0  0  2  0  0  0  0  0  0  0  0  0
    3.1120  -11.2170    0.8940 O   0  0  0  0  0  0  0  0  0  0  0  0
    3.1120  -12.9630   -0.8700 C   0  0  1  0  0  0  0  0  0  0  0  0
    2.9830  -11.8070   -1.9120 C   0  0  0  0  0  0  0  0  0  0  0  0
    4.5760  -13.4860   -0.8580 C   0  0  2  0  0  0  0  0  0  0  0  0
    5.6370  -12.3830   -0.7220 C   0  0  0  0  0  0  0  0  0  0  0  0
    7.0420  -12.9750   -0.6860 C   0  0  0  0  0  0  0  0  0  0  0  0
    7.3990  -13.5670   -2.0560 C   0  0  1  0  0  0  0  0  0  0  0  0
    8.8420  -14.1590   -2.1510 C   0  0  0  0  0  0  0  0  0  0  0  0
    9.1050  -15.3190   -1.1780 C   0  0  0  0  0  0  0  0  0  0  0  0
    9.8900  -13.0590   -1.8760 C   0  0  0  0  0  0  0  0  0  0  0  0
    9.0510  -14.6840   -3.5850 C   0  0  0  0  0  0  0  0  0  0  0  0
   10.0830  -14.4700   -4.2240 O   0  0  0  0  0  0  0  0  0  0  0  0
    7.9760  -15.5720   -4.1670 C   0  0  0  0  0  0  0  0  0  0  0  0
    6.6110  -14.9200   -4.0300 C   0  0  0  0  0  0  0  0  0  0  0  0
    6.3380  -14.5480   -2.5800 C   0  0  1  0  0  0  0  0  0  0  0  0
    5.7580  -15.6260   -1.7050 C   0  0  0  0  0  0  0  0  0  0  0  0
    4.8770  -14.4330   -2.0560 C   0  0  1  0  0  0  0  0  0  0  0  0
    3.7510  -14.6770   -3.0710 C   0  0  0  0  0  0  0  0  0  0  0  0
    2.2940  -14.6070   -2.5840 C   0  0  0  0  0  0  0  0  0  0  0  0
    2.1280  -14.1640   -1.1270 C   0  0  1  0  0  0  0  0  0  0  0  0
    2.3920  -15.4110   -0.2300 C   0  0  0  0  0  0  0  0  0  0  0  0
    0.7270  -13.5370   -0.7730 C   0  0  1  0  0  0  0  0  0  0  0  0
   -1.6605  -16.0577   -1.1909 H   0  0  0  0  0  0  0  0  0  0  0  0
   -1.6118  -14.5497   -2.1657 H   0  0  0  0  0  0  0  0  0  0  0  0
   -0.2037  -15.6649   -2.1657 H   0  0  0  0  0  0  0  0  0  0  0  0
    0.0235  -15.2449    0.3041 H   0  0  0  0  0  0  0  0  0  0  0  0
   -2.1565  -13.2095   -0.3389 H   0  0  0  0  0  0  0  0  0  0  0  0
   -2.1023  -14.4812    0.9657 H   0  0  0  0  0  0  0  0  0  0  0  0
   -1.5836  -12.8013    2.3074 H   0  0  0  0  0  0  0  0  0  0  0  0
    0.9367  -10.3317    0.5755 H   0  0  0  0  0  0  0  0  0  0  0  0
    0.2419  -10.9157   -0.9354 H   0  0  0  0  0  0  0  0  0  0  0  0
   -1.8591  -11.1229    0.1583 H   0  0  0  0  0  0  0  0  0  0  0  0
   -1.1719   -9.9914    4.0645 H   0  0  0  0  0  0  0  0  0  0  0  0
   -2.5963  -10.9018    3.4571 H   0  0  0  0  0  0  0  0  0  0  0  0
   -0.9726  -11.6701    3.4571 H   0  0  0  0  0  0  0  0  0  0  0  0
   -2.9234   -8.8816    2.4011 H   0  0  0  0  0  0  0  0  0  0  0  0
   -2.0415   -8.4319    0.9022 H   0  0  0  0  0  0  0  0  0  0  0  0
   -3.1501   -9.8453    0.9022 H   0  0  0  0  0  0  0  0  0  0  0  0
   -0.3530   -8.4390    1.7940 H   0  0  0  0  0  0  0  0  0  0  0  0
    2.9284  -13.1294    1.3253 H   0  0  0  0  0  0  0  0  0  0  0  0
    2.3490  -10.6680    1.1510 H   0  0  0  0  0  0  0  0  0  0  0  0
    2.8760  -10.8479   -1.3842 H   0  0  0  0  0  0  0  0  0  0  0  0
    3.8837  -11.7798   -2.5429 H   0  0  0  0  0  0  0  0  0  0  0  0
    2.0985  -11.9790   -2.5429 H   0  0  0  0  0  0  0  0  0  0  0  0
    4.6532  -14.0822    0.0632 H   0  0  0  0  0  0  0  0  0  0  0  0
    5.5569  -11.6995   -1.5802 H   0  0  0  0  0  0  0  0  0  0  0  0
    5.4610  -11.8428    0.2199 H   0  0  0  0  0  0  0  0  0  0  0  0
    7.7636  -12.1846   -0.4318 H   0  0  0  0  0  0  0  0  0  0  0  0
    7.0781  -13.7718    0.0715 H   0  0  0  0  0  0  0  0  0  0  0  0
    7.3982  -12.6988   -2.7314 H   0  0  0  0  0  0  0  0  0  0  0  0
    9.0226  -14.9554   -0.1431 H   0  0  0  0  0  0  0  0  0  0  0  0
    8.3644  -16.1146   -1.3472 H   0  0  0  0  0  0  0  0  0  0  0  0
   10.1163  -15.7174   -1.3472 H   0  0  0  0  0  0  0  0  0  0  0  0
   10.0115  -12.9315   -0.7902 H   0  0  0  0  0  0  0  0  0  0  0  0
   10.8529  -13.3504   -2.3209 H   0  0  0  0  0  0  0  0  0  0  0  0
    9.5523  -12.1114   -2.3209 H   0  0  0  0  0  0  0  0  0  0  0  0
    8.1883  -15.7457   -5.2323 H   0  0  0  0  0  0  0  0  0  0  0  0
    7.9696  -16.5260   -3.6195 H   0  0  0  0  0  0  0  0  0  0  0  0
    6.5811  -14.0107   -4.6482 H   0  0  0  0  0  0  0  0  0  0  0  0
    5.8425  -15.6327   -4.3639 H   0  0  0  0  0  0  0  0  0  0  0  0
    5.5337  -16.6138   -2.1338 H   0  0  0  0  0  0  0  0  0  0  0  0
    6.0694  -16.0981   -0.7615 H   0  0  0  0  0  0  0  0  0  0  0  0
    3.8634  -13.9261   -3.8669 H   0  0  0  0  0  0  0  0  0  0  0  0
    3.8834  -15.7268   -3.3718 H   0  0  0  0  0  0  0  0  0  0  0  0
    1.7528  -13.8938   -3.2230 H   0  0  0  0  0  0  0  0  0  0  0  0
    1.8958  -15.6306   -2.6454 H   0  0  0  0  0  0  0  0  0  0  0  0
    2.3305  -15.1204    0.8291 H   0  0  0  0  0  0  0  0  0  0  0  0
    1.6372  -16.1823   -0.4430 H   0  0  0  0  0  0  0  0  0  0  0  0
    3.3946  -15.8103   -0.4430 H   0  0  0  0  0  0  0  0  0  0  0  0
    0.3058  -13.1069   -1.6937 H   0  0  0  0  0  0  0  0  0  0  0  0
  1  2  1  0
  2  3  1  0
  3  4  1  0
  4  5  1  0
  5  6  1  0
  6  7  1  6
  7  8  1  0
  8  9  1  0
  9 10  1  0
  9 11  1  0
  9 12  1  0
  6 13  1  0
 13 14  1  0
 13 15  1  0
 15 16  1  6
 15 17  1  0
 17 18  1  0
 18 19  1  0
 19 20  1  0
 20 21  1  0
 21 22  1  0
 21 23  1  0
 21 24  1  0
 24 25  2  0
 24 26  1  0
 26 27  1  0
 28 27  1  6
 28 29  1  0
 30 29  1  1
 30 31  1  0
 31 32  1  0
 32 33  1  0
 33 34  1  1
 33 35  1  0
 35  2  1  0
  8  4  1  0
 33 15  1  0
 35  6  1  0
 30 17  1  0
 28 20  1  0
 30 28  1  0
  1 36  1  0
  1 37  1  0
  1 38  1  0
  2 39  1  1
  3 40  1  0
  3 41  1  0
  4 42  1  1
  7 43  1  0
  7 44  1  0
  8 45  1  6
 10 46  1  0
 10 47  1  0
 10 48  1  0
 11 49  1  0
 11 50  1  0
 11 51  1  0
 12 52  1  0
 13 53  1  1
 14 54  1  0
 16 55  1  0
 16 56  1  0
 16 57  1  0
 17 58  1  1
 18 59  1  0
 18 60  1  0
 19 61  1  0
 19 62  1  0
 20 63  1  6
 22 64  1  0
 22 65  1  0
 22 66  1  0
 23 67  1  0
 23 68  1  0
 23 69  1  0
 26 70  1  0
 26 71  1  0
 27 72  1  0
 27 73  1  0
 29 74  1  0
 29 75  1  0
 31 76  1  0
 31 77  1  0
 32 78  1  0
 32 79  1  0
 34 80  1  0
 34 81  1  0
 34 82  1  0
 35 83  1  6
M  END
>  <meeko>  (9) 
{"is_sidechain": [false], "free_energy": -8.065, "intermolecular_energy": -9.178, "internal_energy": -0.32}

$$$$
