LIB_DEXHSEHQQJCLML__M_PUB_ALL__e8__s20260927
     RDKit          3D

 67 70  0  0  0  0  0  0  0  0999 V2000
   -1.4800   -8.8160    4.1090 C   0  0  0  0  0  0  0  0  0  0  0  0
   -1.5660   -9.3490    2.7060 C   0  0  0  0  0  0  0  0  0  0  0  0
   -2.1910   -8.7760    1.8200 O   0  0  0  0  0  0  0  0  0  0  0  0
   -0.8410  -10.4990    2.5050 N   0  0  0  0  0  0  0  0  0  0  0  0
   -0.7700  -11.1750    1.2190 C   0  0  0  0  0  0  0  0  0  0  0  0
   -0.6820  -12.7080    1.3140 C   0  0  1  0  0  0  0  0  0  0  0  0
   -1.3660  -13.3170    2.5170 C   0  0  0  0  0  0  0  0  0  0  0  0
   -2.6410  -13.7260    2.0010 N   0  0  0  0  0  0  0  0  0  0  0  0
   -3.7340  -14.1020    2.8230 C   0  0  0  0  0  0  0  0  0  0  0  0
   -4.8600  -13.2760    2.9390 C   0  0  0  0  0  0  0  0  0  0  0  0
   -5.9590  -13.6400    3.7370 C   0  0  0  0  0  0  0  0  0  0  0  0
   -5.9870  -14.8410    4.4540 C   0  0  0  0  0  0  0  0  0  0  0  0
   -7.0890  -15.1690    5.2330 N   0  0  0  0  0  0  0  0  0  0  0  0
   -8.1740  -15.9840    4.6670 C   0  0  0  0  0  0  0  0  0  0  0  0
   -8.0540  -17.4360    5.1840 C   0  0  0  0  0  0  0  0  0  0  0  0
   -7.9220  -17.5060    6.6880 N   0  0  0  0  0  0  0  0  0  0  0  0
   -9.2240  -17.4200    7.3840 C   0  0  0  0  0  0  0  0  0  0  0  0
   -9.3010  -16.6280    8.2960 O   0  0  0  0  0  0  0  0  0  0  0  0
  -10.3470  -18.3180    6.8810 C   0  0  0  0  0  0  0  0  0  0  0  0
  -10.9780  -17.8450    5.9350 O   0  0  0  0  0  0  0  0  0  0  0  0
  -10.6710  -19.6430    7.4520 C   0  0  0  0  0  0  0  0  0  0  0  0
  -11.8310  -19.9990    8.0230 C   0  0  0  0  0  0  0  0  0  0  0  0
  -12.0730  -21.3480    8.5620 C   0  0  0  0  0  0  0  0  0  0  0  0
  -11.0330  -22.2850    8.5260 C   0  0  0  0  0  0  0  0  0  0  0  0
  -11.2270  -23.5850    9.0050 C   0  0  0  0  0  0  0  0  0  0  0  0
  -12.4690  -23.9770    9.5230 C   0  0  0  0  0  0  0  0  0  0  0  0
  -12.6870  -25.3880   10.0180 C   0  0  0  0  0  0  0  0  0  0  0  0
  -11.8890  -25.7100   11.0730 F   0  0  0  0  0  0  0  0  0  0  0  0
  -13.9650  -25.6130   10.4310 F   0  0  0  0  0  0  0  0  0  0  0  0
  -12.4320  -26.3140    9.0540 F   0  0  0  0  0  0  0  0  0  0  0  0
  -13.5170  -23.0460    9.5340 C   0  0  0  0  0  0  0  0  0  0  0  0
  -13.3220  -21.7450    9.0560 C   0  0  0  0  0  0  0  0  0  0  0  0
   -6.8910  -16.5620    7.2670 C   0  0  0  0  0  0  0  0  0  0  0  0
   -7.0330  -15.1340    6.7010 C   0  0  0  0  0  0  0  0  0  0  0  0
   -4.8440  -15.6490    4.3330 C   0  0  0  0  0  0  0  0  0  0  0  0
   -4.7950  -16.8380    4.9570 F   0  0  0  0  0  0  0  0  0  0  0  0
   -3.7460  -15.2970    3.5390 C   0  0  0  0  0  0  0  0  0  0  0  0
   -2.5810  -13.7390    0.6140 C   0  0  0  0  0  0  0  0  0  0  0  0
   -3.4440  -14.0700   -0.1820 O   0  0  0  0  0  0  0  0  0  0  0  0
   -1.3480  -13.3030    0.1930 O   0  0  0  0  0  0  0  0  0  0  0  0
   -1.6132   -9.6415    4.8237 H   0  0  0  0  0  0  0  0  0  0  0  0
   -0.4953   -8.3513    4.2650 H   0  0  0  0  0  0  0  0  0  0  0  0
   -2.2686   -8.0652    4.2650 H   0  0  0  0  0  0  0  0  0  0  0  0
   -0.3050  -10.8880    3.2730 H   0  0  0  0  0  0  0  0  0  0  0  0
   -1.6712  -10.9166    0.6437 H   0  0  0  0  0  0  0  0  0  0  0  0
    0.1577  -10.8354    0.7353 H   0  0  0  0  0  0  0  0  0  0  0  0
    0.3987  -12.9060    1.3675 H   0  0  0  0  0  0  0  0  0  0  0  0
   -0.7997  -14.1800    2.8972 H   0  0  0  0  0  0  0  0  0  0  0  0
   -1.4483  -12.6197    3.3637 H   0  0  0  0  0  0  0  0  0  0  0  0
   -4.8847  -12.3212    2.3934 H   0  0  0  0  0  0  0  0  0  0  0  0
   -6.8219  -12.9607    3.7994 H   0  0  0  0  0  0  0  0  0  0  0  0
   -9.1443  -15.5654    4.9725 H   0  0  0  0  0  0  0  0  0  0  0  0
   -8.1008  -15.9792    3.5694 H   0  0  0  0  0  0  0  0  0  0  0  0
   -8.9532  -17.9932    4.8825 H   0  0  0  0  0  0  0  0  0  0  0  0
   -7.1430  -17.8717    4.7480 H   0  0  0  0  0  0  0  0  0  0  0  0
   -7.6140  -18.4650    6.9210 H   0  0  0  0  0  0  0  0  0  0  0  0
   -9.8847  -20.4107    7.4037 H   0  0  0  0  0  0  0  0  0  0  0  0
  -12.6356  -19.2520    8.0917 H   0  0  0  0  0  0  0  0  0  0  0  0
  -10.0536  -21.9960    8.1170 H   0  0  0  0  0  0  0  0  0  0  0  0
  -10.3970  -24.3063    8.9748 H   0  0  0  0  0  0  0  0  0  0  0  0
  -14.5030  -23.3410    9.9224 H   0  0  0  0  0  0  0  0  0  0  0  0
  -14.1565  -21.0285    9.0684 H   0  0  0  0  0  0  0  0  0  0  0  0
   -7.0167  -16.5253    8.3592 H   0  0  0  0  0  0  0  0  0  0  0  0
   -5.8942  -16.9383    6.9938 H   0  0  0  0  0  0  0  0  0  0  0  0
   -7.9573  -14.6806    7.0884 H   0  0  0  0  0  0  0  0  0  0  0  0
   -6.1616  -14.5385    7.0111 H   0  0  0  0  0  0  0  0  0  0  0  0
   -2.8806  -15.9735    3.4796 H   0  0  0  0  0  0  0  0  0  0  0  0
  1  2  1  0
  2  3  2  0
  2  4  1  0
  4  5  1  0
  5  6  1  0
  6  7  1  0
  7  8  1  0
  8  9  1  0
  9 10  2  0
 10 11  1  0
 11 12  2  0
 12 13  1  0
 13 14  1  0
 14 15  1  0
 15 16  1  0
 16 17  1  0
 17 18  2  0
 17 19  1  0
 19 20  2  0
 19 21  1  0
 21 22  2  0
 22 23  1  0
 23 24  2  0
 24 25  1  0
 25 26  2  0
 26 27  1  0
 27 28  1  0
 27 29  1  0
 27 30  1  0
 26 31  1  0
 31 32  2  0
 16 33  1  0
 33 34  1  0
 12 35  1  0
 35 36  1  0
 35 37  2  0
  8 38  1  0
 38 39  2  0
 38 40  1  0
 40  6  1  0
 37  9  1  0
 34 13  1  0
 32 23  1  0
  1 41  1  0
  1 42  1  0
  1 43  1  0
  4 44  1  0
  5 45  1  0
  5 46  1  0
  6 47  1  1
  7 48  1  0
  7 49  1  0
 10 50  1  0
 11 51  1  0
 14 52  1  0
 14 53  1  0
 15 54  1  0
 15 55  1  0
 16 56  1  0
 21 57  1  0
 22 58  1  0
 24 59  1  0
 25 60  1  0
 31 61  1  0
 32 62  1  0
 33 63  1  0
 33 64  1  0
 34 65  1  0
 34 66  1  0
 37 67  1  0
M  CHG  1  16   1
M  END
>  <meeko>  (1) 
{"is_sidechain": [false], "free_energy": -8.916, "intermolecular_energy": -13.608, "internal_energy": -1.0}

$$$$
LIB_DEXHSEHQQJCLML__M_PUB_ALL__e8__s20260927
     RDKit          3D

 67 70  0  0  0  0  0  0  0  0999 V2000
    0.2980  -19.6600   13.0350 C   0  0  0  0  0  0  0  0  0  0  0  0
    0.0690  -18.8830   11.7680 C   0  0  0  0  0  0  0  0  0  0  0  0
   -0.3020  -17.7150   11.7700 O   0  0  0  0  0  0  0  0  0  0  0  0
    0.3640  -19.5870   10.6260 N   0  0  0  0  0  0  0  0  0  0  0  0
    0.2310  -19.0220    9.2920 C   0  0  0  0  0  0  0  0  0  0  0  0
   -1.1890  -19.1100    8.7050 C   0  0  1  0  0  0  0  0  0  0  0  0
   -1.6780  -17.8540    8.0200 C   0  0  0  0  0  0  0  0  0  0  0  0
   -1.4180  -18.1120    6.6320 N   0  0  0  0  0  0  0  0  0  0  0  0
   -1.4580  -17.1110    5.6290 C   0  0  0  0  0  0  0  0  0  0  0  0
   -2.3580  -17.2050    4.5590 C   0  0  0  0  0  0  0  0  0  0  0  0
   -2.4220  -16.2140    3.5640 C   0  0  0  0  0  0  0  0  0  0  0  0
   -1.5940  -15.0870    3.5870 C   0  0  0  0  0  0  0  0  0  0  0  0
   -1.6830  -14.1280    2.5870 N   0  0  0  0  0  0  0  0  0  0  0  0
   -2.4700  -12.9060    2.8070 C   0  0  0  0  0  0  0  0  0  0  0  0
   -1.5190  -11.7250    3.1070 C   0  0  0  0  0  0  0  0  0  0  0  0
   -0.4140  -11.5960    2.0830 N   0  0  0  0  0  0  0  0  0  0  0  0
   -0.8410  -10.8760    0.8650 C   0  0  0  0  0  0  0  0  0  0  0  0
   -1.9630  -11.0980    0.4670 O   0  0  0  0  0  0  0  0  0  0  0  0
    0.1560   -9.9110    0.2360 C   0  0  0  0  0  0  0  0  0  0  0  0
    0.2620   -8.8410    0.8360 O   0  0  0  0  0  0  0  0  0  0  0  0
    0.9440  -10.2070   -0.9800 C   0  0  0  0  0  0  0  0  0  0  0  0
    1.5800  -11.3560   -1.2540 C   0  0  0  0  0  0  0  0  0  0  0  0
    2.3380  -11.5700   -2.4980 C   0  0  0  0  0  0  0  0  0  0  0  0
    2.6350  -10.4650   -3.3060 C   0  0  0  0  0  0  0  0  0  0  0  0
    3.3320  -10.6260   -4.5080 C   0  0  0  0  0  0  0  0  0  0  0  0
    3.7410  -11.8990   -4.9310 C   0  0  0  0  0  0  0  0  0  0  0  0
    4.4720  -12.0770   -6.2410 C   0  0  0  0  0  0  0  0  0  0  0  0
    4.2610  -11.0500   -7.1100 F   0  0  0  0  0  0  0  0  0  0  0  0
    5.8220  -12.1660   -6.0860 F   0  0  0  0  0  0  0  0  0  0  0  0
    4.0900  -13.2090   -6.8920 F   0  0  0  0  0  0  0  0  0  0  0  0
    3.4200  -13.0070   -4.1350 C   0  0  0  0  0  0  0  0  0  0  0  0
    2.7240  -12.8450   -2.9320 C   0  0  0  0  0  0  0  0  0  0  0  0
    0.2980  -12.8940    1.7700 C   0  0  0  0  0  0  0  0  0  0  0  0
   -0.6910  -14.0470    1.5050 C   0  0  0  0  0  0  0  0  0  0  0  0
   -0.6910  -15.0180    4.6610 C   0  0  0  0  0  0  0  0  0  0  0  0
    0.1200  -13.9530    4.7870 F   0  0  0  0  0  0  0  0  0  0  0  0
   -0.6210  -15.9970    5.6590 C   0  0  0  0  0  0  0  0  0  0  0  0
   -1.1900  -19.4710    6.4630 C   0  0  0  0  0  0  0  0  0  0  0  0
   -0.9760  -20.0840    5.4300 O   0  0  0  0  0  0  0  0  0  0  0  0
   -1.2300  -20.1090    7.6790 O   0  0  0  0  0  0  0  0  0  0  0  0
    0.1068  -19.0113   13.9026 H   0  0  0  0  0  0  0  0  0  0  0  0
   -0.3842  -20.5224   13.0646 H   0  0  0  0  0  0  0  0  0  0  0  0
    1.3389  -20.0146   13.0646 H   0  0  0  0  0  0  0  0  0  0  0  0
    0.7170  -20.5340   10.7030 H   0  0  0  0  0  0  0  0  0  0  0  0
    0.5201  -17.9616    9.3367 H   0  0  0  0  0  0  0  0  0  0  0  0
    0.8815  -19.6153    8.6326 H   0  0  0  0  0  0  0  0  0  0  0  0
   -1.8222  -19.3215    9.5793 H   0  0  0  0  0  0  0  0  0  0  0  0
   -2.7527  -17.7012    8.1978 H   0  0  0  0  0  0  0  0  0  0  0  0
   -1.1840  -16.9428    8.3883 H   0  0  0  0  0  0  0  0  0  0  0  0
   -3.0296  -18.0739    4.4962 H   0  0  0  0  0  0  0  0  0  0  0  0
   -3.1449  -16.3283    2.7428 H   0  0  0  0  0  0  0  0  0  0  0  0
   -3.0587  -12.6822    1.9052 H   0  0  0  0  0  0  0  0  0  0  0  0
   -3.1474  -13.0560    3.6606 H   0  0  0  0  0  0  0  0  0  0  0  0
   -2.1044  -10.7937    3.1133 H   0  0  0  0  0  0  0  0  0  0  0  0
   -1.0491  -11.9144    4.0834 H   0  0  0  0  0  0  0  0  0  0  0  0
    0.2930  -10.9540    2.4790 H   0  0  0  0  0  0  0  0  0  0  0  0
    1.0155   -9.4078   -1.7325 H   0  0  0  0  0  0  0  0  0  0  0  0
    1.5332  -12.1725   -0.5184 H   0  0  0  0  0  0  0  0  0  0  0  0
    2.3167   -9.4600   -2.9919 H   0  0  0  0  0  0  0  0  0  0  0  0
    3.5614   -9.7462   -5.1271 H   0  0  0  0  0  0  0  0  0  0  0  0
    3.7184  -14.0148   -4.4595 H   0  0  0  0  0  0  0  0  0  0  0  0
    2.4777  -13.7264   -2.3217 H   0  0  0  0  0  0  0  0  0  0  0  0
    0.9227  -12.7496    0.8762 H   0  0  0  0  0  0  0  0  0  0  0  0
    0.9091  -13.1651    2.6435 H   0  0  0  0  0  0  0  0  0  0  0  0
   -1.2086  -13.8689    0.5509 H   0  0  0  0  0  0  0  0  0  0  0  0
   -0.1327  -14.9937    1.4602 H   0  0  0  0  0  0  0  0  0  0  0  0
    0.1046  -15.8856    6.4782 H   0  0  0  0  0  0  0  0  0  0  0  0
  1  2  1  0
  2  3  2  0
  2  4  1  0
  4  5  1  0
  5  6  1  0
  6  7  1  0
  7  8  1  0
  8  9  1  0
  9 10  2  0
 10 11  1  0
 11 12  2  0
 12 13  1  0
 13 14  1  0
 14 15  1  0
 15 16  1  0
 16 17  1  0
 17 18  2  0
 17 19  1  0
 19 20  2  0
 19 21  1  0
 21 22  2  0
 22 23  1  0
 23 24  2  0
 24 25  1  0
 25 26  2  0
 26 27  1  0
 27 28  1  0
 27 29  1  0
 27 30  1  0
 26 31  1  0
 31 32  2  0
 16 33  1  0
 33 34  1  0
 12 35  1  0
 35 36  1  0
 35 37  2  0
  8 38  1  0
 38 39  2  0
 38 40  1  0
 40  6  1  0
 37  9  1  0
 34 13  1  0
 32 23  1  0
  1 41  1  0
  1 42  1  0
  1 43  1  0
  4 44  1  0
  5 45  1  0
  5 46  1  0
  6 47  1  1
  7 48  1  0
  7 49  1  0
 10 50  1  0
 11 51  1  0
 14 52  1  0
 14 53  1  0
 15 54  1  0
 15 55  1  0
 16 56  1  0
 21 57  1  0
 22 58  1  0
 24 59  1  0
 25 60  1  0
 31 61  1  0
 32 62  1  0
 33 63  1  0
 33 64  1  0
 34 65  1  0
 34 66  1  0
 37 67  1  0
M  CHG  1  16   1
M  END
>  <meeko>  (2) 
{"is_sidechain": [false], "free_energy": -8.876, "intermolecular_energy": -13.5, "internal_energy": -1.047}

$$$$
LIB_DEXHSEHQQJCLML__M_PUB_ALL__e8__s20260927
     RDKit          3D

 67 70  0  0  0  0  0  0  0  0999 V2000
    2.9180  -19.1510    7.2600 C   0  0  0  0  0  0  0  0  0  0  0  0
    1.8480  -18.2530    7.8170 C   0  0  0  0  0  0  0  0  0  0  0  0
    1.7900  -17.0570    7.5540 O   0  0  0  0  0  0  0  0  0  0  0  0
    0.9240  -18.9080    8.5940 N   0  0  0  0  0  0  0  0  0  0  0  0
   -0.2050  -18.2350    9.2180 C   0  0  0  0  0  0  0  0  0  0  0  0
   -1.5490  -18.4560    8.5020 C   0  0  1  0  0  0  0  0  0  0  0  0
   -2.0400  -17.2820    7.6860 C   0  0  0  0  0  0  0  0  0  0  0  0
   -1.6240  -17.6090    6.3520 N   0  0  0  0  0  0  0  0  0  0  0  0
   -1.6220  -16.6790    5.2820 C   0  0  0  0  0  0  0  0  0  0  0  0
   -0.7780  -15.5610    5.3060 C   0  0  0  0  0  0  0  0  0  0  0  0
   -0.7520  -14.6370    4.2470 C   0  0  0  0  0  0  0  0  0  0  0  0
   -1.5630  -14.7830    3.1170 C   0  0  0  0  0  0  0  0  0  0  0  0
   -1.5130  -13.8510    2.0890 N   0  0  0  0  0  0  0  0  0  0  0  0
   -2.7560  -13.2800    1.5510 C   0  0  0  0  0  0  0  0  0  0  0  0
   -2.9520  -11.8510    2.1090 C   0  0  0  0  0  0  0  0  0  0  0  0
   -1.7250  -10.9870    1.9330 N   0  0  0  0  0  0  0  0  0  0  0  0
   -1.6300  -10.3920    0.5820 C   0  0  0  0  0  0  0  0  0  0  0  0
   -2.6130  -10.4790   -0.1200 O   0  0  0  0  0  0  0  0  0  0  0  0
   -0.3210   -9.7100    0.2080 C   0  0  0  0  0  0  0  0  0  0  0  0
    0.0400   -8.8470    1.0080 O   0  0  0  0  0  0  0  0  0  0  0  0
    0.4710  -10.0380   -0.9980 C   0  0  0  0  0  0  0  0  0  0  0  0
    1.3830  -11.0150   -1.1070 C   0  0  0  0  0  0  0  0  0  0  0  0
    2.1230  -11.2790   -2.3530 C   0  0  0  0  0  0  0  0  0  0  0  0
    2.5790  -12.5790   -2.6030 C   0  0  0  0  0  0  0  0  0  0  0  0
    3.3070  -12.8700   -3.7610 C   0  0  0  0  0  0  0  0  0  0  0  0
    3.6020  -11.8620   -4.6910 C   0  0  0  0  0  0  0  0  0  0  0  0
    4.4100  -12.1690   -5.9300 C   0  0  0  0  0  0  0  0  0  0  0  0
    4.0330  -13.3290   -6.5350 F   0  0  0  0  0  0  0  0  0  0  0  0
    4.3110  -11.1990   -6.8810 F   0  0  0  0  0  0  0  0  0  0  0  0
    5.7370  -12.2980   -5.6580 F   0  0  0  0  0  0  0  0  0  0  0  0
    3.1690  -10.5560   -4.4250 C   0  0  0  0  0  0  0  0  0  0  0  0
    2.4390  -10.2660   -3.2670 C   0  0  0  0  0  0  0  0  0  0  0  0
   -0.4330  -11.6440    2.3680 C   0  0  0  0  0  0  0  0  0  0  0  0
   -0.2960  -13.0760    1.8110 C   0  0  0  0  0  0  0  0  0  0  0  0
   -2.4110  -15.9050    3.1180 C   0  0  0  0  0  0  0  0  0  0  0  0
   -3.2000  -16.1480    2.0580 F   0  0  0  0  0  0  0  0  0  0  0  0
   -2.4420  -16.8320    4.1650 C   0  0  0  0  0  0  0  0  0  0  0  0
   -1.2970  -18.9580    6.3020 C   0  0  0  0  0  0  0  0  0  0  0  0
   -0.9410  -19.6190    5.3400 O   0  0  0  0  0  0  0  0  0  0  0  0
   -1.4230  -19.5190    7.5490 O   0  0  0  0  0  0  0  0  0  0  0  0
    3.4731  -19.6169    8.0875 H   0  0  0  0  0  0  0  0  0  0  0  0
    2.4544  -19.9345    6.6425 H   0  0  0  0  0  0  0  0  0  0  0  0
    3.6091  -18.5585    6.6425 H   0  0  0  0  0  0  0  0  0  0  0  0
    1.0060  -19.9100    8.7250 H   0  0  0  0  0  0  0  0  0  0  0  0
   -0.2994  -18.6051   10.2496 H   0  0  0  0  0  0  0  0  0  0  0  0
    0.0047  -17.1563    9.1681 H   0  0  0  0  0  0  0  0  0  0  0  0
   -2.2549  -18.6540    9.3220 H   0  0  0  0  0  0  0  0  0  0  0  0
   -3.1346  -17.1908    7.7461 H   0  0  0  0  0  0  0  0  0  0  0  0
   -1.6422  -16.3182    8.0365 H   0  0  0  0  0  0  0  0  0  0  0  0
   -0.1205  -15.4026    6.1736 H   0  0  0  0  0  0  0  0  0  0  0  0
   -0.0736  -13.7734    4.3089 H   0  0  0  0  0  0  0  0  0  0  0  0
   -2.6958  -13.2398    0.4534 H   0  0  0  0  0  0  0  0  0  0  0  0
   -3.6073  -13.9095    1.8492 H   0  0  0  0  0  0  0  0  0  0  0  0
   -3.7942  -11.3790    1.5818 H   0  0  0  0  0  0  0  0  0  0  0  0
   -3.1473  -11.9377    3.1880 H   0  0  0  0  0  0  0  0  0  0  0  0
   -1.8530  -10.1530    2.5290 H   0  0  0  0  0  0  0  0  0  0  0  0
    0.2947   -9.4209   -1.8913 H   0  0  0  0  0  0  0  0  0  0  0  0
    1.5871  -11.6457   -0.2292 H   0  0  0  0  0  0  0  0  0  0  0  0
    2.3623  -13.3800   -1.8808 H   0  0  0  0  0  0  0  0  0  0  0  0
    3.6514  -13.8985   -3.9443 H   0  0  0  0  0  0  0  0  0  0  0  0
    3.4057   -9.7496   -5.1347 H   0  0  0  0  0  0  0  0  0  0  0  0
    2.1107   -9.2342   -3.0730 H   0  0  0  0  0  0  0  0  0  0  0  0
    0.4119  -11.0399    2.0059 H   0  0  0  0  0  0  0  0  0  0  0  0
   -0.4366  -11.7058    3.4663 H   0  0  0  0  0  0  0  0  0  0  0  0
   -0.1367  -13.0285    0.7236 H   0  0  0  0  0  0  0  0  0  0  0  0
    0.5597  -13.5680    2.2966 H   0  0  0  0  0  0  0  0  0  0  0  0
   -3.1230  -17.6939    4.1062 H   0  0  0  0  0  0  0  0  0  0  0  0
  1  2  1  0
  2  3  2  0
  2  4  1  0
  4  5  1  0
  5  6  1  0
  6  7  1  0
  7  8  1  0
  8  9  1  0
  9 10  2  0
 10 11  1  0
 11 12  2  0
 12 13  1  0
 13 14  1  0
 14 15  1  0
 15 16  1  0
 16 17  1  0
 17 18  2  0
 17 19  1  0
 19 20  2  0
 19 21  1  0
 21 22  2  0
 22 23  1  0
 23 24  2  0
 24 25  1  0
 25 26  2  0
 26 27  1  0
 27 28  1  0
 27 29  1  0
 27 30  1  0
 26 31  1  0
 31 32  2  0
 16 33  1  0
 33 34  1  0
 12 35  1  0
 35 36  1  0
 35 37  2  0
  8 38  1  0
 38 39  2  0
 38 40  1  0
 40  6  1  0
 37  9  1  0
 34 13  1  0
 32 23  1  0
  1 41  1  0
  1 42  1  0
  1 43  1  0
  4 44  1  0
  5 45  1  0
  5 46  1  0
  6 47  1  1
  7 48  1  0
  7 49  1  0
 10 50  1  0
 11 51  1  0
 14 52  1  0
 14 53  1  0
 15 54  1  0
 15 55  1  0
 16 56  1  0
 21 57  1  0
 22 58  1  0
 24 59  1  0
 25 60  1  0
 31 61  1  0
 32 62  1  0
 33 63  1  0
 33 64  1  0
 34 65  1  0
 34 66  1  0
 37 67  1  0
M  CHG  1  16   1
M  END
>  <meeko>  (3) 
{"is_sidechain": [false], "free_energy": -8.764, "intermolecular_energy": -13.353, "internal_energy": -1.022}

$$$$
LIB_DEXHSEHQQJCLML__M_PUB_ALL__e8__s20260927
     RDKit          3D

 67 70  0  0  0  0  0  0  0  0999 V2000
    7.8060   -6.9410    2.9740 C   0  0  0  0  0  0  0  0  0  0  0  0
    7.0780   -7.9870    2.1760 C   0  0  0  0  0  0  0  0  0  0  0  0
    5.9420   -8.3550    2.4540 O   0  0  0  0  0  0  0  0  0  0  0  0
    7.7830   -8.4440    1.0900 N   0  0  0  0  0  0  0  0  0  0  0  0
    7.2610   -9.4450    0.1720 C   0  0  0  0  0  0  0  0  0  0  0  0
    7.5500  -10.8980    0.5870 C   0  0  1  0  0  0  0  0  0  0  0  0
    6.4770  -11.5500    1.4290 C   0  0  0  0  0  0  0  0  0  0  0  0
    5.7130  -12.2960    0.4710 N   0  0  0  0  0  0  0  0  0  0  0  0
    4.4390  -12.8540    0.7490 C   0  0  0  0  0  0  0  0  0  0  0  0
    3.2670  -12.1980    0.3510 C   0  0  0  0  0  0  0  0  0  0  0  0
    1.9970  -12.7440    0.6050 C   0  0  0  0  0  0  0  0  0  0  0  0
    1.8350  -13.9670    1.2640 C   0  0  0  0  0  0  0  0  0  0  0  0
    0.5650  -14.4780    1.4990 N   0  0  0  0  0  0  0  0  0  0  0  0
   -0.1310  -14.1690    2.7560 C   0  0  0  0  0  0  0  0  0  0  0  0
   -1.2040  -13.0860    2.5000 C   0  0  0  0  0  0  0  0  0  0  0  0
   -2.1070  -13.4260    1.3380 N   0  0  0  0  0  0  0  0  0  0  0  0
   -3.2010  -14.3480    1.7120 C   0  0  0  0  0  0  0  0  0  0  0  0
   -3.0330  -15.5200    1.4640 O   0  0  0  0  0  0  0  0  0  0  0  0
   -4.4250  -13.7430    2.3880 C   0  0  0  0  0  0  0  0  0  0  0  0
   -4.7170  -12.6190    1.9790 O   0  0  0  0  0  0  0  0  0  0  0  0
   -5.2140  -14.4220    3.4380 C   0  0  0  0  0  0  0  0  0  0  0  0
   -6.0280  -13.8320    4.3260 C   0  0  0  0  0  0  0  0  0  0  0  0
   -6.7850  -14.5870    5.3390 C   0  0  0  0  0  0  0  0  0  0  0  0
   -6.6270  -14.2510    6.6890 C   0  0  0  0  0  0  0  0  0  0  0  0
   -7.3080  -14.9580    7.6850 C   0  0  0  0  0  0  0  0  0  0  0  0
   -8.1580  -16.0220    7.3510 C   0  0  0  0  0  0  0  0  0  0  0  0
   -8.8750  -16.8020    8.4280 C   0  0  0  0  0  0  0  0  0  0  0  0
   -9.4220  -17.9610    7.9690 F   0  0  0  0  0  0  0  0  0  0  0  0
   -8.0590  -17.1560    9.4590 F   0  0  0  0  0  0  0  0  0  0  0  0
   -9.8970  -16.0940    8.9800 F   0  0  0  0  0  0  0  0  0  0  0  0
   -8.2950  -16.3750    6.0020 C   0  0  0  0  0  0  0  0  0  0  0  0
   -7.6140  -15.6660    5.0050 C   0  0  0  0  0  0  0  0  0  0  0  0
   -1.3750  -13.8710    0.0910 C   0  0  0  0  0  0  0  0  0  0  0  0
   -0.2980  -14.9310    0.4000 C   0  0  0  0  0  0  0  0  0  0  0  0
    3.0230  -14.6030    1.6650 C   0  0  0  0  0  0  0  0  0  0  0  0
    2.9680  -15.8000    2.2740 F   0  0  0  0  0  0  0  0  0  0  0  0
    4.2920  -14.0700    1.4150 C   0  0  0  0  0  0  0  0  0  0  0  0
    6.4510  -12.4120   -0.6990 C   0  0  0  0  0  0  0  0  0  0  0  0
    6.1630  -13.0080   -1.7250 O   0  0  0  0  0  0  0  0  0  0  0  0
    7.6360  -11.7280   -0.5780 O   0  0  0  0  0  0  0  0  0  0  0  0
    7.6691   -7.1377    4.0476 H   0  0  0  0  0  0  0  0  0  0  0  0
    8.8779   -6.9731    2.7291 H   0  0  0  0  0  0  0  0  0  0  0  0
    7.4036   -5.9470    2.7291 H   0  0  0  0  0  0  0  0  0  0  0  0
    8.6980   -8.0550    0.8920 H   0  0  0  0  0  0  0  0  0  0  0  0
    6.1706   -9.3162    0.1059 H   0  0  0  0  0  0  0  0  0  0  0  0
    7.7700   -9.2854   -0.7900 H   0  0  0  0  0  0  0  0  0  0  0  0
    8.4796  -10.8247    1.1705 H   0  0  0  0  0  0  0  0  0  0  0  0
    6.9194  -12.2158    2.1846 H   0  0  0  0  0  0  0  0  0  0  0  0
    5.8711  -10.8243    1.9914 H   0  0  0  0  0  0  0  0  0  0  0  0
    3.3423  -11.2334   -0.1723 H   0  0  0  0  0  0  0  0  0  0  0  0
    1.1037  -12.1930    0.2756 H   0  0  0  0  0  0  0  0  0  0  0  0
   -0.6138  -15.0794    3.1408 H   0  0  0  0  0  0  0  0  0  0  0  0
    0.5948  -13.7978    3.4945 H   0  0  0  0  0  0  0  0  0  0  0  0
   -1.8198  -12.9793    3.4052 H   0  0  0  0  0  0  0  0  0  0  0  0
   -0.6807  -12.1506    2.2526 H   0  0  0  0  0  0  0  0  0  0  0  0
   -2.6230  -12.5650    1.0920 H   0  0  0  0  0  0  0  0  0  0  0  0
   -5.1249  -15.5168    3.4966 H   0  0  0  0  0  0  0  0  0  0  0  0
   -6.1347  -12.7376    4.2964 H   0  0  0  0  0  0  0  0  0  0  0  0
   -5.9602  -13.4222    6.9691 H   0  0  0  0  0  0  0  0  0  0  0  0
   -7.1756  -14.6768    8.7402 H   0  0  0  0  0  0  0  0  0  0  0  0
   -8.9444  -17.2180    5.7233 H   0  0  0  0  0  0  0  0  0  0  0  0
   -7.7308  -15.9585    3.9510 H   0  0  0  0  0  0  0  0  0  0  0  0
   -2.1026  -14.2992   -0.6141 H   0  0  0  0  0  0  0  0  0  0  0  0
   -0.8728  -12.9922   -0.3398 H   0  0  0  0  0  0  0  0  0  0  0  0
   -0.7882  -15.8725    0.6884 H   0  0  0  0  0  0  0  0  0  0  0  0
    0.3186  -15.0858   -0.4977 H   0  0  0  0  0  0  0  0  0  0  0  0
    5.1859  -14.6176    1.7483 H   0  0  0  0  0  0  0  0  0  0  0  0
  1  2  1  0
  2  3  2  0
  2  4  1  0
  4  5  1  0
  5  6  1  0
  6  7  1  0
  7  8  1  0
  8  9  1  0
  9 10  2  0
 10 11  1  0
 11 12  2  0
 12 13  1  0
 13 14  1  0
 14 15  1  0
 15 16  1  0
 16 17  1  0
 17 18  2  0
 17 19  1  0
 19 20  2  0
 19 21  1  0
 21 22  2  0
 22 23  1  0
 23 24  2  0
 24 25  1  0
 25 26  2  0
 26 27  1  0
 27 28  1  0
 27 29  1  0
 27 30  1  0
 26 31  1  0
 31 32  2  0
 16 33  1  0
 33 34  1  0
 12 35  1  0
 35 36  1  0
 35 37  2  0
  8 38  1  0
 38 39  2  0
 38 40  1  0
 40  6  1  0
 37  9  1  0
 34 13  1  0
 32 23  1  0
  1 41  1  0
  1 42  1  0
  1 43  1  0
  4 44  1  0
  5 45  1  0
  5 46  1  0
  6 47  1  1
  7 48  1  0
  7 49  1  0
 10 50  1  0
 11 51  1  0
 14 52  1  0
 14 53  1  0
 15 54  1  0
 15 55  1  0
 16 56  1  0
 21 57  1  0
 22 58  1  0
 24 59  1  0
 25 60  1  0
 31 61  1  0
 32 62  1  0
 33 63  1  0
 33 64  1  0
 34 65  1  0
 34 66  1  0
 37 67  1  0
M  CHG  1  16   1
M  END
>  <meeko>  (4) 
{"is_sidechain": [false], "free_energy": -8.55, "intermolecular_energy": -13.084, "internal_energy": -0.965}

$$$$
LIB_DEXHSEHQQJCLML__M_PUB_ALL__e8__s20260927
     RDKit          3D

 67 70  0  0  0  0  0  0  0  0999 V2000
   -3.0150  -15.6370    8.7400 C   0  0  0  0  0  0  0  0  0  0  0  0
   -2.8300  -17.1020    9.0230 C   0  0  0  0  0  0  0  0  0  0  0  0
   -3.7210  -17.7990    9.4970 O   0  0  0  0  0  0  0  0  0  0  0  0
   -1.5990  -17.5870    8.6530 N   0  0  0  0  0  0  0  0  0  0  0  0
   -1.2130  -18.9800    8.8200 C   0  0  0  0  0  0  0  0  0  0  0  0
   -0.7130  -19.6580    7.5330 C   0  0  1  0  0  0  0  0  0  0  0  0
   -1.2540  -19.0730    6.2480 C   0  0  0  0  0  0  0  0  0  0  0  0
   -0.2100  -18.1850    5.8240 N   0  0  0  0  0  0  0  0  0  0  0  0
   -0.3770  -17.2080    4.8100 C   0  0  0  0  0  0  0  0  0  0  0  0
   -0.9040  -15.9460    5.1110 C   0  0  0  0  0  0  0  0  0  0  0  0
   -1.0630  -14.9590    4.1220 C   0  0  0  0  0  0  0  0  0  0  0  0
   -0.7030  -15.1850    2.7890 C   0  0  0  0  0  0  0  0  0  0  0  0
   -0.8730  -14.1880    1.8370 N   0  0  0  0  0  0  0  0  0  0  0  0
   -2.2260  -13.7640    1.4490 C   0  0  0  0  0  0  0  0  0  0  0  0
   -2.5610  -12.4180    2.1310 C   0  0  0  0  0  0  0  0  0  0  0  0
   -1.4840  -11.3790    1.9240 N   0  0  0  0  0  0  0  0  0  0  0  0
   -1.5940  -10.6880    0.6220 C   0  0  0  0  0  0  0  0  0  0  0  0
   -2.6460  -10.8040    0.0320 O   0  0  0  0  0  0  0  0  0  0  0  0
   -0.3900   -9.8820    0.1520 C   0  0  0  0  0  0  0  0  0  0  0  0
   -0.1080   -8.9330    0.8850 O   0  0  0  0  0  0  0  0  0  0  0  0
    0.3920  -10.1890   -1.0650 C   0  0  0  0  0  0  0  0  0  0  0  0
    1.4320  -11.0320   -1.1490 C   0  0  0  0  0  0  0  0  0  0  0  0
    2.1520  -11.2860   -2.4070 C   0  0  0  0  0  0  0  0  0  0  0  0
    2.4910  -12.6050   -2.7350 C   0  0  0  0  0  0  0  0  0  0  0  0
    3.1980  -12.8900   -3.9080 C   0  0  0  0  0  0  0  0  0  0  0  0
    3.5860  -11.8590   -4.7760 C   0  0  0  0  0  0  0  0  0  0  0  0
    4.3690  -12.1630   -6.0310 C   0  0  0  0  0  0  0  0  0  0  0  0
    4.0250  -13.3530   -6.5970 F   0  0  0  0  0  0  0  0  0  0  0  0
    4.2010  -11.2230   -7.0020 F   0  0  0  0  0  0  0  0  0  0  0  0
    5.7080  -12.2290   -5.7960 F   0  0  0  0  0  0  0  0  0  0  0  0
    3.2690  -10.5380   -4.4340 C   0  0  0  0  0  0  0  0  0  0  0  0
    2.5610  -10.2530   -3.2600 C   0  0  0  0  0  0  0  0  0  0  0  0
   -0.0810  -11.8740    2.2000 C   0  0  0  0  0  0  0  0  0  0  0  0
    0.1970  -13.2320    1.5230 C   0  0  0  0  0  0  0  0  0  0  0  0
   -0.1870  -16.4610    2.5050 C   0  0  0  0  0  0  0  0  0  0  0  0
    0.2190  -16.7560    1.2590 F   0  0  0  0  0  0  0  0  0  0  0  0
   -0.0220  -17.4480    3.4830 C   0  0  0  0  0  0  0  0  0  0  0  0
    0.9520  -18.4930    6.5190 C   0  0  0  0  0  0  0  0  0  0  0  0
    2.0600  -17.9930    6.4100 O   0  0  0  0  0  0  0  0  0  0  0  0
    0.7070  -19.5000    7.4210 O   0  0  0  0  0  0  0  0  0  0  0  0
   -3.0846  -15.0861    9.6895 H   0  0  0  0  0  0  0  0  0  0  0  0
   -2.1568  -15.2640    8.1617 H   0  0  0  0  0  0  0  0  0  0  0  0
   -3.9390  -15.4891    8.1617 H   0  0  0  0  0  0  0  0  0  0  0  0
   -0.9290  -16.9620    8.2180 H   0  0  0  0  0  0  0  0  0  0  0  0
   -0.4086  -19.0270    9.5688 H   0  0  0  0  0  0  0  0  0  0  0  0
   -2.1185  -19.5223    9.1299 H   0  0  0  0  0  0  0  0  0  0  0  0
   -1.0547  -20.6987    7.6343 H   0  0  0  0  0  0  0  0  0  0  0  0
   -1.4297  -19.8602    5.5000 H   0  0  0  0  0  0  0  0  0  0  0  0
   -2.2220  -18.5674    6.3794 H   0  0  0  0  0  0  0  0  0  0  0  0
   -1.2008  -15.7213    6.1461 H   0  0  0  0  0  0  0  0  0  0  0  0
   -1.4821  -13.9819    4.4043 H   0  0  0  0  0  0  0  0  0  0  0  0
   -2.2730  -13.6430    0.3567 H   0  0  0  0  0  0  0  0  0  0  0  0
   -2.9534  -14.5260    1.7658 H   0  0  0  0  0  0  0  0  0  0  0  0
   -3.5041  -12.0362    1.7130 H   0  0  0  0  0  0  0  0  0  0  0  0
   -2.6425  -12.6031    3.2122 H   0  0  0  0  0  0  0  0  0  0  0  0
   -1.6680  -10.6130    2.5930 H   0  0  0  0  0  0  0  0  0  0  0  0
    0.0918   -9.6765   -1.9909 H   0  0  0  0  0  0  0  0  0  0  0  0
    1.7605  -11.5556   -0.2391 H   0  0  0  0  0  0  0  0  0  0  0  0
    2.1982  -13.4253   -2.0631 H   0  0  0  0  0  0  0  0  0  0  0  0
    3.4519  -13.9322   -4.1518 H   0  0  0  0  0  0  0  0  0  0  0  0
    3.5797   -9.7155   -5.0950 H   0  0  0  0  0  0  0  0  0  0  0  0
    2.3241   -9.2094   -3.0056 H   0  0  0  0  0  0  0  0  0  0  0  0
    0.6380  -11.1337    1.8192 H   0  0  0  0  0  0  0  0  0  0  0  0
    0.0239  -12.0086    3.2867 H   0  0  0  0  0  0  0  0  0  0  0  0
    0.2484  -13.0902    0.4334 H   0  0  0  0  0  0  0  0  0  0  0  0
    1.1521  -13.6290    1.8974 H   0  0  0  0  0  0  0  0  0  0  0  0
    0.3935  -18.4267    3.2012 H   0  0  0  0  0  0  0  0  0  0  0  0
  1  2  1  0
  2  3  2  0
  2  4  1  0
  4  5  1  0
  5  6  1  0
  6  7  1  0
  7  8  1  0
  8  9  1  0
  9 10  2  0
 10 11  1  0
 11 12  2  0
 12 13  1  0
 13 14  1  0
 14 15  1  0
 15 16  1  0
 16 17  1  0
 17 18  2  0
 17 19  1  0
 19 20  2  0
 19 21  1  0
 21 22  2  0
 22 23  1  0
 23 24  2  0
 24 25  1  0
 25 26  2  0
 26 27  1  0
 27 28  1  0
 27 29  1  0
 27 30  1  0
 26 31  1  0
 31 32  2  0
 16 33  1  0
 33 34  1  0
 12 35  1  0
 35 36  1  0
 35 37  2  0
  8 38  1  0
 38 39  2  0
 38 40  1  0
 40  6  1  0
 37  9  1  0
 34 13  1  0
 32 23  1  0
  1 41  1  0
  1 42  1  0
  1 43  1  0
  4 44  1  0
  5 45  1  0
  5 46  1  0
  6 47  1  1
  7 48  1  0
  7 49  1  0
 10 50  1  0
 11 51  1  0
 14 52  1  0
 14 53  1  0
 15 54  1  0
 15 55  1  0
 16 56  1  0
 21 57  1  0
 22 58  1  0
 24 59  1  0
 25 60  1  0
 31 61  1  0
 32 62  1  0
 33 63  1  0
 33 64  1  0
 34 65  1  0
 34 66  1  0
 37 67  1  0
M  CHG  1  16   1
M  END
>  <meeko>  (5) 
{"is_sidechain": [false], "free_energy": -8.532, "intermolecular_energy": -12.717, "internal_energy": -1.305}

$$$$
LIB_DEXHSEHQQJCLML__M_PUB_ALL__e8__s20260927
     RDKit          3D

 67 70  0  0  0  0  0  0  0  0999 V2000
   12.7610  -11.3810    0.0010 C   0  0  0  0  0  0  0  0  0  0  0  0
   11.5420  -12.1510    0.4280 C   0  0  0  0  0  0  0  0  0  0  0  0
   11.5900  -13.0480    1.2630 O   0  0  0  0  0  0  0  0  0  0  0  0
   10.3800  -11.7200   -0.1620 N   0  0  0  0  0  0  0  0  0  0  0  0
    9.0810  -12.3120    0.1210 C   0  0  0  0  0  0  0  0  0  0  0  0
    8.5460  -13.2290   -0.9940 C   0  0  1  0  0  0  0  0  0  0  0  0
    7.3680  -14.0910   -0.6040 C   0  0  0  0  0  0  0  0  0  0  0  0
    6.2400  -13.3500   -1.0910 N   0  0  0  0  0  0  0  0  0  0  0  0
    4.9000  -13.6280   -0.7200 C   0  0  0  0  0  0  0  0  0  0  0  0
    4.4480  -14.9490   -0.6060 C   0  0  0  0  0  0  0  0  0  0  0  0
    3.1270  -15.2440   -0.2240 C   0  0  0  0  0  0  0  0  0  0  0  0
    2.1970  -14.2380    0.0600 C   0  0  0  0  0  0  0  0  0  0  0  0
    0.9000  -14.5640    0.4330 N   0  0  0  0  0  0  0  0  0  0  0  0
   -0.1980  -14.4410   -0.5370 C   0  0  0  0  0  0  0  0  0  0  0  0
   -0.5760  -15.8430   -1.0690 C   0  0  0  0  0  0  0  0  0  0  0  0
   -0.8140  -16.8400    0.0410 N   0  0  0  0  0  0  0  0  0  0  0  0
   -2.1740  -16.7480    0.6140 C   0  0  0  0  0  0  0  0  0  0  0  0
   -3.0110  -16.1920   -0.0610 O   0  0  0  0  0  0  0  0  0  0  0  0
   -2.4000  -17.3730    1.9850 C   0  0  0  0  0  0  0  0  0  0  0  0
   -1.9390  -18.5090    2.0970 O   0  0  0  0  0  0  0  0  0  0  0  0
   -3.1000  -16.6990    3.1000 C   0  0  0  0  0  0  0  0  0  0  0  0
   -4.0630  -17.2290    3.8680 C   0  0  0  0  0  0  0  0  0  0  0  0
   -4.7050  -16.4880    4.9670 C   0  0  0  0  0  0  0  0  0  0  0  0
   -5.7390  -15.5940    4.6630 C   0  0  0  0  0  0  0  0  0  0  0  0
   -6.3600  -14.8510    5.6720 C   0  0  0  0  0  0  0  0  0  0  0  0
   -5.9540  -14.9820    7.0080 C   0  0  0  0  0  0  0  0  0  0  0  0
   -6.6070  -14.1630    8.0960 C   0  0  0  0  0  0  0  0  0  0  0  0
   -7.9280  -14.4510    8.2580 F   0  0  0  0  0  0  0  0  0  0  0  0
   -6.0300  -14.3460    9.3160 F   0  0  0  0  0  0  0  0  0  0  0  0
   -6.5390  -12.8270    7.8420 F   0  0  0  0  0  0  0  0  0  0  0  0
   -4.9010  -15.8580    7.3070 C   0  0  0  0  0  0  0  0  0  0  0  0
   -4.2810  -16.6020    6.2970 C   0  0  0  0  0  0  0  0  0  0  0  0
    0.2630  -16.8580    1.1030 C   0  0  0  0  0  0  0  0  0  0  0  0
    0.6260  -15.4370    1.5830 C   0  0  0  0  0  0  0  0  0  0  0  0
    2.6670  -12.9200   -0.0730 C   0  0  0  0  0  0  0  0  0  0  0  0
    1.8560  -11.8880    0.2140 F   0  0  0  0  0  0  0  0  0  0  0  0
    3.9810  -12.6160   -0.4490 C   0  0  0  0  0  0  0  0  0  0  0  0
    6.6870  -12.3960   -1.9960 C   0  0  0  0  0  0  0  0  0  0  0  0
    6.0310  -11.6040   -2.6530 O   0  0  0  0  0  0  0  0  0  0  0  0
    8.0570  -12.4360   -2.0820 O   0  0  0  0  0  0  0  0  0  0  0  0
   13.3072  -11.0360    0.8913 H   0  0  0  0  0  0  0  0  0  0  0  0
   13.4134  -12.0312   -0.6003 H   0  0  0  0  0  0  0  0  0  0  0  0
   12.4541  -10.5125   -0.6003 H   0  0  0  0  0  0  0  0  0  0  0  0
   10.4100  -10.9360   -0.8050 H   0  0  0  0  0  0  0  0  0  0  0  0
    9.1663  -12.9051    1.0435 H   0  0  0  0  0  0  0  0  0  0  0  0
    8.3685  -11.4790    0.2126 H   0  0  0  0  0  0  0  0  0  0  0  0
    9.4043  -13.8711   -1.2412 H   0  0  0  0  0  0  0  0  0  0  0  0
    7.4270  -15.0791   -1.0837 H   0  0  0  0  0  0  0  0  0  0  0  0
    7.3187  -14.2883    0.4770 H   0  0  0  0  0  0  0  0  0  0  0  0
    5.1424  -15.7748   -0.8202 H   0  0  0  0  0  0  0  0  0  0  0  0
    2.8159  -16.2962   -0.1462 H   0  0  0  0  0  0  0  0  0  0  0  0
   -1.0717  -13.9874   -0.0462 H   0  0  0  0  0  0  0  0  0  0  0  0
    0.1231  -13.8053   -1.3753 H   0  0  0  0  0  0  0  0  0  0  0  0
   -1.4944  -15.7568   -1.6682 H   0  0  0  0  0  0  0  0  0  0  0  0
    0.2681  -16.2098   -1.6715 H   0  0  0  0  0  0  0  0  0  0  0  0
   -0.8240  -17.7790   -0.3910 H   0  0  0  0  0  0  0  0  0  0  0  0
   -2.8020  -15.6633    3.3205 H   0  0  0  0  0  0  0  0  0  0  0  0
   -4.3872  -18.2611    3.6687 H   0  0  0  0  0  0  0  0  0  0  0  0
   -6.0662  -15.4749    3.6196 H   0  0  0  0  0  0  0  0  0  0  0  0
   -7.1744  -14.1575    5.4154 H   0  0  0  0  0  0  0  0  0  0  0  0
   -4.5584  -15.9616    8.3471 H   0  0  0  0  0  0  0  0  0  0  0  0
   -3.4540  -17.2819    6.5496 H   0  0  0  0  0  0  0  0  0  0  0  0
   -0.0961  -17.4423    1.9630 H   0  0  0  0  0  0  0  0  0  0  0  0
    1.1652  -17.3090    0.6641 H   0  0  0  0  0  0  0  0  0  0  0  0
   -0.2140  -15.0235    2.1603 H   0  0  0  0  0  0  0  0  0  0  0  0
    1.5261  -15.4914    2.2130 H   0  0  0  0  0  0  0  0  0  0  0  0
    4.2921  -11.5642   -0.5316 H   0  0  0  0  0  0  0  0  0  0  0  0
  1  2  1  0
  2  3  2  0
  2  4  1  0
  4  5  1  0
  5  6  1  0
  6  7  1  0
  7  8  1  0
  8  9  1  0
  9 10  2  0
 10 11  1  0
 11 12  2  0
 12 13  1  0
 13 14  1  0
 14 15  1  0
 15 16  1  0
 16 17  1  0
 17 18  2  0
 17 19  1  0
 19 20  2  0
 19 21  1  0
 21 22  2  0
 22 23  1  0
 23 24  2  0
 24 25  1  0
 25 26  2  0
 26 27  1  0
 27 28  1  0
 27 29  1  0
 27 30  1  0
 26 31  1  0
 31 32  2  0
 16 33  1  0
 33 34  1  0
 12 35  1  0
 35 36  1  0
 35 37  2  0
  8 38  1  0
 38 39  2  0
 38 40  1  0
 40  6  1  0
 37  9  1  0
 34 13  1  0
 32 23  1  0
  1 41  1  0
  1 42  1  0
  1 43  1  0
  4 44  1  0
  5 45  1  0
  5 46  1  0
  6 47  1  6
  7 48  1  0
  7 49  1  0
 10 50  1  0
 11 51  1  0
 14 52  1  0
 14 53  1  0
 15 54  1  0
 15 55  1  0
 16 56  1  0
 21 57  1  0
 22 58  1  0
 24 59  1  0
 25 60  1  0
 31 61  1  0
 32 62  1  0
 33 63  1  0
 33 64  1  0
 34 65  1  0
 34 66  1  0
 37 67  1  0
M  CHG  1  16   1
M  END
>  <meeko>  (6) 
{"is_sidechain": [false], "free_energy": -8.497, "intermolecular_energy": -13.314, "internal_energy": -0.655}

$$$$
LIB_DEXHSEHQQJCLML__M_PUB_ALL__e8__s20260927
     RDKit          3D

 67 70  0  0  0  0  0  0  0  0999 V2000
   12.3460  -12.4100    0.0860 C   0  0  0  0  0  0  0  0  0  0  0  0
   10.8780  -12.2830    0.3870 C   0  0  0  0  0  0  0  0  0  0  0  0
   10.4600  -11.9170    1.4810 O   0  0  0  0  0  0  0  0  0  0  0  0
   10.0660  -12.5620   -0.6840 N   0  0  0  0  0  0  0  0  0  0  0  0
    8.6150  -12.4840   -0.6190 C   0  0  0  0  0  0  0  0  0  0  0  0
    7.9260  -13.8070   -0.2410 C   0  0  1  0  0  0  0  0  0  0  0  0
    6.6710  -13.6610    0.5900 C   0  0  0  0  0  0  0  0  0  0  0  0
    5.6190  -13.7450   -0.3830 N   0  0  0  0  0  0  0  0  0  0  0  0
    4.2740  -13.3890   -0.1140 C   0  0  0  0  0  0  0  0  0  0  0  0
    3.6490  -12.3560   -0.8250 C   0  0  0  0  0  0  0  0  0  0  0  0
    2.3110  -12.0000   -0.5820 C   0  0  0  0  0  0  0  0  0  0  0  0
    1.5340  -12.6540    0.3790 C   0  0  0  0  0  0  0  0  0  0  0  0
    0.2150  -12.2770    0.5940 N   0  0  0  0  0  0  0  0  0  0  0  0
   -0.8820  -13.1310    0.1170 C   0  0  0  0  0  0  0  0  0  0  0  0
   -1.4800  -13.9160    1.3060 C   0  0  0  0  0  0  0  0  0  0  0  0
   -1.8290  -13.0240    2.4740 N   0  0  0  0  0  0  0  0  0  0  0  0
   -3.1420  -12.3610    2.3190 C   0  0  0  0  0  0  0  0  0  0  0  0
   -3.1360  -11.1520    2.2620 O   0  0  0  0  0  0  0  0  0  0  0  0
   -4.3710  -13.2550    2.2260 C   0  0  0  0  0  0  0  0  0  0  0  0
   -4.8420  -13.3410    1.0920 O   0  0  0  0  0  0  0  0  0  0  0  0
   -4.9650  -13.9730    3.3750 C   0  0  0  0  0  0  0  0  0  0  0  0
   -6.1880  -13.7740    3.8890 C   0  0  0  0  0  0  0  0  0  0  0  0
   -6.7060  -14.5410    5.0340 C   0  0  0  0  0  0  0  0  0  0  0  0
   -7.5360  -15.6420    4.7890 C   0  0  0  0  0  0  0  0  0  0  0  0
   -8.0700  -16.3830    5.8480 C   0  0  0  0  0  0  0  0  0  0  0  0
   -7.7900  -16.0340    7.1760 C   0  0  0  0  0  0  0  0  0  0  0  0
   -8.3860  -16.8190    8.3210 C   0  0  0  0  0  0  0  0  0  0  0  0
   -9.5820  -16.3210    8.7400 F   0  0  0  0  0  0  0  0  0  0  0  0
   -8.6120  -18.1250    8.0080 F   0  0  0  0  0  0  0  0  0  0  0  0
   -7.5760  -16.8270    9.4140 F   0  0  0  0  0  0  0  0  0  0  0  0
   -6.9810  -14.9160    7.4210 C   0  0  0  0  0  0  0  0  0  0  0  0
   -6.4460  -14.1750    6.3610 C   0  0  0  0  0  0  0  0  0  0  0  0
   -0.7340  -12.0570    2.8680 C   0  0  0  0  0  0  0  0  0  0  0  0
   -0.1500  -11.3170    1.6460 C   0  0  0  0  0  0  0  0  0  0  0  0
    2.1820  -13.6790    1.0900 C   0  0  0  0  0  0  0  0  0  0  0  0
    1.5040  -14.3890    2.0080 F   0  0  0  0  0  0  0  0  0  0  0  0
    3.5120  -14.0440    0.8540 C   0  0  0  0  0  0  0  0  0  0  0  0
    6.1360  -14.2720   -1.5590 C   0  0  0  0  0  0  0  0  0  0  0  0
    5.5510  -14.5330   -2.5970 O   0  0  0  0  0  0  0  0  0  0  0  0
    7.4870  -14.4830   -1.4250 O   0  0  0  0  0  0  0  0  0  0  0  0
   12.9107  -12.4589    1.0287 H   0  0  0  0  0  0  0  0  0  0  0  0
   12.5231  -13.3268   -0.4954 H   0  0  0  0  0  0  0  0  0  0  0  0
   12.6779  -11.5372   -0.4954 H   0  0  0  0  0  0  0  0  0  0  0  0
   10.4850  -12.8070   -1.5750 H   0  0  0  0  0  0  0  0  0  0  0  0
    8.3440  -11.7275    0.1322 H   0  0  0  0  0  0  0  0  0  0  0  0
    8.2678  -12.2258   -1.6303 H   0  0  0  0  0  0  0  0  0  0  0  0
    8.6904  -14.3446    0.3393 H   0  0  0  0  0  0  0  0  0  0  0  0
    6.5906  -14.4725    1.3283 H   0  0  0  0  0  0  0  0  0  0  0  0
    6.6460  -12.7276    1.1715 H   0  0  0  0  0  0  0  0  0  0  0  0
    4.2189  -11.8106   -1.5916 H   0  0  0  0  0  0  0  0  0  0  0  0
    1.8619  -11.1826   -1.1652 H   0  0  0  0  0  0  0  0  0  0  0  0
   -1.6630  -12.5042   -0.3381 H   0  0  0  0  0  0  0  0  0  0  0  0
   -0.4961  -13.8385   -0.6317 H   0  0  0  0  0  0  0  0  0  0  0  0
   -2.3935  -14.4266    0.9673 H   0  0  0  0  0  0  0  0  0  0  0  0
   -0.7187  -14.6320    1.6493 H   0  0  0  0  0  0  0  0  0  0  0  0
   -1.9920  -13.6390    3.2890 H   0  0  0  0  0  0  0  0  0  0  0  0
   -4.3440  -14.7443    3.8540 H   0  0  0  0  0  0  0  0  0  0  0  0
   -6.8311  -13.0052    3.4358 H   0  0  0  0  0  0  0  0  0  0  0  0
   -7.7704  -15.9270    3.7527 H   0  0  0  0  0  0  0  0  0  0  0  0
   -8.7159  -17.2479    5.6366 H   0  0  0  0  0  0  0  0  0  0  0  0
   -6.7642  -14.6178    8.4574 H   0  0  0  0  0  0  0  0  0  0  0  0
   -5.8162  -13.2981    6.5716 H   0  0  0  0  0  0  0  0  0  0  0  0
   -1.1490  -11.3160    3.5671 H   0  0  0  0  0  0  0  0  0  0  0  0
    0.0773  -12.6341    3.3358 H   0  0  0  0  0  0  0  0  0  0  0  0
   -0.9015  -10.6164    1.2529 H   0  0  0  0  0  0  0  0  0  0  0  0
    0.7509  -10.7680    1.9574 H   0  0  0  0  0  0  0  0  0  0  0  0
    3.9630  -14.8586    1.4397 H   0  0  0  0  0  0  0  0  0  0  0  0
  1  2  1  0
  2  3  2  0
  2  4  1  0
  4  5  1  0
  5  6  1  0
  6  7  1  0
  7  8  1  0
  8  9  1  0
  9 10  2  0
 10 11  1  0
 11 12  2  0
 12 13  1  0
 13 14  1  0
 14 15  1  0
 15 16  1  0
 16 17  1  0
 17 18  2  0
 17 19  1  0
 19 20  2  0
 19 21  1  0
 21 22  2  0
 22 23  1  0
 23 24  2  0
 24 25  1  0
 25 26  2  0
 26 27  1  0
 27 28  1  0
 27 29  1  0
 27 30  1  0
 26 31  1  0
 31 32  2  0
 16 33  1  0
 33 34  1  0
 12 35  1  0
 35 36  1  0
 35 37  2  0
  8 38  1  0
 38 39  2  0
 38 40  1  0
 40  6  1  0
 37  9  1  0
 34 13  1  0
 32 23  1  0
  1 41  1  0
  1 42  1  0
  1 43  1  0
  4 44  1  0
  5 45  1  0
  5 46  1  0
  6 47  1  1
  7 48  1  0
  7 49  1  0
 10 50  1  0
 11 51  1  0
 14 52  1  0
 14 53  1  0
 15 54  1  0
 15 55  1  0
 16 56  1  0
 21 57  1  0
 22 58  1  0
 24 59  1  0
 25 60  1  0
 31 61  1  0
 32 62  1  0
 33 63  1  0
 33 64  1  0
 34 65  1  0
 34 66  1  0
 37 67  1  0
M  CHG  1  16   1
M  END
>  <meeko>  (7) 
{"is_sidechain": [false], "free_energy": -8.431, "intermolecular_energy": -12.881, "internal_energy": -0.986}

$$$$
LIB_DEXHSEHQQJCLML__M_PUB_ALL__e8__s20260927
     RDKit          3D

 67 70  0  0  0  0  0  0  0  0999 V2000
   12.0020  -19.4030  -14.0290 C   0  0  0  0  0  0  0  0  0  0  0  0
   12.8790  -20.3700  -13.2830 C   0  0  0  0  0  0  0  0  0  0  0  0
   12.5660  -20.8370  -12.1930 O   0  0  0  0  0  0  0  0  0  0  0  0
   14.0250  -20.7140  -13.9580 N   0  0  0  0  0  0  0  0  0  0  0  0
   15.0060  -21.6470  -13.4280 C   0  0  0  0  0  0  0  0  0  0  0  0
   16.2470  -20.9800  -12.8090 C   0  0  1  0  0  0  0  0  0  0  0  0
   16.3070  -19.4760  -12.9590 C   0  0  0  0  0  0  0  0  0  0  0  0
   15.8010  -18.9980  -11.7050 N   0  0  0  0  0  0  0  0  0  0  0  0
   15.4140  -17.6530  -11.4780 C   0  0  0  0  0  0  0  0  0  0  0  0
   16.3210  -16.7260  -10.9500 C   0  0  0  0  0  0  0  0  0  0  0  0
   15.9590  -15.3840  -10.7330 C   0  0  0  0  0  0  0  0  0  0  0  0
   14.6790  -14.9060  -11.0300 C   0  0  0  0  0  0  0  0  0  0  0  0
   14.3540  -13.5760  -10.8030 N   0  0  0  0  0  0  0  0  0  0  0  0
   14.2620  -12.6370  -11.9310 C   0  0  0  0  0  0  0  0  0  0  0  0
   12.7760  -12.3800  -12.2690 C   0  0  0  0  0  0  0  0  0  0  0  0
   11.9630  -11.9980  -11.0540 N   0  0  0  0  0  0  0  0  0  0  0  0
   12.0800  -10.5640  -10.7110 C   0  0  0  0  0  0  0  0  0  0  0  0
   12.9870  -10.2550   -9.9720 O   0  0  0  0  0  0  0  0  0  0  0  0
   11.0660   -9.6110  -11.3320 C   0  0  0  0  0  0  0  0  0  0  0  0
   10.0660  -10.1700  -11.7820 O   0  0  0  0  0  0  0  0  0  0  0  0
   11.2370   -8.1440  -11.3970 C   0  0  0  0  0  0  0  0  0  0  0  0
   11.7520   -7.4500  -12.4230 C   0  0  0  0  0  0  0  0  0  0  0  0
   11.8800   -5.9830  -12.4090 C   0  0  0  0  0  0  0  0  0  0  0  0
   11.1270   -5.2490  -11.4830 C   0  0  0  0  0  0  0  0  0  0  0  0
   11.1990   -3.8530  -11.4510 C   0  0  0  0  0  0  0  0  0  0  0  0
   12.0220   -3.1590  -12.3500 C   0  0  0  0  0  0  0  0  0  0  0  0
   12.0820   -1.6500  -12.3320 C   0  0  0  0  0  0  0  0  0  0  0  0
   12.9700   -1.1440  -13.2320 F   0  0  0  0  0  0  0  0  0  0  0  0
   10.8850   -1.0680  -12.6190 F   0  0  0  0  0  0  0  0  0  0  0  0
   12.4570   -1.1660  -11.1170 F   0  0  0  0  0  0  0  0  0  0  0  0
   12.7550   -3.8930  -13.2930 C   0  0  0  0  0  0  0  0  0  0  0  0
   12.6830   -5.2900  -13.3240 C   0  0  0  0  0  0  0  0  0  0  0  0
   12.1720  -12.8990   -9.8560 C   0  0  0  0  0  0  0  0  0  0  0  0
   13.6680  -13.1490   -9.5750 C   0  0  0  0  0  0  0  0  0  0  0  0
   13.7800  -15.8550  -11.5470 C   0  0  0  0  0  0  0  0  0  0  0  0
   12.5380  -15.4800  -11.8970 F   0  0  0  0  0  0  0  0  0  0  0  0
   14.1310  -17.1910  -11.7710 C   0  0  0  0  0  0  0  0  0  0  0  0
   15.8190  -20.0400  -10.7870 C   0  0  0  0  0  0  0  0  0  0  0  0
   15.5070  -20.0200   -9.6070 O   0  0  0  0  0  0  0  0  0  0  0  0
   16.2570  -21.1920  -11.3920 O   0  0  0  0  0  0  0  0  0  0  0  0
   11.4425  -18.7860  -13.3105 H   0  0  0  0  0  0  0  0  0  0  0  0
   12.6263  -18.7544  -14.6611 H   0  0  0  0  0  0  0  0  0  0  0  0
   11.2957  -19.9611  -14.6611 H   0  0  0  0  0  0  0  0  0  0  0  0
   14.1920  -20.3270  -14.8810 H   0  0  0  0  0  0  0  0  0  0  0  0
   14.5185  -22.2547  -12.6515 H   0  0  0  0  0  0  0  0  0  0  0  0
   15.3626  -22.2454  -14.2794 H   0  0  0  0  0  0  0  0  0  0  0  0
   17.0889  -21.4375  -13.3493 H   0  0  0  0  0  0  0  0  0  0  0  0
   17.3409  -19.1373  -13.1214 H   0  0  0  0  0  0  0  0  0  0  0  0
   15.7345  -19.1067  -13.8227 H   0  0  0  0  0  0  0  0  0  0  0  0
   17.3403  -17.0548  -10.6991 H   0  0  0  0  0  0  0  0  0  0  0  0
   16.7048  -14.6904  -10.3175 H   0  0  0  0  0  0  0  0  0  0  0  0
   14.7452  -11.6874  -11.6576 H   0  0  0  0  0  0  0  0  0  0  0  0
   14.7679  -13.0673  -12.8079 H   0  0  0  0  0  0  0  0  0  0  0  0
   12.7176  -11.5631  -13.0034 H   0  0  0  0  0  0  0  0  0  0  0  0
   12.3582  -13.3153  -12.6697 H   0  0  0  0  0  0  0  0  0  0  0  0
   10.9660  -12.0770  -11.3180 H   0  0  0  0  0  0  0  0  0  0  0  0
   10.9106   -7.5660  -10.5198 H   0  0  0  0  0  0  0  0  0  0  0  0
   12.0931   -8.0000  -13.3124 H   0  0  0  0  0  0  0  0  0  0  0  0
   10.4723   -5.7766  -10.7737 H   0  0  0  0  0  0  0  0  0  0  0  0
   10.6045   -3.2937  -10.7137 H   0  0  0  0  0  0  0  0  0  0  0  0
   13.3937   -3.3650  -14.0164 H   0  0  0  0  0  0  0  0  0  0  0  0
   13.2622   -5.8491  -14.0736 H   0  0  0  0  0  0  0  0  0  0  0  0
   11.7189  -12.4258   -8.9724 H   0  0  0  0  0  0  0  0  0  0  0  0
   11.7005  -13.8687  -10.0738 H   0  0  0  0  0  0  0  0  0  0  0  0
   14.1281  -12.2202   -9.2067 H   0  0  0  0  0  0  0  0  0  0  0  0
   13.7621  -13.9422   -8.8187 H   0  0  0  0  0  0  0  0  0  0  0  0
   13.3850  -17.8861  -12.1837 H   0  0  0  0  0  0  0  0  0  0  0  0
  1  2  1  0
  2  3  2  0
  2  4  1  0
  4  5  1  0
  5  6  1  0
  6  7  1  0
  7  8  1  0
  8  9  1  0
  9 10  2  0
 10 11  1  0
 11 12  2  0
 12 13  1  0
 13 14  1  0
 14 15  1  0
 15 16  1  0
 16 17  1  0
 17 18  2  0
 17 19  1  0
 19 20  2  0
 19 21  1  0
 21 22  2  0
 22 23  1  0
 23 24  2  0
 24 25  1  0
 25 26  2  0
 26 27  1  0
 27 28  1  0
 27 29  1  0
 27 30  1  0
 26 31  1  0
 31 32  2  0
 16 33  1  0
 33 34  1  0
 12 35  1  0
 35 36  1  0
 35 37  2  0
  8 38  1  0
 38 39  2  0
 38 40  1  0
 40  6  1  0
 37  9  1  0
 34 13  1  0
 32 23  1  0
  1 41  1  0
  1 42  1  0
  1 43  1  0
  4 44  1  0
  5 45  1  0
  5 46  1  0
  6 47  1  6
  7 48  1  0
  7 49  1  0
 10 50  1  0
 11 51  1  0
 14 52  1  0
 14 53  1  0
 15 54  1  0
 15 55  1  0
 16 56  1  0
 21 57  1  0
 22 58  1  0
 24 59  1  0
 25 60  1  0
 31 61  1  0
 32 62  1  0
 33 63  1  0
 33 64  1  0
 34 65  1  0
 34 66  1  0
 37 67  1  0
M  CHG  1  16   1
M  END
>  <meeko>  (8) 
{"is_sidechain": [false], "free_energy": -8.4, "intermolecular_energy": -12.437, "internal_energy": -1.383}

$$$$
LIB_DEXHSEHQQJCLML__M_PUB_ALL__e8__s20260927
     RDKit          3D

 67 70  0  0  0  0  0  0  0  0999 V2000
   19.4640   -6.8890    9.4280 C   0  0  0  0  0  0  0  0  0  0  0  0
   18.8620   -6.8920   10.8060 C   0  0  0  0  0  0  0  0  0  0  0  0
   19.5350   -7.0550   11.8180 O   0  0  0  0  0  0  0  0  0  0  0  0
   17.5110   -6.6470   10.8210 N   0  0  0  0  0  0  0  0  0  0  0  0
   16.7300   -6.5890   12.0470 C   0  0  0  0  0  0  0  0  0  0  0  0
   15.2110   -6.4900   11.8270 C   0  0  1  0  0  0  0  0  0  0  0  0
   14.5480   -7.7630   11.3490 C   0  0  0  0  0  0  0  0  0  0  0  0
   14.0280   -8.3380   12.5570 N   0  0  0  0  0  0  0  0  0  0  0  0
   13.5600   -9.6730   12.6500 C   0  0  0  0  0  0  0  0  0  0  0  0
   12.4510   -9.9900   13.4440 C   0  0  0  0  0  0  0  0  0  0  0  0
   11.9640  -11.3050   13.5370 C   0  0  0  0  0  0  0  0  0  0  0  0
   12.5590  -12.3650   12.8440 C   0  0  0  0  0  0  0  0  0  0  0  0
   12.0530  -13.6530   12.9580 N   0  0  0  0  0  0  0  0  0  0  0  0
   11.1580  -14.1860   11.9210 C   0  0  0  0  0  0  0  0  0  0  0  0
   11.9430  -15.1570   11.0090 C   0  0  0  0  0  0  0  0  0  0  0  0
   12.7050  -16.2000   11.7930 N   0  0  0  0  0  0  0  0  0  0  0  0
   11.8600  -17.3450   12.1960 C   0  0  0  0  0  0  0  0  0  0  0  0
   10.7210  -17.0930   12.5190 O   0  0  0  0  0  0  0  0  0  0  0  0
   12.4920  -18.7310   12.1510 C   0  0  0  0  0  0  0  0  0  0  0  0
   11.8390  -19.5960   12.7360 O   0  0  0  0  0  0  0  0  0  0  0  0
   13.7670  -19.0400   11.4700 C   0  0  0  0  0  0  0  0  0  0  0  0
   13.9590  -19.1310   10.1460 C   0  0  0  0  0  0  0  0  0  0  0  0
   15.2700  -19.4380    9.5490 C   0  0  0  0  0  0  0  0  0  0  0  0
   15.3130  -20.1910    8.3690 C   0  0  0  0  0  0  0  0  0  0  0  0
   16.5370  -20.5260    7.7810 C   0  0  0  0  0  0  0  0  0  0  0  0
   17.7450  -20.1200    8.3660 C   0  0  0  0  0  0  0  0  0  0  0  0
   19.0680  -20.5020    7.7450 C   0  0  0  0  0  0  0  0  0  0  0  0
   19.3550  -19.7870    6.6220 F   0  0  0  0  0  0  0  0  0  0  0  0
   20.1230  -20.3160    8.5870 F   0  0  0  0  0  0  0  0  0  0  0  0
   19.1040  -21.8120    7.3790 F   0  0  0  0  0  0  0  0  0  0  0  0
   17.7010  -19.3890    9.5610 C   0  0  0  0  0  0  0  0  0  0  0  0
   16.4760  -19.0530   10.1480 C   0  0  0  0  0  0  0  0  0  0  0  0
   13.5170  -15.6460   12.9420 C   0  0  0  0  0  0  0  0  0  0  0  0
   12.7010  -14.6630   13.8060 C   0  0  0  0  0  0  0  0  0  0  0  0
   13.6780  -12.0280   12.0620 C   0  0  0  0  0  0  0  0  0  0  0  0
   14.2930  -12.9740   11.3320 F   0  0  0  0  0  0  0  0  0  0  0  0
   14.1680  -10.7210   11.9610 C   0  0  0  0  0  0  0  0  0  0  0  0
   14.0170   -7.3660   13.5480 C   0  0  0  0  0  0  0  0  0  0  0  0
   13.6100   -7.4540   14.6960 O   0  0  0  0  0  0  0  0  0  0  0  0
   14.5580   -6.1980   13.0680 O   0  0  0  0  0  0  0  0  0  0  0  0
   20.5611   -6.8835    9.5072 H   0  0  0  0  0  0  0  0  0  0  0  0
   19.1401   -7.7888    8.8844 H   0  0  0  0  0  0  0  0  0  0  0  0
   19.1311   -5.9925    8.8844 H   0  0  0  0  0  0  0  0  0  0  0  0
   17.0290   -6.4690    9.9470 H   0  0  0  0  0  0  0  0  0  0  0  0
   16.9349   -7.4995   12.6292 H   0  0  0  0  0  0  0  0  0  0  0  0
   17.0327   -5.6696   12.5695 H   0  0  0  0  0  0  0  0  0  0  0  0
   15.1073   -5.7109   11.0574 H   0  0  0  0  0  0  0  0  0  0  0  0
   13.7387   -7.5426   10.6373 H   0  0  0  0  0  0  0  0  0  0  0  0
   15.2377   -8.4334   10.8152 H   0  0  0  0  0  0  0  0  0  0  0  0
   11.9489   -9.1905   14.0085 H   0  0  0  0  0  0  0  0  0  0  0  0
   11.0896  -11.5068   14.1731 H   0  0  0  0  0  0  0  0  0  0  0  0
   10.3248  -14.7236   12.3972 H   0  0  0  0  0  0  0  0  0  0  0  0
   10.7627  -13.3559   11.3171 H   0  0  0  0  0  0  0  0  0  0  0  0
   11.2321  -15.6668   10.3421 H   0  0  0  0  0  0  0  0  0  0  0  0
   12.6758  -14.5639   10.4423 H   0  0  0  0  0  0  0  0  0  0  0  0
   13.3720  -16.6430   11.1390 H   0  0  0  0  0  0  0  0  0  0  0  0
   14.6437  -19.2120   12.1118 H   0  0  0  0  0  0  0  0  0  0  0  0
   13.1007  -18.9695    9.4772 H   0  0  0  0  0  0  0  0  0  0  0  0
   14.3748  -20.5223    7.8999 H   0  0  0  0  0  0  0  0  0  0  0  0
   16.5522  -21.1134    6.8511 H   0  0  0  0  0  0  0  0  0  0  0  0
   18.6392  -19.0761   10.0425 H   0  0  0  0  0  0  0  0  0  0  0  0
   16.4601  -18.4817   11.0878 H   0  0  0  0  0  0  0  0  0  0  0  0
   13.8522  -16.4809   13.5748 H   0  0  0  0  0  0  0  0  0  0  0  0
   14.3722  -15.0978   12.5200 H   0  0  0  0  0  0  0  0  0  0  0  0
   11.9307  -15.2200   14.3595 H   0  0  0  0  0  0  0  0  0  0  0  0
   13.3794  -14.1572   14.5088 H   0  0  0  0  0  0  0  0  0  0  0  0
   15.0452  -10.5180   11.3291 H   0  0  0  0  0  0  0  0  0  0  0  0
  1  2  1  0
  2  3  2  0
  2  4  1  0
  4  5  1  0
  5  6  1  0
  6  7  1  0
  7  8  1  0
  8  9  1  0
  9 10  2  0
 10 11  1  0
 11 12  2  0
 12 13  1  0
 13 14  1  0
 14 15  1  0
 15 16  1  0
 16 17  1  0
 17 18  2  0
 17 19  1  0
 19 20  2  0
 19 21  1  0
 21 22  2  0
 22 23  1  0
 23 24  2  0
 24 25  1  0
 25 26  2  0
 26 27  1  0
 27 28  1  0
 27 29  1  0
 27 30  1  0
 26 31  1  0
 31 32  2  0
 16 33  1  0
 33 34  1  0
 12 35  1  0
 35 36  1  0
 35 37  2  0
  8 38  1  0
 38 39  2  0
 38 40  1  0
 40  6  1  0
 37  9  1  0
 34 13  1  0
 32 23  1  0
  1 41  1  0
  1 42  1  0
  1 43  1  0
  4 44  1  0
  5 45  1  0
  5 46  1  0
  6 47  1  6
  7 48  1  0
  7 49  1  0
 10 50  1  0
 11 51  1  0
 14 52  1  0
 14 53  1  0
 15 54  1  0
 15 55  1  0
 16 56  1  0
 21 57  1  0
 22 58  1  0
 24 59  1  0
 25 60  1  0
 31 61  1  0
 32 62  1  0
 33 63  1  0
 33 64  1  0
 34 65  1  0
 34 66  1  0
 37 67  1  0
M  CHG  1  16   1
M  END
>  <meeko>  (9) 
{"is_sidechain": [false], "free_energy": -8.275, "intermolecular_energy": -12.825, "internal_energy": -0.804}

$$$$
