LIB_FYGSMJAMPMZYFS__M_PUB_ALL__e8__s20260927
     RDKit          3D

 81 85  0  0  0  0  0  0  0  0999 V2000
   -1.3790   -9.6990    1.6180 C   0  0  0  0  0  0  0  0  0  0  0  0
   -0.7940  -11.0480    1.1740 C   0  0  2  0  0  0  0  0  0  0  0  0
   -0.6590  -11.9440    2.4190 C   0  0  0  0  0  0  0  0  0  0  0  0
    0.3720  -13.0610    2.2740 C   0  0  0  0  0  0  0  0  0  0  0  0
    0.5380  -13.5520    0.8240 C   0  0  2  0  0  0  0  0  0  0  0  0
   -0.8360  -14.1880    0.4000 C   0  0  0  0  0  0  0  0  0  0  0  0
   -1.3800  -14.9520    1.2530 O   0  0  0  0  0  0  0  0  0  0  0  0
   -1.2760  -13.8730   -0.7420 O   0  0  0  0  0  0  0  0  0  0  0  0
    1.4910  -14.7600    0.7500 C   0  0  0  0  0  0  0  0  0  0  0  0
    2.9130  -14.3980    1.1650 C   0  0  0  0  0  0  0  0  0  0  0  0
    3.5670  -13.2600    0.3190 C   0  0  2  0  0  0  0  0  0  0  0  0
    4.1350  -12.2340    1.3420 C   0  0  0  0  0  0  0  0  0  0  0  0
    2.5230  -12.5000   -0.5390 C   0  0  0  0  0  0  0  0  0  0  0  0
    2.8580  -12.0280   -1.7590 C   0  0  0  0  0  0  0  0  0  0  0  0
    4.2010  -12.0950   -2.4140 C   0  0  0  0  0  0  0  0  0  0  0  0
    5.3170  -12.7120   -1.5490 C   0  0  2  0  0  0  0  0  0  0  0  0
    6.6730  -12.9960   -2.3430 C   0  0  1  0  0  0  0  0  0  0  0  0
    6.4760  -13.9920   -3.5150 C   0  0  0  0  0  0  0  0  0  0  0  0
    7.1890  -11.6570   -2.9480 C   0  0  0  0  0  0  0  0  0  0  0  0
    8.6120  -11.7430   -3.4920 C   0  0  1  0  0  0  0  0  0  0  0  0
    9.0150  -10.4430   -3.9580 O   0  0  0  0  0  0  0  0  0  0  0  0
    9.6180  -12.2240   -2.4410 C   0  0  2  0  0  0  0  0  0  0  0  0
   10.8900  -12.2870   -3.1250 O   0  0  0  0  0  0  0  0  0  0  0  0
    9.2160  -13.5630   -1.7740 C   0  0  1  0  0  0  0  0  0  0  0  0
    9.5320  -14.7940   -2.6370 C   0  0  0  0  0  0  0  0  0  0  0  0
   10.2600  -13.5840   -0.6030 C   0  0  0  0  0  0  0  0  0  0  0  0
   10.0190  -12.8560    0.3960 O   0  0  0  0  0  0  0  0  0  0  0  0
   11.2820  -14.3110   -0.8130 O   0  0  0  0  0  0  0  0  0  0  0  0
    7.7290  -13.4880   -1.2850 C   0  0  2  0  0  0  0  0  0  0  0  0
    7.2180  -14.7590   -0.5760 C   0  0  0  0  0  0  0  0  0  0  0  0
    5.9310  -14.4660    0.2050 C   0  0  0  0  0  0  0  0  0  0  0  0
    4.7590  -13.8720   -0.6370 C   0  0  1  0  0  0  0  0  0  0  0  0
    4.1690  -15.0290   -1.5000 C   0  0  0  0  0  0  0  0  0  0  0  0
    1.0290  -12.3940   -0.1000 C   0  0  2  0  0  0  0  0  0  0  0  0
    0.5470  -10.9520    0.3890 C   0  0  1  0  0  0  0  0  0  0  0  0
    0.4060   -9.9800   -0.7990 C   0  0  0  0  0  0  0  0  0  0  0  0
    1.5120  -10.3490    1.2680 O   0  0  0  0  0  0  0  0  0  0  0  0
   -1.3994   -9.6520    2.7168 H   0  0  0  0  0  0  0  0  0  0  0  0
   -0.7543   -8.8821    1.2276 H   0  0  0  0  0  0  0  0  0  0  0  0
   -2.4023   -9.5968    1.2276 H   0  0  0  0  0  0  0  0  0  0  0  0
   -1.4914  -11.4875    0.4457 H   0  0  0  0  0  0  0  0  0  0  0  0
   -0.3657  -11.3114    3.2698 H   0  0  0  0  0  0  0  0  0  0  0  0
   -1.6346  -12.4299    2.5676 H   0  0  0  0  0  0  0  0  0  0  0  0
    1.3437  -12.6876    2.6296 H   0  0  0  0  0  0  0  0  0  0  0  0
    0.0134  -13.9145    2.8680 H   0  0  0  0  0  0  0  0  0  0  0  0
    1.1164  -15.5483    1.4195 H   0  0  0  0  0  0  0  0  0  0  0  0
    1.5210  -15.1030   -0.2947 H   0  0  0  0  0  0  0  0  0  0  0  0
    2.8920  -14.0752    2.2164 H   0  0  0  0  0  0  0  0  0  0  0  0
    3.5241  -15.2981    1.0023 H   0  0  0  0  0  0  0  0  0  0  0  0
    3.9386  -12.5887    2.3646 H   0  0  0  0  0  0  0  0  0  0  0  0
    5.2197  -12.1290    1.1923 H   0  0  0  0  0  0  0  0  0  0  0  0
    3.6482  -11.2590    1.1923 H   0  0  0  0  0  0  0  0  0  0  0  0
    2.0561  -11.5414   -2.3335 H   0  0  0  0  0  0  0  0  0  0  0  0
    4.1049  -12.6986   -3.3286 H   0  0  0  0  0  0  0  0  0  0  0  0
    4.5013  -11.0545   -2.6071 H   0  0  0  0  0  0  0  0  0  0  0  0
    5.6575  -11.9488   -0.8338 H   0  0  0  0  0  0  0  0  0  0  0  0
    6.2773  -14.9965   -3.1131 H   0  0  0  0  0  0  0  0  0  0  0  0
    5.6244  -13.6688   -4.1317 H   0  0  0  0  0  0  0  0  0  0  0  0
    7.3865  -14.0173   -4.1317 H   0  0  0  0  0  0  0  0  0  0  0  0
    6.5190  -11.3654   -3.7702 H   0  0  0  0  0  0  0  0  0  0  0  0
    7.1979  -10.9167   -2.1345 H   0  0  0  0  0  0  0  0  0  0  0  0
    8.6074  -12.4785   -4.3099 H   0  0  0  0  0  0  0  0  0  0  0  0
    9.0920  -10.5710   -4.9270 H   0  0  0  0  0  0  0  0  0  0  0  0
    9.6603  -11.5293   -1.5892 H   0  0  0  0  0  0  0  0  0  0  0  0
   11.2410  -13.1820   -2.8680 H   0  0  0  0  0  0  0  0  0  0  0  0
    9.7523  -15.6521   -1.9850 H   0  0  0  0  0  0  0  0  0  0  0  0
    8.6651  -15.0290   -3.2720 H   0  0  0  0  0  0  0  0  0  0  0  0
   10.4049  -14.5823   -3.2720 H   0  0  0  0  0  0  0  0  0  0  0  0
    7.8055  -12.6877   -0.5342 H   0  0  0  0  0  0  0  0  0  0  0  0
    7.0145  -15.5349   -1.3287 H   0  0  0  0  0  0  0  0  0  0  0  0
    7.9884  -15.1033    0.1297 H   0  0  0  0  0  0  0  0  0  0  0  0
    5.5836  -15.4087    0.6530 H   0  0  0  0  0  0  0  0  0  0  0  0
    6.1937  -13.6959    0.9452 H   0  0  0  0  0  0  0  0  0  0  0  0
    3.7695  -15.8124   -0.8391 H   0  0  0  0  0  0  0  0  0  0  0  0
    3.3605  -14.6374   -2.1348 H   0  0  0  0  0  0  0  0  0  0  0  0
    4.9608  -15.4534   -2.1348 H   0  0  0  0  0  0  0  0  0  0  0  0
    0.5016  -12.5379   -1.0546 H   0  0  0  0  0  0  0  0  0  0  0  0
    0.2577   -8.9578   -0.4208 H   0  0  0  0  0  0  0  0  0  0  0  0
    1.3187  -10.0154   -1.4120 H   0  0  0  0  0  0  0  0  0  0  0  0
   -0.4590  -10.2732   -1.4120 H   0  0  0  0  0  0  0  0  0  0  0  0
    1.0890   -9.5430    1.6120 H   0  0  0  0  0  0  0  0  0  0  0  0
  1  2  1  0
  2  3  1  0
  3  4  1  0
  4  5  1  0
  5  6  1  6
  6  7  2  0
  6  8  1  0
  5  9  1  0
  9 10  1  0
 10 11  1  0
 11 12  1  1
 11 13  1  0
 13 14  2  0
 14 15  1  0
 15 16  1  0
 16 17  1  0
 17 18  1  6
 17 19  1  0
 19 20  1  0
 20 21  1  0
 20 22  1  0
 22 23  1  0
 22 24  1  0
 24 25  1  6
 24 26  1  0
 26 27  2  0
 26 28  1  0
 24 29  1  0
 29 30  1  0
 30 31  1  0
 31 32  1  0
 32 33  1  6
 13 34  1  0
 34 35  1  0
 35 36  1  0
 35 37  1  1
 35  2  1  0
 34  5  1  0
 32 11  1  0
 32 16  1  0
 29 17  1  0
  1 38  1  0
  1 39  1  0
  1 40  1  0
  2 41  1  6
  3 42  1  0
  3 43  1  0
  4 44  1  0
  4 45  1  0
  9 46  1  0
  9 47  1  0
 10 48  1  0
 10 49  1  0
 12 50  1  0
 12 51  1  0
 12 52  1  0
 14 53  1  0
 15 54  1  0
 15 55  1  0
 16 56  1  1
 18 57  1  0
 18 58  1  0
 18 59  1  0
 19 60  1  0
 19 61  1  0
 20 62  1  6
 21 63  1  0
 22 64  1  1
 23 65  1  0
 25 66  1  0
 25 67  1  0
 25 68  1  0
 29 69  1  1
 30 70  1  0
 30 71  1  0
 31 72  1  0
 31 73  1  0
 33 74  1  0
 33 75  1  0
 33 76  1  0
 34 77  1  6
 36 78  1  0
 36 79  1  0
 36 80  1  0
 37 81  1  0
M  CHG  2   8  -1  28  -1
M  END
>  <meeko>  (1) 
{"is_sidechain": [false], "free_energy": -8.738, "intermolecular_energy": -10.525, "internal_energy": -0.571}

$$$$
LIB_FYGSMJAMPMZYFS__M_PUB_ALL__e8__s20260927
     RDKit          3D

 81 85  0  0  0  0  0  0  0  0999 V2000
    5.3900  -13.0270   -7.6470 C   0  0  0  0  0  0  0  0  0  0  0  0
    5.6260  -12.9340   -6.1320 C   0  0  2  0  0  0  0  0  0  0  0  0
    6.1580  -14.2950   -5.6470 C   0  0  0  0  0  0  0  0  0  0  0  0
    5.9300  -14.5580   -4.1600 C   0  0  0  0  0  0  0  0  0  0  0  0
    5.9130  -13.2750   -3.3090 C   0  0  2  0  0  0  0  0  0  0  0  0
    7.3500  -12.6440   -3.4120 C   0  0  0  0  0  0  0  0  0  0  0  0
    7.3930  -11.3930   -3.6120 O   0  0  0  0  0  0  0  0  0  0  0  0
    8.3260  -13.4360   -3.2760 O   0  0  0  0  0  0  0  0  0  0  0  0
    5.8100  -13.6010   -1.8080 C   0  0  0  0  0  0  0  0  0  0  0  0
    4.4870  -14.2750   -1.4560 C   0  0  0  0  0  0  0  0  0  0  0  0
    3.2170  -13.4440   -1.8220 C   0  0  2  0  0  0  0  0  0  0  0  0
    2.2840  -14.4070   -2.6120 C   0  0  0  0  0  0  0  0  0  0  0  0
    3.5480  -12.2650   -2.7740 C   0  0  0  0  0  0  0  0  0  0  0  0
    2.8730  -11.1000   -2.6740 C   0  0  0  0  0  0  0  0  0  0  0  0
    1.7420  -10.7900   -1.7460 C   0  0  0  0  0  0  0  0  0  0  0  0
    1.2720  -11.9700   -0.8740 C   0  0  2  0  0  0  0  0  0  0  0  0
    0.2380  -11.5610    0.2710 C   0  0  1  0  0  0  0  0  0  0  0  0
    0.8330  -10.5350    1.2700 C   0  0  0  0  0  0  0  0  0  0  0  0
   -1.0080  -10.9000   -0.3920 C   0  0  0  0  0  0  0  0  0  0  0  0
   -2.1820  -10.7170    0.5650 C   0  0  1  0  0  0  0  0  0  0  0  0
   -3.2970  -10.1700   -0.1600 O   0  0  0  0  0  0  0  0  0  0  0  0
   -2.6180  -12.0310    1.2220 C   0  0  2  0  0  0  0  0  0  0  0  0
   -3.6960  -11.6770    2.1160 O   0  0  0  0  0  0  0  0  0  0  0  0
   -1.4590  -12.7790    1.9300 C   0  0  1  0  0  0  0  0  0  0  0  0
   -1.1160  -12.2030    3.3120 C   0  0  0  0  0  0  0  0  0  0  0  0
   -2.1730  -14.1490    2.2030 C   0  0  0  0  0  0  0  0  0  0  0  0
   -1.8890  -14.7410    3.2780 O   0  0  0  0  0  0  0  0  0  0  0  0
   -2.9390  -14.5450    1.2690 O   0  0  0  0  0  0  0  0  0  0  0  0
   -0.2330  -12.8950    0.9620 C   0  0  2  0  0  0  0  0  0  0  0  0
    0.9810  -13.6470    1.5450 C   0  0  0  0  0  0  0  0  0  0  0  0
    1.9530  -14.0570    0.4330 C   0  0  0  0  0  0  0  0  0  0  0  0
    2.4840  -12.8900   -0.4570 C   0  0  1  0  0  0  0  0  0  0  0  0
    3.5260  -12.0950    0.3880 C   0  0  0  0  0  0  0  0  0  0  0  0
    4.7570  -12.3280   -3.7580 C   0  0  2  0  0  0  0  0  0  0  0  0
    4.3890  -12.4740   -5.3050 C   0  0  1  0  0  0  0  0  0  0  0  0
    3.8260  -11.1560   -5.8700 C   0  0  0  0  0  0  0  0  0  0  0  0
    3.3550  -13.4520   -5.5060 O   0  0  0  0  0  0  0  0  0  0  0  0
    4.3820  -13.4242   -7.8374 H   0  0  0  0  0  0  0  0  0  0  0  0
    5.4802  -12.0261   -8.0943 H   0  0  0  0  0  0  0  0  0  0  0  0
    6.1388  -13.6973   -8.0943 H   0  0  0  0  0  0  0  0  0  0  0  0
    6.3650  -12.1376   -5.9599 H   0  0  0  0  0  0  0  0  0  0  0  0
    5.6536  -15.0873   -6.2195 H   0  0  0  0  0  0  0  0  0  0  0  0
    7.2466  -14.2853   -5.8048 H   0  0  0  0  0  0  0  0  0  0  0  0
    4.9633  -15.0690   -4.0403 H   0  0  0  0  0  0  0  0  0  0  0  0
    6.7709  -15.1723   -3.8056 H   0  0  0  0  0  0  0  0  0  0  0  0
    6.6352  -14.2748   -1.5340 H   0  0  0  0  0  0  0  0  0  0  0  0
    5.8661  -12.6540   -1.2513 H   0  0  0  0  0  0  0  0  0  0  0  0
    4.4365  -15.2335   -1.9934 H   0  0  0  0  0  0  0  0  0  0  0  0
    4.4782  -14.3927   -0.3623 H   0  0  0  0  0  0  0  0  0  0  0  0
    1.6979  -15.0120   -1.9046 H   0  0  0  0  0  0  0  0  0  0  0  0
    1.6023  -13.8199   -3.2449 H   0  0  0  0  0  0  0  0  0  0  0  0
    2.8924  -15.0698   -3.2449 H   0  0  0  0  0  0  0  0  0  0  0  0
    3.1894  -10.2908   -3.3486 H   0  0  0  0  0  0  0  0  0  0  0  0
    2.0626   -9.9779   -1.0769 H   0  0  0  0  0  0  0  0  0  0  0  0
    0.8872  -10.5196   -2.3833 H   0  0  0  0  0  0  0  0  0  0  0  0
    0.6390  -12.6233   -1.4925 H   0  0  0  0  0  0  0  0  0  0  0  0
    0.6385  -10.8704    2.2994 H   0  0  0  0  0  0  0  0  0  0  0  0
    1.9182  -10.4540    1.1096 H   0  0  0  0  0  0  0  0  0  0  0  0
    0.3643   -9.5528    1.1096 H   0  0  0  0  0  0  0  0  0  0  0  0
   -0.7148   -9.9118   -0.7761 H   0  0  0  0  0  0  0  0  0  0  0  0
   -1.3452  -11.5756   -1.1919 H   0  0  0  0  0  0  0  0  0  0  0  0
   -1.8516  -10.0376    1.3646 H   0  0  0  0  0  0  0  0  0  0  0  0
   -3.1370  -10.4800   -1.0760 H   0  0  0  0  0  0  0  0  0  0  0  0
   -2.9522  -12.7563    0.4655 H   0  0  0  0  0  0  0  0  0  0  0  0
   -3.9190  -12.5390    2.5580 H   0  0  0  0  0  0  0  0  0  0  0  0
   -1.5115  -12.8672    4.0945 H   0  0  0  0  0  0  0  0  0  0  0  0
   -0.0237  -12.1242    3.4156 H   0  0  0  0  0  0  0  0  0  0  0  0
   -1.5671  -11.2051    3.4156 H   0  0  0  0  0  0  0  0  0  0  0  0
   -0.6674  -13.5159    0.1647 H   0  0  0  0  0  0  0  0  0  0  0  0
    1.5035  -12.9911    2.2569 H   0  0  0  0  0  0  0  0  0  0  0  0
    0.6228  -14.5549    2.0524 H   0  0  0  0  0  0  0  0  0  0  0  0
    2.8189  -14.5464    0.9028 H   0  0  0  0  0  0  0  0  0  0  0  0
    1.3835  -14.7155   -0.2393 H   0  0  0  0  0  0  0  0  0  0  0  0
    3.3242  -12.2489    1.4583 H   0  0  0  0  0  0  0  0  0  0  0  0
    4.5392  -12.4517    0.1509 H   0  0  0  0  0  0  0  0  0  0  0  0
    3.4496  -11.0236    0.1509 H   0  0  0  0  0  0  0  0  0  0  0  0
    5.1663  -11.3100   -3.6802 H   0  0  0  0  0  0  0  0  0  0  0  0
    3.5426  -10.4925   -5.0396 H   0  0  0  0  0  0  0  0  0  0  0  0
    4.5927  -10.6644   -6.4869 H   0  0  0  0  0  0  0  0  0  0  0  0
    2.9408  -11.3700   -6.4869 H   0  0  0  0  0  0  0  0  0  0  0  0
    3.6940  -14.0580   -6.1890 H   0  0  0  0  0  0  0  0  0  0  0  0
  1  2  1  0
  2  3  1  0
  3  4  1  0
  4  5  1  0
  5  6  1  1
  6  7  2  0
  6  8  1  0
  5  9  1  0
  9 10  1  0
 10 11  1  0
 11 12  1  6
 11 13  1  0
 13 14  2  0
 14 15  1  0
 15 16  1  0
 16 17  1  0
 17 18  1  1
 17 19  1  0
 19 20  1  0
 20 21  1  0
 20 22  1  0
 22 23  1  0
 22 24  1  0
 24 25  1  1
 24 26  1  0
 26 27  2  0
 26 28  1  0
 24 29  1  0
 29 30  1  0
 30 31  1  0
 31 32  1  0
 32 33  1  1
 13 34  1  0
 34 35  1  0
 35 36  1  0
 35 37  1  1
 35  2  1  0
 34  5  1  0
 32 11  1  0
 32 16  1  0
 29 17  1  0
  1 38  1  0
  1 39  1  0
  1 40  1  0
  2 41  1  6
  3 42  1  0
  3 43  1  0
  4 44  1  0
  4 45  1  0
  9 46  1  0
  9 47  1  0
 10 48  1  0
 10 49  1  0
 12 50  1  0
 12 51  1  0
 12 52  1  0
 14 53  1  0
 15 54  1  0
 15 55  1  0
 16 56  1  6
 18 57  1  0
 18 58  1  0
 18 59  1  0
 19 60  1  0
 19 61  1  0
 20 62  1  1
 21 63  1  0
 22 64  1  6
 23 65  1  0
 25 66  1  0
 25 67  1  0
 25 68  1  0
 29 69  1  6
 30 70  1  0
 30 71  1  0
 31 72  1  0
 31 73  1  0
 33 74  1  0
 33 75  1  0
 33 76  1  0
 34 77  1  6
 36 78  1  0
 36 79  1  0
 36 80  1  0
 37 81  1  0
M  CHG  2   8  -1  28  -1
M  END
>  <meeko>  (2) 
{"is_sidechain": [false], "free_energy": -8.137, "intermolecular_energy": -9.777, "internal_energy": -0.595}

$$$$
LIB_FYGSMJAMPMZYFS__M_PUB_ALL__e8__s20260927
     RDKit          3D

 81 85  0  0  0  0  0  0  0  0999 V2000
    0.5260  -16.0700   -1.2360 C   0  0  0  0  0  0  0  0  0  0  0  0
    1.3910  -14.8020   -1.2980 C   0  0  2  0  0  0  0  0  0  0  0  0
    1.0710  -14.0700   -2.6140 C   0  0  0  0  0  0  0  0  0  0  0  0
    2.1790  -13.1350   -3.0910 C   0  0  0  0  0  0  0  0  0  0  0  0
    3.0100  -12.5370   -1.9410 C   0  0  2  0  0  0  0  0  0  0  0  0
    2.0340  -11.6400   -1.0950 C   0  0  0  0  0  0  0  0  0  0  0  0
    1.9770  -11.8990    0.1440 O   0  0  0  0  0  0  0  0  0  0  0  0
    1.4060  -10.7400   -1.7230 O   0  0  0  0  0  0  0  0  0  0  0  0
    4.0270  -11.5050   -2.4630 C   0  0  0  0  0  0  0  0  0  0  0  0
    5.0800  -12.1420   -3.3650 C   0  0  0  0  0  0  0  0  0  0  0  0
    5.9060  -13.2840   -2.6930 C   0  0  2  0  0  0  0  0  0  0  0  0
    5.8590  -14.4880   -3.6780 C   0  0  0  0  0  0  0  0  0  0  0  0
    5.2600  -13.7670   -1.3690 C   0  0  0  0  0  0  0  0  0  0  0  0
    6.0360  -14.1670   -0.3380 C   0  0  0  0  0  0  0  0  0  0  0  0
    7.5280  -14.2620   -0.3180 C   0  0  0  0  0  0  0  0  0  0  0  0
    8.2200  -13.9310   -1.6540 C   0  0  2  0  0  0  0  0  0  0  0  0
    9.8080  -13.8020   -1.5490 C   0  0  1  0  0  0  0  0  0  0  0  0
   10.2500  -12.6760   -0.5790 C   0  0  0  0  0  0  0  0  0  0  0  0
   10.3850  -15.1430   -1.0040 C   0  0  0  0  0  0  0  0  0  0  0  0
   11.9030  -15.2450   -1.1180 C   0  0  1  0  0  0  0  0  0  0  0  0
   12.3220  -16.5410   -0.6580 O   0  0  0  0  0  0  0  0  0  0  0  0
   12.4000  -15.0470   -2.5540 C   0  0  2  0  0  0  0  0  0  0  0  0
   13.8410  -15.1310   -2.4780 O   0  0  0  0  0  0  0  0  0  0  0  0
   11.9000  -13.7320   -3.2030 C   0  0  1  0  0  0  0  0  0  0  0  0
   12.6920  -12.4920   -2.7600 C   0  0  0  0  0  0  0  0  0  0  0  0
   12.3290  -14.0030   -4.6870 C   0  0  0  0  0  0  0  0  0  0  0  0
   11.5980  -14.7720   -5.3660 O   0  0  0  0  0  0  0  0  0  0  0  0
   13.4180  -13.4470   -5.0370 O   0  0  0  0  0  0  0  0  0  0  0  0
   10.3500  -13.6030   -3.0140 C   0  0  2  0  0  0  0  0  0  0  0  0
    9.7250  -12.3410   -3.6430 C   0  0  0  0  0  0  0  0  0  0  0  0
    8.2030  -12.4880   -3.7630 C   0  0  0  0  0  0  0  0  0  0  0  0
    7.4540  -12.7900   -2.4280 C   0  0  1  0  0  0  0  0  0  0  0  0
    7.4270  -11.4700   -1.5980 C   0  0  0  0  0  0  0  0  0  0  0  0
    3.7210  -13.6630   -1.1280 C   0  0  2  0  0  0  0  0  0  0  0  0
    2.9200  -15.0440   -1.1340 C   0  0  1  0  0  0  0  0  0  0  0  0
    3.2000  -15.8560    0.1460 C   0  0  0  0  0  0  0  0  0  0  0  0
    3.3370  -15.8860   -2.2220 O   0  0  0  0  0  0  0  0  0  0  0  0
    0.3431  -16.3381   -0.1850 H   0  0  0  0  0  0  0  0  0  0  0  0
   -0.4342  -15.8838   -1.7393 H   0  0  0  0  0  0  0  0  0  0  0  0
    1.0497  -16.8961   -1.7393 H   0  0  0  0  0  0  0  0  0  0  0  0
    1.1316  -14.1816   -0.4275 H   0  0  0  0  0  0  0  0  0  0  0  0
    0.8951  -14.8243   -3.3951 H   0  0  0  0  0  0  0  0  0  0  0  0
    0.1873  -13.4436   -2.4224 H   0  0  0  0  0  0  0  0  0  0  0  0
    2.8530  -13.7008   -3.7510 H   0  0  0  0  0  0  0  0  0  0  0  0
    1.6948  -12.2963   -3.6127 H   0  0  0  0  0  0  0  0  0  0  0  0
    3.4889  -10.7349   -3.0351 H   0  0  0  0  0  0  0  0  0  0  0  0
    4.5434  -11.0695   -1.5949 H   0  0  0  0  0  0  0  0  0  0  0  0
    4.5702  -12.5597   -4.2457 H   0  0  0  0  0  0  0  0  0  0  0  0
    5.7962  -11.3465   -3.6183 H   0  0  0  0  0  0  0  0  0  0  0  0
    5.8223  -15.4276   -3.1071 H   0  0  0  0  0  0  0  0  0  0  0  0
    4.9633  -14.4087   -4.3115 H   0  0  0  0  0  0  0  0  0  0  0  0
    6.7582  -14.4788   -4.3115 H   0  0  0  0  0  0  0  0  0  0  0  0
    5.5137  -14.4538    0.5867 H   0  0  0  0  0  0  0  0  0  0  0  0
    7.9042  -13.5629    0.4434 H   0  0  0  0  0  0  0  0  0  0  0  0
    7.7659  -15.3138   -0.1012 H   0  0  0  0  0  0  0  0  0  0  0  0
    8.1311  -14.8080   -2.3121 H   0  0  0  0  0  0  0  0  0  0  0  0
   10.1175  -13.0137    0.4595 H   0  0  0  0  0  0  0  0  0  0  0  0
   11.3091  -12.4359   -0.7542 H   0  0  0  0  0  0  0  0  0  0  0  0
    9.6370  -11.7796   -0.7542 H   0  0  0  0  0  0  0  0  0  0  0  0
   10.1088  -15.2350    0.0568 H   0  0  0  0  0  0  0  0  0  0  0  0
    9.9601  -15.9507   -1.6181 H   0  0  0  0  0  0  0  0  0  0  0  0
   12.3342  -14.4428   -0.5012 H   0  0  0  0  0  0  0  0  0  0  0  0
   11.4730  -16.9870   -0.4550 H   0  0  0  0  0  0  0  0  0  0  0  0
   11.9910  -15.8201   -3.2211 H   0  0  0  0  0  0  0  0  0  0  0  0
   14.1430  -14.3230   -2.9720 H   0  0  0  0  0  0  0  0  0  0  0  0
   12.7200  -12.4481   -1.6612 H   0  0  0  0  0  0  0  0  0  0  0  0
   13.7184  -12.5536   -3.1508 H   0  0  0  0  0  0  0  0  0  0  0  0
   12.2045  -11.5867   -3.1508 H   0  0  0  0  0  0  0  0  0  0  0  0
   10.0067  -14.4754   -3.5893 H   0  0  0  0  0  0  0  0  0  0  0  0
    9.9544  -11.4712   -3.0098 H   0  0  0  0  0  0  0  0  0  0  0  0
   10.1461  -12.2038   -4.6499 H   0  0  0  0  0  0  0  0  0  0  0  0
    7.8023  -11.5489   -4.1723 H   0  0  0  0  0  0  0  0  0  0  0  0
    8.0323  -13.3602   -4.4111 H   0  0  0  0  0  0  0  0  0  0  0  0
    7.4319  -11.7115   -0.5248 H   0  0  0  0  0  0  0  0  0  0  0  0
    8.3130  -10.8654   -1.8419 H   0  0  0  0  0  0  0  0  0  0  0  0
    6.5171  -10.9021   -1.8419 H   0  0  0  0  0  0  0  0  0  0  0  0
    3.6772  -13.3384   -0.0779 H   0  0  0  0  0  0  0  0  0  0  0  0
    2.9859  -15.2350    1.0283 H   0  0  0  0  0  0  0  0  0  0  0  0
    2.5579  -16.7490    0.1615 H   0  0  0  0  0  0  0  0  0  0  0  0
    4.2561  -16.1634    0.1615 H   0  0  0  0  0  0  0  0  0  0  0  0
    2.7350  -15.6820   -2.9590 H   0  0  0  0  0  0  0  0  0  0  0  0
  1  2  1  0
  2  3  1  0
  3  4  1  0
  4  5  1  0
  5  6  1  1
  6  7  2  0
  6  8  1  0
  5  9  1  0
  9 10  1  0
 10 11  1  0
 11 12  1  6
 11 13  1  0
 13 14  2  0
 14 15  1  0
 15 16  1  0
 16 17  1  0
 17 18  1  1
 17 19  1  0
 19 20  1  0
 20 21  1  0
 20 22  1  0
 22 23  1  0
 22 24  1  0
 24 25  1  1
 24 26  1  0
 26 27  2  0
 26 28  1  0
 24 29  1  0
 29 30  1  0
 30 31  1  0
 31 32  1  0
 32 33  1  1
 13 34  1  0
 34 35  1  0
 35 36  1  0
 35 37  1  6
 35  2  1  0
 34  5  1  0
 32 11  1  0
 32 16  1  0
 29 17  1  0
  1 38  1  0
  1 39  1  0
  1 40  1  0
  2 41  1  1
  3 42  1  0
  3 43  1  0
  4 44  1  0
  4 45  1  0
  9 46  1  0
  9 47  1  0
 10 48  1  0
 10 49  1  0
 12 50  1  0
 12 51  1  0
 12 52  1  0
 14 53  1  0
 15 54  1  0
 15 55  1  0
 16 56  1  6
 18 57  1  0
 18 58  1  0
 18 59  1  0
 19 60  1  0
 19 61  1  0
 20 62  1  1
 21 63  1  0
 22 64  1  6
 23 65  1  0
 25 66  1  0
 25 67  1  0
 25 68  1  0
 29 69  1  6
 30 70  1  0
 30 71  1  0
 31 72  1  0
 31 73  1  0
 33 74  1  0
 33 75  1  0
 33 76  1  0
 34 77  1  1
 36 78  1  0
 36 79  1  0
 36 80  1  0
 37 81  1  0
M  CHG  2   8  -1  28  -1
M  END
>  <meeko>  (3) 
{"is_sidechain": [false], "free_energy": -8.12, "intermolecular_energy": -9.79, "internal_energy": -0.562}

$$$$
LIB_FYGSMJAMPMZYFS__M_PUB_ALL__e8__s20260927
     RDKit          3D

 81 85  0  0  0  0  0  0  0  0999 V2000
    4.0830  -13.3410   -5.8350 C   0  0  0  0  0  0  0  0  0  0  0  0
    4.4080  -13.5270   -4.3450 C   0  0  2  0  0  0  0  0  0  0  0  0
    5.2420  -14.8130   -4.1950 C   0  0  0  0  0  0  0  0  0  0  0  0
    5.1860  -15.4320   -2.8010 C   0  0  0  0  0  0  0  0  0  0  0  0
    4.9720  -14.3970   -1.6820 C   0  0  2  0  0  0  0  0  0  0  0  0
    6.2380  -13.4630   -1.6800 C   0  0  0  0  0  0  0  0  0  0  0  0
    6.0070  -12.2180   -1.6330 O   0  0  0  0  0  0  0  0  0  0  0  0
    7.3630  -14.0370   -1.7130 O   0  0  0  0  0  0  0  0  0  0  0  0
    5.0500  -15.0530   -0.2910 C   0  0  0  0  0  0  0  0  0  0  0  0
    3.9240  -16.0550   -0.0640 C   0  0  0  0  0  0  0  0  0  0  0  0
    2.4870  -15.4600   -0.1960 C   0  0  2  0  0  0  0  0  0  0  0  0
    1.7130  -16.4080   -1.1570 C   0  0  0  0  0  0  0  0  0  0  0  0
    2.4970  -14.0610   -0.8660 C   0  0  0  0  0  0  0  0  0  0  0  0
    1.6080  -13.1180   -0.4860 C   0  0  0  0  0  0  0  0  0  0  0  0
    0.5110  -13.2660    0.5190 C   0  0  0  0  0  0  0  0  0  0  0  0
    0.3590  -14.6790    1.1140 C   0  0  2  0  0  0  0  0  0  0  0  0
   -0.6480  -14.7580    2.3510 C   0  0  1  0  0  0  0  0  0  0  0  0
   -0.2000  -13.8680    3.5390 C   0  0  0  0  0  0  0  0  0  0  0  0
   -2.0480  -14.2560    1.8900 C   0  0  0  0  0  0  0  0  0  0  0  0
   -3.1590  -14.5400    2.8960 C   0  0  1  0  0  0  0  0  0  0  0  0
   -4.4140  -14.1040    2.3450 O   0  0  0  0  0  0  0  0  0  0  0  0
   -3.2660  -16.0280    3.2510 C   0  0  2  0  0  0  0  0  0  0  0  0
   -4.3240  -16.1150    4.2320 O   0  0  0  0  0  0  0  0  0  0  0  0
   -1.9300  -16.6410    3.7390 C   0  0  1  0  0  0  0  0  0  0  0  0
   -1.6080  -16.3170    5.2050 C   0  0  0  0  0  0  0  0  0  0  0  0
   -2.3260  -18.1590    3.7150 C   0  0  0  0  0  0  0  0  0  0  0  0
   -2.3010  -18.7430    2.6000 O   0  0  0  0  0  0  0  0  0  0  0  0
   -2.6850  -18.6330    4.8390 O   0  0  0  0  0  0  0  0  0  0  0  0
   -0.7820  -16.2790    2.7350 C   0  0  2  0  0  0  0  0  0  0  0  0
    0.6000  -16.8590    3.0990 C   0  0  0  0  0  0  0  0  0  0  0  0
    1.5490  -16.8010    1.8960 C   0  0  0  0  0  0  0  0  0  0  0  0
    1.7610  -15.3830    1.2790 C   0  0  1  0  0  0  0  0  0  0  0  0
    2.6800  -14.5830    2.2520 C   0  0  0  0  0  0  0  0  0  0  0  0
    3.6160  -13.6480   -1.8720 C   0  0  2  0  0  0  0  0  0  0  0  0
    3.1700  -13.5340   -3.4020 C   0  0  1  0  0  0  0  0  0  0  0  0
    2.3080  -12.2780   -3.6380 C   0  0  0  0  0  0  0  0  0  0  0  0
    2.3460  -14.6450   -3.7890 O   0  0  0  0  0  0  0  0  0  0  0  0
    3.1325  -12.7970   -5.9378 H   0  0  0  0  0  0  0  0  0  0  0  0
    4.8880  -12.7669   -6.3170 H   0  0  0  0  0  0  0  0  0  0  0  0
    3.9958  -14.3259   -6.3170 H   0  0  0  0  0  0  0  0  0  0  0  0
    4.9791  -12.6456   -4.0180 H   0  0  0  0  0  0  0  0  0  0  0  0
    4.8681  -15.5536   -4.9173 H   0  0  0  0  0  0  0  0  0  0  0  0
    6.2905  -14.5346   -4.3769 H   0  0  0  0  0  0  0  0  0  0  0  0
    4.3559  -16.1532   -2.7726 H   0  0  0  0  0  0  0  0  0  0  0  0
    6.1590  -15.9115   -2.6187 H   0  0  0  0  0  0  0  0  0  0  0  0
    6.0135  -15.5758   -0.1992 H   0  0  0  0  0  0  0  0  0  0  0  0
    4.9527  -14.2584    0.4635 H   0  0  0  0  0  0  0  0  0  0  0  0
    4.0298  -16.8630   -0.8029 H   0  0  0  0  0  0  0  0  0  0  0  0
    4.0223  -16.4038    0.9746 H   0  0  0  0  0  0  0  0  0  0  0  0
    1.1255  -17.1275   -0.5678 H   0  0  0  0  0  0  0  0  0  0  0  0
    1.0374  -15.8153   -1.7913 H   0  0  0  0  0  0  0  0  0  0  0  0
    2.4289  -16.9513   -1.7913 H   0  0  0  0  0  0  0  0  0  0  0  0
    1.7012  -12.1339   -0.9685 H   0  0  0  0  0  0  0  0  0  0  0  0
    0.7087  -12.5673    1.3453 H   0  0  0  0  0  0  0  0  0  0  0  0
   -0.4266  -13.0555   -0.0163 H   0  0  0  0  0  0  0  0  0  0  0  0
   -0.1713  -15.3052    0.3814 H   0  0  0  0  0  0  0  0  0  0  0  0
   -0.4513  -14.3673    4.4864 H   0  0  0  0  0  0  0  0  0  0  0  0
    0.8868  -13.7065    3.4867 H   0  0  0  0  0  0  0  0  0  0  0  0
   -0.7177  -12.8988    3.4867 H   0  0  0  0  0  0  0  0  0  0  0  0
   -1.9927  -13.1691    1.7303 H   0  0  0  0  0  0  0  0  0  0  0  0
   -2.2994  -14.8014    0.9684 H   0  0  0  0  0  0  0  0  0  0  0  0
   -2.9155  -13.9928    3.8187 H   0  0  0  0  0  0  0  0  0  0  0  0
   -4.9060  -13.7970    3.1360 H   0  0  0  0  0  0  0  0  0  0  0  0
   -3.5002  -16.6292    2.3601 H   0  0  0  0  0  0  0  0  0  0  0  0
   -5.0070  -15.4790    3.8880 H   0  0  0  0  0  0  0  0  0  0  0  0
   -2.2291  -16.9419    5.8636 H   0  0  0  0  0  0  0  0  0  0  0  0
   -0.5451  -16.5216    5.4008 H   0  0  0  0  0  0  0  0  0  0  0  0
   -1.8192  -15.2554    5.4008 H   0  0  0  0  0  0  0  0  0  0  0  0
   -1.1379  -16.7928    1.8298 H   0  0  0  0  0  0  0  0  0  0  0  0
    1.0299  -16.2747    3.9259 H   0  0  0  0  0  0  0  0  0  0  0  0
    0.4736  -17.9100    3.3980 H   0  0  0  0  0  0  0  0  0  0  0  0
    2.5296  -17.1809    2.2186 H   0  0  0  0  0  0  0  0  0  0  0  0
    1.0777  -17.4072    1.1083 H   0  0  0  0  0  0  0  0  0  0  0  0
    2.4080  -14.8198    3.2912 H   0  0  0  0  0  0  0  0  0  0  0  0
    3.7299  -14.8598    2.0756 H   0  0  0  0  0  0  0  0  0  0  0  0
    2.5505  -13.5050    2.0756 H   0  0  0  0  0  0  0  0  0  0  0  0
    3.8131  -12.6069   -1.5764 H   0  0  0  0  0  0  0  0  0  0  0  0
    2.0131  -11.8483   -2.6693 H   0  0  0  0  0  0  0  0  0  0  0  0
    2.8884  -11.5365   -4.2066 H   0  0  0  0  0  0  0  0  0  0  0  0
    1.4074  -12.5529   -4.2066 H   0  0  0  0  0  0  0  0  0  0  0  0
    2.8990  -15.4380   -3.6760 H   0  0  0  0  0  0  0  0  0  0  0  0
  1  2  1  0
  2  3  1  0
  3  4  1  0
  4  5  1  0
  5  6  1  1
  6  7  2  0
  6  8  1  0
  5  9  1  0
  9 10  1  0
 10 11  1  0
 11 12  1  6
 11 13  1  0
 13 14  2  0
 14 15  1  0
 15 16  1  0
 16 17  1  0
 17 18  1  1
 17 19  1  0
 19 20  1  0
 20 21  1  0
 20 22  1  0
 22 23  1  0
 22 24  1  0
 24 25  1  1
 24 26  1  0
 26 27  2  0
 26 28  1  0
 24 29  1  0
 29 30  1  0
 30 31  1  0
 31 32  1  0
 32 33  1  1
 13 34  1  0
 34 35  1  0
 35 36  1  0
 35 37  1  6
 35  2  1  0
 34  5  1  0
 32 11  1  0
 32 16  1  0
 29 17  1  0
  1 38  1  0
  1 39  1  0
  1 40  1  0
  2 41  1  1
  3 42  1  0
  3 43  1  0
  4 44  1  0
  4 45  1  0
  9 46  1  0
  9 47  1  0
 10 48  1  0
 10 49  1  0
 12 50  1  0
 12 51  1  0
 12 52  1  0
 14 53  1  0
 15 54  1  0
 15 55  1  0
 16 56  1  6
 18 57  1  0
 18 58  1  0
 18 59  1  0
 19 60  1  0
 19 61  1  0
 20 62  1  1
 21 63  1  0
 22 64  1  6
 23 65  1  0
 25 66  1  0
 25 67  1  0
 25 68  1  0
 29 69  1  6
 30 70  1  0
 30 71  1  0
 31 72  1  0
 31 73  1  0
 33 74  1  0
 33 75  1  0
 33 76  1  0
 34 77  1  1
 36 78  1  0
 36 79  1  0
 36 80  1  0
 37 81  1  0
M  CHG  2   8  -1  28  -1
M  END
>  <meeko>  (4) 
{"is_sidechain": [false], "free_energy": -8.078, "intermolecular_energy": -9.719, "internal_energy": -0.583}

$$$$
LIB_FYGSMJAMPMZYFS__M_PUB_ALL__e8__s20260927
     RDKit          3D

 81 85  0  0  0  0  0  0  0  0999 V2000
   14.2830  -11.7180   -3.2090 C   0  0  0  0  0  0  0  0  0  0  0  0
   13.4320  -12.9970   -3.2140 C   0  0  2  0  0  0  0  0  0  0  0  0
   13.3250  -13.4930   -4.6670 C   0  0  0  0  0  0  0  0  0  0  0  0
   12.1160  -14.3890   -4.9320 C   0  0  0  0  0  0  0  0  0  0  0  0
   11.6770  -15.1990   -3.6990 C   0  0  2  0  0  0  0  0  0  0  0  0
   12.8600  -16.1760   -3.3530 C   0  0  0  0  0  0  0  0  0  0  0  0
   13.1550  -16.2750   -2.1240 O   0  0  0  0  0  0  0  0  0  0  0  0
   13.3980  -16.7780   -4.3250 O   0  0  0  0  0  0  0  0  0  0  0  0
   10.5400  -16.1780   -4.0490 C   0  0  0  0  0  0  0  0  0  0  0  0
    9.2660  -15.4520   -4.4670 C   0  0  0  0  0  0  0  0  0  0  0  0
    8.6950  -14.4710   -3.3960 C   0  0  2  0  0  0  0  0  0  0  0  0
    8.4450  -13.1240   -4.1340 C   0  0  0  0  0  0  0  0  0  0  0  0
    9.7220  -14.1770   -2.2710 C   0  0  0  0  0  0  0  0  0  0  0  0
    9.3050  -13.9830   -1.0010 C   0  0  0  0  0  0  0  0  0  0  0  0
    7.8920  -13.9590   -0.5110 C   0  0  0  0  0  0  0  0  0  0  0  0
    6.8190  -14.1010   -1.6070 C   0  0  2  0  0  0  0  0  0  0  0  0
    5.3400  -14.3160   -1.0450 C   0  0  1  0  0  0  0  0  0  0  0  0
    5.2120  -15.6010   -0.1880 C   0  0  0  0  0  0  0  0  0  0  0  0
    4.9700  -13.1070   -0.1360 C   0  0  0  0  0  0  0  0  0  0  0  0
    3.4920  -13.0550    0.2380 C   0  0  1  0  0  0  0  0  0  0  0  0
    3.2440  -11.8700    1.0130 O   0  0  0  0  0  0  0  0  0  0  0  0
    2.5740  -13.0420   -0.9890 C   0  0  2  0  0  0  0  0  0  0  0  0
    1.2270  -13.0360   -0.4640 O   0  0  0  0  0  0  0  0  0  0  0  0
    2.8400  -14.2130   -1.9690 C   0  0  1  0  0  0  0  0  0  0  0  0
    2.2150  -15.5410   -1.5170 C   0  0  0  0  0  0  0  0  0  0  0  0
    1.9760  -13.7270   -3.1840 C   0  0  0  0  0  0  0  0  0  0  0  0
    1.3270  -14.6020   -3.8160 O   0  0  0  0  0  0  0  0  0  0  0  0
    2.0640  -12.4830   -3.4360 O   0  0  0  0  0  0  0  0  0  0  0  0
    4.3720  -14.3020   -2.2860 C   0  0  2  0  0  0  0  0  0  0  0  0
    4.7620  -15.4170   -3.2770 C   0  0  0  0  0  0  0  0  0  0  0  0
    6.1740  -15.1850   -3.8300 C   0  0  0  0  0  0  0  0  0  0  0  0
    7.3010  -15.0680   -2.7560 C   0  0  1  0  0  0  0  0  0  0  0  0
    7.5730  -16.5020   -2.2060 C   0  0  0  0  0  0  0  0  0  0  0  0
   11.2590  -14.2500   -2.5320 C   0  0  2  0  0  0  0  0  0  0  0  0
   12.0300  -12.8520   -2.5530 C   0  0  1  0  0  0  0  0  0  0  0  0
   12.1640  -12.2690   -1.1320 C   0  0  0  0  0  0  0  0  0  0  0  0
   11.3040  -11.8660   -3.3070 O   0  0  0  0  0  0  0  0  0  0  0  0
   14.4842  -11.4155   -2.1707 H   0  0  0  0  0  0  0  0  0  0  0  0
   15.2348  -11.9089   -3.7263 H   0  0  0  0  0  0  0  0  0  0  0  0
   13.7393  -10.9138   -3.7263 H   0  0  0  0  0  0  0  0  0  0  0  0
   13.9426  -13.7373   -2.5806 H   0  0  0  0  0  0  0  0  0  0  0  0
   13.2566  -12.6160   -5.3274 H   0  0  0  0  0  0  0  0  0  0  0  0
   14.2202  -14.1019   -4.8615 H   0  0  0  0  0  0  0  0  0  0  0  0
   11.2752  -13.7556   -5.2512 H   0  0  0  0  0  0  0  0  0  0  0  0
   12.4092  -15.1107   -5.7086 H   0  0  0  0  0  0  0  0  0  0  0  0
   10.8692  -16.8222   -4.8776 H   0  0  0  0  0  0  0  0  0  0  0  0
   10.3133  -16.7692   -3.1495 H   0  0  0  0  0  0  0  0  0  0  0  0
    9.4830  -14.8760   -5.3786 H   0  0  0  0  0  0  0  0  0  0  0  0
    8.5009  -16.2277   -4.6180 H   0  0  0  0  0  0  0  0  0  0  0  0
    8.2963  -12.3230   -3.3948 H   0  0  0  0  0  0  0  0  0  0  0  0
    9.3140  -12.8845   -4.7644 H   0  0  0  0  0  0  0  0  0  0  0  0
    7.5479  -13.2123   -4.7644 H   0  0  0  0  0  0  0  0  0  0  0  0
   10.0891  -13.8257   -0.2457 H   0  0  0  0  0  0  0  0  0  0  0  0
    7.7639  -14.7876    0.2010 H   0  0  0  0  0  0  0  0  0  0  0  0
    7.7405  -12.9672   -0.0599 H   0  0  0  0  0  0  0  0  0  0  0  0
    6.7062  -13.1266   -2.1049 H   0  0  0  0  0  0  0  0  0  0  0  0
    5.2386  -15.3344    0.8789 H   0  0  0  0  0  0  0  0  0  0  0  0
    4.2596  -16.1013   -0.4173 H   0  0  0  0  0  0  0  0  0  0  0  0
    6.0470  -16.2794   -0.4173 H   0  0  0  0  0  0  0  0  0  0  0  0
    5.5609  -13.1738    0.7894 H   0  0  0  0  0  0  0  0  0  0  0  0
    5.1908  -12.1936   -0.7078 H   0  0  0  0  0  0  0  0  0  0  0  0
    3.2674  -13.9643    0.8148 H   0  0  0  0  0  0  0  0  0  0  0  0
    2.6720  -11.3360    0.4220 H   0  0  0  0  0  0  0  0  0  0  0  0
    2.7622  -12.1540   -1.6102 H   0  0  0  0  0  0  0  0  0  0  0  0
    1.2380  -12.2760    0.1790 H   0  0  0  0  0  0  0  0  0  0  0  0
    2.1958  -15.5819   -0.4179 H   0  0  0  0  0  0  0  0  0  0  0  0
    1.1881  -15.6137   -1.9047 H   0  0  0  0  0  0  0  0  0  0  0  0
    2.8134  -16.3786   -1.9047 H   0  0  0  0  0  0  0  0  0  0  0  0
    4.5292  -13.3343   -2.7848 H   0  0  0  0  0  0  0  0  0  0  0  0
    4.7326  -16.3867   -2.7586 H   0  0  0  0  0  0  0  0  0  0  0  0
    4.0495  -15.4090   -4.1150 H   0  0  0  0  0  0  0  0  0  0  0  0
    6.4221  -16.0275   -4.4923 H   0  0  0  0  0  0  0  0  0  0  0  0
    6.1429  -14.2134   -4.3449 H   0  0  0  0  0  0  0  0  0  0  0  0
    7.5688  -16.4798   -1.1062 H   0  0  0  0  0  0  0  0  0  0  0  0
    6.7886  -17.1861   -2.5619 H   0  0  0  0  0  0  0  0  0  0  0  0
    8.5534  -16.8514   -2.5619 H   0  0  0  0  0  0  0  0  0  0  0  0
   11.6212  -14.7363   -1.6142 H   0  0  0  0  0  0  0  0  0  0  0  0
   11.9818  -13.0619   -0.3917 H   0  0  0  0  0  0  0  0  0  0  0  0
   13.1782  -11.8658   -0.9952 H   0  0  0  0  0  0  0  0  0  0  0  0
   11.4276  -11.4634   -0.9952 H   0  0  0  0  0  0  0  0  0  0  0  0
   11.0310  -12.3110   -4.1290 H   0  0  0  0  0  0  0  0  0  0  0  0
  1  2  1  0
  2  3  1  0
  3  4  1  0
  4  5  1  0
  5  6  1  1
  6  7  2  0
  6  8  1  0
  5  9  1  0
  9 10  1  0
 10 11  1  0
 11 12  1  6
 11 13  1  0
 13 14  2  0
 14 15  1  0
 15 16  1  0
 16 17  1  0
 17 18  1  1
 17 19  1  0
 19 20  1  0
 20 21  1  0
 20 22  1  0
 22 23  1  0
 22 24  1  0
 24 25  1  1
 24 26  1  0
 26 27  2  0
 26 28  1  0
 24 29  1  0
 29 30  1  0
 30 31  1  0
 31 32  1  0
 32 33  1  1
 13 34  1  0
 34 35  1  0
 35 36  1  0
 35 37  1  6
 35  2  1  0
 34  5  1  0
 32 11  1  0
 32 16  1  0
 29 17  1  0
  1 38  1  0
  1 39  1  0
  1 40  1  0
  2 41  1  1
  3 42  1  0
  3 43  1  0
  4 44  1  0
  4 45  1  0
  9 46  1  0
  9 47  1  0
 10 48  1  0
 10 49  1  0
 12 50  1  0
 12 51  1  0
 12 52  1  0
 14 53  1  0
 15 54  1  0
 15 55  1  0
 16 56  1  6
 18 57  1  0
 18 58  1  0
 18 59  1  0
 19 60  1  0
 19 61  1  0
 20 62  1  1
 21 63  1  0
 22 64  1  6
 23 65  1  0
 25 66  1  0
 25 67  1  0
 25 68  1  0
 29 69  1  6
 30 70  1  0
 30 71  1  0
 31 72  1  0
 31 73  1  0
 33 74  1  0
 33 75  1  0
 33 76  1  0
 34 77  1  1
 36 78  1  0
 36 79  1  0
 36 80  1  0
 37 81  1  0
M  CHG  2   8  -1  28  -1
M  END
>  <meeko>  (5) 
{"is_sidechain": [false], "free_energy": -8.059, "intermolecular_energy": -9.696, "internal_energy": -0.583}

$$$$
LIB_FYGSMJAMPMZYFS__M_PUB_ALL__e8__s20260927
     RDKit          3D

 81 85  0  0  0  0  0  0  0  0999 V2000
    1.3800  -11.6970   -1.6710 C   0  0  0  0  0  0  0  0  0  0  0  0
    2.5010  -12.5380   -1.0420 C   0  0  2  0  0  0  0  0  0  0  0  0
    2.9450  -11.8450    0.2590 C   0  0  0  0  0  0  0  0  0  0  0  0
    4.3570  -12.2110    0.7100 C   0  0  0  0  0  0  0  0  0  0  0  0
    4.7820  -13.6300    0.2890 C   0  0  2  0  0  0  0  0  0  0  0  0
    3.8270  -14.6300    1.0370 C   0  0  0  0  0  0  0  0  0  0  0  0
    3.3220  -15.5500    0.3260 O   0  0  0  0  0  0  0  0  0  0  0  0
    3.6600  -14.4330    2.2740 O   0  0  0  0  0  0  0  0  0  0  0  0
    6.1590  -13.9970    0.8740 C   0  0  0  0  0  0  0  0  0  0  0  0
    7.2730  -13.1160    0.3190 C   0  0  0  0  0  0  0  0  0  0  0  0
    7.4220  -13.1570   -1.2340 C   0  0  2  0  0  0  0  0  0  0  0  0
    7.4550  -11.6740   -1.7050 C   0  0  0  0  0  0  0  0  0  0  0  0
    6.1950  -13.8140   -1.9190 C   0  0  0  0  0  0  0  0  0  0  0  0
    6.3550  -14.5570   -3.0350 C   0  0  0  0  0  0  0  0  0  0  0  0
    7.6280  -14.8050   -3.7790 C   0  0  0  0  0  0  0  0  0  0  0  0
    8.8590  -14.0600   -3.2280 C   0  0  2  0  0  0  0  0  0  0  0  0
   10.2430  -14.5220   -3.8780 C   0  0  1  0  0  0  0  0  0  0  0  0
   10.5400  -16.0240   -3.6350 C   0  0  0  0  0  0  0  0  0  0  0  0
   10.1710  -14.3010   -5.4180 C   0  0  0  0  0  0  0  0  0  0  0  0
   11.5190  -14.4430   -6.1180 C   0  0  1  0  0  0  0  0  0  0  0  0
   11.3560  -14.1500   -7.5160 O   0  0  0  0  0  0  0  0  0  0  0  0
   12.5850  -13.5050   -5.5390 C   0  0  2  0  0  0  0  0  0  0  0  0
   13.7940  -13.7940   -6.2770 O   0  0  0  0  0  0  0  0  0  0  0  0
   12.7580  -13.6440   -4.0060 C   0  0  1  0  0  0  0  0  0  0  0  0
   13.6050  -14.8570   -3.5940 C   0  0  0  0  0  0  0  0  0  0  0  0
   13.6580  -12.3860   -3.7390 C   0  0  0  0  0  0  0  0  0  0  0  0
   13.0810  -11.2690   -3.6780 O   0  0  0  0  0  0  0  0  0  0  0  0
   14.9040  -12.6300   -3.6630 O   0  0  0  0  0  0  0  0  0  0  0  0
   11.3590  -13.5710   -3.3050 C   0  0  2  0  0  0  0  0  0  0  0  0
   11.4010  -13.6700   -1.7660 C   0  0  0  0  0  0  0  0  0  0  0  0
   10.0770  -13.1980   -1.1530 C   0  0  0  0  0  0  0  0  0  0  0  0
    8.8030  -13.9480   -1.6560 C   0  0  1  0  0  0  0  0  0  0  0  0
    8.7990  -15.3590   -0.9920 C   0  0  0  0  0  0  0  0  0  0  0  0
    4.7780  -13.7710   -1.2650 C   0  0  2  0  0  0  0  0  0  0  0  0
    3.7100  -12.8240   -1.9800 C   0  0  1  0  0  0  0  0  0  0  0  0
    3.2250  -13.4350   -3.3090 C   0  0  0  0  0  0  0  0  0  0  0  0
    4.2870  -11.5540   -2.3280 O   0  0  0  0  0  0  0  0  0  0  0  0
    0.7727  -11.2414   -0.8750 H   0  0  0  0  0  0  0  0  0  0  0  0
    1.8213  -10.9052   -2.2942 H   0  0  0  0  0  0  0  0  0  0  0  0
    0.7433  -12.3421   -2.2942 H   0  0  0  0  0  0  0  0  0  0  0  0
    2.0894  -13.5373   -0.8370 H   0  0  0  0  0  0  0  0  0  0  0  0
    2.9036  -10.7570    0.1023 H   0  0  0  0  0  0  0  0  0  0  0  0
    2.2610  -12.1868    1.0497 H   0  0  0  0  0  0  0  0  0  0  0  0
    5.0620  -11.4903    0.2699 H   0  0  0  0  0  0  0  0  0  0  0  0
    4.3660  -12.1808    1.8095 H   0  0  0  0  0  0  0  0  0  0  0  0
    6.1233  -13.8768    1.9668 H   0  0  0  0  0  0  0  0  0  0  0  0
    6.3792  -15.0375    0.5932 H   0  0  0  0  0  0  0  0  0  0  0  0
    7.0690  -12.0769    0.6166 H   0  0  0  0  0  0  0  0  0  0  0  0
    8.2144  -13.5068    0.7326 H   0  0  0  0  0  0  0  0  0  0  0  0
    7.4698  -11.0108   -0.8275 H   0  0  0  0  0  0  0  0  0  0  0  0
    8.3572  -11.5015   -2.3102 H   0  0  0  0  0  0  0  0  0  0  0  0
    6.5614  -11.4615   -2.3102 H   0  0  0  0  0  0  0  0  0  0  0  0
    5.4497  -15.0318   -3.4413 H   0  0  0  0  0  0  0  0  0  0  0  0
    7.8386  -15.8841   -3.7451 H   0  0  0  0  0  0  0  0  0  0  0  0
    7.4681  -14.4235   -4.7983 H   0  0  0  0  0  0  0  0  0  0  0  0
    8.8114  -13.0167   -3.5734 H   0  0  0  0  0  0  0  0  0  0  0  0
   10.5787  -16.2198   -2.5533 H   0  0  0  0  0  0  0  0  0  0  0  0
    9.7449  -16.6332   -4.0897 H   0  0  0  0  0  0  0  0  0  0  0  0
   11.5071  -16.2848   -4.0897 H   0  0  0  0  0  0  0  0  0  0  0  0
    9.4781  -15.0417   -5.8438 H   0  0  0  0  0  0  0  0  0  0  0  0
    9.8299  -13.2679   -5.5805 H   0  0  0  0  0  0  0  0  0  0  0  0
   11.8623  -15.4765   -5.9633 H   0  0  0  0  0  0  0  0  0  0  0  0
   10.8110  -13.3350   -7.5080 H   0  0  0  0  0  0  0  0  0  0  0  0
   12.2896  -12.4521   -5.6577 H   0  0  0  0  0  0  0  0  0  0  0  0
   13.4900  -13.7920   -7.2230 H   0  0  0  0  0  0  0  0  0  0  0  0
   13.6479  -14.9185   -2.4966 H   0  0  0  0  0  0  0  0  0  0  0  0
   13.1505  -15.7749   -3.9952 H   0  0  0  0  0  0  0  0  0  0  0  0
   14.6233  -14.7465   -3.9952 H   0  0  0  0  0  0  0  0  0  0  0  0
   11.0564  -12.5475   -3.5714 H   0  0  0  0  0  0  0  0  0  0  0  0
   11.5795  -14.7162   -1.4768 H   0  0  0  0  0  0  0  0  0  0  0  0
   12.2111  -13.0259   -1.3935 H   0  0  0  0  0  0  0  0  0  0  0  0
   10.1410  -13.3305   -0.0629 H   0  0  0  0  0  0  0  0  0  0  0  0
    9.9550  -12.1498   -1.4635 H   0  0  0  0  0  0  0  0  0  0  0  0
    8.7993  -15.2492    0.1025 H   0  0  0  0  0  0  0  0  0  0  0  0
    7.8993  -15.9090   -1.3051 H   0  0  0  0  0  0  0  0  0  0  0  0
    9.6956  -15.9141   -1.3051 H   0  0  0  0  0  0  0  0  0  0  0  0
    4.4047  -14.7862   -1.4649 H   0  0  0  0  0  0  0  0  0  0  0  0
    2.5535  -14.2809   -3.1002 H   0  0  0  0  0  0  0  0  0  0  0  0
    2.6842  -12.6717   -3.8877 H   0  0  0  0  0  0  0  0  0  0  0  0
    4.0911  -13.7885   -3.8877 H   0  0  0  0  0  0  0  0  0  0  0  0
    5.2440  -11.7130   -2.4110 H   0  0  0  0  0  0  0  0  0  0  0  0
  1  2  1  0
  2  3  1  0
  3  4  1  0
  4  5  1  0
  5  6  1  1
  6  7  2  0
  6  8  1  0
  5  9  1  0
  9 10  1  0
 10 11  1  0
 11 12  1  6
 11 13  1  0
 13 14  2  0
 14 15  1  0
 15 16  1  0
 16 17  1  0
 17 18  1  6
 17 19  1  0
 19 20  1  0
 20 21  1  0
 20 22  1  0
 22 23  1  0
 22 24  1  0
 24 25  1  6
 24 26  1  0
 26 27  2  0
 26 28  1  0
 24 29  1  0
 29 30  1  0
 30 31  1  0
 31 32  1  0
 32 33  1  1
 13 34  1  0
 34 35  1  0
 35 36  1  0
 35 37  1  6
 35  2  1  0
 34  5  1  0
 32 11  1  0
 32 16  1  0
 29 17  1  0
  1 38  1  0
  1 39  1  0
  1 40  1  0
  2 41  1  1
  3 42  1  0
  3 43  1  0
  4 44  1  0
  4 45  1  0
  9 46  1  0
  9 47  1  0
 10 48  1  0
 10 49  1  0
 12 50  1  0
 12 51  1  0
 12 52  1  0
 14 53  1  0
 15 54  1  0
 15 55  1  0
 16 56  1  6
 18 57  1  0
 18 58  1  0
 18 59  1  0
 19 60  1  0
 19 61  1  0
 20 62  1  6
 21 63  1  0
 22 64  1  1
 23 65  1  0
 25 66  1  0
 25 67  1  0
 25 68  1  0
 29 69  1  1
 30 70  1  0
 30 71  1  0
 31 72  1  0
 31 73  1  0
 33 74  1  0
 33 75  1  0
 33 76  1  0
 34 77  1  1
 36 78  1  0
 36 79  1  0
 36 80  1  0
 37 81  1  0
M  CHG  2   8  -1  28  -1
M  END
>  <meeko>  (6) 
{"is_sidechain": [false], "free_energy": -8.0, "intermolecular_energy": -9.625, "internal_energy": -0.583}

$$$$
LIB_FYGSMJAMPMZYFS__M_PUB_ALL__e8__s20260927
     RDKit          3D

 81 85  0  0  0  0  0  0  0  0999 V2000
    1.0850  -12.7810    0.6980 C   0  0  0  0  0  0  0  0  0  0  0  0
    0.2540  -13.9570    1.2340 C   0  0  2  0  0  0  0  0  0  0  0  0
   -1.1460  -13.4270    1.5930 C   0  0  0  0  0  0  0  0  0  0  0  0
   -1.8940  -14.2830    2.6130 C   0  0  0  0  0  0  0  0  0  0  0  0
   -1.5150  -15.7750    2.5490 C   0  0  2  0  0  0  0  0  0  0  0  0
   -1.9730  -16.2990    1.1390 C   0  0  0  0  0  0  0  0  0  0  0  0
   -1.1720  -17.0900    0.5560 O   0  0  0  0  0  0  0  0  0  0  0  0
   -3.0960  -15.8950    0.7230 O   0  0  0  0  0  0  0  0  0  0  0  0
   -2.3850  -16.6130    3.5050 C   0  0  0  0  0  0  0  0  0  0  0  0
   -2.1460  -16.2500    4.9670 C   0  0  0  0  0  0  0  0  0  0  0  0
   -0.6700  -16.4160    5.4450 C   0  0  2  0  0  0  0  0  0  0  0  0
   -0.2910  -15.0810    6.1490 C   0  0  0  0  0  0  0  0  0  0  0  0
    0.3110  -16.5850    4.2560 C   0  0  0  0  0  0  0  0  0  0  0  0
    1.3950  -17.3820    4.3740 C   0  0  0  0  0  0  0  0  0  0  0  0
    1.8340  -18.1320    5.5910 C   0  0  0  0  0  0  0  0  0  0  0  0
    0.9770  -17.8890    6.8490 C   0  0  2  0  0  0  0  0  0  0  0  0
    1.3110  -18.8740    8.0620 C   0  0  1  0  0  0  0  0  0  0  0  0
    1.0780  -20.3630    7.6990 C   0  0  0  0  0  0  0  0  0  0  0  0
    2.8130  -18.7120    8.4400 C   0  0  0  0  0  0  0  0  0  0  0  0
    3.1870  -19.3900    9.7540 C   0  0  1  0  0  0  0  0  0  0  0  0
    4.5700  -19.1210   10.0440 O   0  0  0  0  0  0  0  0  0  0  0  0
    2.3330  -18.9050   10.9310 C   0  0  2  0  0  0  0  0  0  0  0  0
    2.7830  -19.6670   12.0740 O   0  0  0  0  0  0  0  0  0  0  0  0
    0.8100  -19.0290   10.6770 C   0  0  1  0  0  0  0  0  0  0  0  0
    0.2710  -20.4540   10.8760 C   0  0  0  0  0  0  0  0  0  0  0  0
    0.2820  -18.2000   11.9000 C   0  0  0  0  0  0  0  0  0  0  0  0
   -0.7670  -18.6090   12.4630 O   0  0  0  0  0  0  0  0  0  0  0  0
    0.9570  -17.1550   12.1650 O   0  0  0  0  0  0  0  0  0  0  0  0
    0.4500  -18.3960    9.2900 C   0  0  2  0  0  0  0  0  0  0  0  0
   -1.0510  -18.4330    8.9330 C   0  0  0  0  0  0  0  0  0  0  0  0
   -1.3620  -17.4640    7.7860 C   0  0  0  0  0  0  0  0  0  0  0  0
   -0.5430  -17.6920    6.4770 C   0  0  1  0  0  0  0  0  0  0  0  0
   -1.1190  -18.9630    5.7810 C   0  0  0  0  0  0  0  0  0  0  0  0
    0.0020  -15.9750    2.8530 C   0  0  2  0  0  0  0  0  0  0  0  0
    0.8990  -14.7240    2.4240 C   0  0  1  0  0  0  0  0  0  0  0  0
    2.3320  -15.1640    2.0660 C   0  0  0  0  0  0  0  0  0  0  0  0
    1.0430  -13.7890    3.5060 O   0  0  0  0  0  0  0  0  0  0  0  0
    1.4921  -12.2049    1.5420 H   0  0  0  0  0  0  0  0  0  0  0  0
    1.9124  -13.1664    0.0841 H   0  0  0  0  0  0  0  0  0  0  0  0
    0.4454  -12.1298    0.0841 H   0  0  0  0  0  0  0  0  0  0  0  0
    0.1976  -14.7135    0.4375 H   0  0  0  0  0  0  0  0  0  0  0  0
   -1.0362  -12.4137    2.0066 H   0  0  0  0  0  0  0  0  0  0  0  0
   -1.7394  -13.4458    0.6670 H   0  0  0  0  0  0  0  0  0  0  0  0
   -1.6637  -13.9069    3.6207 H   0  0  0  0  0  0  0  0  0  0  0  0
   -2.9661  -14.2081    2.3785 H   0  0  0  0  0  0  0  0  0  0  0  0
   -3.4443  -16.4387    3.2651 H   0  0  0  0  0  0  0  0  0  0  0  0
   -2.1135  -17.6704    3.3703 H   0  0  0  0  0  0  0  0  0  0  0  0
   -2.4372  -15.1992    5.1116 H   0  0  0  0  0  0  0  0  0  0  0  0
   -2.7477  -16.9508    5.5644 H   0  0  0  0  0  0  0  0  0  0  0  0
   -0.3298  -15.2178    7.2398 H   0  0  0  0  0  0  0  0  0  0  0  0
    0.7264  -14.7860    5.8524 H   0  0  0  0  0  0  0  0  0  0  0  0
   -1.0016  -14.2955    5.8524 H   0  0  0  0  0  0  0  0  0  0  0  0
    2.0231  -17.4913    3.4776 H   0  0  0  0  0  0  0  0  0  0  0  0
    1.8032  -19.2069    5.3593 H   0  0  0  0  0  0  0  0  0  0  0  0
    2.8433  -17.7662    5.8307 H   0  0  0  0  0  0  0  0  0  0  0  0
    1.2726  -16.9232    7.2847 H   0  0  0  0  0  0  0  0  0  0  0  0
    0.9853  -20.9551    8.6214 H   0  0  0  0  0  0  0  0  0  0  0  0
    0.1543  -20.4564    7.1090 H   0  0  0  0  0  0  0  0  0  0  0  0
    1.9290  -20.7341    7.1090 H   0  0  0  0  0  0  0  0  0  0  0  0
    3.4233  -19.1499    7.6364 H   0  0  0  0  0  0  0  0  0  0  0  0
    3.0000  -17.6355    8.5671 H   0  0  0  0  0  0  0  0  0  0  0  0
    3.0060  -20.4681    9.6313 H   0  0  0  0  0  0  0  0  0  0  0  0
    4.7530  -18.3160    9.5140 H   0  0  0  0  0  0  0  0  0  0  0  0
    2.4672  -17.8257   11.0959 H   0  0  0  0  0  0  0  0  0  0  0  0
    3.6920  -19.3020   12.2470 H   0  0  0  0  0  0  0  0  0  0  0  0
    0.1899  -20.6684   11.9518 H   0  0  0  0  0  0  0  0  0  0  0  0
   -0.7214  -20.5391   10.4093 H   0  0  0  0  0  0  0  0  0  0  0  0
    0.9587  -21.1746   10.4093 H   0  0  0  0  0  0  0  0  0  0  0  0
    0.7305  -17.3478    9.4706 H   0  0  0  0  0  0  0  0  0  0  0  0
   -1.3238  -19.4537    8.6268 H   0  0  0  0  0  0  0  0  0  0  0  0
   -1.6313  -18.1305    9.8172 H   0  0  0  0  0  0  0  0  0  0  0  0
   -2.4297  -17.5611    7.5397 H   0  0  0  0  0  0  0  0  0  0  0  0
   -1.0815  -16.4643    8.1490 H   0  0  0  0  0  0  0  0  0  0  0  0
   -1.4455  -19.6835    6.5454 H   0  0  0  0  0  0  0  0  0  0  0  0
   -1.9770  -18.6803    5.1533 H   0  0  0  0  0  0  0  0  0  0  0  0
   -0.3408  -19.4218    5.1533 H   0  0  0  0  0  0  0  0  0  0  0  0
    0.3316  -16.7796    2.1793 H   0  0  0  0  0  0  0  0  0  0  0  0
    2.9032  -15.3394    2.9896 H   0  0  0  0  0  0  0  0  0  0  0  0
    2.2942  -16.0919    1.4765 H   0  0  0  0  0  0  0  0  0  0  0  0
    2.8214  -14.3747    1.4765 H   0  0  0  0  0  0  0  0  0  0  0  0
    1.5470  -14.2570    4.1950 H   0  0  0  0  0  0  0  0  0  0  0  0
  1  2  1  0
  2  3  1  0
  3  4  1  0
  4  5  1  0
  5  6  1  6
  6  7  2  0
  6  8  1  0
  5  9  1  0
  9 10  1  0
 10 11  1  0
 11 12  1  1
 11 13  1  0
 13 14  2  0
 14 15  1  0
 15 16  1  0
 16 17  1  0
 17 18  1  6
 17 19  1  0
 19 20  1  0
 20 21  1  0
 20 22  1  0
 22 23  1  0
 22 24  1  0
 24 25  1  6
 24 26  1  0
 26 27  2  0
 26 28  1  0
 24 29  1  0
 29 30  1  0
 30 31  1  0
 31 32  1  0
 32 33  1  6
 13 34  1  0
 34 35  1  0
 35 36  1  0
 35 37  1  1
 35  2  1  0
 34  5  1  0
 32 11  1  0
 32 16  1  0
 29 17  1  0
  1 38  1  0
  1 39  1  0
  1 40  1  0
  2 41  1  6
  3 42  1  0
  3 43  1  0
  4 44  1  0
  4 45  1  0
  9 46  1  0
  9 47  1  0
 10 48  1  0
 10 49  1  0
 12 50  1  0
 12 51  1  0
 12 52  1  0
 14 53  1  0
 15 54  1  0
 15 55  1  0
 16 56  1  1
 18 57  1  0
 18 58  1  0
 18 59  1  0
 19 60  1  0
 19 61  1  0
 20 62  1  6
 21 63  1  0
 22 64  1  1
 23 65  1  0
 25 66  1  0
 25 67  1  0
 25 68  1  0
 29 69  1  1
 30 70  1  0
 30 71  1  0
 31 72  1  0
 31 73  1  0
 33 74  1  0
 33 75  1  0
 33 76  1  0
 34 77  1  6
 36 78  1  0
 36 79  1  0
 36 80  1  0
 37 81  1  0
M  CHG  2   8  -1  28  -1
M  END
>  <meeko>  (7) 
{"is_sidechain": [false], "free_energy": -7.922, "intermolecular_energy": -9.54, "internal_energy": -0.574}

$$$$
LIB_FYGSMJAMPMZYFS__M_PUB_ALL__e8__s20260927
     RDKit          3D

 81 85  0  0  0  0  0  0  0  0999 V2000
   13.3480  -15.6320   -5.1980 C   0  0  0  0  0  0  0  0  0  0  0  0
   12.6600  -14.6170   -4.2730 C   0  0  2  0  0  0  0  0  0  0  0  0
   13.1250  -14.8920   -2.8310 C   0  0  0  0  0  0  0  0  0  0  0  0
   12.1690  -14.3760   -1.7590 C   0  0  0  0  0  0  0  0  0  0  0  0
   11.3780  -13.1290   -2.1970 C   0  0  2  0  0  0  0  0  0  0  0  0
   12.4290  -11.9800   -2.4160 C   0  0  0  0  0  0  0  0  0  0  0  0
   12.4440  -11.4570   -3.5710 O   0  0  0  0  0  0  0  0  0  0  0  0
   13.1500  -11.6760   -1.4240 O   0  0  0  0  0  0  0  0  0  0  0  0
   10.5260  -12.5730   -1.0400 C   0  0  0  0  0  0  0  0  0  0  0  0
    9.4370  -13.5490   -0.6080 C   0  0  0  0  0  0  0  0  0  0  0  0
    8.4420  -13.9550   -1.7410 C   0  0  2  0  0  0  0  0  0  0  0  0
    8.3710  -15.5090   -1.7160 C   0  0  0  0  0  0  0  0  0  0  0  0
    8.9660  -13.5560   -3.1450 C   0  0  0  0  0  0  0  0  0  0  0  0
    8.1030  -13.1650   -4.1080 C   0  0  0  0  0  0  0  0  0  0  0  0
    6.6120  -13.1100   -4.0140 C   0  0  0  0  0  0  0  0  0  0  0  0
    6.0230  -13.6320   -2.6890 C   0  0  2  0  0  0  0  0  0  0  0  0
    4.4630  -13.3430   -2.5130 C   0  0  1  0  0  0  0  0  0  0  0  0
    4.1340  -11.8280   -2.5290 C   0  0  0  0  0  0  0  0  0  0  0  0
    3.6940  -14.0030   -3.6970 C   0  0  0  0  0  0  0  0  0  0  0  0
    2.1820  -14.0350   -3.4990 C   0  0  1  0  0  0  0  0  0  0  0  0
    1.5780  -14.7250   -4.6070 O   0  0  0  0  0  0  0  0  0  0  0  0
    1.7730  -14.7380   -2.2000 C   0  0  2  0  0  0  0  0  0  0  0  0
    0.3310  -14.6440   -2.1480 O   0  0  0  0  0  0  0  0  0  0  0  0
    2.4660  -14.1570   -0.9410 C   0  0  1  0  0  0  0  0  0  0  0  0
    1.8260  -12.8550   -0.4370 C   0  0  0  0  0  0  0  0  0  0  0  0
    2.0650  -15.2600    0.0990 C   0  0  0  0  0  0  0  0  0  0  0  0
    1.8680  -14.8870    1.2860 O   0  0  0  0  0  0  0  0  0  0  0  0
    2.0300  -16.4430   -0.3660 O   0  0  0  0  0  0  0  0  0  0  0  0
    4.0110  -14.0590   -1.1850 C   0  0  2  0  0  0  0  0  0  0  0  0
    4.8200  -13.5180    0.0110 C   0  0  0  0  0  0  0  0  0  0  0  0
    6.3130  -13.8250   -0.1570 C   0  0  0  0  0  0  0  0  0  0  0  0
    6.9630  -13.2860   -1.4700 C   0  0  1  0  0  0  0  0  0  0  0  0
    7.1290  -11.7430   -1.3100 C   0  0  0  0  0  0  0  0  0  0  0  0
   10.4940  -13.4440   -3.4430 C   0  0  2  0  0  0  0  0  0  0  0  0
   11.1070  -14.5850   -4.3770 C   0  0  1  0  0  0  0  0  0  0  0  0
   10.6710  -14.3970   -5.8440 C   0  0  0  0  0  0  0  0  0  0  0  0
   10.6280  -15.8850   -3.9970 O   0  0  0  0  0  0  0  0  0  0  0  0
   13.8627  -16.3913   -4.5909 H   0  0  0  0  0  0  0  0  0  0  0  0
   12.5936  -16.1197   -5.8328 H   0  0  0  0  0  0  0  0  0  0  0  0
   14.0805  -15.1119   -5.8328 H   0  0  0  0  0  0  0  0  0  0  0  0
   12.9639  -13.6121   -4.6012 H   0  0  0  0  0  0  0  0  0  0  0  0
   13.2320  -15.9794   -2.7040 H   0  0  0  0  0  0  0  0  0  0  0  0
   14.0743  -14.3530   -2.6955 H   0  0  0  0  0  0  0  0  0  0  0  0
   11.4537  -15.1753   -1.5151 H   0  0  0  0  0  0  0  0  0  0  0  0
   12.7790  -14.0864   -0.8906 H   0  0  0  0  0  0  0  0  0  0  0  0
   11.1829  -12.3717   -0.1809 H   0  0  0  0  0  0  0  0  0  0  0  0
   10.0359  -11.6534   -1.3923 H   0  0  0  0  0  0  0  0  0  0  0  0
    9.9231  -14.4624   -0.2346 H   0  0  0  0  0  0  0  0  0  0  0  0
    8.8419  -13.0327    0.1596 H   0  0  0  0  0  0  0  0  0  0  0  0
    8.3550  -15.8586   -0.6732 H   0  0  0  0  0  0  0  0  0  0  0  0
    7.4567  -15.8426   -2.2286 H   0  0  0  0  0  0  0  0  0  0  0  0
    9.2511  -15.9246   -2.2286 H   0  0  0  0  0  0  0  0  0  0  0  0
    8.5456  -12.8531   -5.0655 H   0  0  0  0  0  0  0  0  0  0  0  0
    6.3009  -12.0620   -4.1363 H   0  0  0  0  0  0  0  0  0  0  0  0
    6.2296  -13.7742   -4.8031 H   0  0  0  0  0  0  0  0  0  0  0  0
    6.0220  -14.7315   -2.7234 H   0  0  0  0  0  0  0  0  0  0  0  0
    4.0539  -11.4592   -1.4957 H   0  0  0  0  0  0  0  0  0  0  0  0
    4.9350  -11.2843   -3.0513 H   0  0  0  0  0  0  0  0  0  0  0  0
    3.1796  -11.6655   -3.0513 H   0  0  0  0  0  0  0  0  0  0  0  0
    3.9130  -13.4357   -4.6136 H   0  0  0  0  0  0  0  0  0  0  0  0
    4.0338  -15.0473   -3.7610 H   0  0  0  0  0  0  0  0  0  0  0  0
    1.8360  -12.9925   -3.4392 H   0  0  0  0  0  0  0  0  0  0  0  0
    2.3270  -15.2350   -4.9820 H   0  0  0  0  0  0  0  0  0  0  0  0
    2.1038  -15.7871   -2.2007 H   0  0  0  0  0  0  0  0  0  0  0  0
    0.0740  -14.5580   -3.1050 H   0  0  0  0  0  0  0  0  0  0  0  0
    1.8233  -12.8496    0.6630 H   0  0  0  0  0  0  0  0  0  0  0  0
    2.4042  -11.9952   -0.8065 H   0  0  0  0  0  0  0  0  0  0  0  0
    0.7921  -12.7877   -0.8065 H   0  0  0  0  0  0  0  0  0  0  0  0
    4.2604  -15.1229   -1.3112 H   0  0  0  0  0  0  0  0  0  0  0  0
    4.6811  -12.4288    0.0770 H   0  0  0  0  0  0  0  0  0  0  0  0
    4.4610  -14.0065    0.9289 H   0  0  0  0  0  0  0  0  0  0  0  0
    6.8490  -13.3804    0.6945 H   0  0  0  0  0  0  0  0  0  0  0  0
    6.3938  -14.9209   -0.2061 H   0  0  0  0  0  0  0  0  0  0  0  0
    7.1566  -11.4861   -0.2408 H   0  0  0  0  0  0  0  0  0  0  0  0
    8.0667  -11.4236   -1.7882 H   0  0  0  0  0  0  0  0  0  0  0  0
    6.2807  -11.2314   -1.7882 H   0  0  0  0  0  0  0  0  0  0  0  0
   10.5379  -12.5405   -4.0689 H   0  0  0  0  0  0  0  0  0  0  0  0
    9.6613  -13.9616   -5.8735 H   0  0  0  0  0  0  0  0  0  0  0  0
   11.3760  -13.7229   -6.3525 H   0  0  0  0  0  0  0  0  0  0  0  0
   10.6647  -15.3724   -6.3525 H   0  0  0  0  0  0  0  0  0  0  0  0
   10.2590  -15.7800   -3.1020 H   0  0  0  0  0  0  0  0  0  0  0  0
  1  2  1  0
  2  3  1  0
  3  4  1  0
  4  5  1  0
  5  6  1  6
  6  7  2  0
  6  8  1  0
  5  9  1  0
  9 10  1  0
 10 11  1  0
 11 12  1  6
 11 13  1  0
 13 14  2  0
 14 15  1  0
 15 16  1  0
 16 17  1  0
 17 18  1  1
 17 19  1  0
 19 20  1  0
 20 21  1  0
 20 22  1  0
 22 23  1  0
 22 24  1  0
 24 25  1  1
 24 26  1  0
 26 27  2  0
 26 28  1  0
 24 29  1  0
 29 30  1  0
 30 31  1  0
 31 32  1  0
 32 33  1  1
 13 34  1  0
 34 35  1  0
 35 36  1  0
 35 37  1  1
 35  2  1  0
 34  5  1  0
 32 11  1  0
 32 16  1  0
 29 17  1  0
  1 38  1  0
  1 39  1  0
  1 40  1  0
  2 41  1  6
  3 42  1  0
  3 43  1  0
  4 44  1  0
  4 45  1  0
  9 46  1  0
  9 47  1  0
 10 48  1  0
 10 49  1  0
 12 50  1  0
 12 51  1  0
 12 52  1  0
 14 53  1  0
 15 54  1  0
 15 55  1  0
 16 56  1  6
 18 57  1  0
 18 58  1  0
 18 59  1  0
 19 60  1  0
 19 61  1  0
 20 62  1  1
 21 63  1  0
 22 64  1  6
 23 65  1  0
 25 66  1  0
 25 67  1  0
 25 68  1  0
 29 69  1  6
 30 70  1  0
 30 71  1  0
 31 72  1  0
 31 73  1  0
 33 74  1  0
 33 75  1  0
 33 76  1  0
 34 77  1  6
 36 78  1  0
 36 79  1  0
 36 80  1  0
 37 81  1  0
M  CHG  2   8  -1  28  -1
M  END
>  <meeko>  (8) 
{"is_sidechain": [false], "free_energy": -7.917, "intermolecular_energy": -9.559, "internal_energy": -0.549}

$$$$
LIB_FYGSMJAMPMZYFS__M_PUB_ALL__e8__s20260927
     RDKit          3D

 81 85  0  0  0  0  0  0  0  0999 V2000
   -0.5000  -17.3000    3.4220 C   0  0  0  0  0  0  0  0  0  0  0  0
   -0.2370  -16.4880    2.1450 C   0  0  2  0  0  0  0  0  0  0  0  0
   -0.4560  -17.4150    0.9360 C   0  0  0  0  0  0  0  0  0  0  0  0
    0.2660  -16.9670   -0.3320 C   0  0  0  0  0  0  0  0  0  0  0  0
    0.4420  -15.4400   -0.4250 C   0  0  2  0  0  0  0  0  0  0  0  0
   -1.0010  -14.8220   -0.5190 C   0  0  0  0  0  0  0  0  0  0  0  0
   -1.2320  -13.8360    0.2440 O   0  0  0  0  0  0  0  0  0  0  0  0
   -1.7910  -15.3550   -1.3490 O   0  0  0  0  0  0  0  0  0  0  0  0
    1.0580  -15.0290   -1.7760 C   0  0  0  0  0  0  0  0  0  0  0  0
    2.4780  -15.5590   -1.9440 C   0  0  0  0  0  0  0  0  0  0  0  0
    3.4790  -15.0990   -0.8380 C   0  0  2  0  0  0  0  0  0  0  0  0
    4.1880  -16.3890   -0.3320 C   0  0  0  0  0  0  0  0  0  0  0  0
    2.7510  -14.4830    0.3850 C   0  0  0  0  0  0  0  0  0  0  0  0
    3.3120  -13.4640    1.0700 C   0  0  0  0  0  0  0  0  0  0  0  0
    4.6510  -12.8430    0.8260 C   0  0  0  0  0  0  0  0  0  0  0  0
    5.4840  -13.5070   -0.2870 C   0  0  2  0  0  0  0  0  0  0  0  0
    6.7930  -12.6900   -0.6950 C   0  0  1  0  0  0  0  0  0  0  0  0
    6.4650  -11.2720   -1.2310 C   0  0  0  0  0  0  0  0  0  0  0  0
    7.6900  -12.5170    0.5670 C   0  0  0  0  0  0  0  0  0  0  0  0
    9.0890  -11.9970    0.2540 C   0  0  1  0  0  0  0  0  0  0  0  0
    9.8530  -11.9430    1.4720 O   0  0  0  0  0  0  0  0  0  0  0  0
    9.8330  -12.8780   -0.7560 C   0  0  2  0  0  0  0  0  0  0  0  0
   11.1070  -12.2290   -0.9690 O   0  0  0  0  0  0  0  0  0  0  0  0
    9.0410  -13.1130   -2.0670 C   0  0  1  0  0  0  0  0  0  0  0  0
    9.1160  -11.9310   -3.0450 C   0  0  0  0  0  0  0  0  0  0  0  0
    9.9260  -14.2440   -2.6970 C   0  0  0  0  0  0  0  0  0  0  0  0
   10.0420  -14.2540   -3.9510 O   0  0  0  0  0  0  0  0  0  0  0  0
   10.4020  -15.0760   -1.8600 O   0  0  0  0  0  0  0  0  0  0  0  0
    7.5820  -13.5750   -1.7300 C   0  0  2  0  0  0  0  0  0  0  0  0
    6.6980  -13.8680   -2.9600 C   0  0  0  0  0  0  0  0  0  0  0  0
    5.4580  -14.6760   -2.5590 C   0  0  0  0  0  0  0  0  0  0  0  0
    4.5630  -14.0260   -1.4580 C   0  0  1  0  0  0  0  0  0  0  0  0
    3.7850  -12.8500   -2.1230 C   0  0  0  0  0  0  0  0  0  0  0  0
    1.2980  -14.9070    0.7660 C   0  0  2  0  0  0  0  0  0  0  0  0
    1.1540  -15.7910    2.0880 C   0  0  1  0  0  0  0  0  0  0  0  0
    1.3800  -14.9410    3.3530 C   0  0  0  0  0  0  0  0  0  0  0  0
    2.1500  -16.8260    2.1360 O   0  0  0  0  0  0  0  0  0  0  0  0
   -0.2971  -16.6736    4.3031 H   0  0  0  0  0  0  0  0  0  0  0  0
   -1.5501  -17.6272    3.4387 H   0  0  0  0  0  0  0  0  0  0  0  0
    0.1588  -18.1807    3.4387 H   0  0  0  0  0  0  0  0  0  0  0  0
   -0.9488  -15.6494    2.1336 H   0  0  0  0  0  0  0  0  0  0  0  0
   -0.0961  -18.4199    1.2016 H   0  0  0  0  0  0  0  0  0  0  0  0
   -1.5327  -17.3947    0.7118 H   0  0  0  0  0  0  0  0  0  0  0  0
    1.2613  -17.4350   -0.3510 H   0  0  0  0  0  0  0  0  0  0  0  0
   -0.3537  -17.2764   -1.1866 H   0  0  0  0  0  0  0  0  0  0  0  0
    0.4320  -15.4285   -2.5875 H   0  0  0  0  0  0  0  0  0  0  0  0
    1.1005  -13.9303   -1.8087 H   0  0  0  0  0  0  0  0  0  0  0  0
    2.4373  -16.6582   -1.9341 H   0  0  0  0  0  0  0  0  0  0  0  0
    2.8531  -15.1494   -2.8935 H   0  0  0  0  0  0  0  0  0  0  0  0
    4.1926  -16.3974    0.7680 H   0  0  0  0  0  0  0  0  0  0  0  0
    3.6491  -17.2732   -0.7032 H   0  0  0  0  0  0  0  0  0  0  0  0
    5.2233  -16.4080   -0.7032 H   0  0  0  0  0  0  0  0  0  0  0  0
    2.7205  -13.0448    1.8973 H   0  0  0  0  0  0  0  0  0  0  0  0
    4.4936  -11.7894    0.5519 H   0  0  0  0  0  0  0  0  0  0  0  0
    5.2235  -12.9716    1.7565 H   0  0  0  0  0  0  0  0  0  0  0  0
    5.9373  -14.4214    0.1233 H   0  0  0  0  0  0  0  0  0  0  0  0
    6.3067  -10.5876   -0.3845 H   0  0  0  0  0  0  0  0  0  0  0  0
    7.3029  -10.9090   -1.8443 H   0  0  0  0  0  0  0  0  0  0  0  0
    5.5528  -11.3138   -1.8443 H   0  0  0  0  0  0  0  0  0  0  0  0
    7.1990  -11.8063    1.2481 H   0  0  0  0  0  0  0  0  0  0  0  0
    7.8091  -13.5134    1.0176 H   0  0  0  0  0  0  0  0  0  0  0  0
    8.9764  -10.9982   -0.1929 H   0  0  0  0  0  0  0  0  0  0  0  0
   10.1260  -12.8760    1.6010 H   0  0  0  0  0  0  0  0  0  0  0  0
    9.9676  -13.8973   -0.3650 H   0  0  0  0  0  0  0  0  0  0  0  0
   10.9320  -11.2890   -0.6970 H   0  0  0  0  0  0  0  0  0  0  0  0
    9.1757  -10.9898   -2.4788 H   0  0  0  0  0  0  0  0  0  0  0  0
   10.0093  -12.0352   -3.6783 H   0  0  0  0  0  0  0  0  0  0  0  0
    8.2167  -11.9215   -3.6783 H   0  0  0  0  0  0  0  0  0  0  0  0
    7.7869  -14.5293   -1.2227 H   0  0  0  0  0  0  0  0  0  0  0  0
    6.3785  -12.9162   -3.4095 H   0  0  0  0  0  0  0  0  0  0  0  0
    7.2831  -14.4554   -3.6830 H   0  0  0  0  0  0  0  0  0  0  0  0
    4.8404  -14.8185   -3.4580 H   0  0  0  0  0  0  0  0  0  0  0  0
    5.8346  -15.6154   -2.1281 H   0  0  0  0  0  0  0  0  0  0  0  0
    3.3579  -12.2045   -1.3414 H   0  0  0  0  0  0  0  0  0  0  0  0
    4.4731  -12.2623   -2.7484 H   0  0  0  0  0  0  0  0  0  0  0  0
    2.9750  -13.2534   -2.7484 H   0  0  0  0  0  0  0  0  0  0  0  0
    0.8463  -13.9431    1.0433 H   0  0  0  0  0  0  0  0  0  0  0  0
    1.2150  -15.5616    4.2461 H   0  0  0  0  0  0  0  0  0  0  0  0
    2.4112  -14.5580    3.3580 H   0  0  0  0  0  0  0  0  0  0  0  0
    0.6752  -14.0965    3.3580 H   0  0  0  0  0  0  0  0  0  0  0  0
    2.4130  -16.8970    3.0710 H   0  0  0  0  0  0  0  0  0  0  0  0
  1  2  1  0
  2  3  1  0
  3  4  1  0
  4  5  1  0
  5  6  1  1
  6  7  2  0
  6  8  1  0
  5  9  1  0
  9 10  1  0
 10 11  1  0
 11 12  1  1
 11 13  1  0
 13 14  2  0
 14 15  1  0
 15 16  1  0
 16 17  1  0
 17 18  1  6
 17 19  1  0
 19 20  1  0
 20 21  1  0
 20 22  1  0
 22 23  1  0
 22 24  1  0
 24 25  1  6
 24 26  1  0
 26 27  2  0
 26 28  1  0
 24 29  1  0
 29 30  1  0
 30 31  1  0
 31 32  1  0
 32 33  1  6
 13 34  1  0
 34 35  1  0
 35 36  1  0
 35 37  1  6
 35  2  1  0
 34  5  1  0
 32 11  1  0
 32 16  1  0
 29 17  1  0
  1 38  1  0
  1 39  1  0
  1 40  1  0
  2 41  1  6
  3 42  1  0
  3 43  1  0
  4 44  1  0
  4 45  1  0
  9 46  1  0
  9 47  1  0
 10 48  1  0
 10 49  1  0
 12 50  1  0
 12 51  1  0
 12 52  1  0
 14 53  1  0
 15 54  1  0
 15 55  1  0
 16 56  1  1
 18 57  1  0
 18 58  1  0
 18 59  1  0
 19 60  1  0
 19 61  1  0
 20 62  1  6
 21 63  1  0
 22 64  1  1
 23 65  1  0
 25 66  1  0
 25 67  1  0
 25 68  1  0
 29 69  1  1
 30 70  1  0
 30 71  1  0
 31 72  1  0
 31 73  1  0
 33 74  1  0
 33 75  1  0
 33 76  1  0
 34 77  1  1
 36 78  1  0
 36 79  1  0
 36 80  1  0
 37 81  1  0
M  CHG  2   8  -1  28  -1
M  END
>  <meeko>  (9) 
{"is_sidechain": [false], "free_energy": -7.903, "intermolecular_energy": -9.489, "internal_energy": -0.602}

$$$$
