LIB_DDHCKQIECJLNRO__M_PUB_ALL__e8__s20260927
     RDKit          3D

 60 64  0  0  0  0  0  0  0  0999 V2000
    4.3200  -11.5540   -4.2700 C   0  0  0  0  0  0  0  0  0  0  0  0
    5.2250  -12.6490   -4.3060 O   0  0  0  0  0  0  0  0  0  0  0  0
    5.6400  -13.0570   -5.5450 C   0  0  0  0  0  0  0  0  0  0  0  0
    5.2410  -12.2290   -6.5990 C   0  0  0  0  0  0  0  0  0  0  0  0
    5.6010  -12.5280   -7.9170 C   0  0  0  0  0  0  0  0  0  0  0  0
    6.3590  -13.6690   -8.2010 C   0  0  0  0  0  0  0  0  0  0  0  0
    6.7520  -14.0070   -9.6200 C   0  0  0  0  0  0  0  0  0  0  0  0
    7.9160  -13.2650  -10.0540 N   0  0  0  0  0  0  0  0  0  0  0  0
    7.8410  -12.3260  -11.0690 N   0  0  0  0  0  0  0  0  0  0  0  0
    9.1320  -11.9210  -11.1840 C   0  0  0  0  0  0  0  0  0  0  0  0
    9.9570  -12.5990  -10.3000 C   0  0  0  0  0  0  0  0  0  0  0  0
   11.3200  -12.7400   -9.8640 N   0  0  0  0  0  0  0  0  0  0  0  0
   11.2500  -13.7280   -8.8710 C   0  0  0  0  0  0  0  0  0  0  0  0
   12.5490  -14.2240   -8.0720 C   0  0  0  0  0  0  0  0  0  0  0  0
   12.4850  -14.1410   -6.6710 C   0  0  0  0  0  0  0  0  0  0  0  0
   13.5510  -14.5500   -5.8640 C   0  0  0  0  0  0  0  0  0  0  0  0
   13.3700  -14.4330   -4.4710 N   0  0  0  0  0  0  0  0  0  0  0  0
   12.8600  -13.3630   -3.7580 C   0  0  0  0  0  0  0  0  0  0  0  0
   12.4160  -12.3280   -4.2370 O   0  0  0  0  0  0  0  0  0  0  0  0
   12.9670  -13.6090   -2.3990 N   0  0  0  0  0  0  0  0  0  0  0  0
   12.3800  -12.8710   -1.3480 C   0  0  0  0  0  0  0  0  0  0  0  0
   11.2380  -13.2410   -0.6320 C   0  0  0  0  0  0  0  0  0  0  0  0
   10.6300  -14.4170   -0.8260 F   0  0  0  0  0  0  0  0  0  0  0  0
   10.7310  -12.4280    0.3800 C   0  0  0  0  0  0  0  0  0  0  0  0
   11.3800  -11.2430    0.7000 C   0  0  0  0  0  0  0  0  0  0  0  0
   10.8720  -10.4700    1.6710 F   0  0  0  0  0  0  0  0  0  0  0  0
   12.5470  -10.8570    0.0450 C   0  0  0  0  0  0  0  0  0  0  0  0
   13.2330   -9.5710    0.3810 C   0  0  0  0  0  0  0  0  0  0  0  0
   13.0260  -11.6810   -0.9770 C   0  0  0  0  0  0  0  0  0  0  0  0
   14.1390  -11.3180   -1.6380 F   0  0  0  0  0  0  0  0  0  0  0  0
   14.6980  -15.0480   -6.4720 C   0  0  0  0  0  0  0  0  0  0  0  0
   14.7750  -15.1320   -7.8680 C   0  0  0  0  0  0  0  0  0  0  0  0
   13.7080  -14.7240   -8.6880 C   0  0  0  0  0  0  0  0  0  0  0  0
   13.8550  -14.8430  -10.1770 C   0  0  0  0  0  0  0  0  0  0  0  0
    9.9540  -14.2070   -8.6680 N   0  0  0  0  0  0  0  0  0  0  0  0
    9.1780  -13.4360   -9.6140 C   0  0  0  0  0  0  0  0  0  0  0  0
    6.7580  -14.4950   -7.1410 C   0  0  0  0  0  0  0  0  0  0  0  0
    6.4010  -14.1920   -5.8230 C   0  0  0  0  0  0  0  0  0  0  0  0
    4.1032  -11.2917   -3.2240 H   0  0  0  0  0  0  0  0  0  0  0  0
    4.7704  -10.6892   -4.7791 H   0  0  0  0  0  0  0  0  0  0  0  0
    3.3858  -11.8335   -4.7791 H   0  0  0  0  0  0  0  0  0  0  0  0
    4.6378  -11.3333   -6.3893 H   0  0  0  0  0  0  0  0  0  0  0  0
    5.2865  -11.8626   -8.7345 H   0  0  0  0  0  0  0  0  0  0  0  0
    6.9745  -15.0826   -9.6798 H   0  0  0  0  0  0  0  0  0  0  0  0
    5.9129  -13.7358  -10.2776 H   0  0  0  0  0  0  0  0  0  0  0  0
    9.4794  -11.1519  -11.8896 H   0  0  0  0  0  0  0  0  0  0  0  0
   11.5745  -13.7448   -6.1977 H   0  0  0  0  0  0  0  0  0  0  0  0
   13.6000  -15.2640   -3.9470 H   0  0  0  0  0  0  0  0  0  0  0  0
   13.6800  -14.2740   -2.1280 H   0  0  0  0  0  0  0  0  0  0  0  0
    9.8210  -12.7237    0.9227 H   0  0  0  0  0  0  0  0  0  0  0  0
   13.2915   -9.4613    1.4740 H   0  0  0  0  0  0  0  0  0  0  0  0
   14.2484   -9.5757   -0.0419 H   0  0  0  0  0  0  0  0  0  0  0  0
   12.6635   -8.7303   -0.0419 H   0  0  0  0  0  0  0  0  0  0  0  0
   15.5472  -15.3769   -5.8550 H   0  0  0  0  0  0  0  0  0  0  0  0
   15.6906  -15.5259   -8.3333 H   0  0  0  0  0  0  0  0  0  0  0  0
   14.6906  -15.5194  -10.4101 H   0  0  0  0  0  0  0  0  0  0  0  0
   12.9260  -15.2465  -10.6061 H   0  0  0  0  0  0  0  0  0  0  0  0
   14.0562  -13.8503  -10.6061 H   0  0  0  0  0  0  0  0  0  0  0  0
    7.3593  -15.3925   -7.3483 H   0  0  0  0  0  0  0  0  0  0  0  0
    6.7216  -14.8513   -5.0029 H   0  0  0  0  0  0  0  0  0  0  0  0
  1  2  1  0
  2  3  1  0
  3  4  2  0
  4  5  1  0
  5  6  2  0
  6  7  1  0
  7  8  1  0
  8  9  1  0
  9 10  2  0
 10 11  1  0
 11 12  1  0
 12 13  1  0
 13 14  1  0
 14 15  2  0
 15 16  1  0
 16 17  1  0
 17 18  1  0
 18 19  2  0
 18 20  1  0
 20 21  1  0
 21 22  2  0
 22 23  1  0
 22 24  1  0
 24 25  2  0
 25 26  1  0
 25 27  1  0
 27 28  1  0
 27 29  2  0
 29 30  1  0
 16 31  2  0
 31 32  1  0
 32 33  2  0
 33 34  1  0
 13 35  2  0
 35 36  1  0
  6 37  1  0
 37 38  2  0
 38  3  1  0
 36  8  1  0
 36 11  2  0
 33 14  1  0
 29 21  1  0
  1 39  1  0
  1 40  1  0
  1 41  1  0
  4 42  1  0
  5 43  1  0
  7 44  1  0
  7 45  1  0
 10 46  1  0
 15 47  1  0
 17 48  1  0
 20 49  1  0
 24 50  1  0
 28 51  1  0
 28 52  1  0
 28 53  1  0
 31 54  1  0
 32 55  1  0
 34 56  1  0
 34 57  1  0
 34 58  1  0
 37 59  1  0
 38 60  1  0
M  CHG  1  12  -1
M  END
>  <meeko>  (1) 
{"is_sidechain": [false], "free_energy": -9.441, "intermolecular_energy": -12.752, "internal_energy": -0.878}

$$$$
LIB_DDHCKQIECJLNRO__M_PUB_ALL__e8__s20260927
     RDKit          3D

 60 64  0  0  0  0  0  0  0  0999 V2000
   -2.3180  -10.4890    2.1840 C   0  0  0  0  0  0  0  0  0  0  0  0
   -2.8870  -11.6880    2.6950 O   0  0  0  0  0  0  0  0  0  0  0  0
   -2.5560  -12.8450    2.0440 C   0  0  0  0  0  0  0  0  0  0  0  0
   -2.9190  -12.8840    0.6950 C   0  0  0  0  0  0  0  0  0  0  0  0
   -2.6360  -14.0070   -0.0890 C   0  0  0  0  0  0  0  0  0  0  0  0
   -1.9900  -15.1150    0.4720 C   0  0  0  0  0  0  0  0  0  0  0  0
   -1.6800  -16.3370   -0.3610 C   0  0  0  0  0  0  0  0  0  0  0  0
   -0.2620  -16.4840   -0.6040 N   0  0  0  0  0  0  0  0  0  0  0  0
    0.4500  -17.5670   -0.1160 N   0  0  0  0  0  0  0  0  0  0  0  0
    1.7160  -17.2870   -0.5200 C   0  0  0  0  0  0  0  0  0  0  0  0
    1.7760  -16.0790   -1.1970 C   0  0  0  0  0  0  0  0  0  0  0  0
    2.6690  -15.1660   -1.8570 N   0  0  0  0  0  0  0  0  0  0  0  0
    1.8290  -14.1200   -2.2680 C   0  0  0  0  0  0  0  0  0  0  0  0
    2.3850  -12.8490   -3.0710 C   0  0  0  0  0  0  0  0  0  0  0  0
    3.0160  -13.1170   -4.2980 C   0  0  0  0  0  0  0  0  0  0  0  0
    3.5350  -12.0920   -5.0950 C   0  0  0  0  0  0  0  0  0  0  0  0
    4.1340  -12.4780   -6.3100 N   0  0  0  0  0  0  0  0  0  0  0  0
    5.4700  -12.7250   -6.5690 C   0  0  0  0  0  0  0  0  0  0  0  0
    6.3770  -12.7010   -5.7470 O   0  0  0  0  0  0  0  0  0  0  0  0
    5.6530  -12.9600   -7.9230 N   0  0  0  0  0  0  0  0  0  0  0  0
    6.8160  -13.4510   -8.5560 C   0  0  0  0  0  0  0  0  0  0  0  0
    7.4050  -14.6950   -8.3210 C   0  0  0  0  0  0  0  0  0  0  0  0
    6.8470  -15.6040   -7.5120 F   0  0  0  0  0  0  0  0  0  0  0  0
    8.5660  -15.0770   -8.9920 C   0  0  0  0  0  0  0  0  0  0  0  0
    9.1350  -14.2190   -9.9240 C   0  0  0  0  0  0  0  0  0  0  0  0
   10.2570  -14.6000  -10.5530 F   0  0  0  0  0  0  0  0  0  0  0  0
    8.5550  -12.9890  -10.2240 C   0  0  0  0  0  0  0  0  0  0  0  0
    9.1820  -12.0600  -11.2150 C   0  0  0  0  0  0  0  0  0  0  0  0
    7.4010  -12.6230   -9.5260 C   0  0  0  0  0  0  0  0  0  0  0  0
    6.8360  -11.4300   -9.7830 F   0  0  0  0  0  0  0  0  0  0  0  0
    3.4210  -10.7780   -4.6530 C   0  0  0  0  0  0  0  0  0  0  0  0
    2.7980  -10.4980   -3.4300 C   0  0  0  0  0  0  0  0  0  0  0  0
    2.2720  -11.5230   -2.6220 C   0  0  0  0  0  0  0  0  0  0  0  0
    1.6160  -11.1530   -1.3240 C   0  0  0  0  0  0  0  0  0  0  0  0
    0.4950  -14.3180   -1.9080 N   0  0  0  0  0  0  0  0  0  0  0  0
    0.5340  -15.5950   -1.2290 C   0  0  0  0  0  0  0  0  0  0  0  0
   -1.6260  -15.0710    1.8240 C   0  0  0  0  0  0  0  0  0  0  0  0
   -1.9060  -13.9440    2.6060 C   0  0  0  0  0  0  0  0  0  0  0  0
   -2.0115   -9.8432    3.0201 H   0  0  0  0  0  0  0  0  0  0  0  0
   -1.4398  -10.7333    1.5683 H   0  0  0  0  0  0  0  0  0  0  0  0
   -3.0626   -9.9631    1.5683 H   0  0  0  0  0  0  0  0  0  0  0  0
   -3.4330  -12.0219    0.2449 H   0  0  0  0  0  0  0  0  0  0  0  0
   -2.9222  -14.0197   -1.1510 H   0  0  0  0  0  0  0  0  0  0  0  0
   -2.0434  -17.2295    0.1695 H   0  0  0  0  0  0  0  0  0  0  0  0
   -2.1801  -16.2198   -1.3337 H   0  0  0  0  0  0  0  0  0  0  0  0
    2.5839  -17.9366   -0.3336 H   0  0  0  0  0  0  0  0  0  0  0  0
    3.1037  -14.1589   -4.6398 H   0  0  0  0  0  0  0  0  0  0  0  0
    3.4840  -12.6400   -7.0650 H   0  0  0  0  0  0  0  0  0  0  0  0
    4.9460  -12.5730   -8.5340 H   0  0  0  0  0  0  0  0  0  0  0  0
    9.0289  -16.0530   -8.7842 H   0  0  0  0  0  0  0  0  0  0  0  0
    9.7200  -11.2629  -10.6809 H   0  0  0  0  0  0  0  0  0  0  0  0
    9.8880  -12.6195  -11.8464 H   0  0  0  0  0  0  0  0  0  0  0  0
    8.3991  -11.6146  -11.8464 H   0  0  0  0  0  0  0  0  0  0  0  0
    3.8211   -9.9566   -5.2655 H   0  0  0  0  0  0  0  0  0  0  0  0
    2.7182   -9.4537   -3.0938 H   0  0  0  0  0  0  0  0  0  0  0  0
    2.2370  -11.5033   -0.4864 H   0  0  0  0  0  0  0  0  0  0  0  0
    1.5063  -10.0600   -1.2671 H   0  0  0  0  0  0  0  0  0  0  0  0
    0.6238  -11.6245   -1.2671 H   0  0  0  0  0  0  0  0  0  0  0  0
   -1.1138  -15.9327    2.2769 H   0  0  0  0  0  0  0  0  0  0  0  0
   -1.6128  -13.9250    3.6660 H   0  0  0  0  0  0  0  0  0  0  0  0
  1  2  1  0
  2  3  1  0
  3  4  2  0
  4  5  1  0
  5  6  2  0
  6  7  1  0
  7  8  1  0
  8  9  1  0
  9 10  2  0
 10 11  1  0
 11 12  1  0
 12 13  1  0
 13 14  1  0
 14 15  2  0
 15 16  1  0
 16 17  1  0
 17 18  1  0
 18 19  2  0
 18 20  1  0
 20 21  1  0
 21 22  2  0
 22 23  1  0
 22 24  1  0
 24 25  2  0
 25 26  1  0
 25 27  1  0
 27 28  1  0
 27 29  2  0
 29 30  1  0
 16 31  2  0
 31 32  1  0
 32 33  2  0
 33 34  1  0
 13 35  2  0
 35 36  1  0
  6 37  1  0
 37 38  2  0
 38  3  1  0
 36  8  1  0
 36 11  2  0
 33 14  1  0
 29 21  1  0
  1 39  1  0
  1 40  1  0
  1 41  1  0
  4 42  1  0
  5 43  1  0
  7 44  1  0
  7 45  1  0
 10 46  1  0
 15 47  1  0
 17 48  1  0
 20 49  1  0
 24 50  1  0
 28 51  1  0
 28 52  1  0
 28 53  1  0
 31 54  1  0
 32 55  1  0
 34 56  1  0
 34 57  1  0
 34 58  1  0
 37 59  1  0
 38 60  1  0
M  CHG  1  12  -1
M  END
>  <meeko>  (2) 
{"is_sidechain": [false], "free_energy": -9.179, "intermolecular_energy": -12.074, "internal_energy": -1.202}

$$$$
LIB_DDHCKQIECJLNRO__M_PUB_ALL__e8__s20260927
     RDKit          3D

 60 64  0  0  0  0  0  0  0  0999 V2000
   -4.9150  -12.2690    0.4790 C   0  0  0  0  0  0  0  0  0  0  0  0
   -4.6560  -13.2400    1.4840 O   0  0  0  0  0  0  0  0  0  0  0  0
   -3.5080  -13.9710    1.3420 C   0  0  0  0  0  0  0  0  0  0  0  0
   -2.8030  -14.1950    2.5280 C   0  0  0  0  0  0  0  0  0  0  0  0
   -1.6150  -14.9320    2.5260 C   0  0  0  0  0  0  0  0  0  0  0  0
   -1.1070  -15.4480    1.3280 C   0  0  0  0  0  0  0  0  0  0  0  0
    0.1780  -16.2430    1.3080 C   0  0  0  0  0  0  0  0  0  0  0  0
    1.3390  -15.4050    1.5090 N   0  0  0  0  0  0  0  0  0  0  0  0
    2.0760  -15.4530    2.6800 N   0  0  0  0  0  0  0  0  0  0  0  0
    3.0160  -14.4950    2.4720 C   0  0  0  0  0  0  0  0  0  0  0  0
    2.8430  -13.8750    1.2450 C   0  0  0  0  0  0  0  0  0  0  0  0
    3.3650  -12.8500    0.3820 N   0  0  0  0  0  0  0  0  0  0  0  0
    2.5170  -12.8930   -0.7350 C   0  0  0  0  0  0  0  0  0  0  0  0
    2.7170  -11.9180   -1.9920 C   0  0  0  0  0  0  0  0  0  0  0  0
    3.7470  -12.2590   -2.8840 C   0  0  0  0  0  0  0  0  0  0  0  0
    4.0150  -11.4920   -4.0220 C   0  0  0  0  0  0  0  0  0  0  0  0
    5.0630  -11.9360   -4.8520 N   0  0  0  0  0  0  0  0  0  0  0  0
    5.0610  -12.9890   -5.7490 C   0  0  0  0  0  0  0  0  0  0  0  0
    4.1030  -13.6990   -6.0200 O   0  0  0  0  0  0  0  0  0  0  0  0
    6.3320  -13.1640   -6.2740 N   0  0  0  0  0  0  0  0  0  0  0  0
    6.7020  -13.9820   -7.3630 C   0  0  0  0  0  0  0  0  0  0  0  0
    7.0420  -15.3350   -7.2860 C   0  0  0  0  0  0  0  0  0  0  0  0
    6.9560  -16.0240   -6.1420 F   0  0  0  0  0  0  0  0  0  0  0  0
    7.4100  -16.0490   -8.4250 C   0  0  0  0  0  0  0  0  0  0  0  0
    7.4170  -15.4150   -9.6610 C   0  0  0  0  0  0  0  0  0  0  0  0
    7.7800  -16.1160  -10.7450 F   0  0  0  0  0  0  0  0  0  0  0  0
    7.0390  -14.0810   -9.7920 C   0  0  0  0  0  0  0  0  0  0  0  0
    7.0650  -13.3970  -11.1220 C   0  0  0  0  0  0  0  0  0  0  0  0
    6.6910  -13.3830   -8.6320 C   0  0  0  0  0  0  0  0  0  0  0  0
    6.3450  -12.0870   -8.7320 F   0  0  0  0  0  0  0  0  0  0  0  0
    3.2380  -10.3640   -4.2660 C   0  0  0  0  0  0  0  0  0  0  0  0
    2.2110  -10.0110   -3.3820 C   0  0  0  0  0  0  0  0  0  0  0  0
    1.9330  -10.7780   -2.2360 C   0  0  0  0  0  0  0  0  0  0  0  0
    0.8170  -10.3450   -1.3310 C   0  0  0  0  0  0  0  0  0  0  0  0
    1.5160  -13.8590   -0.6220 N   0  0  0  0  0  0  0  0  0  0  0  0
    1.7880  -14.4520    0.6680 C   0  0  0  0  0  0  0  0  0  0  0  0
   -1.8170  -15.2230    0.1410 C   0  0  0  0  0  0  0  0  0  0  0  0
   -3.0090  -14.4900    0.1470 C   0  0  0  0  0  0  0  0  0  0  0  0
   -5.1708  -11.3099    0.9530 H   0  0  0  0  0  0  0  0  0  0  0  0
   -4.0195  -12.1413   -0.1469 H   0  0  0  0  0  0  0  0  0  0  0  0
   -5.7551  -12.6043   -0.1469 H   0  0  0  0  0  0  0  0  0  0  0  0
   -3.1875  -13.7865    3.4742 H   0  0  0  0  0  0  0  0  0  0  0  0
   -1.0773  -15.1071    3.4695 H   0  0  0  0  0  0  0  0  0  0  0  0
    0.1415  -16.9965    2.1086 H   0  0  0  0  0  0  0  0  0  0  0  0
    0.2685  -16.7158    0.3189 H   0  0  0  0  0  0  0  0  0  0  0  0
    3.8133  -14.2433    3.1868 H   0  0  0  0  0  0  0  0  0  0  0  0
    4.3578  -13.1513   -2.6824 H   0  0  0  0  0  0  0  0  0  0  0  0
    5.8980  -11.3710   -4.8110 H   0  0  0  0  0  0  0  0  0  0  0  0
    7.0920  -12.8090   -5.7080 H   0  0  0  0  0  0  0  0  0  0  0  0
    7.6934  -17.1089   -8.3456 H   0  0  0  0  0  0  0  0  0  0  0  0
    7.1064  -12.3079  -10.9734 H   0  0  0  0  0  0  0  0  0  0  0  0
    7.9514  -13.7242  -11.6853 H   0  0  0  0  0  0  0  0  0  0  0  0
    6.1564  -13.6559  -11.6853 H   0  0  0  0  0  0  0  0  0  0  0  0
    3.4311   -9.7474   -5.1563 H   0  0  0  0  0  0  0  0  0  0  0  0
    1.6083   -9.1142   -3.5882 H   0  0  0  0  0  0  0  0  0  0  0  0
    1.1274  -10.4654   -0.2826 H   0  0  0  0  0  0  0  0  0  0  0  0
    0.5777   -9.2888   -1.5235 H   0  0  0  0  0  0  0  0  0  0  0  0
   -0.0721  -10.9634   -1.5235 H   0  0  0  0  0  0  0  0  0  0  0  0
   -1.4327  -15.6275   -0.8070 H   0  0  0  0  0  0  0  0  0  0  0  0
   -3.5543  -14.3225   -0.7935 H   0  0  0  0  0  0  0  0  0  0  0  0
  1  2  1  0
  2  3  1  0
  3  4  2  0
  4  5  1  0
  5  6  2  0
  6  7  1  0
  7  8  1  0
  8  9  1  0
  9 10  2  0
 10 11  1  0
 11 12  1  0
 12 13  1  0
 13 14  1  0
 14 15  2  0
 15 16  1  0
 16 17  1  0
 17 18  1  0
 18 19  2  0
 18 20  1  0
 20 21  1  0
 21 22  2  0
 22 23  1  0
 22 24  1  0
 24 25  2  0
 25 26  1  0
 25 27  1  0
 27 28  1  0
 27 29  2  0
 29 30  1  0
 16 31  2  0
 31 32  1  0
 32 33  2  0
 33 34  1  0
 13 35  2  0
 35 36  1  0
  6 37  1  0
 37 38  2  0
 38  3  1  0
 36  8  1  0
 36 11  2  0
 33 14  1  0
 29 21  1  0
  1 39  1  0
  1 40  1  0
  1 41  1  0
  4 42  1  0
  5 43  1  0
  7 44  1  0
  7 45  1  0
 10 46  1  0
 15 47  1  0
 17 48  1  0
 20 49  1  0
 24 50  1  0
 28 51  1  0
 28 52  1  0
 28 53  1  0
 31 54  1  0
 32 55  1  0
 34 56  1  0
 34 57  1  0
 34 58  1  0
 37 59  1  0
 38 60  1  0
M  CHG  1  12  -1
M  END
>  <meeko>  (3) 
{"is_sidechain": [false], "free_energy": -9.171, "intermolecular_energy": -11.951, "internal_energy": -1.316}

$$$$
LIB_DDHCKQIECJLNRO__M_PUB_ALL__e8__s20260927
     RDKit          3D

 60 64  0  0  0  0  0  0  0  0999 V2000
    4.4940  -12.4090   -1.9220 C   0  0  0  0  0  0  0  0  0  0  0  0
    3.3410  -11.7950   -2.4840 O   0  0  0  0  0  0  0  0  0  0  0  0
    2.3300  -11.4870   -1.6150 C   0  0  0  0  0  0  0  0  0  0  0  0
    1.5250  -10.4150   -2.0070 C   0  0  0  0  0  0  0  0  0  0  0  0
    0.4530   -9.9980   -1.2120 C   0  0  0  0  0  0  0  0  0  0  0  0
    0.1770  -10.6460   -0.0020 C   0  0  0  0  0  0  0  0  0  0  0  0
   -0.9750  -10.2050    0.8700 C   0  0  0  0  0  0  0  0  0  0  0  0
   -2.2000  -10.9040    0.5470 N   0  0  0  0  0  0  0  0  0  0  0  0
   -3.1840  -10.3220   -0.2330 N   0  0  0  0  0  0  0  0  0  0  0  0
   -4.1510  -11.2770   -0.2410 C   0  0  0  0  0  0  0  0  0  0  0  0
   -3.7830  -12.3750    0.5200 C   0  0  0  0  0  0  0  0  0  0  0  0
   -4.2230  -13.6650    0.9790 N   0  0  0  0  0  0  0  0  0  0  0  0
   -3.1550  -14.1180    1.7690 C   0  0  0  0  0  0  0  0  0  0  0  0
   -3.1840  -15.5440    2.5000 C   0  0  0  0  0  0  0  0  0  0  0  0
   -3.8000  -15.5830    3.7620 C   0  0  0  0  0  0  0  0  0  0  0  0
   -3.8950  -16.7690    4.4950 C   0  0  0  0  0  0  0  0  0  0  0  0
   -4.5450  -16.6910    5.7430 N   0  0  0  0  0  0  0  0  0  0  0  0
   -5.8780  -16.9170    6.0330 C   0  0  0  0  0  0  0  0  0  0  0  0
   -6.7330  -17.2850    5.2390 O   0  0  0  0  0  0  0  0  0  0  0  0
   -6.1300  -16.6140    7.3620 N   0  0  0  0  0  0  0  0  0  0  0  0
   -7.2990  -16.9040    8.0990 C   0  0  0  0  0  0  0  0  0  0  0  0
   -7.4290  -17.9130    9.0550 C   0  0  0  0  0  0  0  0  0  0  0  0
   -6.3900  -18.6650    9.4390 F   0  0  0  0  0  0  0  0  0  0  0  0
   -8.6380  -18.1250    9.7150 C   0  0  0  0  0  0  0  0  0  0  0  0
   -9.7260  -17.3080    9.4360 C   0  0  0  0  0  0  0  0  0  0  0  0
  -10.8830  -17.5320   10.0760 F   0  0  0  0  0  0  0  0  0  0  0  0
   -9.6290  -16.2600    8.5250 C   0  0  0  0  0  0  0  0  0  0  0  0
  -10.8080  -15.3930    8.2140 C   0  0  0  0  0  0  0  0  0  0  0  0
   -8.4100  -16.0790    7.8650 C   0  0  0  0  0  0  0  0  0  0  0  0
   -8.3000  -15.0860    6.9640 F   0  0  0  0  0  0  0  0  0  0  0  0
   -3.3640  -17.9340    3.9540 C   0  0  0  0  0  0  0  0  0  0  0  0
   -2.7440  -17.9090    2.6980 C   0  0  0  0  0  0  0  0  0  0  0  0
   -2.6440  -16.7200    1.9530 C   0  0  0  0  0  0  0  0  0  0  0  0
   -1.9690  -16.7620    0.6130 C   0  0  0  0  0  0  0  0  0  0  0  0
   -2.1000  -13.2070    1.8330 N   0  0  0  0  0  0  0  0  0  0  0  0
   -2.5680  -12.1160    1.0070 C   0  0  0  0  0  0  0  0  0  0  0  0
    0.9870  -11.7220    0.3870 C   0  0  0  0  0  0  0  0  0  0  0  0
    2.0560  -12.1400   -0.4130 C   0  0  0  0  0  0  0  0  0  0  0  0
    4.4295  -12.3747   -0.8244 H   0  0  0  0  0  0  0  0  0  0  0  0
    4.5500  -13.4564   -2.2534 H   0  0  0  0  0  0  0  0  0  0  0  0
    5.3943  -11.8709   -2.2534 H   0  0  0  0  0  0  0  0  0  0  0  0
    1.7367   -9.8929   -2.9518 H   0  0  0  0  0  0  0  0  0  0  0  0
   -0.1763   -9.1570   -1.5387 H   0  0  0  0  0  0  0  0  0  0  0  0
   -0.7201  -10.4031    1.9216 H   0  0  0  0  0  0  0  0  0  0  0  0
   -1.1409   -9.1317    0.6953 H   0  0  0  0  0  0  0  0  0  0  0  0
   -5.1044  -11.1895   -0.7826 H   0  0  0  0  0  0  0  0  0  0  0  0
   -4.2179  -14.6570    4.1837 H   0  0  0  0  0  0  0  0  0  0  0  0
   -3.9340  -16.4940    6.5220 H   0  0  0  0  0  0  0  0  0  0  0  0
   -5.4840  -15.9660    7.7940 H   0  0  0  0  0  0  0  0  0  0  0  0
   -8.7301  -18.9353   10.4532 H   0  0  0  0  0  0  0  0  0  0  0  0
  -11.2706  -15.0528    9.1522 H   0  0  0  0  0  0  0  0  0  0  0  0
  -10.4780  -14.5208    7.6306 H   0  0  0  0  0  0  0  0  0  0  0  0
  -11.5422  -15.9679    7.6306 H   0  0  0  0  0  0  0  0  0  0  0  0
   -3.4308  -18.8785    4.5138 H   0  0  0  0  0  0  0  0  0  0  0  0
   -2.3263  -18.8393    2.2854 H   0  0  0  0  0  0  0  0  0  0  0  0
   -0.8800  -16.8298    0.7529 H   0  0  0  0  0  0  0  0  0  0  0  0
   -2.3219  -17.6399    0.0520 H   0  0  0  0  0  0  0  0  0  0  0  0
   -2.2104  -15.8471    0.0520 H   0  0  0  0  0  0  0  0  0  0  0  0
    0.7796  -12.2440    1.3328 H   0  0  0  0  0  0  0  0  0  0  0  0
    2.6822  -12.9860   -0.0933 H   0  0  0  0  0  0  0  0  0  0  0  0
  1  2  1  0
  2  3  1  0
  3  4  2  0
  4  5  1  0
  5  6  2  0
  6  7  1  0
  7  8  1  0
  8  9  1  0
  9 10  2  0
 10 11  1  0
 11 12  1  0
 12 13  1  0
 13 14  1  0
 14 15  2  0
 15 16  1  0
 16 17  1  0
 17 18  1  0
 18 19  2  0
 18 20  1  0
 20 21  1  0
 21 22  2  0
 22 23  1  0
 22 24  1  0
 24 25  2  0
 25 26  1  0
 25 27  1  0
 27 28  1  0
 27 29  2  0
 29 30  1  0
 16 31  2  0
 31 32  1  0
 32 33  2  0
 33 34  1  0
 13 35  2  0
 35 36  1  0
  6 37  1  0
 37 38  2  0
 38  3  1  0
 36  8  1  0
 36 11  2  0
 33 14  1  0
 29 21  1  0
  1 39  1  0
  1 40  1  0
  1 41  1  0
  4 42  1  0
  5 43  1  0
  7 44  1  0
  7 45  1  0
 10 46  1  0
 15 47  1  0
 17 48  1  0
 20 49  1  0
 24 50  1  0
 28 51  1  0
 28 52  1  0
 28 53  1  0
 31 54  1  0
 32 55  1  0
 34 56  1  0
 34 57  1  0
 34 58  1  0
 37 59  1  0
 38 60  1  0
M  CHG  1  12  -1
M  END
>  <meeko>  (4) 
{"is_sidechain": [false], "free_energy": -9.077, "intermolecular_energy": -12.026, "internal_energy": -1.112}

$$$$
LIB_DDHCKQIECJLNRO__M_PUB_ALL__e8__s20260927
     RDKit          3D

 60 64  0  0  0  0  0  0  0  0999 V2000
   -1.8170   -9.5430    1.4890 C   0  0  0  0  0  0  0  0  0  0  0  0
   -2.6420  -10.3990    2.2680 O   0  0  0  0  0  0  0  0  0  0  0  0
   -2.6370  -11.7240    1.9280 C   0  0  0  0  0  0  0  0  0  0  0  0
   -3.0620  -11.9970    0.6250 C   0  0  0  0  0  0  0  0  0  0  0  0
   -3.1010  -13.3110    0.1460 C   0  0  0  0  0  0  0  0  0  0  0  0
   -2.7240  -14.3750    0.9730 C   0  0  0  0  0  0  0  0  0  0  0  0
   -2.7640  -15.8000    0.4720 C   0  0  0  0  0  0  0  0  0  0  0  0
   -1.4390  -16.3500    0.2900 N   0  0  0  0  0  0  0  0  0  0  0  0
   -1.0040  -17.4490    1.0130 N   0  0  0  0  0  0  0  0  0  0  0  0
    0.2760  -17.5920    0.5800 C   0  0  0  0  0  0  0  0  0  0  0  0
    0.6110  -16.6120   -0.3410 C   0  0  0  0  0  0  0  0  0  0  0  0
    1.6790  -16.1180   -1.1680 N   0  0  0  0  0  0  0  0  0  0  0  0
    1.1130  -15.0050   -1.8090 C   0  0  0  0  0  0  0  0  0  0  0  0
    1.9400  -14.1180   -2.8580 C   0  0  0  0  0  0  0  0  0  0  0  0
    3.1140  -13.5180   -2.3740 C   0  0  0  0  0  0  0  0  0  0  0  0
    3.9250  -12.7280   -3.1940 C   0  0  0  0  0  0  0  0  0  0  0  0
    5.0850  -12.1870   -2.6030 N   0  0  0  0  0  0  0  0  0  0  0  0
    6.2430  -12.8430   -2.2260 C   0  0  0  0  0  0  0  0  0  0  0  0
    6.4820  -14.0310   -2.3950 O   0  0  0  0  0  0  0  0  0  0  0  0
    7.0910  -11.9640   -1.5720 N   0  0  0  0  0  0  0  0  0  0  0  0
    8.4410  -12.1810   -1.2200 C   0  0  0  0  0  0  0  0  0  0  0  0
    8.9250  -12.3540    0.0790 C   0  0  0  0  0  0  0  0  0  0  0  0
    8.1080  -12.4230    1.1370 F   0  0  0  0  0  0  0  0  0  0  0  0
   10.2850  -12.5470    0.3190 C   0  0  0  0  0  0  0  0  0  0  0  0
   11.1710  -12.5910   -0.7490 C   0  0  0  0  0  0  0  0  0  0  0  0
   12.4760  -12.7700   -0.4980 F   0  0  0  0  0  0  0  0  0  0  0  0
   10.7280  -12.4710   -2.0640 C   0  0  0  0  0  0  0  0  0  0  0  0
   11.6880  -12.5010   -3.2100 C   0  0  0  0  0  0  0  0  0  0  0  0
    9.3620  -12.2620   -2.2760 C   0  0  0  0  0  0  0  0  0  0  0  0
    8.9140  -12.1200   -3.5360 F   0  0  0  0  0  0  0  0  0  0  0  0
    3.5510  -12.5360   -4.5190 C   0  0  0  0  0  0  0  0  0  0  0  0
    2.3810  -13.1260   -5.0140 C   0  0  0  0  0  0  0  0  0  0  0  0
    1.5600  -13.9230   -4.1960 C   0  0  0  0  0  0  0  0  0  0  0  0
    0.3200  -14.5280   -4.7890 C   0  0  0  0  0  0  0  0  0  0  0  0
   -0.2120  -14.7770   -1.4370 N   0  0  0  0  0  0  0  0  0  0  0  0
   -0.4690  -15.8460   -0.4980 C   0  0  0  0  0  0  0  0  0  0  0  0
   -2.2970  -14.0970    2.2780 C   0  0  0  0  0  0  0  0  0  0  0  0
   -2.2540  -12.7820    2.7530 C   0  0  0  0  0  0  0  0  0  0  0  0
   -1.2097   -8.9129    2.1555 H   0  0  0  0  0  0  0  0  0  0  0  0
   -1.1547  -10.1501    0.8543 H   0  0  0  0  0  0  0  0  0  0  0  0
   -2.4481   -8.9035    0.8543 H   0  0  0  0  0  0  0  0  0  0  0  0
   -3.3693  -11.1695   -0.0314 H   0  0  0  0  0  0  0  0  0  0  0  0
   -3.4294  -13.5085   -0.8851 H   0  0  0  0  0  0  0  0  0  0  0  0
   -3.3072  -16.4177    1.2024 H   0  0  0  0  0  0  0  0  0  0  0  0
   -3.2685  -15.8014   -0.5055 H   0  0  0  0  0  0  0  0  0  0  0  0
    0.9596  -18.3849    0.9176 H   0  0  0  0  0  0  0  0  0  0  0  0
    3.4024  -13.6735   -1.3239 H   0  0  0  0  0  0  0  0  0  0  0  0
    5.0730  -11.1830   -2.4980 H   0  0  0  0  0  0  0  0  0  0  0  0
    6.6480  -11.1580   -1.1500 H   0  0  0  0  0  0  0  0  0  0  0  0
   10.6538  -12.6637    1.3487 H   0  0  0  0  0  0  0  0  0  0  0  0
   12.7179  -12.5332   -2.8249 H   0  0  0  0  0  0  0  0  0  0  0  0
   11.4981  -13.3937   -3.8241 H   0  0  0  0  0  0  0  0  0  0  0  0
   11.5542  -11.5982   -3.8241 H   0  0  0  0  0  0  0  0  0  0  0  0
    4.1760  -11.9186   -5.1810 H   0  0  0  0  0  0  0  0  0  0  0  0
    2.0983  -12.9626   -6.0644 H   0  0  0  0  0  0  0  0  0  0  0  0
   -0.3508  -14.8553   -3.9810 H   0  0  0  0  0  0  0  0  0  0  0  0
   -0.1926  -13.7787   -5.4102 H   0  0  0  0  0  0  0  0  0  0  0  0
    0.5951  -15.3931   -5.4102 H   0  0  0  0  0  0  0  0  0  0  0  0
   -1.9918  -14.9230    2.9373 H   0  0  0  0  0  0  0  0  0  0  0  0
   -1.9170  -12.5813    3.7807 H   0  0  0  0  0  0  0  0  0  0  0  0
  1  2  1  0
  2  3  1  0
  3  4  2  0
  4  5  1  0
  5  6  2  0
  6  7  1  0
  7  8  1  0
  8  9  1  0
  9 10  2  0
 10 11  1  0
 11 12  1  0
 12 13  1  0
 13 14  1  0
 14 15  2  0
 15 16  1  0
 16 17  1  0
 17 18  1  0
 18 19  2  0
 18 20  1  0
 20 21  1  0
 21 22  2  0
 22 23  1  0
 22 24  1  0
 24 25  2  0
 25 26  1  0
 25 27  1  0
 27 28  1  0
 27 29  2  0
 29 30  1  0
 16 31  2  0
 31 32  1  0
 32 33  2  0
 33 34  1  0
 13 35  2  0
 35 36  1  0
  6 37  1  0
 37 38  2  0
 38  3  1  0
 36  8  1  0
 36 11  2  0
 33 14  1  0
 29 21  1  0
  1 39  1  0
  1 40  1  0
  1 41  1  0
  4 42  1  0
  5 43  1  0
  7 44  1  0
  7 45  1  0
 10 46  1  0
 15 47  1  0
 17 48  1  0
 20 49  1  0
 24 50  1  0
 28 51  1  0
 28 52  1  0
 28 53  1  0
 31 54  1  0
 32 55  1  0
 34 56  1  0
 34 57  1  0
 34 58  1  0
 37 59  1  0
 38 60  1  0
M  CHG  1  12  -1
M  END
>  <meeko>  (5) 
{"is_sidechain": [false], "free_energy": -8.924, "intermolecular_energy": -11.886, "internal_energy": -1.046}

$$$$
LIB_DDHCKQIECJLNRO__M_PUB_ALL__e8__s20260927
     RDKit          3D

 60 64  0  0  0  0  0  0  0  0999 V2000
   -0.5050  -13.8470    2.6790 C   0  0  0  0  0  0  0  0  0  0  0  0
   -0.5920  -15.2440    2.9280 O   0  0  0  0  0  0  0  0  0  0  0  0
   -0.9160  -15.6150    4.2050 C   0  0  0  0  0  0  0  0  0  0  0  0
   -1.9070  -16.5960    4.2970 C   0  0  0  0  0  0  0  0  0  0  0  0
   -2.3290  -17.0700    5.5440 C   0  0  0  0  0  0  0  0  0  0  0  0
   -1.7700  -16.5580    6.7200 C   0  0  0  0  0  0  0  0  0  0  0  0
   -2.2180  -17.0570    8.0740 C   0  0  0  0  0  0  0  0  0  0  0  0
   -3.2750  -16.2420    8.6310 N   0  0  0  0  0  0  0  0  0  0  0  0
   -3.0350  -15.3440    9.6570 N   0  0  0  0  0  0  0  0  0  0  0  0
   -4.2750  -14.8450    9.9020 C   0  0  0  0  0  0  0  0  0  0  0  0
   -5.2270  -15.4320    9.0830 C   0  0  0  0  0  0  0  0  0  0  0  0
   -6.6310  -15.4560    8.7730 N   0  0  0  0  0  0  0  0  0  0  0  0
   -6.7290  -16.4160    7.7550 C   0  0  0  0  0  0  0  0  0  0  0  0
   -8.1310  -16.7870    7.0700 C   0  0  0  0  0  0  0  0  0  0  0  0
   -9.0010  -17.5850    7.8310 C   0  0  0  0  0  0  0  0  0  0  0  0
  -10.2550  -17.9690    7.3460 C   0  0  0  0  0  0  0  0  0  0  0  0
  -11.0490  -18.7600    8.2020 N   0  0  0  0  0  0  0  0  0  0  0  0
  -11.3670  -20.1000    8.0820 C   0  0  0  0  0  0  0  0  0  0  0  0
  -10.9570  -20.8610    7.2160 O   0  0  0  0  0  0  0  0  0  0  0  0
  -12.2710  -20.4600    9.0690 N   0  0  0  0  0  0  0  0  0  0  0  0
  -12.6800  -21.7660    9.4190 C   0  0  0  0  0  0  0  0  0  0  0  0
  -13.8820  -22.3700    9.0420 C   0  0  0  0  0  0  0  0  0  0  0  0
  -14.7430  -21.7770    8.2070 F   0  0  0  0  0  0  0  0  0  0  0  0
  -14.1960  -23.6630    9.4570 C   0  0  0  0  0  0  0  0  0  0  0  0
  -13.2930  -24.3720   10.2390 C   0  0  0  0  0  0  0  0  0  0  0  0
  -13.6160  -25.6120   10.6350 F   0  0  0  0  0  0  0  0  0  0  0  0
  -12.0630  -23.8270   10.5990 C   0  0  0  0  0  0  0  0  0  0  0  0
  -11.1020  -24.5870   11.4570 C   0  0  0  0  0  0  0  0  0  0  0  0
  -11.7800  -22.5230   10.1840 C   0  0  0  0  0  0  0  0  0  0  0  0
  -10.6080  -21.9670   10.5390 F   0  0  0  0  0  0  0  0  0  0  0  0
  -10.6410  -17.5470    6.0790 C   0  0  0  0  0  0  0  0  0  0  0  0
   -9.7810  -16.7540    5.3090 C   0  0  0  0  0  0  0  0  0  0  0  0
   -8.5170  -16.3620    5.7880 C   0  0  0  0  0  0  0  0  0  0  0  0
   -7.6450  -15.5100    4.9130 C   0  0  0  0  0  0  0  0  0  0  0  0
   -5.4990  -16.9840    7.4200 N   0  0  0  0  0  0  0  0  0  0  0  0
   -4.5820  -16.3040    8.3070 C   0  0  0  0  0  0  0  0  0  0  0  0
   -0.7750  -15.5760    6.6220 C   0  0  0  0  0  0  0  0  0  0  0  0
   -0.3500  -15.1070    5.3740 C   0  0  0  0  0  0  0  0  0  0  0  0
   -0.4713  -13.3054    3.6358 H   0  0  0  0  0  0  0  0  0  0  0  0
    0.4082  -13.6332    2.1042 H   0  0  0  0  0  0  0  0  0  0  0  0
   -1.3846  -13.5215    2.1042 H   0  0  0  0  0  0  0  0  0  0  0  0
   -2.3600  -16.9997    3.3795 H   0  0  0  0  0  0  0  0  0  0  0  0
   -3.1038  -17.8488    5.6000 H   0  0  0  0  0  0  0  0  0  0  0  0
   -2.5838  -18.0890    7.9686 H   0  0  0  0  0  0  0  0  0  0  0  0
   -1.3563  -17.0071    8.7559 H   0  0  0  0  0  0  0  0  0  0  0  0
   -4.4953  -14.0735   10.6545 H   0  0  0  0  0  0  0  0  0  0  0  0
   -8.6884  -17.9158    8.8324 H   0  0  0  0  0  0  0  0  0  0  0  0
  -11.3760  -18.2840    9.0290 H   0  0  0  0  0  0  0  0  0  0  0  0
  -12.8240  -19.7050    9.4530 H   0  0  0  0  0  0  0  0  0  0  0  0
  -15.1538  -24.1196    9.1668 H   0  0  0  0  0  0  0  0  0  0  0  0
  -11.3330  -24.4043   12.5168 H   0  0  0  0  0  0  0  0  0  0  0  0
  -11.1902  -25.6623   11.2426 H   0  0  0  0  0  0  0  0  0  0  0  0
  -10.0760  -24.2533   11.2426 H   0  0  0  0  0  0  0  0  0  0  0  0
  -11.6244  -17.8367    5.6802 H   0  0  0  0  0  0  0  0  0  0  0  0
  -10.1006  -16.4303    4.3075 H   0  0  0  0  0  0  0  0  0  0  0  0
   -6.9994  -14.8792    5.5417 H   0  0  0  0  0  0  0  0  0  0  0  0
   -7.0205  -16.1555    4.2779 H   0  0  0  0  0  0  0  0  0  0  0  0
   -8.2759  -14.8707    4.2779 H   0  0  0  0  0  0  0  0  0  0  0  0
   -0.3222  -15.1686    7.5380 H   0  0  0  0  0  0  0  0  0  0  0  0
    0.4323  -14.3359    5.3149 H   0  0  0  0  0  0  0  0  0  0  0  0
  1  2  1  0
  2  3  1  0
  3  4  2  0
  4  5  1  0
  5  6  2  0
  6  7  1  0
  7  8  1  0
  8  9  1  0
  9 10  2  0
 10 11  1  0
 11 12  1  0
 12 13  1  0
 13 14  1  0
 14 15  2  0
 15 16  1  0
 16 17  1  0
 17 18  1  0
 18 19  2  0
 18 20  1  0
 20 21  1  0
 21 22  2  0
 22 23  1  0
 22 24  1  0
 24 25  2  0
 25 26  1  0
 25 27  1  0
 27 28  1  0
 27 29  2  0
 29 30  1  0
 16 31  2  0
 31 32  1  0
 32 33  2  0
 33 34  1  0
 13 35  2  0
 35 36  1  0
  6 37  1  0
 37 38  2  0
 38  3  1  0
 36  8  1  0
 36 11  2  0
 33 14  1  0
 29 21  1  0
  1 39  1  0
  1 40  1  0
  1 41  1  0
  4 42  1  0
  5 43  1  0
  7 44  1  0
  7 45  1  0
 10 46  1  0
 15 47  1  0
 17 48  1  0
 20 49  1  0
 24 50  1  0
 28 51  1  0
 28 52  1  0
 28 53  1  0
 31 54  1  0
 32 55  1  0
 34 56  1  0
 34 57  1  0
 34 58  1  0
 37 59  1  0
 38 60  1  0
M  CHG  1  12  -1
M  END
>  <meeko>  (6) 
{"is_sidechain": [false], "free_energy": -8.923, "intermolecular_energy": -11.747, "internal_energy": -1.184}

$$$$
LIB_DDHCKQIECJLNRO__M_PUB_ALL__e8__s20260927
     RDKit          3D

 60 64  0  0  0  0  0  0  0  0999 V2000
   -4.0420  -12.2280   -0.2090 C   0  0  0  0  0  0  0  0  0  0  0  0
   -4.1530  -11.9070    1.1720 O   0  0  0  0  0  0  0  0  0  0  0  0
   -3.1010  -12.2720    1.9680 C   0  0  0  0  0  0  0  0  0  0  0  0
   -2.9600  -13.6500    2.1590 C   0  0  0  0  0  0  0  0  0  0  0  0
   -1.9230  -14.1590    2.9470 C   0  0  0  0  0  0  0  0  0  0  0  0
   -1.0160  -13.2930    3.5670 C   0  0  0  0  0  0  0  0  0  0  0  0
    0.1070  -13.8280    4.4250 C   0  0  0  0  0  0  0  0  0  0  0  0
    0.7680  -14.9590    3.8120 N   0  0  0  0  0  0  0  0  0  0  0  0
    0.7000  -16.2260    4.3660 N   0  0  0  0  0  0  0  0  0  0  0  0
    1.4790  -16.9530    3.5240 C   0  0  0  0  0  0  0  0  0  0  0  0
    2.0170  -16.1610    2.5220 C   0  0  0  0  0  0  0  0  0  0  0  0
    2.8750  -16.1780    1.3680 N   0  0  0  0  0  0  0  0  0  0  0  0
    2.8740  -14.8440    0.9340 C   0  0  0  0  0  0  0  0  0  0  0  0
    3.7000  -14.3680   -0.3550 C   0  0  0  0  0  0  0  0  0  0  0  0
    5.0970  -14.3150   -0.2110 C   0  0  0  0  0  0  0  0  0  0  0  0
    5.9280  -13.9240   -1.2650 C   0  0  0  0  0  0  0  0  0  0  0  0
    7.3140  -13.9190   -1.0100 N   0  0  0  0  0  0  0  0  0  0  0  0
    8.1880  -12.8470   -1.0350 C   0  0  0  0  0  0  0  0  0  0  0  0
    7.8850  -11.6790   -1.2370 O   0  0  0  0  0  0  0  0  0  0  0  0
    9.4860  -13.2930   -0.8460 N   0  0  0  0  0  0  0  0  0  0  0  0
   10.6330  -12.5070   -0.5980 C   0  0  0  0  0  0  0  0  0  0  0  0
   10.9110  -11.8270    0.5900 C   0  0  0  0  0  0  0  0  0  0  0  0
   10.1310  -11.9390    1.6720 F   0  0  0  0  0  0  0  0  0  0  0  0
   12.0690  -11.0630    0.7250 C   0  0  0  0  0  0  0  0  0  0  0  0
   12.9730  -10.9930   -0.3280 C   0  0  0  0  0  0  0  0  0  0  0  0
   14.0770  -10.2470   -0.1820 F   0  0  0  0  0  0  0  0  0  0  0  0
   12.7590  -11.6920   -1.5130 C   0  0  0  0  0  0  0  0  0  0  0  0
   13.7260  -11.6000   -2.6500 C   0  0  0  0  0  0  0  0  0  0  0  0
   11.5830  -12.4380   -1.6280 C   0  0  0  0  0  0  0  0  0  0  0  0
   11.3440  -13.1040   -2.7730 F   0  0  0  0  0  0  0  0  0  0  0  0
    5.3480  -13.5800   -2.4810 C   0  0  0  0  0  0  0  0  0  0  0  0
    3.9560  -13.6260   -2.6370 C   0  0  0  0  0  0  0  0  0  0  0  0
    3.1130  -14.0190   -1.5810 C   0  0  0  0  0  0  0  0  0  0  0  0
    1.6310  -14.0480   -1.8150 C   0  0  0  0  0  0  0  0  0  0  0  0
    2.0880  -14.0110    1.7330 N   0  0  0  0  0  0  0  0  0  0  0  0
    1.5660  -14.9230    2.7270 C   0  0  0  0  0  0  0  0  0  0  0  0
   -1.1600  -11.9120    3.3710 C   0  0  0  0  0  0  0  0  0  0  0  0
   -2.1950  -11.4050    2.5780 C   0  0  0  0  0  0  0  0  0  0  0  0
   -3.6843  -13.2625   -0.3174 H   0  0  0  0  0  0  0  0  0  0  0  0
   -5.0268  -12.1284   -0.6889 H   0  0  0  0  0  0  0  0  0  0  0  0
   -3.3291  -11.5414   -0.6889 H   0  0  0  0  0  0  0  0  0  0  0  0
   -3.6723  -14.3409    1.6844 H   0  0  0  0  0  0  0  0  0  0  0  0
   -1.8199  -15.2460    3.0801 H   0  0  0  0  0  0  0  0  0  0  0  0
    0.8454  -13.0280    4.5822 H   0  0  0  0  0  0  0  0  0  0  0  0
   -0.3258  -14.1644    5.3787 H   0  0  0  0  0  0  0  0  0  0  0  0
    1.6600  -18.0333    3.6245 H   0  0  0  0  0  0  0  0  0  0  0  0
    5.5476  -14.5879    0.7547 H   0  0  0  0  0  0  0  0  0  0  0  0
    7.6900  -14.8100   -0.7240 H   0  0  0  0  0  0  0  0  0  0  0  0
    9.6570  -14.2610   -1.0860 H   0  0  0  0  0  0  0  0  0  0  0  0
   12.2662  -10.5184    1.6601 H   0  0  0  0  0  0  0  0  0  0  0  0
   14.7481  -11.5028   -2.2551 H   0  0  0  0  0  0  0  0  0  0  0  0
   13.6557  -12.5089   -3.2656 H   0  0  0  0  0  0  0  0  0  0  0  0
   13.4856  -10.7207   -3.2656 H   0  0  0  0  0  0  0  0  0  0  0  0
    5.9840  -13.2707   -3.3235 H   0  0  0  0  0  0  0  0  0  0  0  0
    3.5132  -13.3491   -3.6051 H   0  0  0  0  0  0  0  0  0  0  0  0
    1.1072  -14.0583   -0.8478 H   0  0  0  0  0  0  0  0  0  0  0  0
    1.3322  -13.1555   -2.3844 H   0  0  0  0  0  0  0  0  0  0  0  0
    1.3673  -14.9515   -2.3844 H   0  0  0  0  0  0  0  0  0  0  0  0
   -0.4505  -11.2189    3.8466 H   0  0  0  0  0  0  0  0  0  0  0  0
   -2.2945  -10.3189    2.4352 H   0  0  0  0  0  0  0  0  0  0  0  0
  1  2  1  0
  2  3  1  0
  3  4  2  0
  4  5  1  0
  5  6  2  0
  6  7  1  0
  7  8  1  0
  8  9  1  0
  9 10  2  0
 10 11  1  0
 11 12  1  0
 12 13  1  0
 13 14  1  0
 14 15  2  0
 15 16  1  0
 16 17  1  0
 17 18  1  0
 18 19  2  0
 18 20  1  0
 20 21  1  0
 21 22  2  0
 22 23  1  0
 22 24  1  0
 24 25  2  0
 25 26  1  0
 25 27  1  0
 27 28  1  0
 27 29  2  0
 29 30  1  0
 16 31  2  0
 31 32  1  0
 32 33  2  0
 33 34  1  0
 13 35  2  0
 35 36  1  0
  6 37  1  0
 37 38  2  0
 38  3  1  0
 36  8  1  0
 36 11  2  0
 33 14  1  0
 29 21  1  0
  1 39  1  0
  1 40  1  0
  1 41  1  0
  4 42  1  0
  5 43  1  0
  7 44  1  0
  7 45  1  0
 10 46  1  0
 15 47  1  0
 17 48  1  0
 20 49  1  0
 24 50  1  0
 28 51  1  0
 28 52  1  0
 28 53  1  0
 31 54  1  0
 32 55  1  0
 34 56  1  0
 34 57  1  0
 34 58  1  0
 37 59  1  0
 38 60  1  0
M  CHG  1  12  -1
M  END
>  <meeko>  (7) 
{"is_sidechain": [false], "free_energy": -8.906, "intermolecular_energy": -11.728, "internal_energy": -1.18}

$$$$
LIB_DDHCKQIECJLNRO__M_PUB_ALL__e8__s20260927
     RDKit          3D

 60 64  0  0  0  0  0  0  0  0999 V2000
   -4.1930  -10.6840   -0.7550 C   0  0  0  0  0  0  0  0  0  0  0  0
   -3.0710  -10.3160    0.0370 O   0  0  0  0  0  0  0  0  0  0  0  0
   -2.3580  -11.3420    0.5960 C   0  0  0  0  0  0  0  0  0  0  0  0
   -1.0640  -11.0040    1.0020 C   0  0  0  0  0  0  0  0  0  0  0  0
   -0.2290  -11.9580    1.5930 C   0  0  0  0  0  0  0  0  0  0  0  0
   -0.6770  -13.2710    1.7770 C   0  0  0  0  0  0  0  0  0  0  0  0
    0.2150  -14.3140    2.4100 C   0  0  0  0  0  0  0  0  0  0  0  0
    0.5800  -15.3570    1.4770 N   0  0  0  0  0  0  0  0  0  0  0  0
    0.1160  -16.6530    1.6180 N   0  0  0  0  0  0  0  0  0  0  0  0
    0.7280  -17.2940    0.5890 C   0  0  0  0  0  0  0  0  0  0  0  0
    1.5460  -16.4350   -0.1280 C   0  0  0  0  0  0  0  0  0  0  0  0
    2.4560  -16.3610   -1.2380 N   0  0  0  0  0  0  0  0  0  0  0  0
    2.8640  -15.0180   -1.2440 C   0  0  0  0  0  0  0  0  0  0  0  0
    3.8930  -14.4470   -2.3320 C   0  0  0  0  0  0  0  0  0  0  0  0
    5.2460  -14.4190   -1.9530 C   0  0  0  0  0  0  0  0  0  0  0  0
    6.2390  -13.9510   -2.8170 C   0  0  0  0  0  0  0  0  0  0  0  0
    7.5630  -13.9800   -2.3340 N   0  0  0  0  0  0  0  0  0  0  0  0
    8.4450  -12.9250   -2.1800 C   0  0  0  0  0  0  0  0  0  0  0  0
    8.1980  -11.7460   -2.3940 O   0  0  0  0  0  0  0  0  0  0  0  0
    9.6860  -13.4020   -1.7900 N   0  0  0  0  0  0  0  0  0  0  0  0
   10.7860  -12.6450   -1.3300 C   0  0  0  0  0  0  0  0  0  0  0  0
   10.9160  -12.0920   -0.0540 C   0  0  0  0  0  0  0  0  0  0  0  0
   10.0170  -12.3150    0.9120 F   0  0  0  0  0  0  0  0  0  0  0  0
   12.0420  -11.3450    0.2930 C   0  0  0  0  0  0  0  0  0  0  0  0
   13.0600  -11.1660   -0.6340 C   0  0  0  0  0  0  0  0  0  0  0  0
   14.1310  -10.4390   -0.2840 F   0  0  0  0  0  0  0  0  0  0  0  0
   12.9940  -11.7390   -1.9020 C   0  0  0  0  0  0  0  0  0  0  0  0
   14.0860  -11.5290   -2.9030 C   0  0  0  0  0  0  0  0  0  0  0  0
   11.8490  -12.4690   -2.2300 C   0  0  0  0  0  0  0  0  0  0  0  0
   11.7530  -13.0130   -3.4560 F   0  0  0  0  0  0  0  0  0  0  0  0
    5.8700  -13.5030   -4.0810 C   0  0  0  0  0  0  0  0  0  0  0  0
    4.5250  -13.5230   -4.4710 C   0  0  0  0  0  0  0  0  0  0  0  0
    3.5180  -13.9930   -3.6080 C   0  0  0  0  0  0  0  0  0  0  0  0
    2.0960  -13.9890   -4.0880 C   0  0  0  0  0  0  0  0  0  0  0  0
    2.2790  -14.2670   -0.2230 N   0  0  0  0  0  0  0  0  0  0  0  0
    1.4440  -15.2370    0.4490 C   0  0  0  0  0  0  0  0  0  0  0  0
   -1.9760  -13.6050    1.3690 C   0  0  0  0  0  0  0  0  0  0  0  0
   -2.8110  -12.6480    0.7830 C   0  0  0  0  0  0  0  0  0  0  0  0
   -5.0313  -10.9589   -0.0979 H   0  0  0  0  0  0  0  0  0  0  0  0
   -4.4878   -9.8355   -1.3899 H   0  0  0  0  0  0  0  0  0  0  0  0
   -3.9280  -11.5423   -1.3899 H   0  0  0  0  0  0  0  0  0  0  0  0
   -0.6984   -9.9770    0.8552 H   0  0  0  0  0  0  0  0  0  0  0  0
    0.7842  -11.6750    1.9145 H   0  0  0  0  0  0  0  0  0  0  0  0
    1.1316  -13.8247    2.7713 H   0  0  0  0  0  0  0  0  0  0  0  0
   -0.3419  -14.7791    3.2368 H   0  0  0  0  0  0  0  0  0  0  0  0
    0.5918  -18.3600    0.3543 H   0  0  0  0  0  0  0  0  0  0  0  0
    5.5301  -14.7743   -0.9515 H   0  0  0  0  0  0  0  0  0  0  0  0
    7.8730  -14.8860   -2.0160 H   0  0  0  0  0  0  0  0  0  0  0  0
    9.8800  -14.3660   -2.0270 H   0  0  0  0  0  0  0  0  0  0  0  0
   12.1229  -10.9002    1.2958 H   0  0  0  0  0  0  0  0  0  0  0  0
   15.0350  -11.3465   -2.3775 H   0  0  0  0  0  0  0  0  0  0  0  0
   14.1825  -12.4250   -3.5337 H   0  0  0  0  0  0  0  0  0  0  0  0
   13.8433  -10.6611   -3.5337 H   0  0  0  0  0  0  0  0  0  0  0  0
    6.6370  -13.1318   -4.7766 H   0  0  0  0  0  0  0  0  0  0  0  0
    4.2500  -13.1635   -5.4736 H   0  0  0  0  0  0  0  0  0  0  0  0
    1.4169  -13.9871   -3.2226 H   0  0  0  0  0  0  0  0  0  0  0  0
    1.9170  -13.0903   -4.6966 H   0  0  0  0  0  0  0  0  0  0  0  0
    1.9119  -14.8866   -4.6966 H   0  0  0  0  0  0  0  0  0  0  0  0
   -2.3430  -14.6321    1.5114 H   0  0  0  0  0  0  0  0  0  0  0  0
   -3.8278  -12.9261    0.4687 H   0  0  0  0  0  0  0  0  0  0  0  0
  1  2  1  0
  2  3  1  0
  3  4  2  0
  4  5  1  0
  5  6  2  0
  6  7  1  0
  7  8  1  0
  8  9  1  0
  9 10  2  0
 10 11  1  0
 11 12  1  0
 12 13  1  0
 13 14  1  0
 14 15  2  0
 15 16  1  0
 16 17  1  0
 17 18  1  0
 18 19  2  0
 18 20  1  0
 20 21  1  0
 21 22  2  0
 22 23  1  0
 22 24  1  0
 24 25  2  0
 25 26  1  0
 25 27  1  0
 27 28  1  0
 27 29  2  0
 29 30  1  0
 16 31  2  0
 31 32  1  0
 32 33  2  0
 33 34  1  0
 13 35  2  0
 35 36  1  0
  6 37  1  0
 37 38  2  0
 38  3  1  0
 36  8  1  0
 36 11  2  0
 33 14  1  0
 29 21  1  0
  1 39  1  0
  1 40  1  0
  1 41  1  0
  4 42  1  0
  5 43  1  0
  7 44  1  0
  7 45  1  0
 10 46  1  0
 15 47  1  0
 17 48  1  0
 20 49  1  0
 24 50  1  0
 28 51  1  0
 28 52  1  0
 28 53  1  0
 31 54  1  0
 32 55  1  0
 34 56  1  0
 34 57  1  0
 34 58  1  0
 37 59  1  0
 38 60  1  0
M  CHG  1  12  -1
M  END
>  <meeko>  (8) 
{"is_sidechain": [false], "free_energy": -8.881, "intermolecular_energy": -11.646, "internal_energy": -1.228}

$$$$
LIB_DDHCKQIECJLNRO__M_PUB_ALL__e8__s20260927
     RDKit          3D

 60 64  0  0  0  0  0  0  0  0999 V2000
   -5.2170  -12.8920    1.0020 C   0  0  0  0  0  0  0  0  0  0  0  0
   -4.1440  -13.2970    1.8410 O   0  0  0  0  0  0  0  0  0  0  0  0
   -2.9570  -12.6350    1.6750 C   0  0  0  0  0  0  0  0  0  0  0  0
   -3.0280  -11.4980    0.8670 C   0  0  0  0  0  0  0  0  0  0  0  0
   -1.8890  -10.7260    0.6180 C   0  0  0  0  0  0  0  0  0  0  0  0
   -0.6550  -11.0900    1.1700 C   0  0  0  0  0  0  0  0  0  0  0  0
    0.5860  -10.2680    0.9070 C   0  0  0  0  0  0  0  0  0  0  0  0
    1.2250  -10.6310   -0.3380 N   0  0  0  0  0  0  0  0  0  0  0  0
    0.9460   -9.9630   -1.5190 N   0  0  0  0  0  0  0  0  0  0  0  0
    1.7020  -10.6410   -2.4210 C   0  0  0  0  0  0  0  0  0  0  0  0
    2.3860  -11.6880   -1.8230 C   0  0  0  0  0  0  0  0  0  0  0  0
    3.2900  -12.7760   -2.0810 N   0  0  0  0  0  0  0  0  0  0  0  0
    3.4580  -13.3720   -0.8210 C   0  0  0  0  0  0  0  0  0  0  0  0
    4.4070  -14.6460   -0.6040 C   0  0  0  0  0  0  0  0  0  0  0  0
    5.7840  -14.3840   -0.5080 C   0  0  0  0  0  0  0  0  0  0  0  0
    6.7120  -15.4100   -0.3100 C   0  0  0  0  0  0  0  0  0  0  0  0
    8.0660  -15.0290   -0.2180 N   0  0  0  0  0  0  0  0  0  0  0  0
    8.8490  -14.4020   -1.1700 C   0  0  0  0  0  0  0  0  0  0  0  0
    8.4710  -14.0140   -2.2670 O   0  0  0  0  0  0  0  0  0  0  0  0
   10.1580  -14.3170   -0.7230 N   0  0  0  0  0  0  0  0  0  0  0  0
   11.2110  -13.5720   -1.2970 C   0  0  0  0  0  0  0  0  0  0  0  0
   11.8100  -13.8280   -2.5330 C   0  0  0  0  0  0  0  0  0  0  0  0
   11.3600  -14.7850   -3.3540 F   0  0  0  0  0  0  0  0  0  0  0  0
   12.8570  -13.0370   -3.0010 C   0  0  0  0  0  0  0  0  0  0  0  0
   13.3000  -11.9620   -2.2400 C   0  0  0  0  0  0  0  0  0  0  0  0
   14.3140  -11.2170   -2.7030 F   0  0  0  0  0  0  0  0  0  0  0  0
   12.7010  -11.6410   -1.0240 C   0  0  0  0  0  0  0  0  0  0  0  0
   13.1920  -10.4930   -0.2000 C   0  0  0  0  0  0  0  0  0  0  0  0
   11.6630  -12.4600   -0.5700 C   0  0  0  0  0  0  0  0  0  0  0  0
   11.0850  -12.1820    0.6120 F   0  0  0  0  0  0  0  0  0  0  0  0
    6.2520  -16.7190   -0.2080 C   0  0  0  0  0  0  0  0  0  0  0  0
    4.8820  -16.9930   -0.3050 C   0  0  0  0  0  0  0  0  0  0  0  0
    3.9400  -15.9670   -0.5030 C   0  0  0  0  0  0  0  0  0  0  0  0
    2.4870  -16.3290   -0.5970 C   0  0  0  0  0  0  0  0  0  0  0  0
    2.7250  -12.7380    0.1840 N   0  0  0  0  0  0  0  0  0  0  0  0
    2.0670  -11.6660   -0.5290 C   0  0  0  0  0  0  0  0  0  0  0  0
   -0.5890  -12.2310    1.9810 C   0  0  0  0  0  0  0  0  0  0  0  0
   -1.7310  -12.9980    2.2330 C   0  0  0  0  0  0  0  0  0  0  0  0
   -6.0667  -12.5713    1.6225 H   0  0  0  0  0  0  0  0  0  0  0  0
   -4.8903  -12.0553    0.3670 H   0  0  0  0  0  0  0  0  0  0  0  0
   -5.5246  -13.7359    0.3670 H   0  0  0  0  0  0  0  0  0  0  0  0
   -3.9906  -11.2066    0.4216 H   0  0  0  0  0  0  0  0  0  0  0  0
   -1.9629   -9.8289   -0.0143 H   0  0  0  0  0  0  0  0  0  0  0  0
    0.3052   -9.2053    0.8649 H   0  0  0  0  0  0  0  0  0  0  0  0
    1.2989  -10.4605    1.7223 H   0  0  0  0  0  0  0  0  0  0  0  0
    1.7637  -10.3910   -3.4904 H   0  0  0  0  0  0  0  0  0  0  0  0
    6.1402  -13.3465   -0.5907 H   0  0  0  0  0  0  0  0  0  0  0  0
    8.4880  -15.1960    0.6840 H   0  0  0  0  0  0  0  0  0  0  0  0
   10.4270  -14.9950   -0.0220 H   0  0  0  0  0  0  0  0  0  0  0  0
   13.3306  -13.2623   -3.9680 H   0  0  0  0  0  0  0  0  0  0  0  0
   13.0877  -10.7368    0.8676 H   0  0  0  0  0  0  0  0  0  0  0  0
   14.2504  -10.3022   -0.4308 H   0  0  0  0  0  0  0  0  0  0  0  0
   12.5989   -9.5958   -0.4308 H   0  0  0  0  0  0  0  0  0  0  0  0
    6.9661  -17.5408   -0.0508 H   0  0  0  0  0  0  0  0  0  0  0  0
    4.5347  -18.0336   -0.2246 H   0  0  0  0  0  0  0  0  0  0  0  0
    2.0689  -16.4332    0.4151 H   0  0  0  0  0  0  0  0  0  0  0  0
    1.9463  -15.5381   -1.1375 H   0  0  0  0  0  0  0  0  0  0  0  0
    2.3806  -17.2811   -1.1375 H   0  0  0  0  0  0  0  0  0  0  0  0
    0.3730  -12.5270    2.4249 H   0  0  0  0  0  0  0  0  0  0  0  0
   -1.6623  -13.8900    2.8730 H   0  0  0  0  0  0  0  0  0  0  0  0
  1  2  1  0
  2  3  1  0
  3  4  2  0
  4  5  1  0
  5  6  2  0
  6  7  1  0
  7  8  1  0
  8  9  1  0
  9 10  2  0
 10 11  1  0
 11 12  1  0
 12 13  1  0
 13 14  1  0
 14 15  2  0
 15 16  1  0
 16 17  1  0
 17 18  1  0
 18 19  2  0
 18 20  1  0
 20 21  1  0
 21 22  2  0
 22 23  1  0
 22 24  1  0
 24 25  2  0
 25 26  1  0
 25 27  1  0
 27 28  1  0
 27 29  2  0
 29 30  1  0
 16 31  2  0
 31 32  1  0
 32 33  2  0
 33 34  1  0
 13 35  2  0
 35 36  1  0
  6 37  1  0
 37 38  2  0
 38  3  1  0
 36  8  1  0
 36 11  2  0
 33 14  1  0
 29 21  1  0
  1 39  1  0
  1 40  1  0
  1 41  1  0
  4 42  1  0
  5 43  1  0
  7 44  1  0
  7 45  1  0
 10 46  1  0
 15 47  1  0
 17 48  1  0
 20 49  1  0
 24 50  1  0
 28 51  1  0
 28 52  1  0
 28 53  1  0
 31 54  1  0
 32 55  1  0
 34 56  1  0
 34 57  1  0
 34 58  1  0
 37 59  1  0
 38 60  1  0
M  CHG  1  12  -1
M  END
>  <meeko>  (9) 
{"is_sidechain": [false], "free_energy": -8.78, "intermolecular_energy": -11.661, "internal_energy": -1.078}

$$$$
