LIB_YXYHBHJWEGGSMU__M_PUB_ALL__e8__s20260927
     RDKit          3D

 64 68  0  0  0  0  0  0  0  0999 V2000
    6.9240  -15.2530   -1.0840 C   0  0  0  0  0  0  0  0  0  0  0  0
    7.3470  -15.1820   -2.5280 C   0  0  0  0  0  0  0  0  0  0  0  0
    6.3450  -15.1570   -3.5160 C   0  0  0  0  0  0  0  0  0  0  0  0
    6.6780  -15.1080   -4.8670 C   0  0  0  0  0  0  0  0  0  0  0  0
    8.0210  -15.0840   -5.2410 C   0  0  0  0  0  0  0  0  0  0  0  0
    8.4110  -15.0280   -6.6740 C   0  0  0  0  0  0  0  0  0  0  0  0
    9.3300  -15.7360   -7.0620 O   0  0  0  0  0  0  0  0  0  0  0  0
    7.6430  -14.1620   -7.4330 N   0  0  0  0  0  0  0  0  0  0  0  0
    7.7980  -13.8530   -8.8000 C   0  0  0  0  0  0  0  0  0  0  0  0
    6.6640  -13.9630   -9.6130 C   0  0  0  0  0  0  0  0  0  0  0  0
    6.7320  -13.6750  -10.9770 C   0  0  0  0  0  0  0  0  0  0  0  0
    7.9390  -13.2690  -11.5430 C   0  0  0  0  0  0  0  0  0  0  0  0
    9.0860  -13.1430  -10.7470 C   0  0  0  0  0  0  0  0  0  0  0  0
   10.4040  -12.7190  -11.3440 C   0  0  0  0  0  0  0  0  0  0  0  0
   10.4920  -11.3710  -11.5160 F   0  0  0  0  0  0  0  0  0  0  0  0
   10.6400  -13.2720  -12.5660 F   0  0  0  0  0  0  0  0  0  0  0  0
   11.4770  -13.0640  -10.5750 F   0  0  0  0  0  0  0  0  0  0  0  0
    9.0040  -13.4420   -9.3740 C   0  0  0  0  0  0  0  0  0  0  0  0
    9.0260  -15.0890   -4.2680 C   0  0  0  0  0  0  0  0  0  0  0  0
    8.7140  -15.1340   -2.9000 C   0  0  0  0  0  0  0  0  0  0  0  0
    9.7110  -15.1830   -1.9040 N   0  0  0  0  0  0  0  0  0  0  0  0
   10.3870  -14.1580   -1.3210 C   0  0  0  0  0  0  0  0  0  0  0  0
   10.0160  -13.4240   -0.2960 N   0  0  0  0  0  0  0  0  0  0  0  0
   10.9880  -12.4860   -0.1230 C   0  0  0  0  0  0  0  0  0  0  0  0
   11.0360  -11.4440    0.8170 C   0  0  0  0  0  0  0  0  0  0  0  0
   12.0950  -10.5350    0.7720 C   0  0  0  0  0  0  0  0  0  0  0  0
   13.0800  -10.6500   -0.2050 C   0  0  0  0  0  0  0  0  0  0  0  0
   13.0530  -11.6890   -1.1450 C   0  0  0  0  0  0  0  0  0  0  0  0
   12.0100  -12.6310   -1.0600 C   0  0  0  0  0  0  0  0  0  0  0  0
   11.6580  -13.7740   -1.7780 N   0  0  0  0  0  0  0  0  0  0  0  0
   12.4150  -14.4610   -2.7850 C   0  0  0  0  0  0  0  0  0  0  0  0
   12.6290  -13.8760   -4.0210 C   0  0  0  0  0  0  0  0  0  0  0  0
   13.3640  -14.5900   -4.9440 C   0  0  0  0  0  0  0  0  0  0  0  0
   13.6630  -14.1360   -6.2000 N   0  0  0  0  0  0  0  0  0  0  0  0
   12.8530  -14.3150   -7.3880 C   0  0  0  0  0  0  0  0  0  0  0  0
   13.6540  -14.9220   -8.5390 C   0  0  0  0  0  0  0  0  0  0  0  0
   14.9730  -15.3810   -8.0900 C   0  0  0  0  0  0  0  0  0  0  0  0
   16.0130  -15.7600   -7.7440 N   0  0  0  0  0  0  0  0  0  0  0  0
   13.8590  -15.8000   -4.6610 N   0  0  0  0  0  0  0  0  0  0  0  0
   13.6350  -16.2790   -3.4340 C   0  0  0  0  0  0  0  0  0  0  0  0
   12.9480  -15.6640   -2.4630 N   0  0  0  0  0  0  0  0  0  0  0  0
    7.8015  -15.1057   -0.4372 H   0  0  0  0  0  0  0  0  0  0  0  0
    6.1821  -14.4668   -0.8802 H   0  0  0  0  0  0  0  0  0  0  0  0
    6.4795  -16.2383   -0.8802 H   0  0  0  0  0  0  0  0  0  0  0  0
    5.2865  -15.1764   -3.2174 H   0  0  0  0  0  0  0  0  0  0  0  0
    5.8884  -15.0884   -5.6326 H   0  0  0  0  0  0  0  0  0  0  0  0
    6.8530  -13.7320   -6.9680 H   0  0  0  0  0  0  0  0  0  0  0  0
    5.7077  -14.2802   -9.1716 H   0  0  0  0  0  0  0  0  0  0  0  0
    5.8336  -13.7684  -11.6047 H   0  0  0  0  0  0  0  0  0  0  0  0
    7.9919  -13.0465  -12.6190 H   0  0  0  0  0  0  0  0  0  0  0  0
    9.9013  -13.3509   -8.7443 H   0  0  0  0  0  0  0  0  0  0  0  0
   10.0802  -15.0571   -4.5805 H   0  0  0  0  0  0  0  0  0  0  0  0
    9.9360  -16.1220   -1.5740 H   0  0  0  0  0  0  0  0  0  0  0  0
   10.2492  -11.3450    1.5793 H   0  0  0  0  0  0  0  0  0  0  0  0
   12.1512   -9.7236    1.5126 H   0  0  0  0  0  0  0  0  0  0  0  0
   13.8946   -9.9116   -0.2398 H   0  0  0  0  0  0  0  0  0  0  0  0
   13.8237  -11.7663   -1.9260 H   0  0  0  0  0  0  0  0  0  0  0  0
   12.2281  -12.8795   -4.2581 H   0  0  0  0  0  0  0  0  0  0  0  0
   14.5580  -13.6570   -6.2410 H   0  0  0  0  0  0  0  0  0  0  0  0
   12.0131  -14.9836   -7.1481 H   0  0  0  0  0  0  0  0  0  0  0  0
   12.4942  -13.3255   -7.7076 H   0  0  0  0  0  0  0  0  0  0  0  0
   13.0980  -15.7777   -8.9497 H   0  0  0  0  0  0  0  0  0  0  0  0
   13.7999  -14.1468   -9.3057 H   0  0  0  0  0  0  0  0  0  0  0  0
   14.0532  -17.2691   -3.2001 H   0  0  0  0  0  0  0  0  0  0  0  0
  1  2  1  0
  2  3  2  0
  3  4  1  0
  4  5  2  0
  5  6  1  0
  6  7  2  0
  6  8  1  0
  8  9  1  0
  9 10  2  0
 10 11  1  0
 11 12  2  0
 12 13  1  0
 13 14  1  0
 14 15  1  0
 14 16  1  0
 14 17  1  0
 13 18  2  0
  5 19  1  0
 19 20  2  0
 20 21  1  0
 21 22  1  0
 22 23  2  0
 23 24  1  0
 24 25  2  0
 25 26  1  0
 26 27  2  0
 27 28  1  0
 28 29  2  0
 29 30  1  0
 30 31  1  0
 31 32  2  0
 32 33  1  0
 33 34  1  0
 34 35  1  0
 35 36  1  0
 36 37  1  0
 37 38  3  0
 33 39  2  0
 39 40  1  0
 40 41  2  0
 20  2  1  0
 30 22  1  0
 41 31  1  0
 18  9  1  0
 29 24  1  0
  1 42  1  0
  1 43  1  0
  1 44  1  0
  3 45  1  0
  4 46  1  0
  8 47  1  0
 10 48  1  0
 11 49  1  0
 12 50  1  0
 18 51  1  0
 19 52  1  0
 21 53  1  0
 25 54  1  0
 26 55  1  0
 27 56  1  0
 28 57  1  0
 32 58  1  0
 34 59  1  0
 35 60  1  0
 35 61  1  0
 36 62  1  0
 36 63  1  0
 40 64  1  0
M  END
>  <meeko>  (1) 
{"is_sidechain": [false], "free_energy": -8.896, "intermolecular_energy": -13.576, "internal_energy": -2.649}

$$$$
LIB_YXYHBHJWEGGSMU__M_PUB_ALL__e8__s20260927
     RDKit          3D

 64 68  0  0  0  0  0  0  0  0999 V2000
    5.0050  -13.2130   -1.8010 C   0  0  0  0  0  0  0  0  0  0  0  0
    5.5230  -13.5380   -3.1780 C   0  0  0  0  0  0  0  0  0  0  0  0
    4.6490  -13.3890   -4.2720 C   0  0  0  0  0  0  0  0  0  0  0  0
    5.0680  -13.6900   -5.5650 C   0  0  0  0  0  0  0  0  0  0  0  0
    6.3690  -14.1460   -5.7740 C   0  0  0  0  0  0  0  0  0  0  0  0
    6.8490  -14.4730   -7.1420 C   0  0  0  0  0  0  0  0  0  0  0  0
    7.0190  -15.6480   -7.4400 O   0  0  0  0  0  0  0  0  0  0  0  0
    7.0350  -13.3680   -7.9530 N   0  0  0  0  0  0  0  0  0  0  0  0
    7.5270  -13.3470   -9.2740 C   0  0  0  0  0  0  0  0  0  0  0  0
    6.5840  -13.3510  -10.3080 C   0  0  0  0  0  0  0  0  0  0  0  0
    6.9890  -13.3320  -11.6440 C   0  0  0  0  0  0  0  0  0  0  0  0
    8.3460  -13.3040  -11.9600 C   0  0  0  0  0  0  0  0  0  0  0  0
    9.3080  -13.2910  -10.9400 C   0  0  0  0  0  0  0  0  0  0  0  0
   10.7810  -13.2760  -11.2630 C   0  0  0  0  0  0  0  0  0  0  0  0
   11.0500  -13.7620  -12.5070 F   0  0  0  0  0  0  0  0  0  0  0  0
   11.5260  -14.0190  -10.3980 F   0  0  0  0  0  0  0  0  0  0  0  0
   11.3250  -12.0250  -11.2300 F   0  0  0  0  0  0  0  0  0  0  0  0
    8.8860  -13.3170   -9.5980 C   0  0  0  0  0  0  0  0  0  0  0  0
    7.2530  -14.2800   -4.6980 C   0  0  0  0  0  0  0  0  0  0  0  0
    6.8540  -13.9780   -3.3860 C   0  0  0  0  0  0  0  0  0  0  0  0
    7.7150  -14.1480   -2.2820 N   0  0  0  0  0  0  0  0  0  0  0  0
    8.9180  -13.5650   -2.0410 C   0  0  0  0  0  0  0  0  0  0  0  0
    9.9860  -13.5650   -2.8080 N   0  0  0  0  0  0  0  0  0  0  0  0
   10.9580  -12.9100   -2.1150 C   0  0  0  0  0  0  0  0  0  0  0  0
   12.2910  -12.6810   -2.4900 C   0  0  0  0  0  0  0  0  0  0  0  0
   13.1540  -12.0530   -1.5890 C   0  0  0  0  0  0  0  0  0  0  0  0
   12.7010  -11.6770   -0.3280 C   0  0  0  0  0  0  0  0  0  0  0  0
   11.3710  -11.8890    0.0590 C   0  0  0  0  0  0  0  0  0  0  0  0
   10.4960  -12.4760   -0.8740 C   0  0  0  0  0  0  0  0  0  0  0  0
    9.1450  -12.8250   -0.8690 N   0  0  0  0  0  0  0  0  0  0  0  0
    8.1460  -12.5050    0.1110 C   0  0  0  0  0  0  0  0  0  0  0  0
    7.8190  -11.1860    0.3720 C   0  0  0  0  0  0  0  0  0  0  0  0
    6.8520  -10.9480    1.3270 C   0  0  0  0  0  0  0  0  0  0  0  0
    6.4200   -9.6990    1.6830 N   0  0  0  0  0  0  0  0  0  0  0  0
    7.1280   -8.4550    1.4590 C   0  0  0  0  0  0  0  0  0  0  0  0
    6.5640   -7.3160    2.3080 C   0  0  0  0  0  0  0  0  0  0  0  0
    7.4680   -6.9720    3.4110 C   0  0  0  0  0  0  0  0  0  0  0  0
    8.1800   -6.6830    4.2790 N   0  0  0  0  0  0  0  0  0  0  0  0
    6.2460  -11.9490    1.9760 N   0  0  0  0  0  0  0  0  0  0  0  0
    6.5980  -13.1940    1.6410 C   0  0  0  0  0  0  0  0  0  0  0  0
    7.5110  -13.5340    0.7230 N   0  0  0  0  0  0  0  0  0  0  0  0
    5.6818  -13.6377   -1.0450 H   0  0  0  0  0  0  0  0  0  0  0  0
    4.9548  -12.1212   -1.6764 H   0  0  0  0  0  0  0  0  0  0  0  0
    4.0002  -13.6428   -1.6764 H   0  0  0  0  0  0  0  0  0  0  0  0
    3.6229  -13.0305   -4.1029 H   0  0  0  0  0  0  0  0  0  0  0  0
    4.3791  -13.5692   -6.4140 H   0  0  0  0  0  0  0  0  0  0  0  0
    6.7450  -12.4750   -7.5740 H   0  0  0  0  0  0  0  0  0  0  0  0
    5.5113  -13.3693  -10.0653 H   0  0  0  0  0  0  0  0  0  0  0  0
    6.2372  -13.3391  -12.4469 H   0  0  0  0  0  0  0  0  0  0  0  0
    8.6635  -13.2921  -13.0131 H   0  0  0  0  0  0  0  0  0  0  0  0
    9.6358  -13.3137   -8.7932 H   0  0  0  0  0  0  0  0  0  0  0  0
    8.2798  -14.6284   -4.8832 H   0  0  0  0  0  0  0  0  0  0  0  0
    7.3670  -14.7860   -1.5670 H   0  0  0  0  0  0  0  0  0  0  0  0
   12.6517  -12.9923   -3.4815 H   0  0  0  0  0  0  0  0  0  0  0  0
   14.1968  -11.8547   -1.8776 H   0  0  0  0  0  0  0  0  0  0  0  0
   13.3999  -11.2046    0.3780 H   0  0  0  0  0  0  0  0  0  0  0  0
   11.0212  -11.6050    1.0625 H   0  0  0  0  0  0  0  0  0  0  0  0
    8.3110  -10.3592   -0.1613 H   0  0  0  0  0  0  0  0  0  0  0  0
    5.5250   -9.7160    2.1630 H   0  0  0  0  0  0  0  0  0  0  0  0
    8.1880   -8.5982    1.7155 H   0  0  0  0  0  0  0  0  0  0  0  0
    7.0090   -8.1815    0.4002 H   0  0  0  0  0  0  0  0  0  0  0  0
    6.4236   -6.4304    1.6709 H   0  0  0  0  0  0  0  0  0  0  0  0
    5.6055   -7.6451    2.7358 H   0  0  0  0  0  0  0  0  0  0  0  0
    6.0906  -14.0152    2.1684 H   0  0  0  0  0  0  0  0  0  0  0  0
  1  2  1  0
  2  3  2  0
  3  4  1  0
  4  5  2  0
  5  6  1  0
  6  7  2  0
  6  8  1  0
  8  9  1  0
  9 10  2  0
 10 11  1  0
 11 12  2  0
 12 13  1  0
 13 14  1  0
 14 15  1  0
 14 16  1  0
 14 17  1  0
 13 18  2  0
  5 19  1  0
 19 20  2  0
 20 21  1  0
 21 22  1  0
 22 23  2  0
 23 24  1  0
 24 25  2  0
 25 26  1  0
 26 27  2  0
 27 28  1  0
 28 29  2  0
 29 30  1  0
 30 31  1  0
 31 32  2  0
 32 33  1  0
 33 34  1  0
 34 35  1  0
 35 36  1  0
 36 37  1  0
 37 38  3  0
 33 39  2  0
 39 40  1  0
 40 41  2  0
 20  2  1  0
 30 22  1  0
 41 31  1  0
 18  9  1  0
 29 24  1  0
  1 42  1  0
  1 43  1  0
  1 44  1  0
  3 45  1  0
  4 46  1  0
  8 47  1  0
 10 48  1  0
 11 49  1  0
 12 50  1  0
 18 51  1  0
 19 52  1  0
 21 53  1  0
 25 54  1  0
 26 55  1  0
 27 56  1  0
 28 57  1  0
 32 58  1  0
 34 59  1  0
 35 60  1  0
 35 61  1  0
 36 62  1  0
 36 63  1  0
 40 64  1  0
M  END
>  <meeko>  (2) 
{"is_sidechain": [false], "free_energy": -8.895, "intermolecular_energy": -14.267, "internal_energy": -1.956}

$$$$
LIB_YXYHBHJWEGGSMU__M_PUB_ALL__e8__s20260927
     RDKit          3D

 64 68  0  0  0  0  0  0  0  0999 V2000
    5.7910  -12.5630   -5.0760 C   0  0  0  0  0  0  0  0  0  0  0  0
    4.9250  -12.4200   -3.8510 C   0  0  0  0  0  0  0  0  0  0  0  0
    3.8010  -11.5760   -3.9230 C   0  0  0  0  0  0  0  0  0  0  0  0
    2.9760  -11.3930   -2.8170 C   0  0  0  0  0  0  0  0  0  0  0  0
    3.2700  -12.0560   -1.6260 C   0  0  0  0  0  0  0  0  0  0  0  0
    2.4070  -11.8860   -0.4280 C   0  0  0  0  0  0  0  0  0  0  0  0
    2.7740  -12.3690    0.6340 O   0  0  0  0  0  0  0  0  0  0  0  0
    1.2560  -11.1550   -0.6620 N   0  0  0  0  0  0  0  0  0  0  0  0
    0.2220  -10.8690    0.2520 C   0  0  0  0  0  0  0  0  0  0  0  0
    0.1850   -9.5780    0.7930 C   0  0  0  0  0  0  0  0  0  0  0  0
   -0.8070   -9.2140    1.7060 C   0  0  0  0  0  0  0  0  0  0  0  0
   -1.7770  -10.1390    2.0840 C   0  0  0  0  0  0  0  0  0  0  0  0
   -1.7660  -11.4340    1.5490 C   0  0  0  0  0  0  0  0  0  0  0  0
   -2.7990  -12.4530    1.9580 C   0  0  0  0  0  0  0  0  0  0  0  0
   -3.4550  -12.9910    0.8930 F   0  0  0  0  0  0  0  0  0  0  0  0
   -3.7610  -11.9420    2.7750 F   0  0  0  0  0  0  0  0  0  0  0  0
   -2.2690  -13.5120    2.6370 F   0  0  0  0  0  0  0  0  0  0  0  0
   -0.7560  -11.7900    0.6350 C   0  0  0  0  0  0  0  0  0  0  0  0
    4.3730  -12.9120   -1.5480 C   0  0  0  0  0  0  0  0  0  0  0  0
    5.2170  -13.1150   -2.6510 C   0  0  0  0  0  0  0  0  0  0  0  0
    6.3590  -13.9410   -2.5810 N   0  0  0  0  0  0  0  0  0  0  0  0
    7.6700  -13.5870   -2.6170 C   0  0  0  0  0  0  0  0  0  0  0  0
    8.5080  -13.6850   -3.6260 N   0  0  0  0  0  0  0  0  0  0  0  0
    9.7180  -13.2680   -3.1630 C   0  0  0  0  0  0  0  0  0  0  0  0
   10.9440  -13.2230   -3.8470 C   0  0  0  0  0  0  0  0  0  0  0  0
   12.0940  -12.8340   -3.1570 C   0  0  0  0  0  0  0  0  0  0  0  0
   12.0280  -12.5130   -1.8040 C   0  0  0  0  0  0  0  0  0  0  0  0
   10.8120  -12.5440   -1.1090 C   0  0  0  0  0  0  0  0  0  0  0  0
    9.6490  -12.8870   -1.8250 C   0  0  0  0  0  0  0  0  0  0  0  0
    8.2980  -13.0110   -1.5010 N   0  0  0  0  0  0  0  0  0  0  0  0
    7.6350  -12.6310   -0.2860 C   0  0  0  0  0  0  0  0  0  0  0  0
    7.4550  -11.2940    0.0230 C   0  0  0  0  0  0  0  0  0  0  0  0
    6.8110  -10.9970    1.2070 C   0  0  0  0  0  0  0  0  0  0  0  0
    6.5540   -9.7230    1.6390 N   0  0  0  0  0  0  0  0  0  0  0  0
    7.3510   -8.5480    1.3510 C   0  0  0  0  0  0  0  0  0  0  0  0
    6.7560   -7.2880    1.9780 C   0  0  0  0  0  0  0  0  0  0  0  0
    7.4430   -6.9340    3.2250 C   0  0  0  0  0  0  0  0  0  0  0  0
    7.9870   -6.6370    4.2060 N   0  0  0  0  0  0  0  0  0  0  0  0
    6.3700  -11.9580    2.0260 N   0  0  0  0  0  0  0  0  0  0  0  0
    6.5550  -13.2230    1.6360 C   0  0  0  0  0  0  0  0  0  0  0  0
    7.1540  -13.6190    0.5060 N   0  0  0  0  0  0  0  0  0  0  0  0
    6.8335  -12.7351   -4.7700 H   0  0  0  0  0  0  0  0  0  0  0  0
    5.4395  -13.4153   -5.6761 H   0  0  0  0  0  0  0  0  0  0  0  0
    5.7322  -11.6430   -5.6761 H   0  0  0  0  0  0  0  0  0  0  0  0
    3.5719  -11.0549   -4.8643 H   0  0  0  0  0  0  0  0  0  0  0  0
    2.0998  -10.7312   -2.8819 H   0  0  0  0  0  0  0  0  0  0  0  0
    1.1630  -10.7400   -1.5810 H   0  0  0  0  0  0  0  0  0  0  0  0
    0.9463   -8.8419    0.4953 H   0  0  0  0  0  0  0  0  0  0  0  0
   -0.8222   -8.1975    2.1262 H   0  0  0  0  0  0  0  0  0  0  0  0
   -2.5555   -9.8516    2.8060 H   0  0  0  0  0  0  0  0  0  0  0  0
   -0.7367  -12.8072    0.2168 H   0  0  0  0  0  0  0  0  0  0  0  0
    4.5833  -13.4363   -0.6041 H   0  0  0  0  0  0  0  0  0  0  0  0
    6.1590  -14.9350   -2.4740 H   0  0  0  0  0  0  0  0  0  0  0  0
   10.9975  -13.4908   -4.9126 H   0  0  0  0  0  0  0  0  0  0  0  0
   13.0573  -12.7809   -3.6854 H   0  0  0  0  0  0  0  0  0  0  0  0
   12.9475  -12.2298   -1.2708 H   0  0  0  0  0  0  0  0  0  0  0  0
   10.7670  -12.3074   -0.0357 H   0  0  0  0  0  0  0  0  0  0  0  0
    7.8113  -10.4992   -0.6488 H   0  0  0  0  0  0  0  0  0  0  0  0
    5.7290   -9.6690    2.2280 H   0  0  0  0  0  0  0  0  0  0  0  0
    8.3647   -8.6993    1.7504 H   0  0  0  0  0  0  0  0  0  0  0  0
    7.3712   -8.4089    0.2600 H   0  0  0  0  0  0  0  0  0  0  0  0
    6.8533   -6.4544    1.2669 H   0  0  0  0  0  0  0  0  0  0  0  0
    5.6984   -7.4831    2.2092 H   0  0  0  0  0  0  0  0  0  0  0  0
    6.1805  -14.0116    2.3053 H   0  0  0  0  0  0  0  0  0  0  0  0
  1  2  1  0
  2  3  2  0
  3  4  1  0
  4  5  2  0
  5  6  1  0
  6  7  2  0
  6  8  1  0
  8  9  1  0
  9 10  2  0
 10 11  1  0
 11 12  2  0
 12 13  1  0
 13 14  1  0
 14 15  1  0
 14 16  1  0
 14 17  1  0
 13 18  2  0
  5 19  1  0
 19 20  2  0
 20 21  1  0
 21 22  1  0
 22 23  2  0
 23 24  1  0
 24 25  2  0
 25 26  1  0
 26 27  2  0
 27 28  1  0
 28 29  2  0
 29 30  1  0
 30 31  1  0
 31 32  2  0
 32 33  1  0
 33 34  1  0
 34 35  1  0
 35 36  1  0
 36 37  1  0
 37 38  3  0
 33 39  2  0
 39 40  1  0
 40 41  2  0
 20  2  1  0
 30 22  1  0
 41 31  1  0
 18  9  1  0
 29 24  1  0
  1 42  1  0
  1 43  1  0
  1 44  1  0
  3 45  1  0
  4 46  1  0
  8 47  1  0
 10 48  1  0
 11 49  1  0
 12 50  1  0
 18 51  1  0
 19 52  1  0
 21 53  1  0
 25 54  1  0
 26 55  1  0
 27 56  1  0
 28 57  1  0
 32 58  1  0
 34 59  1  0
 35 60  1  0
 35 61  1  0
 36 62  1  0
 36 63  1  0
 40 64  1  0
M  END
>  <meeko>  (3) 
{"is_sidechain": [false], "free_energy": -8.828, "intermolecular_energy": -14.312, "internal_energy": -1.811}

$$$$
LIB_YXYHBHJWEGGSMU__M_PUB_ALL__e8__s20260927
     RDKit          3D

 64 68  0  0  0  0  0  0  0  0999 V2000
    9.9210  -12.5230    0.4830 C   0  0  0  0  0  0  0  0  0  0  0  0
   10.6200  -12.6610   -0.8450 C   0  0  0  0  0  0  0  0  0  0  0  0
   11.9270  -12.1510   -0.9670 C   0  0  0  0  0  0  0  0  0  0  0  0
   12.6140  -12.2360   -2.1740 C   0  0  0  0  0  0  0  0  0  0  0  0
   11.9970  -12.8330   -3.2740 C   0  0  0  0  0  0  0  0  0  0  0  0
   12.7040  -12.9430   -4.5760 C   0  0  0  0  0  0  0  0  0  0  0  0
   13.6460  -12.1940   -4.7980 O   0  0  0  0  0  0  0  0  0  0  0  0
   12.2070  -13.9320   -5.4050 N   0  0  0  0  0  0  0  0  0  0  0  0
   12.6270  -14.2460   -6.7140 C   0  0  0  0  0  0  0  0  0  0  0  0
   11.7450  -13.9460   -7.7580 C   0  0  0  0  0  0  0  0  0  0  0  0
   12.0840  -14.2250   -9.0830 C   0  0  0  0  0  0  0  0  0  0  0  0
   13.3160  -14.8050   -9.3780 C   0  0  0  0  0  0  0  0  0  0  0  0
   14.2200  -15.1060   -8.3490 C   0  0  0  0  0  0  0  0  0  0  0  0
   15.5510  -15.7480   -8.6480 C   0  0  0  0  0  0  0  0  0  0  0  0
   15.4250  -17.0180   -9.1230 F   0  0  0  0  0  0  0  0  0  0  0  0
   16.3620  -15.8310   -7.5570 F   0  0  0  0  0  0  0  0  0  0  0  0
   16.2730  -15.0730   -9.5890 F   0  0  0  0  0  0  0  0  0  0  0  0
   13.8610  -14.8250   -7.0180 C   0  0  0  0  0  0  0  0  0  0  0  0
   10.7070  -13.3600   -3.1590 C   0  0  0  0  0  0  0  0  0  0  0  0
    9.9950  -13.2900   -1.9510 C   0  0  0  0  0  0  0  0  0  0  0  0
    8.6770  -13.7760   -1.8250 N   0  0  0  0  0  0  0  0  0  0  0  0
    7.5820  -13.4740   -2.5720 C   0  0  0  0  0  0  0  0  0  0  0  0
    7.2370  -13.9700   -3.7390 N   0  0  0  0  0  0  0  0  0  0  0  0
    6.1040  -13.3150   -4.1150 C   0  0  0  0  0  0  0  0  0  0  0  0
    5.3700  -13.4570   -5.3030 C   0  0  0  0  0  0  0  0  0  0  0  0
    4.2720  -12.6240   -5.5290 C   0  0  0  0  0  0  0  0  0  0  0  0
    3.9240  -11.6510   -4.5960 C   0  0  0  0  0  0  0  0  0  0  0  0
    4.6400  -11.5020   -3.4010 C   0  0  0  0  0  0  0  0  0  0  0  0
    5.7130  -12.3810   -3.1580 C   0  0  0  0  0  0  0  0  0  0  0  0
    6.6260  -12.5520   -2.1170 N   0  0  0  0  0  0  0  0  0  0  0  0
    6.6230  -11.9370   -0.8200 C   0  0  0  0  0  0  0  0  0  0  0  0
    7.0790  -10.6410   -0.6590 C   0  0  0  0  0  0  0  0  0  0  0  0
    7.0500  -10.1100    0.6140 C   0  0  0  0  0  0  0  0  0  0  0  0
    7.4590   -8.8410    0.9230 N   0  0  0  0  0  0  0  0  0  0  0  0
    6.8330   -7.9520    1.8800 C   0  0  0  0  0  0  0  0  0  0  0  0
    7.8490   -7.0270    2.5490 C   0  0  0  0  0  0  0  0  0  0  0  0
    7.4610   -6.7130    3.9290 C   0  0  0  0  0  0  0  0  0  0  0  0
    7.1710   -6.4680    5.0250 N   0  0  0  0  0  0  0  0  0  0  0  0
    6.5960  -10.8140    1.6570 N   0  0  0  0  0  0  0  0  0  0  0  0
    6.1440  -12.0470    1.4090 C   0  0  0  0  0  0  0  0  0  0  0  0
    6.1150  -12.6500    0.2140 N   0  0  0  0  0  0  0  0  0  0  0  0
   10.6475  -12.6664    1.2964 H   0  0  0  0  0  0  0  0  0  0  0  0
    9.4766  -11.5198    0.5610 H   0  0  0  0  0  0  0  0  0  0  0  0
    9.1287  -13.2821    0.5610 H   0  0  0  0  0  0  0  0  0  0  0  0
   12.4103  -11.6801   -0.0982 H   0  0  0  0  0  0  0  0  0  0  0  0
   13.6350  -11.8359   -2.2603 H   0  0  0  0  0  0  0  0  0  0  0  0
   11.4870  -14.5290   -5.0160 H   0  0  0  0  0  0  0  0  0  0  0  0
   10.7724  -13.4846   -7.5318 H   0  0  0  0  0  0  0  0  0  0  0  0
   11.3792  -13.9872   -9.8934 H   0  0  0  0  0  0  0  0  0  0  0  0
   13.5806  -15.0277  -10.4222 H   0  0  0  0  0  0  0  0  0  0  0  0
   14.5623  -15.0648   -6.2052 H   0  0  0  0  0  0  0  0  0  0  0  0
   10.2406  -13.8390   -4.0325 H   0  0  0  0  0  0  0  0  0  0  0  0
    8.5450  -14.4570   -1.0780 H   0  0  0  0  0  0  0  0  0  0  0  0
    5.6561  -14.2151   -6.0469 H   0  0  0  0  0  0  0  0  0  0  0  0
    3.6792  -12.7372   -6.4487 H   0  0  0  0  0  0  0  0  0  0  0  0
    3.0712  -10.9870   -4.8008 H   0  0  0  0  0  0  0  0  0  0  0  0
    4.3719  -10.7213   -2.6739 H   0  0  0  0  0  0  0  0  0  0  0  0
    7.4505  -10.0561   -1.5133 H   0  0  0  0  0  0  0  0  0  0  0  0
    8.2660   -8.5470    0.3810 H   0  0  0  0  0  0  0  0  0  0  0  0
    6.0836   -7.3387    1.3582 H   0  0  0  0  0  0  0  0  0  0  0  0
    6.3664   -8.5682    2.6627 H   0  0  0  0  0  0  0  0  0  0  0  0
    8.8316   -7.5213    2.5573 H   0  0  0  0  0  0  0  0  0  0  0  0
    7.8891   -6.0872    1.9787 H   0  0  0  0  0  0  0  0  0  0  0  0
    5.7602  -12.6195    2.2662 H   0  0  0  0  0  0  0  0  0  0  0  0
  1  2  1  0
  2  3  2  0
  3  4  1  0
  4  5  2  0
  5  6  1  0
  6  7  2  0
  6  8  1  0
  8  9  1  0
  9 10  2  0
 10 11  1  0
 11 12  2  0
 12 13  1  0
 13 14  1  0
 14 15  1  0
 14 16  1  0
 14 17  1  0
 13 18  2  0
  5 19  1  0
 19 20  2  0
 20 21  1  0
 21 22  1  0
 22 23  2  0
 23 24  1  0
 24 25  2  0
 25 26  1  0
 26 27  2  0
 27 28  1  0
 28 29  2  0
 29 30  1  0
 30 31  1  0
 31 32  2  0
 32 33  1  0
 33 34  1  0
 34 35  1  0
 35 36  1  0
 36 37  1  0
 37 38  3  0
 33 39  2  0
 39 40  1  0
 40 41  2  0
 20  2  1  0
 30 22  1  0
 41 31  1  0
 18  9  1  0
 29 24  1  0
  1 42  1  0
  1 43  1  0
  1 44  1  0
  3 45  1  0
  4 46  1  0
  8 47  1  0
 10 48  1  0
 11 49  1  0
 12 50  1  0
 18 51  1  0
 19 52  1  0
 21 53  1  0
 25 54  1  0
 26 55  1  0
 27 56  1  0
 28 57  1  0
 32 58  1  0
 34 59  1  0
 35 60  1  0
 35 61  1  0
 36 62  1  0
 36 63  1  0
 40 64  1  0
M  END
>  <meeko>  (4) 
{"is_sidechain": [false], "free_energy": -8.724, "intermolecular_energy": -13.883, "internal_energy": -2.081}

$$$$
LIB_YXYHBHJWEGGSMU__M_PUB_ALL__e8__s20260927
     RDKit          3D

 64 68  0  0  0  0  0  0  0  0999 V2000
    5.9650  -11.9940   -0.2970 C   0  0  0  0  0  0  0  0  0  0  0  0
    5.9440  -12.3130   -1.7700 C   0  0  0  0  0  0  0  0  0  0  0  0
    4.8950  -11.7920   -2.5500 C   0  0  0  0  0  0  0  0  0  0  0  0
    4.8150  -12.0680   -3.9130 C   0  0  0  0  0  0  0  0  0  0  0  0
    5.7890  -12.8710   -4.5060 C   0  0  0  0  0  0  0  0  0  0  0  0
    5.7360  -13.1820   -5.9590 C   0  0  0  0  0  0  0  0  0  0  0  0
    4.7200  -12.9080   -6.5820 O   0  0  0  0  0  0  0  0  0  0  0  0
    6.8960  -13.7480   -6.4560 N   0  0  0  0  0  0  0  0  0  0  0  0
    7.1350  -14.1980   -7.7700 C   0  0  0  0  0  0  0  0  0  0  0  0
    7.3160  -15.5740   -7.9520 C   0  0  0  0  0  0  0  0  0  0  0  0
    7.5580  -16.1010   -9.2220 C   0  0  0  0  0  0  0  0  0  0  0  0
    7.6180  -15.2550  -10.3270 C   0  0  0  0  0  0  0  0  0  0  0  0
    7.4320  -13.8740  -10.1700 C   0  0  0  0  0  0  0  0  0  0  0  0
    7.5080  -12.9410  -11.3520 C   0  0  0  0  0  0  0  0  0  0  0  0
    6.6990  -11.8540  -11.2150 F   0  0  0  0  0  0  0  0  0  0  0  0
    7.1500  -13.5330  -12.5250 F   0  0  0  0  0  0  0  0  0  0  0  0
    8.7610  -12.4430  -11.5620 F   0  0  0  0  0  0  0  0  0  0  0  0
    7.1950  -13.3560   -8.8830 C   0  0  0  0  0  0  0  0  0  0  0  0
    6.8470  -13.3790   -3.7450 C   0  0  0  0  0  0  0  0  0  0  0  0
    6.9500  -13.1100   -2.3710 C   0  0  0  0  0  0  0  0  0  0  0  0
    7.9840  -13.6470   -1.5760 N   0  0  0  0  0  0  0  0  0  0  0  0
    9.2190  -13.1390   -1.3270 C   0  0  0  0  0  0  0  0  0  0  0  0
    9.6190  -12.4650   -0.2710 N   0  0  0  0  0  0  0  0  0  0  0  0
   10.9140  -12.1140   -0.5070 C   0  0  0  0  0  0  0  0  0  0  0  0
   11.7710  -11.3520    0.3020 C   0  0  0  0  0  0  0  0  0  0  0  0
   13.0480  -11.0360   -0.1660 C   0  0  0  0  0  0  0  0  0  0  0  0
   13.4580  -11.4560   -1.4280 C   0  0  0  0  0  0  0  0  0  0  0  0
   12.6190  -12.2260   -2.2450 C   0  0  0  0  0  0  0  0  0  0  0  0
   11.3530  -12.5830   -1.7440 C   0  0  0  0  0  0  0  0  0  0  0  0
   10.2770  -13.3240   -2.2320 N   0  0  0  0  0  0  0  0  0  0  0  0
   10.2190  -14.1370   -3.4130 C   0  0  0  0  0  0  0  0  0  0  0  0
   10.6530  -13.6380   -4.6280 C   0  0  0  0  0  0  0  0  0  0  0  0
   10.5680  -14.4710   -5.7250 C   0  0  0  0  0  0  0  0  0  0  0  0
   10.9680  -14.1180   -6.9860 N   0  0  0  0  0  0  0  0  0  0  0  0
   10.8790  -14.9460   -8.1720 C   0  0  0  0  0  0  0  0  0  0  0  0
   11.0190  -14.1240   -9.4530 C   0  0  0  0  0  0  0  0  0  0  0  0
   12.0330  -13.0730   -9.3070 C   0  0  0  0  0  0  0  0  0  0  0  0
   12.8400  -12.2470   -9.2070 N   0  0  0  0  0  0  0  0  0  0  0  0
   10.0910  -15.7170   -5.6240 N   0  0  0  0  0  0  0  0  0  0  0  0
    9.7240  -16.1320   -4.4090 C   0  0  0  0  0  0  0  0  0  0  0  0
    9.7770  -15.4110   -3.2810 N   0  0  0  0  0  0  0  0  0  0  0  0
    5.9035  -12.9277    0.2813 H   0  0  0  0  0  0  0  0  0  0  0  0
    6.8996  -11.4697   -0.0487 H   0  0  0  0  0  0  0  0  0  0  0  0
    5.1072  -11.3517   -0.0487 H   0  0  0  0  0  0  0  0  0  0  0  0
    4.1291  -11.1593   -2.0778 H   0  0  0  0  0  0  0  0  0  0  0  0
    3.9918  -11.6567   -4.5156 H   0  0  0  0  0  0  0  0  0  0  0  0
    7.6800  -13.8090   -5.8170 H   0  0  0  0  0  0  0  0  0  0  0  0
    7.2670  -16.2481   -7.0841 H   0  0  0  0  0  0  0  0  0  0  0  0
    7.7013  -17.1841   -9.3500 H   0  0  0  0  0  0  0  0  0  0  0  0
    7.8120  -15.6717  -11.3264 H   0  0  0  0  0  0  0  0  0  0  0  0
    7.0550  -12.2729   -8.7517 H   0  0  0  0  0  0  0  0  0  0  0  0
    7.6125  -14.0008   -4.2322 H   0  0  0  0  0  0  0  0  0  0  0  0
    7.7550  -14.5300   -1.1200 H   0  0  0  0  0  0  0  0  0  0  0  0
   11.4406  -11.0077    1.2931 H   0  0  0  0  0  0  0  0  0  0  0  0
   13.7334  -10.4522    0.4659 H   0  0  0  0  0  0  0  0  0  0  0  0
   14.4587  -11.1786   -1.7908 H   0  0  0  0  0  0  0  0  0  0  0  0
   12.9405  -12.5421   -3.2484 H   0  0  0  0  0  0  0  0  0  0  0  0
   11.0507  -12.6162   -4.7164 H   0  0  0  0  0  0  0  0  0  0  0  0
   11.3750  -13.1890   -7.0220 H   0  0  0  0  0  0  0  0  0  0  0  0
   11.6818  -15.6974   -8.1421 H   0  0  0  0  0  0  0  0  0  0  0  0
    9.8884  -15.4241   -8.1804 H   0  0  0  0  0  0  0  0  0  0  0  0
   11.3118  -14.7919  -10.2765 H   0  0  0  0  0  0  0  0  0  0  0  0
   10.0517  -13.6447   -9.6641 H   0  0  0  0  0  0  0  0  0  0  0  0
    9.3431  -17.1606   -4.3267 H   0  0  0  0  0  0  0  0  0  0  0  0
  1  2  1  0
  2  3  2  0
  3  4  1  0
  4  5  2  0
  5  6  1  0
  6  7  2  0
  6  8  1  0
  8  9  1  0
  9 10  2  0
 10 11  1  0
 11 12  2  0
 12 13  1  0
 13 14  1  0
 14 15  1  0
 14 16  1  0
 14 17  1  0
 13 18  2  0
  5 19  1  0
 19 20  2  0
 20 21  1  0
 21 22  1  0
 22 23  2  0
 23 24  1  0
 24 25  2  0
 25 26  1  0
 26 27  2  0
 27 28  1  0
 28 29  2  0
 29 30  1  0
 30 31  1  0
 31 32  2  0
 32 33  1  0
 33 34  1  0
 34 35  1  0
 35 36  1  0
 36 37  1  0
 37 38  3  0
 33 39  2  0
 39 40  1  0
 40 41  2  0
 20  2  1  0
 30 22  1  0
 41 31  1  0
 18  9  1  0
 29 24  1  0
  1 42  1  0
  1 43  1  0
  1 44  1  0
  3 45  1  0
  4 46  1  0
  8 47  1  0
 10 48  1  0
 11 49  1  0
 12 50  1  0
 18 51  1  0
 19 52  1  0
 21 53  1  0
 25 54  1  0
 26 55  1  0
 27 56  1  0
 28 57  1  0
 32 58  1  0
 34 59  1  0
 35 60  1  0
 35 61  1  0
 36 62  1  0
 36 63  1  0
 40 64  1  0
M  END
>  <meeko>  (5) 
{"is_sidechain": [false], "free_energy": -8.672, "intermolecular_energy": -12.665, "internal_energy": -3.218}

$$$$
LIB_YXYHBHJWEGGSMU__M_PUB_ALL__e8__s20260927
     RDKit          3D

 64 68  0  0  0  0  0  0  0  0999 V2000
    4.8660  -12.5130   -5.9300 C   0  0  0  0  0  0  0  0  0  0  0  0
    3.9820  -12.8190   -4.7480 C   0  0  0  0  0  0  0  0  0  0  0  0
    2.7440  -13.4440   -4.9850 C   0  0  0  0  0  0  0  0  0  0  0  0
    1.8800  -13.7350   -3.9330 C   0  0  0  0  0  0  0  0  0  0  0  0
    2.2500  -13.4020   -2.6310 C   0  0  0  0  0  0  0  0  0  0  0  0
    1.3540  -13.7020   -1.4840 C   0  0  0  0  0  0  0  0  0  0  0  0
    0.4930  -14.5600   -1.6210 O   0  0  0  0  0  0  0  0  0  0  0  0
    1.6240  -12.9610   -0.3480 N   0  0  0  0  0  0  0  0  0  0  0  0
    0.9230  -12.9790    0.8750 C   0  0  0  0  0  0  0  0  0  0  0  0
    1.1670  -14.0560    1.7350 C   0  0  0  0  0  0  0  0  0  0  0  0
    0.5130  -14.1500    2.9650 C   0  0  0  0  0  0  0  0  0  0  0  0
   -0.3920  -13.1620    3.3490 C   0  0  0  0  0  0  0  0  0  0  0  0
   -0.6450  -12.0700    2.5070 C   0  0  0  0  0  0  0  0  0  0  0  0
   -1.6320  -10.9990    2.9000 C   0  0  0  0  0  0  0  0  0  0  0  0
   -1.4010  -10.5060    4.1480 F   0  0  0  0  0  0  0  0  0  0  0  0
   -2.9230  -11.4340    2.8980 F   0  0  0  0  0  0  0  0  0  0  0  0
   -1.6100   -9.9190    2.0670 F   0  0  0  0  0  0  0  0  0  0  0  0
    0.0170  -11.9920    1.2680 C   0  0  0  0  0  0  0  0  0  0  0  0
    3.4870  -12.7980   -2.3800 C   0  0  0  0  0  0  0  0  0  0  0  0
    4.3760  -12.4980   -3.4250 C   0  0  0  0  0  0  0  0  0  0  0  0
    5.6090  -11.8510   -3.2000 N   0  0  0  0  0  0  0  0  0  0  0  0
    6.8390  -12.3980   -3.0160 C   0  0  0  0  0  0  0  0  0  0  0  0
    7.7080  -12.7630   -3.9330 N   0  0  0  0  0  0  0  0  0  0  0  0
    8.7600  -13.3150   -3.2680 C   0  0  0  0  0  0  0  0  0  0  0  0
    9.9230  -13.8900   -3.8030 C   0  0  0  0  0  0  0  0  0  0  0  0
   10.8510  -14.4770   -2.9400 C   0  0  0  0  0  0  0  0  0  0  0  0
   10.6140  -14.5090   -1.5690 C   0  0  0  0  0  0  0  0  0  0  0  0
    9.4630  -13.9320   -1.0170 C   0  0  0  0  0  0  0  0  0  0  0  0
    8.5590  -13.2960   -1.8890 C   0  0  0  0  0  0  0  0  0  0  0  0
    7.3500  -12.6190   -1.7270 N   0  0  0  0  0  0  0  0  0  0  0  0
    6.7210  -12.2000   -0.5070 C   0  0  0  0  0  0  0  0  0  0  0  0
    6.9850  -10.9500    0.0240 C   0  0  0  0  0  0  0  0  0  0  0  0
    6.3480  -10.6110    1.2000 C   0  0  0  0  0  0  0  0  0  0  0  0
    6.5040   -9.4080    1.8350 N   0  0  0  0  0  0  0  0  0  0  0  0
    7.5750   -8.4580    1.6110 C   0  0  0  0  0  0  0  0  0  0  0  0
    7.1970   -7.0530    2.0780 C   0  0  0  0  0  0  0  0  0  0  0  0
    7.2430   -6.9440    3.5400 C   0  0  0  0  0  0  0  0  0  0  0  0
    7.2880   -6.8420    4.6940 N   0  0  0  0  0  0  0  0  0  0  0  0
    5.5020  -11.4510    1.8060 N   0  0  0  0  0  0  0  0  0  0  0  0
    5.2770  -12.6260    1.2100 C   0  0  0  0  0  0  0  0  0  0  0  0
    5.8310  -13.0460    0.0660 N   0  0  0  0  0  0  0  0  0  0  0  0
    5.8495  -12.1726   -5.5739 H   0  0  0  0  0  0  0  0  0  0  0  0
    4.9906  -13.4203   -6.5393 H   0  0  0  0  0  0  0  0  0  0  0  0
    4.4030  -11.7228   -6.5393 H   0  0  0  0  0  0  0  0  0  0  0  0
    2.4554  -13.7058   -6.0137 H   0  0  0  0  0  0  0  0  0  0  0  0
    0.9138  -14.2234   -4.1275 H   0  0  0  0  0  0  0  0  0  0  0  0
    2.4440  -12.3670   -0.3800 H   0  0  0  0  0  0  0  0  0  0  0  0
    1.8822  -14.8373    1.4384 H   0  0  0  0  0  0  0  0  0  0  0  0
    0.7118  -15.0031    3.6304 H   0  0  0  0  0  0  0  0  0  0  0  0
   -0.9097  -13.2394    4.3165 H   0  0  0  0  0  0  0  0  0  0  0  0
   -0.1820  -11.1414    0.5995 H   0  0  0  0  0  0  0  0  0  0  0  0
    3.7683  -12.5536   -1.3450 H   0  0  0  0  0  0  0  0  0  0  0  0
    5.5580  -10.8330   -3.1910 H   0  0  0  0  0  0  0  0  0  0  0  0
   10.1014  -13.8785   -4.8884 H   0  0  0  0  0  0  0  0  0  0  0  0
   11.7741  -14.9164   -3.3461 H   0  0  0  0  0  0  0  0  0  0  0  0
   11.3442  -14.9965   -0.9063 H   0  0  0  0  0  0  0  0  0  0  0  0
    9.2713  -13.9746    0.0653 H   0  0  0  0  0  0  0  0  0  0  0  0
    7.6763  -10.2531   -0.4724 H   0  0  0  0  0  0  0  0  0  0  0  0
    5.7850   -9.2370    2.5300 H   0  0  0  0  0  0  0  0  0  0  0  0
    8.4658   -8.7892    2.1648 H   0  0  0  0  0  0  0  0  0  0  0  0
    7.7732   -8.4162    0.5298 H   0  0  0  0  0  0  0  0  0  0  0  0
    7.9022   -6.3295    1.6429 H   0  0  0  0  0  0  0  0  0  0  0  0
    6.1689   -6.8435    1.7476 H   0  0  0  0  0  0  0  0  0  0  0  0
    4.5722  -13.3104    1.7047 H   0  0  0  0  0  0  0  0  0  0  0  0
  1  2  1  0
  2  3  2  0
  3  4  1  0
  4  5  2  0
  5  6  1  0
  6  7  2  0
  6  8  1  0
  8  9  1  0
  9 10  2  0
 10 11  1  0
 11 12  2  0
 12 13  1  0
 13 14  1  0
 14 15  1  0
 14 16  1  0
 14 17  1  0
 13 18  2  0
  5 19  1  0
 19 20  2  0
 20 21  1  0
 21 22  1  0
 22 23  2  0
 23 24  1  0
 24 25  2  0
 25 26  1  0
 26 27  2  0
 27 28  1  0
 28 29  2  0
 29 30  1  0
 30 31  1  0
 31 32  2  0
 32 33  1  0
 33 34  1  0
 34 35  1  0
 35 36  1  0
 36 37  1  0
 37 38  3  0
 33 39  2  0
 39 40  1  0
 40 41  2  0
 20  2  1  0
 30 22  1  0
 41 31  1  0
 18  9  1  0
 29 24  1  0
  1 42  1  0
  1 43  1  0
  1 44  1  0
  3 45  1  0
  4 46  1  0
  8 47  1  0
 10 48  1  0
 11 49  1  0
 12 50  1  0
 18 51  1  0
 19 52  1  0
 21 53  1  0
 25 54  1  0
 26 55  1  0
 27 56  1  0
 28 57  1  0
 32 58  1  0
 34 59  1  0
 35 60  1  0
 35 61  1  0
 36 62  1  0
 36 63  1  0
 40 64  1  0
M  END
>  <meeko>  (6) 
{"is_sidechain": [false], "free_energy": -8.655, "intermolecular_energy": -13.811, "internal_energy": -2.047}

$$$$
LIB_YXYHBHJWEGGSMU__M_PUB_ALL__e8__s20260927
     RDKit          3D

 64 68  0  0  0  0  0  0  0  0999 V2000
    9.7290  -13.2320  -11.5990 C   0  0  0  0  0  0  0  0  0  0  0  0
   10.1440  -11.7920  -11.4360 C   0  0  0  0  0  0  0  0  0  0  0  0
    9.2260  -10.7890  -11.8010 C   0  0  0  0  0  0  0  0  0  0  0  0
    9.5600   -9.4420  -11.6870 C   0  0  0  0  0  0  0  0  0  0  0  0
   10.8210   -9.0880  -11.2060 C   0  0  0  0  0  0  0  0  0  0  0  0
   11.2080   -7.6600  -11.0680 C   0  0  0  0  0  0  0  0  0  0  0  0
   11.1820   -7.1480   -9.9570 O   0  0  0  0  0  0  0  0  0  0  0  0
   11.5880   -7.0620  -12.2560 N   0  0  0  0  0  0  0  0  0  0  0  0
   11.9570   -5.7170  -12.4600 C   0  0  0  0  0  0  0  0  0  0  0  0
   13.3220   -5.4120  -12.4060 C   0  0  0  0  0  0  0  0  0  0  0  0
   13.7700   -4.1040  -12.5960 C   0  0  0  0  0  0  0  0  0  0  0  0
   12.8550   -3.0840  -12.8470 C   0  0  0  0  0  0  0  0  0  0  0  0
   11.4840   -3.3670  -12.9140 C   0  0  0  0  0  0  0  0  0  0  0  0
   10.4770   -2.2730  -13.1700 C   0  0  0  0  0  0  0  0  0  0  0  0
    9.2030   -2.6540  -12.8730 F   0  0  0  0  0  0  0  0  0  0  0  0
   10.4550   -1.8590  -14.4670 F   0  0  0  0  0  0  0  0  0  0  0  0
   10.7070   -1.1490  -12.4320 F   0  0  0  0  0  0  0  0  0  0  0  0
   11.0450   -4.6890  -12.7140 C   0  0  0  0  0  0  0  0  0  0  0  0
   11.7340  -10.0750  -10.8220 C   0  0  0  0  0  0  0  0  0  0  0  0
   11.4170  -11.4390  -10.9240 C   0  0  0  0  0  0  0  0  0  0  0  0
   12.3380  -12.4520  -10.5840 N   0  0  0  0  0  0  0  0  0  0  0  0
   13.3040  -13.0200  -11.3530 C   0  0  0  0  0  0  0  0  0  0  0  0
   13.8000  -12.5780  -12.4870 N   0  0  0  0  0  0  0  0  0  0  0  0
   14.6900  -13.5170  -12.9100 C   0  0  0  0  0  0  0  0  0  0  0  0
   15.4520  -13.5270  -14.0890 C   0  0  0  0  0  0  0  0  0  0  0  0
   16.2520  -14.6360  -14.3730 C   0  0  0  0  0  0  0  0  0  0  0  0
   16.2780  -15.7250  -13.5070 C   0  0  0  0  0  0  0  0  0  0  0  0
   15.5320  -15.7280  -12.3220 C   0  0  0  0  0  0  0  0  0  0  0  0
   14.7680  -14.5850  -12.0180 C   0  0  0  0  0  0  0  0  0  0  0  0
   13.9330  -14.2140  -10.9640 N   0  0  0  0  0  0  0  0  0  0  0  0
   13.7310  -14.8820   -9.7090 C   0  0  0  0  0  0  0  0  0  0  0  0
   14.2590  -14.3560   -8.5440 C   0  0  0  0  0  0  0  0  0  0  0  0
   14.0290  -15.0480   -7.3730 C   0  0  0  0  0  0  0  0  0  0  0  0
   14.4800  -14.6440   -6.1440 N   0  0  0  0  0  0  0  0  0  0  0  0
   13.6580  -14.1930   -5.0400 C   0  0  0  0  0  0  0  0  0  0  0  0
   14.2560  -12.9690   -4.3470 C   0  0  0  0  0  0  0  0  0  0  0  0
   13.2320  -12.2150   -3.6150 C   0  0  0  0  0  0  0  0  0  0  0  0
   12.4340  -11.6180   -3.0220 N   0  0  0  0  0  0  0  0  0  0  0  0
   13.3210  -16.1830   -7.3560 N   0  0  0  0  0  0  0  0  0  0  0  0
   12.8190  -16.6050   -8.5200 C   0  0  0  0  0  0  0  0  0  0  0  0
   12.9710  -16.0030   -9.7070 N   0  0  0  0  0  0  0  0  0  0  0  0
    9.5970  -13.6900  -10.6076 H   0  0  0  0  0  0  0  0  0  0  0  0
    8.7806  -13.2797  -12.1542 H   0  0  0  0  0  0  0  0  0  0  0  0
   10.5066  -13.7771  -12.1542 H   0  0  0  0  0  0  0  0  0  0  0  0
    8.2333  -11.0727  -12.1807 H   0  0  0  0  0  0  0  0  0  0  0  0
    8.8366   -8.6644  -11.9734 H   0  0  0  0  0  0  0  0  0  0  0  0
   11.6500   -7.6660  -13.0670 H   0  0  0  0  0  0  0  0  0  0  0  0
   14.0504   -6.2130  -12.2115 H   0  0  0  0  0  0  0  0  0  0  0  0
   14.8455   -3.8785  -12.5476 H   0  0  0  0  0  0  0  0  0  0  0  0
   13.2097   -2.0531  -12.9931 H   0  0  0  0  0  0  0  0  0  0  0  0
    9.9696   -4.9162  -12.7582 H   0  0  0  0  0  0  0  0  0  0  0  0
   12.7188   -9.7773  -10.4328 H   0  0  0  0  0  0  0  0  0  0  0  0
   12.2690  -12.7840   -9.6220 H   0  0  0  0  0  0  0  0  0  0  0  0
   15.4194  -12.6721  -14.7804 H   0  0  0  0  0  0  0  0  0  0  0  0
   16.8650  -14.6487  -15.2863 H   0  0  0  0  0  0  0  0  0  0  0  0
   16.8960  -16.5997  -13.7580 H   0  0  0  0  0  0  0  0  0  0  0  0
   15.5425  -16.5976  -11.6485 H   0  0  0  0  0  0  0  0  0  0  0  0
   14.8399  -13.4219   -8.5509 H   0  0  0  0  0  0  0  0  0  0  0  0
   15.4920  -14.6650   -6.0730 H   0  0  0  0  0  0  0  0  0  0  0  0
   12.6601  -13.9328   -5.4227 H   0  0  0  0  0  0  0  0  0  0  0  0
   13.6001  -15.0076   -4.3031 H   0  0  0  0  0  0  0  0  0  0  0  0
   15.0303  -13.3008   -3.6396 H   0  0  0  0  0  0  0  0  0  0  0  0
   14.6865  -12.3113   -5.1164 H   0  0  0  0  0  0  0  0  0  0  0  0
   12.2266  -17.5317   -8.5020 H   0  0  0  0  0  0  0  0  0  0  0  0
  1  2  1  0
  2  3  2  0
  3  4  1  0
  4  5  2  0
  5  6  1  0
  6  7  2  0
  6  8  1  0
  8  9  1  0
  9 10  2  0
 10 11  1  0
 11 12  2  0
 12 13  1  0
 13 14  1  0
 14 15  1  0
 14 16  1  0
 14 17  1  0
 13 18  2  0
  5 19  1  0
 19 20  2  0
 20 21  1  0
 21 22  1  0
 22 23  2  0
 23 24  1  0
 24 25  2  0
 25 26  1  0
 26 27  2  0
 27 28  1  0
 28 29  2  0
 29 30  1  0
 30 31  1  0
 31 32  2  0
 32 33  1  0
 33 34  1  0
 34 35  1  0
 35 36  1  0
 36 37  1  0
 37 38  3  0
 33 39  2  0
 39 40  1  0
 40 41  2  0
 20  2  1  0
 30 22  1  0
 41 31  1  0
 18  9  1  0
 29 24  1  0
  1 42  1  0
  1 43  1  0
  1 44  1  0
  3 45  1  0
  4 46  1  0
  8 47  1  0
 10 48  1  0
 11 49  1  0
 12 50  1  0
 18 51  1  0
 19 52  1  0
 21 53  1  0
 25 54  1  0
 26 55  1  0
 27 56  1  0
 28 57  1  0
 32 58  1  0
 34 59  1  0
 35 60  1  0
 35 61  1  0
 36 62  1  0
 36 63  1  0
 40 64  1  0
M  END
>  <meeko>  (7) 
{"is_sidechain": [false], "free_energy": -8.547, "intermolecular_energy": -14.185, "internal_energy": -1.509}

$$$$
LIB_YXYHBHJWEGGSMU__M_PUB_ALL__e8__s20260927
     RDKit          3D

 64 68  0  0  0  0  0  0  0  0999 V2000
   -1.3130  -17.5140    1.2710 C   0  0  0  0  0  0  0  0  0  0  0  0
   -0.3900  -16.7940    0.3210 C   0  0  0  0  0  0  0  0  0  0  0  0
    0.7730  -17.4580   -0.1100 C   0  0  0  0  0  0  0  0  0  0  0  0
    1.6700  -16.8350   -0.9740 C   0  0  0  0  0  0  0  0  0  0  0  0
    1.4080  -15.5390   -1.4150 C   0  0  0  0  0  0  0  0  0  0  0  0
    2.3410  -14.8470   -2.3410 C   0  0  0  0  0  0  0  0  0  0  0  0
    3.3950  -15.3960   -2.6320 O   0  0  0  0  0  0  0  0  0  0  0  0
    1.8800  -13.6250   -2.7980 N   0  0  0  0  0  0  0  0  0  0  0  0
    2.5520  -12.7140   -3.6380 C   0  0  0  0  0  0  0  0  0  0  0  0
    2.3910  -11.3510   -3.3630 C   0  0  0  0  0  0  0  0  0  0  0  0
    3.0220  -10.3850   -4.1480 C   0  0  0  0  0  0  0  0  0  0  0  0
    3.8260  -10.7730   -5.2170 C   0  0  0  0  0  0  0  0  0  0  0  0
    4.0090  -12.1320   -5.5070 C   0  0  0  0  0  0  0  0  0  0  0  0
    4.8640  -12.5710   -6.6690 C   0  0  0  0  0  0  0  0  0  0  0  0
    5.3550  -11.5210   -7.3840 F   0  0  0  0  0  0  0  0  0  0  0  0
    4.1950  -13.3550   -7.5590 F   0  0  0  0  0  0  0  0  0  0  0  0
    5.9530  -13.3000   -6.2880 F   0  0  0  0  0  0  0  0  0  0  0  0
    3.3620  -13.0960   -4.7100 C   0  0  0  0  0  0  0  0  0  0  0  0
    0.2440  -14.8760   -1.0090 C   0  0  0  0  0  0  0  0  0  0  0  0
   -0.6760  -15.4850   -0.1420 C   0  0  0  0  0  0  0  0  0  0  0  0
   -1.8330  -14.8190    0.3140 N   0  0  0  0  0  0  0  0  0  0  0  0
   -1.9510  -13.5620    0.8150 C   0  0  0  0  0  0  0  0  0  0  0  0
   -2.3180  -12.4700    0.1810 N   0  0  0  0  0  0  0  0  0  0  0  0
   -2.2220  -11.4520    1.0810 C   0  0  0  0  0  0  0  0  0  0  0  0
   -2.4660  -10.0850    0.8780 C   0  0  0  0  0  0  0  0  0  0  0  0
   -2.2290   -9.1890    1.9230 C   0  0  0  0  0  0  0  0  0  0  0  0
   -1.7380   -9.6450    3.1430 C   0  0  0  0  0  0  0  0  0  0  0  0
   -1.4980  -11.0070    3.3650 C   0  0  0  0  0  0  0  0  0  0  0  0
   -1.7890  -11.9090    2.3240 C   0  0  0  0  0  0  0  0  0  0  0  0
   -1.7010  -13.2930    2.1700 N   0  0  0  0  0  0  0  0  0  0  0  0
   -1.4240  -14.2840    3.1700 C   0  0  0  0  0  0  0  0  0  0  0  0
   -2.4360  -15.0970    3.6500 C   0  0  0  0  0  0  0  0  0  0  0  0
   -2.1010  -16.0280    4.6110 C   0  0  0  0  0  0  0  0  0  0  0  0
   -2.9930  -16.9050    5.1700 N   0  0  0  0  0  0  0  0  0  0  0  0
   -4.3110  -17.2220    4.6590 C   0  0  0  0  0  0  0  0  0  0  0  0
   -5.4100  -16.4730    5.4110 C   0  0  0  0  0  0  0  0  0  0  0  0
   -5.0770  -16.3190    6.8320 C   0  0  0  0  0  0  0  0  0  0  0  0
   -4.8200  -16.1810    7.9540 N   0  0  0  0  0  0  0  0  0  0  0  0
   -0.8490  -16.1500    5.0640 N   0  0  0  0  0  0  0  0  0  0  0  0
    0.0750  -15.3490    4.5250 C   0  0  0  0  0  0  0  0  0  0  0  0
   -0.1400  -14.4240    3.5810 N   0  0  0  0  0  0  0  0  0  0  0  0
   -1.0222  -17.2872    2.3073 H   0  0  0  0  0  0  0  0  0  0  0  0
   -2.3475  -17.1819    1.0994 H   0  0  0  0  0  0  0  0  0  0  0  0
   -1.2427  -18.5983    1.0994 H   0  0  0  0  0  0  0  0  0  0  0  0
    0.9761  -18.4810    0.2395 H   0  0  0  0  0  0  0  0  0  0  0  0
    2.5774  -17.3611   -1.3055 H   0  0  0  0  0  0  0  0  0  0  0  0
    0.9360  -13.3710   -2.5340 H   0  0  0  0  0  0  0  0  0  0  0  0
    1.7598  -11.0377   -2.5184 H   0  0  0  0  0  0  0  0  0  0  0  0
    2.8844   -9.3172   -3.9225 H   0  0  0  0  0  0  0  0  0  0  0  0
    4.3195  -10.0096   -5.8364 H   0  0  0  0  0  0  0  0  0  0  0  0
    3.4963  -14.1644   -4.9347 H   0  0  0  0  0  0  0  0  0  0  0  0
    0.0467  -13.8582   -1.3766 H   0  0  0  0  0  0  0  0  0  0  0  0
   -2.6920  -15.3620    0.2390 H   0  0  0  0  0  0  0  0  0  0  0  0
   -2.8391   -9.7237   -0.0917 H   0  0  0  0  0  0  0  0  0  0  0  0
   -2.4315   -8.1172    1.7810 H   0  0  0  0  0  0  0  0  0  0  0  0
   -1.5348   -8.9227    3.9473 H   0  0  0  0  0  0  0  0  0  0  0  0
   -1.0939  -11.3615    4.3247 H   0  0  0  0  0  0  0  0  0  0  0  0
   -3.4675  -15.0043    3.2794 H   0  0  0  0  0  0  0  0  0  0  0  0
   -2.6480  -17.3190    6.0290 H   0  0  0  0  0  0  0  0  0  0  0  0
   -4.3559  -16.9451    3.5954 H   0  0  0  0  0  0  0  0  0  0  0  0
   -4.4790  -18.3004    4.7959 H   0  0  0  0  0  0  0  0  0  0  0  0
   -5.5351  -15.4763    4.9627 H   0  0  0  0  0  0  0  0  0  0  0  0
   -6.3403  -17.0549    5.3345 H   0  0  0  0  0  0  0  0  0  0  0  0
    1.1067  -15.4597    4.8903 H   0  0  0  0  0  0  0  0  0  0  0  0
  1  2  1  0
  2  3  2  0
  3  4  1  0
  4  5  2  0
  5  6  1  0
  6  7  2  0
  6  8  1  0
  8  9  1  0
  9 10  2  0
 10 11  1  0
 11 12  2  0
 12 13  1  0
 13 14  1  0
 14 15  1  0
 14 16  1  0
 14 17  1  0
 13 18  2  0
  5 19  1  0
 19 20  2  0
 20 21  1  0
 21 22  1  0
 22 23  2  0
 23 24  1  0
 24 25  2  0
 25 26  1  0
 26 27  2  0
 27 28  1  0
 28 29  2  0
 29 30  1  0
 30 31  1  0
 31 32  2  0
 32 33  1  0
 33 34  1  0
 34 35  1  0
 35 36  1  0
 36 37  1  0
 37 38  3  0
 33 39  2  0
 39 40  1  0
 40 41  2  0
 20  2  1  0
 30 22  1  0
 41 31  1  0
 18  9  1  0
 29 24  1  0
  1 42  1  0
  1 43  1  0
  1 44  1  0
  3 45  1  0
  4 46  1  0
  8 47  1  0
 10 48  1  0
 11 49  1  0
 12 50  1  0
 18 51  1  0
 19 52  1  0
 21 53  1  0
 25 54  1  0
 26 55  1  0
 27 56  1  0
 28 57  1  0
 32 58  1  0
 34 59  1  0
 35 60  1  0
 35 61  1  0
 36 62  1  0
 36 63  1  0
 40 64  1  0
M  END
>  <meeko>  (8) 
{"is_sidechain": [false], "free_energy": -8.432, "intermolecular_energy": -13.475, "internal_energy": -2.042}

$$$$
LIB_YXYHBHJWEGGSMU__M_PUB_ALL__e8__s20260927
     RDKit          3D

 64 68  0  0  0  0  0  0  0  0999 V2000
   12.7330  -11.1590   -0.0350 C   0  0  0  0  0  0  0  0  0  0  0  0
   12.7080  -11.9110   -1.3410 C   0  0  0  0  0  0  0  0  0  0  0  0
   13.5370  -11.4610   -2.3860 C   0  0  0  0  0  0  0  0  0  0  0  0
   13.5430  -12.1060   -3.6190 C   0  0  0  0  0  0  0  0  0  0  0  0
   12.7150  -13.2110   -3.8180 C   0  0  0  0  0  0  0  0  0  0  0  0
   12.7000  -13.9250   -5.1210 C   0  0  0  0  0  0  0  0  0  0  0  0
   13.7650  -14.2570   -5.6220 O   0  0  0  0  0  0  0  0  0  0  0  0
   11.4310  -14.1570   -5.6210 N   0  0  0  0  0  0  0  0  0  0  0  0
   11.0910  -14.7600   -6.8490 C   0  0  0  0  0  0  0  0  0  0  0  0
   11.1070  -16.1590   -6.9010 C   0  0  0  0  0  0  0  0  0  0  0  0
   10.7830  -16.8340   -8.0790 C   0  0  0  0  0  0  0  0  0  0  0  0
   10.4350  -16.1150   -9.2200 C   0  0  0  0  0  0  0  0  0  0  0  0
   10.4030  -14.7140   -9.1890 C   0  0  0  0  0  0  0  0  0  0  0  0
   10.0430  -13.9180  -10.4190 C   0  0  0  0  0  0  0  0  0  0  0  0
   10.8980  -14.1400  -11.4550 F   0  0  0  0  0  0  0  0  0  0  0  0
   10.0490  -12.5730  -10.2060 F   0  0  0  0  0  0  0  0  0  0  0  0
    8.7990  -14.2060  -10.8990 F   0  0  0  0  0  0  0  0  0  0  0  0
   10.7380  -14.0460   -7.9960 C   0  0  0  0  0  0  0  0  0  0  0  0
   11.9010  -13.6790   -2.7810 C   0  0  0  0  0  0  0  0  0  0  0  0
   11.8820  -13.0470   -1.5280 C   0  0  0  0  0  0  0  0  0  0  0  0
   11.0370  -13.4760   -0.4830 N   0  0  0  0  0  0  0  0  0  0  0  0
    9.7580  -13.1040   -0.2120 C   0  0  0  0  0  0  0  0  0  0  0  0
    9.3470  -12.1080    0.5410 N   0  0  0  0  0  0  0  0  0  0  0  0
    7.9880  -12.1750    0.5600 C   0  0  0  0  0  0  0  0  0  0  0  0
    7.0850  -11.3570    1.2560 C   0  0  0  0  0  0  0  0  0  0  0  0
    5.7200  -11.6490    1.2030 C   0  0  0  0  0  0  0  0  0  0  0  0
    5.2640  -12.7510    0.4840 C   0  0  0  0  0  0  0  0  0  0  0  0
    6.1510  -13.5720   -0.2250 C   0  0  0  0  0  0  0  0  0  0  0  0
    7.5190  -13.2400   -0.2080 C   0  0  0  0  0  0  0  0  0  0  0  0
    8.6690  -13.7840   -0.7800 N   0  0  0  0  0  0  0  0  0  0  0  0
    8.7670  -14.8260   -1.7620 C   0  0  0  0  0  0  0  0  0  0  0  0
    8.2630  -14.6350   -3.0360 C   0  0  0  0  0  0  0  0  0  0  0  0
    8.3890  -15.6770   -3.9320 C   0  0  0  0  0  0  0  0  0  0  0  0
    7.9480  -15.6290   -5.2280 N   0  0  0  0  0  0  0  0  0  0  0  0
    7.3360  -14.4890   -5.8790 C   0  0  0  0  0  0  0  0  0  0  0  0
    7.1880  -14.7040   -7.3850 C   0  0  0  0  0  0  0  0  0  0  0  0
    7.1120  -16.1310   -7.7170 C   0  0  0  0  0  0  0  0  0  0  0  0
    7.0380  -17.2560   -7.9900 N   0  0  0  0  0  0  0  0  0  0  0  0
    8.9790  -16.8280   -3.5910 N   0  0  0  0  0  0  0  0  0  0  0  0
    9.4680  -16.9180   -2.3500 C   0  0  0  0  0  0  0  0  0  0  0  0
    9.4100  -15.9660   -1.4110 N   0  0  0  0  0  0  0  0  0  0  0  0
   12.7092  -11.8742    0.8004 H   0  0  0  0  0  0  0  0  0  0  0  0
   13.6517  -10.5568    0.0239 H   0  0  0  0  0  0  0  0  0  0  0  0
   11.8564  -10.4972    0.0239 H   0  0  0  0  0  0  0  0  0  0  0  0
   14.1880  -10.5889   -2.2259 H   0  0  0  0  0  0  0  0  0  0  0  0
   14.1948  -11.7478   -4.4295 H   0  0  0  0  0  0  0  0  0  0  0  0
   10.6550  -13.9050   -5.0210 H   0  0  0  0  0  0  0  0  0  0  0  0
   11.3782  -16.7331   -6.0027 H   0  0  0  0  0  0  0  0  0  0  0  0
   10.8025  -17.9335   -8.1062 H   0  0  0  0  0  0  0  0  0  0  0  0
   10.1844  -16.6485  -10.1487 H   0  0  0  0  0  0  0  0  0  0  0  0
   10.7215  -12.9465   -7.9669 H   0  0  0  0  0  0  0  0  0  0  0  0
   11.2636  -14.5592   -2.9509 H   0  0  0  0  0  0  0  0  0  0  0  0
   11.4490  -14.1710    0.1390 H   0  0  0  0  0  0  0  0  0  0  0  0
    7.4477  -10.4959    1.8365 H   0  0  0  0  0  0  0  0  0  0  0  0
    5.0017  -11.0053    1.7318 H   0  0  0  0  0  0  0  0  0  0  0  0
    4.1884  -12.9811    0.4724 H   0  0  0  0  0  0  0  0  0  0  0  0
    5.7888  -14.4506   -0.7789 H   0  0  0  0  0  0  0  0  0  0  0  0
    7.7805  -13.6893   -3.3237 H   0  0  0  0  0  0  0  0  0  0  0  0
    8.0680  -16.5120   -5.7140 H   0  0  0  0  0  0  0  0  0  0  0  0
    6.3394  -14.3237   -5.4438 H   0  0  0  0  0  0  0  0  0  0  0  0
    7.9872  -13.6166   -5.7217 H   0  0  0  0  0  0  0  0  0  0  0  0
    6.2688  -14.2071   -7.7289 H   0  0  0  0  0  0  0  0  0  0  0  0
    8.0715  -14.2790   -7.8839 H   0  0  0  0  0  0  0  0  0  0  0  0
    9.9635  -17.8609   -2.0755 H   0  0  0  0  0  0  0  0  0  0  0  0
  1  2  1  0
  2  3  2  0
  3  4  1  0
  4  5  2  0
  5  6  1  0
  6  7  2  0
  6  8  1  0
  8  9  1  0
  9 10  2  0
 10 11  1  0
 11 12  2  0
 12 13  1  0
 13 14  1  0
 14 15  1  0
 14 16  1  0
 14 17  1  0
 13 18  2  0
  5 19  1  0
 19 20  2  0
 20 21  1  0
 21 22  1  0
 22 23  2  0
 23 24  1  0
 24 25  2  0
 25 26  1  0
 26 27  2  0
 27 28  1  0
 28 29  2  0
 29 30  1  0
 30 31  1  0
 31 32  2  0
 32 33  1  0
 33 34  1  0
 34 35  1  0
 35 36  1  0
 36 37  1  0
 37 38  3  0
 33 39  2  0
 39 40  1  0
 40 41  2  0
 20  2  1  0
 30 22  1  0
 41 31  1  0
 18  9  1  0
 29 24  1  0
  1 42  1  0
  1 43  1  0
  1 44  1  0
  3 45  1  0
  4 46  1  0
  8 47  1  0
 10 48  1  0
 11 49  1  0
 12 50  1  0
 18 51  1  0
 19 52  1  0
 21 53  1  0
 25 54  1  0
 26 55  1  0
 27 56  1  0
 28 57  1  0
 32 58  1  0
 34 59  1  0
 35 60  1  0
 35 61  1  0
 36 62  1  0
 36 63  1  0
 40 64  1  0
M  END
>  <meeko>  (9) 
{"is_sidechain": [false], "free_energy": -8.27, "intermolecular_energy": -11.721, "internal_energy": -3.549}

$$$$
