LIB_FILQIUCXPQZUON__M_PUB_ALL__e8__s20260927
     RDKit          3D

 85 90  0  0  0  0  0  0  0  0999 V2000
    9.2880  -13.1860  -10.2930 C   0  0  0  0  0  0  0  0  0  0  0  0
    9.9800  -11.9230  -10.7360 C   0  0  0  0  0  0  0  0  0  0  0  0
    9.2510  -10.9750  -11.4740 C   0  0  0  0  0  0  0  0  0  0  0  0
    9.8310   -9.7660  -11.8670 C   0  0  0  0  0  0  0  0  0  0  0  0
   11.1600   -9.5010  -11.5530 C   0  0  0  0  0  0  0  0  0  0  0  0
   11.7250   -8.2800  -11.9700 N   0  0  0  0  0  0  0  0  0  0  0  0
   11.4580   -7.0430  -11.4100 C   0  0  0  0  0  0  0  0  0  0  0  0
   11.0160   -6.8800  -10.2700 O   0  0  0  0  0  0  0  0  0  0  0  0
   11.8660   -5.8680  -12.2320 C   0  0  0  0  0  0  0  0  0  0  0  0
   12.5330   -6.0850  -13.4430 C   0  0  0  0  0  0  0  0  0  0  0  0
   12.9320   -5.0010  -14.2260 C   0  0  0  0  0  0  0  0  0  0  0  0
   12.6750   -3.6970  -13.7990 C   0  0  0  0  0  0  0  0  0  0  0  0
   12.0190   -3.4590  -12.5830 C   0  0  0  0  0  0  0  0  0  0  0  0
   11.7750   -2.0480  -12.0970 C   0  0  0  0  0  0  0  0  0  0  0  0
   11.7430   -1.9740  -10.7380 F   0  0  0  0  0  0  0  0  0  0  0  0
   12.7520   -1.1940  -12.5010 F   0  0  0  0  0  0  0  0  0  0  0  0
   10.5990   -1.5250  -12.5330 F   0  0  0  0  0  0  0  0  0  0  0  0
   11.6260   -4.5570  -11.7960 C   0  0  0  0  0  0  0  0  0  0  0  0
   11.8750  -10.4220  -10.7870 C   0  0  0  0  0  0  0  0  0  0  0  0
   11.3120  -11.6450  -10.3750 C   0  0  0  0  0  0  0  0  0  0  0  0
   12.0470  -12.5400   -9.5740 N   0  0  0  0  0  0  0  0  0  0  0  0
   12.9940  -13.4150  -10.0010 C   0  0  0  0  0  0  0  0  0  0  0  0
   13.6130  -13.4280  -11.1610 N   0  0  0  0  0  0  0  0  0  0  0  0
   14.5230  -14.4450  -11.0960 C   0  0  0  0  0  0  0  0  0  0  0  0
   15.4940  -14.8240  -12.0340 C   0  0  0  0  0  0  0  0  0  0  0  0
   16.3420  -15.8950  -11.7340 C   0  0  0  0  0  0  0  0  0  0  0  0
   16.2290  -16.5740  -10.5210 C   0  0  0  0  0  0  0  0  0  0  0  0
   15.2590  -16.2170   -9.5780 C   0  0  0  0  0  0  0  0  0  0  0  0
   14.4010  -15.1540   -9.9030 C   0  0  0  0  0  0  0  0  0  0  0  0
   13.3410  -14.5410   -9.2510 N   0  0  0  0  0  0  0  0  0  0  0  0
   12.5340  -15.0680   -8.1970 C   0  0  0  0  0  0  0  0  0  0  0  0
   13.0790  -15.1270   -6.9280 C   0  0  0  0  0  0  0  0  0  0  0  0
   12.4780  -15.9960   -6.0370 C   0  0  0  0  0  0  0  0  0  0  0  0
   13.1910  -16.3740   -4.9060 N   0  0  0  0  0  0  0  0  0  0  0  0
   12.5290  -16.5980   -3.6240 C   0  0  0  0  0  0  0  0  0  0  0  0
   13.2960  -15.9000   -2.4960 C   0  0  0  0  0  0  0  0  0  0  0  0
   12.4350  -15.4520   -1.3120 C   0  0  0  0  0  0  0  0  0  0  0  0
   12.2680  -13.9460   -1.2420 N   0  0  0  0  0  0  0  0  0  0  0  0
   11.1820  -13.3530   -2.1470 C   0  0  0  0  0  0  0  0  0  0  0  0
    9.9360  -12.8930   -1.3540 C   0  0  0  0  0  0  0  0  0  0  0  0
   10.2800  -11.8960   -0.2560 N   0  0  0  0  0  0  0  0  0  0  0  0
    9.2520  -11.8790    0.8460 C   0  0  0  0  0  0  0  0  0  0  0  0
   11.7080  -11.9840    0.2600 C   0  0  0  0  0  0  0  0  0  0  0  0
   12.2220  -13.4360    0.1990 C   0  0  0  0  0  0  0  0  0  0  0  0
   11.3810  -16.6910   -6.3670 N   0  0  0  0  0  0  0  0  0  0  0  0
   10.8160  -16.4210   -7.5510 C   0  0  0  0  0  0  0  0  0  0  0  0
   11.3970  -15.7250   -8.5260 N   0  0  0  0  0  0  0  0  0  0  0  0
    9.2661  -13.2259   -9.1939 H   0  0  0  0  0  0  0  0  0  0  0  0
    8.2587  -13.1955  -10.6808 H   0  0  0  0  0  0  0  0  0  0  0  0
    9.8340  -14.0586  -10.6808 H   0  0  0  0  0  0  0  0  0  0  0  0
    8.2069  -11.1881  -11.7467 H   0  0  0  0  0  0  0  0  0  0  0  0
    9.2379   -9.0254  -12.4235 H   0  0  0  0  0  0  0  0  0  0  0  0
   12.4030   -8.3320  -12.7240 H   0  0  0  0  0  0  0  0  0  0  0  0
   12.7430   -7.1114  -13.7781 H   0  0  0  0  0  0  0  0  0  0  0  0
   13.4497   -5.1743  -15.1810 H   0  0  0  0  0  0  0  0  0  0  0  0
   12.9904   -2.8477  -14.4229 H   0  0  0  0  0  0  0  0  0  0  0  0
   11.1265   -4.3857  -10.8310 H   0  0  0  0  0  0  0  0  0  0  0  0
   12.9092  -10.1857  -10.4963 H   0  0  0  0  0  0  0  0  0  0  0  0
   11.8780  -12.4840   -8.5710 H   0  0  0  0  0  0  0  0  0  0  0  0
   15.5872  -14.2878  -12.9900 H   0  0  0  0  0  0  0  0  0  0  0  0
   17.1059  -16.2050  -12.4622 H   0  0  0  0  0  0  0  0  0  0  0  0
   16.9150  -17.4054  -10.3017 H   0  0  0  0  0  0  0  0  0  0  0  0
   15.1719  -16.7486   -8.6189 H   0  0  0  0  0  0  0  0  0  0  0  0
   13.9464  -14.5139   -6.6420 H   0  0  0  0  0  0  0  0  0  0  0  0
   14.1010  -15.9130   -4.8220 H   0  0  0  0  0  0  0  0  0  0  0  0
   11.5062  -16.1958   -3.6694 H   0  0  0  0  0  0  0  0  0  0  0  0
   12.5023  -17.6788   -3.4209 H   0  0  0  0  0  0  0  0  0  0  0  0
   14.0589  -16.5971   -2.1192 H   0  0  0  0  0  0  0  0  0  0  0  0
   13.7207  -14.9840   -2.9326 H   0  0  0  0  0  0  0  0  0  0  0  0
   11.4402  -15.9117   -1.4073 H   0  0  0  0  0  0  0  0  0  0  0  0
   12.9462  -15.7712   -0.3918 H   0  0  0  0  0  0  0  0  0  0  0  0
   13.1650  -13.6060   -1.6270 H   0  0  0  0  0  0  0  0  0  0  0  0
   11.6010  -12.4864   -2.6795 H   0  0  0  0  0  0  0  0  0  0  0  0
   10.8619  -14.1406   -2.8450 H   0  0  0  0  0  0  0  0  0  0  0  0
    9.2287  -12.4200   -2.0512 H   0  0  0  0  0  0  0  0  0  0  0  0
    9.4980  -13.7808   -0.8745 H   0  0  0  0  0  0  0  0  0  0  0  0
   10.1770  -10.9360   -0.6740 H   0  0  0  0  0  0  0  0  0  0  0  0
    9.7601  -11.8874    1.8216 H   0  0  0  0  0  0  0  0  0  0  0  0
    8.6377  -10.9706    0.7604 H   0  0  0  0  0  0  0  0  0  0  0  0
    8.6079  -12.7666    0.7604 H   0  0  0  0  0  0  0  0  0  0  0  0
   12.3554  -11.3457   -0.3591 H   0  0  0  0  0  0  0  0  0  0  0  0
   11.7268  -11.6464    1.3067 H   0  0  0  0  0  0  0  0  0  0  0  0
   13.2347  -13.4764    0.6265 H   0  0  0  0  0  0  0  0  0  0  0  0
   11.5333  -14.0738    0.7725 H   0  0  0  0  0  0  0  0  0  0  0  0
    9.7996  -16.8014   -7.7306 H   0  0  0  0  0  0  0  0  0  0  0  0
  1  2  1  0
  2  3  2  0
  3  4  1  0
  4  5  2  0
  5  6  1  0
  6  7  1  0
  7  8  2  0
  7  9  1  0
  9 10  2  0
 10 11  1  0
 11 12  2  0
 12 13  1  0
 13 14  1  0
 14 15  1  0
 14 16  1  0
 14 17  1  0
 13 18  2  0
  5 19  1  0
 19 20  2  0
 20 21  1  0
 21 22  1  0
 22 23  2  0
 23 24  1  0
 24 25  2  0
 25 26  1  0
 26 27  2  0
 27 28  1  0
 28 29  2  0
 29 30  1  0
 30 31  1  0
 31 32  2  0
 32 33  1  0
 33 34  1  0
 34 35  1  0
 35 36  1  0
 36 37  1  0
 37 38  1  0
 38 39  1  0
 39 40  1  0
 40 41  1  0
 41 42  1  0
 41 43  1  0
 43 44  1  0
 33 45  2  0
 45 46  1  0
 46 47  2  0
 20  2  1  0
 30 22  1  0
 47 31  1  0
 18  9  1  0
 29 24  1  0
 44 38  1  0
  1 48  1  0
  1 49  1  0
  1 50  1  0
  3 51  1  0
  4 52  1  0
  6 53  1  0
 10 54  1  0
 11 55  1  0
 12 56  1  0
 18 57  1  0
 19 58  1  0
 21 59  1  0
 25 60  1  0
 26 61  1  0
 27 62  1  0
 28 63  1  0
 32 64  1  0
 34 65  1  0
 35 66  1  0
 35 67  1  0
 36 68  1  0
 36 69  1  0
 37 70  1  0
 37 71  1  0
 38 72  1  0
 39 73  1  0
 39 74  1  0
 40 75  1  0
 40 76  1  0
 41 77  1  0
 42 78  1  0
 42 79  1  0
 42 80  1  0
 43 81  1  0
 43 82  1  0
 44 83  1  0
 44 84  1  0
 46 85  1  0
M  CHG  2  38   1  41   1
M  END
>  <meeko>  (1) 
{"is_sidechain": [false], "free_energy": -10.319, "intermolecular_energy": -16.955, "internal_energy": -1.918}

$$$$
LIB_FILQIUCXPQZUON__M_PUB_ALL__e8__s20260927
     RDKit          3D

 85 90  0  0  0  0  0  0  0  0999 V2000
    2.0250  -10.5510   -2.5830 C   0  0  0  0  0  0  0  0  0  0  0  0
    2.7270  -11.4390   -3.5780 C   0  0  0  0  0  0  0  0  0  0  0  0
    3.2910  -10.8560   -4.7260 C   0  0  0  0  0  0  0  0  0  0  0  0
    3.9940  -11.6270   -5.6550 C   0  0  0  0  0  0  0  0  0  0  0  0
    4.1200  -12.9990   -5.4640 C   0  0  0  0  0  0  0  0  0  0  0  0
    4.8250  -13.7560   -6.4190 N   0  0  0  0  0  0  0  0  0  0  0  0
    6.1990  -13.9090   -6.4620 C   0  0  0  0  0  0  0  0  0  0  0  0
    6.9440  -13.7450   -5.4930 O   0  0  0  0  0  0  0  0  0  0  0  0
    6.7440  -14.4300   -7.7480 C   0  0  0  0  0  0  0  0  0  0  0  0
    7.4380  -15.6450   -7.7490 C   0  0  0  0  0  0  0  0  0  0  0  0
    7.9640  -16.1500   -8.9390 C   0  0  0  0  0  0  0  0  0  0  0  0
    7.8080  -15.4390  -10.1300 C   0  0  0  0  0  0  0  0  0  0  0  0
    7.1270  -14.2130  -10.1470 C   0  0  0  0  0  0  0  0  0  0  0  0
    6.9900  -13.4200  -11.4280 C   0  0  0  0  0  0  0  0  0  0  0  0
    8.1280  -13.4580  -12.1760 F   0  0  0  0  0  0  0  0  0  0  0  0
    5.9990  -13.9020  -12.2220 F   0  0  0  0  0  0  0  0  0  0  0  0
    6.7180  -12.1050  -11.2210 F   0  0  0  0  0  0  0  0  0  0  0  0
    6.6050  -13.7090   -8.9420 C   0  0  0  0  0  0  0  0  0  0  0  0
    3.5960  -13.5740   -4.3050 C   0  0  0  0  0  0  0  0  0  0  0  0
    2.8870  -12.8200   -3.3530 C   0  0  0  0  0  0  0  0  0  0  0  0
    2.3980  -13.4220   -2.1770 N   0  0  0  0  0  0  0  0  0  0  0  0
    2.9510  -14.4750   -1.5190 C   0  0  0  0  0  0  0  0  0  0  0  0
    2.4400  -15.6730   -1.3450 N   0  0  0  0  0  0  0  0  0  0  0  0
    3.3920  -16.4020   -0.6910 C   0  0  0  0  0  0  0  0  0  0  0  0
    3.3830  -17.7610   -0.3460 C   0  0  0  0  0  0  0  0  0  0  0  0
    4.4960  -18.3000    0.3070 C   0  0  0  0  0  0  0  0  0  0  0  0
    5.6000  -17.5030    0.6070 C   0  0  0  0  0  0  0  0  0  0  0  0
    5.6230  -16.1430    0.2800 C   0  0  0  0  0  0  0  0  0  0  0  0
    4.4880  -15.6110   -0.3550 C   0  0  0  0  0  0  0  0  0  0  0  0
    4.1450  -14.3450   -0.8060 N   0  0  0  0  0  0  0  0  0  0  0  0
    4.6930  -13.0890   -0.4020 C   0  0  0  0  0  0  0  0  0  0  0  0
    5.5740  -12.4580   -1.2610 C   0  0  0  0  0  0  0  0  0  0  0  0
    6.3970  -11.4980   -0.7050 C   0  0  0  0  0  0  0  0  0  0  0  0
    7.5300  -11.1150   -1.4120 N   0  0  0  0  0  0  0  0  0  0  0  0
    7.7230  -11.4920   -2.8090 C   0  0  0  0  0  0  0  0  0  0  0  0
    9.1600  -11.9740   -3.0400 C   0  0  0  0  0  0  0  0  0  0  0  0
    9.3970  -13.4570   -2.7460 C   0  0  0  0  0  0  0  0  0  0  0  0
   10.6210  -13.6990   -1.8840 N   0  0  0  0  0  0  0  0  0  0  0  0
   11.9730  -13.5510   -2.5910 C   0  0  0  0  0  0  0  0  0  0  0  0
   12.7190  -12.2590   -2.1800 C   0  0  0  0  0  0  0  0  0  0  0  0
   12.9210  -12.1580   -0.6740 N   0  0  0  0  0  0  0  0  0  0  0  0
   13.1020  -10.7340   -0.2150 C   0  0  0  0  0  0  0  0  0  0  0  0
   11.9110  -12.9320    0.1570 C   0  0  0  0  0  0  0  0  0  0  0  0
   10.5380  -12.9660   -0.5440 C   0  0  0  0  0  0  0  0  0  0  0  0
    6.2950  -11.1480    0.5850 N   0  0  0  0  0  0  0  0  0  0  0  0
    5.2840  -11.6760    1.2860 C   0  0  0  0  0  0  0  0  0  0  0  0
    4.5450  -12.7090    0.8880 N   0  0  0  0  0  0  0  0  0  0  0  0
    2.2788  -10.8721   -1.5620 H   0  0  0  0  0  0  0  0  0  0  0  0
    2.3465   -9.5094   -2.7304 H   0  0  0  0  0  0  0  0  0  0  0  0
    0.9373  -10.6234   -2.7304 H   0  0  0  0  0  0  0  0  0  0  0  0
    3.1770   -9.7752   -4.8956 H   0  0  0  0  0  0  0  0  0  0  0  0
    4.4473  -11.1497   -6.5363 H   0  0  0  0  0  0  0  0  0  0  0  0
    4.2620  -14.2460   -7.1090 H   0  0  0  0  0  0  0  0  0  0  0  0
    7.5692  -16.2031   -6.8102 H   0  0  0  0  0  0  0  0  0  0  0  0
    8.5021  -17.1094   -8.9383 H   0  0  0  0  0  0  0  0  0  0  0  0
    8.2233  -15.8442  -11.0645 H   0  0  0  0  0  0  0  0  0  0  0  0
    6.0832  -12.7407   -8.9366 H   0  0  0  0  0  0  0  0  0  0  0  0
    3.7422  -14.6503   -4.1310 H   0  0  0  0  0  0  0  0  0  0  0  0
    1.5770  -12.9880   -1.7610 H   0  0  0  0  0  0  0  0  0  0  0  0
    2.5148  -18.3928   -0.5850 H   0  0  0  0  0  0  0  0  0  0  0  0
    4.5005  -19.3638    0.5869 H   0  0  0  0  0  0  0  0  0  0  0  0
    6.4691  -17.9519    1.1102 H   0  0  0  0  0  0  0  0  0  0  0  0
    6.4957  -15.5145    0.5110 H   0  0  0  0  0  0  0  0  0  0  0  0
    5.6172  -12.7076   -2.3314 H   0  0  0  0  0  0  0  0  0  0  0  0
    8.3890  -11.1460   -0.8570 H   0  0  0  0  0  0  0  0  0  0  0  0
    7.0237  -12.3014   -3.0657 H   0  0  0  0  0  0  0  0  0  0  0  0
    7.5352  -10.6139   -3.4443 H   0  0  0  0  0  0  0  0  0  0  0  0
    9.4173  -11.7890   -4.0934 H   0  0  0  0  0  0  0  0  0  0  0  0
    9.7905  -11.4146   -2.3332 H   0  0  0  0  0  0  0  0  0  0  0  0
    8.5152  -13.8567   -2.2238 H   0  0  0  0  0  0  0  0  0  0  0  0
    9.5660  -13.9617   -3.7087 H   0  0  0  0  0  0  0  0  0  0  0  0
   10.5360  -14.7030   -1.6560 H   0  0  0  0  0  0  0  0  0  0  0  0
   12.6011  -14.4172   -2.3358 H   0  0  0  0  0  0  0  0  0  0  0  0
   11.7800  -13.4956   -3.6725 H   0  0  0  0  0  0  0  0  0  0  0  0
   13.7039  -12.2490   -2.6698 H   0  0  0  0  0  0  0  0  0  0  0  0
   12.1036  -11.4028   -2.4935 H   0  0  0  0  0  0  0  0  0  0  0  0
   13.8620  -12.5820   -0.4660 H   0  0  0  0  0  0  0  0  0  0  0  0
   13.1062  -10.7009    0.8845 H   0  0  0  0  0  0  0  0  0  0  0  0
   14.0569  -10.3441   -0.5972 H   0  0  0  0  0  0  0  0  0  0  0  0
   12.2750  -10.1176   -0.5972 H   0  0  0  0  0  0  0  0  0  0  0  0
   12.2712  -13.9621    0.2952 H   0  0  0  0  0  0  0  0  0  0  0  0
   11.7981  -12.4326    1.1306 H   0  0  0  0  0  0  0  0  0  0  0  0
    9.8163  -13.4841    0.1047 H   0  0  0  0  0  0  0  0  0  0  0  0
   10.2162  -11.9310   -0.7316 H   0  0  0  0  0  0  0  0  0  0  0  0
    5.0471  -11.2239    2.2604 H   0  0  0  0  0  0  0  0  0  0  0  0
  1  2  1  0
  2  3  2  0
  3  4  1  0
  4  5  2  0
  5  6  1  0
  6  7  1  0
  7  8  2  0
  7  9  1  0
  9 10  2  0
 10 11  1  0
 11 12  2  0
 12 13  1  0
 13 14  1  0
 14 15  1  0
 14 16  1  0
 14 17  1  0
 13 18  2  0
  5 19  1  0
 19 20  2  0
 20 21  1  0
 21 22  1  0
 22 23  2  0
 23 24  1  0
 24 25  2  0
 25 26  1  0
 26 27  2  0
 27 28  1  0
 28 29  2  0
 29 30  1  0
 30 31  1  0
 31 32  2  0
 32 33  1  0
 33 34  1  0
 34 35  1  0
 35 36  1  0
 36 37  1  0
 37 38  1  0
 38 39  1  0
 39 40  1  0
 40 41  1  0
 41 42  1  0
 41 43  1  0
 43 44  1  0
 33 45  2  0
 45 46  1  0
 46 47  2  0
 20  2  1  0
 30 22  1  0
 47 31  1  0
 18  9  1  0
 29 24  1  0
 44 38  1  0
  1 48  1  0
  1 49  1  0
  1 50  1  0
  3 51  1  0
  4 52  1  0
  6 53  1  0
 10 54  1  0
 11 55  1  0
 12 56  1  0
 18 57  1  0
 19 58  1  0
 21 59  1  0
 25 60  1  0
 26 61  1  0
 27 62  1  0
 28 63  1  0
 32 64  1  0
 34 65  1  0
 35 66  1  0
 35 67  1  0
 36 68  1  0
 36 69  1  0
 37 70  1  0
 37 71  1  0
 38 72  1  0
 39 73  1  0
 39 74  1  0
 40 75  1  0
 40 76  1  0
 41 77  1  0
 42 78  1  0
 42 79  1  0
 42 80  1  0
 43 81  1  0
 43 82  1  0
 44 83  1  0
 44 84  1  0
 46 85  1  0
M  CHG  2  38   1  41   1
M  END
>  <meeko>  (2) 
{"is_sidechain": [false], "free_energy": -10.044, "intermolecular_energy": -15.652, "internal_energy": -2.768}

$$$$
LIB_FILQIUCXPQZUON__M_PUB_ALL__e8__s20260927
     RDKit          3D

 85 90  0  0  0  0  0  0  0  0999 V2000
   13.5660  -14.2990  -13.2520 C   0  0  0  0  0  0  0  0  0  0  0  0
   13.5940  -14.3700  -11.7470 C   0  0  0  0  0  0  0  0  0  0  0  0
   14.8380  -14.4020  -11.0940 C   0  0  0  0  0  0  0  0  0  0  0  0
   14.9200  -14.4180   -9.6990 C   0  0  0  0  0  0  0  0  0  0  0  0
   13.7570  -14.4340   -8.9370 C   0  0  0  0  0  0  0  0  0  0  0  0
   13.8650  -14.4610   -7.5330 N   0  0  0  0  0  0  0  0  0  0  0  0
   13.6450  -15.5700   -6.7360 C   0  0  0  0  0  0  0  0  0  0  0  0
   13.7080  -16.7350   -7.1370 O   0  0  0  0  0  0  0  0  0  0  0  0
   13.4510  -15.2860   -5.2850 C   0  0  0  0  0  0  0  0  0  0  0  0
   13.4570  -16.3520   -4.3780 C   0  0  0  0  0  0  0  0  0  0  0  0
   13.2700  -16.1110   -3.0160 C   0  0  0  0  0  0  0  0  0  0  0  0
   13.0660  -14.8100   -2.5560 C   0  0  0  0  0  0  0  0  0  0  0  0
   13.0440  -13.7300   -3.4510 C   0  0  0  0  0  0  0  0  0  0  0  0
   12.7840  -12.3230   -2.9620 C   0  0  0  0  0  0  0  0  0  0  0  0
   13.7570  -11.4570   -3.3570 F   0  0  0  0  0  0  0  0  0  0  0  0
   11.6150  -11.8240   -3.4420 F   0  0  0  0  0  0  0  0  0  0  0  0
   12.7190  -12.2270   -1.6080 F   0  0  0  0  0  0  0  0  0  0  0  0
   13.2270  -13.9810   -4.8230 C   0  0  0  0  0  0  0  0  0  0  0  0
   12.5200  -14.3620   -9.5810 C   0  0  0  0  0  0  0  0  0  0  0  0
   12.4110  -14.3400  -10.9840 C   0  0  0  0  0  0  0  0  0  0  0  0
   11.1520  -14.2340  -11.6050 N   0  0  0  0  0  0  0  0  0  0  0  0
   10.2750  -13.2030  -11.4830 C   0  0  0  0  0  0  0  0  0  0  0  0
   10.4180  -11.9700  -11.9160 N   0  0  0  0  0  0  0  0  0  0  0  0
    9.2490  -11.3260  -11.6230 C   0  0  0  0  0  0  0  0  0  0  0  0
    8.8530  -10.0220  -11.9510 C   0  0  0  0  0  0  0  0  0  0  0  0
    7.5830   -9.5840  -11.5610 C   0  0  0  0  0  0  0  0  0  0  0  0
    6.7220  -10.4290  -10.8620 C   0  0  0  0  0  0  0  0  0  0  0  0
    7.1050  -11.7290  -10.5170 C   0  0  0  0  0  0  0  0  0  0  0  0
    8.3910  -12.1470  -10.8950 C   0  0  0  0  0  0  0  0  0  0  0  0
    9.1090  -13.3220  -10.7240 N   0  0  0  0  0  0  0  0  0  0  0  0
    8.8980  -14.3470   -9.7520 C   0  0  0  0  0  0  0  0  0  0  0  0
    9.1990  -14.0640   -8.4320 C   0  0  0  0  0  0  0  0  0  0  0  0
    9.3940  -15.1470   -7.5970 C   0  0  0  0  0  0  0  0  0  0  0  0
   10.0560  -14.9370   -6.3930 N   0  0  0  0  0  0  0  0  0  0  0  0
    9.8120  -15.7840   -5.2290 C   0  0  0  0  0  0  0  0  0  0  0  0
    8.4530  -15.4530   -4.6010 C   0  0  0  0  0  0  0  0  0  0  0  0
    8.2530  -13.9790   -4.2390 C   0  0  0  0  0  0  0  0  0  0  0  0
    7.1370  -13.3240   -5.0290 N   0  0  0  0  0  0  0  0  0  0  0  0
    6.2500  -14.2740   -5.8420 C   0  0  0  0  0  0  0  0  0  0  0  0
    4.8460  -14.4540   -5.2180 C   0  0  0  0  0  0  0  0  0  0  0  0
    4.1220  -13.1290   -5.0220 N   0  0  0  0  0  0  0  0  0  0  0  0
    3.0700  -13.2040   -3.9450 C   0  0  0  0  0  0  0  0  0  0  0  0
    5.0340  -11.9200   -4.8840 C   0  0  0  0  0  0  0  0  0  0  0  0
    6.3560  -12.3080   -4.1940 C   0  0  0  0  0  0  0  0  0  0  0  0
    9.2280  -16.4050   -8.0290 N   0  0  0  0  0  0  0  0  0  0  0  0
    8.7480  -16.5700   -9.2680 C   0  0  0  0  0  0  0  0  0  0  0  0
    8.6780  -15.6090  -10.1870 N   0  0  0  0  0  0  0  0  0  0  0  0
   13.1792  -13.3182  -13.5657 H   0  0  0  0  0  0  0  0  0  0  0  0
   14.5847  -14.4340  -13.6445 H   0  0  0  0  0  0  0  0  0  0  0  0
   12.9137  -15.0930  -13.6445 H   0  0  0  0  0  0  0  0  0  0  0  0
   15.7621  -14.4147  -11.6905 H   0  0  0  0  0  0  0  0  0  0  0  0
   15.9027  -14.4179   -9.2047 H   0  0  0  0  0  0  0  0  0  0  0  0
   14.1560  -13.5950   -7.0880 H   0  0  0  0  0  0  0  0  0  0  0  0
   13.6091  -17.3800   -4.7387 H   0  0  0  0  0  0  0  0  0  0  0  0
   13.2835  -16.9490   -2.3036 H   0  0  0  0  0  0  0  0  0  0  0  0
   12.9209  -14.6291   -1.4807 H   0  0  0  0  0  0  0  0  0  0  0  0
   13.1941  -13.1468   -5.5393 H   0  0  0  0  0  0  0  0  0  0  0  0
   11.6037  -14.3213   -8.9738 H   0  0  0  0  0  0  0  0  0  0  0  0
   10.9040  -14.9870  -12.2440 H   0  0  0  0  0  0  0  0  0  0  0  0
    9.5292   -9.3547  -12.5055 H   0  0  0  0  0  0  0  0  0  0  0  0
    7.2602   -8.5620  -11.8085 H   0  0  0  0  0  0  0  0  0  0  0  0
    5.7234  -10.0666  -10.5767 H   0  0  0  0  0  0  0  0  0  0  0  0
    6.4247  -12.3986   -9.9703 H   0  0  0  0  0  0  0  0  0  0  0  0
    9.2790  -13.0298   -8.0660 H   0  0  0  0  0  0  0  0  0  0  0  0
   10.1810  -13.9490   -6.1620 H   0  0  0  0  0  0  0  0  0  0  0  0
    9.8197  -16.8389   -5.5406 H   0  0  0  0  0  0  0  0  0  0  0  0
   10.6018  -15.6032   -4.4850 H   0  0  0  0  0  0  0  0  0  0  0  0
    7.6673  -15.7391   -5.3157 H   0  0  0  0  0  0  0  0  0  0  0  0
    8.4053  -16.0126   -3.6552 H   0  0  0  0  0  0  0  0  0  0  0  0
    8.0121  -13.9101   -3.1679 H   0  0  0  0  0  0  0  0  0  0  0  0
    9.1856  -13.4494   -4.4835 H   0  0  0  0  0  0  0  0  0  0  0  0
    7.6580  -12.7670   -5.7270 H   0  0  0  0  0  0  0  0  0  0  0  0
    6.1351  -13.8668   -6.8574 H   0  0  0  0  0  0  0  0  0  0  0  0
    6.7390  -15.2593   -5.8540 H   0  0  0  0  0  0  0  0  0  0  0  0
    4.2434  -15.0906   -5.8825 H   0  0  0  0  0  0  0  0  0  0  0  0
    4.9765  -14.9139   -4.2273 H   0  0  0  0  0  0  0  0  0  0  0  0
    3.5460  -12.9670   -5.8870 H   0  0  0  0  0  0  0  0  0  0  0  0
    3.5532  -13.1696   -2.9574 H   0  0  0  0  0  0  0  0  0  0  0  0
    2.3807  -12.3527   -4.0458 H   0  0  0  0  0  0  0  0  0  0  0  0
    2.5084  -14.1445   -4.0458 H   0  0  0  0  0  0  0  0  0  0  0  0
    5.2536  -11.5179   -5.8840 H   0  0  0  0  0  0  0  0  0  0  0  0
    4.5249  -11.1624   -4.2701 H   0  0  0  0  0  0  0  0  0  0  0  0
    6.9700  -11.4050   -4.0608 H   0  0  0  0  0  0  0  0  0  0  0  0
    6.1209  -12.7635   -3.2207 H   0  0  0  0  0  0  0  0  0  0  0  0
    8.3857  -17.5706   -9.5465 H   0  0  0  0  0  0  0  0  0  0  0  0
  1  2  1  0
  2  3  2  0
  3  4  1  0
  4  5  2  0
  5  6  1  0
  6  7  1  0
  7  8  2  0
  7  9  1  0
  9 10  2  0
 10 11  1  0
 11 12  2  0
 12 13  1  0
 13 14  1  0
 14 15  1  0
 14 16  1  0
 14 17  1  0
 13 18  2  0
  5 19  1  0
 19 20  2  0
 20 21  1  0
 21 22  1  0
 22 23  2  0
 23 24  1  0
 24 25  2  0
 25 26  1  0
 26 27  2  0
 27 28  1  0
 28 29  2  0
 29 30  1  0
 30 31  1  0
 31 32  2  0
 32 33  1  0
 33 34  1  0
 34 35  1  0
 35 36  1  0
 36 37  1  0
 37 38  1  0
 38 39  1  0
 39 40  1  0
 40 41  1  0
 41 42  1  0
 41 43  1  0
 43 44  1  0
 33 45  2  0
 45 46  1  0
 46 47  2  0
 20  2  1  0
 30 22  1  0
 47 31  1  0
 18  9  1  0
 29 24  1  0
 44 38  1  0
  1 48  1  0
  1 49  1  0
  1 50  1  0
  3 51  1  0
  4 52  1  0
  6 53  1  0
 10 54  1  0
 11 55  1  0
 12 56  1  0
 18 57  1  0
 19 58  1  0
 21 59  1  0
 25 60  1  0
 26 61  1  0
 27 62  1  0
 28 63  1  0
 32 64  1  0
 34 65  1  0
 35 66  1  0
 35 67  1  0
 36 68  1  0
 36 69  1  0
 37 70  1  0
 37 71  1  0
 38 72  1  0
 39 73  1  0
 39 74  1  0
 40 75  1  0
 40 76  1  0
 41 77  1  0
 42 78  1  0
 42 79  1  0
 42 80  1  0
 43 81  1  0
 43 82  1  0
 44 83  1  0
 44 84  1  0
 46 85  1  0
M  CHG  2  38   1  41   1
M  END
>  <meeko>  (3) 
{"is_sidechain": [false], "free_energy": -9.726, "intermolecular_energy": -14.058, "internal_energy": -3.841}

$$$$
LIB_FILQIUCXPQZUON__M_PUB_ALL__e8__s20260927
     RDKit          3D

 85 90  0  0  0  0  0  0  0  0999 V2000
   10.4570  -18.5760   -0.5870 C   0  0  0  0  0  0  0  0  0  0  0  0
    9.5240  -17.6590   -1.3350 C   0  0  0  0  0  0  0  0  0  0  0  0
    8.2340  -18.1190   -1.6530 C   0  0  0  0  0  0  0  0  0  0  0  0
    7.3140  -17.2910   -2.3020 C   0  0  0  0  0  0  0  0  0  0  0  0
    7.6810  -16.0010   -2.6690 C   0  0  0  0  0  0  0  0  0  0  0  0
    6.7390  -15.1900   -3.3310 N   0  0  0  0  0  0  0  0  0  0  0  0
    6.5310  -15.1600   -4.6990 C   0  0  0  0  0  0  0  0  0  0  0  0
    6.8410  -16.0750   -5.4670 O   0  0  0  0  0  0  0  0  0  0  0  0
    5.7690  -13.9820   -5.2040 C   0  0  0  0  0  0  0  0  0  0  0  0
    5.8840  -13.6260   -6.5530 C   0  0  0  0  0  0  0  0  0  0  0  0
    5.1850  -12.5240   -7.0470 C   0  0  0  0  0  0  0  0  0  0  0  0
    4.3770  -11.7680   -6.1960 C   0  0  0  0  0  0  0  0  0  0  0  0
    4.2590  -12.1020   -4.8390 C   0  0  0  0  0  0  0  0  0  0  0  0
    3.4170  -11.2610   -3.9050 C   0  0  0  0  0  0  0  0  0  0  0  0
    3.9920  -11.1300   -2.6780 F   0  0  0  0  0  0  0  0  0  0  0  0
    3.2370  -10.0000   -4.3770 F   0  0  0  0  0  0  0  0  0  0  0  0
    2.1770  -11.7760   -3.6890 F   0  0  0  0  0  0  0  0  0  0  0  0
    4.9710  -13.2110   -4.3470 C   0  0  0  0  0  0  0  0  0  0  0  0
    8.9470  -15.5280   -2.3200 C   0  0  0  0  0  0  0  0  0  0  0  0
    9.8900  -16.3400   -1.6630 C   0  0  0  0  0  0  0  0  0  0  0  0
   11.1480  -15.8250   -1.2940 N   0  0  0  0  0  0  0  0  0  0  0  0
   11.4260  -14.5400   -0.9520 C   0  0  0  0  0  0  0  0  0  0  0  0
   10.9650  -13.8630    0.0760 N   0  0  0  0  0  0  0  0  0  0  0  0
   11.5830  -12.6460    0.0390 C   0  0  0  0  0  0  0  0  0  0  0  0
   11.5100  -11.5880    0.9570 C   0  0  0  0  0  0  0  0  0  0  0  0
   12.2610  -10.4330    0.7180 C   0  0  0  0  0  0  0  0  0  0  0  0
   13.0730  -10.3330   -0.4100 C   0  0  0  0  0  0  0  0  0  0  0  0
   13.1510  -11.3730   -1.3430 C   0  0  0  0  0  0  0  0  0  0  0  0
   12.3740  -12.5180   -1.1010 C   0  0  0  0  0  0  0  0  0  0  0  0
   12.1810  -13.7100   -1.7840 N   0  0  0  0  0  0  0  0  0  0  0  0
   12.4210  -13.9810   -3.1650 C   0  0  0  0  0  0  0  0  0  0  0  0
   11.4820  -13.5510   -4.0840 C   0  0  0  0  0  0  0  0  0  0  0  0
   11.5030  -14.1640   -5.3220 C   0  0  0  0  0  0  0  0  0  0  0  0
   10.3780  -14.0530   -6.1290 N   0  0  0  0  0  0  0  0  0  0  0  0
   10.1500  -14.9580   -7.2530 C   0  0  0  0  0  0  0  0  0  0  0  0
   10.4770  -14.2600   -8.5770 C   0  0  0  0  0  0  0  0  0  0  0  0
   10.4340  -15.1660   -9.8110 C   0  0  0  0  0  0  0  0  0  0  0  0
    9.3610  -14.7610  -10.8020 N   0  0  0  0  0  0  0  0  0  0  0  0
    7.9140  -14.9430  -10.3290 C   0  0  0  0  0  0  0  0  0  0  0  0
    7.2250  -13.5980   -9.9990 C   0  0  0  0  0  0  0  0  0  0  0  0
    7.2570  -12.6240  -11.1680 N   0  0  0  0  0  0  0  0  0  0  0  0
    7.1320  -11.1890  -10.7240 C   0  0  0  0  0  0  0  0  0  0  0  0
    8.3930  -12.8490  -12.1530 C   0  0  0  0  0  0  0  0  0  0  0  0
    9.6410  -13.3950  -11.4320 C   0  0  0  0  0  0  0  0  0  0  0  0
   12.4320  -15.0770   -5.6360 N   0  0  0  0  0  0  0  0  0  0  0  0
   13.4140  -15.2850   -4.7500 C   0  0  0  0  0  0  0  0  0  0  0  0
   13.3950  -14.8630   -3.4870 N   0  0  0  0  0  0  0  0  0  0  0  0
   10.3169  -18.4383    0.4953 H   0  0  0  0  0  0  0  0  0  0  0  0
   10.2380  -19.6201   -0.8552 H   0  0  0  0  0  0  0  0  0  0  0  0
   11.4972  -18.3390   -0.8552 H   0  0  0  0  0  0  0  0  0  0  0  0
    7.9444  -19.1463   -1.3869 H   0  0  0  0  0  0  0  0  0  0  0  0
    6.3011  -17.6592   -2.5222 H   0  0  0  0  0  0  0  0  0  0  0  0
    6.1540  -14.6070   -2.7410 H   0  0  0  0  0  0  0  0  0  0  0  0
    6.5259  -14.2155   -7.2241 H   0  0  0  0  0  0  0  0  0  0  0  0
    5.2708  -12.2505   -8.1090 H   0  0  0  0  0  0  0  0  0  0  0  0
    3.8275  -10.9020   -6.5936 H   0  0  0  0  0  0  0  0  0  0  0  0
    4.9011  -13.4754   -3.2815 H   0  0  0  0  0  0  0  0  0  0  0  0
    9.2155  -14.4900   -2.5658 H   0  0  0  0  0  0  0  0  0  0  0  0
   11.9070  -16.5020   -1.2340 H   0  0  0  0  0  0  0  0  0  0  0  0
   10.8725  -11.6656    1.8501 H   0  0  0  0  0  0  0  0  0  0  0  0
   12.2103   -9.5944    1.4280 H   0  0  0  0  0  0  0  0  0  0  0  0
   13.6639   -9.4191   -0.5701 H   0  0  0  0  0  0  0  0  0  0  0  0
   13.7955  -11.2969   -2.2311 H   0  0  0  0  0  0  0  0  0  0  0  0
   10.7554  -12.7613   -3.8420 H   0  0  0  0  0  0  0  0  0  0  0  0
   10.1050  -13.0860   -6.3210 H   0  0  0  0  0  0  0  0  0  0  0  0
   10.7934  -15.8432   -7.1416 H   0  0  0  0  0  0  0  0  0  0  0  0
    9.0917  -15.2578   -7.2601 H   0  0  0  0  0  0  0  0  0  0  0  0
    9.7499  -13.4478   -8.7238 H   0  0  0  0  0  0  0  0  0  0  0  0
   11.5146  -13.9050   -8.4907 H   0  0  0  0  0  0  0  0  0  0  0  0
   11.4113  -15.1211  -10.3138 H   0  0  0  0  0  0  0  0  0  0  0  0
   10.1980  -16.1834   -9.4659 H   0  0  0  0  0  0  0  0  0  0  0  0
    9.4920  -15.4480  -11.5630 H   0  0  0  0  0  0  0  0  0  0  0  0
    7.3436  -15.4458  -11.1239 H   0  0  0  0  0  0  0  0  0  0  0  0
    7.9367  -15.5420   -9.4067 H   0  0  0  0  0  0  0  0  0  0  0  0
    6.1761  -13.7951   -9.7328 H   0  0  0  0  0  0  0  0  0  0  0  0
    7.7745  -13.1370   -9.1650 H   0  0  0  0  0  0  0  0  0  0  0  0
    6.3650  -12.7700  -11.7080 H   0  0  0  0  0  0  0  0  0  0  0  0
    7.1281  -11.1443   -9.6249 H   0  0  0  0  0  0  0  0  0  0  0  0
    7.9831  -10.6098  -11.1115 H   0  0  0  0  0  0  0  0  0  0  0  0
    6.1936  -10.7657  -11.1115 H   0  0  0  0  0  0  0  0  0  0  0  0
    8.0711  -13.5733  -12.9157 H   0  0  0  0  0  0  0  0  0  0  0  0
    8.6488  -11.8877  -12.6225 H   0  0  0  0  0  0  0  0  0  0  0  0
   10.4603  -13.4960  -12.1590 H   0  0  0  0  0  0  0  0  0  0  0  0
    9.9175  -12.6920  -10.6324 H   0  0  0  0  0  0  0  0  0  0  0  0
   14.2987  -15.8438   -5.0891 H   0  0  0  0  0  0  0  0  0  0  0  0
  1  2  1  0
  2  3  2  0
  3  4  1  0
  4  5  2  0
  5  6  1  0
  6  7  1  0
  7  8  2  0
  7  9  1  0
  9 10  2  0
 10 11  1  0
 11 12  2  0
 12 13  1  0
 13 14  1  0
 14 15  1  0
 14 16  1  0
 14 17  1  0
 13 18  2  0
  5 19  1  0
 19 20  2  0
 20 21  1  0
 21 22  1  0
 22 23  2  0
 23 24  1  0
 24 25  2  0
 25 26  1  0
 26 27  2  0
 27 28  1  0
 28 29  2  0
 29 30  1  0
 30 31  1  0
 31 32  2  0
 32 33  1  0
 33 34  1  0
 34 35  1  0
 35 36  1  0
 36 37  1  0
 37 38  1  0
 38 39  1  0
 39 40  1  0
 40 41  1  0
 41 42  1  0
 41 43  1  0
 43 44  1  0
 33 45  2  0
 45 46  1  0
 46 47  2  0
 20  2  1  0
 30 22  1  0
 47 31  1  0
 18  9  1  0
 29 24  1  0
 44 38  1  0
  1 48  1  0
  1 49  1  0
  1 50  1  0
  3 51  1  0
  4 52  1  0
  6 53  1  0
 10 54  1  0
 11 55  1  0
 12 56  1  0
 18 57  1  0
 19 58  1  0
 21 59  1  0
 25 60  1  0
 26 61  1  0
 27 62  1  0
 28 63  1  0
 32 64  1  0
 34 65  1  0
 35 66  1  0
 35 67  1  0
 36 68  1  0
 36 69  1  0
 37 70  1  0
 37 71  1  0
 38 72  1  0
 39 73  1  0
 39 74  1  0
 40 75  1  0
 40 76  1  0
 41 77  1  0
 42 78  1  0
 42 79  1  0
 42 80  1  0
 43 81  1  0
 43 82  1  0
 44 83  1  0
 44 84  1  0
 46 85  1  0
M  CHG  2  38   1  41   1
M  END
>  <meeko>  (4) 
{"is_sidechain": [false], "free_energy": -9.721, "intermolecular_energy": -14.915, "internal_energy": -2.976}

$$$$
LIB_FILQIUCXPQZUON__M_PUB_ALL__e8__s20260927
     RDKit          3D

 85 90  0  0  0  0  0  0  0  0999 V2000
    5.6230  -11.7410   -0.0440 C   0  0  0  0  0  0  0  0  0  0  0  0
    5.9210  -12.0870   -1.4800 C   0  0  0  0  0  0  0  0  0  0  0  0
    5.1680  -11.4710   -2.4950 C   0  0  0  0  0  0  0  0  0  0  0  0
    5.4380  -11.7190   -3.8440 C   0  0  0  0  0  0  0  0  0  0  0  0
    6.4450  -12.6110   -4.1970 C   0  0  0  0  0  0  0  0  0  0  0  0
    6.6900  -12.8520   -5.5620 N   0  0  0  0  0  0  0  0  0  0  0  0
    5.8990  -13.6270   -6.3920 C   0  0  0  0  0  0  0  0  0  0  0  0
    4.7110  -13.8820   -6.1750 O   0  0  0  0  0  0  0  0  0  0  0  0
    6.5340  -14.0450   -7.6740 C   0  0  0  0  0  0  0  0  0  0  0  0
    7.0350  -15.3470   -7.7900 C   0  0  0  0  0  0  0  0  0  0  0  0
    7.6400  -15.7600   -8.9780 C   0  0  0  0  0  0  0  0  0  0  0  0
    7.7580  -14.8730  -10.0490 C   0  0  0  0  0  0  0  0  0  0  0  0
    7.2740  -13.5610   -9.9470 C   0  0  0  0  0  0  0  0  0  0  0  0
    7.4350  -12.5840  -11.0910 C   0  0  0  0  0  0  0  0  0  0  0  0
    6.5290  -11.5690  -11.0270 F   0  0  0  0  0  0  0  0  0  0  0  0
    8.6610  -11.9990  -11.0930 F   0  0  0  0  0  0  0  0  0  0  0  0
    7.2760  -13.1560  -12.3130 F   0  0  0  0  0  0  0  0  0  0  0  0
    6.6700  -13.1510   -8.7440 C   0  0  0  0  0  0  0  0  0  0  0  0
    7.2200  -13.1930   -3.1930 C   0  0  0  0  0  0  0  0  0  0  0  0
    6.9730  -12.9570   -1.8280 C   0  0  0  0  0  0  0  0  0  0  0  0
    7.7930  -13.5320   -0.8380 N   0  0  0  0  0  0  0  0  0  0  0  0
    8.6330  -14.5880   -1.0000 C   0  0  0  0  0  0  0  0  0  0  0  0
    8.3360  -15.8670   -0.9530 N   0  0  0  0  0  0  0  0  0  0  0  0
    9.4900  -16.5370   -1.2450 C   0  0  0  0  0  0  0  0  0  0  0  0
    9.6950  -17.9140   -1.4120 C   0  0  0  0  0  0  0  0  0  0  0  0
   10.9750  -18.3720   -1.7380 C   0  0  0  0  0  0  0  0  0  0  0  0
   12.0320  -17.4770   -1.9000 C   0  0  0  0  0  0  0  0  0  0  0  0
   11.8490  -16.1000   -1.7270 C   0  0  0  0  0  0  0  0  0  0  0  0
   10.5620  -15.6580   -1.3780 C   0  0  0  0  0  0  0  0  0  0  0  0
   10.0140  -14.4110   -1.1150 N   0  0  0  0  0  0  0  0  0  0  0  0
   10.6930  -13.2140   -0.7320 C   0  0  0  0  0  0  0  0  0  0  0  0
   11.6530  -12.7090   -1.5880 C   0  0  0  0  0  0  0  0  0  0  0  0
   12.5700  -11.8330   -1.0400 C   0  0  0  0  0  0  0  0  0  0  0  0
   13.7510  -11.5990   -1.7340 N   0  0  0  0  0  0  0  0  0  0  0  0
   13.7690  -11.4560   -3.1870 C   0  0  0  0  0  0  0  0  0  0  0  0
   14.1890  -12.7730   -3.8490 C   0  0  0  0  0  0  0  0  0  0  0  0
   13.3570  -13.1730   -5.0710 C   0  0  0  0  0  0  0  0  0  0  0  0
   12.4470  -14.3550   -4.8020 N   0  0  0  0  0  0  0  0  0  0  0  0
   10.9530  -14.1150   -5.0480 C   0  0  0  0  0  0  0  0  0  0  0  0
   10.4420  -14.8210   -6.3270 C   0  0  0  0  0  0  0  0  0  0  0  0
   10.7190  -16.3180   -6.3150 N   0  0  0  0  0  0  0  0  0  0  0  0
   10.7680  -16.9030   -7.7030 C   0  0  0  0  0  0  0  0  0  0  0  0
   11.8930  -16.7420   -5.4460 C   0  0  0  0  0  0  0  0  0  0  0  0
   12.9790  -15.6480   -5.4230 C   0  0  0  0  0  0  0  0  0  0  0  0
   12.4870  -11.4400    0.2390 N   0  0  0  0  0  0  0  0  0  0  0  0
   11.4120  -11.8320    0.9330 C   0  0  0  0  0  0  0  0  0  0  0  0
   10.5670  -12.7860    0.5460 N   0  0  0  0  0  0  0  0  0  0  0  0
    6.1955  -12.4057    0.6197 H   0  0  0  0  0  0  0  0  0  0  0  0
    5.9085  -10.6963    0.1483 H   0  0  0  0  0  0  0  0  0  0  0  0
    4.5475  -11.8685    0.1483 H   0  0  0  0  0  0  0  0  0  0  0  0
    4.3537  -10.7832   -2.2234 H   0  0  0  0  0  0  0  0  0  0  0  0
    4.8549  -11.2094   -4.6252 H   0  0  0  0  0  0  0  0  0  0  0  0
    7.5020  -12.3900   -5.9620 H   0  0  0  0  0  0  0  0  0  0  0  0
    6.9518  -16.0452   -6.9441 H   0  0  0  0  0  0  0  0  0  0  0  0
    8.0245  -16.7865   -9.0703 H   0  0  0  0  0  0  0  0  0  0  0  0
    8.2354  -15.2064  -10.9823 H   0  0  0  0  0  0  0  0  0  0  0  0
    6.3014  -12.1195   -8.6429 H   0  0  0  0  0  0  0  0  0  0  0  0
    8.0497  -13.8568   -3.4775 H   0  0  0  0  0  0  0  0  0  0  0  0
    7.7820  -13.0750    0.0720 H   0  0  0  0  0  0  0  0  0  0  0  0
    8.8624  -18.6222   -1.2885 H   0  0  0  0  0  0  0  0  0  0  0  0
   11.1503  -19.4501   -1.8681 H   0  0  0  0  0  0  0  0  0  0  0  0
   13.0276  -17.8600   -2.1686 H   0  0  0  0  0  0  0  0  0  0  0  0
   12.6803  -15.3918   -1.8591 H   0  0  0  0  0  0  0  0  0  0  0  0
   11.6854  -12.9900   -2.6510 H   0  0  0  0  0  0  0  0  0  0  0  0
   14.5530  -12.1150   -1.3630 H   0  0  0  0  0  0  0  0  0  0  0  0
   12.7633  -11.1795   -3.5363 H   0  0  0  0  0  0  0  0  0  0  0  0
   14.4925  -10.6735   -3.4593 H   0  0  0  0  0  0  0  0  0  0  0  0
   15.2380  -12.6771   -4.1660 H   0  0  0  0  0  0  0  0  0  0  0  0
   14.0324  -13.5606   -3.0972 H   0  0  0  0  0  0  0  0  0  0  0  0
   12.7382  -12.3144   -5.3710 H   0  0  0  0  0  0  0  0  0  0  0  0
   14.0577  -13.4692   -5.8656 H   0  0  0  0  0  0  0  0  0  0  0  0
   12.5420  -14.4800   -3.7800 H   0  0  0  0  0  0  0  0  0  0  0  0
   10.3877  -14.4962   -4.1848 H   0  0  0  0  0  0  0  0  0  0  0  0
   10.8059  -13.0331   -5.1820 H   0  0  0  0  0  0  0  0  0  0  0  0
    9.3563  -14.6635   -6.4074 H   0  0  0  0  0  0  0  0  0  0  0  0
   10.9773  -14.3882   -7.1850 H   0  0  0  0  0  0  0  0  0  0  0  0
    9.8670  -16.7810   -5.9060 H   0  0  0  0  0  0  0  0  0  0  0  0
   10.8596  -17.9972   -7.6367 H   0  0  0  0  0  0  0  0  0  0  0  0
    9.8450  -16.6444   -8.2427 H   0  0  0  0  0  0  0  0  0  0  0  0
   11.6351  -16.4944   -8.2427 H   0  0  0  0  0  0  0  0  0  0  0  0
   11.5373  -16.9189   -4.4202 H   0  0  0  0  0  0  0  0  0  0  0  0
   12.3275  -17.6620   -5.8641 H   0  0  0  0  0  0  0  0  0  0  0  0
   13.8353  -16.0045   -4.8316 H   0  0  0  0  0  0  0  0  0  0  0  0
   13.2843  -15.4377   -6.4587 H   0  0  0  0  0  0  0  0  0  0  0  0
   11.2120  -11.3305    1.8914 H   0  0  0  0  0  0  0  0  0  0  0  0
  1  2  1  0
  2  3  2  0
  3  4  1  0
  4  5  2  0
  5  6  1  0
  6  7  1  0
  7  8  2  0
  7  9  1  0
  9 10  2  0
 10 11  1  0
 11 12  2  0
 12 13  1  0
 13 14  1  0
 14 15  1  0
 14 16  1  0
 14 17  1  0
 13 18  2  0
  5 19  1  0
 19 20  2  0
 20 21  1  0
 21 22  1  0
 22 23  2  0
 23 24  1  0
 24 25  2  0
 25 26  1  0
 26 27  2  0
 27 28  1  0
 28 29  2  0
 29 30  1  0
 30 31  1  0
 31 32  2  0
 32 33  1  0
 33 34  1  0
 34 35  1  0
 35 36  1  0
 36 37  1  0
 37 38  1  0
 38 39  1  0
 39 40  1  0
 40 41  1  0
 41 42  1  0
 41 43  1  0
 43 44  1  0
 33 45  2  0
 45 46  1  0
 46 47  2  0
 20  2  1  0
 30 22  1  0
 47 31  1  0
 18  9  1  0
 29 24  1  0
 44 38  1  0
  1 48  1  0
  1 49  1  0
  1 50  1  0
  3 51  1  0
  4 52  1  0
  6 53  1  0
 10 54  1  0
 11 55  1  0
 12 56  1  0
 18 57  1  0
 19 58  1  0
 21 59  1  0
 25 60  1  0
 26 61  1  0
 27 62  1  0
 28 63  1  0
 32 64  1  0
 34 65  1  0
 35 66  1  0
 35 67  1  0
 36 68  1  0
 36 69  1  0
 37 70  1  0
 37 71  1  0
 38 72  1  0
 39 73  1  0
 39 74  1  0
 40 75  1  0
 40 76  1  0
 41 77  1  0
 42 78  1  0
 42 79  1  0
 42 80  1  0
 43 81  1  0
 43 82  1  0
 44 83  1  0
 44 84  1  0
 46 85  1  0
M  CHG  2  38   1  41   1
M  END
>  <meeko>  (5) 
{"is_sidechain": [false], "free_energy": -9.709, "intermolecular_energy": -14.674, "internal_energy": -3.196}

$$$$
LIB_FILQIUCXPQZUON__M_PUB_ALL__e8__s20260927
     RDKit          3D

 85 90  0  0  0  0  0  0  0  0999 V2000
   13.5800  -14.4190  -13.1120 C   0  0  0  0  0  0  0  0  0  0  0  0
   13.6020  -14.4750  -11.6070 C   0  0  0  0  0  0  0  0  0  0  0  0
   14.8430  -14.5120  -10.9480 C   0  0  0  0  0  0  0  0  0  0  0  0
   14.9190  -14.5150   -9.5530 C   0  0  0  0  0  0  0  0  0  0  0  0
   13.7530  -14.5100   -8.7960 C   0  0  0  0  0  0  0  0  0  0  0  0
   13.8550  -14.5230   -7.3910 N   0  0  0  0  0  0  0  0  0  0  0  0
   13.5840  -15.6110   -6.5800 C   0  0  0  0  0  0  0  0  0  0  0  0
   13.5970  -16.7830   -6.9660 O   0  0  0  0  0  0  0  0  0  0  0  0
   13.3980  -15.2990   -5.1340 C   0  0  0  0  0  0  0  0  0  0  0  0
   13.5320  -16.3290   -4.1950 C   0  0  0  0  0  0  0  0  0  0  0  0
   13.3550  -16.0630   -2.8360 C   0  0  0  0  0  0  0  0  0  0  0  0
   13.0350  -14.7730   -2.4110 C   0  0  0  0  0  0  0  0  0  0  0  0
   12.8840  -13.7320   -3.3380 C   0  0  0  0  0  0  0  0  0  0  0  0
   12.4980  -12.3410   -2.8850 C   0  0  0  0  0  0  0  0  0  0  0  0
   11.3170  -11.9360   -3.4290 F   0  0  0  0  0  0  0  0  0  0  0  0
   12.3390  -12.2700   -1.5370 F   0  0  0  0  0  0  0  0  0  0  0  0
   13.4130  -11.3930   -3.2190 F   0  0  0  0  0  0  0  0  0  0  0  0
   13.0580  -14.0090   -4.7060 C   0  0  0  0  0  0  0  0  0  0  0  0
   12.5200  -14.4330   -9.4460 C   0  0  0  0  0  0  0  0  0  0  0  0
   12.4160  -14.4250  -10.8490 C   0  0  0  0  0  0  0  0  0  0  0  0
   11.1600  -14.3130  -11.4760 N   0  0  0  0  0  0  0  0  0  0  0  0
   10.3110  -13.2550  -11.4000 C   0  0  0  0  0  0  0  0  0  0  0  0
   10.5330  -12.0170  -11.7820 N   0  0  0  0  0  0  0  0  0  0  0  0
    9.3650  -11.3400  -11.5730 C   0  0  0  0  0  0  0  0  0  0  0  0
    9.0430  -10.0140  -11.8950 C   0  0  0  0  0  0  0  0  0  0  0  0
    7.7590   -9.5410  -11.6050 C   0  0  0  0  0  0  0  0  0  0  0  0
    6.8110  -10.3730  -11.0100 C   0  0  0  0  0  0  0  0  0  0  0  0
    7.1180  -11.6950  -10.6720 C   0  0  0  0  0  0  0  0  0  0  0  0
    8.4190  -12.1490  -10.9490 C   0  0  0  0  0  0  0  0  0  0  0  0
    9.0790  -13.3530  -10.7500 N   0  0  0  0  0  0  0  0  0  0  0  0
    8.7490  -14.3950   -9.8320 C   0  0  0  0  0  0  0  0  0  0  0  0
    9.1030  -14.2300   -8.5060 C   0  0  0  0  0  0  0  0  0  0  0  0
    9.1650  -15.3750   -7.7350 C   0  0  0  0  0  0  0  0  0  0  0  0
    9.8650  -15.3230   -6.5360 N   0  0  0  0  0  0  0  0  0  0  0  0
   10.0600  -16.5120   -5.7120 C   0  0  0  0  0  0  0  0  0  0  0  0
    9.7620  -16.2000   -4.2420 C   0  0  0  0  0  0  0  0  0  0  0  0
    9.2430  -14.7840   -3.9760 C   0  0  0  0  0  0  0  0  0  0  0  0
    8.5460  -14.6540   -2.6360 N   0  0  0  0  0  0  0  0  0  0  0  0
    9.3920  -14.0710   -1.4990 C   0  0  0  0  0  0  0  0  0  0  0  0
    8.9840  -12.6230   -1.1380 C   0  0  0  0  0  0  0  0  0  0  0  0
    7.5080  -12.5060   -0.7820 N   0  0  0  0  0  0  0  0  0  0  0  0
    6.9770  -11.1110   -0.9890 C   0  0  0  0  0  0  0  0  0  0  0  0
    6.6200  -13.5800   -1.3890 C   0  0  0  0  0  0  0  0  0  0  0  0
    7.1590  -14.0220   -2.7640 C   0  0  0  0  0  0  0  0  0  0  0  0
    8.8290  -16.5730   -8.2320 N   0  0  0  0  0  0  0  0  0  0  0  0
    8.3150  -16.6040   -9.4680 C   0  0  0  0  0  0  0  0  0  0  0  0
    8.3580  -15.5910  -10.3310 N   0  0  0  0  0  0  0  0  0  0  0  0
   13.1957  -13.4409  -13.4369 H   0  0  0  0  0  0  0  0  0  0  0  0
   14.6001  -14.5592  -13.4991 H   0  0  0  0  0  0  0  0  0  0  0  0
   12.9282  -15.2160  -13.4991 H   0  0  0  0  0  0  0  0  0  0  0  0
   15.7695  -14.5390  -11.5403 H   0  0  0  0  0  0  0  0  0  0  0  0
   15.8996  -14.5213   -9.0546 H   0  0  0  0  0  0  0  0  0  0  0  0
   14.1840  -13.6660   -6.9560 H   0  0  0  0  0  0  0  0  0  0  0  0
   13.7769  -17.3483   -4.5283 H   0  0  0  0  0  0  0  0  0  0  0  0
   13.4680  -16.8717   -2.0990 H   0  0  0  0  0  0  0  0  0  0  0  0
   12.8999  -14.5708   -1.3382 H   0  0  0  0  0  0  0  0  0  0  0  0
   12.9260  -13.2060   -5.4461 H   0  0  0  0  0  0  0  0  0  0  0  0
   11.6018  -14.3769   -8.8429 H   0  0  0  0  0  0  0  0  0  0  0  0
   10.8930  -15.0870  -12.0820 H   0  0  0  0  0  0  0  0  0  0  0  0
    9.7876   -9.3567  -12.3677 H   0  0  0  0  0  0  0  0  0  0  0  0
    7.4941   -8.5016  -11.8489 H   0  0  0  0  0  0  0  0  0  0  0  0
    5.8037   -9.9825  -10.8028 H   0  0  0  0  0  0  0  0  0  0  0  0
    6.3700  -12.3541  -10.2072 H   0  0  0  0  0  0  0  0  0  0  0  0
    9.3241  -13.2377   -8.0860 H   0  0  0  0  0  0  0  0  0  0  0  0
    9.6850  -14.4740   -5.9940 H   0  0  0  0  0  0  0  0  0  0  0  0
    9.3832  -17.3072   -6.0578 H   0  0  0  0  0  0  0  0  0  0  0  0
   11.1063  -16.8395   -5.8014 H   0  0  0  0  0  0  0  0  0  0  0  0
    9.0038  -16.9140   -3.8880 H   0  0  0  0  0  0  0  0  0  0  0  0
   10.7204  -16.2827   -3.7085 H   0  0  0  0  0  0  0  0  0  0  0  0
   10.0946  -14.0880   -3.9978 H   0  0  0  0  0  0  0  0  0  0  0  0
    8.5041  -14.5508   -4.7568 H   0  0  0  0  0  0  0  0  0  0  0  0
    8.3770  -15.6410   -2.3770 H   0  0  0  0  0  0  0  0  0  0  0  0
    9.2696  -14.7043   -0.6080 H   0  0  0  0  0  0  0  0  0  0  0  0
   10.4379  -14.0482   -1.8390 H   0  0  0  0  0  0  0  0  0  0  0  0
    9.5823  -12.2921   -0.2763 H   0  0  0  0  0  0  0  0  0  0  0  0
    9.1662  -11.9936   -2.0216 H   0  0  0  0  0  0  0  0  0  0  0  0
    7.4380  -12.6200    0.2610 H   0  0  0  0  0  0  0  0  0  0  0  0
    6.7971  -10.6384   -0.0121 H   0  0  0  0  0  0  0  0  0  0  0  0
    7.7125  -10.5186   -1.5530 H   0  0  0  0  0  0  0  0  0  0  0  0
    6.0337  -11.1576   -1.5530 H   0  0  0  0  0  0  0  0  0  0  0  0
    6.5934  -14.4493   -0.7155 H   0  0  0  0  0  0  0  0  0  0  0  0
    5.6087  -13.1682   -1.5221 H   0  0  0  0  0  0  0  0  0  0  0  0
    6.4680  -14.7580   -3.2008 H   0  0  0  0  0  0  0  0  0  0  0  0
    7.2382  -13.1347   -3.4093 H   0  0  0  0  0  0  0  0  0  0  0  0
    7.8223  -17.5321   -9.7935 H   0  0  0  0  0  0  0  0  0  0  0  0
  1  2  1  0
  2  3  2  0
  3  4  1  0
  4  5  2  0
  5  6  1  0
  6  7  1  0
  7  8  2  0
  7  9  1  0
  9 10  2  0
 10 11  1  0
 11 12  2  0
 12 13  1  0
 13 14  1  0
 14 15  1  0
 14 16  1  0
 14 17  1  0
 13 18  2  0
  5 19  1  0
 19 20  2  0
 20 21  1  0
 21 22  1  0
 22 23  2  0
 23 24  1  0
 24 25  2  0
 25 26  1  0
 26 27  2  0
 27 28  1  0
 28 29  2  0
 29 30  1  0
 30 31  1  0
 31 32  2  0
 32 33  1  0
 33 34  1  0
 34 35  1  0
 35 36  1  0
 36 37  1  0
 37 38  1  0
 38 39  1  0
 39 40  1  0
 40 41  1  0
 41 42  1  0
 41 43  1  0
 43 44  1  0
 33 45  2  0
 45 46  1  0
 46 47  2  0
 20  2  1  0
 30 22  1  0
 47 31  1  0
 18  9  1  0
 29 24  1  0
 44 38  1  0
  1 48  1  0
  1 49  1  0
  1 50  1  0
  3 51  1  0
  4 52  1  0
  6 53  1  0
 10 54  1  0
 11 55  1  0
 12 56  1  0
 18 57  1  0
 19 58  1  0
 21 59  1  0
 25 60  1  0
 26 61  1  0
 27 62  1  0
 28 63  1  0
 32 64  1  0
 34 65  1  0
 35 66  1  0
 35 67  1  0
 36 68  1  0
 36 69  1  0
 37 70  1  0
 37 71  1  0
 38 72  1  0
 39 73  1  0
 39 74  1  0
 40 75  1  0
 40 76  1  0
 41 77  1  0
 42 78  1  0
 42 79  1  0
 42 80  1  0
 43 81  1  0
 43 82  1  0
 44 83  1  0
 44 84  1  0
 46 85  1  0
M  CHG  2  38   1  41   1
M  END
>  <meeko>  (6) 
{"is_sidechain": [false], "free_energy": -9.677, "intermolecular_energy": -13.691, "internal_energy": -4.127}

$$$$
LIB_FILQIUCXPQZUON__M_PUB_ALL__e8__s20260927
     RDKit          3D

 85 90  0  0  0  0  0  0  0  0999 V2000
    5.4860  -17.5540    1.0140 C   0  0  0  0  0  0  0  0  0  0  0  0
    4.1270  -16.9030    1.0050 C   0  0  0  0  0  0  0  0  0  0  0  0
    3.0960  -17.4790    1.7670 C   0  0  0  0  0  0  0  0  0  0  0  0
    1.8320  -16.8870    1.8330 C   0  0  0  0  0  0  0  0  0  0  0  0
    1.5710  -15.7260    1.1130 C   0  0  0  0  0  0  0  0  0  0  0  0
    0.2870  -15.1550    1.1870 N   0  0  0  0  0  0  0  0  0  0  0  0
   -0.6810  -15.2330    0.2020 C   0  0  0  0  0  0  0  0  0  0  0  0
   -0.7100  -16.1030   -0.6730 O   0  0  0  0  0  0  0  0  0  0  0  0
   -1.8040  -14.2600    0.3290 C   0  0  0  0  0  0  0  0  0  0  0  0
   -3.1190  -14.7380    0.3410 C   0  0  0  0  0  0  0  0  0  0  0  0
   -4.1860  -13.8460    0.4520 C   0  0  0  0  0  0  0  0  0  0  0  0
   -3.9460  -12.4740    0.5410 C   0  0  0  0  0  0  0  0  0  0  0  0
   -2.6350  -11.9750    0.5180 C   0  0  0  0  0  0  0  0  0  0  0  0
   -2.3720  -10.4860    0.5750 C   0  0  0  0  0  0  0  0  0  0  0  0
   -3.3020   -9.7770   -0.1230 F   0  0  0  0  0  0  0  0  0  0  0  0
   -2.4070  -10.0110    1.8470 F   0  0  0  0  0  0  0  0  0  0  0  0
   -1.1640  -10.1340    0.0620 F   0  0  0  0  0  0  0  0  0  0  0  0
   -1.5650  -12.8800    0.4000 C   0  0  0  0  0  0  0  0  0  0  0  0
    2.6050  -15.1300    0.3870 C   0  0  0  0  0  0  0  0  0  0  0  0
    3.8870  -15.7030    0.3080 C   0  0  0  0  0  0  0  0  0  0  0  0
    4.9180  -15.0620   -0.4040 N   0  0  0  0  0  0  0  0  0  0  0  0
    4.7970  -14.4160   -1.5940 C   0  0  0  0  0  0  0  0  0  0  0  0
    4.7960  -14.9420   -2.7980 N   0  0  0  0  0  0  0  0  0  0  0  0
    4.5750  -13.9090   -3.6650 C   0  0  0  0  0  0  0  0  0  0  0  0
    4.3950  -13.9450   -5.0550 C   0  0  0  0  0  0  0  0  0  0  0  0
    4.1540  -12.7470   -5.7360 C   0  0  0  0  0  0  0  0  0  0  0  0
    4.0880  -11.5370   -5.0460 C   0  0  0  0  0  0  0  0  0  0  0  0
    4.2760  -11.4810   -3.6610 C   0  0  0  0  0  0  0  0  0  0  0  0
    4.5400  -12.6890   -2.9940 C   0  0  0  0  0  0  0  0  0  0  0  0
    4.7870  -13.0210   -1.6700 N   0  0  0  0  0  0  0  0  0  0  0  0
    5.2440  -12.1680   -0.6200 C   0  0  0  0  0  0  0  0  0  0  0  0
    6.5130  -11.6300   -0.7260 C   0  0  0  0  0  0  0  0  0  0  0  0
    7.0900  -11.1730    0.4440 C   0  0  0  0  0  0  0  0  0  0  0  0
    8.4660  -10.9830    0.4670 N   0  0  0  0  0  0  0  0  0  0  0  0
    9.3750  -12.0250    0.9340 C   0  0  0  0  0  0  0  0  0  0  0  0
   10.7760  -11.4490    1.1690 C   0  0  0  0  0  0  0  0  0  0  0  0
   11.8830  -12.0800    0.3210 C   0  0  0  0  0  0  0  0  0  0  0  0
   11.3490  -13.0460   -0.7190 N   0  0  0  0  0  0  0  0  0  0  0  0
   11.4740  -12.5920   -2.1770 C   0  0  0  0  0  0  0  0  0  0  0  0
   12.5740  -13.3620   -2.9460 C   0  0  0  0  0  0  0  0  0  0  0  0
   12.3680  -14.8700   -2.9020 N   0  0  0  0  0  0  0  0  0  0  0  0
   13.6510  -15.6300   -3.1170 C   0  0  0  0  0  0  0  0  0  0  0  0
   11.5710  -15.3690   -1.7070 C   0  0  0  0  0  0  0  0  0  0  0  0
   11.8220  -14.4800   -0.4730 C   0  0  0  0  0  0  0  0  0  0  0  0
    6.4230  -11.1870    1.6070 N   0  0  0  0  0  0  0  0  0  0  0  0
    5.1340  -11.5470    1.5710 C   0  0  0  0  0  0  0  0  0  0  0  0
    4.5420  -12.1410    0.5360 N   0  0  0  0  0  0  0  0  0  0  0  0
    5.8111  -17.7097    2.0533 H   0  0  0  0  0  0  0  0  0  0  0  0
    5.4315  -18.5237    0.4977 H   0  0  0  0  0  0  0  0  0  0  0  0
    6.2075  -16.9037    0.4977 H   0  0  0  0  0  0  0  0  0  0  0  0
    3.2871  -18.4104    2.3201 H   0  0  0  0  0  0  0  0  0  0  0  0
    1.0442  -17.3387    2.4537 H   0  0  0  0  0  0  0  0  0  0  0  0
    0.0580  -14.6740    2.0520 H   0  0  0  0  0  0  0  0  0  0  0  0
   -3.3117  -15.8182    0.2628 H   0  0  0  0  0  0  0  0  0  0  0  0
   -5.2186  -14.2248    0.4694 H   0  0  0  0  0  0  0  0  0  0  0  0
   -4.7927  -11.7774    0.6300 H   0  0  0  0  0  0  0  0  0  0  0  0
   -0.5325  -12.5024    0.3631 H   0  0  0  0  0  0  0  0  0  0  0  0
    2.4106  -14.1836   -0.1389 H   0  0  0  0  0  0  0  0  0  0  0  0
    5.8310  -15.0450    0.0480 H   0  0  0  0  0  0  0  0  0  0  0  0
    4.4425  -14.8989   -5.6007 H   0  0  0  0  0  0  0  0  0  0  0  0
    4.0151  -12.7596   -6.8271 H   0  0  0  0  0  0  0  0  0  0  0  0
    3.8843  -10.6094   -5.6011 H   0  0  0  0  0  0  0  0  0  0  0  0
    4.2193  -10.5277   -3.1150 H   0  0  0  0  0  0  0  0  0  0  0  0
    7.0365  -11.5687   -1.6915 H   0  0  0  0  0  0  0  0  0  0  0  0
    8.7440  -10.0390    0.7510 H   0  0  0  0  0  0  0  0  0  0  0  0
    8.9926  -12.4431    1.8768 H   0  0  0  0  0  0  0  0  0  0  0  0
    9.4377  -12.8121    0.1681 H   0  0  0  0  0  0  0  0  0  0  0  0
   10.7450  -10.3726    0.9443 H   0  0  0  0  0  0  0  0  0  0  0  0
   11.0277  -11.6680    2.2172 H   0  0  0  0  0  0  0  0  0  0  0  0
   12.4318  -11.2776   -0.1937 H   0  0  0  0  0  0  0  0  0  0  0  0
   12.5347  -12.6506    0.9990 H   0  0  0  0  0  0  0  0  0  0  0  0
   10.3350  -13.0520   -0.5160 H   0  0  0  0  0  0  0  0  0  0  0  0
   10.5104  -12.7564   -2.6813 H   0  0  0  0  0  0  0  0  0  0  0  0
   11.7523  -11.5278   -2.1726 H   0  0  0  0  0  0  0  0  0  0  0  0
   12.5651  -13.0351   -3.9963 H   0  0  0  0  0  0  0  0  0  0  0  0
   13.5371  -13.1415   -2.4625 H   0  0  0  0  0  0  0  0  0  0  0  0
   11.8100  -15.1240   -3.7560 H   0  0  0  0  0  0  0  0  0  0  0  0
   14.0906  -15.8904   -2.1428 H   0  0  0  0  0  0  0  0  0  0  0  0
   13.4418  -16.5500   -3.6826 H   0  0  0  0  0  0  0  0  0  0  0  0
   14.3573  -15.0045   -3.6826 H   0  0  0  0  0  0  0  0  0  0  0  0
   10.4993  -15.3488   -1.9542 H   0  0  0  0  0  0  0  0  0  0  0  0
   11.8904  -16.3954   -1.4734 H   0  0  0  0  0  0  0  0  0  0  0  0
   11.2751  -14.8958    0.3861 H   0  0  0  0  0  0  0  0  0  0  0  0
   12.9033  -14.4605   -0.2718 H   0  0  0  0  0  0  0  0  0  0  0  0
    4.5201  -11.3374    2.4593 H   0  0  0  0  0  0  0  0  0  0  0  0
  1  2  1  0
  2  3  2  0
  3  4  1  0
  4  5  2  0
  5  6  1  0
  6  7  1  0
  7  8  2  0
  7  9  1  0
  9 10  2  0
 10 11  1  0
 11 12  2  0
 12 13  1  0
 13 14  1  0
 14 15  1  0
 14 16  1  0
 14 17  1  0
 13 18  2  0
  5 19  1  0
 19 20  2  0
 20 21  1  0
 21 22  1  0
 22 23  2  0
 23 24  1  0
 24 25  2  0
 25 26  1  0
 26 27  2  0
 27 28  1  0
 28 29  2  0
 29 30  1  0
 30 31  1  0
 31 32  2  0
 32 33  1  0
 33 34  1  0
 34 35  1  0
 35 36  1  0
 36 37  1  0
 37 38  1  0
 38 39  1  0
 39 40  1  0
 40 41  1  0
 41 42  1  0
 41 43  1  0
 43 44  1  0
 33 45  2  0
 45 46  1  0
 46 47  2  0
 20  2  1  0
 30 22  1  0
 47 31  1  0
 18  9  1  0
 29 24  1  0
 44 38  1  0
  1 48  1  0
  1 49  1  0
  1 50  1  0
  3 51  1  0
  4 52  1  0
  6 53  1  0
 10 54  1  0
 11 55  1  0
 12 56  1  0
 18 57  1  0
 19 58  1  0
 21 59  1  0
 25 60  1  0
 26 61  1  0
 27 62  1  0
 28 63  1  0
 32 64  1  0
 34 65  1  0
 35 66  1  0
 35 67  1  0
 36 68  1  0
 36 69  1  0
 37 70  1  0
 37 71  1  0
 38 72  1  0
 39 73  1  0
 39 74  1  0
 40 75  1  0
 40 76  1  0
 41 77  1  0
 42 78  1  0
 42 79  1  0
 42 80  1  0
 43 81  1  0
 43 82  1  0
 44 83  1  0
 44 84  1  0
 46 85  1  0
M  CHG  2  38   1  41   1
M  END
>  <meeko>  (7) 
{"is_sidechain": [false], "free_energy": -9.624, "intermolecular_energy": -15.007, "internal_energy": -2.724}

$$$$
LIB_FILQIUCXPQZUON__M_PUB_ALL__e8__s20260927
     RDKit          3D

 85 90  0  0  0  0  0  0  0  0999 V2000
    5.3780  -12.9510   -6.3280 C   0  0  0  0  0  0  0  0  0  0  0  0
    4.7060  -12.5160   -5.0520 C   0  0  0  0  0  0  0  0  0  0  0  0
    3.3360  -12.2010   -5.0820 C   0  0  0  0  0  0  0  0  0  0  0  0
    2.6540  -11.8390   -3.9170 C   0  0  0  0  0  0  0  0  0  0  0  0
    3.3400  -11.7570   -2.7100 C   0  0  0  0  0  0  0  0  0  0  0  0
    2.6330  -11.3800   -1.5520 N   0  0  0  0  0  0  0  0  0  0  0  0
    1.7070  -12.1660   -0.8890 C   0  0  0  0  0  0  0  0  0  0  0  0
    1.6560  -13.3960   -0.9730 O   0  0  0  0  0  0  0  0  0  0  0  0
    0.8240  -11.4420    0.0700 C   0  0  0  0  0  0  0  0  0  0  0  0
    0.5750  -10.0800   -0.1320 C   0  0  0  0  0  0  0  0  0  0  0  0
   -0.2430   -9.3790    0.7550 C   0  0  0  0  0  0  0  0  0  0  0  0
   -0.8070  -10.0320    1.8530 C   0  0  0  0  0  0  0  0  0  0  0  0
   -0.5590  -11.3940    2.0790 C   0  0  0  0  0  0  0  0  0  0  0  0
   -1.1350  -12.0960    3.2880 C   0  0  0  0  0  0  0  0  0  0  0  0
   -2.4150  -12.5100    3.0760 F   0  0  0  0  0  0  0  0  0  0  0  0
   -0.4260  -13.2080    3.6170 F   0  0  0  0  0  0  0  0  0  0  0  0
   -1.1690  -11.3140    4.3990 F   0  0  0  0  0  0  0  0  0  0  0  0
    0.2710  -12.0920    1.1820 C   0  0  0  0  0  0  0  0  0  0  0  0
    4.6910  -12.1070   -2.6700 C   0  0  0  0  0  0  0  0  0  0  0  0
    5.3990  -12.4790   -3.8270 C   0  0  0  0  0  0  0  0  0  0  0  0
    6.7530  -12.8590   -3.7500 N   0  0  0  0  0  0  0  0  0  0  0  0
    7.2290  -14.0840   -3.4050 C   0  0  0  0  0  0  0  0  0  0  0  0
    7.0240  -15.2280   -4.0180 N   0  0  0  0  0  0  0  0  0  0  0  0
    7.7640  -16.1580   -3.3440 C   0  0  0  0  0  0  0  0  0  0  0  0
    7.9640  -17.5140   -3.6430 C   0  0  0  0  0  0  0  0  0  0  0  0
    8.7950  -18.2730   -2.8130 C   0  0  0  0  0  0  0  0  0  0  0  0
    9.4190  -17.6940   -1.7080 C   0  0  0  0  0  0  0  0  0  0  0  0
    9.2220  -16.3460   -1.3890 C   0  0  0  0  0  0  0  0  0  0  0  0
    8.3680  -15.6020   -2.2190 C   0  0  0  0  0  0  0  0  0  0  0  0
    7.9300  -14.2860   -2.2140 N   0  0  0  0  0  0  0  0  0  0  0  0
    7.9080  -13.3700   -1.1180 C   0  0  0  0  0  0  0  0  0  0  0  0
    9.0430  -12.6200   -0.8750 C   0  0  0  0  0  0  0  0  0  0  0  0
    9.1640  -12.0750    0.3890 C   0  0  0  0  0  0  0  0  0  0  0  0
   10.4200  -11.6480    0.8030 N   0  0  0  0  0  0  0  0  0  0  0  0
   11.5900  -12.5180    0.7190 C   0  0  0  0  0  0  0  0  0  0  0  0
   12.7230  -11.8210   -0.0420 C   0  0  0  0  0  0  0  0  0  0  0  0
   12.5260  -11.7390   -1.5580 C   0  0  0  0  0  0  0  0  0  0  0  0
   13.0520  -12.9610   -2.2870 N   0  0  0  0  0  0  0  0  0  0  0  0
   12.0920  -14.1530   -2.3670 C   0  0  0  0  0  0  0  0  0  0  0  0
   11.5020  -14.3450   -3.7840 C   0  0  0  0  0  0  0  0  0  0  0  0
   12.5790  -14.4900   -4.8490 N   0  0  0  0  0  0  0  0  0  0  0  0
   12.0840  -14.1090   -6.2210 C   0  0  0  0  0  0  0  0  0  0  0  0
   13.9130  -13.8530   -4.4960 C   0  0  0  0  0  0  0  0  0  0  0  0
   13.7060  -12.6000   -3.6220 C   0  0  0  0  0  0  0  0  0  0  0  0
    8.1960  -12.2090    1.3060 N   0  0  0  0  0  0  0  0  0  0  0  0
    7.0540  -12.7870    0.9140 C   0  0  0  0  0  0  0  0  0  0  0  0
    6.9010  -13.4700   -0.2190 N   0  0  0  0  0  0  0  0  0  0  0  0
    6.2791  -13.5343   -6.0875 H   0  0  0  0  0  0  0  0  0  0  0  0
    4.6848  -13.5722   -6.9142 H   0  0  0  0  0  0  0  0  0  0  0  0
    5.6609  -12.0642   -6.9142 H   0  0  0  0  0  0  0  0  0  0  0  0
    2.7924  -12.2401   -6.0375 H   0  0  0  0  0  0  0  0  0  0  0  0
    1.5768  -11.6194   -3.9547 H   0  0  0  0  0  0  0  0  0  0  0  0
    2.8530  -10.4650   -1.1690 H   0  0  0  0  0  0  0  0  0  0  0  0
    1.0247   -9.5611   -0.9913 H   0  0  0  0  0  0  0  0  0  0  0  0
   -0.4439   -8.3103    0.5890 H   0  0  0  0  0  0  0  0  0  0  0  0
   -1.4518   -9.4731    2.5472 H   0  0  0  0  0  0  0  0  0  0  0  0
    0.4876  -13.1565    1.3550 H   0  0  0  0  0  0  0  0  0  0  0  0
    5.2176  -12.0913   -1.7044 H   0  0  0  0  0  0  0  0  0  0  0  0
    7.4310  -12.1520   -4.0290 H   0  0  0  0  0  0  0  0  0  0  0  0
    7.4755  -17.9724   -4.5155 H   0  0  0  0  0  0  0  0  0  0  0  0
    8.9583  -19.3381   -3.0339 H   0  0  0  0  0  0  0  0  0  0  0  0
   10.0776  -18.3080   -1.0762 H   0  0  0  0  0  0  0  0  0  0  0  0
    9.7173  -15.8865   -0.5210 H   0  0  0  0  0  0  0  0  0  0  0  0
    9.8103  -12.4649   -1.6477 H   0  0  0  0  0  0  0  0  0  0  0  0
   10.3990  -11.0720    1.6480 H   0  0  0  0  0  0  0  0  0  0  0  0
   11.9331  -12.7625    1.7351 H   0  0  0  0  0  0  0  0  0  0  0  0
   11.3126  -13.4367    0.1814 H   0  0  0  0  0  0  0  0  0  0  0  0
   12.8156  -10.7961    0.3465 H   0  0  0  0  0  0  0  0  0  0  0  0
   13.6241  -12.4309    0.1195 H   0  0  0  0  0  0  0  0  0  0  0  0
   11.4507  -11.6407   -1.7677 H   0  0  0  0  0  0  0  0  0  0  0  0
   13.0938  -10.8687   -1.9188 H   0  0  0  0  0  0  0  0  0  0  0  0
   13.8250  -13.2680   -1.6740 H   0  0  0  0  0  0  0  0  0  0  0  0
   12.6384  -15.0654   -2.0859 H   0  0  0  0  0  0  0  0  0  0  0  0
   11.2554  -13.9547   -1.6809 H   0  0  0  0  0  0  0  0  0  0  0  0
   10.8789  -15.2515   -3.7868 H   0  0  0  0  0  0  0  0  0  0  0  0
   10.9124  -13.4481   -4.0249 H   0  0  0  0  0  0  0  0  0  0  0  0
   12.7630  -15.5200   -4.9560 H   0  0  0  0  0  0  0  0  0  0  0  0
   11.2156  -13.4406   -6.1250 H   0  0  0  0  0  0  0  0  0  0  0  0
   12.8854  -13.5925   -6.7696 H   0  0  0  0  0  0  0  0  0  0  0  0
   11.7898  -15.0159   -6.7696 H   0  0  0  0  0  0  0  0  0  0  0  0
   14.5255  -14.5809   -3.9438 H   0  0  0  0  0  0  0  0  0  0  0  0
   14.4190  -13.5549   -5.4261 H   0  0  0  0  0  0  0  0  0  0  0  0
   14.6824  -12.1317   -3.4286 H   0  0  0  0  0  0  0  0  0  0  0  0
   13.0433  -11.9054   -4.1589 H   0  0  0  0  0  0  0  0  0  0  0  0
    6.1798  -12.6910    1.5747 H   0  0  0  0  0  0  0  0  0  0  0  0
  1  2  1  0
  2  3  2  0
  3  4  1  0
  4  5  2  0
  5  6  1  0
  6  7  1  0
  7  8  2  0
  7  9  1  0
  9 10  2  0
 10 11  1  0
 11 12  2  0
 12 13  1  0
 13 14  1  0
 14 15  1  0
 14 16  1  0
 14 17  1  0
 13 18  2  0
  5 19  1  0
 19 20  2  0
 20 21  1  0
 21 22  1  0
 22 23  2  0
 23 24  1  0
 24 25  2  0
 25 26  1  0
 26 27  2  0
 27 28  1  0
 28 29  2  0
 29 30  1  0
 30 31  1  0
 31 32  2  0
 32 33  1  0
 33 34  1  0
 34 35  1  0
 35 36  1  0
 36 37  1  0
 37 38  1  0
 38 39  1  0
 39 40  1  0
 40 41  1  0
 41 42  1  0
 41 43  1  0
 43 44  1  0
 33 45  2  0
 45 46  1  0
 46 47  2  0
 20  2  1  0
 30 22  1  0
 47 31  1  0
 18  9  1  0
 29 24  1  0
 44 38  1  0
  1 48  1  0
  1 49  1  0
  1 50  1  0
  3 51  1  0
  4 52  1  0
  6 53  1  0
 10 54  1  0
 11 55  1  0
 12 56  1  0
 18 57  1  0
 19 58  1  0
 21 59  1  0
 25 60  1  0
 26 61  1  0
 27 62  1  0
 28 63  1  0
 32 64  1  0
 34 65  1  0
 35 66  1  0
 35 67  1  0
 36 68  1  0
 36 69  1  0
 37 70  1  0
 37 71  1  0
 38 72  1  0
 39 73  1  0
 39 74  1  0
 40 75  1  0
 40 76  1  0
 41 77  1  0
 42 78  1  0
 42 79  1  0
 42 80  1  0
 43 81  1  0
 43 82  1  0
 44 83  1  0
 44 84  1  0
 46 85  1  0
M  CHG  2  38   1  41   1
M  END
>  <meeko>  (8) 
{"is_sidechain": [false], "free_energy": -9.531, "intermolecular_energy": -14.716, "internal_energy": -2.863}

$$$$
LIB_FILQIUCXPQZUON__M_PUB_ALL__e8__s20260927
     RDKit          3D

 85 90  0  0  0  0  0  0  0  0999 V2000
   10.8440  -19.2220   -0.5720 C   0  0  0  0  0  0  0  0  0  0  0  0
    9.6250  -18.4390   -0.9850 C   0  0  0  0  0  0  0  0  0  0  0  0
    8.3540  -18.9680   -0.7030 C   0  0  0  0  0  0  0  0  0  0  0  0
    7.1920  -18.2590   -1.0200 C   0  0  0  0  0  0  0  0  0  0  0  0
    7.2840  -17.0240   -1.6520 C   0  0  0  0  0  0  0  0  0  0  0  0
    6.0990  -16.3340   -1.9710 N   0  0  0  0  0  0  0  0  0  0  0  0
    5.2550  -15.7290   -1.0560 C   0  0  0  0  0  0  0  0  0  0  0  0
    5.5980  -15.3770    0.0750 O   0  0  0  0  0  0  0  0  0  0  0  0
    3.8960  -15.3910   -1.5670 C   0  0  0  0  0  0  0  0  0  0  0  0
    2.7740  -15.8770   -0.8850 C   0  0  0  0  0  0  0  0  0  0  0  0
    1.4910  -15.5800   -1.3480 C   0  0  0  0  0  0  0  0  0  0  0  0
    1.3230  -14.8060   -2.4970 C   0  0  0  0  0  0  0  0  0  0  0  0
    2.4350  -14.3210   -3.2010 C   0  0  0  0  0  0  0  0  0  0  0  0
    2.2580  -13.5150   -4.4690 C   0  0  0  0  0  0  0  0  0  0  0  0
    0.9930  -13.6100   -4.9620 F   0  0  0  0  0  0  0  0  0  0  0  0
    2.4890  -12.1910   -4.2670 F   0  0  0  0  0  0  0  0  0  0  0  0
    3.0860  -13.9050   -5.4740 F   0  0  0  0  0  0  0  0  0  0  0  0
    3.7250  -14.6290   -2.7310 C   0  0  0  0  0  0  0  0  0  0  0  0
    8.5460  -16.4780   -1.8970 C   0  0  0  0  0  0  0  0  0  0  0  0
    9.7300  -17.1690   -1.5840 C   0  0  0  0  0  0  0  0  0  0  0  0
   10.9890  -16.5790   -1.8130 N   0  0  0  0  0  0  0  0  0  0  0  0
   11.3610  -15.3170   -1.4770 C   0  0  0  0  0  0  0  0  0  0  0  0
   11.3120  -14.7510   -0.2910 N   0  0  0  0  0  0  0  0  0  0  0  0
   11.8590  -13.5090   -0.4390 C   0  0  0  0  0  0  0  0  0  0  0  0
   12.1230  -12.5380    0.5380 C   0  0  0  0  0  0  0  0  0  0  0  0
   12.7200  -11.3340    0.1500 C   0  0  0  0  0  0  0  0  0  0  0  0
   13.0510  -11.1010   -1.1840 C   0  0  0  0  0  0  0  0  0  0  0  0
   12.7850  -12.0540   -2.1740 C   0  0  0  0  0  0  0  0  0  0  0  0
   12.1650  -13.2490   -1.7720 C   0  0  0  0  0  0  0  0  0  0  0  0
   11.7440  -14.3860   -2.4460 N   0  0  0  0  0  0  0  0  0  0  0  0
   11.4520  -14.5270   -3.8370 C   0  0  0  0  0  0  0  0  0  0  0  0
   10.3230  -13.9010   -4.3310 C   0  0  0  0  0  0  0  0  0  0  0  0
    9.8310  -14.3740   -5.5330 C   0  0  0  0  0  0  0  0  0  0  0  0
    8.5230  -14.0570   -5.8780 N   0  0  0  0  0  0  0  0  0  0  0  0
    7.3940  -14.4570   -5.0440 C   0  0  0  0  0  0  0  0  0  0  0  0
    6.4140  -13.2910   -4.8720 C   0  0  0  0  0  0  0  0  0  0  0  0
    6.8510  -12.2260   -3.8630 C   0  0  0  0  0  0  0  0  0  0  0  0
    6.5930  -12.6360   -2.4260 N   0  0  0  0  0  0  0  0  0  0  0  0
    7.8360  -12.9860   -1.5990 C   0  0  0  0  0  0  0  0  0  0  0  0
    8.1830  -11.8940   -0.5600 C   0  0  0  0  0  0  0  0  0  0  0  0
    7.0210  -11.5900    0.3760 N   0  0  0  0  0  0  0  0  0  0  0  0
    7.1130  -10.2110    0.9770 C   0  0  0  0  0  0  0  0  0  0  0  0
    5.6460  -11.9040   -0.1930 C   0  0  0  0  0  0  0  0  0  0  0  0
    5.6240  -11.6870   -1.7190 C   0  0  0  0  0  0  0  0  0  0  0  0
   10.4600  -15.3400   -6.2170 N   0  0  0  0  0  0  0  0  0  0  0  0
   11.6480  -15.7460   -5.7530 C   0  0  0  0  0  0  0  0  0  0  0  0
   12.1250  -15.4660   -4.5420 N   0  0  0  0  0  0  0  0  0  0  0  0
   10.9015  -19.2589    0.5259 H   0  0  0  0  0  0  0  0  0  0  0  0
   10.7749  -20.2451   -0.9702 H   0  0  0  0  0  0  0  0  0  0  0  0
   11.7457  -18.7337   -0.9702 H   0  0  0  0  0  0  0  0  0  0  0  0
    8.2724  -19.9555   -0.2253 H   0  0  0  0  0  0  0  0  0  0  0  0
    6.2060  -18.6775   -0.7698 H   0  0  0  0  0  0  0  0  0  0  0  0
    5.8740  -16.2590   -2.9590 H   0  0  0  0  0  0  0  0  0  0  0  0
    2.9036  -16.4936    0.0167 H   0  0  0  0  0  0  0  0  0  0  0  0
    0.6109  -15.9567   -0.8062 H   0  0  0  0  0  0  0  0  0  0  0  0
    0.3087  -14.5740   -2.8540 H   0  0  0  0  0  0  0  0  0  0  0  0
    4.6066  -14.2688   -3.2816 H   0  0  0  0  0  0  0  0  0  0  0  0
    8.6158  -15.4773   -2.3484 H   0  0  0  0  0  0  0  0  0  0  0  0
   11.6960  -17.1830   -2.2280 H   0  0  0  0  0  0  0  0  0  0  0  0
   11.8649  -12.7202    1.5917 H   0  0  0  0  0  0  0  0  0  0  0  0
   12.9306  -10.5628    0.9056 H   0  0  0  0  0  0  0  0  0  0  0  0
   13.5299  -10.1510   -1.4636 H   0  0  0  0  0  0  0  0  0  0  0  0
   13.0511  -11.8743   -3.2261 H   0  0  0  0  0  0  0  0  0  0  0  0
    9.8412  -13.0697   -3.7955 H   0  0  0  0  0  0  0  0  0  0  0  0
    8.3360  -14.1250   -6.8820 H   0  0  0  0  0  0  0  0  0  0  0  0
    6.8730  -15.3005   -5.5204 H   0  0  0  0  0  0  0  0  0  0  0  0
    7.7706  -14.7542   -4.0541 H   0  0  0  0  0  0  0  0  0  0  0  0
    6.2875  -12.8038   -5.8500 H   0  0  0  0  0  0  0  0  0  0  0  0
    5.4832  -13.7255   -4.4786 H   0  0  0  0  0  0  0  0  0  0  0  0
    7.9286  -12.0443   -3.9884 H   0  0  0  0  0  0  0  0  0  0  0  0
    6.2585  -11.3204   -4.0602 H   0  0  0  0  0  0  0  0  0  0  0  0
    6.0760  -13.5250   -2.5390 H   0  0  0  0  0  0  0  0  0  0  0  0
    7.6519  -13.9319   -1.0685 H   0  0  0  0  0  0  0  0  0  0  0  0
    8.6859  -13.0699   -2.2922 H   0  0  0  0  0  0  0  0  0  0  0  0
    9.0389  -12.2370    0.0399 H   0  0  0  0  0  0  0  0  0  0  0  0
    8.4191  -10.9715   -1.1106 H   0  0  0  0  0  0  0  0  0  0  0  0
    7.1400  -12.2100    1.2180 H   0  0  0  0  0  0  0  0  0  0  0  0
    7.1079  -10.2882    2.0743 H   0  0  0  0  0  0  0  0  0  0  0  0
    8.0453   -9.7290    0.6477 H   0  0  0  0  0  0  0  0  0  0  0  0
    6.2530   -9.6094    0.6477 H   0  0  0  0  0  0  0  0  0  0  0  0
    5.3956  -12.9525    0.0261 H   0  0  0  0  0  0  0  0  0  0  0  0
    4.9099  -11.2305    0.2701 H   0  0  0  0  0  0  0  0  0  0  0  0
    4.6057  -11.8697   -2.0929 H   0  0  0  0  0  0  0  0  0  0  0  0
    5.9340  -10.6526   -1.9285 H   0  0  0  0  0  0  0  0  0  0  0  0
   12.2755  -16.3550   -6.4204 H   0  0  0  0  0  0  0  0  0  0  0  0
  1  2  1  0
  2  3  2  0
  3  4  1  0
  4  5  2  0
  5  6  1  0
  6  7  1  0
  7  8  2  0
  7  9  1  0
  9 10  2  0
 10 11  1  0
 11 12  2  0
 12 13  1  0
 13 14  1  0
 14 15  1  0
 14 16  1  0
 14 17  1  0
 13 18  2  0
  5 19  1  0
 19 20  2  0
 20 21  1  0
 21 22  1  0
 22 23  2  0
 23 24  1  0
 24 25  2  0
 25 26  1  0
 26 27  2  0
 27 28  1  0
 28 29  2  0
 29 30  1  0
 30 31  1  0
 31 32  2  0
 32 33  1  0
 33 34  1  0
 34 35  1  0
 35 36  1  0
 36 37  1  0
 37 38  1  0
 38 39  1  0
 39 40  1  0
 40 41  1  0
 41 42  1  0
 41 43  1  0
 43 44  1  0
 33 45  2  0
 45 46  1  0
 46 47  2  0
 20  2  1  0
 30 22  1  0
 47 31  1  0
 18  9  1  0
 29 24  1  0
 44 38  1  0
  1 48  1  0
  1 49  1  0
  1 50  1  0
  3 51  1  0
  4 52  1  0
  6 53  1  0
 10 54  1  0
 11 55  1  0
 12 56  1  0
 18 57  1  0
 19 58  1  0
 21 59  1  0
 25 60  1  0
 26 61  1  0
 27 62  1  0
 28 63  1  0
 32 64  1  0
 34 65  1  0
 35 66  1  0
 35 67  1  0
 36 68  1  0
 36 69  1  0
 37 70  1  0
 37 71  1  0
 38 72  1  0
 39 73  1  0
 39 74  1  0
 40 75  1  0
 40 76  1  0
 41 77  1  0
 42 78  1  0
 42 79  1  0
 42 80  1  0
 43 81  1  0
 43 82  1  0
 44 83  1  0
 44 84  1  0
 46 85  1  0
M  CHG  2  38   1  41   1
M  END
>  <meeko>  (9) 
{"is_sidechain": [false], "free_energy": -9.515, "intermolecular_energy": -13.023, "internal_energy": -4.529}

$$$$
