LIB_DIMKSBQDWMXKAH__M_PUB_ALL__e8__s20260927
     RDKit          3D

 52 56  0  0  0  0  0  0  0  0999 V2000
    8.6200  -19.9610   -5.8240 C   0  0  0  0  0  0  0  0  0  0  0  0
    8.5430  -18.7500   -6.6670 C   0  0  0  0  0  0  0  0  0  0  0  0
    7.7260  -17.6480   -6.5380 C   0  0  0  0  0  0  0  0  0  0  0  0
    8.0450  -16.7960   -7.5770 N   0  0  0  0  0  0  0  0  0  0  0  0
    7.4620  -15.5220   -7.8580 C   0  0  0  0  0  0  0  0  0  0  0  0
    6.9590  -14.7220   -6.8190 C   0  0  0  0  0  0  0  0  0  0  0  0
    6.3920  -13.4700   -7.0820 C   0  0  0  0  0  0  0  0  0  0  0  0
    5.8670  -12.6130   -6.0920 N   0  0  0  0  0  0  0  0  0  0  0  0
    4.8430  -12.8710   -5.1840 C   0  0  0  0  0  0  0  0  0  0  0  0
    4.2690  -13.9470   -5.0830 O   0  0  0  0  0  0  0  0  0  0  0  0
    4.5880  -11.7390   -4.4290 N   0  0  0  0  0  0  0  0  0  0  0  0
    3.6840  -11.5840   -3.3560 C   0  0  0  0  0  0  0  0  0  0  0  0
    2.6550  -10.6560   -3.5380 C   0  0  0  0  0  0  0  0  0  0  0  0
    1.7230  -10.4270   -2.5260 C   0  0  0  0  0  0  0  0  0  0  0  0
    1.7960  -11.1190   -1.3110 C   0  0  0  0  0  0  0  0  0  0  0  0
    0.6730  -10.7660   -0.2270 C   0  0  0  0  0  0  0  0  0  0  0  0
    0.6470   -9.5520    0.4540 N   0  0  0  0  0  0  0  0  0  0  0  0
   -0.4210   -9.6580    1.2500 C   0  0  0  0  0  0  0  0  0  0  0  0
   -0.9890   -8.8510    2.1470 N   0  0  0  0  0  0  0  0  0  0  0  0
   -2.0900   -9.6180    2.6100 N   0  0  0  0  0  0  0  0  0  0  0  0
   -2.0360  -10.8120    1.9140 C   0  0  0  0  0  0  0  0  0  0  0  0
   -0.9900  -10.8270    1.0680 C   0  0  0  0  0  0  0  0  0  0  0  0
   -0.3750  -11.5900    0.1610 N   0  0  0  0  0  0  0  0  0  0  0  0
    2.8220  -12.0590   -1.1100 C   0  0  0  0  0  0  0  0  0  0  0  0
    2.9610  -12.8370    0.1680 C   0  0  0  0  0  0  0  0  0  0  0  0
    3.7610  -12.2770   -2.1460 C   0  0  0  0  0  0  0  0  0  0  0  0
    6.3190  -13.0220   -8.4050 C   0  0  0  0  0  0  0  0  0  0  0  0
    6.8050  -13.8050   -9.4620 C   0  0  0  0  0  0  0  0  0  0  0  0
    6.7430  -13.2990  -10.8820 C   0  0  0  0  0  0  0  0  0  0  0  0
    6.7160  -11.9390  -10.9610 F   0  0  0  0  0  0  0  0  0  0  0  0
    5.6320  -13.7310  -11.5380 F   0  0  0  0  0  0  0  0  0  0  0  0
    7.8040  -13.6920  -11.6420 F   0  0  0  0  0  0  0  0  0  0  0  0
    7.3830  -15.0530   -9.1780 C   0  0  0  0  0  0  0  0  0  0  0  0
    9.0420  -17.4430   -8.2780 C   0  0  0  0  0  0  0  0  0  0  0  0
    9.3580  -18.6080   -7.7540 N   0  0  0  0  0  0  0  0  0  0  0  0
    8.6016  -19.6710   -4.7631 H   0  0  0  0  0  0  0  0  0  0  0  0
    7.7615  -20.6138   -6.0407 H   0  0  0  0  0  0  0  0  0  0  0  0
    9.5542  -20.4998   -6.0407 H   0  0  0  0  0  0  0  0  0  0  0  0
    6.9676  -17.4797   -5.7593 H   0  0  0  0  0  0  0  0  0  0  0  0
    7.0116  -15.0854   -5.7821 H   0  0  0  0  0  0  0  0  0  0  0  0
    6.3080  -11.7120   -5.9990 H   0  0  0  0  0  0  0  0  0  0  0  0
    5.0800  -10.8970   -4.6760 H   0  0  0  0  0  0  0  0  0  0  0  0
    2.5797  -10.1026   -4.4856 H   0  0  0  0  0  0  0  0  0  0  0  0
    0.9195   -9.6926   -2.6846 H   0  0  0  0  0  0  0  0  0  0  0  0
   -2.7520  -11.6382    2.0358 H   0  0  0  0  0  0  0  0  0  0  0  0
    2.8398  -12.1585    1.0253 H   0  0  0  0  0  0  0  0  0  0  0  0
    2.1883  -13.6190    0.2071 H   0  0  0  0  0  0  0  0  0  0  0  0
    3.9566  -13.3030    0.2071 H   0  0  0  0  0  0  0  0  0  0  0  0
    4.5689  -13.0080   -1.9950 H   0  0  0  0  0  0  0  0  0  0  0  0
    5.8732  -12.0396   -8.6198 H   0  0  0  0  0  0  0  0  0  0  0  0
    7.7780  -15.6693   -9.9991 H   0  0  0  0  0  0  0  0  0  0  0  0
    9.5210  -17.0295   -9.1778 H   0  0  0  0  0  0  0  0  0  0  0  0
  1  2  1  0
  2  3  2  0
  3  4  1  0
  4  5  1  0
  5  6  2  0
  6  7  1  0
  7  8  1  0
  8  9  1  0
  9 10  2  0
  9 11  1  0
 11 12  1  0
 12 13  2  0
 13 14  1  0
 14 15  2  0
 15 16  1  0
 16 17  2  0
 17 18  1  0
 18 19  1  0
 19 20  1  0
 20 21  2  0
 21 22  1  0
 22 23  1  0
 15 24  1  0
 24 25  1  0
 24 26  2  0
  7 27  2  0
 27 28  1  0
 28 29  1  0
 29 30  1  0
 29 31  1  0
 29 32  1  0
 28 33  2  0
  4 34  1  0
 34 35  2  0
 35  2  1  0
 33  5  1  0
 26 12  1  0
 23 16  1  0
 22 18  2  0
  1 36  1  0
  1 37  1  0
  1 38  1  0
  3 39  1  0
  6 40  1  0
  8 41  1  0
 11 42  1  0
 13 43  1  0
 14 44  1  0
 21 45  1  0
 25 46  1  0
 25 47  1  0
 25 48  1  0
 26 49  1  0
 27 50  1  0
 33 51  1  0
 34 52  1  0
M  CHG  2  19  -1  23  -1
M  END
>  <meeko>  (1) 
{"is_sidechain": [false], "free_energy": -9.064, "intermolecular_energy": -11.714, "internal_energy": -0.763}

$$$$
LIB_DIMKSBQDWMXKAH__M_PUB_ALL__e8__s20260927
     RDKit          3D

 52 56  0  0  0  0  0  0  0  0999 V2000
   15.0040  -15.2530   -6.9270 C   0  0  0  0  0  0  0  0  0  0  0  0
   13.8180  -14.7450   -6.2040 C   0  0  0  0  0  0  0  0  0  0  0  0
   13.6900  -14.3980   -4.8770 C   0  0  0  0  0  0  0  0  0  0  0  0
   12.3840  -13.9830   -4.7020 N   0  0  0  0  0  0  0  0  0  0  0  0
   11.7790  -13.5240   -3.4920 C   0  0  0  0  0  0  0  0  0  0  0  0
   10.4340  -13.8170   -3.2100 C   0  0  0  0  0  0  0  0  0  0  0  0
    9.8330  -13.3780   -2.0260 C   0  0  0  0  0  0  0  0  0  0  0  0
    8.4910  -13.6320   -1.6750 N   0  0  0  0  0  0  0  0  0  0  0  0
    7.4700  -12.7110   -1.4490 C   0  0  0  0  0  0  0  0  0  0  0  0
    7.5950  -11.5010   -1.5820 O   0  0  0  0  0  0  0  0  0  0  0  0
    6.3170  -13.3720   -1.0610 N   0  0  0  0  0  0  0  0  0  0  0  0
    5.0390  -12.8320   -0.8010 C   0  0  0  0  0  0  0  0  0  0  0  0
    4.6070  -12.8650    0.5270 C   0  0  0  0  0  0  0  0  0  0  0  0
    3.3530  -12.3650    0.8740 C   0  0  0  0  0  0  0  0  0  0  0  0
    2.5010  -11.8210   -0.0950 C   0  0  0  0  0  0  0  0  0  0  0  0
    1.0870  -11.2850    0.4260 C   0  0  0  0  0  0  0  0  0  0  0  0
    0.9080   -9.9900    0.9050 N   0  0  0  0  0  0  0  0  0  0  0  0
   -0.3860   -9.9500    1.2350 C   0  0  0  0  0  0  0  0  0  0  0  0
   -1.1800   -9.0090    1.7480 N   0  0  0  0  0  0  0  0  0  0  0  0
   -2.4340   -9.6670    1.8350 N   0  0  0  0  0  0  0  0  0  0  0  0
   -2.2230  -10.9460    1.3520 C   0  0  0  0  0  0  0  0  0  0  0  0
   -0.9410  -11.1120    0.9810 C   0  0  0  0  0  0  0  0  0  0  0  0
   -0.0960  -12.0120    0.4710 N   0  0  0  0  0  0  0  0  0  0  0  0
    2.9200  -11.7760   -1.4360 C   0  0  0  0  0  0  0  0  0  0  0  0
    2.0590  -11.2060   -2.5290 C   0  0  0  0  0  0  0  0  0  0  0  0
    4.1950  -12.2890   -1.7730 C   0  0  0  0  0  0  0  0  0  0  0  0
   10.5880  -12.6270   -1.1180 C   0  0  0  0  0  0  0  0  0  0  0  0
   11.9300  -12.3140   -1.3790 C   0  0  0  0  0  0  0  0  0  0  0  0
   12.7410  -11.5250   -0.3810 C   0  0  0  0  0  0  0  0  0  0  0  0
   11.9920  -10.6330    0.3260 F   0  0  0  0  0  0  0  0  0  0  0  0
   13.7260  -10.7970   -0.9720 F   0  0  0  0  0  0  0  0  0  0  0  0
   13.3580  -12.3060    0.5490 F   0  0  0  0  0  0  0  0  0  0  0  0
   12.5200  -12.7740   -2.5670 C   0  0  0  0  0  0  0  0  0  0  0  0
   11.7990  -14.1090   -5.9450 C   0  0  0  0  0  0  0  0  0  0  0  0
   12.6340  -14.5600   -6.8580 N   0  0  0  0  0  0  0  0  0  0  0  0
   15.7641  -15.5786   -6.2015 H   0  0  0  0  0  0  0  0  0  0  0  0
   14.7114  -16.1047   -7.5586 H   0  0  0  0  0  0  0  0  0  0  0  0
   15.4186  -14.4535   -7.5586 H   0  0  0  0  0  0  0  0  0  0  0  0
   14.4744  -14.4426   -4.1071 H   0  0  0  0  0  0  0  0  0  0  0  0
    9.8444  -14.4010   -3.9320 H   0  0  0  0  0  0  0  0  0  0  0  0
    8.2170  -14.6000   -1.6160 H   0  0  0  0  0  0  0  0  0  0  0  0
    6.3810  -14.3650   -0.9110 H   0  0  0  0  0  0  0  0  0  0  0  0
    5.2606  -13.2883    1.3039 H   0  0  0  0  0  0  0  0  0  0  0  0
    3.0279  -12.3982    1.9244 H   0  0  0  0  0  0  0  0  0  0  0  0
   -2.9990  -11.7224    1.2810 H   0  0  0  0  0  0  0  0  0  0  0  0
    1.2204  -10.6509   -2.0833 H   0  0  0  0  0  0  0  0  0  0  0  0
    2.6591  -10.5262   -3.1516 H   0  0  0  0  0  0  0  0  0  0  0  0
    1.6676  -12.0240   -3.1516 H   0  0  0  0  0  0  0  0  0  0  0  0
    4.5282  -12.2597   -2.8209 H   0  0  0  0  0  0  0  0  0  0  0  0
   10.1217  -12.2768   -0.1853 H   0  0  0  0  0  0  0  0  0  0  0  0
   13.5754  -12.5436   -2.7747 H   0  0  0  0  0  0  0  0  0  0  0  0
   10.7477  -13.8595   -6.1514 H   0  0  0  0  0  0  0  0  0  0  0  0
  1  2  1  0
  2  3  2  0
  3  4  1  0
  4  5  1  0
  5  6  2  0
  6  7  1  0
  7  8  1  0
  8  9  1  0
  9 10  2  0
  9 11  1  0
 11 12  1  0
 12 13  2  0
 13 14  1  0
 14 15  2  0
 15 16  1  0
 16 17  2  0
 17 18  1  0
 18 19  1  0
 19 20  1  0
 20 21  2  0
 21 22  1  0
 22 23  1  0
 15 24  1  0
 24 25  1  0
 24 26  2  0
  7 27  2  0
 27 28  1  0
 28 29  1  0
 29 30  1  0
 29 31  1  0
 29 32  1  0
 28 33  2  0
  4 34  1  0
 34 35  2  0
 35  2  1  0
 33  5  1  0
 26 12  1  0
 23 16  1  0
 22 18  2  0
  1 36  1  0
  1 37  1  0
  1 38  1  0
  3 39  1  0
  6 40  1  0
  8 41  1  0
 11 42  1  0
 13 43  1  0
 14 44  1  0
 21 45  1  0
 25 46  1  0
 25 47  1  0
 25 48  1  0
 26 49  1  0
 27 50  1  0
 33 51  1  0
 34 52  1  0
M  CHG  2  19  -1  23  -1
M  END
>  <meeko>  (2) 
{"is_sidechain": [false], "free_energy": -8.732, "intermolecular_energy": -11.262, "internal_energy": -0.785}

$$$$
LIB_DIMKSBQDWMXKAH__M_PUB_ALL__e8__s20260927
     RDKit          3D

 52 56  0  0  0  0  0  0  0  0999 V2000
  -11.6540  -23.8240    9.2600 C   0  0  0  0  0  0  0  0  0  0  0  0
  -11.7880  -22.4110    8.8420 C   0  0  0  0  0  0  0  0  0  0  0  0
  -10.8270  -21.4260    8.7810 C   0  0  0  0  0  0  0  0  0  0  0  0
  -11.4610  -20.2850    8.3270 N   0  0  0  0  0  0  0  0  0  0  0  0
  -10.8720  -19.0030    8.1010 C   0  0  0  0  0  0  0  0  0  0  0  0
   -9.5370  -18.8950    7.6780 C   0  0  0  0  0  0  0  0  0  0  0  0
   -8.9520  -17.6450    7.4480 C   0  0  0  0  0  0  0  0  0  0  0  0
   -7.6200  -17.4590    7.0220 N   0  0  0  0  0  0  0  0  0  0  0  0
   -7.1640  -17.0930    5.7580 C   0  0  0  0  0  0  0  0  0  0  0  0
   -7.8950  -16.8200    4.8150 O   0  0  0  0  0  0  0  0  0  0  0  0
   -5.7790  -17.0850    5.7420 N   0  0  0  0  0  0  0  0  0  0  0  0
   -4.9140  -16.7090    4.6910 C   0  0  0  0  0  0  0  0  0  0  0  0
   -4.2190  -17.7420    4.0560 C   0  0  0  0  0  0  0  0  0  0  0  0
   -3.3340  -17.4630    3.0160 C   0  0  0  0  0  0  0  0  0  0  0  0
   -3.1210  -16.1470    2.5870 C   0  0  0  0  0  0  0  0  0  0  0  0
   -2.0770  -15.9540    1.3890 C   0  0  0  0  0  0  0  0  0  0  0  0
   -2.4790  -15.7620    0.0710 N   0  0  0  0  0  0  0  0  0  0  0  0
   -1.3290  -15.6520   -0.5990 C   0  0  0  0  0  0  0  0  0  0  0  0
   -1.0210  -15.4600   -1.8820 N   0  0  0  0  0  0  0  0  0  0  0  0
    0.3980  -15.4490   -1.8690 N   0  0  0  0  0  0  0  0  0  0  0  0
    0.7640  -15.6410   -0.5490 C   0  0  0  0  0  0  0  0  0  0  0  0
   -0.3220  -15.7660    0.2360 C   0  0  0  0  0  0  0  0  0  0  0  0
   -0.6930  -15.9580    1.5040 N   0  0  0  0  0  0  0  0  0  0  0  0
   -3.8130  -15.0950    3.2120 C   0  0  0  0  0  0  0  0  0  0  0  0
   -3.6340  -13.6600    2.8020 C   0  0  0  0  0  0  0  0  0  0  0  0
   -4.7060  -15.3950    4.2670 C   0  0  0  0  0  0  0  0  0  0  0  0
   -9.7130  -16.4900    7.6560 C   0  0  0  0  0  0  0  0  0  0  0  0
  -11.0450  -16.5700    8.0870 C   0  0  0  0  0  0  0  0  0  0  0  0
  -11.8630  -15.3170    8.2840 C   0  0  0  0  0  0  0  0  0  0  0  0
  -13.1140  -15.5680    8.7610 F   0  0  0  0  0  0  0  0  0  0  0  0
  -12.0390  -14.6260    7.1250 F   0  0  0  0  0  0  0  0  0  0  0  0
  -11.3020  -14.4390    9.1620 F   0  0  0  0  0  0  0  0  0  0  0  0
  -11.6200  -17.8330    8.3000 C   0  0  0  0  0  0  0  0  0  0  0  0
  -12.7770  -20.6560    8.1430 C   0  0  0  0  0  0  0  0  0  0  0  0
  -12.9970  -21.9190    8.4410 N   0  0  0  0  0  0  0  0  0  0  0  0
  -11.6485  -23.8825   10.3584 H   0  0  0  0  0  0  0  0  0  0  0  0
  -12.5011  -24.4048    8.8662 H   0  0  0  0  0  0  0  0  0  0  0  0
  -10.7128  -24.2352    8.8662 H   0  0  0  0  0  0  0  0  0  0  0  0
   -9.7634  -21.5277    9.0424 H   0  0  0  0  0  0  0  0  0  0  0  0
   -8.9420  -19.8075    7.5251 H   0  0  0  0  0  0  0  0  0  0  0  0
   -6.9050  -17.5640    7.7240 H   0  0  0  0  0  0  0  0  0  0  0  0
   -5.3050  -17.4130    6.5670 H   0  0  0  0  0  0  0  0  0  0  0  0
   -4.3715  -18.7823    4.3792 H   0  0  0  0  0  0  0  0  0  0  0  0
   -2.7957  -18.2875    2.5256 H   0  0  0  0  0  0  0  0  0  0  0  0
    1.8026  -15.6855   -0.1894 H   0  0  0  0  0  0  0  0  0  0  0  0
   -3.5553  -13.0292    3.6998 H   0  0  0  0  0  0  0  0  0  0  0  0
   -2.7166  -13.5615    2.2031 H   0  0  0  0  0  0  0  0  0  0  0  0
   -4.4991  -13.3391    2.2031 H   0  0  0  0  0  0  0  0  0  0  0  0
   -5.2477  -14.5765    4.7636 H   0  0  0  0  0  0  0  0  0  0  0  0
   -9.2596  -15.5036    7.4787 H   0  0  0  0  0  0  0  0  0  0  0  0
  -12.6679  -17.9059    8.6263 H   0  0  0  0  0  0  0  0  0  0  0  0
  -13.5588  -19.9697    7.7855 H   0  0  0  0  0  0  0  0  0  0  0  0
  1  2  1  0
  2  3  2  0
  3  4  1  0
  4  5  1  0
  5  6  2  0
  6  7  1  0
  7  8  1  0
  8  9  1  0
  9 10  2  0
  9 11  1  0
 11 12  1  0
 12 13  2  0
 13 14  1  0
 14 15  2  0
 15 16  1  0
 16 17  2  0
 17 18  1  0
 18 19  1  0
 19 20  1  0
 20 21  2  0
 21 22  1  0
 22 23  1  0
 15 24  1  0
 24 25  1  0
 24 26  2  0
  7 27  2  0
 27 28  1  0
 28 29  1  0
 29 30  1  0
 29 31  1  0
 29 32  1  0
 28 33  2  0
  4 34  1  0
 34 35  2  0
 35  2  1  0
 33  5  1  0
 26 12  1  0
 23 16  1  0
 22 18  2  0
  1 36  1  0
  1 37  1  0
  1 38  1  0
  3 39  1  0
  6 40  1  0
  8 41  1  0
 11 42  1  0
 13 43  1  0
 14 44  1  0
 21 45  1  0
 25 46  1  0
 25 47  1  0
 25 48  1  0
 26 49  1  0
 27 50  1  0
 33 51  1  0
 34 52  1  0
M  CHG  2  19  -1  23  -1
M  END
>  <meeko>  (3) 
{"is_sidechain": [false], "free_energy": -8.704, "intermolecular_energy": -11.147, "internal_energy": -0.865}

$$$$
LIB_DIMKSBQDWMXKAH__M_PUB_ALL__e8__s20260927
     RDKit          3D

 52 56  0  0  0  0  0  0  0  0999 V2000
   -4.2320  -10.6980   -0.8000 C   0  0  0  0  0  0  0  0  0  0  0  0
   -3.9220  -11.8380    0.0880 C   0  0  0  0  0  0  0  0  0  0  0  0
   -2.6960  -12.3220    0.4890 C   0  0  0  0  0  0  0  0  0  0  0  0
   -2.9480  -13.3990    1.3170 N   0  0  0  0  0  0  0  0  0  0  0  0
   -1.9860  -14.2220    1.9780 C   0  0  0  0  0  0  0  0  0  0  0  0
   -0.6460  -13.8140    2.0810 C   0  0  0  0  0  0  0  0  0  0  0  0
    0.3040  -14.6100    2.7310 C   0  0  0  0  0  0  0  0  0  0  0  0
    1.6640  -14.2670    2.8730 N   0  0  0  0  0  0  0  0  0  0  0  0
    2.6010  -14.0260    1.8700 C   0  0  0  0  0  0  0  0  0  0  0  0
    2.3430  -14.0280    0.6740 O   0  0  0  0  0  0  0  0  0  0  0  0
    3.8420  -13.7850    2.4340 N   0  0  0  0  0  0  0  0  0  0  0  0
    5.0470  -13.4310    1.7890 C   0  0  0  0  0  0  0  0  0  0  0  0
    5.8060  -14.4820    1.2670 C   0  0  0  0  0  0  0  0  0  0  0  0
    7.0170  -14.2280    0.6240 C   0  0  0  0  0  0  0  0  0  0  0  0
    7.4980  -12.9210    0.4880 C   0  0  0  0  0  0  0  0  0  0  0  0
    8.9010  -12.7580   -0.2640 C   0  0  0  0  0  0  0  0  0  0  0  0
   10.1020  -12.5940    0.4210 N   0  0  0  0  0  0  0  0  0  0  0  0
   11.0110  -12.4940   -0.5520 C   0  0  0  0  0  0  0  0  0  0  0  0
   12.3340  -12.3230   -0.5670 N   0  0  0  0  0  0  0  0  0  0  0  0
   12.6340  -12.3060   -1.9540 N   0  0  0  0  0  0  0  0  0  0  0  0
   11.4250  -12.4720   -2.6040 C   0  0  0  0  0  0  0  0  0  0  0  0
   10.4180  -12.5880   -1.7200 C   0  0  0  0  0  0  0  0  0  0  0  0
    9.0950  -12.7560   -1.6390 N   0  0  0  0  0  0  0  0  0  0  0  0
    6.7470  -11.8500    1.0040 C   0  0  0  0  0  0  0  0  0  0  0  0
    7.2020  -10.4220    0.8920 C   0  0  0  0  0  0  0  0  0  0  0  0
    5.5220  -12.1250    1.6550 C   0  0  0  0  0  0  0  0  0  0  0  0
   -0.0950  -15.8360    3.2750 C   0  0  0  0  0  0  0  0  0  0  0  0
   -1.4250  -16.2720    3.1780 C   0  0  0  0  0  0  0  0  0  0  0  0
   -1.8480  -17.5840    3.7910 C   0  0  0  0  0  0  0  0  0  0  0  0
   -0.8130  -18.2620    4.3620 F   0  0  0  0  0  0  0  0  0  0  0  0
   -2.3880  -18.4330    2.8750 F   0  0  0  0  0  0  0  0  0  0  0  0
   -2.7830  -17.4440    4.7710 F   0  0  0  0  0  0  0  0  0  0  0  0
   -2.3670  -15.4530    2.5340 C   0  0  0  0  0  0  0  0  0  0  0  0
   -4.3230  -13.5000    1.3630 C   0  0  0  0  0  0  0  0  0  0  0  0
   -4.9260  -12.5810    0.6400 N   0  0  0  0  0  0  0  0  0  0  0  0
   -4.4724   -9.8139   -0.1913 H   0  0  0  0  0  0  0  0  0  0  0  0
   -3.3605  -10.4801   -1.4348 H   0  0  0  0  0  0  0  0  0  0  0  0
   -5.0938  -10.9515   -1.4348 H   0  0  0  0  0  0  0  0  0  0  0  0
   -1.7090  -11.9279    0.2053 H   0  0  0  0  0  0  0  0  0  0  0  0
   -0.3381  -12.8529    1.6435 H   0  0  0  0  0  0  0  0  0  0  0  0
    2.0000  -14.1410    3.8140 H   0  0  0  0  0  0  0  0  0  0  0  0
    3.9270  -13.8970    3.4310 H   0  0  0  0  0  0  0  0  0  0  0  0
    5.4456  -15.5168    1.3640 H   0  0  0  0  0  0  0  0  0  0  0  0
    7.6021  -15.0664    0.2182 H   0  0  0  0  0  0  0  0  0  0  0  0
   11.3032  -12.5048   -3.6967 H   0  0  0  0  0  0  0  0  0  0  0  0
    7.3365  -10.0000    1.8989 H   0  0  0  0  0  0  0  0  0  0  0  0
    8.1570  -10.3831    0.3476 H   0  0  0  0  0  0  0  0  0  0  0  0
    6.4455   -9.8378    0.3476 H   0  0  0  0  0  0  0  0  0  0  0  0
    4.9310  -11.2924    2.0644 H   0  0  0  0  0  0  0  0  0  0  0  0
    0.6458  -16.4679    3.7868 H   0  0  0  0  0  0  0  0  0  0  0  0
   -3.4150  -15.7801    2.4647 H   0  0  0  0  0  0  0  0  0  0  0  0
   -4.8581  -14.2669    1.9423 H   0  0  0  0  0  0  0  0  0  0  0  0
  1  2  1  0
  2  3  2  0
  3  4  1  0
  4  5  1  0
  5  6  2  0
  6  7  1  0
  7  8  1  0
  8  9  1  0
  9 10  2  0
  9 11  1  0
 11 12  1  0
 12 13  2  0
 13 14  1  0
 14 15  2  0
 15 16  1  0
 16 17  2  0
 17 18  1  0
 18 19  1  0
 19 20  1  0
 20 21  2  0
 21 22  1  0
 22 23  1  0
 15 24  1  0
 24 25  1  0
 24 26  2  0
  7 27  2  0
 27 28  1  0
 28 29  1  0
 29 30  1  0
 29 31  1  0
 29 32  1  0
 28 33  2  0
  4 34  1  0
 34 35  2  0
 35  2  1  0
 33  5  1  0
 26 12  1  0
 23 16  1  0
 22 18  2  0
  1 36  1  0
  1 37  1  0
  1 38  1  0
  3 39  1  0
  6 40  1  0
  8 41  1  0
 11 42  1  0
 13 43  1  0
 14 44  1  0
 21 45  1  0
 25 46  1  0
 25 47  1  0
 25 48  1  0
 26 49  1  0
 27 50  1  0
 33 51  1  0
 34 52  1  0
M  CHG  2  19  -1  23  -1
M  END
>  <meeko>  (4) 
{"is_sidechain": [false], "free_energy": -8.596, "intermolecular_energy": -11.028, "internal_energy": -0.842}

$$$$
LIB_DIMKSBQDWMXKAH__M_PUB_ALL__e8__s20260927
     RDKit          3D

 52 56  0  0  0  0  0  0  0  0999 V2000
   -4.0270  -10.6630   -0.6390 C   0  0  0  0  0  0  0  0  0  0  0  0
   -3.7220  -11.7710    0.2900 C   0  0  0  0  0  0  0  0  0  0  0  0
   -2.5120  -12.1440    0.8340 C   0  0  0  0  0  0  0  0  0  0  0  0
   -2.7620  -13.2390    1.6380 N   0  0  0  0  0  0  0  0  0  0  0  0
   -1.8140  -13.9750    2.4130 C   0  0  0  0  0  0  0  0  0  0  0  0
   -0.4470  -13.6520    2.3640 C   0  0  0  0  0  0  0  0  0  0  0  0
    0.4900  -14.3620    3.1230 C   0  0  0  0  0  0  0  0  0  0  0  0
    1.8750  -14.0960    3.1250 N   0  0  0  0  0  0  0  0  0  0  0  0
    2.7600  -14.1320    2.0500 C   0  0  0  0  0  0  0  0  0  0  0  0
    2.4280  -14.3580    0.8940 O   0  0  0  0  0  0  0  0  0  0  0  0
    4.0470  -13.8730    2.4910 N   0  0  0  0  0  0  0  0  0  0  0  0
    5.2280  -13.7450    1.7290 C   0  0  0  0  0  0  0  0  0  0  0  0
    5.8640  -12.5020    1.7690 C   0  0  0  0  0  0  0  0  0  0  0  0
    7.0300  -12.2810    1.0380 C   0  0  0  0  0  0  0  0  0  0  0  0
    7.5880  -13.2950    0.2500 C   0  0  0  0  0  0  0  0  0  0  0  0
    8.9240  -12.9180   -0.5470 C   0  0  0  0  0  0  0  0  0  0  0  0
    8.9090  -12.4930   -1.8720 N   0  0  0  0  0  0  0  0  0  0  0  0
   10.1990  -12.2910   -2.1550 C   0  0  0  0  0  0  0  0  0  0  0  0
   10.8540  -11.8860   -3.2430 N   0  0  0  0  0  0  0  0  0  0  0  0
   12.2090  -11.9050   -2.8220 N   0  0  0  0  0  0  0  0  0  0  0  0
   12.1880  -12.3290   -1.5060 C   0  0  0  0  0  0  0  0  0  0  0  0
   10.9290  -12.5670   -1.0990 C   0  0  0  0  0  0  0  0  0  0  0  0
   10.2170  -12.9690   -0.0420 N   0  0  0  0  0  0  0  0  0  0  0  0
    6.9640  -14.5540    0.1990 C   0  0  0  0  0  0  0  0  0  0  0  0
    7.5080  -15.6880   -0.6240 C   0  0  0  0  0  0  0  0  0  0  0  0
    5.7810  -14.7610    0.9460 C   0  0  0  0  0  0  0  0  0  0  0  0
    0.0500  -15.4140    3.9340 C   0  0  0  0  0  0  0  0  0  0  0  0
   -1.3070  -15.7630    3.9940 C   0  0  0  0  0  0  0  0  0  0  0  0
   -1.7710  -16.8840    4.8910 C   0  0  0  0  0  0  0  0  0  0  0  0
   -2.9090  -16.5800    5.5760 F   0  0  0  0  0  0  0  0  0  0  0  0
   -0.8460  -17.2100    5.8340 F   0  0  0  0  0  0  0  0  0  0  0  0
   -2.0420  -18.0370    4.2170 F   0  0  0  0  0  0  0  0  0  0  0  0
   -2.2340  -15.0310    3.2350 C   0  0  0  0  0  0  0  0  0  0  0  0
   -4.1190  -13.4630    1.5280 C   0  0  0  0  0  0  0  0  0  0  0  0
   -4.7140  -12.6000    0.7310 N   0  0  0  0  0  0  0  0  0  0  0  0
   -4.2757   -9.7595   -0.0630 H   0  0  0  0  0  0  0  0  0  0  0  0
   -3.1502  -10.4640   -1.2728 H   0  0  0  0  0  0  0  0  0  0  0  0
   -4.8821  -10.9407   -1.2728 H   0  0  0  0  0  0  0  0  0  0  0  0
   -1.5376  -11.6636    0.6616 H   0  0  0  0  0  0  0  0  0  0  0  0
   -0.1083  -12.8280    1.7188 H   0  0  0  0  0  0  0  0  0  0  0  0
    2.2750  -13.8070    4.0030 H   0  0  0  0  0  0  0  0  0  0  0  0
    4.1860  -13.7860    3.4840 H   0  0  0  0  0  0  0  0  0  0  0  0
    5.4417  -11.6919    2.3817 H   0  0  0  0  0  0  0  0  0  0  0  0
    7.5186  -11.2964    1.0808 H   0  0  0  0  0  0  0  0  0  0  0  0
   13.0814  -12.4547   -0.8767 H   0  0  0  0  0  0  0  0  0  0  0  0
    7.8863  -16.4766    0.0430 H   0  0  0  0  0  0  0  0  0  0  0  0
    6.7081  -16.0971   -1.2587 H   0  0  0  0  0  0  0  0  0  0  0  0
    8.3277  -15.3202   -1.2587 H   0  0  0  0  0  0  0  0  0  0  0  0
    5.2860  -15.7427    0.9096 H   0  0  0  0  0  0  0  0  0  0  0  0
    0.7804  -15.9764    4.5342 H   0  0  0  0  0  0  0  0  0  0  0  0
   -3.3022  -15.2887    3.2856 H   0  0  0  0  0  0  0  0  0  0  0  0
   -4.6469  -14.2749    2.0498 H   0  0  0  0  0  0  0  0  0  0  0  0
  1  2  1  0
  2  3  2  0
  3  4  1  0
  4  5  1  0
  5  6  2  0
  6  7  1  0
  7  8  1  0
  8  9  1  0
  9 10  2  0
  9 11  1  0
 11 12  1  0
 12 13  2  0
 13 14  1  0
 14 15  2  0
 15 16  1  0
 16 17  2  0
 17 18  1  0
 18 19  1  0
 19 20  1  0
 20 21  2  0
 21 22  1  0
 22 23  1  0
 15 24  1  0
 24 25  1  0
 24 26  2  0
  7 27  2  0
 27 28  1  0
 28 29  1  0
 29 30  1  0
 29 31  1  0
 29 32  1  0
 28 33  2  0
  4 34  1  0
 34 35  2  0
 35  2  1  0
 33  5  1  0
 26 12  1  0
 23 16  1  0
 22 18  2  0
  1 36  1  0
  1 37  1  0
  1 38  1  0
  3 39  1  0
  6 40  1  0
  8 41  1  0
 11 42  1  0
 13 43  1  0
 14 44  1  0
 21 45  1  0
 25 46  1  0
 25 47  1  0
 25 48  1  0
 26 49  1  0
 27 50  1  0
 33 51  1  0
 34 52  1  0
M  CHG  2  19  -1  23  -1
M  END
>  <meeko>  (5) 
{"is_sidechain": [false], "free_energy": -8.557, "intermolecular_energy": -11.036, "internal_energy": -0.785}

$$$$
LIB_DIMKSBQDWMXKAH__M_PUB_ALL__e8__s20260927
     RDKit          3D

 52 56  0  0  0  0  0  0  0  0999 V2000
   10.2590  -12.8590   -1.5660 C   0  0  0  0  0  0  0  0  0  0  0  0
    8.8890  -12.7280   -1.0230 C   0  0  0  0  0  0  0  0  0  0  0  0
    7.7080  -12.4850   -1.6880 C   0  0  0  0  0  0  0  0  0  0  0  0
    6.7140  -12.4550   -0.7290 N   0  0  0  0  0  0  0  0  0  0  0  0
    5.3180  -12.2360   -0.9400 C   0  0  0  0  0  0  0  0  0  0  0  0
    4.3980  -12.4400    0.1020 C   0  0  0  0  0  0  0  0  0  0  0  0
    3.0290  -12.2240   -0.0920 C   0  0  0  0  0  0  0  0  0  0  0  0
    2.0480  -12.4080    0.9040 N   0  0  0  0  0  0  0  0  0  0  0  0
    1.7960  -13.5480    1.6650 C   0  0  0  0  0  0  0  0  0  0  0  0
    2.4600  -14.5740    1.6050 O   0  0  0  0  0  0  0  0  0  0  0  0
    0.7000  -13.3340    2.4840 N   0  0  0  0  0  0  0  0  0  0  0  0
    0.1500  -14.1950    3.4580 C   0  0  0  0  0  0  0  0  0  0  0  0
    0.6550  -14.0720    4.7550 C   0  0  0  0  0  0  0  0  0  0  0  0
    0.1800  -14.8900    5.7790 C   0  0  0  0  0  0  0  0  0  0  0  0
   -0.8110  -15.8480    5.5330 C   0  0  0  0  0  0  0  0  0  0  0  0
   -1.2700  -16.7290    6.7870 C   0  0  0  0  0  0  0  0  0  0  0  0
   -2.4010  -16.4250    7.5410 N   0  0  0  0  0  0  0  0  0  0  0  0
   -2.4270  -17.3800    8.4730 C   0  0  0  0  0  0  0  0  0  0  0  0
   -3.2420  -17.6560    9.4920 N   0  0  0  0  0  0  0  0  0  0  0  0
   -2.6570  -18.8180   10.0590 N   0  0  0  0  0  0  0  0  0  0  0  0
   -1.5420  -19.0930    9.2890 C   0  0  0  0  0  0  0  0  0  0  0  0
   -1.4070  -18.1900    8.3020 C   0  0  0  0  0  0  0  0  0  0  0  0
   -0.6260  -17.8610    7.2690 N   0  0  0  0  0  0  0  0  0  0  0  0
   -1.3340  -15.9850    4.2350 C   0  0  0  0  0  0  0  0  0  0  0  0
   -2.3980  -16.9910    3.8990 C   0  0  0  0  0  0  0  0  0  0  0  0
   -0.8390  -15.1480    3.2070 C   0  0  0  0  0  0  0  0  0  0  0  0
    2.5780  -11.8060   -1.3490 C   0  0  0  0  0  0  0  0  0  0  0  0
    3.4750  -11.6030   -2.4080 C   0  0  0  0  0  0  0  0  0  0  0  0
    2.9790  -11.1290   -3.7520 C   0  0  0  0  0  0  0  0  0  0  0  0
    3.9750  -11.0060   -4.6730 F   0  0  0  0  0  0  0  0  0  0  0  0
    2.3840   -9.9080   -3.6820 F   0  0  0  0  0  0  0  0  0  0  0  0
    2.0580  -11.9630   -4.3120 F   0  0  0  0  0  0  0  0  0  0  0  0
    4.8460  -11.8130   -2.1920 C   0  0  0  0  0  0  0  0  0  0  0  0
    7.3630  -12.6810    0.4670 C   0  0  0  0  0  0  0  0  0  0  0  0
    8.6600  -12.8480    0.3180 N   0  0  0  0  0  0  0  0  0  0  0  0
   10.9774  -12.9277   -0.7359 H   0  0  0  0  0  0  0  0  0  0  0  0
   10.3236  -13.7674   -2.1829 H   0  0  0  0  0  0  0  0  0  0  0  0
   10.4946  -11.9793   -2.1829 H   0  0  0  0  0  0  0  0  0  0  0  0
    7.5808  -12.3426   -2.7713 H   0  0  0  0  0  0  0  0  0  0  0  0
    4.7593  -12.7747    1.0856 H   0  0  0  0  0  0  0  0  0  0  0  0
    1.4770  -11.6080    1.1260 H   0  0  0  0  0  0  0  0  0  0  0  0
    0.1980  -12.4690    2.3690 H   0  0  0  0  0  0  0  0  0  0  0  0
    1.4329  -13.3244    4.9696 H   0  0  0  0  0  0  0  0  0  0  0  0
    0.5894  -14.7813    6.7942 H   0  0  0  0  0  0  0  0  0  0  0  0
   -0.8576  -19.9369    9.4608 H   0  0  0  0  0  0  0  0  0  0  0  0
   -2.8262  -17.3959    4.8278 H   0  0  0  0  0  0  0  0  0  0  0  0
   -3.1905  -16.5042    3.3116 H   0  0  0  0  0  0  0  0  0  0  0  0
   -1.9564  -17.8095    3.3116 H   0  0  0  0  0  0  0  0  0  0  0  0
   -1.2419  -15.2504    2.1886 H   0  0  0  0  0  0  0  0  0  0  0  0
    1.5034  -11.6340   -1.5091 H   0  0  0  0  0  0  0  0  0  0  0  0
    5.5582  -11.6441   -3.0131 H   0  0  0  0  0  0  0  0  0  0  0  0
    6.8517  -12.7177    1.4403 H   0  0  0  0  0  0  0  0  0  0  0  0
  1  2  1  0
  2  3  2  0
  3  4  1  0
  4  5  1  0
  5  6  2  0
  6  7  1  0
  7  8  1  0
  8  9  1  0
  9 10  2  0
  9 11  1  0
 11 12  1  0
 12 13  2  0
 13 14  1  0
 14 15  2  0
 15 16  1  0
 16 17  2  0
 17 18  1  0
 18 19  1  0
 19 20  1  0
 20 21  2  0
 21 22  1  0
 22 23  1  0
 15 24  1  0
 24 25  1  0
 24 26  2  0
  7 27  2  0
 27 28  1  0
 28 29  1  0
 29 30  1  0
 29 31  1  0
 29 32  1  0
 28 33  2  0
  4 34  1  0
 34 35  2  0
 35  2  1  0
 33  5  1  0
 26 12  1  0
 23 16  1  0
 22 18  2  0
  1 36  1  0
  1 37  1  0
  1 38  1  0
  3 39  1  0
  6 40  1  0
  8 41  1  0
 11 42  1  0
 13 43  1  0
 14 44  1  0
 21 45  1  0
 25 46  1  0
 25 47  1  0
 25 48  1  0
 26 49  1  0
 27 50  1  0
 33 51  1  0
 34 52  1  0
M  CHG  2  19  -1  23  -1
M  END
>  <meeko>  (6) 
{"is_sidechain": [false], "free_energy": -8.477, "intermolecular_energy": -10.902, "internal_energy": -0.815}

$$$$
LIB_DIMKSBQDWMXKAH__M_PUB_ALL__e8__s20260927
     RDKit          3D

 52 56  0  0  0  0  0  0  0  0999 V2000
   -2.6350  -17.2790    4.7340 C   0  0  0  0  0  0  0  0  0  0  0  0
   -2.4100  -16.3500    3.6060 C   0  0  0  0  0  0  0  0  0  0  0  0
   -1.6530  -15.2000    3.5620 C   0  0  0  0  0  0  0  0  0  0  0  0
   -1.7690  -14.7000    2.2800 N   0  0  0  0  0  0  0  0  0  0  0  0
   -1.1590  -13.5190    1.7560 C   0  0  0  0  0  0  0  0  0  0  0  0
   -0.0560  -13.6100    0.8900 C   0  0  0  0  0  0  0  0  0  0  0  0
    0.5470  -12.4610    0.3660 C   0  0  0  0  0  0  0  0  0  0  0  0
    1.6540  -12.4730   -0.5070 N   0  0  0  0  0  0  0  0  0  0  0  0
    3.0080  -12.5000   -0.1790 C   0  0  0  0  0  0  0  0  0  0  0  0
    3.4370  -12.5740    0.9640 O   0  0  0  0  0  0  0  0  0  0  0  0
    3.7720  -12.4350   -1.3330 N   0  0  0  0  0  0  0  0  0  0  0  0
    5.1760  -12.5040   -1.4620 C   0  0  0  0  0  0  0  0  0  0  0  0
    5.8320  -11.3110   -1.7810 C   0  0  0  0  0  0  0  0  0  0  0  0
    7.2160  -11.2870   -1.9400 C   0  0  0  0  0  0  0  0  0  0  0  0
    7.9780  -12.4520   -1.7860 C   0  0  0  0  0  0  0  0  0  0  0  0
    9.5570  -12.2980   -2.0000 C   0  0  0  0  0  0  0  0  0  0  0  0
   10.1190  -12.0160   -3.2420 N   0  0  0  0  0  0  0  0  0  0  0  0
   11.4310  -11.9750   -2.9950 C   0  0  0  0  0  0  0  0  0  0  0  0
   12.5080  -11.7560   -3.7500 N   0  0  0  0  0  0  0  0  0  0  0  0
   13.5740  -11.8660   -2.8200 N   0  0  0  0  0  0  0  0  0  0  0  0
   12.9830  -12.1450   -1.6010 C   0  0  0  0  0  0  0  0  0  0  0  0
   11.6450  -12.2100   -1.7200 C   0  0  0  0  0  0  0  0  0  0  0  0
   10.5300  -12.4240   -1.0170 N   0  0  0  0  0  0  0  0  0  0  0  0
    7.3370  -13.6610   -1.4630 C   0  0  0  0  0  0  0  0  0  0  0  0
    8.0920  -14.9480   -1.2820 C   0  0  0  0  0  0  0  0  0  0  0  0
    5.9310  -13.6680   -1.3060 C   0  0  0  0  0  0  0  0  0  0  0  0
    0.0420  -11.2060    0.7240 C   0  0  0  0  0  0  0  0  0  0  0  0
   -1.0520  -11.0870    1.5930 C   0  0  0  0  0  0  0  0  0  0  0  0
   -1.6020   -9.7290    1.9510 C   0  0  0  0  0  0  0  0  0  0  0  0
   -2.4810   -9.2500    1.0260 F   0  0  0  0  0  0  0  0  0  0  0  0
   -0.6270   -8.7870    2.0600 F   0  0  0  0  0  0  0  0  0  0  0  0
   -2.2720   -9.7140    3.1380 F   0  0  0  0  0  0  0  0  0  0  0  0
   -1.6520  -12.2510    2.0990 C   0  0  0  0  0  0  0  0  0  0  0  0
   -2.5990  -15.5850    1.6240 C   0  0  0  0  0  0  0  0  0  0  0  0
   -2.9930  -16.5780    2.3920 N   0  0  0  0  0  0  0  0  0  0  0  0
   -2.5046  -16.7404    5.6842 H   0  0  0  0  0  0  0  0  0  0  0  0
   -3.6568  -17.6825    4.6785 H   0  0  0  0  0  0  0  0  0  0  0  0
   -1.9110  -18.1053    4.6785 H   0  0  0  0  0  0  0  0  0  0  0  0
   -1.0699  -14.7649    4.3870 H   0  0  0  0  0  0  0  0  0  0  0  0
    0.3397  -14.6001    0.6197 H   0  0  0  0  0  0  0  0  0  0  0  0
    1.4490  -12.5040   -1.4930 H   0  0  0  0  0  0  0  0  0  0  0  0
    3.2860  -12.2930   -2.2020 H   0  0  0  0  0  0  0  0  0  0  0  0
    5.2515  -10.3852   -1.9073 H   0  0  0  0  0  0  0  0  0  0  0  0
    7.7170  -10.3401   -2.1899 H   0  0  0  0  0  0  0  0  0  0  0  0
   13.5335  -12.2938   -0.6604 H   0  0  0  0  0  0  0  0  0  0  0  0
    8.2130  -15.1542   -0.2083 H   0  0  0  0  0  0  0  0  0  0  0  0
    7.5331  -15.7703   -1.7526 H   0  0  0  0  0  0  0  0  0  0  0  0
    9.0825  -14.8614   -1.7526 H   0  0  0  0  0  0  0  0  0  0  0  0
    5.4219  -14.6104   -1.0557 H   0  0  0  0  0  0  0  0  0  0  0  0
    0.5109  -10.2980    0.3170 H   0  0  0  0  0  0  0  0  0  0  0  0
   -2.5182  -12.1680    2.7718 H   0  0  0  0  0  0  0  0  0  0  0  0
   -2.8993  -15.4727    0.5718 H   0  0  0  0  0  0  0  0  0  0  0  0
  1  2  1  0
  2  3  2  0
  3  4  1  0
  4  5  1  0
  5  6  2  0
  6  7  1  0
  7  8  1  0
  8  9  1  0
  9 10  2  0
  9 11  1  0
 11 12  1  0
 12 13  2  0
 13 14  1  0
 14 15  2  0
 15 16  1  0
 16 17  2  0
 17 18  1  0
 18 19  1  0
 19 20  1  0
 20 21  2  0
 21 22  1  0
 22 23  1  0
 15 24  1  0
 24 25  1  0
 24 26  2  0
  7 27  2  0
 27 28  1  0
 28 29  1  0
 29 30  1  0
 29 31  1  0
 29 32  1  0
 28 33  2  0
  4 34  1  0
 34 35  2  0
 35  2  1  0
 33  5  1  0
 26 12  1  0
 23 16  1  0
 22 18  2  0
  1 36  1  0
  1 37  1  0
  1 38  1  0
  3 39  1  0
  6 40  1  0
  8 41  1  0
 11 42  1  0
 13 43  1  0
 14 44  1  0
 21 45  1  0
 25 46  1  0
 25 47  1  0
 25 48  1  0
 26 49  1  0
 27 50  1  0
 33 51  1  0
 34 52  1  0
M  CHG  2  19  -1  23  -1
M  END
>  <meeko>  (7) 
{"is_sidechain": [false], "free_energy": -8.301, "intermolecular_energy": -10.606, "internal_energy": -0.884}

$$$$
LIB_DIMKSBQDWMXKAH__M_PUB_ALL__e8__s20260927
     RDKit          3D

 52 56  0  0  0  0  0  0  0  0999 V2000
   14.5580  -15.1730   -6.5100 C   0  0  0  0  0  0  0  0  0  0  0  0
   13.4660  -14.6550   -5.6590 C   0  0  0  0  0  0  0  0  0  0  0  0
   13.4700  -14.3760   -4.3100 C   0  0  0  0  0  0  0  0  0  0  0  0
   12.2050  -13.9150   -3.9990 N   0  0  0  0  0  0  0  0  0  0  0  0
   11.7300  -13.4980   -2.7170 C   0  0  0  0  0  0  0  0  0  0  0  0
   10.5890  -14.0910   -2.1510 C   0  0  0  0  0  0  0  0  0  0  0  0
   10.1180  -13.6950   -0.8940 C   0  0  0  0  0  0  0  0  0  0  0  0
    8.9820  -14.2430   -0.2640 N   0  0  0  0  0  0  0  0  0  0  0  0
    7.6770  -14.3100   -0.7470 C   0  0  0  0  0  0  0  0  0  0  0  0
    7.3360  -13.9310   -1.8590 O   0  0  0  0  0  0  0  0  0  0  0  0
    6.8480  -14.8660    0.2130 N   0  0  0  0  0  0  0  0  0  0  0  0
    5.4750  -15.1780    0.1150 C   0  0  0  0  0  0  0  0  0  0  0  0
    4.5810  -14.2060    0.5740 C   0  0  0  0  0  0  0  0  0  0  0  0
    3.2060  -14.4330    0.5270 C   0  0  0  0  0  0  0  0  0  0  0  0
    2.6920  -15.6330    0.0220 C   0  0  0  0  0  0  0  0  0  0  0  0
    1.0980  -15.7770    0.0260 C   0  0  0  0  0  0  0  0  0  0  0  0
    0.2830  -15.0920   -0.8710 N   0  0  0  0  0  0  0  0  0  0  0  0
   -0.9510  -15.4770   -0.5360 C   0  0  0  0  0  0  0  0  0  0  0  0
   -2.1680  -15.1870   -0.9990 N   0  0  0  0  0  0  0  0  0  0  0  0
   -3.0160  -15.9600   -0.1650 N   0  0  0  0  0  0  0  0  0  0  0  0
   -2.1780  -16.6270    0.7100 C   0  0  0  0  0  0  0  0  0  0  0  0
   -0.8910  -16.3190    0.4700 C   0  0  0  0  0  0  0  0  0  0  0  0
    0.3520  -16.5680    0.8910 N   0  0  0  0  0  0  0  0  0  0  0  0
    3.5750  -16.6210   -0.4470 C   0  0  0  0  0  0  0  0  0  0  0  0
    3.0940  -17.9320   -1.0030 C   0  0  0  0  0  0  0  0  0  0  0  0
    4.9680  -16.3760   -0.3910 C   0  0  0  0  0  0  0  0  0  0  0  0
   10.7950  -12.6840   -0.2030 C   0  0  0  0  0  0  0  0  0  0  0  0
   11.9310  -12.0690   -0.7500 C   0  0  0  0  0  0  0  0  0  0  0  0
   12.6660  -10.9980    0.0170 C   0  0  0  0  0  0  0  0  0  0  0  0
   11.9130  -10.4410    1.0070 F   0  0  0  0  0  0  0  0  0  0  0  0
   13.0550   -9.9660   -0.7790 F   0  0  0  0  0  0  0  0  0  0  0  0
   13.7980  -11.4510    0.6250 F   0  0  0  0  0  0  0  0  0  0  0  0
   12.3960  -12.4890   -2.0060 C   0  0  0  0  0  0  0  0  0  0  0  0
   11.5100  -13.9450   -5.1890 C   0  0  0  0  0  0  0  0  0  0  0  0
   12.2390  -14.3810   -6.1940 N   0  0  0  0  0  0  0  0  0  0  0  0
   15.3683  -15.5574   -5.8731 H   0  0  0  0  0  0  0  0  0  0  0  0
   14.1742  -15.9850   -7.1451 H   0  0  0  0  0  0  0  0  0  0  0  0
   14.9441  -14.3621   -7.1451 H   0  0  0  0  0  0  0  0  0  0  0  0
   14.3149  -14.4966   -3.6161 H   0  0  0  0  0  0  0  0  0  0  0  0
   10.0574  -14.8790   -2.7046 H   0  0  0  0  0  0  0  0  0  0  0  0
    9.1310  -14.6760    0.6330 H   0  0  0  0  0  0  0  0  0  0  0  0
    7.2490  -15.0550    1.1170 H   0  0  0  0  0  0  0  0  0  0  0  0
    4.9647  -13.2562    0.9747 H   0  0  0  0  0  0  0  0  0  0  0  0
    2.5156  -13.6582    0.8919 H   0  0  0  0  0  0  0  0  0  0  0  0
   -2.5183  -17.3167    1.4965 H   0  0  0  0  0  0  0  0  0  0  0  0
    2.8445  -18.6120   -0.1751 H   0  0  0  0  0  0  0  0  0  0  0  0
    2.1995  -17.7624   -1.6204 H   0  0  0  0  0  0  0  0  0  0  0  0
    3.8859  -18.3811   -1.6204 H   0  0  0  0  0  0  0  0  0  0  0  0
    5.6653  -17.1455   -0.7537 H   0  0  0  0  0  0  0  0  0  0  0  0
   10.4306  -12.3663    0.7851 H   0  0  0  0  0  0  0  0  0  0  0  0
   13.2932  -12.0214   -2.4377 H   0  0  0  0  0  0  0  0  0  0  0  0
   10.4585  -13.6374   -5.2879 H   0  0  0  0  0  0  0  0  0  0  0  0
  1  2  1  0
  2  3  2  0
  3  4  1  0
  4  5  1  0
  5  6  2  0
  6  7  1  0
  7  8  1  0
  8  9  1  0
  9 10  2  0
  9 11  1  0
 11 12  1  0
 12 13  2  0
 13 14  1  0
 14 15  2  0
 15 16  1  0
 16 17  2  0
 17 18  1  0
 18 19  1  0
 19 20  1  0
 20 21  2  0
 21 22  1  0
 22 23  1  0
 15 24  1  0
 24 25  1  0
 24 26  2  0
  7 27  2  0
 27 28  1  0
 28 29  1  0
 29 30  1  0
 29 31  1  0
 29 32  1  0
 28 33  2  0
  4 34  1  0
 34 35  2  0
 35  2  1  0
 33  5  1  0
 26 12  1  0
 23 16  1  0
 22 18  2  0
  1 36  1  0
  1 37  1  0
  1 38  1  0
  3 39  1  0
  6 40  1  0
  8 41  1  0
 11 42  1  0
 13 43  1  0
 14 44  1  0
 21 45  1  0
 25 46  1  0
 25 47  1  0
 25 48  1  0
 26 49  1  0
 27 50  1  0
 33 51  1  0
 34 52  1  0
M  CHG  2  19  -1  23  -1
M  END
>  <meeko>  (8) 
{"is_sidechain": [false], "free_energy": -8.196, "intermolecular_energy": -10.555, "internal_energy": -0.799}

$$$$
LIB_DIMKSBQDWMXKAH__M_PUB_ALL__e8__s20260927
     RDKit          3D

 52 56  0  0  0  0  0  0  0  0999 V2000
    2.2340  -15.3350    2.6670 C   0  0  0  0  0  0  0  0  0  0  0  0
    3.2900  -14.8370    1.7590 C   0  0  0  0  0  0  0  0  0  0  0  0
    4.3130  -13.9520    2.0160 C   0  0  0  0  0  0  0  0  0  0  0  0
    5.0230  -13.8180    0.8380 N   0  0  0  0  0  0  0  0  0  0  0  0
    6.1770  -13.0050    0.6140 C   0  0  0  0  0  0  0  0  0  0  0  0
    7.3430  -13.5570    0.0570 C   0  0  0  0  0  0  0  0  0  0  0  0
    8.4760  -12.7700   -0.1720 C   0  0  0  0  0  0  0  0  0  0  0  0
    9.6790  -13.2530   -0.7270 N   0  0  0  0  0  0  0  0  0  0  0  0
    9.9550  -13.5470   -2.0600 C   0  0  0  0  0  0  0  0  0  0  0  0
    9.1700  -13.3670   -2.9810 O   0  0  0  0  0  0  0  0  0  0  0  0
   11.2360  -14.0620   -2.1730 N   0  0  0  0  0  0  0  0  0  0  0  0
   11.9380  -14.4250   -3.3430 C   0  0  0  0  0  0  0  0  0  0  0  0
   12.8520  -13.4890   -3.8360 C   0  0  0  0  0  0  0  0  0  0  0  0
   13.5810  -13.7570   -4.9940 C   0  0  0  0  0  0  0  0  0  0  0  0
   13.4160  -14.9630   -5.6850 C   0  0  0  0  0  0  0  0  0  0  0  0
   14.3050  -15.1510   -7.0020 C   0  0  0  0  0  0  0  0  0  0  0  0
   15.6260  -15.5880   -6.9570 N   0  0  0  0  0  0  0  0  0  0  0  0
   15.9990  -15.6050   -8.2390 C   0  0  0  0  0  0  0  0  0  0  0  0
   17.1310  -15.9220   -8.8680 N   0  0  0  0  0  0  0  0  0  0  0  0
   16.8060  -15.7030  -10.2320 N   0  0  0  0  0  0  0  0  0  0  0  0
   15.4920  -15.2720  -10.2420 C   0  0  0  0  0  0  0  0  0  0  0  0
   14.9970  -15.2150   -8.9930 C   0  0  0  0  0  0  0  0  0  0  0  0
   13.8930  -14.9090   -8.3060 N   0  0  0  0  0  0  0  0  0  0  0  0
   12.5030  -15.9180   -5.2030 C   0  0  0  0  0  0  0  0  0  0  0  0
   12.2750  -17.2330   -5.8930 C   0  0  0  0  0  0  0  0  0  0  0  0
   11.7700  -15.6300   -4.0270 C   0  0  0  0  0  0  0  0  0  0  0  0
    8.4420  -11.4140    0.1710 C   0  0  0  0  0  0  0  0  0  0  0  0
    7.2940  -10.8400    0.7370 C   0  0  0  0  0  0  0  0  0  0  0  0
    7.2620   -9.3710    1.0800 C   0  0  0  0  0  0  0  0  0  0  0  0
    6.2980   -9.0580    1.9910 F   0  0  0  0  0  0  0  0  0  0  0  0
    7.0130   -8.5910   -0.0060 F   0  0  0  0  0  0  0  0  0  0  0  0
    8.4320   -8.9150    1.6090 F   0  0  0  0  0  0  0  0  0  0  0  0
    6.1620  -11.6420    0.9480 C   0  0  0  0  0  0  0  0  0  0  0  0
    4.3770  -14.6360   -0.0650 C   0  0  0  0  0  0  0  0  0  0  0  0
    3.3410  -15.2560    0.4600 N   0  0  0  0  0  0  0  0  0  0  0  0
    2.5481  -15.1869    3.7108 H   0  0  0  0  0  0  0  0  0  0  0  0
    1.3012  -14.7819    2.4828 H   0  0  0  0  0  0  0  0  0  0  0  0
    2.0674  -16.4066    2.4828 H   0  0  0  0  0  0  0  0  0  0  0  0
    4.5238  -13.4500    2.9718 H   0  0  0  0  0  0  0  0  0  0  0  0
    7.3649  -14.6256   -0.2031 H   0  0  0  0  0  0  0  0  0  0  0  0
   10.4530  -13.3660   -0.0920 H   0  0  0  0  0  0  0  0  0  0  0  0
   11.7420  -14.2340   -1.3200 H   0  0  0  0  0  0  0  0  0  0  0  0
   12.9969  -12.5354   -3.3072 H   0  0  0  0  0  0  0  0  0  0  0  0
   14.2958  -13.0101   -5.3698 H   0  0  0  0  0  0  0  0  0  0  0  0
   14.9277  -15.0110  -11.1494 H   0  0  0  0  0  0  0  0  0  0  0  0
   12.1380  -18.0232   -5.1401 H   0  0  0  0  0  0  0  0  0  0  0  0
   11.3751  -17.1658   -6.5220 H   0  0  0  0  0  0  0  0  0  0  0  0
   13.1450  -17.4727   -6.5220 H   0  0  0  0  0  0  0  0  0  0  0  0
   11.0530  -16.3712   -3.6441 H   0  0  0  0  0  0  0  0  0  0  0  0
    9.3293  -10.7883   -0.0059 H   0  0  0  0  0  0  0  0  0  0  0  0
    5.2531  -11.1976    1.3798 H   0  0  0  0  0  0  0  0  0  0  0  0
    4.6933  -14.7574   -1.1115 H   0  0  0  0  0  0  0  0  0  0  0  0
  1  2  1  0
  2  3  2  0
  3  4  1  0
  4  5  1  0
  5  6  2  0
  6  7  1  0
  7  8  1  0
  8  9  1  0
  9 10  2  0
  9 11  1  0
 11 12  1  0
 12 13  2  0
 13 14  1  0
 14 15  2  0
 15 16  1  0
 16 17  2  0
 17 18  1  0
 18 19  1  0
 19 20  1  0
 20 21  2  0
 21 22  1  0
 22 23  1  0
 15 24  1  0
 24 25  1  0
 24 26  2  0
  7 27  2  0
 27 28  1  0
 28 29  1  0
 29 30  1  0
 29 31  1  0
 29 32  1  0
 28 33  2  0
  4 34  1  0
 34 35  2  0
 35  2  1  0
 33  5  1  0
 26 12  1  0
 23 16  1  0
 22 18  2  0
  1 36  1  0
  1 37  1  0
  1 38  1  0
  3 39  1  0
  6 40  1  0
  8 41  1  0
 11 42  1  0
 13 43  1  0
 14 44  1  0
 21 45  1  0
 25 46  1  0
 25 47  1  0
 25 48  1  0
 26 49  1  0
 27 50  1  0
 33 51  1  0
 34 52  1  0
M  CHG  2  19  -1  23  -1
M  END
>  <meeko>  (9) 
{"is_sidechain": [false], "free_energy": -8.189, "intermolecular_energy": -10.428, "internal_energy": -0.918}

$$$$
