LIB_VUXZIMAQBPJZQB__M_PUB_ALL__e8__s20260927
     RDKit          3D

 82 86  0  0  0  0  0  0  0  0999 V2000
    1.6690  -10.7770   -1.9790 C   0  0  0  0  0  0  0  0  0  0  0  0
    2.6460  -10.6800   -3.1090 C   0  0  0  0  0  0  0  0  0  0  0  0
    2.7560   -9.7170   -3.8550 O   0  0  0  0  0  0  0  0  0  0  0  0
    3.3930  -11.8110   -3.1780 O   0  0  0  0  0  0  0  0  0  0  0  0
    4.4770  -11.9170   -2.2250 C   0  0  1  0  0  0  0  0  0  0  0  0
    4.5960  -13.3940   -1.7900 C   0  0  2  0  0  0  0  0  0  0  0  0
    3.3710  -13.7880   -1.1170 O   0  0  0  0  0  0  0  0  0  0  0  0
    2.4170  -14.3890   -1.8730 C   0  0  0  0  0  0  0  0  0  0  0  0
    2.5760  -14.8790   -2.9790 O   0  0  0  0  0  0  0  0  0  0  0  0
    1.1190  -14.4110   -1.1500 C   0  0  0  0  0  0  0  0  0  0  0  0
    1.0390  -13.7430    0.0810 C   0  0  0  0  0  0  0  0  0  0  0  0
   -0.1590  -13.7290    0.7980 C   0  0  0  0  0  0  0  0  0  0  0  0
   -1.2810  -14.3820    0.2900 C   0  0  0  0  0  0  0  0  0  0  0  0
   -1.2100  -15.0490   -0.9320 C   0  0  0  0  0  0  0  0  0  0  0  0
   -0.0130  -15.0650   -1.6530 C   0  0  0  0  0  0  0  0  0  0  0  0
    5.7980  -13.6470   -0.8100 C   0  0  1  0  0  0  0  0  0  0  0  0
    5.4700  -13.0050    0.5740 C   0  0  0  0  0  0  0  0  0  0  0  0
    5.9500  -15.1950   -0.5080 C   0  0  1  0  0  0  0  0  0  0  0  0
    5.4030  -15.9810   -1.5880 O   0  0  0  0  0  0  0  0  0  0  0  0
    5.0280  -17.2530   -1.2840 C   0  0  0  0  0  0  0  0  0  0  0  0
    5.5910  -18.2680   -1.6650 O   0  0  0  0  0  0  0  0  0  0  0  0
    3.8120  -17.2650   -0.4270 C   0  0  0  0  0  0  0  0  0  0  0  0
    2.6530  -17.8670   -0.9360 C   0  0  0  0  0  0  0  0  0  0  0  0
    1.4840  -17.9060   -0.1720 C   0  0  0  0  0  0  0  0  0  0  0  0
    1.4690  -17.3460    1.1040 C   0  0  0  0  0  0  0  0  0  0  0  0
    2.6180  -16.7480    1.6190 C   0  0  0  0  0  0  0  0  0  0  0  0
    3.7870  -16.7050    0.8560 C   0  0  0  0  0  0  0  0  0  0  0  0
    7.4030  -15.6600   -0.2140 C   0  0  0  0  0  0  0  0  0  0  0  0
    8.5280  -14.8740   -0.9300 C   0  0  2  0  0  0  0  0  0  0  0  0
    8.3360  -13.4100   -0.5540 C   0  0  1  0  0  0  0  0  0  0  0  0
    9.5070  -12.6350   -0.8350 O   0  0  0  0  0  0  0  0  0  0  0  0
   10.2970  -12.3300    0.2280 C   0  0  0  0  0  0  0  0  0  0  0  0
   11.7010  -12.0820   -0.2310 C   0  0  0  0  0  0  0  0  0  0  0  0
    9.9240  -12.2700    1.3900 O   0  0  0  0  0  0  0  0  0  0  0  0
    7.1240  -13.0770   -1.4660 C   0  0  1  0  0  0  0  0  0  0  0  0
    7.3220  -13.9000   -2.6940 O   0  0  0  0  0  0  0  0  0  0  0  0
    8.4060  -14.8300   -2.4640 C   0  0  0  0  0  0  0  0  0  0  0  0
    9.6610  -14.2870   -3.1810 C   0  0  0  0  0  0  0  0  0  0  0  0
    8.1240  -16.1820   -3.1290 C   0  0  0  0  0  0  0  0  0  0  0  0
    7.0190  -11.5870   -1.9590 C   0  0  1  0  0  0  0  0  0  0  0  0
    7.0420  -10.5210   -0.8570 C   0  0  0  0  0  0  0  0  0  0  0  0
    8.1680  -11.2740   -2.7820 O   0  0  0  0  0  0  0  0  0  0  0  0
    5.7790  -11.4100   -2.8740 C   0  0  1  0  0  0  0  0  0  0  0  0
    6.0210  -12.0890   -4.1300 O   0  0  0  0  0  0  0  0  0  0  0  0
    2.2087  -10.7234   -1.0220 H   0  0  0  0  0  0  0  0  0  0  0  0
    0.9514   -9.9457   -2.0423 H   0  0  0  0  0  0  0  0  0  0  0  0
    1.1289  -11.7332   -2.0423 H   0  0  0  0  0  0  0  0  0  0  0  0
    4.2840  -11.2994   -1.3354 H   0  0  0  0  0  0  0  0  0  0  0  0
    4.7719  -13.9862   -2.7001 H   0  0  0  0  0  0  0  0  0  0  0  0
    1.9239  -13.2280    0.4831 H   0  0  0  0  0  0  0  0  0  0  0  0
   -0.2174  -13.2034    1.7625 H   0  0  0  0  0  0  0  0  0  0  0  0
   -2.2248  -14.3709    0.8549 H   0  0  0  0  0  0  0  0  0  0  0  0
   -2.0974  -15.5634   -1.3293 H   0  0  0  0  0  0  0  0  0  0  0  0
    0.0404  -15.5920   -2.6171 H   0  0  0  0  0  0  0  0  0  0  0  0
    5.8114  -13.6732    1.3783 H   0  0  0  0  0  0  0  0  0  0  0  0
    5.9835  -12.0360    0.6596 H   0  0  0  0  0  0  0  0  0  0  0  0
    4.3839  -12.8532    0.6596 H   0  0  0  0  0  0  0  0  0  0  0  0
    5.3809  -15.3596    0.4188 H   0  0  0  0  0  0  0  0  0  0  0  0
    2.6640  -18.3111   -1.9423 H   0  0  0  0  0  0  0  0  0  0  0  0
    0.5767  -18.3780   -0.5771 H   0  0  0  0  0  0  0  0  0  0  0  0
    0.5488  -17.3759    1.7059 H   0  0  0  0  0  0  0  0  0  0  0  0
    2.6040  -16.3094    2.6277 H   0  0  0  0  0  0  0  0  0  0  0  0
    4.6910  -16.2296    1.2644 H   0  0  0  0  0  0  0  0  0  0  0  0
    7.5705  -15.5741    0.8698 H   0  0  0  0  0  0  0  0  0  0  0  0
    7.4682  -16.6876   -0.6011 H   0  0  0  0  0  0  0  0  0  0  0  0
    9.4706  -15.3611   -0.6396 H   0  0  0  0  0  0  0  0  0  0  0  0
    8.1671  -13.1976    0.5120 H   0  0  0  0  0  0  0  0  0  0  0  0
   12.3577  -11.9660    0.6438 H   0  0  0  0  0  0  0  0  0  0  0  0
   12.0444  -12.9334   -0.8370 H   0  0  0  0  0  0  0  0  0  0  0  0
   11.7320  -11.1645   -0.8370 H   0  0  0  0  0  0  0  0  0  0  0  0
   10.4010  -13.9668   -2.4328 H   0  0  0  0  0  0  0  0  0  0  0  0
   10.0947  -15.0780   -3.8105 H   0  0  0  0  0  0  0  0  0  0  0  0
    9.3814  -13.4294   -3.8105 H   0  0  0  0  0  0  0  0  0  0  0  0
    7.9647  -16.9458   -2.3537 H   0  0  0  0  0  0  0  0  0  0  0  0
    7.2233  -16.1018   -3.7553 H   0  0  0  0  0  0  0  0  0  0  0  0
    8.9817  -16.4686   -3.7553 H   0  0  0  0  0  0  0  0  0  0  0  0
    7.0314  -11.0113    0.1277 H   0  0  0  0  0  0  0  0  0  0  0  0
    7.9535   -9.9129   -0.9541 H   0  0  0  0  0  0  0  0  0  0  0  0
    6.1576   -9.8741   -0.9541 H   0  0  0  0  0  0  0  0  0  0  0  0
    8.9540  -11.4450   -2.2250 H   0  0  0  0  0  0  0  0  0  0  0  0
    5.6356  -10.3327   -3.0439 H   0  0  0  0  0  0  0  0  0  0  0  0
    6.8640  -11.7520   -4.5000 H   0  0  0  0  0  0  0  0  0  0  0  0
  1  2  1  0
  2  3  2  0
  2  4  1  0
  4  5  1  0
  5  6  1  0
  6  7  1  0
  7  8  1  0
  8  9  2  0
  8 10  1  0
 10 11  2  0
 11 12  1  0
 12 13  2  0
 13 14  1  0
 14 15  2  0
  6 16  1  0
 16 17  1  1
 16 18  1  0
 18 19  1  0
 19 20  1  0
 20 21  2  0
 20 22  1  0
 22 23  2  0
 23 24  1  0
 24 25  2  0
 25 26  1  0
 26 27  2  0
 18 28  1  0
 28 29  1  0
 29 30  1  0
 30 31  1  0
 31 32  1  0
 32 33  1  0
 32 34  2  0
 30 35  1  0
 35 36  1  6
 36 37  1  0
 37 38  1  0
 37 39  1  0
 35 40  1  0
 40 41  1  0
 40 42  1  6
 40 43  1  0
 43 44  1  0
 43  5  1  0
 15 10  1  0
 35 16  1  0
 27 22  1  0
 37 29  1  0
  1 45  1  0
  1 46  1  0
  1 47  1  0
  5 48  1  1
  6 49  1  6
 11 50  1  0
 12 51  1  0
 13 52  1  0
 14 53  1  0
 15 54  1  0
 17 55  1  0
 17 56  1  0
 17 57  1  0
 18 58  1  1
 23 59  1  0
 24 60  1  0
 25 61  1  0
 26 62  1  0
 27 63  1  0
 28 64  1  0
 28 65  1  0
 29 66  1  6
 30 67  1  1
 33 68  1  0
 33 69  1  0
 33 70  1  0
 38 71  1  0
 38 72  1  0
 38 73  1  0
 39 74  1  0
 39 75  1  0
 39 76  1  0
 41 77  1  0
 41 78  1  0
 41 79  1  0
 42 80  1  0
 43 81  1  6
 44 82  1  0
M  END
>  <meeko>  (1) 
{"is_sidechain": [false], "free_energy": -7.237, "intermolecular_energy": -11.891, "internal_energy": -4.113}

$$$$
LIB_VUXZIMAQBPJZQB__M_PUB_ALL__e8__s20260927
     RDKit          3D

 82 86  0  0  0  0  0  0  0  0999 V2000
    5.6300  -12.0260   -0.9520 C   0  0  0  0  0  0  0  0  0  0  0  0
    6.6300  -11.0570   -1.5030 C   0  0  0  0  0  0  0  0  0  0  0  0
    6.9320   -9.9940   -0.9790 O   0  0  0  0  0  0  0  0  0  0  0  0
    7.1550  -11.5360   -2.6590 O   0  0  0  0  0  0  0  0  0  0  0  0
    7.9910  -12.7110   -2.5420 C   0  0  1  0  0  0  0  0  0  0  0  0
    7.7030  -13.6320   -3.7480 C   0  0  2  0  0  0  0  0  0  0  0  0
    6.3180  -14.0630   -3.6940 O   0  0  0  0  0  0  0  0  0  0  0  0
    5.4320  -13.3910   -4.4720 C   0  0  0  0  0  0  0  0  0  0  0  0
    5.7060  -12.6130   -5.3700 O   0  0  0  0  0  0  0  0  0  0  0  0
    4.0380  -13.7600   -4.1100 C   0  0  0  0  0  0  0  0  0  0  0  0
    3.8370  -14.5000   -2.9350 C   0  0  0  0  0  0  0  0  0  0  0  0
    2.5480  -14.8690   -2.5470 C   0  0  0  0  0  0  0  0  0  0  0  0
    1.4540  -14.5010   -3.3290 C   0  0  0  0  0  0  0  0  0  0  0  0
    1.6450  -13.7660   -4.4990 C   0  0  0  0  0  0  0  0  0  0  0  0
    2.9340  -13.3960   -4.8910 C   0  0  0  0  0  0  0  0  0  0  0  0
    8.6160  -14.9110   -3.7700 C   0  0  1  0  0  0  0  0  0  0  0  0
    8.1790  -15.8670   -2.6180 C   0  0  0  0  0  0  0  0  0  0  0  0
    8.3710  -15.7430   -5.0960 C   0  0  1  0  0  0  0  0  0  0  0  0
    7.8800  -14.8880   -6.1510 O   0  0  0  0  0  0  0  0  0  0  0  0
    7.0530  -15.4640   -7.0640 C   0  0  0  0  0  0  0  0  0  0  0  0
    6.3340  -16.4300   -6.8600 O   0  0  0  0  0  0  0  0  0  0  0  0
    7.1410  -14.7750   -8.3800 C   0  0  0  0  0  0  0  0  0  0  0  0
    7.6550  -15.4950   -9.4680 C   0  0  0  0  0  0  0  0  0  0  0  0
    7.7590  -14.8940  -10.7250 C   0  0  0  0  0  0  0  0  0  0  0  0
    7.3480  -13.5740  -10.9010 C   0  0  0  0  0  0  0  0  0  0  0  0
    6.8320  -12.8530   -9.8250 C   0  0  0  0  0  0  0  0  0  0  0  0
    6.7300  -13.4490   -8.5670 C   0  0  0  0  0  0  0  0  0  0  0  0
    9.6060  -16.5350   -5.6050 C   0  0  0  0  0  0  0  0  0  0  0  0
   10.9890  -15.9080   -5.3030 C   0  0  2  0  0  0  0  0  0  0  0  0
   11.0500  -15.7090   -3.7930 C   0  0  1  0  0  0  0  0  0  0  0  0
   12.3920  -15.4910   -3.3440 O   0  0  0  0  0  0  0  0  0  0  0  0
   13.1970  -16.5860   -3.2980 C   0  0  0  0  0  0  0  0  0  0  0  0
   12.5870  -17.6360   -2.4220 C   0  0  0  0  0  0  0  0  0  0  0  0
   14.2660  -16.6990   -3.8790 O   0  0  0  0  0  0  0  0  0  0  0  0
   10.1330  -14.4610   -3.6710 C   0  0  1  0  0  0  0  0  0  0  0  0
   10.3770  -13.6740   -4.9140 O   0  0  0  0  0  0  0  0  0  0  0  0
   11.1700  -14.4710   -5.8230 C   0  0  0  0  0  0  0  0  0  0  0  0
   12.6250  -13.9570   -5.7620 C   0  0  0  0  0  0  0  0  0  0  0  0
   10.7340  -14.2500   -7.2760 C   0  0  0  0  0  0  0  0  0  0  0  0
   10.4470  -13.4880   -2.4760 C   0  0  1  0  0  0  0  0  0  0  0  0
   10.4920  -14.1350   -1.0860 C   0  0  0  0  0  0  0  0  0  0  0  0
   11.7700  -12.9280   -2.6510 O   0  0  0  0  0  0  0  0  0  0  0  0
    9.4700  -12.2830   -2.4940 C   0  0  1  0  0  0  0  0  0  0  0  0
    9.7920  -11.4330   -3.6210 O   0  0  0  0  0  0  0  0  0  0  0  0
    5.6592  -11.9977    0.1472 H   0  0  0  0  0  0  0  0  0  0  0  0
    4.6231  -11.7510   -1.2993 H   0  0  0  0  0  0  0  0  0  0  0  0
    5.8731  -13.0410   -1.2993 H   0  0  0  0  0  0  0  0  0  0  0  0
    7.7725  -13.2619   -1.6153 H   0  0  0  0  0  0  0  0  0  0  0  0
    7.9142  -13.0502   -4.6573 H   0  0  0  0  0  0  0  0  0  0  0  0
    4.6992  -14.7907   -2.3168 H   0  0  0  0  0  0  0  0  0  0  0  0
    2.3955  -15.4495   -1.6252 H   0  0  0  0  0  0  0  0  0  0  0  0
    0.4381  -14.7909   -3.0227 H   0  0  0  0  0  0  0  0  0  0  0  0
    0.7797  -13.4773   -5.1138 H   0  0  0  0  0  0  0  0  0  0  0  0
    3.0820  -12.8176   -5.8149 H   0  0  0  0  0  0  0  0  0  0  0  0
    8.3948  -15.3950   -1.6481 H   0  0  0  0  0  0  0  0  0  0  0  0
    7.1002  -16.0668   -2.6967 H   0  0  0  0  0  0  0  0  0  0  0  0
    8.7339  -16.8135   -2.6967 H   0  0  0  0  0  0  0  0  0  0  0  0
    7.6161  -16.4946   -4.8218 H   0  0  0  0  0  0  0  0  0  0  0  0
    7.9778  -16.5376   -9.3312 H   0  0  0  0  0  0  0  0  0  0  0  0
    8.1649  -15.4622  -11.5750 H   0  0  0  0  0  0  0  0  0  0  0  0
    7.4308  -13.1003  -11.8903 H   0  0  0  0  0  0  0  0  0  0  0  0
    6.5047  -11.8126   -9.9678 H   0  0  0  0  0  0  0  0  0  0  0  0
    6.3256  -12.8756   -7.7198 H   0  0  0  0  0  0  0  0  0  0  0  0
    9.5805  -17.5320   -5.1410 H   0  0  0  0  0  0  0  0  0  0  0  0
    9.5192  -16.5450   -6.7015 H   0  0  0  0  0  0  0  0  0  0  0  0
   11.7322  -16.5742   -5.7654 H   0  0  0  0  0  0  0  0  0  0  0  0
   10.7328  -16.5616   -3.1745 H   0  0  0  0  0  0  0  0  0  0  0  0
   12.7424  -17.3685   -1.3664 H   0  0  0  0  0  0  0  0  0  0  0  0
   11.5086  -17.7043   -2.6280 H   0  0  0  0  0  0  0  0  0  0  0  0
   13.0618  -18.6066   -2.6280 H   0  0  0  0  0  0  0  0  0  0  0  0
   12.9318  -13.8486   -4.7112 H   0  0  0  0  0  0  0  0  0  0  0  0
   13.2889  -14.6750   -6.2657 H   0  0  0  0  0  0  0  0  0  0  0  0
   12.6906  -12.9813   -6.2657 H   0  0  0  0  0  0  0  0  0  0  0  0
    9.7530  -13.7527   -7.2928 H   0  0  0  0  0  0  0  0  0  0  0  0
   11.4742  -13.6182   -7.7889 H   0  0  0  0  0  0  0  0  0  0  0  0
   10.6620  -15.2205   -7.7889 H   0  0  0  0  0  0  0  0  0  0  0  0
   10.4375  -13.3521   -0.3152 H   0  0  0  0  0  0  0  0  0  0  0  0
    9.6394  -14.8208   -0.9730 H   0  0  0  0  0  0  0  0  0  0  0  0
   11.4313  -14.6961   -0.9730 H   0  0  0  0  0  0  0  0  0  0  0  0
   12.0690  -13.2140   -3.5380 H   0  0  0  0  0  0  0  0  0  0  0  0
    9.5976  -11.7307   -1.5513 H   0  0  0  0  0  0  0  0  0  0  0  0
    9.4020  -11.8350   -4.4260 H   0  0  0  0  0  0  0  0  0  0  0  0
  1  2  1  0
  2  3  2  0
  2  4  1  0
  4  5  1  0
  5  6  1  0
  6  7  1  0
  7  8  1  0
  8  9  2  0
  8 10  1  0
 10 11  2  0
 11 12  1  0
 12 13  2  0
 13 14  1  0
 14 15  2  0
  6 16  1  0
 16 17  1  1
 16 18  1  0
 18 19  1  0
 19 20  1  0
 20 21  2  0
 20 22  1  0
 22 23  2  0
 23 24  1  0
 24 25  2  0
 25 26  1  0
 26 27  2  0
 18 28  1  0
 28 29  1  0
 29 30  1  0
 30 31  1  0
 31 32  1  0
 32 33  1  0
 32 34  2  0
 30 35  1  0
 35 36  1  6
 36 37  1  0
 37 38  1  0
 37 39  1  0
 35 40  1  0
 40 41  1  0
 40 42  1  6
 40 43  1  0
 43 44  1  0
 43  5  1  0
 15 10  1  0
 35 16  1  0
 27 22  1  0
 37 29  1  0
  1 45  1  0
  1 46  1  0
  1 47  1  0
  5 48  1  1
  6 49  1  6
 11 50  1  0
 12 51  1  0
 13 52  1  0
 14 53  1  0
 15 54  1  0
 17 55  1  0
 17 56  1  0
 17 57  1  0
 18 58  1  1
 23 59  1  0
 24 60  1  0
 25 61  1  0
 26 62  1  0
 27 63  1  0
 28 64  1  0
 28 65  1  0
 29 66  1  6
 30 67  1  1
 33 68  1  0
 33 69  1  0
 33 70  1  0
 38 71  1  0
 38 72  1  0
 38 73  1  0
 39 74  1  0
 39 75  1  0
 39 76  1  0
 41 77  1  0
 41 78  1  0
 41 79  1  0
 42 80  1  0
 43 81  1  1
 44 82  1  0
M  END
>  <meeko>  (2) 
{"is_sidechain": [false], "free_energy": -7.182, "intermolecular_energy": -12.65, "internal_energy": -3.263}

$$$$
LIB_VUXZIMAQBPJZQB__M_PUB_ALL__e8__s20260927
     RDKit          3D

 82 86  0  0  0  0  0  0  0  0999 V2000
    5.4920  -17.8170    0.9320 C   0  0  0  0  0  0  0  0  0  0  0  0
    4.9360  -18.2060   -0.4020 C   0  0  0  0  0  0  0  0  0  0  0  0
    5.4370  -19.0330   -1.1520 O   0  0  0  0  0  0  0  0  0  0  0  0
    3.7940  -17.5170   -0.6510 O   0  0  0  0  0  0  0  0  0  0  0  0
    3.0730  -17.0370    0.5090 C   0  0  1  0  0  0  0  0  0  0  0  0
    2.7290  -15.5490    0.2830 C   0  0  2  0  0  0  0  0  0  0  0  0
    3.9620  -14.7890    0.1790 O   0  0  0  0  0  0  0  0  0  0  0  0
    4.3940  -14.4820   -1.0710 C   0  0  0  0  0  0  0  0  0  0  0  0
    4.1560  -15.1080   -2.0900 O   0  0  0  0  0  0  0  0  0  0  0  0
    5.1900  -13.2270   -1.0510 C   0  0  0  0  0  0  0  0  0  0  0  0
    5.6610  -12.7260   -2.2740 C   0  0  0  0  0  0  0  0  0  0  0  0
    6.4090  -11.5480   -2.3110 C   0  0  0  0  0  0  0  0  0  0  0  0
    6.6930  -10.8670   -1.1290 C   0  0  0  0  0  0  0  0  0  0  0  0
    6.2300  -11.3580    0.0910 C   0  0  0  0  0  0  0  0  0  0  0  0
    5.4800  -12.5360    0.1330 C   0  0  0  0  0  0  0  0  0  0  0  0
    1.8720  -14.9370    1.4490 C   0  0  1  0  0  0  0  0  0  0  0  0
    2.7670  -14.7960    2.7180 C   0  0  0  0  0  0  0  0  0  0  0  0
    1.4370  -13.4540    1.0970 C   0  0  1  0  0  0  0  0  0  0  0  0
    1.4020  -13.2590   -0.3330 O   0  0  0  0  0  0  0  0  0  0  0  0
    1.5330  -11.9790   -0.7740 C   0  0  0  0  0  0  0  0  0  0  0  0
    1.3040  -10.9750   -0.1170 O   0  0  0  0  0  0  0  0  0  0  0  0
    1.9810  -11.9420   -2.1920 C   0  0  0  0  0  0  0  0  0  0  0  0
    2.5970  -10.7720   -2.6590 C   0  0  0  0  0  0  0  0  0  0  0  0
    3.0360  -10.6870   -3.9820 C   0  0  0  0  0  0  0  0  0  0  0  0
    2.8640  -11.7690   -4.8440 C   0  0  0  0  0  0  0  0  0  0  0  0
    2.2560  -12.9370   -4.3860 C   0  0  0  0  0  0  0  0  0  0  0  0
    1.8130  -13.0250   -3.0650 C   0  0  0  0  0  0  0  0  0  0  0  0
    0.0820  -13.0100    1.7140 C   0  0  0  0  0  0  0  0  0  0  0  0
   -0.9740  -14.1240    1.9100 C   0  0  2  0  0  0  0  0  0  0  0  0
   -0.3120  -15.2000    2.7630 C   0  0  1  0  0  0  0  0  0  0  0  0
   -1.2770  -16.0950    3.3260 O   0  0  0  0  0  0  0  0  0  0  0  0
   -1.5780  -15.9100    4.6380 C   0  0  0  0  0  0  0  0  0  0  0  0
   -0.4050  -15.3160    5.3540 C   0  0  0  0  0  0  0  0  0  0  0  0
   -2.6460  -16.1900    5.1620 O   0  0  0  0  0  0  0  0  0  0  0  0
    0.5950  -15.8480    1.6810 C   0  0  1  0  0  0  0  0  0  0  0  0
   -0.1780  -15.7470    0.4100 O   0  0  0  0  0  0  0  0  0  0  0  0
   -1.3320  -14.9030    0.6310 C   0  0  0  0  0  0  0  0  0  0  0  0
   -2.5690  -15.8160    0.7740 C   0  0  0  0  0  0  0  0  0  0  0  0
   -1.6240  -14.0320   -0.5960 C   0  0  0  0  0  0  0  0  0  0  0  0
    0.9130  -17.3770    1.8710 C   0  0  1  0  0  0  0  0  0  0  0  0
    1.5050  -17.7680    3.2300 C   0  0  0  0  0  0  0  0  0  0  0  0
   -0.3190  -18.1340    1.7880 O   0  0  0  0  0  0  0  0  0  0  0  0
    1.8050  -17.8890    0.7100 C   0  0  1  0  0  0  0  0  0  0  0  0
    1.0190  -17.9300   -0.5050 O   0  0  0  0  0  0  0  0  0  0  0  0
    4.8708  -18.2516    1.7290 H   0  0  0  0  0  0  0  0  0  0  0  0
    6.5218  -18.1927    1.0237 H   0  0  0  0  0  0  0  0  0  0  0  0
    5.4920  -16.7208    1.0237 H   0  0  0  0  0  0  0  0  0  0  0  0
    3.6834  -17.1254    1.4198 H   0  0  0  0  0  0  0  0  0  0  0  0
    2.1339  -15.4914   -0.6404 H   0  0  0  0  0  0  0  0  0  0  0  0
    5.4399  -13.2638   -3.2077 H   0  0  0  0  0  0  0  0  0  0  0  0
    6.7739  -11.1576   -3.2725 H   0  0  0  0  0  0  0  0  0  0  0  0
    7.2840   -9.9397   -1.1585 H   0  0  0  0  0  0  0  0  0  0  0  0
    6.4555  -10.8171    1.0219 H   0  0  0  0  0  0  0  0  0  0  0  0
    5.1166  -12.9216    1.0970 H   0  0  0  0  0  0  0  0  0  0  0  0
    2.1437  -14.8942    3.6190 H   0  0  0  0  0  0  0  0  0  0  0  0
    3.5341  -15.5844    2.7151 H   0  0  0  0  0  0  0  0  0  0  0  0
    3.2546  -13.8100    2.7151 H   0  0  0  0  0  0  0  0  0  0  0  0
    2.2069  -12.8168    1.5567 H   0  0  0  0  0  0  0  0  0  0  0  0
    2.7350   -9.9174   -1.9803 H   0  0  0  0  0  0  0  0  0  0  0  0
    3.5174   -9.7665   -4.3438 H   0  0  0  0  0  0  0  0  0  0  0  0
    3.2083  -11.7011   -5.8865 H   0  0  0  0  0  0  0  0  0  0  0  0
    2.1251  -13.7910   -5.0669 H   0  0  0  0  0  0  0  0  0  0  0  0
    1.3307  -13.9471   -2.7085 H   0  0  0  0  0  0  0  0  0  0  0  0
    0.2903  -12.5672    2.6992 H   0  0  0  0  0  0  0  0  0  0  0  0
   -0.3580  -12.3100    0.9884 H   0  0  0  0  0  0  0  0  0  0  0  0
   -1.8686  -13.6263    2.3124 H   0  0  0  0  0  0  0  0  0  0  0  0
    0.2301  -14.8523    3.6547 H   0  0  0  0  0  0  0  0  0  0  0  0
   -0.5602  -15.3946    6.4402 H   0  0  0  0  0  0  0  0  0  0  0  0
    0.5093  -15.8598    5.0740 H   0  0  0  0  0  0  0  0  0  0  0  0
   -0.3022  -14.2572    5.0740 H   0  0  0  0  0  0  0  0  0  0  0  0
   -2.7855  -15.9758    1.8406 H   0  0  0  0  0  0  0  0  0  0  0  0
   -3.4347  -15.3387    0.2916 H   0  0  0  0  0  0  0  0  0  0  0  0
   -2.3680  -16.7840    0.2916 H   0  0  0  0  0  0  0  0  0  0  0  0
   -1.9577  -13.0365   -0.2680 H   0  0  0  0  0  0  0  0  0  0  0  0
   -0.7103  -13.9317   -1.2003 H   0  0  0  0  0  0  0  0  0  0  0  0
   -2.4135  -14.5027   -1.2003 H   0  0  0  0  0  0  0  0  0  0  0  0
    0.8795  -17.3548    4.0350 H   0  0  0  0  0  0  0  0  0  0  0  0
    1.5352  -18.8643    3.3151 H   0  0  0  0  0  0  0  0  0  0  0  0
    2.5251  -17.3654    3.3151 H   0  0  0  0  0  0  0  0  0  0  0  0
   -0.8120  -17.9380    2.6100 H   0  0  0  0  0  0  0  0  0  0  0  0
    2.1537  -18.8990    0.9714 H   0  0  0  0  0  0  0  0  0  0  0  0
    0.7050  -17.0200   -0.6940 H   0  0  0  0  0  0  0  0  0  0  0  0
  1  2  1  0
  2  3  2  0
  2  4  1  0
  4  5  1  0
  5  6  1  0
  6  7  1  0
  7  8  1  0
  8  9  2  0
  8 10  1  0
 10 11  2  0
 11 12  1  0
 12 13  2  0
 13 14  1  0
 14 15  2  0
  6 16  1  0
 16 17  1  1
 16 18  1  0
 18 19  1  0
 19 20  1  0
 20 21  2  0
 20 22  1  0
 22 23  2  0
 23 24  1  0
 24 25  2  0
 25 26  1  0
 26 27  2  0
 18 28  1  0
 28 29  1  0
 29 30  1  0
 30 31  1  0
 31 32  1  0
 32 33  1  0
 32 34  2  0
 30 35  1  0
 35 36  1  6
 36 37  1  0
 37 38  1  0
 37 39  1  0
 35 40  1  0
 40 41  1  0
 40 42  1  6
 40 43  1  0
 43 44  1  0
 43  5  1  0
 15 10  1  0
 35 16  1  0
 27 22  1  0
 37 29  1  0
  1 45  1  0
  1 46  1  0
  1 47  1  0
  5 48  1  1
  6 49  1  6
 11 50  1  0
 12 51  1  0
 13 52  1  0
 14 53  1  0
 15 54  1  0
 17 55  1  0
 17 56  1  0
 17 57  1  0
 18 58  1  1
 23 59  1  0
 24 60  1  0
 25 61  1  0
 26 62  1  0
 27 63  1  0
 28 64  1  0
 28 65  1  0
 29 66  1  1
 30 67  1  1
 33 68  1  0
 33 69  1  0
 33 70  1  0
 38 71  1  0
 38 72  1  0
 38 73  1  0
 39 74  1  0
 39 75  1  0
 39 76  1  0
 41 77  1  0
 41 78  1  0
 41 79  1  0
 42 80  1  0
 43 81  1  1
 44 82  1  0
M  END
>  <meeko>  (3) 
{"is_sidechain": [false], "free_energy": -7.026, "intermolecular_energy": -12.021, "internal_energy": -3.635}

$$$$
LIB_VUXZIMAQBPJZQB__M_PUB_ALL__e8__s20260927
     RDKit          3D

 82 86  0  0  0  0  0  0  0  0999 V2000
    8.1350  -11.8440    0.6120 C   0  0  0  0  0  0  0  0  0  0  0  0
    9.5710  -12.1960    0.3810 C   0  0  0  0  0  0  0  0  0  0  0  0
   10.4160  -12.2890    1.2600 O   0  0  0  0  0  0  0  0  0  0  0  0
    9.7940  -12.4060   -0.9420 O   0  0  0  0  0  0  0  0  0  0  0  0
   10.1040  -13.7650   -1.3280 C   0  0  1  0  0  0  0  0  0  0  0  0
    9.3680  -14.0720   -2.6510 C   0  0  2  0  0  0  0  0  0  0  0  0
    7.9360  -13.9890   -2.4260 O   0  0  0  0  0  0  0  0  0  0  0  0
    7.3240  -12.8270   -2.7690 C   0  0  0  0  0  0  0  0  0  0  0  0
    7.8060  -11.9270   -3.4360 O   0  0  0  0  0  0  0  0  0  0  0  0
    5.9330  -12.7990   -2.2460 C   0  0  0  0  0  0  0  0  0  0  0  0
    5.1270  -11.7000   -2.5760 C   0  0  0  0  0  0  0  0  0  0  0  0
    3.8110  -11.6270   -2.1140 C   0  0  0  0  0  0  0  0  0  0  0  0
    3.2950  -12.6500   -1.3200 C   0  0  0  0  0  0  0  0  0  0  0  0
    4.0900  -13.7460   -0.9870 C   0  0  0  0  0  0  0  0  0  0  0  0
    5.4070  -13.8230   -1.4470 C   0  0  0  0  0  0  0  0  0  0  0  0
    9.6950  -15.5020   -3.2140 C   0  0  1  0  0  0  0  0  0  0  0  0
    9.0230  -16.5730   -2.3010 C   0  0  0  0  0  0  0  0  0  0  0  0
    9.0220  -15.7050   -4.6340 C   0  0  1  0  0  0  0  0  0  0  0  0
    8.8150  -14.4350   -5.2870 O   0  0  0  0  0  0  0  0  0  0  0  0
    7.9820  -14.4330   -6.3620 C   0  0  0  0  0  0  0  0  0  0  0  0
    8.3270  -14.5630   -7.5270 O   0  0  0  0  0  0  0  0  0  0  0  0
    6.5680  -14.2300   -5.9460 C   0  0  0  0  0  0  0  0  0  0  0  0
    5.9280  -13.0470   -6.3420 C   0  0  0  0  0  0  0  0  0  0  0  0
    4.6010  -12.8070   -5.9780 C   0  0  0  0  0  0  0  0  0  0  0  0
    3.9060  -13.7490   -5.2210 C   0  0  0  0  0  0  0  0  0  0  0  0
    4.5350  -14.9290   -4.8260 C   0  0  0  0  0  0  0  0  0  0  0  0
    5.8620  -15.1700   -5.1860 C   0  0  0  0  0  0  0  0  0  0  0  0
    9.7920  -16.6590   -5.5880 C   0  0  0  0  0  0  0  0  0  0  0  0
   11.3310  -16.6880   -5.4250 C   0  0  2  0  0  0  0  0  0  0  0  0
   11.6030  -17.0370   -3.9670 C   0  0  1  0  0  0  0  0  0  0  0  0
   12.9570  -17.4600   -3.7690 O   0  0  0  0  0  0  0  0  0  0  0  0
   13.1390  -18.7680   -3.4490 C   0  0  0  0  0  0  0  0  0  0  0  0
   11.8370  -19.3810   -3.0330 C   0  0  0  0  0  0  0  0  0  0  0  0
   14.2070  -19.3610   -3.4890 O   0  0  0  0  0  0  0  0  0  0  0  0
   11.2680  -15.6660   -3.3180 C   0  0  1  0  0  0  0  0  0  0  0  0
   11.6890  -14.6460   -4.3210 O   0  0  0  0  0  0  0  0  0  0  0  0
   12.0180  -15.3160   -5.5600 C   0  0  0  0  0  0  0  0  0  0  0  0
   13.5560  -15.3890   -5.6700 C   0  0  0  0  0  0  0  0  0  0  0  0
   11.5740  -14.4880   -6.7710 C   0  0  0  0  0  0  0  0  0  0  0  0
   12.0480  -15.3180   -1.9970 C   0  0  1  0  0  0  0  0  0  0  0  0
   11.9600  -16.3640   -0.8790 C   0  0  0  0  0  0  0  0  0  0  0  0
   13.4640  -15.2270   -2.2880 O   0  0  0  0  0  0  0  0  0  0  0  0
   11.6300  -13.9170   -1.4790 C   0  0  1  0  0  0  0  0  0  0  0  0
   12.1580  -12.9080   -2.3730 O   0  0  0  0  0  0  0  0  0  0  0  0
    7.9386  -11.7959    1.6933 H   0  0  0  0  0  0  0  0  0  0  0  0
    7.9192  -10.8664    0.1563 H   0  0  0  0  0  0  0  0  0  0  0  0
    7.4916  -12.6110    0.1563 H   0  0  0  0  0  0  0  0  0  0  0  0
    9.7703  -14.4805   -0.5620 H   0  0  0  0  0  0  0  0  0  0  0  0
    9.7093  -13.3319   -3.3898 H   0  0  0  0  0  0  0  0  0  0  0  0
    5.5331  -10.8916   -3.2017 H   0  0  0  0  0  0  0  0  0  0  0  0
    3.1824  -10.7633   -2.3764 H   0  0  0  0  0  0  0  0  0  0  0  0
    2.2587  -12.5925   -0.9555 H   0  0  0  0  0  0  0  0  0  0  0  0
    3.6794  -14.5518   -0.3608 H   0  0  0  0  0  0  0  0  0  0  0  0
    6.0318  -14.6886   -1.1816 H   0  0  0  0  0  0  0  0  0  0  0  0
    9.1877  -16.3105   -1.2455 H   0  0  0  0  0  0  0  0  0  0  0  0
    7.9429  -16.6046   -2.5067 H   0  0  0  0  0  0  0  0  0  0  0  0
    9.4644  -17.5593   -2.5067 H   0  0  0  0  0  0  0  0  0  0  0  0
    8.0592  -16.1934   -4.4228 H   0  0  0  0  0  0  0  0  0  0  0  0
    6.4737  -12.3042   -6.9424 H   0  0  0  0  0  0  0  0  0  0  0  0
    4.1048  -11.8756   -6.2884 H   0  0  0  0  0  0  0  0  0  0  0  0
    2.8605  -13.5612   -4.9351 H   0  0  0  0  0  0  0  0  0  0  0  0
    3.9845  -15.6714   -4.2296 H   0  0  0  0  0  0  0  0  0  0  0  0
    6.3547  -16.1018   -4.8714 H   0  0  0  0  0  0  0  0  0  0  0  0
    9.4167  -17.6790   -5.4183 H   0  0  0  0  0  0  0  0  0  0  0  0
    9.6093  -16.2738   -6.6020 H   0  0  0  0  0  0  0  0  0  0  0  0
   11.7049  -17.3760   -6.1975 H   0  0  0  0  0  0  0  0  0  0  0  0
   11.0329  -17.8814   -3.5523 H   0  0  0  0  0  0  0  0  0  0  0  0
   11.7789  -19.4084   -1.9349 H   0  0  0  0  0  0  0  0  0  0  0  0
   11.0054  -18.7798   -3.4293 H   0  0  0  0  0  0  0  0  0  0  0  0
   11.7706  -20.4050   -3.4293 H   0  0  0  0  0  0  0  0  0  0  0  0
   13.9951  -15.4098   -4.6617 H   0  0  0  0  0  0  0  0  0  0  0  0
   13.8418  -16.3017   -6.2134 H   0  0  0  0  0  0  0  0  0  0  0  0
   13.9270  -14.5075   -6.2134 H   0  0  0  0  0  0  0  0  0  0  0  0
   11.0806  -13.5678   -6.4250 H   0  0  0  0  0  0  0  0  0  0  0  0
   12.4529  -14.2265   -7.3786 H   0  0  0  0  0  0  0  0  0  0  0  0
   10.8699  -15.0754   -7.3786 H   0  0  0  0  0  0  0  0  0  0  0  0
   12.0023  -15.8607    0.0982 H   0  0  0  0  0  0  0  0  0  0  0  0
   11.0123  -16.9155   -0.9666 H   0  0  0  0  0  0  0  0  0  0  0  0
   12.8023  -17.0661   -0.9666 H   0  0  0  0  0  0  0  0  0  0  0  0
   13.7090  -16.0780   -2.7040 H   0  0  0  0  0  0  0  0  0  0  0  0
   12.0507  -13.7898   -0.4706 H   0  0  0  0  0  0  0  0  0  0  0  0
   12.8230  -13.3350   -2.9540 H   0  0  0  0  0  0  0  0  0  0  0  0
  1  2  1  0
  2  3  2  0
  2  4  1  0
  4  5  1  0
  5  6  1  0
  6  7  1  0
  7  8  1  0
  8  9  2  0
  8 10  1  0
 10 11  2  0
 11 12  1  0
 12 13  2  0
 13 14  1  0
 14 15  2  0
  6 16  1  0
 16 17  1  1
 16 18  1  0
 18 19  1  0
 19 20  1  0
 20 21  2  0
 20 22  1  0
 22 23  2  0
 23 24  1  0
 24 25  2  0
 25 26  1  0
 26 27  2  0
 18 28  1  0
 28 29  1  0
 29 30  1  0
 30 31  1  0
 31 32  1  0
 32 33  1  0
 32 34  2  0
 30 35  1  0
 35 36  1  6
 36 37  1  0
 37 38  1  0
 37 39  1  0
 35 40  1  0
 40 41  1  0
 40 42  1  6
 40 43  1  0
 43 44  1  0
 43  5  1  0
 15 10  1  0
 35 16  1  0
 27 22  1  0
 37 29  1  0
  1 45  1  0
  1 46  1  0
  1 47  1  0
  5 48  1  1
  6 49  1  6
 11 50  1  0
 12 51  1  0
 13 52  1  0
 14 53  1  0
 15 54  1  0
 17 55  1  0
 17 56  1  0
 17 57  1  0
 18 58  1  1
 23 59  1  0
 24 60  1  0
 25 61  1  0
 26 62  1  0
 27 63  1  0
 28 64  1  0
 28 65  1  0
 29 66  1  6
 30 67  1  1
 33 68  1  0
 33 69  1  0
 33 70  1  0
 38 71  1  0
 38 72  1  0
 38 73  1  0
 39 74  1  0
 39 75  1  0
 39 76  1  0
 41 77  1  0
 41 78  1  0
 41 79  1  0
 42 80  1  0
 43 81  1  1
 44 82  1  0
M  END
>  <meeko>  (4) 
{"is_sidechain": [false], "free_energy": -6.946, "intermolecular_energy": -11.394, "internal_energy": -4.131}

$$$$
LIB_VUXZIMAQBPJZQB__M_PUB_ALL__e8__s20260927
     RDKit          3D

 82 86  0  0  0  0  0  0  0  0999 V2000
   -3.3900  -15.1620    9.1420 C   0  0  0  0  0  0  0  0  0  0  0  0
   -3.5290  -16.2600    8.1330 C   0  0  0  0  0  0  0  0  0  0  0  0
   -3.7620  -17.4300    8.4030 O   0  0  0  0  0  0  0  0  0  0  0  0
   -3.3680  -15.7650    6.8800 O   0  0  0  0  0  0  0  0  0  0  0  0
   -2.5770  -16.5690    5.9730 C   0  0  1  0  0  0  0  0  0  0  0  0
   -2.8310  -16.0670    4.5350 C   0  0  2  0  0  0  0  0  0  0  0  0
   -4.2310  -16.2700    4.2040 O   0  0  0  0  0  0  0  0  0  0  0  0
   -5.0630  -15.2110    4.3690 C   0  0  0  0  0  0  0  0  0  0  0  0
   -5.0740  -14.1900    3.7010 O   0  0  0  0  0  0  0  0  0  0  0  0
   -6.0180  -15.4690    5.4790 C   0  0  0  0  0  0  0  0  0  0  0  0
   -6.5120  -16.7720    5.6340 C   0  0  0  0  0  0  0  0  0  0  0  0
   -7.4070  -17.0690    6.6630 C   0  0  0  0  0  0  0  0  0  0  0  0
   -7.8140  -16.0660    7.5410 C   0  0  0  0  0  0  0  0  0  0  0  0
   -7.3290  -14.7670    7.3940 C   0  0  0  0  0  0  0  0  0  0  0  0
   -6.4320  -14.4660    6.3660 C   0  0  0  0  0  0  0  0  0  0  0  0
   -1.9600  -16.8180    3.4640 C   0  0  1  0  0  0  0  0  0  0  0  0
   -2.4850  -18.2790    3.3150 C   0  0  0  0  0  0  0  0  0  0  0  0
   -2.1630  -16.1700    2.0320 C   0  0  1  0  0  0  0  0  0  0  0  0
   -2.5720  -14.7910    2.1500 O   0  0  0  0  0  0  0  0  0  0  0  0
   -3.1520  -14.2340    1.0530 C   0  0  0  0  0  0  0  0  0  0  0  0
   -3.7170  -14.8470    0.1600 O   0  0  0  0  0  0  0  0  0  0  0  0
   -2.9990  -12.7540    1.0570 C   0  0  0  0  0  0  0  0  0  0  0  0
   -2.6410  -12.1310    2.2610 C   0  0  0  0  0  0  0  0  0  0  0  0
   -2.4830  -10.7450    2.3180 C   0  0  0  0  0  0  0  0  0  0  0  0
   -2.6800   -9.9740    1.1740 C   0  0  0  0  0  0  0  0  0  0  0  0
   -3.0330  -10.5860   -0.0280 C   0  0  0  0  0  0  0  0  0  0  0  0
   -3.1940  -11.9720   -0.0880 C   0  0  0  0  0  0  0  0  0  0  0  0
   -0.9290  -16.2660    1.0940 C   0  0  0  0  0  0  0  0  0  0  0  0
    0.4560  -16.2490    1.7860 C   0  0  2  0  0  0  0  0  0  0  0  0
    0.4460  -17.3910    2.7950 C   0  0  1  0  0  0  0  0  0  0  0  0
    1.7700  -17.7210    3.2300 O   0  0  0  0  0  0  0  0  0  0  0  0
    2.2480  -18.9320    2.8390 C   0  0  0  0  0  0  0  0  0  0  0  0
    2.7790  -18.8470    1.4420 C   0  0  0  0  0  0  0  0  0  0  0  0
    2.2430  -19.9450    3.5220 O   0  0  0  0  0  0  0  0  0  0  0  0
   -0.4360  -16.7400    3.8960 C   0  0  1  0  0  0  0  0  0  0  0  0
   -0.1050  -15.2870    3.8540 O   0  0  0  0  0  0  0  0  0  0  0  0
    0.7090  -15.0260    2.6870 C   0  0  0  0  0  0  0  0  0  0  0  0
    2.1740  -14.8770    3.1500 C   0  0  0  0  0  0  0  0  0  0  0  0
    0.3540  -13.6750    2.0560 C   0  0  0  0  0  0  0  0  0  0  0  0
   -0.1530  -17.2040    5.3720 C   0  0  1  0  0  0  0  0  0  0  0  0
   -0.2000  -18.7170    5.6130 C   0  0  0  0  0  0  0  0  0  0  0  0
    1.1950  -16.8260    5.7410 O   0  0  0  0  0  0  0  0  0  0  0  0
   -1.0890  -16.4580    6.3580 C   0  0  1  0  0  0  0  0  0  0  0  0
   -0.6830  -15.0700    6.4330 O   0  0  0  0  0  0  0  0  0  0  0  0
   -3.4437  -15.5864   10.1554 H   0  0  0  0  0  0  0  0  0  0  0  0
   -2.4211  -14.6594    9.0058 H   0  0  0  0  0  0  0  0  0  0  0  0
   -4.2031  -14.4338    9.0058 H   0  0  0  0  0  0  0  0  0  0  0  0
   -2.8606  -17.6301    6.0340 H   0  0  0  0  0  0  0  0  0  0  0  0
   -2.5545  -15.0026    4.5102 H   0  0  0  0  0  0  0  0  0  0  0  0
   -6.1925  -17.5643    4.9410 H   0  0  0  0  0  0  0  0  0  0  0  0
   -7.7906  -18.0932    6.7809 H   0  0  0  0  0  0  0  0  0  0  0  0
   -8.5196  -16.2997    8.3519 H   0  0  0  0  0  0  0  0  0  0  0  0
   -7.6531  -13.9780    8.0885 H   0  0  0  0  0  0  0  0  0  0  0  0
   -6.0503  -13.4406    6.2527 H   0  0  0  0  0  0  0  0  0  0  0  0
   -2.6419  -18.7157    4.3123 H   0  0  0  0  0  0  0  0  0  0  0  0
   -3.4369  -18.2721    2.7638 H   0  0  0  0  0  0  0  0  0  0  0  0
   -1.7464  -18.8796    2.7638 H   0  0  0  0  0  0  0  0  0  0  0  0
   -2.9546  -16.7703    1.5598 H   0  0  0  0  0  0  0  0  0  0  0  0
   -2.4838  -12.7373    3.1653 H   0  0  0  0  0  0  0  0  0  0  0  0
   -2.2031  -10.2617    3.2657 H   0  0  0  0  0  0  0  0  0  0  0  0
   -2.5569   -8.8818    1.2193 H   0  0  0  0  0  0  0  0  0  0  0  0
   -3.1850   -9.9761   -0.9307 H   0  0  0  0  0  0  0  0  0  0  0  0
   -3.4749  -12.4508   -1.0377 H   0  0  0  0  0  0  0  0  0  0  0  0
   -1.0100  -17.2053    0.5273 H   0  0  0  0  0  0  0  0  0  0  0  0
   -0.9595  -15.3592    0.4721 H   0  0  0  0  0  0  0  0  0  0  0  0
    1.2007  -16.2832    0.9771 H   0  0  0  0  0  0  0  0  0  0  0  0
    0.0708  -18.3597    2.4333 H   0  0  0  0  0  0  0  0  0  0  0  0
    3.8648  -18.6732    1.4724 H   0  0  0  0  0  0  0  0  0  0  0  0
    2.5732  -19.7895    0.9135 H   0  0  0  0  0  0  0  0  0  0  0  0
    2.2893  -18.0158    0.9135 H   0  0  0  0  0  0  0  0  0  0  0  0
    2.2125  -14.8731    4.2493 H   0  0  0  0  0  0  0  0  0  0  0  0
    2.7676  -15.7194    2.7653 H   0  0  0  0  0  0  0  0  0  0  0  0
    2.5858  -13.9323    2.7653 H   0  0  0  0  0  0  0  0  0  0  0  0
    0.1606  -12.9389    2.8502 H   0  0  0  0  0  0  0  0  0  0  0  0
    1.1920  -13.3300    1.4325 H   0  0  0  0  0  0  0  0  0  0  0  0
   -0.5453  -13.7865    1.4325 H   0  0  0  0  0  0  0  0  0  0  0  0
   -0.2062  -18.9159    6.6948 H   0  0  0  0  0  0  0  0  0  0  0  0
   -1.1115  -19.1325    5.1586 H   0  0  0  0  0  0  0  0  0  0  0  0
    0.6839  -19.1883    5.1586 H   0  0  0  0  0  0  0  0  0  0  0  0
    1.7850  -17.4820    5.3190 H   0  0  0  0  0  0  0  0  0  0  0  0
   -0.9925  -16.9371    7.3435 H   0  0  0  0  0  0  0  0  0  0  0  0
   -1.0560  -14.6020    5.6560 H   0  0  0  0  0  0  0  0  0  0  0  0
  1  2  1  0
  2  3  2  0
  2  4  1  0
  4  5  1  0
  5  6  1  0
  6  7  1  0
  7  8  1  0
  8  9  2  0
  8 10  1  0
 10 11  2  0
 11 12  1  0
 12 13  2  0
 13 14  1  0
 14 15  2  0
  6 16  1  0
 16 17  1  6
 16 18  1  0
 18 19  1  0
 19 20  1  0
 20 21  2  0
 20 22  1  0
 22 23  2  0
 23 24  1  0
 24 25  2  0
 25 26  1  0
 26 27  2  0
 18 28  1  0
 28 29  1  0
 29 30  1  0
 30 31  1  0
 31 32  1  0
 32 33  1  0
 32 34  2  0
 30 35  1  0
 35 36  1  1
 36 37  1  0
 37 38  1  0
 37 39  1  0
 35 40  1  0
 40 41  1  0
 40 42  1  1
 40 43  1  0
 43 44  1  0
 43  5  1  0
 15 10  1  0
 35 16  1  0
 27 22  1  0
 37 29  1  0
  1 45  1  0
  1 46  1  0
  1 47  1  0
  5 48  1  6
  6 49  1  1
 11 50  1  0
 12 51  1  0
 13 52  1  0
 14 53  1  0
 15 54  1  0
 17 55  1  0
 17 56  1  0
 17 57  1  0
 18 58  1  6
 23 59  1  0
 24 60  1  0
 25 61  1  0
 26 62  1  0
 27 63  1  0
 28 64  1  0
 28 65  1  0
 29 66  1  6
 30 67  1  6
 33 68  1  0
 33 69  1  0
 33 70  1  0
 38 71  1  0
 38 72  1  0
 38 73  1  0
 39 74  1  0
 39 75  1  0
 39 76  1  0
 41 77  1  0
 41 78  1  0
 41 79  1  0
 42 80  1  0
 43 81  1  1
 44 82  1  0
M  END
>  <meeko>  (5) 
{"is_sidechain": [false], "free_energy": -6.922, "intermolecular_energy": -13.062, "internal_energy": -2.424}

$$$$
LIB_VUXZIMAQBPJZQB__M_PUB_ALL__e8__s20260927
     RDKit          3D

 82 86  0  0  0  0  0  0  0  0999 V2000
   11.6320  -12.2190   -0.9760 C   0  0  0  0  0  0  0  0  0  0  0  0
   11.0970  -13.0300    0.1630 C   0  0  0  0  0  0  0  0  0  0  0  0
   11.5360  -13.0020    1.3050 O   0  0  0  0  0  0  0  0  0  0  0  0
   10.0530  -13.7890   -0.2540 O   0  0  0  0  0  0  0  0  0  0  0  0
    8.9690  -13.0820   -0.9010 C   0  0  1  0  0  0  0  0  0  0  0  0
    8.5270  -13.8970   -2.1360 C   0  0  2  0  0  0  0  0  0  0  0  0
    9.6330  -13.9710   -3.0740 O   0  0  0  0  0  0  0  0  0  0  0  0
   10.3970  -15.0920   -3.0410 C   0  0  0  0  0  0  0  0  0  0  0  0
   10.1360  -16.1250   -2.4480 O   0  0  0  0  0  0  0  0  0  0  0  0
   11.6160  -14.9140   -3.8720 C   0  0  0  0  0  0  0  0  0  0  0  0
   12.5000  -15.9980   -3.9860 C   0  0  0  0  0  0  0  0  0  0  0  0
   13.6570  -15.8840   -4.7590 C   0  0  0  0  0  0  0  0  0  0  0  0
   13.9390  -14.6890   -5.4190 C   0  0  0  0  0  0  0  0  0  0  0  0
   13.0670  -13.6070   -5.3090 C   0  0  0  0  0  0  0  0  0  0  0  0
   11.9070  -13.7160   -4.5380 C   0  0  0  0  0  0  0  0  0  0  0  0
    7.2950  -13.2630   -2.8770 C   0  0  1  0  0  0  0  0  0  0  0  0
    7.7510  -11.9540   -3.5930 C   0  0  0  0  0  0  0  0  0  0  0  0
    6.8060  -14.2120   -4.0480 C   0  0  1  0  0  0  0  0  0  0  0  0
    7.1720  -15.5830   -3.7810 O   0  0  0  0  0  0  0  0  0  0  0  0
    7.1980  -16.4230   -4.8500 C   0  0  0  0  0  0  0  0  0  0  0  0
    6.3930  -17.3150   -5.0710 O   0  0  0  0  0  0  0  0  0  0  0  0
    8.3610  -16.1360   -5.7310 C   0  0  0  0  0  0  0  0  0  0  0  0
    9.3120  -17.1490   -5.9190 C   0  0  0  0  0  0  0  0  0  0  0  0
   10.4230  -16.9310   -6.7370 C   0  0  0  0  0  0  0  0  0  0  0  0
   10.5880  -15.7020   -7.3730 C   0  0  0  0  0  0  0  0  0  0  0  0
    9.6450  -14.6900   -7.1940 C   0  0  0  0  0  0  0  0  0  0  0  0
    8.5350  -14.9040   -6.3750 C   0  0  0  0  0  0  0  0  0  0  0  0
    5.2850  -14.1330   -4.3570 C   0  0  0  0  0  0  0  0  0  0  0  0
    4.3630  -13.8080   -3.1570 C   0  0  2  0  0  0  0  0  0  0  0  0
    4.8700  -12.4980   -2.5660 C   0  0  1  0  0  0  0  0  0  0  0  0
    3.8980  -11.8990   -1.7020 O   0  0  0  0  0  0  0  0  0  0  0  0
    2.7850  -11.3990   -2.3010 C   0  0  0  0  0  0  0  0  0  0  0  0
    3.1710  -10.5440   -3.4680 C   0  0  0  0  0  0  0  0  0  0  0  0
    1.6370  -11.6080   -1.9400 O   0  0  0  0  0  0  0  0  0  0  0  0
    6.1290  -13.0310   -1.8280 C   0  0  1  0  0  0  0  0  0  0  0  0
    5.7600  -14.3990   -1.3640 O   0  0  0  0  0  0  0  0  0  0  0  0
    4.4980  -14.7720   -1.9640 C   0  0  0  0  0  0  0  0  0  0  0  0
    3.3950  -14.6100   -0.8950 C   0  0  0  0  0  0  0  0  0  0  0  0
    4.4780  -16.2600   -2.3300 C   0  0  0  0  0  0  0  0  0  0  0  0
    6.5600  -12.2400   -0.5390 C   0  0  1  0  0  0  0  0  0  0  0  0
    6.7670  -10.7320   -0.7240 C   0  0  0  0  0  0  0  0  0  0  0  0
    5.5110  -12.3360    0.4530 O   0  0  0  0  0  0  0  0  0  0  0  0
    7.8120  -12.8960    0.1000 C   0  0  1  0  0  0  0  0  0  0  0  0
    7.4310  -14.1660    0.6820 O   0  0  0  0  0  0  0  0  0  0  0  0
   12.1975  -11.3617   -0.5819 H   0  0  0  0  0  0  0  0  0  0  0  0
   12.2955  -12.8443   -1.5915 H   0  0  0  0  0  0  0  0  0  0  0  0
   10.7961  -11.8551   -1.5915 H   0  0  0  0  0  0  0  0  0  0  0  0
    9.2898  -12.0833   -1.2321 H   0  0  0  0  0  0  0  0  0  0  0  0
    8.2286  -14.8928   -1.7764 H   0  0  0  0  0  0  0  0  0  0  0  0
   12.2804  -16.9412   -3.4643 H   0  0  0  0  0  0  0  0  0  0  0  0
   14.3459  -16.7370   -4.8472 H   0  0  0  0  0  0  0  0  0  0  0  0
   14.8510  -14.5997   -6.0275 H   0  0  0  0  0  0  0  0  0  0  0  0
   13.2928  -12.6651   -5.8305 H   0  0  0  0  0  0  0  0  0  0  0  0
   11.2212  -12.8601   -4.4537 H   0  0  0  0  0  0  0  0  0  0  0  0
    8.0147  -11.1969   -2.8398 H   0  0  0  0  0  0  0  0  0  0  0  0
    8.6280  -12.1665   -4.2220 H   0  0  0  0  0  0  0  0  0  0  0  0
    6.9317  -11.5756   -4.2220 H   0  0  0  0  0  0  0  0  0  0  0  0
    7.3219  -13.8408   -4.9458 H   0  0  0  0  0  0  0  0  0  0  0  0
    9.1825  -18.1205   -5.4197 H   0  0  0  0  0  0  0  0  0  0  0  0
   11.1670  -17.7286   -6.8791 H   0  0  0  0  0  0  0  0  0  0  0  0
   11.4630  -15.5298   -8.0170 H   0  0  0  0  0  0  0  0  0  0  0  0
    9.7762  -13.7216   -7.6990 H   0  0  0  0  0  0  0  0  0  0  0  0
    7.7945  -14.1027   -6.2348 H   0  0  0  0  0  0  0  0  0  0  0  0
    5.1364  -13.3513   -5.1165 H   0  0  0  0  0  0  0  0  0  0  0  0
    4.9973  -15.1424   -4.6862 H   0  0  0  0  0  0  0  0  0  0  0  0
    3.3354  -13.8318   -3.5487 H   0  0  0  0  0  0  0  0  0  0  0  0
    5.0780  -11.6873   -3.2798 H   0  0  0  0  0  0  0  0  0  0  0  0
    3.5981   -9.5979   -3.1040 H   0  0  0  0  0  0  0  0  0  0  0  0
    3.9178  -11.0725   -4.0787 H   0  0  0  0  0  0  0  0  0  0  0  0
    2.2806  -10.3334   -4.0787 H   0  0  0  0  0  0  0  0  0  0  0  0
    3.8433  -14.6758    0.1073 H   0  0  0  0  0  0  0  0  0  0  0  0
    2.9086  -13.6308   -1.0155 H   0  0  0  0  0  0  0  0  0  0  0  0
    2.6476  -15.4080   -1.0155 H   0  0  0  0  0  0  0  0  0  0  0  0
    4.4699  -16.8637   -1.4105 H   0  0  0  0  0  0  0  0  0  0  0  0
    3.5768  -16.4801   -2.9211 H   0  0  0  0  0  0  0  0  0  0  0  0
    5.3729  -16.5043   -2.9211 H   0  0  0  0  0  0  0  0  0  0  0  0
    6.8335  -10.2474    0.2613 H   0  0  0  0  0  0  0  0  0  0  0  0
    7.6978  -10.5555   -1.2830 H   0  0  0  0  0  0  0  0  0  0  0  0
    5.9182  -10.3112   -1.2830 H   0  0  0  0  0  0  0  0  0  0  0  0
    5.8490  -12.9390    1.1460 H   0  0  0  0  0  0  0  0  0  0  0  0
    8.1894  -12.2171    0.8789 H   0  0  0  0  0  0  0  0  0  0  0  0
    6.6520  -14.0150    1.2570 H   0  0  0  0  0  0  0  0  0  0  0  0
  1  2  1  0
  2  3  2  0
  2  4  1  0
  4  5  1  0
  5  6  1  0
  6  7  1  0
  7  8  1  0
  8  9  2  0
  8 10  1  0
 10 11  2  0
 11 12  1  0
 12 13  2  0
 13 14  1  0
 14 15  2  0
  6 16  1  0
 16 17  1  6
 16 18  1  0
 18 19  1  0
 19 20  1  0
 20 21  2  0
 20 22  1  0
 22 23  2  0
 23 24  1  0
 24 25  2  0
 25 26  1  0
 26 27  2  0
 18 28  1  0
 28 29  1  0
 29 30  1  0
 30 31  1  0
 31 32  1  0
 32 33  1  0
 32 34  2  0
 30 35  1  0
 35 36  1  1
 36 37  1  0
 37 38  1  0
 37 39  1  0
 35 40  1  0
 40 41  1  0
 40 42  1  1
 40 43  1  0
 43 44  1  0
 43  5  1  0
 15 10  1  0
 35 16  1  0
 27 22  1  0
 37 29  1  0
  1 45  1  0
  1 46  1  0
  1 47  1  0
  5 48  1  6
  6 49  1  1
 11 50  1  0
 12 51  1  0
 13 52  1  0
 14 53  1  0
 15 54  1  0
 17 55  1  0
 17 56  1  0
 17 57  1  0
 18 58  1  6
 23 59  1  0
 24 60  1  0
 25 61  1  0
 26 62  1  0
 27 63  1  0
 28 64  1  0
 28 65  1  0
 29 66  1  6
 30 67  1  6
 33 68  1  0
 33 69  1  0
 33 70  1  0
 38 71  1  0
 38 72  1  0
 38 73  1  0
 39 74  1  0
 39 75  1  0
 39 76  1  0
 41 77  1  0
 41 78  1  0
 41 79  1  0
 42 80  1  0
 43 81  1  1
 44 82  1  0
M  END
>  <meeko>  (6) 
{"is_sidechain": [false], "free_energy": -6.823, "intermolecular_energy": -11.213, "internal_energy": -4.11}

$$$$
LIB_VUXZIMAQBPJZQB__M_PUB_ALL__e8__s20260927
     RDKit          3D

 82 86  0  0  0  0  0  0  0  0999 V2000
   12.6080  -11.1040    0.0230 C   0  0  0  0  0  0  0  0  0  0  0  0
   11.3960  -10.9280    0.8840 C   0  0  0  0  0  0  0  0  0  0  0  0
   11.1540   -9.9320    1.5520 O   0  0  0  0  0  0  0  0  0  0  0  0
   10.6050  -12.0280    0.8070 O   0  0  0  0  0  0  0  0  0  0  0  0
    9.4810  -11.9420   -0.1010 C   0  0  1  0  0  0  0  0  0  0  0  0
    9.4330  -13.2410   -0.9350 C   0  0  2  0  0  0  0  0  0  0  0  0
   10.6430  -13.3350   -1.7320 O   0  0  0  0  0  0  0  0  0  0  0  0
   11.5470  -14.2810   -1.3720 C   0  0  0  0  0  0  0  0  0  0  0  0
   11.7220  -14.7210   -0.2480 O   0  0  0  0  0  0  0  0  0  0  0  0
   12.3010  -14.7590   -2.5610 C   0  0  0  0  0  0  0  0  0  0  0  0
   13.1140  -15.8920   -2.4140 C   0  0  0  0  0  0  0  0  0  0  0  0
   13.8400  -16.3840   -3.5000 C   0  0  0  0  0  0  0  0  0  0  0  0
   13.7580  -15.7470   -4.7370 C   0  0  0  0  0  0  0  0  0  0  0  0
   12.9530  -14.6190   -4.8920 C   0  0  0  0  0  0  0  0  0  0  0  0
   12.2250  -14.1230   -3.8070 C   0  0  0  0  0  0  0  0  0  0  0  0
    8.1990  -13.2970   -1.9070 C   0  0  1  0  0  0  0  0  0  0  0  0
    8.4120  -12.2680   -3.0590 C   0  0  0  0  0  0  0  0  0  0  0  0
    8.1290  -14.7040   -2.6320 C   0  0  1  0  0  0  0  0  0  0  0  0
    8.7820  -15.7190   -1.8400 O   0  0  0  0  0  0  0  0  0  0  0  0
    9.3380  -16.7570   -2.5220 C   0  0  0  0  0  0  0  0  0  0  0  0
    9.6270  -16.7520   -3.7080 O   0  0  0  0  0  0  0  0  0  0  0  0
    9.5410  -17.9340   -1.6360 C   0  0  0  0  0  0  0  0  0  0  0  0
   10.7550  -18.0360   -0.9420 C   0  0  0  0  0  0  0  0  0  0  0  0
   10.9960  -19.1220   -0.0970 C   0  0  0  0  0  0  0  0  0  0  0  0
   10.0250  -20.1090    0.0610 C   0  0  0  0  0  0  0  0  0  0  0  0
    8.8130  -20.0130   -0.6220 C   0  0  0  0  0  0  0  0  0  0  0  0
    8.5710  -18.9310   -1.4700 C   0  0  0  0  0  0  0  0  0  0  0  0
    6.6960  -15.1760   -2.9990 C   0  0  0  0  0  0  0  0  0  0  0  0
    5.5620  -14.7110   -2.0520 C   0  0  2  0  0  0  0  0  0  0  0  0
    5.6410  -13.1900   -2.0010 C   0  0  1  0  0  0  0  0  0  0  0  0
    4.4400  -12.6180   -1.4720 O   0  0  0  0  0  0  0  0  0  0  0  0
    3.6650  -11.9260   -2.3490 C   0  0  0  0  0  0  0  0  0  0  0  0
    2.2190  -12.2210   -2.0980 C   0  0  0  0  0  0  0  0  0  0  0  0
    4.0830  -11.1760   -3.2190 O   0  0  0  0  0  0  0  0  0  0  0  0
    6.8760  -13.0380   -1.0720 C   0  0  1  0  0  0  0  0  0  0  0  0
    6.7960  -14.1870   -0.1240 O   0  0  0  0  0  0  0  0  0  0  0  0
    5.7630  -15.0930   -0.5750 C   0  0  0  0  0  0  0  0  0  0  0  0
    4.5160  -14.8720    0.3090 C   0  0  0  0  0  0  0  0  0  0  0  0
    6.1640  -16.5530   -0.3330 C   0  0  0  0  0  0  0  0  0  0  0  0
    6.9130  -11.7440   -0.1780 C   0  0  1  0  0  0  0  0  0  0  0  0
    6.7640  -10.4150   -0.9280 C   0  0  0  0  0  0  0  0  0  0  0  0
    5.7920  -11.7640    0.7370 O   0  0  0  0  0  0  0  0  0  0  0  0
    8.1860  -11.7390    0.7090 C   0  0  1  0  0  0  0  0  0  0  0  0
    8.0540  -12.7620    1.7260 O   0  0  0  0  0  0  0  0  0  0  0  0
   13.4951  -11.2328    0.6605 H   0  0  0  0  0  0  0  0  0  0  0  0
   12.4806  -11.9931   -0.6121 H   0  0  0  0  0  0  0  0  0  0  0  0
   12.7388  -10.2154   -0.6121 H   0  0  0  0  0  0  0  0  0  0  0  0
    9.5868  -11.0859   -0.7836 H   0  0  0  0  0  0  0  0  0  0  0  0
    9.3433  -14.0776   -0.2265 H   0  0  0  0  0  0  0  0  0  0  0  0
   13.1800  -16.3955   -1.4382 H   0  0  0  0  0  0  0  0  0  0  0  0
   14.4761  -17.2734   -3.3797 H   0  0  0  0  0  0  0  0  0  0  0  0
   14.3296  -16.1350   -5.5930 H   0  0  0  0  0  0  0  0  0  0  0  0
   12.8909  -14.1188   -5.8697 H   0  0  0  0  0  0  0  0  0  0  0  0
   11.5917  -13.2323   -3.9315 H   0  0  0  0  0  0  0  0  0  0  0  0
    8.6174  -11.2757   -2.6310 H   0  0  0  0  0  0  0  0  0  0  0  0
    9.2639  -12.5832   -3.6794 H   0  0  0  0  0  0  0  0  0  0  0  0
    7.5049  -12.2191   -3.6794 H   0  0  0  0  0  0  0  0  0  0  0  0
    8.6571  -14.5566   -3.5856 H   0  0  0  0  0  0  0  0  0  0  0  0
   11.5218  -17.2567   -1.0635 H   0  0  0  0  0  0  0  0  0  0  0  0
   11.9513  -19.1980    0.4431 H   0  0  0  0  0  0  0  0  0  0  0  0
   10.2148  -20.9649    0.7253 H   0  0  0  0  0  0  0  0  0  0  0  0
    8.0464  -20.7912   -0.4923 H   0  0  0  0  0  0  0  0  0  0  0  0
    7.6152  -18.8609   -2.0099 H   0  0  0  0  0  0  0  0  0  0  0  0
    6.4666  -14.8011   -4.0074 H   0  0  0  0  0  0  0  0  0  0  0  0
    6.7166  -16.2729   -2.9190 H   0  0  0  0  0  0  0  0  0  0  0  0
    4.6376  -15.1654   -2.4380 H   0  0  0  0  0  0  0  0  0  0  0  0
    5.7397  -12.6725   -2.9667 H   0  0  0  0  0  0  0  0  0  0  0  0
    2.0352  -12.2585   -1.0141 H   0  0  0  0  0  0  0  0  0  0  0  0
    1.6001  -11.4306   -2.5477 H   0  0  0  0  0  0  0  0  0  0  0  0
    1.9592  -13.1907   -2.5477 H   0  0  0  0  0  0  0  0  0  0  0  0
    4.8044  -14.9231    1.3693 H   0  0  0  0  0  0  0  0  0  0  0  0
    4.0844  -13.8834    0.0937 H   0  0  0  0  0  0  0  0  0  0  0  0
    3.7710  -15.6521    0.0937 H   0  0  0  0  0  0  0  0  0  0  0  0
    6.2165  -16.7443    0.7490 H   0  0  0  0  0  0  0  0  0  0  0  0
    5.4155  -17.2189   -0.7872 H   0  0  0  0  0  0  0  0  0  0  0  0
    7.1476  -16.7432   -0.7872 H   0  0  0  0  0  0  0  0  0  0  0  0
    6.6718   -9.5931   -0.2028 H   0  0  0  0  0  0  0  0  0  0  0  0
    7.6492  -10.2492   -1.5596 H   0  0  0  0  0  0  0  0  0  0  0  0
    5.8641  -10.4493   -1.5596 H   0  0  0  0  0  0  0  0  0  0  0  0
    5.2090  -11.0250    0.4680 H   0  0  0  0  0  0  0  0  0  0  0  0
    8.2700  -10.7463    1.1754 H   0  0  0  0  0  0  0  0  0  0  0  0
    8.9540  -13.0120    2.0230 H   0  0  0  0  0  0  0  0  0  0  0  0
  1  2  1  0
  2  3  2  0
  2  4  1  0
  4  5  1  0
  5  6  1  0
  6  7  1  0
  7  8  1  0
  8  9  2  0
  8 10  1  0
 10 11  2  0
 11 12  1  0
 12 13  2  0
 13 14  1  0
 14 15  2  0
  6 16  1  0
 16 17  1  6
 16 18  1  0
 18 19  1  0
 19 20  1  0
 20 21  2  0
 20 22  1  0
 22 23  2  0
 23 24  1  0
 24 25  2  0
 25 26  1  0
 26 27  2  0
 18 28  1  0
 28 29  1  0
 29 30  1  0
 30 31  1  0
 31 32  1  0
 32 33  1  0
 32 34  2  0
 30 35  1  0
 35 36  1  1
 36 37  1  0
 37 38  1  0
 37 39  1  0
 35 40  1  0
 40 41  1  0
 40 42  1  1
 40 43  1  0
 43 44  1  0
 43  5  1  0
 15 10  1  0
 35 16  1  0
 27 22  1  0
 37 29  1  0
  1 45  1  0
  1 46  1  0
  1 47  1  0
  5 48  1  6
  6 49  1  1
 11 50  1  0
 12 51  1  0
 13 52  1  0
 14 53  1  0
 15 54  1  0
 17 55  1  0
 17 56  1  0
 17 57  1  0
 18 58  1  6
 23 59  1  0
 24 60  1  0
 25 61  1  0
 26 62  1  0
 27 63  1  0
 28 64  1  0
 28 65  1  0
 29 66  1  6
 30 67  1  6
 33 68  1  0
 33 69  1  0
 33 70  1  0
 38 71  1  0
 38 72  1  0
 38 73  1  0
 39 74  1  0
 39 75  1  0
 39 76  1  0
 41 77  1  0
 41 78  1  0
 41 79  1  0
 42 80  1  0
 43 81  1  1
 44 82  1  0
M  END
>  <meeko>  (7) 
{"is_sidechain": [false], "free_energy": -6.745, "intermolecular_energy": -11.828, "internal_energy": -3.367}

$$$$
LIB_VUXZIMAQBPJZQB__M_PUB_ALL__e8__s20260927
     RDKit          3D

 82 86  0  0  0  0  0  0  0  0999 V2000
    6.7050  -19.6750    0.7160 C   0  0  0  0  0  0  0  0  0  0  0  0
    5.4090  -19.1950    1.2910 C   0  0  0  0  0  0  0  0  0  0  0  0
    5.0410  -19.3930    2.4410 O   0  0  0  0  0  0  0  0  0  0  0  0
    4.7120  -18.5020    0.3560 O   0  0  0  0  0  0  0  0  0  0  0  0
    3.6820  -17.6170    0.8540 C   0  0  1  0  0  0  0  0  0  0  0  0
    3.9250  -16.2100    0.2640 C   0  0  2  0  0  0  0  0  0  0  0  0
    5.2060  -15.7140    0.7360 O   0  0  0  0  0  0  0  0  0  0  0  0
    6.2060  -15.6180   -0.1760 C   0  0  0  0  0  0  0  0  0  0  0  0
    6.4460  -16.4140   -1.0690 O   0  0  0  0  0  0  0  0  0  0  0  0
    6.9770  -14.3640    0.0280 C   0  0  0  0  0  0  0  0  0  0  0  0
    6.6760  -13.5820    1.1530 C   0  0  0  0  0  0  0  0  0  0  0  0
    7.3740  -12.3970    1.3940 C   0  0  0  0  0  0  0  0  0  0  0  0
    8.3740  -11.9870    0.5130 C   0  0  0  0  0  0  0  0  0  0  0  0
    8.6780  -12.7580   -0.6080 C   0  0  0  0  0  0  0  0  0  0  0  0
    7.9820  -13.9450   -0.8530 C   0  0  0  0  0  0  0  0  0  0  0  0
    2.8160  -15.1760    0.6740 C   0  0  1  0  0  0  0  0  0  0  0  0
    2.9690  -14.8400    2.1900 C   0  0  0  0  0  0  0  0  0  0  0  0
    3.0450  -13.7950   -0.0680 C   0  0  1  0  0  0  0  0  0  0  0  0
    3.7740  -13.9920   -1.2990 O   0  0  0  0  0  0  0  0  0  0  0  0
    4.3700  -12.8930   -1.8340 C   0  0  0  0  0  0  0  0  0  0  0  0
    4.7910  -11.9350   -1.2030 O   0  0  0  0  0  0  0  0  0  0  0  0
    4.4360  -12.9860   -3.3180 C   0  0  0  0  0  0  0  0  0  0  0  0
    4.0710  -11.8570   -4.0660 C   0  0  0  0  0  0  0  0  0  0  0  0
    4.1150  -11.8920   -5.4610 C   0  0  0  0  0  0  0  0  0  0  0  0
    4.5260  -13.0520   -6.1160 C   0  0  0  0  0  0  0  0  0  0  0  0
    4.8940  -14.1770   -5.3790 C   0  0  0  0  0  0  0  0  0  0  0  0
    4.8470  -14.1470   -3.9840 C   0  0  0  0  0  0  0  0  0  0  0  0
    1.7490  -12.9890   -0.3590 C   0  0  0  0  0  0  0  0  0  0  0  0
    0.4700  -13.8250   -0.6080 C   0  0  2  0  0  0  0  0  0  0  0  0
    0.2960  -14.7200    0.6130 C   0  0  1  0  0  0  0  0  0  0  0  0
   -1.0270  -15.2620    0.6850 O   0  0  0  0  0  0  0  0  0  0  0  0
   -1.9600  -14.4970    1.3120 C   0  0  0  0  0  0  0  0  0  0  0  0
   -3.2020  -14.4190    0.4800 C   0  0  0  0  0  0  0  0  0  0  0  0
   -1.8090  -13.9470    2.3930 O   0  0  0  0  0  0  0  0  0  0  0  0
    1.3950  -15.7740    0.3050 C   0  0  1  0  0  0  0  0  0  0  0  0
    1.4110  -15.8990   -1.1800 O   0  0  0  0  0  0  0  0  0  0  0  0
    0.5860  -14.8540   -1.7470 C   0  0  0  0  0  0  0  0  0  0  0  0
   -0.7590  -15.4840   -2.1680 C   0  0  0  0  0  0  0  0  0  0  0  0
    1.1930  -14.3140   -3.0460 C   0  0  0  0  0  0  0  0  0  0  0  0
    1.1350  -17.2240    0.8570 C   0  0  1  0  0  0  0  0  0  0  0  0
    0.8460  -17.3200    2.3600 C   0  0  0  0  0  0  0  0  0  0  0  0
   -0.0510  -17.7680    0.2300 O   0  0  0  0  0  0  0  0  0  0  0  0
    2.2990  -18.1670    0.4560 C   0  0  1  0  0  0  0  0  0  0  0  0
    2.2370  -18.4100   -0.9700 O   0  0  0  0  0  0  0  0  0  0  0  0
    7.3960  -19.9309    1.5327 H   0  0  0  0  0  0  0  0  0  0  0  0
    6.5237  -20.5656    0.0964 H   0  0  0  0  0  0  0  0  0  0  0  0
    7.1476  -18.8812    0.0964 H   0  0  0  0  0  0  0  0  0  0  0  0
    3.7135  -17.5522    1.9516 H   0  0  0  0  0  0  0  0  0  0  0  0
    3.9040  -16.3108   -0.8312 H   0  0  0  0  0  0  0  0  0  0  0  0
    5.8867  -13.9037    1.8483 H   0  0  0  0  0  0  0  0  0  0  0  0
    7.1352  -11.7875    2.2780 H   0  0  0  0  0  0  0  0  0  0  0  0
    8.9240  -11.0535    0.7029 H   0  0  0  0  0  0  0  0  0  0  0  0
    9.4673  -12.4315   -1.3011 H   0  0  0  0  0  0  0  0  0  0  0  0
    8.2238  -14.5508   -1.7387 H   0  0  0  0  0  0  0  0  0  0  0  0
    2.5874  -15.6781    2.7916 H   0  0  0  0  0  0  0  0  0  0  0  0
    4.0311  -14.6747    2.4236 H   0  0  0  0  0  0  0  0  0  0  0  0
    2.3964  -13.9303    2.4236 H   0  0  0  0  0  0  0  0  0  0  0  0
    3.6313  -13.1896    0.6389 H   0  0  0  0  0  0  0  0  0  0  0  0
    3.7486  -10.9399   -3.5512 H   0  0  0  0  0  0  0  0  0  0  0  0
    3.8255  -11.0047   -6.0431 H   0  0  0  0  0  0  0  0  0  0  0  0
    4.5600  -13.0798   -7.2151 H   0  0  0  0  0  0  0  0  0  0  0  0
    5.2220  -15.0899   -5.8977 H   0  0  0  0  0  0  0  0  0  0  0  0
    5.1337  -15.0382   -3.4064 H   0  0  0  0  0  0  0  0  0  0  0  0
    1.5597  -12.3336    0.5039 H   0  0  0  0  0  0  0  0  0  0  0  0
    1.9394  -12.4519   -1.2999 H   0  0  0  0  0  0  0  0  0  0  0  0
   -0.3267  -13.1007   -0.8328 H   0  0  0  0  0  0  0  0  0  0  0  0
    0.4021  -14.2344    1.5943 H   0  0  0  0  0  0  0  0  0  0  0  0
   -4.0815  -14.3638    1.1384 H   0  0  0  0  0  0  0  0  0  0  0  0
   -3.1623  -13.5216   -0.1549 H   0  0  0  0  0  0  0  0  0  0  0  0
   -3.2749  -15.3143   -0.1549 H   0  0  0  0  0  0  0  0  0  0  0  0
   -1.3346  -15.7536   -1.2702 H   0  0  0  0  0  0  0  0  0  0  0  0
   -1.3314  -14.7603   -2.7669 H   0  0  0  0  0  0  0  0  0  0  0  0
   -0.5694  -16.3870   -2.7669 H   0  0  0  0  0  0  0  0  0  0  0  0
    1.9952  -13.6003   -2.8069 H   0  0  0  0  0  0  0  0  0  0  0  0
    1.6068  -15.1480   -3.6318 H   0  0  0  0  0  0  0  0  0  0  0  0
    0.4128  -13.8059   -3.6318 H   0  0  0  0  0  0  0  0  0  0  0  0
    1.7415  -17.0225    2.9253 H   0  0  0  0  0  0  0  0  0  0  0  0
    0.0115  -16.6508    2.6164 H   0  0  0  0  0  0  0  0  0  0  0  0
    0.5777  -18.3555    2.6164 H   0  0  0  0  0  0  0  0  0  0  0  0
   -0.4460  -17.0340   -0.2830 H   0  0  0  0  0  0  0  0  0  0  0  0
    2.1757  -19.1097    1.0093 H   0  0  0  0  0  0  0  0  0  0  0  0
    2.8060  -17.7480   -1.4160 H   0  0  0  0  0  0  0  0  0  0  0  0
  1  2  1  0
  2  3  2  0
  2  4  1  0
  4  5  1  0
  5  6  1  0
  6  7  1  0
  7  8  1  0
  8  9  2  0
  8 10  1  0
 10 11  2  0
 11 12  1  0
 12 13  2  0
 13 14  1  0
 14 15  2  0
  6 16  1  0
 16 17  1  1
 16 18  1  0
 18 19  1  0
 19 20  1  0
 20 21  2  0
 20 22  1  0
 22 23  2  0
 23 24  1  0
 24 25  2  0
 25 26  1  0
 26 27  2  0
 18 28  1  0
 28 29  1  0
 29 30  1  0
 30 31  1  0
 31 32  1  0
 32 33  1  0
 32 34  2  0
 30 35  1  0
 35 36  1  6
 36 37  1  0
 37 38  1  0
 37 39  1  0
 35 40  1  0
 40 41  1  0
 40 42  1  6
 40 43  1  0
 43 44  1  0
 43  5  1  0
 15 10  1  0
 35 16  1  0
 27 22  1  0
 37 29  1  0
  1 45  1  0
  1 46  1  0
  1 47  1  0
  5 48  1  1
  6 49  1  6
 11 50  1  0
 12 51  1  0
 13 52  1  0
 14 53  1  0
 15 54  1  0
 17 55  1  0
 17 56  1  0
 17 57  1  0
 18 58  1  1
 23 59  1  0
 24 60  1  0
 25 61  1  0
 26 62  1  0
 27 63  1  0
 28 64  1  0
 28 65  1  0
 29 66  1  6
 30 67  1  1
 33 68  1  0
 33 69  1  0
 33 70  1  0
 38 71  1  0
 38 72  1  0
 38 73  1  0
 39 74  1  0
 39 75  1  0
 39 76  1  0
 41 77  1  0
 41 78  1  0
 41 79  1  0
 42 80  1  0
 43 81  1  1
 44 82  1  0
M  END
>  <meeko>  (8) 
{"is_sidechain": [false], "free_energy": -6.593, "intermolecular_energy": -11.551, "internal_energy": -3.395}

$$$$
LIB_VUXZIMAQBPJZQB__M_PUB_ALL__e8__s20260927
     RDKit          3D

 82 86  0  0  0  0  0  0  0  0999 V2000
    0.3730  -15.7800    6.0940 C   0  0  0  0  0  0  0  0  0  0  0  0
    1.3150  -16.2690    5.0380 C   0  0  0  0  0  0  0  0  0  0  0  0
    1.8450  -17.3700    5.0330 O   0  0  0  0  0  0  0  0  0  0  0  0
    1.4830  -15.3160    4.0860 O   0  0  0  0  0  0  0  0  0  0  0  0
    1.8710  -15.7880    2.7740 C   0  0  1  0  0  0  0  0  0  0  0  0
    0.7810  -15.3620    1.7650 C   0  0  2  0  0  0  0  0  0  0  0  0
   -0.4690  -16.0100    2.1190 O   0  0  0  0  0  0  0  0  0  0  0  0
   -1.3470  -15.2920    2.8650 C   0  0  0  0  0  0  0  0  0  0  0  0
   -1.2890  -14.0950    3.0920 O   0  0  0  0  0  0  0  0  0  0  0  0
   -2.4450  -16.1640    3.3580 C   0  0  0  0  0  0  0  0  0  0  0  0
   -2.3120  -17.5500    3.1880 C   0  0  0  0  0  0  0  0  0  0  0  0
   -3.3120  -18.4130    3.6370 C   0  0  0  0  0  0  0  0  0  0  0  0
   -4.4500  -17.8980    4.2560 C   0  0  0  0  0  0  0  0  0  0  0  0
   -4.5910  -16.5210    4.4270 C   0  0  0  0  0  0  0  0  0  0  0  0
   -3.5910  -15.6530    3.9800 C   0  0  0  0  0  0  0  0  0  0  0  0
    1.1350  -15.7530    0.2850 C   0  0  1  0  0  0  0  0  0  0  0  0
    1.0290  -17.3010    0.1280 C   0  0  0  0  0  0  0  0  0  0  0  0
    0.0510  -15.1730   -0.7140 C   0  0  1  0  0  0  0  0  0  0  0  0
   -0.5940  -14.0110   -0.1490 O   0  0  0  0  0  0  0  0  0  0  0  0
   -1.9490  -13.9550   -0.2600 C   0  0  0  0  0  0  0  0  0  0  0  0
   -2.6840  -14.9070   -0.4720 O   0  0  0  0  0  0  0  0  0  0  0  0
   -2.4420  -12.5590   -0.1090 C   0  0  0  0  0  0  0  0  0  0  0  0
   -3.7160  -12.2530   -0.6100 C   0  0  0  0  0  0  0  0  0  0  0  0
   -4.2260  -10.9580   -0.4920 C   0  0  0  0  0  0  0  0  0  0  0  0
   -3.4700   -9.9650    0.1270 C   0  0  0  0  0  0  0  0  0  0  0  0
   -2.2040  -10.2630    0.6310 C   0  0  0  0  0  0  0  0  0  0  0  0
   -1.6900  -11.5550    0.5130 C   0  0  0  0  0  0  0  0  0  0  0  0
    0.5890  -14.8280   -2.1300 C   0  0  0  0  0  0  0  0  0  0  0  0
    2.0650  -14.3690   -2.2040 C   0  0  2  0  0  0  0  0  0  0  0  0
    2.8920  -15.4750   -1.5590 C   0  0  1  0  0  0  0  0  0  0  0  0
    4.2800  -15.3580   -1.8910 O   0  0  0  0  0  0  0  0  0  0  0  0
    4.7710  -16.2750   -2.7660 C   0  0  0  0  0  0  0  0  0  0  0  0
    5.1600  -15.6060   -4.0470 C   0  0  0  0  0  0  0  0  0  0  0  0
    4.8750  -17.4730   -2.5460 O   0  0  0  0  0  0  0  0  0  0  0  0
    2.5730  -15.1840   -0.0670 C   0  0  1  0  0  0  0  0  0  0  0  0
    2.4250  -13.7020    0.0190 O   0  0  0  0  0  0  0  0  0  0  0  0
    2.4070  -13.1560   -1.3210 C   0  0  0  0  0  0  0  0  0  0  0  0
    3.7940  -12.5400   -1.6030 C   0  0  0  0  0  0  0  0  0  0  0  0
    1.4250  -11.9830   -1.4260 C   0  0  0  0  0  0  0  0  0  0  0  0
    3.6950  -15.5650    0.9670 C   0  0  1  0  0  0  0  0  0  0  0  0
    4.1930  -17.0130    0.9020 C   0  0  0  0  0  0  0  0  0  0  0  0
    4.8760  -14.7700    0.7050 O   0  0  0  0  0  0  0  0  0  0  0  0
    3.2460  -15.1980    2.4060 C   0  0  1  0  0  0  0  0  0  0  0  0
    3.2370  -13.7570    2.5430 O   0  0  0  0  0  0  0  0  0  0  0  0
    0.7915  -15.9973    7.0878 H   0  0  0  0  0  0  0  0  0  0  0  0
    0.2315  -14.6946    5.9850 H   0  0  0  0  0  0  0  0  0  0  0  0
   -0.5961  -16.2889    5.9850 H   0  0  0  0  0  0  0  0  0  0  0  0
    1.9613  -16.8842    2.7576 H   0  0  0  0  0  0  0  0  0  0  0  0
    0.7023  -14.2660    1.8160 H   0  0  0  0  0  0  0  0  0  0  0  0
   -1.4154  -17.9582    2.6986 H   0  0  0  0  0  0  0  0  0  0  0  0
   -3.2026  -19.4993    3.5027 H   0  0  0  0  0  0  0  0  0  0  0  0
   -5.2381  -18.5788    4.6102 H   0  0  0  0  0  0  0  0  0  0  0  0
   -5.4907  -16.1175    4.9145 H   0  0  0  0  0  0  0  0  0  0  0  0
   -3.7042  -14.5674    4.1169 H   0  0  0  0  0  0  0  0  0  0  0  0
    0.9969  -17.7691    1.1229 H   0  0  0  0  0  0  0  0  0  0  0  0
    0.1116  -17.5515   -0.4248 H   0  0  0  0  0  0  0  0  0  0  0  0
    1.9037  -17.6742   -0.4248 H   0  0  0  0  0  0  0  0  0  0  0  0
   -0.6719  -15.9908   -0.8507 H   0  0  0  0  0  0  0  0  0  0  0  0
   -4.3156  -13.0358   -1.0976 H   0  0  0  0  0  0  0  0  0  0  0  0
   -5.2248  -10.7222   -0.8879 H   0  0  0  0  0  0  0  0  0  0  0  0
   -3.8718   -8.9451    0.2184 H   0  0  0  0  0  0  0  0  0  0  0  0
   -1.6098   -9.4784    1.1222 H   0  0  0  0  0  0  0  0  0  0  0  0
   -0.6904  -11.7855    0.9101 H   0  0  0  0  0  0  0  0  0  0  0  0
    0.4843  -15.7255   -2.7573 H   0  0  0  0  0  0  0  0  0  0  0  0
   -0.0056  -13.9675   -2.4705 H   0  0  0  0  0  0  0  0  0  0  0  0
    2.2562  -14.1323   -3.2611 H   0  0  0  0  0  0  0  0  0  0  0  0
    2.6631  -16.5035   -1.8749 H   0  0  0  0  0  0  0  0  0  0  0  0
    5.7015  -14.6747   -3.8246 H   0  0  0  0  0  0  0  0  0  0  0  0
    5.8086  -16.2773   -4.6290 H   0  0  0  0  0  0  0  0  0  0  0  0
    4.2558  -15.3743   -4.6290 H   0  0  0  0  0  0  0  0  0  0  0  0
    4.2966  -12.3168   -0.6503 H   0  0  0  0  0  0  0  0  0  0  0  0
    4.4014  -13.2530   -2.1798 H   0  0  0  0  0  0  0  0  0  0  0  0
    3.6723  -11.6113   -2.1798 H   0  0  0  0  0  0  0  0  0  0  0  0
    1.1446  -11.6481   -0.4165 H   0  0  0  0  0  0  0  0  0  0  0  0
    1.9016  -11.1532   -1.9684 H   0  0  0  0  0  0  0  0  0  0  0  0
    0.5243  -12.3063   -1.9684 H   0  0  0  0  0  0  0  0  0  0  0  0
    4.3264  -17.4010    1.9226 H   0  0  0  0  0  0  0  0  0  0  0  0
    3.4557  -17.6307    0.3684 H   0  0  0  0  0  0  0  0  0  0  0  0
    5.1543  -17.0465    0.3684 H   0  0  0  0  0  0  0  0  0  0  0  0
    5.3960  -14.7770    1.5330 H   0  0  0  0  0  0  0  0  0  0  0  0
    3.9663  -15.6426    3.1084 H   0  0  0  0  0  0  0  0  0  0  0  0
    2.8440  -13.5360    3.4130 H   0  0  0  0  0  0  0  0  0  0  0  0
  1  2  1  0
  2  3  2  0
  2  4  1  0
  4  5  1  0
  5  6  1  0
  6  7  1  0
  7  8  1  0
  8  9  2  0
  8 10  1  0
 10 11  2  0
 11 12  1  0
 12 13  2  0
 13 14  1  0
 14 15  2  0
  6 16  1  0
 16 17  1  1
 16 18  1  0
 18 19  1  0
 19 20  1  0
 20 21  2  0
 20 22  1  0
 22 23  2  0
 23 24  1  0
 24 25  2  0
 25 26  1  0
 26 27  2  0
 18 28  1  0
 28 29  1  0
 29 30  1  0
 30 31  1  0
 31 32  1  0
 32 33  1  0
 32 34  2  0
 30 35  1  0
 35 36  1  6
 36 37  1  0
 37 38  1  0
 37 39  1  0
 35 40  1  0
 40 41  1  0
 40 42  1  6
 40 43  1  0
 43 44  1  0
 43  5  1  0
 15 10  1  0
 35 16  1  0
 27 22  1  0
 37 29  1  0
  1 45  1  0
  1 46  1  0
  1 47  1  0
  5 48  1  1
  6 49  1  6
 11 50  1  0
 12 51  1  0
 13 52  1  0
 14 53  1  0
 15 54  1  0
 17 55  1  0
 17 56  1  0
 17 57  1  0
 18 58  1  6
 23 59  1  0
 24 60  1  0
 25 61  1  0
 26 62  1  0
 27 63  1  0
 28 64  1  0
 28 65  1  0
 29 66  1  6
 30 67  1  6
 33 68  1  0
 33 69  1  0
 33 70  1  0
 38 71  1  0
 38 72  1  0
 38 73  1  0
 39 74  1  0
 39 75  1  0
 39 76  1  0
 41 77  1  0
 41 78  1  0
 41 79  1  0
 42 80  1  0
 43 81  1  1
 44 82  1  0
M  END
>  <meeko>  (9) 
{"is_sidechain": [false], "free_energy": -6.501, "intermolecular_energy": -11.813, "internal_energy": -2.982}

$$$$
