LIB_YVCVALMTTAHIAN__M_PUB_ALL__e8__s20260927
     RDKit          3D

 57 61  0  0  0  0  0  0  0  0999 V2000
    3.8390  -13.3210   -5.9120 O   0  0  0  0  0  0  0  0  0  0  0  0
    4.8230  -12.7380   -5.4800 C   0  0  0  0  0  0  0  0  0  0  0  0
    4.8090  -11.8120   -4.4460 N   0  0  0  0  0  0  0  0  0  0  0  0
    3.7190  -11.4680   -3.6170 C   0  0  0  0  0  0  0  0  0  0  0  0
    2.9850  -10.3280   -3.9660 C   0  0  0  0  0  0  0  0  0  0  0  0
    1.8970   -9.9210   -3.1940 C   0  0  0  0  0  0  0  0  0  0  0  0
    1.5330  -10.6520   -2.0640 C   0  0  0  0  0  0  0  0  0  0  0  0
    2.2480  -11.7990   -1.6910 C   0  0  0  0  0  0  0  0  0  0  0  0
    1.8480  -12.5490   -0.4750 C   0  0  0  0  0  0  0  0  0  0  0  0
    2.4670  -13.7080   -0.1630 C   0  0  0  0  0  0  0  0  0  0  0  0
    2.0630  -14.3840    0.9670 N   0  0  0  0  0  0  0  0  0  0  0  0
    2.4800  -15.5510    1.5440 C   0  0  0  0  0  0  0  0  0  0  0  0
    1.6840  -15.7020    2.6620 C   0  0  0  0  0  0  0  0  0  0  0  0
    0.7920  -14.6640    2.7840 N   0  0  0  0  0  0  0  0  0  0  0  0
    1.0530  -13.8940    1.7470 C   0  0  0  0  0  0  0  0  0  0  0  0
    0.4060  -12.6500    1.3690 C   0  0  0  0  0  0  0  0  0  0  0  0
   -0.6130  -12.1380    2.1330 N   0  0  0  0  0  0  0  0  0  0  0  0
   -1.2930  -10.9050    1.8520 C   0  0  0  0  0  0  0  0  0  0  0  0
   -2.5670  -11.1910    1.1020 C   0  0  0  0  0  0  0  0  0  0  0  0
   -2.9360  -10.4170   -0.0010 C   0  0  0  0  0  0  0  0  0  0  0  0
   -4.1060  -10.7350   -0.6740 C   0  0  0  0  0  0  0  0  0  0  0  0
   -4.9150  -11.7600   -0.3310 N   0  0  0  0  0  0  0  0  0  0  0  0
   -4.5340  -12.5060    0.7270 C   0  0  0  0  0  0  0  0  0  0  0  0
   -3.3830  -12.2680    1.4640 C   0  0  0  0  0  0  0  0  0  0  0  0
    0.8070  -12.0210    0.2870 N   0  0  0  0  0  0  0  0  0  0  0  0
    3.3530  -12.1850   -2.4730 C   0  0  0  0  0  0  0  0  0  0  0  0
    6.1160  -12.9030   -5.9610 N   0  0  0  0  0  0  0  0  0  0  0  0
    6.5310  -13.6710   -7.0680 C   0  0  0  0  0  0  0  0  0  0  0  0
    6.9130  -14.9920   -6.8170 C   0  0  0  0  0  0  0  0  0  0  0  0
    7.3420  -15.8180   -7.8590 C   0  0  0  0  0  0  0  0  0  0  0  0
    7.3980  -15.3320   -9.1670 C   0  0  0  0  0  0  0  0  0  0  0  0
    7.9380  -16.4160  -10.3970 Cl  0  0  0  0  0  0  0  0  0  0  0  0
    7.0270  -14.0130   -9.4450 C   0  0  0  0  0  0  0  0  0  0  0  0
    7.0820  -13.4600  -10.8440 C   0  0  0  0  0  0  0  0  0  0  0  0
    6.2310  -14.0840  -11.7080 F   0  0  0  0  0  0  0  0  0  0  0  0
    8.3150  -13.5710  -11.4110 F   0  0  0  0  0  0  0  0  0  0  0  0
    6.7480  -12.1420  -10.9060 F   0  0  0  0  0  0  0  0  0  0  0  0
    6.5950  -13.1910   -8.3800 C   0  0  0  0  0  0  0  0  0  0  0  0
    5.6450  -11.2640   -4.3190 H   0  0  0  0  0  0  0  0  0  0  0  0
    3.2688   -9.7483   -4.8567 H   0  0  0  0  0  0  0  0  0  0  0  0
    1.3265   -9.0239   -3.4765 H   0  0  0  0  0  0  0  0  0  0  0  0
    0.6750  -10.3252   -1.4581 H   0  0  0  0  0  0  0  0  0  0  0  0
    3.2749  -14.1029   -0.7965 H   0  0  0  0  0  0  0  0  0  0  0  0
    3.2767  -16.2237    1.1937 H   0  0  0  0  0  0  0  0  0  0  0  0
    1.7548  -16.5452    3.3649 H   0  0  0  0  0  0  0  0  0  0  0  0
   -0.8740  -12.6660    2.9600 H   0  0  0  0  0  0  0  0  0  0  0  0
   -1.5310  -10.3945    2.7968 H   0  0  0  0  0  0  0  0  0  0  0  0
   -0.6447  -10.2614    1.2392 H   0  0  0  0  0  0  0  0  0  0  0  0
   -2.3114   -9.5729   -0.3288 H   0  0  0  0  0  0  0  0  0  0  0  0
   -4.3915  -10.1162   -1.5375 H   0  0  0  0  0  0  0  0  0  0  0  0
   -5.1728  -13.3515    1.0220 H   0  0  0  0  0  0  0  0  0  0  0  0
   -3.1177  -12.9125    2.3150 H   0  0  0  0  0  0  0  0  0  0  0  0
    3.9400  -13.0675   -2.1788 H   0  0  0  0  0  0  0  0  0  0  0  0
    6.8480  -12.4770   -5.4170 H   0  0  0  0  0  0  0  0  0  0  0  0
    6.8755  -15.3846   -5.7901 H   0  0  0  0  0  0  0  0  0  0  0  0
    7.6372  -16.8564   -7.6480 H   0  0  0  0  0  0  0  0  0  0  0  0
    6.3027  -12.1510   -8.5873 H   0  0  0  0  0  0  0  0  0  0  0  0
  1  2  2  0
  2  3  1  0
  3  4  1  0
  4  5  2  0
  5  6  1  0
  6  7  2  0
  7  8  1  0
  8  9  1  0
  9 10  2  0
 10 11  1  0
 11 12  1  0
 12 13  2  0
 13 14  1  0
 14 15  2  0
 15 16  1  0
 16 17  1  0
 17 18  1  0
 18 19  1  0
 19 20  2  0
 20 21  1  0
 21 22  2  0
 22 23  1  0
 23 24  2  0
 16 25  2  0
  8 26  2  0
  2 27  1  0
 27 28  1  0
 28 29  2  0
 29 30  1  0
 30 31  2  0
 31 32  1  0
 31 33  1  0
 33 34  1  0
 34 35  1  0
 34 36  1  0
 34 37  1  0
 33 38  2  0
 26  4  1  0
 38 28  1  0
 25  9  1  0
 15 11  1  0
 24 19  1  0
  3 39  1  0
  5 40  1  0
  6 41  1  0
  7 42  1  0
 10 43  1  0
 12 44  1  0
 13 45  1  0
 17 46  1  0
 18 47  1  0
 18 48  1  0
 20 49  1  0
 21 50  1  0
 23 51  1  0
 24 52  1  0
 26 53  1  0
 27 54  1  0
 29 55  1  0
 30 56  1  0
 38 57  1  0
M  END
>  <meeko>  (1) 
{"is_sidechain": [false], "free_energy": -9.696, "intermolecular_energy": -13.096, "internal_energy": -1.273}

$$$$
LIB_YVCVALMTTAHIAN__M_PUB_ALL__e8__s20260927
     RDKit          3D

 57 61  0  0  0  0  0  0  0  0999 V2000
    6.8600  -10.7310   -2.0060 O   0  0  0  0  0  0  0  0  0  0  0  0
    6.6870  -11.9410   -2.0480 C   0  0  0  0  0  0  0  0  0  0  0  0
    5.4490  -12.5690   -2.0160 N   0  0  0  0  0  0  0  0  0  0  0  0
    4.1760  -11.9600   -2.0680 C   0  0  0  0  0  0  0  0  0  0  0  0
    3.8220  -11.3200   -3.2610 C   0  0  0  0  0  0  0  0  0  0  0  0
    2.5840  -10.6900   -3.3880 C   0  0  0  0  0  0  0  0  0  0  0  0
    1.6870  -10.6970   -2.3210 C   0  0  0  0  0  0  0  0  0  0  0  0
    2.0130  -11.3330   -1.1150 C   0  0  0  0  0  0  0  0  0  0  0  0
    1.0450  -11.3120    0.0100 C   0  0  0  0  0  0  0  0  0  0  0  0
    0.2350  -10.2450    0.1830 C   0  0  0  0  0  0  0  0  0  0  0  0
   -0.6430  -10.2540    1.2440 N   0  0  0  0  0  0  0  0  0  0  0  0
   -1.5750   -9.3520    1.6790 C   0  0  0  0  0  0  0  0  0  0  0  0
   -2.1370   -9.9320    2.7980 C   0  0  0  0  0  0  0  0  0  0  0  0
   -1.5770  -11.1590    3.0610 N   0  0  0  0  0  0  0  0  0  0  0  0
   -0.6850  -11.3140    2.1040 C   0  0  0  0  0  0  0  0  0  0  0  0
    0.2110  -12.4360    1.8890 C   0  0  0  0  0  0  0  0  0  0  0  0
    0.1920  -13.5130    2.7400 N   0  0  0  0  0  0  0  0  0  0  0  0
    1.0230  -14.6750    2.5930 C   0  0  0  0  0  0  0  0  0  0  0  0
    1.0520  -15.4430    3.8880 C   0  0  0  0  0  0  0  0  0  0  0  0
    1.4840  -16.7720    3.9210 C   0  0  0  0  0  0  0  0  0  0  0  0
    1.5170  -17.4290    5.1410 C   0  0  0  0  0  0  0  0  0  0  0  0
    1.1610  -16.8570    6.3110 N   0  0  0  0  0  0  0  0  0  0  0  0
    0.7620  -15.5690    6.2620 C   0  0  0  0  0  0  0  0  0  0  0  0
    0.6950  -14.8280    5.0920 C   0  0  0  0  0  0  0  0  0  0  0  0
    1.0420  -12.4080    0.8710 N   0  0  0  0  0  0  0  0  0  0  0  0
    3.2740  -11.9480   -0.9990 C   0  0  0  0  0  0  0  0  0  0  0  0
    7.7030  -12.8840   -2.1270 N   0  0  0  0  0  0  0  0  0  0  0  0
    9.0940  -12.6590   -2.0770 C   0  0  0  0  0  0  0  0  0  0  0  0
    9.7610  -12.5260   -3.2980 C   0  0  0  0  0  0  0  0  0  0  0  0
   11.1400  -12.3050   -3.3340 C   0  0  0  0  0  0  0  0  0  0  0  0
   11.8710  -12.2160   -2.1480 C   0  0  0  0  0  0  0  0  0  0  0  0
   13.5700  -11.9410   -2.2800 Cl  0  0  0  0  0  0  0  0  0  0  0  0
   11.2300  -12.3510   -0.9130 C   0  0  0  0  0  0  0  0  0  0  0  0
   11.9940  -12.2650    0.3810 C   0  0  0  0  0  0  0  0  0  0  0  0
   12.7360  -11.1270    0.4990 F   0  0  0  0  0  0  0  0  0  0  0  0
   12.8770  -13.2880    0.5450 F   0  0  0  0  0  0  0  0  0  0  0  0
   11.1840  -12.2780    1.4760 F   0  0  0  0  0  0  0  0  0  0  0  0
    9.8350  -12.5740   -0.8940 C   0  0  0  0  0  0  0  0  0  0  0  0
    5.4510  -13.5650   -1.8600 H   0  0  0  0  0  0  0  0  0  0  0  0
    4.5262  -11.3137   -4.1060 H   0  0  0  0  0  0  0  0  0  0  0  0
    2.3158  -10.1881   -4.3293 H   0  0  0  0  0  0  0  0  0  0  0  0
    0.7124  -10.1979   -2.4265 H   0  0  0  0  0  0  0  0  0  0  0  0
    0.2757   -9.3893   -0.5071 H   0  0  0  0  0  0  0  0  0  0  0  0
   -1.8225   -8.3770    1.2339 H   0  0  0  0  0  0  0  0  0  0  0  0
   -2.9320   -9.4709    3.4024 H   0  0  0  0  0  0  0  0  0  0  0  0
   -0.4750  -13.4790    3.5050 H   0  0  0  0  0  0  0  0  0  0  0  0
    0.6180  -15.3162    1.7962 H   0  0  0  0  0  0  0  0  0  0  0  0
    2.0446  -14.3625    2.3309 H   0  0  0  0  0  0  0  0  0  0  0  0
    1.7913  -17.2856    2.9981 H   0  0  0  0  0  0  0  0  0  0  0  0
    1.8525  -18.4765    5.1569 H   0  0  0  0  0  0  0  0  0  0  0  0
    0.4735  -15.0790    7.2037 H   0  0  0  0  0  0  0  0  0  0  0  0
    0.3678  -13.7780    5.1105 H   0  0  0  0  0  0  0  0  0  0  0  0
    3.5552  -12.4280   -0.0501 H   0  0  0  0  0  0  0  0  0  0  0  0
    7.4150  -13.8330   -2.3060 H   0  0  0  0  0  0  0  0  0  0  0  0
    9.1953  -12.5959   -4.2388 H   0  0  0  0  0  0  0  0  0  0  0  0
   11.6524  -12.2006   -4.3018 H   0  0  0  0  0  0  0  0  0  0  0  0
    9.3206  -12.6831    0.0722 H   0  0  0  0  0  0  0  0  0  0  0  0
  1  2  2  0
  2  3  1  0
  3  4  1  0
  4  5  2  0
  5  6  1  0
  6  7  2  0
  7  8  1  0
  8  9  1  0
  9 10  2  0
 10 11  1  0
 11 12  1  0
 12 13  2  0
 13 14  1  0
 14 15  2  0
 15 16  1  0
 16 17  1  0
 17 18  1  0
 18 19  1  0
 19 20  2  0
 20 21  1  0
 21 22  2  0
 22 23  1  0
 23 24  2  0
 16 25  2  0
  8 26  2  0
  2 27  1  0
 27 28  1  0
 28 29  2  0
 29 30  1  0
 30 31  2  0
 31 32  1  0
 31 33  1  0
 33 34  1  0
 34 35  1  0
 34 36  1  0
 34 37  1  0
 33 38  2  0
 26  4  1  0
 38 28  1  0
 25  9  1  0
 15 11  1  0
 24 19  1  0
  3 39  1  0
  5 40  1  0
  6 41  1  0
  7 42  1  0
 10 43  1  0
 12 44  1  0
 13 45  1  0
 17 46  1  0
 18 47  1  0
 18 48  1  0
 20 49  1  0
 21 50  1  0
 23 51  1  0
 24 52  1  0
 26 53  1  0
 27 54  1  0
 29 55  1  0
 30 56  1  0
 38 57  1  0
M  END
>  <meeko>  (2) 
{"is_sidechain": [false], "free_energy": -9.428, "intermolecular_energy": -12.985, "internal_energy": -1.024}

$$$$
LIB_YVCVALMTTAHIAN__M_PUB_ALL__e8__s20260927
     RDKit          3D

 57 61  0  0  0  0  0  0  0  0999 V2000
    3.8610  -13.5660   -5.7470 O   0  0  0  0  0  0  0  0  0  0  0  0
    4.7590  -12.7810   -5.4780 C   0  0  0  0  0  0  0  0  0  0  0  0
    4.6760  -11.7740   -4.5260 N   0  0  0  0  0  0  0  0  0  0  0  0
    3.6270  -11.5430   -3.6090 C   0  0  0  0  0  0  0  0  0  0  0  0
    2.9030  -10.3540   -3.7520 C   0  0  0  0  0  0  0  0  0  0  0  0
    1.8560  -10.0520   -2.8810 C   0  0  0  0  0  0  0  0  0  0  0  0
    1.5230  -10.9400   -1.8590 C   0  0  0  0  0  0  0  0  0  0  0  0
    2.2280  -12.1400   -1.6940 C   0  0  0  0  0  0  0  0  0  0  0  0
    1.8620  -13.0600   -0.5880 C   0  0  0  0  0  0  0  0  0  0  0  0
    2.7830  -13.9090   -0.0840 C   0  0  0  0  0  0  0  0  0  0  0  0
    2.4050  -14.7560    0.9340 N   0  0  0  0  0  0  0  0  0  0  0  0
    3.0850  -15.7070    1.6450 C   0  0  0  0  0  0  0  0  0  0  0  0
    2.1600  -16.2200    2.5310 C   0  0  0  0  0  0  0  0  0  0  0  0
    0.9350  -15.6130    2.3830 N   0  0  0  0  0  0  0  0  0  0  0  0
    1.1260  -14.7410    1.4140 C   0  0  0  0  0  0  0  0  0  0  0  0
    0.1640  -13.8200    0.8370 C   0  0  0  0  0  0  0  0  0  0  0  0
   -1.1280  -13.7850    1.2980 N   0  0  0  0  0  0  0  0  0  0  0  0
   -2.1390  -12.8930    0.8050 C   0  0  0  0  0  0  0  0  0  0  0  0
   -2.0460  -11.5750    1.5280 C   0  0  0  0  0  0  0  0  0  0  0  0
   -1.6130  -11.5170    2.8550 C   0  0  0  0  0  0  0  0  0  0  0  0
   -1.5190  -10.2780    3.4690 C   0  0  0  0  0  0  0  0  0  0  0  0
   -1.8180   -9.1120    2.8570 N   0  0  0  0  0  0  0  0  0  0  0  0
   -2.2190   -9.1870    1.5700 C   0  0  0  0  0  0  0  0  0  0  0  0
   -2.3440  -10.3770    0.8700 C   0  0  0  0  0  0  0  0  0  0  0  0
    0.5450  -13.0200   -0.1350 N   0  0  0  0  0  0  0  0  0  0  0  0
    3.2930  -12.4200   -2.5710 C   0  0  0  0  0  0  0  0  0  0  0  0
    6.0070  -12.7660   -6.0870 N   0  0  0  0  0  0  0  0  0  0  0  0
    6.4470  -13.5560   -7.1690 C   0  0  0  0  0  0  0  0  0  0  0  0
    6.8550  -14.8610   -6.8780 C   0  0  0  0  0  0  0  0  0  0  0  0
    7.3080  -15.7070   -7.8930 C   0  0  0  0  0  0  0  0  0  0  0  0
    7.3630  -15.2570   -9.2140 C   0  0  0  0  0  0  0  0  0  0  0  0
    7.9350  -16.3630  -10.4090 Cl  0  0  0  0  0  0  0  0  0  0  0  0
    6.9670  -13.9540   -9.5320 C   0  0  0  0  0  0  0  0  0  0  0  0
    7.0200  -13.4400  -10.9460 C   0  0  0  0  0  0  0  0  0  0  0  0
    8.2490  -13.5680  -11.5240 F   0  0  0  0  0  0  0  0  0  0  0  0
    6.7140  -12.1170  -11.0420 F   0  0  0  0  0  0  0  0  0  0  0  0
    6.1650  -14.0940  -11.7790 F   0  0  0  0  0  0  0  0  0  0  0  0
    6.5100  -13.1120   -8.4930 C   0  0  0  0  0  0  0  0  0  0  0  0
    5.4070  -11.0790   -4.5390 H   0  0  0  0  0  0  0  0  0  0  0  0
    3.1617   -9.6516   -4.5580 H   0  0  0  0  0  0  0  0  0  0  0  0
    1.2937   -9.1142   -3.0004 H   0  0  0  0  0  0  0  0  0  0  0  0
    0.6974  -10.6959   -1.1743 H   0  0  0  0  0  0  0  0  0  0  0  0
    3.8103  -13.9238   -0.4770 H   0  0  0  0  0  0  0  0  0  0  0  0
    4.1397  -15.9990    1.5343 H   0  0  0  0  0  0  0  0  0  0  0  0
    2.3750  -17.0131    3.2622 H   0  0  0  0  0  0  0  0  0  0  0  0
   -1.3600  -14.4230    2.0540 H   0  0  0  0  0  0  0  0  0  0  0  0
   -1.9901  -12.7307   -0.2727 H   0  0  0  0  0  0  0  0  0  0  0  0
   -3.1315  -13.3349    0.9771 H   0  0  0  0  0  0  0  0  0  0  0  0
   -1.3521  -12.4355    3.4011 H   0  0  0  0  0  0  0  0  0  0  0  0
   -1.1813  -10.2424    4.5153 H   0  0  0  0  0  0  0  0  0  0  0  0
   -2.4604   -8.2500    1.0468 H   0  0  0  0  0  0  0  0  0  0  0  0
   -2.6705  -10.3792   -0.1804 H   0  0  0  0  0  0  0  0  0  0  0  0
    3.8732  -13.3450   -2.4379 H   0  0  0  0  0  0  0  0  0  0  0  0
    6.6990  -12.1680   -5.6650 H   0  0  0  0  0  0  0  0  0  0  0  0
    6.8190  -15.2249   -5.8406 H   0  0  0  0  0  0  0  0  0  0  0  0
    7.6230  -16.7327   -7.6507 H   0  0  0  0  0  0  0  0  0  0  0  0
    6.1970  -12.0848   -8.7314 H   0  0  0  0  0  0  0  0  0  0  0  0
  1  2  2  0
  2  3  1  0
  3  4  1  0
  4  5  2  0
  5  6  1  0
  6  7  2  0
  7  8  1  0
  8  9  1  0
  9 10  2  0
 10 11  1  0
 11 12  1  0
 12 13  2  0
 13 14  1  0
 14 15  2  0
 15 16  1  0
 16 17  1  0
 17 18  1  0
 18 19  1  0
 19 20  2  0
 20 21  1  0
 21 22  2  0
 22 23  1  0
 23 24  2  0
 16 25  2  0
  8 26  2  0
  2 27  1  0
 27 28  1  0
 28 29  2  0
 29 30  1  0
 30 31  2  0
 31 32  1  0
 31 33  1  0
 33 34  1  0
 34 35  1  0
 34 36  1  0
 34 37  1  0
 33 38  2  0
 26  4  1  0
 38 28  1  0
 25  9  1  0
 15 11  1  0
 24 19  1  0
  3 39  1  0
  5 40  1  0
  6 41  1  0
  7 42  1  0
 10 43  1  0
 12 44  1  0
 13 45  1  0
 17 46  1  0
 18 47  1  0
 18 48  1  0
 20 49  1  0
 21 50  1  0
 23 51  1  0
 24 52  1  0
 26 53  1  0
 27 54  1  0
 29 55  1  0
 30 56  1  0
 38 57  1  0
M  END
>  <meeko>  (3) 
{"is_sidechain": [false], "free_energy": -9.36, "intermolecular_energy": -12.799, "internal_energy": -1.116}

$$$$
LIB_YVCVALMTTAHIAN__M_PUB_ALL__e8__s20260927
     RDKit          3D

 57 61  0  0  0  0  0  0  0  0999 V2000
    6.0390  -12.5780   -5.4880 O   0  0  0  0  0  0  0  0  0  0  0  0
    5.1340  -12.8820   -6.2520 C   0  0  0  0  0  0  0  0  0  0  0  0
    3.7900  -12.9350   -5.9120 N   0  0  0  0  0  0  0  0  0  0  0  0
    3.1950  -12.5290   -4.6970 C   0  0  0  0  0  0  0  0  0  0  0  0
    3.1910  -11.1580   -4.4140 C   0  0  0  0  0  0  0  0  0  0  0  0
    2.6280  -10.6790   -3.2310 C   0  0  0  0  0  0  0  0  0  0  0  0
    2.0600  -11.5700   -2.3210 C   0  0  0  0  0  0  0  0  0  0  0  0
    2.0450  -12.9480   -2.5800 C   0  0  0  0  0  0  0  0  0  0  0  0
    1.4480  -13.8740   -1.5850 C   0  0  0  0  0  0  0  0  0  0  0  0
    1.6980  -15.1990   -1.6620 C   0  0  0  0  0  0  0  0  0  0  0  0
    1.1180  -16.0300   -0.7300 N   0  0  0  0  0  0  0  0  0  0  0  0
    1.1750  -17.3830   -0.5360 C   0  0  0  0  0  0  0  0  0  0  0  0
    0.3760  -17.6210    0.5630 C   0  0  0  0  0  0  0  0  0  0  0  0
   -0.1690  -16.4550    1.0460 N   0  0  0  0  0  0  0  0  0  0  0  0
    0.3020  -15.5240    0.2420 C   0  0  0  0  0  0  0  0  0  0  0  0
    0.0490  -14.0950    0.2810 C   0  0  0  0  0  0  0  0  0  0  0  0
   -0.7690  -13.5610    1.2450 N   0  0  0  0  0  0  0  0  0  0  0  0
   -1.0570  -12.1600    1.3760 C   0  0  0  0  0  0  0  0  0  0  0  0
   -2.3630  -11.8470    0.6950 C   0  0  0  0  0  0  0  0  0  0  0  0
   -3.4100  -12.7730    0.6970 C   0  0  0  0  0  0  0  0  0  0  0  0
   -4.6020  -12.4290    0.0790 C   0  0  0  0  0  0  0  0  0  0  0  0
   -4.8190  -11.2410   -0.5250 N   0  0  0  0  0  0  0  0  0  0  0  0
   -3.8020  -10.3540   -0.5030 C   0  0  0  0  0  0  0  0  0  0  0  0
   -2.5730  -10.6050    0.0890 C   0  0  0  0  0  0  0  0  0  0  0  0
    0.6120  -13.3190   -0.6180 N   0  0  0  0  0  0  0  0  0  0  0  0
    2.6350  -13.4140   -3.7700 C   0  0  0  0  0  0  0  0  0  0  0  0
    5.3080  -13.2320   -7.5850 N   0  0  0  0  0  0  0  0  0  0  0  0
    6.5230  -13.3990   -8.2810 C   0  0  0  0  0  0  0  0  0  0  0  0
    7.3800  -14.4070   -7.8310 C   0  0  0  0  0  0  0  0  0  0  0  0
    8.6040  -14.6340   -8.4640 C   0  0  0  0  0  0  0  0  0  0  0  0
    8.9900  -13.8520   -9.5540 C   0  0  0  0  0  0  0  0  0  0  0  0
   10.5180  -14.1960  -10.2790 Cl  0  0  0  0  0  0  0  0  0  0  0  0
    8.1550  -12.8330  -10.0210 C   0  0  0  0  0  0  0  0  0  0  0  0
    8.5480  -11.9700  -11.1910 C   0  0  0  0  0  0  0  0  0  0  0  0
    8.6080  -12.6510  -12.3710 F   0  0  0  0  0  0  0  0  0  0  0  0
    9.7750  -11.4000  -11.0420 F   0  0  0  0  0  0  0  0  0  0  0  0
    7.6740  -10.9500  -11.4120 F   0  0  0  0  0  0  0  0  0  0  0  0
    6.9200  -12.6170   -9.3700 C   0  0  0  0  0  0  0  0  0  0  0  0
    3.1740  -13.3850   -6.5710 H   0  0  0  0  0  0  0  0  0  0  0  0
    3.6358  -10.4521   -5.1309 H   0  0  0  0  0  0  0  0  0  0  0  0
    2.6321   -9.6002   -3.0163 H   0  0  0  0  0  0  0  0  0  0  0  0
    1.6185  -11.1873   -1.3890 H   0  0  0  0  0  0  0  0  0  0  0  0
    2.3493  -15.6045   -2.4503 H   0  0  0  0  0  0  0  0  0  0  0  0
    1.7362  -18.1210   -1.1279 H   0  0  0  0  0  0  0  0  0  0  0  0
    0.1978  -18.6159    0.9971 H   0  0  0  0  0  0  0  0  0  0  0  0
   -1.1710  -14.2110    1.9140 H   0  0  0  0  0  0  0  0  0  0  0  0
   -1.1283  -11.8990    2.4422 H   0  0  0  0  0  0  0  0  0  0  0  0
   -0.2513  -11.5760    0.9071 H   0  0  0  0  0  0  0  0  0  0  0  0
   -3.2904  -13.7545    1.1791 H   0  0  0  0  0  0  0  0  0  0  0  0
   -5.4183  -13.1663    0.0807 H   0  0  0  0  0  0  0  0  0  0  0  0
   -3.9566   -9.3759   -0.9820 H   0  0  0  0  0  0  0  0  0  0  0  0
   -1.7801   -9.8426    0.0818 H   0  0  0  0  0  0  0  0  0  0  0  0
    2.6560  -14.4946   -3.9747 H   0  0  0  0  0  0  0  0  0  0  0  0
    4.4680  -13.3110   -8.1350 H   0  0  0  0  0  0  0  0  0  0  0  0
    7.0879  -15.0271   -6.9707 H   0  0  0  0  0  0  0  0  0  0  0  0
    9.2674  -15.4332   -8.1018 H   0  0  0  0  0  0  0  0  0  0  0  0
    6.2562  -11.8161   -9.7276 H   0  0  0  0  0  0  0  0  0  0  0  0
  1  2  2  0
  2  3  1  0
  3  4  1  0
  4  5  2  0
  5  6  1  0
  6  7  2  0
  7  8  1  0
  8  9  1  0
  9 10  2  0
 10 11  1  0
 11 12  1  0
 12 13  2  0
 13 14  1  0
 14 15  2  0
 15 16  1  0
 16 17  1  0
 17 18  1  0
 18 19  1  0
 19 20  2  0
 20 21  1  0
 21 22  2  0
 22 23  1  0
 23 24  2  0
 16 25  2  0
  8 26  2  0
  2 27  1  0
 27 28  1  0
 28 29  2  0
 29 30  1  0
 30 31  2  0
 31 32  1  0
 31 33  1  0
 33 34  1  0
 34 35  1  0
 34 36  1  0
 34 37  1  0
 33 38  2  0
 26  4  1  0
 38 28  1  0
 25  9  1  0
 15 11  1  0
 24 19  1  0
  3 39  1  0
  5 40  1  0
  6 41  1  0
  7 42  1  0
 10 43  1  0
 12 44  1  0
 13 45  1  0
 17 46  1  0
 18 47  1  0
 18 48  1  0
 20 49  1  0
 21 50  1  0
 23 51  1  0
 24 52  1  0
 26 53  1  0
 27 54  1  0
 29 55  1  0
 30 56  1  0
 38 57  1  0
M  END
>  <meeko>  (4) 
{"is_sidechain": [false], "free_energy": -9.091, "intermolecular_energy": -12.523, "internal_energy": -1.03}

$$$$
LIB_YVCVALMTTAHIAN__M_PUB_ALL__e8__s20260927
     RDKit          3D

 57 61  0  0  0  0  0  0  0  0999 V2000
    6.8850  -10.7360   -1.4660 O   0  0  0  0  0  0  0  0  0  0  0  0
    6.7210  -11.9080   -1.1590 C   0  0  0  0  0  0  0  0  0  0  0  0
    5.4910  -12.5470   -1.0870 N   0  0  0  0  0  0  0  0  0  0  0  0
    4.2330  -12.0340   -1.4740 C   0  0  0  0  0  0  0  0  0  0  0  0
    4.1140  -11.5540   -2.7840 C   0  0  0  0  0  0  0  0  0  0  0  0
    2.9060  -11.0260   -3.2390 C   0  0  0  0  0  0  0  0  0  0  0  0
    1.8040  -10.9770   -2.3870 C   0  0  0  0  0  0  0  0  0  0  0  0
    1.8920  -11.4540   -1.0710 C   0  0  0  0  0  0  0  0  0  0  0  0
    0.7070  -11.3740   -0.1810 C   0  0  0  0  0  0  0  0  0  0  0  0
    0.5210  -10.2880    0.5990 C   0  0  0  0  0  0  0  0  0  0  0  0
   -0.5830  -10.2520    1.4210 N   0  0  0  0  0  0  0  0  0  0  0  0
   -1.0470   -9.3180    2.3060 C   0  0  0  0  0  0  0  0  0  0  0  0
   -2.2030   -9.8620    2.8270 C   0  0  0  0  0  0  0  0  0  0  0  0
   -2.4590  -11.1010    2.2900 N   0  0  0  0  0  0  0  0  0  0  0  0
   -1.4630  -11.2970    1.4490 C   0  0  0  0  0  0  0  0  0  0  0  0
   -1.2200  -12.4510    0.6030 C   0  0  0  0  0  0  0  0  0  0  0  0
   -2.0870  -13.5160    0.6140 N   0  0  0  0  0  0  0  0  0  0  0  0
   -1.9410  -14.6860   -0.2050 C   0  0  0  0  0  0  0  0  0  0  0  0
   -1.6350  -15.8760    0.6660 C   0  0  0  0  0  0  0  0  0  0  0  0
   -0.3410  -16.3990    0.7330 C   0  0  0  0  0  0  0  0  0  0  0  0
   -0.1040  -17.4800    1.5680 C   0  0  0  0  0  0  0  0  0  0  0  0
   -1.0540  -18.0610    2.3320 N   0  0  0  0  0  0  0  0  0  0  0  0
   -2.2940  -17.5320    2.2660 C   0  0  0  0  0  0  0  0  0  0  0  0
   -2.6290  -16.4530    1.4620 C   0  0  0  0  0  0  0  0  0  0  0  0
   -0.1600  -12.4650   -0.1740 N   0  0  0  0  0  0  0  0  0  0  0  0
    3.1250  -11.9660   -0.6240 C   0  0  0  0  0  0  0  0  0  0  0  0
    7.7420  -12.7900   -0.8250 N   0  0  0  0  0  0  0  0  0  0  0  0
    9.1140  -12.5030   -0.6780 C   0  0  0  0  0  0  0  0  0  0  0  0
    9.5510  -12.1150    0.5920 C   0  0  0  0  0  0  0  0  0  0  0  0
   10.8950  -11.8090    0.8180 C   0  0  0  0  0  0  0  0  0  0  0  0
   11.8200  -11.8840   -0.2240 C   0  0  0  0  0  0  0  0  0  0  0  0
   13.4610  -11.4900    0.1390 Cl  0  0  0  0  0  0  0  0  0  0  0  0
   11.4100  -12.2640   -1.5060 C   0  0  0  0  0  0  0  0  0  0  0  0
   12.3850  -12.3480   -2.6500 C   0  0  0  0  0  0  0  0  0  0  0  0
   13.1910  -11.2530   -2.7570 F   0  0  0  0  0  0  0  0  0  0  0  0
   11.7740  -12.4640   -3.8610 F   0  0  0  0  0  0  0  0  0  0  0  0
   13.2340  -13.4060   -2.5440 F   0  0  0  0  0  0  0  0  0  0  0  0
   10.0470  -12.5700   -1.7180 C   0  0  0  0  0  0  0  0  0  0  0  0
    5.4760  -13.4490   -0.6370 H   0  0  0  0  0  0  0  0  0  0  0  0
    4.9808  -11.5937   -3.4601 H   0  0  0  0  0  0  0  0  0  0  0  0
    2.8230  -10.6487   -4.2689 H   0  0  0  0  0  0  0  0  0  0  0  0
    0.8538  -10.5592   -2.7511 H   0  0  0  0  0  0  0  0  0  0  0  0
    1.2348   -9.4513    0.5784 H   0  0  0  0  0  0  0  0  0  0  0  0
   -0.5964   -8.3445    2.5495 H   0  0  0  0  0  0  0  0  0  0  0  0
   -2.8385   -9.3673    3.5763 H   0  0  0  0  0  0  0  0  0  0  0  0
   -2.8900  -13.4440    1.2310 H   0  0  0  0  0  0  0  0  0  0  0  0
   -2.8757  -14.8662   -0.7562 H   0  0  0  0  0  0  0  0  0  0  0  0
   -1.1174  -14.5330   -0.9179 H   0  0  0  0  0  0  0  0  0  0  0  0
    0.4728  -15.9621    0.1356 H   0  0  0  0  0  0  0  0  0  0  0  0
    0.9167  -17.8880    1.6107 H   0  0  0  0  0  0  0  0  0  0  0  0
   -3.0837  -17.9824    2.8852 H   0  0  0  0  0  0  0  0  0  0  0  0
   -3.6560  -16.0591    1.4507 H   0  0  0  0  0  0  0  0  0  0  0  0
    3.2184  -12.3192    0.4136 H   0  0  0  0  0  0  0  0  0  0  0  0
    7.4800  -13.7590   -0.7410 H   0  0  0  0  0  0  0  0  0  0  0  0
    8.8302  -12.0501    1.4204 H   0  0  0  0  0  0  0  0  0  0  0  0
   11.2260  -11.5073    1.8227 H   0  0  0  0  0  0  0  0  0  0  0  0
    9.7123  -12.8674   -2.7228 H   0  0  0  0  0  0  0  0  0  0  0  0
  1  2  2  0
  2  3  1  0
  3  4  1  0
  4  5  2  0
  5  6  1  0
  6  7  2  0
  7  8  1  0
  8  9  1  0
  9 10  2  0
 10 11  1  0
 11 12  1  0
 12 13  2  0
 13 14  1  0
 14 15  2  0
 15 16  1  0
 16 17  1  0
 17 18  1  0
 18 19  1  0
 19 20  2  0
 20 21  1  0
 21 22  2  0
 22 23  1  0
 23 24  2  0
 16 25  2  0
  8 26  2  0
  2 27  1  0
 27 28  1  0
 28 29  2  0
 29 30  1  0
 30 31  2  0
 31 32  1  0
 31 33  1  0
 33 34  1  0
 34 35  1  0
 34 36  1  0
 34 37  1  0
 33 38  2  0
 26  4  1  0
 38 28  1  0
 25  9  1  0
 15 11  1  0
 24 19  1  0
  3 39  1  0
  5 40  1  0
  6 41  1  0
  7 42  1  0
 10 43  1  0
 12 44  1  0
 13 45  1  0
 17 46  1  0
 18 47  1  0
 18 48  1  0
 20 49  1  0
 21 50  1  0
 23 51  1  0
 24 52  1  0
 26 53  1  0
 27 54  1  0
 29 55  1  0
 30 56  1  0
 38 57  1  0
M  END
>  <meeko>  (5) 
{"is_sidechain": [false], "free_energy": -9.066, "intermolecular_energy": -12.56, "internal_energy": -0.958}

$$$$
LIB_YVCVALMTTAHIAN__M_PUB_ALL__e8__s20260927
     RDKit          3D

 57 61  0  0  0  0  0  0  0  0999 V2000
    6.1910  -14.1810   -5.8440 O   0  0  0  0  0  0  0  0  0  0  0  0
    5.9310  -13.3420   -6.6950 C   0  0  0  0  0  0  0  0  0  0  0  0
    6.5810  -13.2190   -7.9150 N   0  0  0  0  0  0  0  0  0  0  0  0
    7.5460  -14.0900   -8.4650 C   0  0  0  0  0  0  0  0  0  0  0  0
    7.1270  -14.9430   -9.4930 C   0  0  0  0  0  0  0  0  0  0  0  0
    8.0200  -15.8360  -10.0840 C   0  0  0  0  0  0  0  0  0  0  0  0
    9.3450  -15.8830   -9.6510 C   0  0  0  0  0  0  0  0  0  0  0  0
    9.7950  -15.0390   -8.6260 C   0  0  0  0  0  0  0  0  0  0  0  0
   11.2070  -15.1210   -8.1750 C   0  0  0  0  0  0  0  0  0  0  0  0
   12.1840  -15.3980   -9.0650 C   0  0  0  0  0  0  0  0  0  0  0  0
   13.4810  -15.4780   -8.6100 N   0  0  0  0  0  0  0  0  0  0  0  0
   14.6680  -15.7310   -9.2410 C   0  0  0  0  0  0  0  0  0  0  0  0
   15.6210  -15.6780   -8.2450 C   0  0  0  0  0  0  0  0  0  0  0  0
   15.0530  -15.4040   -7.0230 N   0  0  0  0  0  0  0  0  0  0  0  0
   13.7680  -15.2900   -7.2870 C   0  0  0  0  0  0  0  0  0  0  0  0
   12.6860  -15.0060   -6.3620 C   0  0  0  0  0  0  0  0  0  0  0  0
   12.9450  -14.8160   -5.0270 N   0  0  0  0  0  0  0  0  0  0  0  0
   11.9440  -14.5080   -4.0450 C   0  0  0  0  0  0  0  0  0  0  0  0
   12.4090  -13.3540   -3.1950 C   0  0  0  0  0  0  0  0  0  0  0  0
   13.4850  -12.5580   -3.5980 C   0  0  0  0  0  0  0  0  0  0  0  0
   13.8590  -11.4920   -2.7950 C   0  0  0  0  0  0  0  0  0  0  0  0
   13.2400  -11.1690   -1.6390 N   0  0  0  0  0  0  0  0  0  0  0  0
   12.1930  -11.9400   -1.2750 C   0  0  0  0  0  0  0  0  0  0  0  0
   11.7440  -13.0260   -2.0100 C   0  0  0  0  0  0  0  0  0  0  0  0
   11.4540  -14.9340   -6.8160 N   0  0  0  0  0  0  0  0  0  0  0  0
    8.8740  -14.1560   -8.0300 C   0  0  0  0  0  0  0  0  0  0  0  0
    4.9450  -12.3710   -6.5740 N   0  0  0  0  0  0  0  0  0  0  0  0
    4.1390  -12.0970   -5.4500 C   0  0  0  0  0  0  0  0  0  0  0  0
    3.8180  -10.7580   -5.2090 C   0  0  0  0  0  0  0  0  0  0  0  0
    3.0270  -10.4020   -4.1140 C   0  0  0  0  0  0  0  0  0  0  0  0
    2.5490  -11.3830   -3.2420 C   0  0  0  0  0  0  0  0  0  0  0  0
    1.5790  -10.8610   -1.9130 Cl  0  0  0  0  0  0  0  0  0  0  0  0
    2.8600  -12.7290   -3.4560 C   0  0  0  0  0  0  0  0  0  0  0  0
    2.3630  -13.8060   -2.5290 C   0  0  0  0  0  0  0  0  0  0  0  0
    1.0110  -13.7920   -2.3550 F   0  0  0  0  0  0  0  0  0  0  0  0
    2.8870  -13.7120   -1.2760 F   0  0  0  0  0  0  0  0  0  0  0  0
    2.6520  -15.0610   -2.9730 F   0  0  0  0  0  0  0  0  0  0  0  0
    3.6610  -13.0710   -4.5680 C   0  0  0  0  0  0  0  0  0  0  0  0
    6.4060  -12.3740   -8.4370 H   0  0  0  0  0  0  0  0  0  0  0  0
    6.0830  -14.9084   -9.8379 H   0  0  0  0  0  0  0  0  0  0  0  0
    7.6800  -16.5024  -10.8905 H   0  0  0  0  0  0  0  0  0  0  0  0
   10.0451  -16.5906  -10.1192 H   0  0  0  0  0  0  0  0  0  0  0  0
   11.9493  -15.5559  -10.1280 H   0  0  0  0  0  0  0  0  0  0  0  0
   14.8279  -15.9329  -10.3104 H   0  0  0  0  0  0  0  0  0  0  0  0
   16.6976  -15.8349   -8.4075 H   0  0  0  0  0  0  0  0  0  0  0  0
   13.9160  -14.8790   -4.7370 H   0  0  0  0  0  0  0  0  0  0  0  0
   11.0061  -14.2355   -4.5511 H   0  0  0  0  0  0  0  0  0  0  0  0
   11.7753  -15.3877   -3.4065 H   0  0  0  0  0  0  0  0  0  0  0  0
   14.0236  -12.7731   -4.5327 H   0  0  0  0  0  0  0  0  0  0  0  0
   14.7092  -10.8733   -3.1180 H   0  0  0  0  0  0  0  0  0  0  0  0
   11.6662  -11.6921   -0.3417 H   0  0  0  0  0  0  0  0  0  0  0  0
   10.8821  -13.6176   -1.6678 H   0  0  0  0  0  0  0  0  0  0  0  0
    9.2051  -13.5058   -7.2068 H   0  0  0  0  0  0  0  0  0  0  0  0
    4.7370  -11.8440   -7.4070 H   0  0  0  0  0  0  0  0  0  0  0  0
    4.1917   -9.9774   -5.8879 H   0  0  0  0  0  0  0  0  0  0  0  0
    2.7795   -9.3448   -3.9377 H   0  0  0  0  0  0  0  0  0  0  0  0
    3.9143  -14.1269   -4.7440 H   0  0  0  0  0  0  0  0  0  0  0  0
  1  2  2  0
  2  3  1  0
  3  4  1  0
  4  5  2  0
  5  6  1  0
  6  7  2  0
  7  8  1  0
  8  9  1  0
  9 10  2  0
 10 11  1  0
 11 12  1  0
 12 13  2  0
 13 14  1  0
 14 15  2  0
 15 16  1  0
 16 17  1  0
 17 18  1  0
 18 19  1  0
 19 20  2  0
 20 21  1  0
 21 22  2  0
 22 23  1  0
 23 24  2  0
 16 25  2  0
  8 26  2  0
  2 27  1  0
 27 28  1  0
 28 29  2  0
 29 30  1  0
 30 31  2  0
 31 32  1  0
 31 33  1  0
 33 34  1  0
 34 35  1  0
 34 36  1  0
 34 37  1  0
 33 38  2  0
 26  4  1  0
 38 28  1  0
 25  9  1  0
 15 11  1  0
 24 19  1  0
  3 39  1  0
  5 40  1  0
  6 41  1  0
  7 42  1  0
 10 43  1  0
 12 44  1  0
 13 45  1  0
 17 46  1  0
 18 47  1  0
 18 48  1  0
 20 49  1  0
 21 50  1  0
 23 51  1  0
 24 52  1  0
 26 53  1  0
 27 54  1  0
 29 55  1  0
 30 56  1  0
 38 57  1  0
M  END
>  <meeko>  (6) 
{"is_sidechain": [false], "free_energy": -8.732, "intermolecular_energy": -12.189, "internal_energy": -0.879}

$$$$
LIB_YVCVALMTTAHIAN__M_PUB_ALL__e8__s20260927
     RDKit          3D

 57 61  0  0  0  0  0  0  0  0999 V2000
    3.8800  -13.5120   -5.7110 O   0  0  0  0  0  0  0  0  0  0  0  0
    4.7810  -12.7250   -5.4560 C   0  0  0  0  0  0  0  0  0  0  0  0
    4.7070  -11.7120   -4.5110 N   0  0  0  0  0  0  0  0  0  0  0  0
    3.6670  -11.4740   -3.5860 C   0  0  0  0  0  0  0  0  0  0  0  0
    2.8720  -10.3410   -3.7950 C   0  0  0  0  0  0  0  0  0  0  0  0
    1.8280  -10.0360   -2.9220 C   0  0  0  0  0  0  0  0  0  0  0  0
    1.5680  -10.8640   -1.8310 C   0  0  0  0  0  0  0  0  0  0  0  0
    2.3460  -12.0070   -1.5980 C   0  0  0  0  0  0  0  0  0  0  0  0
    2.0570  -12.8620   -0.4190 C   0  0  0  0  0  0  0  0  0  0  0  0
    0.8180  -13.3680   -0.2400 C   0  0  0  0  0  0  0  0  0  0  0  0
    0.5830  -14.1480    0.8700 N   0  0  0  0  0  0  0  0  0  0  0  0
   -0.5330  -14.7950    1.3240 C   0  0  0  0  0  0  0  0  0  0  0  0
   -0.1380  -15.4080    2.4960 C   0  0  0  0  0  0  0  0  0  0  0  0
    1.1840  -15.1540    2.7730 N   0  0  0  0  0  0  0  0  0  0  0  0
    1.5790  -14.3940    1.7710 C   0  0  0  0  0  0  0  0  0  0  0  0
    2.8940  -13.8210    1.5470 C   0  0  0  0  0  0  0  0  0  0  0  0
    3.9130  -14.0510    2.4390 N   0  0  0  0  0  0  0  0  0  0  0  0
    5.2490  -13.5470    2.2870 C   0  0  0  0  0  0  0  0  0  0  0  0
    5.9750  -14.3480    1.2390 C   0  0  0  0  0  0  0  0  0  0  0  0
    5.7380  -15.7180    1.0960 C   0  0  0  0  0  0  0  0  0  0  0  0
    6.4120  -16.4070    0.1000 C   0  0  0  0  0  0  0  0  0  0  0  0
    7.2870  -15.8310   -0.7510 N   0  0  0  0  0  0  0  0  0  0  0  0
    7.4910  -14.5050   -0.6080 C   0  0  0  0  0  0  0  0  0  0  0  0
    6.8650  -13.7290    0.3560 C   0  0  0  0  0  0  0  0  0  0  0  0
    3.0980  -13.0790    0.4810 N   0  0  0  0  0  0  0  0  0  0  0  0
    3.4060  -12.2890   -2.4790 C   0  0  0  0  0  0  0  0  0  0  0  0
    6.0230  -12.7160   -6.0760 N   0  0  0  0  0  0  0  0  0  0  0  0
    6.4530  -13.5140   -7.1560 C   0  0  0  0  0  0  0  0  0  0  0  0
    6.8450  -14.8240   -6.8630 C   0  0  0  0  0  0  0  0  0  0  0  0
    7.2870  -15.6770   -7.8760 C   0  0  0  0  0  0  0  0  0  0  0  0
    7.3480  -15.2310   -9.1970 C   0  0  0  0  0  0  0  0  0  0  0  0
    7.9050  -16.3470  -10.3900 Cl  0  0  0  0  0  0  0  0  0  0  0  0
    6.9680  -13.9240   -9.5180 C   0  0  0  0  0  0  0  0  0  0  0  0
    7.0280  -13.4140  -10.9330 C   0  0  0  0  0  0  0  0  0  0  0  0
    6.2180  -14.0980  -11.7920 F   0  0  0  0  0  0  0  0  0  0  0  0
    8.2740  -13.4940  -11.4740 F   0  0  0  0  0  0  0  0  0  0  0  0
    6.6440  -12.1120  -11.0430 F   0  0  0  0  0  0  0  0  0  0  0  0
    6.5220  -13.0740   -8.4810 C   0  0  0  0  0  0  0  0  0  0  0  0
    5.4380  -11.0180   -4.5350 H   0  0  0  0  0  0  0  0  0  0  0  0
    3.0724   -9.6855   -4.6553 H   0  0  0  0  0  0  0  0  0  0  0  0
    1.2100   -9.1425   -3.0942 H   0  0  0  0  0  0  0  0  0  0  0  0
    0.7436  -10.6180   -1.1455 H   0  0  0  0  0  0  0  0  0  0  0  0
    0.0156  -13.1620   -0.9637 H   0  0  0  0  0  0  0  0  0  0  0  0
   -1.5286  -14.8212    0.8570 H   0  0  0  0  0  0  0  0  0  0  0  0
   -0.7972  -16.0215    3.1277 H   0  0  0  0  0  0  0  0  0  0  0  0
    3.6950  -14.6360    3.2400 H   0  0  0  0  0  0  0  0  0  0  0  0
    5.2093  -12.4918    1.9789 H   0  0  0  0  0  0  0  0  0  0  0  0
    5.7823  -13.6310    3.2454 H   0  0  0  0  0  0  0  0  0  0  0  0
    5.0317  -16.2382    1.7597 H   0  0  0  0  0  0  0  0  0  0  0  0
    6.2228  -17.4857   -0.0028 H   0  0  0  0  0  0  0  0  0  0  0  0
    8.1939  -14.0113   -1.2952 H   0  0  0  0  0  0  0  0  0  0  0  0
    7.0644  -12.6494    0.4245 H   0  0  0  0  0  0  0  0  0  0  0  0
    4.0419  -13.1673   -2.2940 H   0  0  0  0  0  0  0  0  0  0  0  0
    6.7200  -12.1160   -5.6650 H   0  0  0  0  0  0  0  0  0  0  0  0
    6.8047  -15.1857   -5.8249 H   0  0  0  0  0  0  0  0  0  0  0  0
    7.5888  -16.7062   -7.6316 H   0  0  0  0  0  0  0  0  0  0  0  0
    6.2225  -12.0433   -8.7217 H   0  0  0  0  0  0  0  0  0  0  0  0
  1  2  2  0
  2  3  1  0
  3  4  1  0
  4  5  2  0
  5  6  1  0
  6  7  2  0
  7  8  1  0
  8  9  1  0
  9 10  2  0
 10 11  1  0
 11 12  1  0
 12 13  2  0
 13 14  1  0
 14 15  2  0
 15 16  1  0
 16 17  1  0
 17 18  1  0
 18 19  1  0
 19 20  2  0
 20 21  1  0
 21 22  2  0
 22 23  1  0
 23 24  2  0
 16 25  2  0
  8 26  2  0
  2 27  1  0
 27 28  1  0
 28 29  2  0
 29 30  1  0
 30 31  2  0
 31 32  1  0
 31 33  1  0
 33 34  1  0
 34 35  1  0
 34 36  1  0
 34 37  1  0
 33 38  2  0
 26  4  1  0
 38 28  1  0
 25  9  1  0
 15 11  1  0
 24 19  1  0
  3 39  1  0
  5 40  1  0
  6 41  1  0
  7 42  1  0
 10 43  1  0
 12 44  1  0
 13 45  1  0
 17 46  1  0
 18 47  1  0
 18 48  1  0
 20 49  1  0
 21 50  1  0
 23 51  1  0
 24 52  1  0
 26 53  1  0
 27 54  1  0
 29 55  1  0
 30 56  1  0
 38 57  1  0
M  END
>  <meeko>  (7) 
{"is_sidechain": [false], "free_energy": -8.64, "intermolecular_energy": -11.768, "internal_energy": -1.176}

$$$$
LIB_YVCVALMTTAHIAN__M_PUB_ALL__e8__s20260927
     RDKit          3D

 57 61  0  0  0  0  0  0  0  0999 V2000
    6.0460  -14.2550   -2.8430 O   0  0  0  0  0  0  0  0  0  0  0  0
    5.7930  -13.0620   -2.7440 C   0  0  0  0  0  0  0  0  0  0  0  0
    4.5340  -12.5000   -2.9050 N   0  0  0  0  0  0  0  0  0  0  0  0
    3.3060  -13.1780   -3.0710 C   0  0  0  0  0  0  0  0  0  0  0  0
    2.8300  -13.3260   -4.3780 C   0  0  0  0  0  0  0  0  0  0  0  0
    1.6220  -13.9790   -4.6240 C   0  0  0  0  0  0  0  0  0  0  0  0
    0.8800  -14.4910   -3.5610 C   0  0  0  0  0  0  0  0  0  0  0  0
    1.3340  -14.3600   -2.2410 C   0  0  0  0  0  0  0  0  0  0  0  0
    0.5150  -14.9020   -1.1270 C   0  0  0  0  0  0  0  0  0  0  0  0
    0.8140  -16.1060   -0.5940 C   0  0  0  0  0  0  0  0  0  0  0  0
    0.0260  -16.5830    0.4310 N   0  0  0  0  0  0  0  0  0  0  0  0
    0.0670  -17.7350    1.1670 C   0  0  0  0  0  0  0  0  0  0  0  0
   -0.9940  -17.6340    2.0450 C   0  0  0  0  0  0  0  0  0  0  0  0
   -1.6820  -16.4580    1.8660 N   0  0  0  0  0  0  0  0  0  0  0  0
   -1.0360  -15.8560    0.8880 C   0  0  0  0  0  0  0  0  0  0  0  0
   -1.3300  -14.5710    0.2790 C   0  0  0  0  0  0  0  0  0  0  0  0
   -2.3930  -13.8220    0.7170 N   0  0  0  0  0  0  0  0  0  0  0  0
   -2.7440  -12.5320    0.1930 C   0  0  0  0  0  0  0  0  0  0  0  0
   -2.3680  -11.4640    1.1850 C   0  0  0  0  0  0  0  0  0  0  0  0
   -1.9050  -11.8030    2.4600 C   0  0  0  0  0  0  0  0  0  0  0  0
   -1.5470  -10.7850    3.3290 C   0  0  0  0  0  0  0  0  0  0  0  0
   -1.6140   -9.4730    3.0170 N   0  0  0  0  0  0  0  0  0  0  0  0
   -2.0480   -9.1650    1.7760 C   0  0  0  0  0  0  0  0  0  0  0  0
   -2.4290  -10.1110    0.8360 C   0  0  0  0  0  0  0  0  0  0  0  0
   -0.5660  -14.1340   -0.6980 N   0  0  0  0  0  0  0  0  0  0  0  0
    2.5460  -13.6830   -2.0110 C   0  0  0  0  0  0  0  0  0  0  0  0
    6.7290  -12.0750   -2.4630 N   0  0  0  0  0  0  0  0  0  0  0  0
    8.1250  -12.2230   -2.3350 C   0  0  0  0  0  0  0  0  0  0  0  0
    8.8570  -12.3950   -3.5140 C   0  0  0  0  0  0  0  0  0  0  0  0
   10.2440  -12.5520   -3.4730 C   0  0  0  0  0  0  0  0  0  0  0  0
   10.9190  -12.5440   -2.2510 C   0  0  0  0  0  0  0  0  0  0  0  0
   12.6320  -12.7450   -2.2860 Cl  0  0  0  0  0  0  0  0  0  0  0  0
   10.2110  -12.3810   -1.0560 C   0  0  0  0  0  0  0  0  0  0  0  0
   10.9110  -12.3730    0.2770 C   0  0  0  0  0  0  0  0  0  0  0  0
   10.0690  -12.1760    1.3310 F   0  0  0  0  0  0  0  0  0  0  0  0
   11.8500  -11.3930    0.3780 F   0  0  0  0  0  0  0  0  0  0  0  0
   11.5500  -13.5460    0.5450 F   0  0  0  0  0  0  0  0  0  0  0  0
    8.8080  -12.2220   -1.1150 C   0  0  0  0  0  0  0  0  0  0  0  0
    4.4950  -11.4970   -2.9920 H   0  0  0  0  0  0  0  0  0  0  0  0
    3.4134  -12.9239   -5.2194 H   0  0  0  0  0  0  0  0  0  0  0  0
    1.2557  -14.0896   -5.6553 H   0  0  0  0  0  0  0  0  0  0  0  0
   -0.0727  -15.0037   -3.7600 H   0  0  0  0  0  0  0  0  0  0  0  0
    1.6661  -16.6920   -0.9689 H   0  0  0  0  0  0  0  0  0  0  0  0
    0.7876  -18.5614    1.0788 H   0  0  0  0  0  0  0  0  0  0  0  0
   -1.2552  -18.3976    2.7925 H   0  0  0  0  0  0  0  0  0  0  0  0
   -2.9430  -14.2100    1.4780 H   0  0  0  0  0  0  0  0  0  0  0  0
   -2.2050  -12.3612   -0.7505 H   0  0  0  0  0  0  0  0  0  0  0  0
   -3.8280  -12.4949    0.0100 H   0  0  0  0  0  0  0  0  0  0  0  0
   -1.8266  -12.8564    2.7669 H   0  0  0  0  0  0  0  0  0  0  0  0
   -1.1874  -11.0616    4.3311 H   0  0  0  0  0  0  0  0  0  0  0  0
   -2.1025   -8.1030    1.4944 H   0  0  0  0  0  0  0  0  0  0  0  0
   -2.7719   -9.8036   -0.1630 H   0  0  0  0  0  0  0  0  0  0  0  0
    2.9021  -13.5485   -0.9790 H   0  0  0  0  0  0  0  0  0  0  0  0
    6.3600  -11.1600   -2.2620 H   0  0  0  0  0  0  0  0  0  0  0  0
    8.3356  -12.4067   -4.4825 H   0  0  0  0  0  0  0  0  0  0  0  0
   10.8077  -12.6827   -4.4085 H   0  0  0  0  0  0  0  0  0  0  0  0
    8.2411  -12.0947   -0.1810 H   0  0  0  0  0  0  0  0  0  0  0  0
  1  2  2  0
  2  3  1  0
  3  4  1  0
  4  5  2  0
  5  6  1  0
  6  7  2  0
  7  8  1  0
  8  9  1  0
  9 10  2  0
 10 11  1  0
 11 12  1  0
 12 13  2  0
 13 14  1  0
 14 15  2  0
 15 16  1  0
 16 17  1  0
 17 18  1  0
 18 19  1  0
 19 20  2  0
 20 21  1  0
 21 22  2  0
 22 23  1  0
 23 24  2  0
 16 25  2  0
  8 26  2  0
  2 27  1  0
 27 28  1  0
 28 29  2  0
 29 30  1  0
 30 31  2  0
 31 32  1  0
 31 33  1  0
 33 34  1  0
 34 35  1  0
 34 36  1  0
 34 37  1  0
 33 38  2  0
 26  4  1  0
 38 28  1  0
 25  9  1  0
 15 11  1  0
 24 19  1  0
  3 39  1  0
  5 40  1  0
  6 41  1  0
  7 42  1  0
 10 43  1  0
 12 44  1  0
 13 45  1  0
 17 46  1  0
 18 47  1  0
 18 48  1  0
 20 49  1  0
 21 50  1  0
 23 51  1  0
 24 52  1  0
 26 53  1  0
 27 54  1  0
 29 55  1  0
 30 56  1  0
 38 57  1  0
M  END
>  <meeko>  (8) 
{"is_sidechain": [false], "free_energy": -8.631, "intermolecular_energy": -11.792, "internal_energy": -1.139}

$$$$
LIB_YVCVALMTTAHIAN__M_PUB_ALL__e8__s20260927
     RDKit          3D

 57 61  0  0  0  0  0  0  0  0999 V2000
    2.8540  -11.8030   -0.5590 O   0  0  0  0  0  0  0  0  0  0  0  0
    2.9660  -12.4360    0.4820 C   0  0  0  0  0  0  0  0  0  0  0  0
    4.1600  -12.9270    0.9900 N   0  0  0  0  0  0  0  0  0  0  0  0
    5.4640  -12.6890    0.5010 C   0  0  0  0  0  0  0  0  0  0  0  0
    6.3000  -11.8780    1.2780 C   0  0  0  0  0  0  0  0  0  0  0  0
    7.5990  -11.5920    0.8610 C   0  0  0  0  0  0  0  0  0  0  0  0
    8.0750  -12.1180   -0.3400 C   0  0  0  0  0  0  0  0  0  0  0  0
    7.2620  -12.9350   -1.1370 C   0  0  0  0  0  0  0  0  0  0  0  0
    7.7900  -13.4680   -2.4190 C   0  0  0  0  0  0  0  0  0  0  0  0
    7.0070  -13.4760   -3.5190 C   0  0  0  0  0  0  0  0  0  0  0  0
    7.5250  -13.9880   -4.6880 N   0  0  0  0  0  0  0  0  0  0  0  0
    7.0040  -14.1320   -5.9440 C   0  0  0  0  0  0  0  0  0  0  0  0
    8.0130  -14.7150   -6.6850 C   0  0  0  0  0  0  0  0  0  0  0  0
    9.1330  -14.9340   -5.9190 N   0  0  0  0  0  0  0  0  0  0  0  0
    8.7980  -14.4830   -4.7270 C   0  0  0  0  0  0  0  0  0  0  0  0
    9.6020  -14.4650   -3.5180 C   0  0  0  0  0  0  0  0  0  0  0  0
   10.8830  -14.9590   -3.5290 N   0  0  0  0  0  0  0  0  0  0  0  0
   11.7580  -14.9610   -2.3910 C   0  0  0  0  0  0  0  0  0  0  0  0
   12.3470  -13.5870   -2.2030 C   0  0  0  0  0  0  0  0  0  0  0  0
   13.1000  -12.9880   -3.2170 C   0  0  0  0  0  0  0  0  0  0  0  0
   13.5980  -11.7120   -3.0070 C   0  0  0  0  0  0  0  0  0  0  0  0
   13.3960  -11.0030   -1.8760 N   0  0  0  0  0  0  0  0  0  0  0  0
   12.6540  -11.5920   -0.9150 C   0  0  0  0  0  0  0  0  0  0  0  0
   12.1110  -12.8630   -1.0300 C   0  0  0  0  0  0  0  0  0  0  0  0
    9.0890  -13.9730   -2.4130 N   0  0  0  0  0  0  0  0  0  0  0  0
    5.9480  -13.1980   -0.7080 C   0  0  0  0  0  0  0  0  0  0  0  0
    1.9110  -12.7710    1.3220 N   0  0  0  0  0  0  0  0  0  0  0  0
    0.5360  -12.5470    1.1090 C   0  0  0  0  0  0  0  0  0  0  0  0
   -0.2000  -13.5980    0.5530 C   0  0  0  0  0  0  0  0  0  0  0  0
   -1.5680  -13.4550    0.3060 C   0  0  0  0  0  0  0  0  0  0  0  0
   -2.2170  -12.2570    0.6090 C   0  0  0  0  0  0  0  0  0  0  0  0
   -3.9080  -12.1610    0.2750 Cl  0  0  0  0  0  0  0  0  0  0  0  0
   -1.5040  -11.1880    1.1610 C   0  0  0  0  0  0  0  0  0  0  0  0
   -2.1770   -9.8830    1.4920 C   0  0  0  0  0  0  0  0  0  0  0  0
   -2.9720   -9.9480    2.5990 F   0  0  0  0  0  0  0  0  0  0  0  0
   -2.9870   -9.4340    0.4940 F   0  0  0  0  0  0  0  0  0  0  0  0
   -1.2920   -8.8810    1.7480 F   0  0  0  0  0  0  0  0  0  0  0  0
   -0.1220  -11.3490    1.4040 C   0  0  0  0  0  0  0  0  0  0  0  0
    4.0910  -13.5920    1.7450 H   0  0  0  0  0  0  0  0  0  0  0  0
    5.9283  -11.4627    2.2263 H   0  0  0  0  0  0  0  0  0  0  0  0
    8.2475  -10.9526    1.4779 H   0  0  0  0  0  0  0  0  0  0  0  0
    9.1005  -11.8888   -0.6653 H   0  0  0  0  0  0  0  0  0  0  0  0
    5.9802  -13.0831   -3.4824 H   0  0  0  0  0  0  0  0  0  0  0  0
    5.9995  -13.8457   -6.2891 H   0  0  0  0  0  0  0  0  0  0  0  0
    7.9309  -14.9713   -7.7516 H   0  0  0  0  0  0  0  0  0  0  0  0
   11.2260  -15.3210   -4.4140 H   0  0  0  0  0  0  0  0  0  0  0  0
   11.1890  -15.2413   -1.4923 H   0  0  0  0  0  0  0  0  0  0  0  0
   12.5686  -15.6863   -2.5551 H   0  0  0  0  0  0  0  0  0  0  0  0
   13.2931  -13.5181   -4.1613 H   0  0  0  0  0  0  0  0  0  0  0  0
   14.1927  -11.2498   -3.8087 H   0  0  0  0  0  0  0  0  0  0  0  0
   12.4691  -11.0316    0.0133 H   0  0  0  0  0  0  0  0  0  0  0  0
   11.5079  -13.2922   -0.2164 H   0  0  0  0  0  0  0  0  0  0  0  0
    5.2890  -13.8158   -1.3357 H   0  0  0  0  0  0  0  0  0  0  0  0
    2.1640  -13.1590    2.2170 H   0  0  0  0  0  0  0  0  0  0  0  0
    0.3022  -14.5455    0.3079 H   0  0  0  0  0  0  0  0  0  0  0  0
   -2.1360  -14.2904   -0.1292 H   0  0  0  0  0  0  0  0  0  0  0  0
    0.4493  -10.5135    1.8348 H   0  0  0  0  0  0  0  0  0  0  0  0
  1  2  2  0
  2  3  1  0
  3  4  1  0
  4  5  2  0
  5  6  1  0
  6  7  2  0
  7  8  1  0
  8  9  1  0
  9 10  2  0
 10 11  1  0
 11 12  1  0
 12 13  2  0
 13 14  1  0
 14 15  2  0
 15 16  1  0
 16 17  1  0
 17 18  1  0
 18 19  1  0
 19 20  2  0
 20 21  1  0
 21 22  2  0
 22 23  1  0
 23 24  2  0
 16 25  2  0
  8 26  2  0
  2 27  1  0
 27 28  1  0
 28 29  2  0
 29 30  1  0
 30 31  2  0
 31 32  1  0
 31 33  1  0
 33 34  1  0
 34 35  1  0
 34 36  1  0
 34 37  1  0
 33 38  2  0
 26  4  1  0
 38 28  1  0
 25  9  1  0
 15 11  1  0
 24 19  1  0
  3 39  1  0
  5 40  1  0
  6 41  1  0
  7 42  1  0
 10 43  1  0
 12 44  1  0
 13 45  1  0
 17 46  1  0
 18 47  1  0
 18 48  1  0
 20 49  1  0
 21 50  1  0
 23 51  1  0
 24 52  1  0
 26 53  1  0
 27 54  1  0
 29 55  1  0
 30 56  1  0
 38 57  1  0
M  END
>  <meeko>  (9) 
{"is_sidechain": [false], "free_energy": -8.412, "intermolecular_energy": -11.549, "internal_energy": -1.087}

$$$$
