LIB_JRMCNSWAKAFNPS__M_PUB_ALL__e8__s20260927
     RDKit          3D

 54 58  0  0  0  0  0  0  0  0999 V2000
   11.3100   -8.0900  -12.9540 O   0  0  0  0  0  0  0  0  0  0  0  0
   11.5910   -7.8340  -11.7900 C   0  0  0  0  0  0  0  0  0  0  0  0
   11.5770   -8.7520  -10.7480 N   0  0  0  0  0  0  0  0  0  0  0  0
   11.3180  -10.1380  -10.8200 C   0  0  0  0  0  0  0  0  0  0  0  0
   10.2200  -10.6990  -11.4690 C   0  0  0  0  0  0  0  0  0  0  0  0
   10.0530  -12.0860  -11.5050 C   0  0  0  0  0  0  0  0  0  0  0  0
   10.9810  -12.9250  -10.8870 C   0  0  0  0  0  0  0  0  0  0  0  0
   12.0850  -12.3870  -10.2160 C   0  0  0  0  0  0  0  0  0  0  0  0
   13.1040  -13.2410   -9.5580 C   0  0  0  0  0  0  0  0  0  0  0  0
   14.0970  -13.7950  -10.2860 C   0  0  0  0  0  0  0  0  0  0  0  0
   15.0030  -14.6020   -9.6360 N   0  0  0  0  0  0  0  0  0  0  0  0
   16.0960  -15.3000  -10.0700 C   0  0  0  0  0  0  0  0  0  0  0  0
   16.5920  -15.9270   -8.9460 C   0  0  0  0  0  0  0  0  0  0  0  0
   15.8330  -15.6350   -7.8360 N   0  0  0  0  0  0  0  0  0  0  0  0
   14.8930  -14.8340   -8.2950 C   0  0  0  0  0  0  0  0  0  0  0  0
   13.8040  -14.2240   -7.5450 C   0  0  0  0  0  0  0  0  0  0  0  0
   13.7180  -14.4950   -6.1930 N   0  0  0  0  0  0  0  0  0  0  0  0
   12.8530  -13.9820   -5.2140 C   0  0  0  0  0  0  0  0  0  0  0  0
   13.3160  -12.9560   -4.3830 C   0  0  0  0  0  0  0  0  0  0  0  0
   12.4880  -12.4590   -3.3870 C   0  0  0  0  0  0  0  0  0  0  0  0
   11.2400  -12.9090   -3.1580 N   0  0  0  0  0  0  0  0  0  0  0  0
   10.8050  -13.8990   -3.9640 C   0  0  0  0  0  0  0  0  0  0  0  0
   11.5640  -14.4590   -4.9810 C   0  0  0  0  0  0  0  0  0  0  0  0
   12.9540  -13.4640   -8.1940 N   0  0  0  0  0  0  0  0  0  0  0  0
   12.2460  -10.9900  -10.2030 C   0  0  0  0  0  0  0  0  0  0  0  0
   11.9700   -6.5820  -11.3240 N   0  0  0  0  0  0  0  0  0  0  0  0
   12.0440   -5.3740  -12.0500 C   0  0  0  0  0  0  0  0  0  0  0  0
   13.3020   -5.0040  -12.5430 C   0  0  0  0  0  0  0  0  0  0  0  0
   13.4660   -3.8250  -13.2720 C   0  0  0  0  0  0  0  0  0  0  0  0
   12.3720   -2.9990  -13.5150 C   0  0  0  0  0  0  0  0  0  0  0  0
   11.1050   -3.3420  -13.0230 C   0  0  0  0  0  0  0  0  0  0  0  0
    9.9060   -2.4660  -13.2860 C   0  0  0  0  0  0  0  0  0  0  0  0
    8.7350   -3.0630  -12.9340 F   0  0  0  0  0  0  0  0  0  0  0  0
    9.9490   -1.2860  -12.6080 F   0  0  0  0  0  0  0  0  0  0  0  0
    9.7670   -2.1280  -14.6010 F   0  0  0  0  0  0  0  0  0  0  0  0
   10.9530   -4.5370  -12.2940 C   0  0  0  0  0  0  0  0  0  0  0  0
   11.7320   -8.3870   -9.8230 H   0  0  0  0  0  0  0  0  0  0  0  0
    9.4804  -10.0464  -11.9558 H   0  0  0  0  0  0  0  0  0  0  0  0
    9.1849  -12.5189  -12.0236 H   0  0  0  0  0  0  0  0  0  0  0  0
   10.8440  -14.0157  -10.9275 H   0  0  0  0  0  0  0  0  0  0  0  0
   14.1795  -13.6070  -11.3667 H   0  0  0  0  0  0  0  0  0  0  0  0
   16.4937  -15.3505  -11.0943 H   0  0  0  0  0  0  0  0  0  0  0  0
   17.4797  -16.5766   -8.9380 H   0  0  0  0  0  0  0  0  0  0  0  0
   14.4190  -15.1520   -5.8620 H   0  0  0  0  0  0  0  0  0  0  0  0
   14.3281  -12.5469   -4.5183 H   0  0  0  0  0  0  0  0  0  0  0  0
   12.8733  -11.6509   -2.7478 H   0  0  0  0  0  0  0  0  0  0  0  0
    9.7874  -14.2855   -3.8054 H   0  0  0  0  0  0  0  0  0  0  0  0
   11.1527  -15.2717   -5.5978 H   0  0  0  0  0  0  0  0  0  0  0  0
   13.1205  -10.5550   -9.6969 H   0  0  0  0  0  0  0  0  0  0  0  0
   12.2690   -6.5340  -10.3630 H   0  0  0  0  0  0  0  0  0  0  0  0
   14.1714   -5.6506  -12.3533 H   0  0  0  0  0  0  0  0  0  0  0  0
   14.4596   -3.5485  -13.6545 H   0  0  0  0  0  0  0  0  0  0  0  0
   12.5023   -2.0737  -14.0953 H   0  0  0  0  0  0  0  0  0  0  0  0
    9.9602   -4.8155  -11.9110 H   0  0  0  0  0  0  0  0  0  0  0  0
  1  2  2  0
  2  3  1  0
  3  4  1  0
  4  5  2  0
  5  6  1  0
  6  7  2  0
  7  8  1  0
  8  9  1  0
  9 10  2  0
 10 11  1  0
 11 12  1  0
 12 13  2  0
 13 14  1  0
 14 15  2  0
 15 16  1  0
 16 17  1  0
 17 18  1  0
 18 19  2  0
 19 20  1  0
 20 21  2  0
 21 22  1  0
 22 23  2  0
 16 24  2  0
  8 25  2  0
  2 26  1  0
 26 27  1  0
 27 28  2  0
 28 29  1  0
 29 30  2  0
 30 31  1  0
 31 32  1  0
 32 33  1  0
 32 34  1  0
 32 35  1  0
 31 36  2  0
 25  4  1  0
 36 27  1  0
 24  9  1  0
 15 11  1  0
 23 18  1  0
  3 37  1  0
  5 38  1  0
  6 39  1  0
  7 40  1  0
 10 41  1  0
 12 42  1  0
 13 43  1  0
 17 44  1  0
 19 45  1  0
 20 46  1  0
 22 47  1  0
 23 48  1  0
 25 49  1  0
 26 50  1  0
 28 51  1  0
 29 52  1  0
 30 53  1  0
 36 54  1  0
M  END
>  <meeko>  (1) 
{"is_sidechain": [false], "free_energy": -9.859, "intermolecular_energy": -12.741, "internal_energy": -0.873}

$$$$
LIB_JRMCNSWAKAFNPS__M_PUB_ALL__e8__s20260927
     RDKit          3D

 54 58  0  0  0  0  0  0  0  0999 V2000
    4.3690  -12.9550   -6.9060 O   0  0  0  0  0  0  0  0  0  0  0  0
    5.3470  -12.9600   -6.1700 C   0  0  0  0  0  0  0  0  0  0  0  0
    5.3830  -12.4200   -4.8910 N   0  0  0  0  0  0  0  0  0  0  0  0
    4.3190  -11.8400   -4.1670 C   0  0  0  0  0  0  0  0  0  0  0  0
    3.6420  -10.6850   -4.5560 C   0  0  0  0  0  0  0  0  0  0  0  0
    2.5870  -10.1910   -3.7850 C   0  0  0  0  0  0  0  0  0  0  0  0
    2.2010  -10.8450   -2.6140 C   0  0  0  0  0  0  0  0  0  0  0  0
    2.8730  -11.9990   -2.1930 C   0  0  0  0  0  0  0  0  0  0  0  0
    2.4890  -12.7340   -0.9640 C   0  0  0  0  0  0  0  0  0  0  0  0
    3.2050  -13.8060   -0.5630 C   0  0  0  0  0  0  0  0  0  0  0  0
    2.7950  -14.4730    0.5690 N   0  0  0  0  0  0  0  0  0  0  0  0
    3.2840  -15.5690    1.2240 C   0  0  0  0  0  0  0  0  0  0  0  0
    2.4320  -15.7590    2.2920 C   0  0  0  0  0  0  0  0  0  0  0  0
    1.4330  -14.8130    2.3090 N   0  0  0  0  0  0  0  0  0  0  0  0
    1.6910  -14.0590    1.2590 C   0  0  0  0  0  0  0  0  0  0  0  0
    0.9410  -12.9020    0.7930 C   0  0  0  0  0  0  0  0  0  0  0  0
   -0.1780  -12.5230    1.5100 N   0  0  0  0  0  0  0  0  0  0  0  0
   -1.0250  -11.4140    1.3600 C   0  0  0  0  0  0  0  0  0  0  0  0
   -0.8480  -10.3170    2.2110 C   0  0  0  0  0  0  0  0  0  0  0  0
   -1.6960   -9.2260    2.1020 C   0  0  0  0  0  0  0  0  0  0  0  0
   -2.7040   -9.1480    1.2120 N   0  0  0  0  0  0  0  0  0  0  0  0
   -2.8650  -10.2110    0.3980 C   0  0  0  0  0  0  0  0  0  0  0  0
   -2.0690  -11.3460    0.4390 C   0  0  0  0  0  0  0  0  0  0  0  0
    1.3550  -12.2910   -0.2930 N   0  0  0  0  0  0  0  0  0  0  0  0
    3.9230  -12.4900   -2.9890 C   0  0  0  0  0  0  0  0  0  0  0  0
    6.5810  -13.5070   -6.4970 N   0  0  0  0  0  0  0  0  0  0  0  0
    6.9720  -14.0910   -7.7210 C   0  0  0  0  0  0  0  0  0  0  0  0
    7.3940  -15.4260   -7.6830 C   0  0  0  0  0  0  0  0  0  0  0  0
    7.7990  -16.0810   -8.8480 C   0  0  0  0  0  0  0  0  0  0  0  0
    7.7880  -15.4070  -10.0660 C   0  0  0  0  0  0  0  0  0  0  0  0
    7.3800  -14.0670  -10.1270 C   0  0  0  0  0  0  0  0  0  0  0  0
    7.3500  -13.3240  -11.4390 C   0  0  0  0  0  0  0  0  0  0  0  0
    6.4180  -13.8180  -12.2980 F   0  0  0  0  0  0  0  0  0  0  0  0
    7.0670  -12.0000  -11.2940 F   0  0  0  0  0  0  0  0  0  0  0  0
    8.5360  -13.3730  -12.1110 F   0  0  0  0  0  0  0  0  0  0  0  0
    6.9690  -13.4210   -8.9460 C   0  0  0  0  0  0  0  0  0  0  0  0
    6.2790  -12.4030   -4.4330 H   0  0  0  0  0  0  0  0  0  0  0  0
    3.9403  -10.1597   -5.4753 H   0  0  0  0  0  0  0  0  0  0  0  0
    2.0572   -9.2809   -4.1028 H   0  0  0  0  0  0  0  0  0  0  0  0
    1.3640  -10.4516   -2.0184 H   0  0  0  0  0  0  0  0  0  0  0  0
    4.0908  -14.1370   -1.1250 H   0  0  0  0  0  0  0  0  0  0  0  0
    4.1661  -16.1694    0.9570 H   0  0  0  0  0  0  0  0  0  0  0  0
    2.5376  -16.5635    3.0347 H   0  0  0  0  0  0  0  0  0  0  0  0
   -0.3930  -13.1410    2.2870 H   0  0  0  0  0  0  0  0  0  0  0  0
   -0.0426  -10.3206    2.9602 H   0  0  0  0  0  0  0  0  0  0  0  0
   -1.5367   -8.3754    2.7810 H   0  0  0  0  0  0  0  0  0  0  0  0
   -3.6768  -10.1758   -0.3434 H   0  0  0  0  0  0  0  0  0  0  0  0
   -2.2596  -12.1837   -0.2480 H   0  0  0  0  0  0  0  0  0  0  0  0
    4.4468  -13.4066   -2.6801 H   0  0  0  0  0  0  0  0  0  0  0  0
    7.2690  -13.5310   -5.7610 H   0  0  0  0  0  0  0  0  0  0  0  0
    7.4066  -15.9649   -6.7241 H   0  0  0  0  0  0  0  0  0  0  0  0
    8.1269  -17.1300   -8.8032 H   0  0  0  0  0  0  0  0  0  0  0  0
    8.1004  -15.9273  -10.9834 H   0  0  0  0  0  0  0  0  0  0  0  0
    6.6404  -12.3721   -8.9887 H   0  0  0  0  0  0  0  0  0  0  0  0
  1  2  2  0
  2  3  1  0
  3  4  1  0
  4  5  2  0
  5  6  1  0
  6  7  2  0
  7  8  1  0
  8  9  1  0
  9 10  2  0
 10 11  1  0
 11 12  1  0
 12 13  2  0
 13 14  1  0
 14 15  2  0
 15 16  1  0
 16 17  1  0
 17 18  1  0
 18 19  2  0
 19 20  1  0
 20 21  2  0
 21 22  1  0
 22 23  2  0
 16 24  2  0
  8 25  2  0
  2 26  1  0
 26 27  1  0
 27 28  2  0
 28 29  1  0
 29 30  2  0
 30 31  1  0
 31 32  1  0
 32 33  1  0
 32 34  1  0
 32 35  1  0
 31 36  2  0
 25  4  1  0
 36 27  1  0
 24  9  1  0
 15 11  1  0
 23 18  1  0
  3 37  1  0
  5 38  1  0
  6 39  1  0
  7 40  1  0
 10 41  1  0
 12 42  1  0
 13 43  1  0
 17 44  1  0
 19 45  1  0
 20 46  1  0
 22 47  1  0
 23 48  1  0
 25 49  1  0
 26 50  1  0
 28 51  1  0
 29 52  1  0
 30 53  1  0
 36 54  1  0
M  END
>  <meeko>  (2) 
{"is_sidechain": [false], "free_energy": -9.612, "intermolecular_energy": -12.402, "internal_energy": -0.893}

$$$$
LIB_JRMCNSWAKAFNPS__M_PUB_ALL__e8__s20260927
     RDKit          3D

 54 58  0  0  0  0  0  0  0  0999 V2000
    7.0670  -10.8930   -1.5390 O   0  0  0  0  0  0  0  0  0  0  0  0
    6.9570  -12.0730   -1.2310 C   0  0  0  0  0  0  0  0  0  0  0  0
    5.7670  -12.7890   -1.2370 N   0  0  0  0  0  0  0  0  0  0  0  0
    4.4940  -12.3470   -1.6560 C   0  0  0  0  0  0  0  0  0  0  0  0
    4.1610  -12.0510   -2.9770 C   0  0  0  0  0  0  0  0  0  0  0  0
    2.8670  -11.6370   -3.3040 C   0  0  0  0  0  0  0  0  0  0  0  0
    1.8950  -11.5100   -2.3120 C   0  0  0  0  0  0  0  0  0  0  0  0
    2.2060  -11.7870   -0.9760 C   0  0  0  0  0  0  0  0  0  0  0  0
    1.2010  -11.6780    0.1100 C   0  0  0  0  0  0  0  0  0  0  0  0
    0.6650  -10.4790    0.4200 C   0  0  0  0  0  0  0  0  0  0  0  0
   -0.2440  -10.4220    1.4530 N   0  0  0  0  0  0  0  0  0  0  0  0
   -0.9500   -9.3920    2.0070 C   0  0  0  0  0  0  0  0  0  0  0  0
   -1.6910   -9.9660    3.0190 C   0  0  0  0  0  0  0  0  0  0  0  0
   -1.4570  -11.3200    3.1020 N   0  0  0  0  0  0  0  0  0  0  0  0
   -0.5850  -11.5510    2.1420 C   0  0  0  0  0  0  0  0  0  0  0  0
    0.0190  -12.8260    1.7820 C   0  0  0  0  0  0  0  0  0  0  0  0
   -0.3400  -13.9420    2.5130 N   0  0  0  0  0  0  0  0  0  0  0  0
   -0.0040  -15.2940    2.3380 C   0  0  0  0  0  0  0  0  0  0  0  0
    1.0160  -15.8370    3.1260 C   0  0  0  0  0  0  0  0  0  0  0  0
    1.3870  -17.1610    2.9450 C   0  0  0  0  0  0  0  0  0  0  0  0
    0.8190  -17.9790    2.0380 N   0  0  0  0  0  0  0  0  0  0  0  0
   -0.1620  -17.4440    1.2830 C   0  0  0  0  0  0  0  0  0  0  0  0
   -0.5950  -16.1310    1.3920 C   0  0  0  0  0  0  0  0  0  0  0  0
    0.8860  -12.8450    0.7970 N   0  0  0  0  0  0  0  0  0  0  0  0
    3.5080  -12.2170   -0.6670 C   0  0  0  0  0  0  0  0  0  0  0  0
    8.0060  -12.8860   -0.8230 N   0  0  0  0  0  0  0  0  0  0  0  0
    9.3550  -12.5220   -0.6230 C   0  0  0  0  0  0  0  0  0  0  0  0
    9.7200  -12.1170    0.6690 C   0  0  0  0  0  0  0  0  0  0  0  0
   11.0330  -11.7400    0.9550 C   0  0  0  0  0  0  0  0  0  0  0  0
   11.9980  -11.7600   -0.0490 C   0  0  0  0  0  0  0  0  0  0  0  0
   11.6550  -12.1510   -1.3500 C   0  0  0  0  0  0  0  0  0  0  0  0
   12.6890  -12.1920   -2.4480 C   0  0  0  0  0  0  0  0  0  0  0  0
   13.7680  -11.4080   -2.1770 F   0  0  0  0  0  0  0  0  0  0  0  0
   13.1760  -13.4430   -2.6740 F   0  0  0  0  0  0  0  0  0  0  0  0
   12.2120  -11.7600   -3.6510 F   0  0  0  0  0  0  0  0  0  0  0  0
   10.3280  -12.5350   -1.6240 C   0  0  0  0  0  0  0  0  0  0  0  0
    5.8010  -13.7240   -0.8650 H   0  0  0  0  0  0  0  0  0  0  0  0
    4.9213  -12.1439   -3.7665 H   0  0  0  0  0  0  0  0  0  0  0  0
    2.6136  -11.4099   -4.3500 H   0  0  0  0  0  0  0  0  0  0  0  0
    0.8776  -11.1901   -2.5814 H   0  0  0  0  0  0  0  0  0  0  0  0
    0.9462   -9.5728   -0.1366 H   0  0  0  0  0  0  0  0  0  0  0  0
   -0.9315   -8.3330    1.7100 H   0  0  0  0  0  0  0  0  0  0  0  0
   -2.3798   -9.4133    3.6748 H   0  0  0  0  0  0  0  0  0  0  0  0
   -0.9750  -13.7410    3.2800 H   0  0  0  0  0  0  0  0  0  0  0  0
    1.5200  -15.2187    3.8834 H   0  0  0  0  0  0  0  0  0  0  0  0
    2.1904  -17.5660    3.5778 H   0  0  0  0  0  0  0  0  0  0  0  0
   -0.6482  -18.0880    0.5354 H   0  0  0  0  0  0  0  0  0  0  0  0
   -1.3960  -15.7538    0.7393 H   0  0  0  0  0  0  0  0  0  0  0  0
    3.7599  -12.4575    0.3764 H   0  0  0  0  0  0  0  0  0  0  0  0
    7.7930  -13.8620   -0.6940 H   0  0  0  0  0  0  0  0  0  0  0  0
    8.9626  -12.0962    1.4664 H   0  0  0  0  0  0  0  0  0  0  0  0
   11.3057  -11.4270    1.9736 H   0  0  0  0  0  0  0  0  0  0  0  0
   13.0334  -11.4677    0.1803 H   0  0  0  0  0  0  0  0  0  0  0  0
   10.0542  -12.8498   -2.6418 H   0  0  0  0  0  0  0  0  0  0  0  0
  1  2  2  0
  2  3  1  0
  3  4  1  0
  4  5  2  0
  5  6  1  0
  6  7  2  0
  7  8  1  0
  8  9  1  0
  9 10  2  0
 10 11  1  0
 11 12  1  0
 12 13  2  0
 13 14  1  0
 14 15  2  0
 15 16  1  0
 16 17  1  0
 17 18  1  0
 18 19  2  0
 19 20  1  0
 20 21  2  0
 21 22  1  0
 22 23  2  0
 16 24  2  0
  8 25  2  0
  2 26  1  0
 26 27  1  0
 27 28  2  0
 28 29  1  0
 29 30  2  0
 30 31  1  0
 31 32  1  0
 32 33  1  0
 32 34  1  0
 32 35  1  0
 31 36  2  0
 25  4  1  0
 36 27  1  0
 24  9  1  0
 15 11  1  0
 23 18  1  0
  3 37  1  0
  5 38  1  0
  6 39  1  0
  7 40  1  0
 10 41  1  0
 12 42  1  0
 13 43  1  0
 17 44  1  0
 19 45  1  0
 20 46  1  0
 22 47  1  0
 23 48  1  0
 25 49  1  0
 26 50  1  0
 28 51  1  0
 29 52  1  0
 30 53  1  0
 36 54  1  0
M  END
>  <meeko>  (3) 
{"is_sidechain": [false], "free_energy": -9.349, "intermolecular_energy": -11.904, "internal_energy": -1.052}

$$$$
LIB_JRMCNSWAKAFNPS__M_PUB_ALL__e8__s20260927
     RDKit          3D

 54 58  0  0  0  0  0  0  0  0999 V2000
    7.2100  -11.1050   -2.0620 O   0  0  0  0  0  0  0  0  0  0  0  0
    7.1360  -12.2380   -2.5180 C   0  0  0  0  0  0  0  0  0  0  0  0
    5.9520  -12.8950   -2.8290 N   0  0  0  0  0  0  0  0  0  0  0  0
    4.6370  -12.3870   -2.7590 C   0  0  0  0  0  0  0  0  0  0  0  0
    4.2140  -11.2150   -3.3850 C   0  0  0  0  0  0  0  0  0  0  0  0
    2.8850  -10.7960   -3.2760 C   0  0  0  0  0  0  0  0  0  0  0  0
    1.9680  -11.5430   -2.5360 C   0  0  0  0  0  0  0  0  0  0  0  0
    2.3700  -12.7150   -1.8860 C   0  0  0  0  0  0  0  0  0  0  0  0
    1.4260  -13.5470   -1.1000 C   0  0  0  0  0  0  0  0  0  0  0  0
    1.5140  -14.8940   -1.1410 C   0  0  0  0  0  0  0  0  0  0  0  0
    0.5990  -15.6250   -0.4170 N   0  0  0  0  0  0  0  0  0  0  0  0
    0.4140  -16.9690   -0.2510 C   0  0  0  0  0  0  0  0  0  0  0  0
   -0.6750  -17.0820    0.5870 C   0  0  0  0  0  0  0  0  0  0  0  0
   -1.1650  -15.8450    0.9390 N   0  0  0  0  0  0  0  0  0  0  0  0
   -0.3690  -14.9990    0.3160 C   0  0  0  0  0  0  0  0  0  0  0  0
   -0.4350  -13.5450    0.3310 C   0  0  0  0  0  0  0  0  0  0  0  0
   -1.4370  -12.9500    1.0730 N   0  0  0  0  0  0  0  0  0  0  0  0
   -1.6860  -11.5960    1.3490 C   0  0  0  0  0  0  0  0  0  0  0  0
   -1.2500  -11.0720    2.5710 C   0  0  0  0  0  0  0  0  0  0  0  0
   -1.5160   -9.7450    2.8770 C   0  0  0  0  0  0  0  0  0  0  0  0
   -2.1830   -8.9080    2.0610 N   0  0  0  0  0  0  0  0  0  0  0  0
   -2.5990   -9.4250    0.8860 C   0  0  0  0  0  0  0  0  0  0  0  0
   -2.3820  -10.7390    0.4980 C   0  0  0  0  0  0  0  0  0  0  0  0
    0.4480  -12.8770   -0.3740 N   0  0  0  0  0  0  0  0  0  0  0  0
    3.7060  -13.1300   -2.0180 C   0  0  0  0  0  0  0  0  0  0  0  0
    8.2250  -13.0530   -2.7970 N   0  0  0  0  0  0  0  0  0  0  0  0
    9.5900  -12.7820   -2.5620 C   0  0  0  0  0  0  0  0  0  0  0  0
   10.4340  -12.7520   -3.6810 C   0  0  0  0  0  0  0  0  0  0  0  0
   11.7990  -12.4910   -3.5400 C   0  0  0  0  0  0  0  0  0  0  0  0
   12.3370  -12.2610   -2.2760 C   0  0  0  0  0  0  0  0  0  0  0  0
   11.5140  -12.2960   -1.1420 C   0  0  0  0  0  0  0  0  0  0  0  0
   12.0770  -12.0370    0.2340 C   0  0  0  0  0  0  0  0  0  0  0  0
   13.2690  -11.3820    0.1950 F   0  0  0  0  0  0  0  0  0  0  0  0
   11.2540  -11.2800    1.0110 F   0  0  0  0  0  0  0  0  0  0  0  0
   12.3050  -13.1780    0.9450 F   0  0  0  0  0  0  0  0  0  0  0  0
   10.1400  -12.5540   -1.2990 C   0  0  0  0  0  0  0  0  0  0  0  0
    6.0290  -13.8610   -3.1020 H   0  0  0  0  0  0  0  0  0  0  0  0
    4.9301  -10.6170   -3.9678 H   0  0  0  0  0  0  0  0  0  0  0  0
    2.5602   -9.8719   -3.7766 H   0  0  0  0  0  0  0  0  0  0  0  0
    0.9226  -11.2085   -2.4631 H   0  0  0  0  0  0  0  0  0  0  0  0
    2.2938  -15.3925   -1.7354 H   0  0  0  0  0  0  0  0  0  0  0  0
    1.0063  -17.7847   -0.6911 H   0  0  0  0  0  0  0  0  0  0  0  0
   -1.0978  -18.0378    0.9301 H   0  0  0  0  0  0  0  0  0  0  0  0
   -2.0720  -13.6130    1.5070 H   0  0  0  0  0  0  0  0  0  0  0  0
   -0.7013  -11.7064    3.2827 H   0  0  0  0  0  0  0  0  0  0  0  0
   -1.1612   -9.3546    3.8422 H   0  0  0  0  0  0  0  0  0  0  0  0
   -3.1428   -8.7648    0.1943 H   0  0  0  0  0  0  0  0  0  0  0  0
   -2.7553  -11.1010   -0.4713 H   0  0  0  0  0  0  0  0  0  0  0  0
    4.0297  -14.0603   -1.5283 H   0  0  0  0  0  0  0  0  0  0  0  0
    8.0260  -13.9240   -3.2620 H   0  0  0  0  0  0  0  0  0  0  0  0
   10.0164  -12.9362   -4.6818 H   0  0  0  0  0  0  0  0  0  0  0  0
   12.4490  -12.4671   -4.4271 H   0  0  0  0  0  0  0  0  0  0  0  0
   13.4113  -12.0512   -2.1674 H   0  0  0  0  0  0  0  0  0  0  0  0
    9.4887  -12.5765   -0.4128 H   0  0  0  0  0  0  0  0  0  0  0  0
  1  2  2  0
  2  3  1  0
  3  4  1  0
  4  5  2  0
  5  6  1  0
  6  7  2  0
  7  8  1  0
  8  9  1  0
  9 10  2  0
 10 11  1  0
 11 12  1  0
 12 13  2  0
 13 14  1  0
 14 15  2  0
 15 16  1  0
 16 17  1  0
 17 18  1  0
 18 19  2  0
 19 20  1  0
 20 21  2  0
 21 22  1  0
 22 23  2  0
 16 24  2  0
  8 25  2  0
  2 26  1  0
 26 27  1  0
 27 28  2  0
 28 29  1  0
 29 30  2  0
 30 31  1  0
 31 32  1  0
 32 33  1  0
 32 34  1  0
 32 35  1  0
 31 36  2  0
 25  4  1  0
 36 27  1  0
 24  9  1  0
 15 11  1  0
 23 18  1  0
  3 37  1  0
  5 38  1  0
  6 39  1  0
  7 40  1  0
 10 41  1  0
 12 42  1  0
 13 43  1  0
 17 44  1  0
 19 45  1  0
 20 46  1  0
 22 47  1  0
 23 48  1  0
 25 49  1  0
 26 50  1  0
 28 51  1  0
 29 52  1  0
 30 53  1  0
 36 54  1  0
M  END
>  <meeko>  (4) 
{"is_sidechain": [false], "free_energy": -9.24, "intermolecular_energy": -11.959, "internal_energy": -0.855}

$$$$
LIB_JRMCNSWAKAFNPS__M_PUB_ALL__e8__s20260927
     RDKit          3D

 54 58  0  0  0  0  0  0  0  0999 V2000
  -14.3340   -9.5970   -7.0470 O   0  0  0  0  0  0  0  0  0  0  0  0
  -13.4600   -8.9210   -7.5720 C   0  0  0  0  0  0  0  0  0  0  0  0
  -12.6350   -9.3490   -8.6040 N   0  0  0  0  0  0  0  0  0  0  0  0
  -12.6800  -10.5810   -9.2920 C   0  0  0  0  0  0  0  0  0  0  0  0
  -13.3440  -10.7810  -10.5010 C   0  0  0  0  0  0  0  0  0  0  0  0
  -13.3190  -12.0330  -11.1220 C   0  0  0  0  0  0  0  0  0  0  0  0
  -12.6340  -13.0980  -10.5360 C   0  0  0  0  0  0  0  0  0  0  0  0
  -11.9710  -12.9270   -9.3150 C   0  0  0  0  0  0  0  0  0  0  0  0
  -11.2180  -14.0270   -8.6640 C   0  0  0  0  0  0  0  0  0  0  0  0
   -9.8900  -14.1540   -8.8680 C   0  0  0  0  0  0  0  0  0  0  0  0
   -9.2390  -15.2060   -8.2640 N   0  0  0  0  0  0  0  0  0  0  0  0
   -7.9330  -15.6100   -8.2700 C   0  0  0  0  0  0  0  0  0  0  0  0
   -7.9030  -16.7410   -7.4810 C   0  0  0  0  0  0  0  0  0  0  0  0
   -9.1540  -17.0430   -6.9930 N   0  0  0  0  0  0  0  0  0  0  0  0
   -9.9240  -16.0940   -7.4850 C   0  0  0  0  0  0  0  0  0  0  0  0
  -11.3580  -15.9280   -7.2930 C   0  0  0  0  0  0  0  0  0  0  0  0
  -12.0180  -16.8550   -6.5100 N   0  0  0  0  0  0  0  0  0  0  0  0
  -13.3520  -16.8970   -6.0760 C   0  0  0  0  0  0  0  0  0  0  0  0
  -13.6070  -16.9690   -4.7020 C   0  0  0  0  0  0  0  0  0  0  0  0
  -14.9170  -17.0460   -4.2540 C   0  0  0  0  0  0  0  0  0  0  0  0
  -15.9870  -17.0590   -5.0720 N   0  0  0  0  0  0  0  0  0  0  0  0
  -15.7290  -16.9900   -6.3930 C   0  0  0  0  0  0  0  0  0  0  0  0
  -14.4530  -16.9160   -6.9310 C   0  0  0  0  0  0  0  0  0  0  0  0
  -11.9500  -14.9180   -7.8870 N   0  0  0  0  0  0  0  0  0  0  0  0
  -11.9930  -11.6580   -8.7130 C   0  0  0  0  0  0  0  0  0  0  0  0
  -13.1490   -7.6140   -7.2180 N   0  0  0  0  0  0  0  0  0  0  0  0
  -13.7090   -6.8440   -6.1770 C   0  0  0  0  0  0  0  0  0  0  0  0
  -14.4420   -5.7080   -6.5490 C   0  0  0  0  0  0  0  0  0  0  0  0
  -15.0300   -4.8890   -5.5840 C   0  0  0  0  0  0  0  0  0  0  0  0
  -14.8890   -5.1940   -4.2330 C   0  0  0  0  0  0  0  0  0  0  0  0
  -14.1520   -6.3180   -3.8360 C   0  0  0  0  0  0  0  0  0  0  0  0
  -14.0000   -6.6720   -2.3770 C   0  0  0  0  0  0  0  0  0  0  0  0
  -12.9170   -6.0780   -1.8060 F   0  0  0  0  0  0  0  0  0  0  0  0
  -15.0740   -6.3030   -1.6250 F   0  0  0  0  0  0  0  0  0  0  0  0
  -13.8440   -8.0100   -2.1620 F   0  0  0  0  0  0  0  0  0  0  0  0
  -13.5690   -7.1390   -4.8190 C   0  0  0  0  0  0  0  0  0  0  0  0
  -11.8910   -8.7280   -8.8760 H   0  0  0  0  0  0  0  0  0  0  0  0
  -13.8907   -9.9491  -10.9690 H   0  0  0  0  0  0  0  0  0  0  0  0
  -13.8424  -12.1795  -12.0783 H   0  0  0  0  0  0  0  0  0  0  0  0
  -12.6148  -14.0775  -11.0363 H   0  0  0  0  0  0  0  0  0  0  0  0
   -9.3434  -13.4375   -9.4988 H   0  0  0  0  0  0  0  0  0  0  0  0
   -7.0885  -15.1356   -8.7914 H   0  0  0  0  0  0  0  0  0  0  0  0
   -6.9960  -17.3262   -7.2691 H   0  0  0  0  0  0  0  0  0  0  0  0
  -11.4220  -17.6080   -6.1780 H   0  0  0  0  0  0  0  0  0  0  0  0
  -12.7747  -16.9646   -3.9828 H   0  0  0  0  0  0  0  0  0  0  0  0
  -15.0923  -17.0995   -3.1694 H   0  0  0  0  0  0  0  0  0  0  0  0
  -16.5826  -16.9925   -7.0868 H   0  0  0  0  0  0  0  0  0  0  0  0
  -14.3111  -16.8727   -8.0209 H   0  0  0  0  0  0  0  0  0  0  0  0
  -11.4582  -11.5052   -7.7640 H   0  0  0  0  0  0  0  0  0  0  0  0
  -12.4740   -7.1420   -7.7980 H   0  0  0  0  0  0  0  0  0  0  0  0
  -14.5550   -5.4593   -7.6145 H   0  0  0  0  0  0  0  0  0  0  0  0
  -15.6047   -4.0027   -5.8908 H   0  0  0  0  0  0  0  0  0  0  0  0
  -15.3579   -4.5503   -3.4742 H   0  0  0  0  0  0  0  0  0  0  0  0
  -12.9947   -8.0260   -4.5134 H   0  0  0  0  0  0  0  0  0  0  0  0
  1  2  2  0
  2  3  1  0
  3  4  1  0
  4  5  2  0
  5  6  1  0
  6  7  2  0
  7  8  1  0
  8  9  1  0
  9 10  2  0
 10 11  1  0
 11 12  1  0
 12 13  2  0
 13 14  1  0
 14 15  2  0
 15 16  1  0
 16 17  1  0
 17 18  1  0
 18 19  2  0
 19 20  1  0
 20 21  2  0
 21 22  1  0
 22 23  2  0
 16 24  2  0
  8 25  2  0
  2 26  1  0
 26 27  1  0
 27 28  2  0
 28 29  1  0
 29 30  2  0
 30 31  1  0
 31 32  1  0
 32 33  1  0
 32 34  1  0
 32 35  1  0
 31 36  2  0
 25  4  1  0
 36 27  1  0
 24  9  1  0
 15 11  1  0
 23 18  1  0
  3 37  1  0
  5 38  1  0
  6 39  1  0
  7 40  1  0
 10 41  1  0
 12 42  1  0
 13 43  1  0
 17 44  1  0
 19 45  1  0
 20 46  1  0
 22 47  1  0
 23 48  1  0
 25 49  1  0
 26 50  1  0
 28 51  1  0
 29 52  1  0
 30 53  1  0
 36 54  1  0
M  END
>  <meeko>  (5) 
{"is_sidechain": [false], "free_energy": -9.234, "intermolecular_energy": -11.909, "internal_energy": -0.898}

$$$$
LIB_JRMCNSWAKAFNPS__M_PUB_ALL__e8__s20260927
     RDKit          3D

 54 58  0  0  0  0  0  0  0  0999 V2000
    7.1110  -10.7660   -2.4740 O   0  0  0  0  0  0  0  0  0  0  0  0
    6.8760  -11.9530   -2.2940 C   0  0  0  0  0  0  0  0  0  0  0  0
    5.6050  -12.5090   -2.2110 N   0  0  0  0  0  0  0  0  0  0  0  0
    4.3640  -11.8580   -2.3840 C   0  0  0  0  0  0  0  0  0  0  0  0
    3.9950  -11.1650   -3.5350 C   0  0  0  0  0  0  0  0  0  0  0  0
    2.7360  -10.5660   -3.6270 C   0  0  0  0  0  0  0  0  0  0  0  0
    1.8350  -10.6500   -2.5640 C   0  0  0  0  0  0  0  0  0  0  0  0
    2.1860  -11.3290   -1.3910 C   0  0  0  0  0  0  0  0  0  0  0  0
    1.2550  -11.4560   -0.2430 C   0  0  0  0  0  0  0  0  0  0  0  0
    0.6000  -10.3710    0.2220 C   0  0  0  0  0  0  0  0  0  0  0  0
   -0.2320  -10.5330    1.3070 N   0  0  0  0  0  0  0  0  0  0  0  0
   -1.0180   -9.6600    2.0060 C   0  0  0  0  0  0  0  0  0  0  0  0
   -1.6080  -10.4200    2.9950 C   0  0  0  0  0  0  0  0  0  0  0  0
   -1.2050  -11.7330    2.9220 N   0  0  0  0  0  0  0  0  0  0  0  0
   -0.3820  -11.7570    1.8930 C   0  0  0  0  0  0  0  0  0  0  0  0
    0.3470  -12.9030    1.3670 C   0  0  0  0  0  0  0  0  0  0  0  0
    0.1800  -14.1210    1.9970 N   0  0  0  0  0  0  0  0  0  0  0  0
    0.6660  -15.3940    1.6620 C   0  0  0  0  0  0  0  0  0  0  0  0
    1.9960  -15.7040    1.9660 C   0  0  0  0  0  0  0  0  0  0  0  0
    2.5050  -16.9450    1.6130 C   0  0  0  0  0  0  0  0  0  0  0  0
    1.7900  -17.8940    0.9790 N   0  0  0  0  0  0  0  0  0  0  0  0
    0.5100  -17.5840    0.6910 C   0  0  0  0  0  0  0  0  0  0  0  0
   -0.0820  -16.3680    1.0010 C   0  0  0  0  0  0  0  0  0  0  0  0
    1.1360  -12.7150    0.3350 N   0  0  0  0  0  0  0  0  0  0  0  0
    3.4510  -11.9380   -1.3230 C   0  0  0  0  0  0  0  0  0  0  0  0
    7.8420  -12.9390   -2.1430 N   0  0  0  0  0  0  0  0  0  0  0  0
    9.2430  -12.7770   -2.1020 C   0  0  0  0  0  0  0  0  0  0  0  0
    9.9240  -12.8070   -3.3260 C   0  0  0  0  0  0  0  0  0  0  0  0
   11.3110  -12.6550   -3.3770 C   0  0  0  0  0  0  0  0  0  0  0  0
   12.0350  -12.4740   -2.2020 C   0  0  0  0  0  0  0  0  0  0  0  0
   11.3770  -12.4510   -0.9640 C   0  0  0  0  0  0  0  0  0  0  0  0
   12.1440  -12.2430    0.3190 C   0  0  0  0  0  0  0  0  0  0  0  0
   11.4160  -11.5850    1.2610 F   0  0  0  0  0  0  0  0  0  0  0  0
   12.5430  -13.4100    0.8960 F   0  0  0  0  0  0  0  0  0  0  0  0
   13.2820  -11.5090    0.1510 F   0  0  0  0  0  0  0  0  0  0  0  0
    9.9780  -12.5990   -0.9280 C   0  0  0  0  0  0  0  0  0  0  0  0
    5.5530  -13.4820   -1.9600 H   0  0  0  0  0  0  0  0  0  0  0  0
    4.6992  -11.0890   -4.3766 H   0  0  0  0  0  0  0  0  0  0  0  0
    2.4532  -10.0252   -4.5422 H   0  0  0  0  0  0  0  0  0  0  0  0
    0.8440  -10.1802   -2.6484 H   0  0  0  0  0  0  0  0  0  0  0  0
    0.7272   -9.3865   -0.2520 H   0  0  0  0  0  0  0  0  0  0  0  0
   -1.1513   -8.5840    1.8202 H   0  0  0  0  0  0  0  0  0  0  0  0
   -2.3100  -10.0266    3.7450 H   0  0  0  0  0  0  0  0  0  0  0  0
   -0.4180  -14.0780    2.8170 H   0  0  0  0  0  0  0  0  0  0  0  0
    2.6328  -14.9695    2.4808 H   0  0  0  0  0  0  0  0  0  0  0  0
    3.5525  -17.1668    1.8653 H   0  0  0  0  0  0  0  0  0  0  0  0
   -0.1023  -18.3411    0.1792 H   0  0  0  0  0  0  0  0  0  0  0  0
   -1.1299  -16.1743    0.7284 H   0  0  0  0  0  0  0  0  0  0  0  0
    3.7317  -12.4912   -0.4146 H   0  0  0  0  0  0  0  0  0  0  0  0
    7.5100  -13.8890   -2.1010 H   0  0  0  0  0  0  0  0  0  0  0  0
    9.3589  -12.9521   -4.2585 H   0  0  0  0  0  0  0  0  0  0  0  0
   11.8316  -12.6783   -4.3457 H   0  0  0  0  0  0  0  0  0  0  0  0
   13.1270  -12.3486   -2.2448 H   0  0  0  0  0  0  0  0  0  0  0  0
    9.4554  -12.5741    0.0396 H   0  0  0  0  0  0  0  0  0  0  0  0
  1  2  2  0
  2  3  1  0
  3  4  1  0
  4  5  2  0
  5  6  1  0
  6  7  2  0
  7  8  1  0
  8  9  1  0
  9 10  2  0
 10 11  1  0
 11 12  1  0
 12 13  2  0
 13 14  1  0
 14 15  2  0
 15 16  1  0
 16 17  1  0
 17 18  1  0
 18 19  2  0
 19 20  1  0
 20 21  2  0
 21 22  1  0
 22 23  2  0
 16 24  2  0
  8 25  2  0
  2 26  1  0
 26 27  1  0
 27 28  2  0
 28 29  1  0
 29 30  2  0
 30 31  1  0
 31 32  1  0
 32 33  1  0
 32 34  1  0
 32 35  1  0
 31 36  2  0
 25  4  1  0
 36 27  1  0
 24  9  1  0
 15 11  1  0
 23 18  1  0
  3 37  1  0
  5 38  1  0
  6 39  1  0
  7 40  1  0
 10 41  1  0
 12 42  1  0
 13 43  1  0
 17 44  1  0
 19 45  1  0
 20 46  1  0
 22 47  1  0
 23 48  1  0
 25 49  1  0
 26 50  1  0
 28 51  1  0
 29 52  1  0
 30 53  1  0
 36 54  1  0
M  END
>  <meeko>  (6) 
{"is_sidechain": [false], "free_energy": -9.003, "intermolecular_energy": -11.542, "internal_energy": -0.966}

$$$$
LIB_JRMCNSWAKAFNPS__M_PUB_ALL__e8__s20260927
     RDKit          3D

 54 58  0  0  0  0  0  0  0  0999 V2000
    5.6030  -11.4910   -7.5320 O   0  0  0  0  0  0  0  0  0  0  0  0
    5.4890  -12.6820   -7.2790 C   0  0  0  0  0  0  0  0  0  0  0  0
    4.7810  -13.2020   -6.2030 N   0  0  0  0  0  0  0  0  0  0  0  0
    4.0090  -12.4970   -5.2540 C   0  0  0  0  0  0  0  0  0  0  0  0
    3.7780  -11.1230   -5.2950 C   0  0  0  0  0  0  0  0  0  0  0  0
    2.9840  -10.5110   -4.3210 C   0  0  0  0  0  0  0  0  0  0  0  0
    2.4170  -11.2670   -3.2940 C   0  0  0  0  0  0  0  0  0  0  0  0
    2.6450  -12.6460   -3.2220 C   0  0  0  0  0  0  0  0  0  0  0  0
    2.0520  -13.4910   -2.1570 C   0  0  0  0  0  0  0  0  0  0  0  0
    2.2070  -14.8310   -2.1900 C   0  0  0  0  0  0  0  0  0  0  0  0
    1.6160  -15.5770   -1.1950 N   0  0  0  0  0  0  0  0  0  0  0  0
    1.5790  -16.9210   -0.9450 C   0  0  0  0  0  0  0  0  0  0  0  0
    0.8190  -17.0530    0.1980 C   0  0  0  0  0  0  0  0  0  0  0  0
    0.3870  -15.8290    0.6550 N   0  0  0  0  0  0  0  0  0  0  0  0
    0.8910  -14.9710   -0.2080 C   0  0  0  0  0  0  0  0  0  0  0  0
    0.7410  -13.5230   -0.2100 C   0  0  0  0  0  0  0  0  0  0  0  0
   -0.0120  -12.9490    0.7960 N   0  0  0  0  0  0  0  0  0  0  0  0
   -0.2470  -11.6000    1.1030 C   0  0  0  0  0  0  0  0  0  0  0  0
   -1.4710  -11.2490    1.6830 C   0  0  0  0  0  0  0  0  0  0  0  0
   -1.7350   -9.9160    1.9620 C   0  0  0  0  0  0  0  0  0  0  0  0
   -0.8750   -8.9130    1.7050 N   0  0  0  0  0  0  0  0  0  0  0  0
    0.3010   -9.2640    1.1450 C   0  0  0  0  0  0  0  0  0  0  0  0
    0.6490  -10.5680    0.8280 C   0  0  0  0  0  0  0  0  0  0  0  0
    1.3120  -12.8420   -1.1750 N   0  0  0  0  0  0  0  0  0  0  0  0
    3.4330  -13.2480   -4.2180 C   0  0  0  0  0  0  0  0  0  0  0  0
    6.0510  -13.7090   -8.0250 N   0  0  0  0  0  0  0  0  0  0  0  0
    6.8940  -13.5980   -9.1520 C   0  0  0  0  0  0  0  0  0  0  0  0
    6.2810  -13.6400  -10.4110 C   0  0  0  0  0  0  0  0  0  0  0  0
    7.0390  -13.5370  -11.5790 C   0  0  0  0  0  0  0  0  0  0  0  0
    8.4220  -13.3940  -11.5010 C   0  0  0  0  0  0  0  0  0  0  0  0
    9.0590  -13.3600  -10.2530 C   0  0  0  0  0  0  0  0  0  0  0  0
   10.5550  -13.1920  -10.1480 C   0  0  0  0  0  0  0  0  0  0  0  0
   11.2360  -14.1390  -10.8490 F   0  0  0  0  0  0  0  0  0  0  0  0
   10.9890  -11.9890  -10.6150 F   0  0  0  0  0  0  0  0  0  0  0  0
   11.0160  -13.2770   -8.8670 F   0  0  0  0  0  0  0  0  0  0  0  0
    8.2820  -13.4580   -9.0830 C   0  0  0  0  0  0  0  0  0  0  0  0
    4.8500  -14.1950   -6.0530 H   0  0  0  0  0  0  0  0  0  0  0  0
    4.2229  -10.5171   -6.0981 H   0  0  0  0  0  0  0  0  0  0  0  0
    2.8049   -9.4265   -4.3642 H   0  0  0  0  0  0  0  0  0  0  0  0
    1.7875  -10.7764   -2.5370 H   0  0  0  0  0  0  0  0  0  0  0  0
    2.7889  -15.3136   -2.9890 H   0  0  0  0  0  0  0  0  0  0  0  0
    2.0530  -17.7233   -1.5294 H   0  0  0  0  0  0  0  0  0  0  0  0
    0.5878  -18.0132    0.6822 H   0  0  0  0  0  0  0  0  0  0  0  0
   -0.4350  -13.6250    1.4260 H   0  0  0  0  0  0  0  0  0  0  0  0
   -2.2172  -12.0230    1.9156 H   0  0  0  0  0  0  0  0  0  0  0  0
   -2.7030   -9.6642    2.4197 H   0  0  0  0  0  0  0  0  0  0  0  0
    1.0276   -8.4675    0.9267 H   0  0  0  0  0  0  0  0  0  0  0  0
    1.6223  -10.7861    0.3642 H   0  0  0  0  0  0  0  0  0  0  0  0
    3.6023  -14.3344   -4.1846 H   0  0  0  0  0  0  0  0  0  0  0  0
    5.7960  -14.6470   -7.7610 H   0  0  0  0  0  0  0  0  0  0  0  0
    5.1893  -13.7555  -10.4802 H   0  0  0  0  0  0  0  0  0  0  0  0
    6.5438  -13.5688  -12.5607 H   0  0  0  0  0  0  0  0  0  0  0  0
    9.0167  -13.3074  -12.4223 H   0  0  0  0  0  0  0  0  0  0  0  0
    8.7752  -13.4238   -8.1003 H   0  0  0  0  0  0  0  0  0  0  0  0
  1  2  2  0
  2  3  1  0
  3  4  1  0
  4  5  2  0
  5  6  1  0
  6  7  2  0
  7  8  1  0
  8  9  1  0
  9 10  2  0
 10 11  1  0
 11 12  1  0
 12 13  2  0
 13 14  1  0
 14 15  2  0
 15 16  1  0
 16 17  1  0
 17 18  1  0
 18 19  2  0
 19 20  1  0
 20 21  2  0
 21 22  1  0
 22 23  2  0
 16 24  2  0
  8 25  2  0
  2 26  1  0
 26 27  1  0
 27 28  2  0
 28 29  1  0
 29 30  2  0
 30 31  1  0
 31 32  1  0
 32 33  1  0
 32 34  1  0
 32 35  1  0
 31 36  2  0
 25  4  1  0
 36 27  1  0
 24  9  1  0
 15 11  1  0
 23 18  1  0
  3 37  1  0
  5 38  1  0
  6 39  1  0
  7 40  1  0
 10 41  1  0
 12 42  1  0
 13 43  1  0
 17 44  1  0
 19 45  1  0
 20 46  1  0
 22 47  1  0
 23 48  1  0
 25 49  1  0
 26 50  1  0
 28 51  1  0
 29 52  1  0
 30 53  1  0
 36 54  1  0
M  END
>  <meeko>  (7) 
{"is_sidechain": [false], "free_energy": -8.962, "intermolecular_energy": -12.154, "internal_energy": -0.301}

$$$$
LIB_JRMCNSWAKAFNPS__M_PUB_ALL__e8__s20260927
     RDKit          3D

 54 58  0  0  0  0  0  0  0  0999 V2000
   -0.5300  -15.1480    3.9160 O   0  0  0  0  0  0  0  0  0  0  0  0
   -0.9910  -15.9860    3.1520 C   0  0  0  0  0  0  0  0  0  0  0  0
   -0.3650  -16.4390    1.9980 N   0  0  0  0  0  0  0  0  0  0  0  0
    0.9190  -16.0990    1.5190 C   0  0  0  0  0  0  0  0  0  0  0  0
    2.0830  -16.7980    1.8310 C   0  0  0  0  0  0  0  0  0  0  0  0
    3.3120  -16.4000    1.2970 C   0  0  0  0  0  0  0  0  0  0  0  0
    3.3870  -15.2940    0.4480 C   0  0  0  0  0  0  0  0  0  0  0  0
    2.2350  -14.5660    0.1300 C   0  0  0  0  0  0  0  0  0  0  0  0
    2.2660  -13.3930   -0.7780 C   0  0  0  0  0  0  0  0  0  0  0  0
    3.0780  -13.3920   -1.8550 C   0  0  0  0  0  0  0  0  0  0  0  0
    3.0930  -12.2710   -2.6540 N   0  0  0  0  0  0  0  0  0  0  0  0
    3.7870  -11.9530   -3.7880 C   0  0  0  0  0  0  0  0  0  0  0  0
    3.3760  -10.6780   -4.1160 C   0  0  0  0  0  0  0  0  0  0  0  0
    2.4520  -10.2040   -3.2150 N   0  0  0  0  0  0  0  0  0  0  0  0
    2.3090  -11.1930   -2.3560 C   0  0  0  0  0  0  0  0  0  0  0  0
    1.4490  -11.2300   -1.1810 C   0  0  0  0  0  0  0  0  0  0  0  0
    0.6820  -10.1140   -0.9050 N   0  0  0  0  0  0  0  0  0  0  0  0
   -0.2930   -9.9000    0.0810 C   0  0  0  0  0  0  0  0  0  0  0  0
   -1.6070  -10.3060   -0.1780 C   0  0  0  0  0  0  0  0  0  0  0  0
   -2.5920  -10.0730    0.7710 C   0  0  0  0  0  0  0  0  0  0  0  0
   -2.3650   -9.4650    1.9510 N   0  0  0  0  0  0  0  0  0  0  0  0
   -1.0960   -9.0770    2.1880 C   0  0  0  0  0  0  0  0  0  0  0  0
   -0.0490   -9.2650    1.2980 C   0  0  0  0  0  0  0  0  0  0  0  0
    1.4620  -12.3110   -0.4370 N   0  0  0  0  0  0  0  0  0  0  0  0
    1.0060  -14.9900    0.6650 C   0  0  0  0  0  0  0  0  0  0  0  0
   -2.2160  -16.6190    3.3150 N   0  0  0  0  0  0  0  0  0  0  0  0
   -3.1800  -16.3910    4.3200 C   0  0  0  0  0  0  0  0  0  0  0  0
   -2.9280  -16.9500    5.5810 C   0  0  0  0  0  0  0  0  0  0  0  0
   -3.8290  -16.7740    6.6330 C   0  0  0  0  0  0  0  0  0  0  0  0
   -4.9960  -16.0400    6.4360 C   0  0  0  0  0  0  0  0  0  0  0  0
   -5.2740  -15.4810    5.1810 C   0  0  0  0  0  0  0  0  0  0  0  0
   -6.5270  -14.6720    4.9520 C   0  0  0  0  0  0  0  0  0  0  0  0
   -6.4260  -13.8480    3.8740 F   0  0  0  0  0  0  0  0  0  0  0  0
   -7.6280  -15.4440    4.7380 F   0  0  0  0  0  0  0  0  0  0  0  0
   -6.8440  -13.8650    6.0050 F   0  0  0  0  0  0  0  0  0  0  0  0
   -4.3550  -15.6600    4.1310 C   0  0  0  0  0  0  0  0  0  0  0  0
   -0.8980  -17.0560    1.4060 H   0  0  0  0  0  0  0  0  0  0  0  0
    2.0347  -17.6685    2.5017 H   0  0  0  0  0  0  0  0  0  0  0  0
    4.2246  -16.9609    1.5469 H   0  0  0  0  0  0  0  0  0  0  0  0
    4.3575  -14.9931    0.0266 H   0  0  0  0  0  0  0  0  0  0  0  0
    3.7099  -14.2617   -2.0882 H   0  0  0  0  0  0  0  0  0  0  0  0
    4.5160  -12.5790   -4.3234 H   0  0  0  0  0  0  0  0  0  0  0  0
    3.7406  -10.1130   -4.9865 H   0  0  0  0  0  0  0  0  0  0  0  0
    0.8380   -9.3420   -1.5470 H   0  0  0  0  0  0  0  0  0  0  0  0
   -1.8567  -10.8055   -1.1257 H   0  0  0  0  0  0  0  0  0  0  0  0
   -3.6168  -10.4038    0.5467 H   0  0  0  0  0  0  0  0  0  0  0  0
   -0.8776   -8.5812    3.1453 H   0  0  0  0  0  0  0  0  0  0  0  0
    0.9636   -8.9167    1.5498 H   0  0  0  0  0  0  0  0  0  0  0  0
    0.0899  -14.4382    0.4074 H   0  0  0  0  0  0  0  0  0  0  0  0
   -2.4280  -17.3590    2.6650 H   0  0  0  0  0  0  0  0  0  0  0  0
   -2.0100  -17.5339    5.7433 H   0  0  0  0  0  0  0  0  0  0  0  0
   -3.6169  -17.2154    7.6180 H   0  0  0  0  0  0  0  0  0  0  0  0
   -5.7018  -15.8985    7.2678 H   0  0  0  0  0  0  0  0  0  0  0  0
   -4.5650  -15.2175    3.1461 H   0  0  0  0  0  0  0  0  0  0  0  0
  1  2  2  0
  2  3  1  0
  3  4  1  0
  4  5  2  0
  5  6  1  0
  6  7  2  0
  7  8  1  0
  8  9  1  0
  9 10  2  0
 10 11  1  0
 11 12  1  0
 12 13  2  0
 13 14  1  0
 14 15  2  0
 15 16  1  0
 16 17  1  0
 17 18  1  0
 18 19  2  0
 19 20  1  0
 20 21  2  0
 21 22  1  0
 22 23  2  0
 16 24  2  0
  8 25  2  0
  2 26  1  0
 26 27  1  0
 27 28  2  0
 28 29  1  0
 29 30  2  0
 30 31  1  0
 31 32  1  0
 32 33  1  0
 32 34  1  0
 32 35  1  0
 31 36  2  0
 25  4  1  0
 36 27  1  0
 24  9  1  0
 15 11  1  0
 23 18  1  0
  3 37  1  0
  5 38  1  0
  6 39  1  0
  7 40  1  0
 10 41  1  0
 12 42  1  0
 13 43  1  0
 17 44  1  0
 19 45  1  0
 20 46  1  0
 22 47  1  0
 23 48  1  0
 25 49  1  0
 26 50  1  0
 28 51  1  0
 29 52  1  0
 30 53  1  0
 36 54  1  0
M  END
>  <meeko>  (8) 
{"is_sidechain": [false], "free_energy": -8.887, "intermolecular_energy": -11.122, "internal_energy": -1.236}

$$$$
LIB_JRMCNSWAKAFNPS__M_PUB_ALL__e8__s20260927
     RDKit          3D

 54 58  0  0  0  0  0  0  0  0999 V2000
    1.6960  -14.5440   -1.6810 O   0  0  0  0  0  0  0  0  0  0  0  0
    2.6020  -14.1120   -0.9810 C   0  0  0  0  0  0  0  0  0  0  0  0
    2.9190  -14.5810    0.2870 N   0  0  0  0  0  0  0  0  0  0  0  0
    2.3360  -15.6650    0.9800 C   0  0  0  0  0  0  0  0  0  0  0  0
    2.9610  -16.8930    1.1850 C   0  0  0  0  0  0  0  0  0  0  0  0
    2.3140  -17.9050    1.8990 C   0  0  0  0  0  0  0  0  0  0  0  0
    1.0330  -17.6990    2.4110 C   0  0  0  0  0  0  0  0  0  0  0  0
    0.3760  -16.4800    2.2070 C   0  0  0  0  0  0  0  0  0  0  0  0
   -0.9800  -16.2110    2.7440 C   0  0  0  0  0  0  0  0  0  0  0  0
   -1.6410  -17.1710    3.4260 C   0  0  0  0  0  0  0  0  0  0  0  0
   -2.9080  -16.8860    3.8820 N   0  0  0  0  0  0  0  0  0  0  0  0
   -3.8240  -17.6180    4.5840 C   0  0  0  0  0  0  0  0  0  0  0  0
   -4.9130  -16.7850    4.7330 C   0  0  0  0  0  0  0  0  0  0  0  0
   -4.6920  -15.5640    4.1400 N   0  0  0  0  0  0  0  0  0  0  0  0
   -3.4760  -15.6660    3.6440 C   0  0  0  0  0  0  0  0  0  0  0  0
   -2.7340  -14.6590    2.9000 C   0  0  0  0  0  0  0  0  0  0  0  0
   -3.3480  -13.4430    2.6670 N   0  0  0  0  0  0  0  0  0  0  0  0
   -2.8530  -12.2700    2.0760 C   0  0  0  0  0  0  0  0  0  0  0  0
   -2.0090  -11.4460    2.8290 C   0  0  0  0  0  0  0  0  0  0  0  0
   -1.5370  -10.2650    2.2750 C   0  0  0  0  0  0  0  0  0  0  0  0
   -1.8440   -9.8470    1.0320 N   0  0  0  0  0  0  0  0  0  0  0  0
   -2.6580  -10.6490    0.3160 C   0  0  0  0  0  0  0  0  0  0  0  0
   -3.1810  -11.8440    0.7900 C   0  0  0  0  0  0  0  0  0  0  0  0
   -1.5300  -14.9640    2.4740 N   0  0  0  0  0  0  0  0  0  0  0  0
    1.0480  -15.4680    1.4990 C   0  0  0  0  0  0  0  0  0  0  0  0
    3.4590  -13.0800   -1.3400 N   0  0  0  0  0  0  0  0  0  0  0  0
    3.4270  -12.2990   -2.5150 C   0  0  0  0  0  0  0  0  0  0  0  0
    2.7130  -11.0940   -2.4590 C   0  0  0  0  0  0  0  0  0  0  0  0
    2.6290  -10.2600   -3.5750 C   0  0  0  0  0  0  0  0  0  0  0  0
    3.2570  -10.6230   -4.7640 C   0  0  0  0  0  0  0  0  0  0  0  0
    3.9680  -11.8280   -4.8470 C   0  0  0  0  0  0  0  0  0  0  0  0
    4.6660  -12.2310   -6.1230 C   0  0  0  0  0  0  0  0  0  0  0  0
    5.9990  -12.4360   -5.9460 F   0  0  0  0  0  0  0  0  0  0  0  0
    4.1730  -13.3820   -6.6580 F   0  0  0  0  0  0  0  0  0  0  0  0
    4.5630  -11.2940   -7.1100 F   0  0  0  0  0  0  0  0  0  0  0  0
    4.0500  -12.6560   -3.7130 C   0  0  0  0  0  0  0  0  0  0  0  0
    3.6230  -14.0710    0.7960 H   0  0  0  0  0  0  0  0  0  0  0  0
    3.9698  -17.0670    0.7824 H   0  0  0  0  0  0  0  0  0  0  0  0
    2.8179  -18.8698    2.0582 H   0  0  0  0  0  0  0  0  0  0  0  0
    0.5360  -18.4995    2.9786 H   0  0  0  0  0  0  0  0  0  0  0  0
   -1.1802  -18.1524    3.6117 H   0  0  0  0  0  0  0  0  0  0  0  0
   -3.7160  -18.6493    4.9511 H   0  0  0  0  0  0  0  0  0  0  0  0
   -5.8390  -17.0616    5.2584 H   0  0  0  0  0  0  0  0  0  0  0  0
   -4.3020  -13.3950    3.0110 H   0  0  0  0  0  0  0  0  0  0  0  0
   -1.7222  -11.7324    3.8516 H   0  0  0  0  0  0  0  0  0  0  0  0
   -0.8743   -9.6341    2.8856 H   0  0  0  0  0  0  0  0  0  0  0  0
   -2.9234  -10.3374   -0.7050 H   0  0  0  0  0  0  0  0  0  0  0  0
   -3.8475  -12.4487    0.1574 H   0  0  0  0  0  0  0  0  0  0  0  0
    0.5514  -14.4981    1.3485 H   0  0  0  0  0  0  0  0  0  0  0  0
    4.2220  -12.8920   -0.7100 H   0  0  0  0  0  0  0  0  0  0  0  0
    2.2127  -10.8021   -1.5239 H   0  0  0  0  0  0  0  0  0  0  0  0
    2.0670   -9.3163   -3.5155 H   0  0  0  0  0  0  0  0  0  0  0  0
    3.1948   -9.9618   -5.6409 H   0  0  0  0  0  0  0  0  0  0  0  0
    4.6133  -13.5990   -3.7705 H   0  0  0  0  0  0  0  0  0  0  0  0
  1  2  2  0
  2  3  1  0
  3  4  1  0
  4  5  2  0
  5  6  1  0
  6  7  2  0
  7  8  1  0
  8  9  1  0
  9 10  2  0
 10 11  1  0
 11 12  1  0
 12 13  2  0
 13 14  1  0
 14 15  2  0
 15 16  1  0
 16 17  1  0
 17 18  1  0
 18 19  2  0
 19 20  1  0
 20 21  2  0
 21 22  1  0
 22 23  2  0
 16 24  2  0
  8 25  2  0
  2 26  1  0
 26 27  1  0
 27 28  2  0
 28 29  1  0
 29 30  2  0
 30 31  1  0
 31 32  1  0
 32 33  1  0
 32 34  1  0
 32 35  1  0
 31 36  2  0
 25  4  1  0
 36 27  1  0
 24  9  1  0
 15 11  1  0
 23 18  1  0
  3 37  1  0
  5 38  1  0
  6 39  1  0
  7 40  1  0
 10 41  1  0
 12 42  1  0
 13 43  1  0
 17 44  1  0
 19 45  1  0
 20 46  1  0
 22 47  1  0
 23 48  1  0
 25 49  1  0
 26 50  1  0
 28 51  1  0
 29 52  1  0
 30 53  1  0
 36 54  1  0
M  END
>  <meeko>  (9) 
{"is_sidechain": [false], "free_energy": -8.864, "intermolecular_energy": -11.09, "internal_energy": -1.238}

$$$$
