LIB_RBGUOHBCKRTPMX__M_PUB_ALL__e8__s20260927
     RDKit          3D

 63 67  0  0  0  0  0  0  0  0999 V2000
   -3.1270  -11.2030    0.3040 C   0  0  0  0  0  0  0  0  0  0  0  0
   -3.0120  -11.0830    1.7820 N   0  0  0  0  0  0  0  0  0  0  0  0
   -3.1530  -12.3690    2.4940 C   0  0  0  0  0  0  0  0  0  0  0  0
   -1.5490  -10.3170    2.1560 S   0  0  0  0  0  0  0  0  0  0  0  0
   -1.7840   -8.9350    1.8240 O   0  0  0  0  0  0  0  0  0  0  0  0
   -1.3250  -10.7770    3.5060 O   0  0  0  0  0  0  0  0  0  0  0  0
   -0.2570  -10.9620    1.1330 C   0  0  0  0  0  0  0  0  0  0  0  0
    0.2080  -10.2060    0.0520 C   0  0  0  0  0  0  0  0  0  0  0  0
    1.2560  -10.7000   -0.7300 C   0  0  0  0  0  0  0  0  0  0  0  0
    1.8400  -11.9420   -0.4390 C   0  0  0  0  0  0  0  0  0  0  0  0
    2.9390  -12.4370   -1.2470 C   0  0  0  0  0  0  0  0  0  0  0  0
    4.2830  -12.6730   -0.9050 C   0  0  0  0  0  0  0  0  0  0  0  0
    5.0050  -13.1490   -1.9150 N   0  0  0  0  0  0  0  0  0  0  0  0
    4.1380  -13.2220   -2.9630 N   0  0  0  0  0  0  0  0  0  0  0  0
    4.3930  -13.6410   -4.2840 C   0  0  0  0  0  0  0  0  0  0  0  0
    5.7350  -14.0690   -4.7370 C   0  0  0  0  0  0  0  0  0  0  0  0
    5.8810  -15.0800   -5.6940 C   0  0  0  0  0  0  0  0  0  0  0  0
    7.1510  -15.4730   -6.1170 C   0  0  0  0  0  0  0  0  0  0  0  0
    8.2860  -14.8540   -5.5920 C   0  0  0  0  0  0  0  0  0  0  0  0
    8.1660  -13.8380   -4.6400 C   0  0  0  0  0  0  0  0  0  0  0  0
    9.3580  -13.2570   -4.1560 N   0  0  0  0  0  0  0  0  0  0  0  0
   10.1930  -13.7580   -3.1730 C   0  0  0  0  0  0  0  0  0  0  0  0
    9.9930  -14.7460   -2.4760 O   0  0  0  0  0  0  0  0  0  0  0  0
   11.4290  -12.9620   -2.9290 C   0  0  0  0  0  0  0  0  0  0  0  0
   12.4400  -12.8520   -3.8910 C   0  0  0  0  0  0  0  0  0  0  0  0
   13.5810  -12.0970   -3.6200 C   0  0  0  0  0  0  0  0  0  0  0  0
   13.7240  -11.4590   -2.3860 C   0  0  0  0  0  0  0  0  0  0  0  0
   12.7350  -11.5820   -1.3990 C   0  0  0  0  0  0  0  0  0  0  0  0
   12.8790  -10.8890   -0.0660 C   0  0  0  0  0  0  0  0  0  0  0  0
   11.9850  -11.3510    0.8520 F   0  0  0  0  0  0  0  0  0  0  0  0
   12.6830   -9.5430   -0.1360 F   0  0  0  0  0  0  0  0  0  0  0  0
   14.1100  -11.0570    0.4910 F   0  0  0  0  0  0  0  0  0  0  0  0
   11.5840  -12.3370   -1.6830 C   0  0  0  0  0  0  0  0  0  0  0  0
    6.8890  -13.4620   -4.2100 C   0  0  0  0  0  0  0  0  0  0  0  0
    3.3760  -13.6610   -5.1670 C   0  0  0  0  0  0  0  0  0  0  0  0
    2.0530  -13.2250   -4.6560 C   0  0  0  0  0  0  0  0  0  0  0  0
    1.7870  -12.8290   -3.4490 N   0  0  0  0  0  0  0  0  0  0  0  0
    2.8460  -12.8120   -2.5760 C   0  0  0  0  0  0  0  0  0  0  0  0
    1.3360  -12.6980    0.6290 C   0  0  0  0  0  0  0  0  0  0  0  0
    0.2850  -12.2190    1.4120 C   0  0  0  0  0  0  0  0  0  0  0  0
   -3.8684  -11.9767    0.0555 H   0  0  0  0  0  0  0  0  0  0  0  0
   -3.4473  -10.2391   -0.1183 H   0  0  0  0  0  0  0  0  0  0  0  0
   -2.1504  -11.4820   -0.1183 H   0  0  0  0  0  0  0  0  0  0  0  0
   -3.6950  -10.3970    2.1030 H   0  0  0  0  0  0  0  0  0  0  0  0
   -3.1335  -12.1913    3.5794 H   0  0  0  0  0  0  0  0  0  0  0  0
   -4.1081  -12.8390    2.2165 H   0  0  0  0  0  0  0  0  0  0  0  0
   -2.3225  -13.0347    2.2165 H   0  0  0  0  0  0  0  0  0  0  0  0
   -0.2468   -9.2318   -0.1806 H   0  0  0  0  0  0  0  0  0  0  0  0
    1.6261  -10.1097   -1.5812 H   0  0  0  0  0  0  0  0  0  0  0  0
    4.6951  -12.4829    0.0970 H   0  0  0  0  0  0  0  0  0  0  0  0
    4.9893  -15.5674   -6.1150 H   0  0  0  0  0  0  0  0  0  0  0  0
    7.2578  -16.2720   -6.8655 H   0  0  0  0  0  0  0  0  0  0  0  0
    9.2842  -15.1686   -5.9305 H   0  0  0  0  0  0  0  0  0  0  0  0
    9.5890  -12.3480   -4.5380 H   0  0  0  0  0  0  0  0  0  0  0  0
   12.3346  -13.3609   -4.8605 H   0  0  0  0  0  0  0  0  0  0  0  0
   14.3704  -12.0038   -4.3804 H   0  0  0  0  0  0  0  0  0  0  0  0
   14.6208  -10.8542   -2.1861 H   0  0  0  0  0  0  0  0  0  0  0  0
   10.7973  -12.4387   -0.9209 H   0  0  0  0  0  0  0  0  0  0  0  0
    6.7856  -12.6775   -3.4459 H   0  0  0  0  0  0  0  0  0  0  0  0
    3.5184  -13.9827   -6.2092 H   0  0  0  0  0  0  0  0  0  0  0  0
    1.2161  -13.2387   -5.3697 H   0  0  0  0  0  0  0  0  0  0  0  0
    1.7749  -13.6816    0.8525 H   0  0  0  0  0  0  0  0  0  0  0  0
   -0.1124  -12.8245    2.2399 H   0  0  0  0  0  0  0  0  0  0  0  0
  1  2  1  0
  2  3  1  0
  2  4  1  0
  4  5  2  0
  4  6  2  0
  4  7  1  0
  7  8  2  0
  8  9  1  0
  9 10  2  0
 10 11  1  0
 11 12  1  0
 12 13  2  0
 13 14  1  0
 14 15  1  0
 15 16  1  0
 16 17  2  0
 17 18  1  0
 18 19  2  0
 19 20  1  0
 20 21  1  0
 21 22  1  0
 22 23  2  0
 22 24  1  0
 24 25  2  0
 25 26  1  0
 26 27  2  0
 27 28  1  0
 28 29  1  0
 29 30  1  0
 29 31  1  0
 29 32  1  0
 28 33  2  0
 20 34  2  0
 15 35  2  0
 35 36  1  0
 36 37  2  0
 37 38  1  0
 10 39  1  0
 39 40  2  0
 40  7  1  0
 38 11  2  0
 38 14  1  0
 34 16  1  0
 33 24  1  0
  1 41  1  0
  1 42  1  0
  1 43  1  0
  2 44  1  0
  3 45  1  0
  3 46  1  0
  3 47  1  0
  8 48  1  0
  9 49  1  0
 12 50  1  0
 17 51  1  0
 18 52  1  0
 19 53  1  0
 21 54  1  0
 25 55  1  0
 26 56  1  0
 27 57  1  0
 33 58  1  0
 34 59  1  0
 35 60  1  0
 36 61  1  0
 39 62  1  0
 40 63  1  0
M  CHG  1   2   1
M  END
>  <meeko>  (1) 
{"is_sidechain": [false], "free_energy": -9.709, "intermolecular_energy": -13.683, "internal_energy": -0.752}

$$$$
LIB_RBGUOHBCKRTPMX__M_PUB_ALL__e8__s20260927
     RDKit          3D

 63 67  0  0  0  0  0  0  0  0999 V2000
   -4.9240  -12.6150    0.6850 C   0  0  0  0  0  0  0  0  0  0  0  0
   -3.5010  -12.7410    1.0970 N   0  0  0  0  0  0  0  0  0  0  0  0
   -3.2120  -12.1570    2.4220 C   0  0  0  0  0  0  0  0  0  0  0  0
   -3.0510  -14.3720    1.0210 S   0  0  0  0  0  0  0  0  0  0  0  0
   -2.9050  -14.7570    2.4020 O   0  0  0  0  0  0  0  0  0  0  0  0
   -4.0750  -14.9100    0.1580 O   0  0  0  0  0  0  0  0  0  0  0  0
   -1.4950  -14.5260    0.1930 C   0  0  0  0  0  0  0  0  0  0  0  0
   -1.2650  -15.6230   -0.6440 C   0  0  0  0  0  0  0  0  0  0  0  0
   -0.0510  -15.7210   -1.3290 C   0  0  0  0  0  0  0  0  0  0  0  0
    0.9320  -14.7320   -1.1830 C   0  0  0  0  0  0  0  0  0  0  0  0
    2.1820  -14.8350   -1.9120 C   0  0  0  0  0  0  0  0  0  0  0  0
    3.2820  -15.6910   -1.7140 C   0  0  0  0  0  0  0  0  0  0  0  0
    4.2560  -15.5060   -2.6000 N   0  0  0  0  0  0  0  0  0  0  0  0
    3.8150  -14.4980   -3.4030 N   0  0  0  0  0  0  0  0  0  0  0  0
    4.4730  -13.8930   -4.4920 C   0  0  0  0  0  0  0  0  0  0  0  0
    5.8300  -14.2950   -4.9230 C   0  0  0  0  0  0  0  0  0  0  0  0
    6.0110  -15.3080   -5.8720 C   0  0  0  0  0  0  0  0  0  0  0  0
    7.2950  -15.6760   -6.2740 C   0  0  0  0  0  0  0  0  0  0  0  0
    8.4090  -15.0310   -5.7370 C   0  0  0  0  0  0  0  0  0  0  0  0
    8.2540  -14.0120   -4.7930 C   0  0  0  0  0  0  0  0  0  0  0  0
    9.4260  -13.4030   -4.2960 N   0  0  0  0  0  0  0  0  0  0  0  0
   10.0310  -13.6290   -3.0720 C   0  0  0  0  0  0  0  0  0  0  0  0
    9.6010  -14.3240   -2.1590 O   0  0  0  0  0  0  0  0  0  0  0  0
   11.3110  -12.8960   -2.8550 C   0  0  0  0  0  0  0  0  0  0  0  0
   12.3130  -12.8540   -3.8330 C   0  0  0  0  0  0  0  0  0  0  0  0
   13.4960  -12.1570   -3.5880 C   0  0  0  0  0  0  0  0  0  0  0  0
   13.6900  -11.5100   -2.3650 C   0  0  0  0  0  0  0  0  0  0  0  0
   12.7100  -11.5670   -1.3640 C   0  0  0  0  0  0  0  0  0  0  0  0
   12.9090  -10.8640   -0.0430 C   0  0  0  0  0  0  0  0  0  0  0  0
   12.0550  -11.3210    0.9150 F   0  0  0  0  0  0  0  0  0  0  0  0
   12.7080   -9.5190   -0.1140 F   0  0  0  0  0  0  0  0  0  0  0  0
   14.1630  -11.0280    0.4630 F   0  0  0  0  0  0  0  0  0  0  0  0
   11.5170  -12.2640   -1.6210 C   0  0  0  0  0  0  0  0  0  0  0  0
    6.9640  -13.6600   -4.3840 C   0  0  0  0  0  0  0  0  0  0  0  0
    3.8410  -12.9180   -5.1740 C   0  0  0  0  0  0  0  0  0  0  0  0
    2.4810  -12.5610   -4.6990 C   0  0  0  0  0  0  0  0  0  0  0  0
    1.8500  -13.0930   -3.6970 N   0  0  0  0  0  0  0  0  0  0  0  0
    2.5260  -14.0770   -3.0180 C   0  0  0  0  0  0  0  0  0  0  0  0
    0.6950  -13.6580   -0.3120 C   0  0  0  0  0  0  0  0  0  0  0  0
   -0.5110  -13.5540    0.3830 C   0  0  0  0  0  0  0  0  0  0  0  0
   -5.5612  -12.5586    1.5799 H   0  0  0  0  0  0  0  0  0  0  0  0
   -5.0526  -11.7020    0.0852 H   0  0  0  0  0  0  0  0  0  0  0  0
   -5.2110  -13.4912    0.0852 H   0  0  0  0  0  0  0  0  0  0  0  0
   -2.9170  -12.3300    0.3680 H   0  0  0  0  0  0  0  0  0  0  0  0
   -3.5530  -12.8461    3.2087 H   0  0  0  0  0  0  0  0  0  0  0  0
   -2.1289  -11.9933    2.5222 H   0  0  0  0  0  0  0  0  0  0  0  0
   -3.7388  -11.1966    2.5222 H   0  0  0  0  0  0  0  0  0  0  0  0
   -2.0330  -16.4016   -0.7619 H   0  0  0  0  0  0  0  0  0  0  0  0
    0.1350  -16.5815   -1.9885 H   0  0  0  0  0  0  0  0  0  0  0  0
    3.3308  -16.4376   -0.9076 H   0  0  0  0  0  0  0  0  0  0  0  0
    5.1360  -15.8165   -6.3030 H   0  0  0  0  0  0  0  0  0  0  0  0
    7.4293  -16.4767   -7.0162 H   0  0  0  0  0  0  0  0  0  0  0  0
    9.4183  -15.3268   -6.0592 H   0  0  0  0  0  0  0  0  0  0  0  0
    9.8300  -12.6850   -4.8840 H   0  0  0  0  0  0  0  0  0  0  0  0
   12.1670  -13.3702   -4.7933 H   0  0  0  0  0  0  0  0  0  0  0  0
   14.2786  -12.1166   -4.3600 H   0  0  0  0  0  0  0  0  0  0  0  0
   14.6201  -10.9508   -2.1858 H   0  0  0  0  0  0  0  0  0  0  0  0
   10.7376  -12.3140   -0.8464 H   0  0  0  0  0  0  0  0  0  0  0  0
    6.8334  -12.8725   -3.6272 H   0  0  0  0  0  0  0  0  0  0  0  0
    4.3067  -12.4150   -6.0343 H   0  0  0  0  0  0  0  0  0  0  0  0
    1.9558  -11.7672   -5.2505 H   0  0  0  0  0  0  0  0  0  0  0  0
    1.4690  -12.8885   -0.1751 H   0  0  0  0  0  0  0  0  0  0  0  0
   -0.6843  -12.7151    1.0731 H   0  0  0  0  0  0  0  0  0  0  0  0
  1  2  1  0
  2  3  1  0
  2  4  1  0
  4  5  2  0
  4  6  2  0
  4  7  1  0
  7  8  2  0
  8  9  1  0
  9 10  2  0
 10 11  1  0
 11 12  1  0
 12 13  2  0
 13 14  1  0
 14 15  1  0
 15 16  1  0
 16 17  2  0
 17 18  1  0
 18 19  2  0
 19 20  1  0
 20 21  1  0
 21 22  1  0
 22 23  2  0
 22 24  1  0
 24 25  2  0
 25 26  1  0
 26 27  2  0
 27 28  1  0
 28 29  1  0
 29 30  1  0
 29 31  1  0
 29 32  1  0
 28 33  2  0
 20 34  2  0
 15 35  2  0
 35 36  1  0
 36 37  2  0
 37 38  1  0
 10 39  1  0
 39 40  2  0
 40  7  1  0
 38 11  2  0
 38 14  1  0
 34 16  1  0
 33 24  1  0
  1 41  1  0
  1 42  1  0
  1 43  1  0
  2 44  1  0
  3 45  1  0
  3 46  1  0
  3 47  1  0
  8 48  1  0
  9 49  1  0
 12 50  1  0
 17 51  1  0
 18 52  1  0
 19 53  1  0
 21 54  1  0
 25 55  1  0
 26 56  1  0
 27 57  1  0
 33 58  1  0
 34 59  1  0
 35 60  1  0
 36 61  1  0
 39 62  1  0
 40 63  1  0
M  CHG  1   2   1
M  END
>  <meeko>  (2) 
{"is_sidechain": [false], "free_energy": -9.346, "intermolecular_energy": -12.692, "internal_energy": -1.231}

$$$$
LIB_RBGUOHBCKRTPMX__M_PUB_ALL__e8__s20260927
     RDKit          3D

 63 67  0  0  0  0  0  0  0  0999 V2000
   -1.3260  -16.3690    6.9700 C   0  0  0  0  0  0  0  0  0  0  0  0
   -0.8790  -17.5890    6.2480 N   0  0  0  0  0  0  0  0  0  0  0  0
   -1.5080  -17.7570    4.9220 C   0  0  0  0  0  0  0  0  0  0  0  0
    0.8110  -17.5750    6.1420 S   0  0  0  0  0  0  0  0  0  0  0  0
    1.2250  -16.8140    7.2940 O   0  0  0  0  0  0  0  0  0  0  0  0
    1.0980  -18.9800    5.9810 O   0  0  0  0  0  0  0  0  0  0  0  0
    1.3100  -16.7380    4.6660 C   0  0  0  0  0  0  0  0  0  0  0  0
    1.7990  -17.4790    3.5840 C   0  0  0  0  0  0  0  0  0  0  0  0
    2.1550  -16.8190    2.4050 C   0  0  0  0  0  0  0  0  0  0  0  0
    2.0250  -15.4270    2.2990 C   0  0  0  0  0  0  0  0  0  0  0  0
    2.3800  -14.7540    1.0640 C   0  0  0  0  0  0  0  0  0  0  0  0
    3.4900  -13.9450    0.7570 C   0  0  0  0  0  0  0  0  0  0  0  0
    3.4900  -13.5090   -0.4990 N   0  0  0  0  0  0  0  0  0  0  0  0
    2.3520  -14.0200   -1.0480 N   0  0  0  0  0  0  0  0  0  0  0  0
    1.8540  -13.8450   -2.3550 C   0  0  0  0  0  0  0  0  0  0  0  0
    2.5460  -13.0120   -3.3630 C   0  0  0  0  0  0  0  0  0  0  0  0
    2.4590  -11.6150   -3.3210 C   0  0  0  0  0  0  0  0  0  0  0  0
    3.1190  -10.8390   -4.2740 C   0  0  0  0  0  0  0  0  0  0  0  0
    3.8760  -11.4500   -5.2730 C   0  0  0  0  0  0  0  0  0  0  0  0
    3.9830  -12.8430   -5.3320 C   0  0  0  0  0  0  0  0  0  0  0  0
    4.7690  -13.3900   -6.3690 N   0  0  0  0  0  0  0  0  0  0  0  0
    6.1070  -13.7360   -6.3110 C   0  0  0  0  0  0  0  0  0  0  0  0
    6.8760  -13.5340   -5.3780 O   0  0  0  0  0  0  0  0  0  0  0  0
    6.6500  -14.3700   -7.5450 C   0  0  0  0  0  0  0  0  0  0  0  0
    7.1830  -15.6650   -7.5370 C   0  0  0  0  0  0  0  0  0  0  0  0
    7.6820  -16.2210   -8.7160 C   0  0  0  0  0  0  0  0  0  0  0  0
    7.6620  -15.4840   -9.9030 C   0  0  0  0  0  0  0  0  0  0  0  0
    7.1580  -14.1750   -9.9230 C   0  0  0  0  0  0  0  0  0  0  0  0
    7.1260  -13.3760  -11.2030 C   0  0  0  0  0  0  0  0  0  0  0  0
    8.3540  -13.2880  -11.7850 F   0  0  0  0  0  0  0  0  0  0  0  0
    6.7020  -12.0940  -11.0250 F   0  0  0  0  0  0  0  0  0  0  0  0
    6.3010  -13.9140  -12.1450 F   0  0  0  0  0  0  0  0  0  0  0  0
    6.6500  -13.6260   -8.7330 C   0  0  0  0  0  0  0  0  0  0  0  0
    3.3060  -13.6140   -4.3820 C   0  0  0  0  0  0  0  0  0  0  0  0
    0.7110  -14.4660   -2.7030 C   0  0  0  0  0  0  0  0  0  0  0  0
    0.0660  -15.2910   -1.6530 C   0  0  0  0  0  0  0  0  0  0  0  0
    0.4940  -15.4680   -0.4400 N   0  0  0  0  0  0  0  0  0  0  0  0
    1.6570  -14.8140   -0.1140 C   0  0  0  0  0  0  0  0  0  0  0  0
    1.5640  -14.6990    3.4060 C   0  0  0  0  0  0  0  0  0  0  0  0
    1.2140  -15.3470    4.5920 C   0  0  0  0  0  0  0  0  0  0  0  0
   -1.2630  -16.5411    8.0546 H   0  0  0  0  0  0  0  0  0  0  0  0
   -0.6796  -15.5226    6.6948 H   0  0  0  0  0  0  0  0  0  0  0  0
   -2.3662  -16.1405    6.6948 H   0  0  0  0  0  0  0  0  0  0  0  0
   -1.0450  -18.3970    6.8490 H   0  0  0  0  0  0  0  0  0  0  0  0
   -2.5635  -18.0389    5.0499 H   0  0  0  0  0  0  0  0  0  0  0  0
   -1.4462  -16.8109    4.3643 H   0  0  0  0  0  0  0  0  0  0  0  0
   -0.9827  -18.5463    4.3643 H   0  0  0  0  0  0  0  0  0  0  0  0
    1.9022  -18.5714    3.6611 H   0  0  0  0  0  0  0  0  0  0  0  0
    2.5408  -17.3968    1.5522 H   0  0  0  0  0  0  0  0  0  0  0  0
    4.2784  -13.6982    1.4833 H   0  0  0  0  0  0  0  0  0  0  0  0
    1.8672  -11.1270   -2.5325 H   0  0  0  0  0  0  0  0  0  0  0  0
    3.0421   -9.7423   -4.2373 H   0  0  0  0  0  0  0  0  0  0  0  0
    4.3933  -10.8311   -6.0209 H   0  0  0  0  0  0  0  0  0  0  0  0
    4.3070  -13.4860   -7.2650 H   0  0  0  0  0  0  0  0  0  0  0  0
    7.2084  -16.2438   -6.6019 H   0  0  0  0  0  0  0  0  0  0  0  0
    8.0920  -17.2417   -8.7107 H   0  0  0  0  0  0  0  0  0  0  0  0
    8.0451  -15.9345  -10.8305 H   0  0  0  0  0  0  0  0  0  0  0  0
    6.2483  -12.6020   -8.7340 H   0  0  0  0  0  0  0  0  0  0  0  0
    3.3689  -14.7110   -4.4325 H   0  0  0  0  0  0  0  0  0  0  0  0
    0.2797  -14.3669   -3.7101 H   0  0  0  0  0  0  0  0  0  0  0  0
   -0.8673  -15.8037   -1.9291 H   0  0  0  0  0  0  0  0  0  0  0  0
    1.4773  -13.6045    3.3387 H   0  0  0  0  0  0  0  0  0  0  0  0
    0.8660  -14.7674    5.4597 H   0  0  0  0  0  0  0  0  0  0  0  0
  1  2  1  0
  2  3  1  0
  2  4  1  0
  4  5  2  0
  4  6  2  0
  4  7  1  0
  7  8  2  0
  8  9  1  0
  9 10  2  0
 10 11  1  0
 11 12  1  0
 12 13  2  0
 13 14  1  0
 14 15  1  0
 15 16  1  0
 16 17  2  0
 17 18  1  0
 18 19  2  0
 19 20  1  0
 20 21  1  0
 21 22  1  0
 22 23  2  0
 22 24  1  0
 24 25  2  0
 25 26  1  0
 26 27  2  0
 27 28  1  0
 28 29  1  0
 29 30  1  0
 29 31  1  0
 29 32  1  0
 28 33  2  0
 20 34  2  0
 15 35  2  0
 35 36  1  0
 36 37  2  0
 37 38  1  0
 10 39  1  0
 39 40  2  0
 40  7  1  0
 38 11  2  0
 38 14  1  0
 34 16  1  0
 33 24  1  0
  1 41  1  0
  1 42  1  0
  1 43  1  0
  2 44  1  0
  3 45  1  0
  3 46  1  0
  3 47  1  0
  8 48  1  0
  9 49  1  0
 12 50  1  0
 17 51  1  0
 18 52  1  0
 19 53  1  0
 21 54  1  0
 25 55  1  0
 26 56  1  0
 27 57  1  0
 33 58  1  0
 34 59  1  0
 35 60  1  0
 36 61  1  0
 39 62  1  0
 40 63  1  0
M  CHG  1   2   1
M  END
>  <meeko>  (3) 
{"is_sidechain": [false], "free_energy": -9.257, "intermolecular_energy": -12.583, "internal_energy": -1.214}

$$$$
LIB_RBGUOHBCKRTPMX__M_PUB_ALL__e8__s20260927
     RDKit          3D

 63 67  0  0  0  0  0  0  0  0999 V2000
   13.0920  -11.0770   -0.1510 C   0  0  0  0  0  0  0  0  0  0  0  0
   12.2930  -11.7260   -1.2240 N   0  0  0  0  0  0  0  0  0  0  0  0
   13.0320  -11.9000   -2.4920 C   0  0  0  0  0  0  0  0  0  0  0  0
   11.6900  -13.1980   -0.6440 S   0  0  0  0  0  0  0  0  0  0  0  0
   11.9330  -14.1230   -1.7220 O   0  0  0  0  0  0  0  0  0  0  0  0
   12.3490  -13.2900    0.6370 O   0  0  0  0  0  0  0  0  0  0  0  0
    9.9490  -13.0610   -0.3590 C   0  0  0  0  0  0  0  0  0  0  0  0
    9.4610  -12.0190    0.4370 C   0  0  0  0  0  0  0  0  0  0  0  0
    8.0820  -11.8890    0.6270 C   0  0  0  0  0  0  0  0  0  0  0  0
    7.1910  -12.7920    0.0270 C   0  0  0  0  0  0  0  0  0  0  0  0
    5.7610  -12.6370    0.2170 C   0  0  0  0  0  0  0  0  0  0  0  0
    4.9720  -12.8250    1.3670 C   0  0  0  0  0  0  0  0  0  0  0  0
    3.6820  -12.5700    1.1650 N   0  0  0  0  0  0  0  0  0  0  0  0
    3.5950  -12.2170   -0.1490 N   0  0  0  0  0  0  0  0  0  0  0  0
    2.4480  -11.8700   -0.8890 C   0  0  0  0  0  0  0  0  0  0  0  0
    1.0930  -11.8600   -0.2940 C   0  0  0  0  0  0  0  0  0  0  0  0
    0.3310  -10.6850   -0.2650 C   0  0  0  0  0  0  0  0  0  0  0  0
   -0.9470  -10.6870    0.2930 C   0  0  0  0  0  0  0  0  0  0  0  0
   -1.4790  -11.8640    0.8220 C   0  0  0  0  0  0  0  0  0  0  0  0
   -0.7400  -13.0510    0.7980 C   0  0  0  0  0  0  0  0  0  0  0  0
   -1.3440  -14.2020    1.3480 N   0  0  0  0  0  0  0  0  0  0  0  0
   -1.2290  -14.6660    2.6470 C   0  0  0  0  0  0  0  0  0  0  0  0
   -0.5030  -14.2160    3.5250 O   0  0  0  0  0  0  0  0  0  0  0  0
   -2.0510  -15.8700    2.9620 C   0  0  0  0  0  0  0  0  0  0  0  0
   -1.7440  -17.1320    2.4390 C   0  0  0  0  0  0  0  0  0  0  0  0
   -2.5400  -18.2310    2.7580 C   0  0  0  0  0  0  0  0  0  0  0  0
   -3.6510  -18.0750    3.5900 C   0  0  0  0  0  0  0  0  0  0  0  0
   -3.9910  -16.8130    4.1000 C   0  0  0  0  0  0  0  0  0  0  0  0
   -5.1850  -16.6380    5.0060 C   0  0  0  0  0  0  0  0  0  0  0  0
   -4.8450  -16.7050    6.3230 F   0  0  0  0  0  0  0  0  0  0  0  0
   -6.1460  -17.5850    4.8180 F   0  0  0  0  0  0  0  0  0  0  0  0
   -5.8080  -15.4380    4.8390 F   0  0  0  0  0  0  0  0  0  0  0  0
   -3.1780  -15.7120    3.7800 C   0  0  0  0  0  0  0  0  0  0  0  0
    0.5470  -13.0360    0.2500 C   0  0  0  0  0  0  0  0  0  0  0  0
    2.5890  -11.5270   -2.1830 C   0  0  0  0  0  0  0  0  0  0  0  0
    3.9700  -11.5520   -2.7230 C   0  0  0  0  0  0  0  0  0  0  0  0
    5.0460  -11.8720   -2.0700 N   0  0  0  0  0  0  0  0  0  0  0  0
    4.8670  -12.2260   -0.7560 C   0  0  0  0  0  0  0  0  0  0  0  0
    7.7040  -13.8480   -0.7390 C   0  0  0  0  0  0  0  0  0  0  0  0
    9.0800  -13.9930   -0.9290 C   0  0  0  0  0  0  0  0  0  0  0  0
   12.7081  -11.3888    0.8316 H   0  0  0  0  0  0  0  0  0  0  0  0
   14.1457  -11.3782   -0.2454 H   0  0  0  0  0  0  0  0  0  0  0  0
   13.0132   -9.9839   -0.2454 H   0  0  0  0  0  0  0  0  0  0  0  0
   11.4360  -11.1870   -1.3570 H   0  0  0  0  0  0  0  0  0  0  0  0
   14.0814  -12.1471   -2.2738 H   0  0  0  0  0  0  0  0  0  0  0  0
   12.5764  -12.7154   -3.0730 H   0  0  0  0  0  0  0  0  0  0  0  0
   12.9881  -10.9670   -3.0730 H   0  0  0  0  0  0  0  0  0  0  0  0
   10.1558  -11.3087    0.9089 H   0  0  0  0  0  0  0  0  0  0  0  0
    7.6922  -11.0721    1.2520 H   0  0  0  0  0  0  0  0  0  0  0  0
    5.3806  -13.1500    2.3352 H   0  0  0  0  0  0  0  0  0  0  0  0
    0.7430   -9.7555   -0.6847 H   0  0  0  0  0  0  0  0  0  0  0  0
   -1.5371   -9.7590    0.3163 H   0  0  0  0  0  0  0  0  0  0  0  0
   -2.4875  -11.8579    1.2612 H   0  0  0  0  0  0  0  0  0  0  0  0
   -1.8710  -14.7730    0.6990 H   0  0  0  0  0  0  0  0  0  0  0  0
   -0.8748  -17.2562    1.7764 H   0  0  0  0  0  0  0  0  0  0  0  0
   -2.2926  -19.2235    2.3535 H   0  0  0  0  0  0  0  0  0  0  0  0
   -4.2654  -18.9502    3.8479 H   0  0  0  0  0  0  0  0  0  0  0  0
   -3.4287  -14.7166    4.1754 H   0  0  0  0  0  0  0  0  0  0  0  0
    1.1426  -13.9608    0.2446 H   0  0  0  0  0  0  0  0  0  0  0  0
    1.7275  -11.2438   -2.8055 H   0  0  0  0  0  0  0  0  0  0  0  0
    4.0951  -11.2723   -3.7795 H   0  0  0  0  0  0  0  0  0  0  0  0
    7.0137  -14.5720   -1.1965 H   0  0  0  0  0  0  0  0  0  0  0  0
    9.4745  -14.8320   -1.5210 H   0  0  0  0  0  0  0  0  0  0  0  0
  1  2  1  0
  2  3  1  0
  2  4  1  0
  4  5  2  0
  4  6  2  0
  4  7  1  0
  7  8  2  0
  8  9  1  0
  9 10  2  0
 10 11  1  0
 11 12  1  0
 12 13  2  0
 13 14  1  0
 14 15  1  0
 15 16  1  0
 16 17  2  0
 17 18  1  0
 18 19  2  0
 19 20  1  0
 20 21  1  0
 21 22  1  0
 22 23  2  0
 22 24  1  0
 24 25  2  0
 25 26  1  0
 26 27  2  0
 27 28  1  0
 28 29  1  0
 29 30  1  0
 29 31  1  0
 29 32  1  0
 28 33  2  0
 20 34  2  0
 15 35  2  0
 35 36  1  0
 36 37  2  0
 37 38  1  0
 10 39  1  0
 39 40  2  0
 40  7  1  0
 38 11  2  0
 38 14  1  0
 34 16  1  0
 33 24  1  0
  1 41  1  0
  1 42  1  0
  1 43  1  0
  2 44  1  0
  3 45  1  0
  3 46  1  0
  3 47  1  0
  8 48  1  0
  9 49  1  0
 12 50  1  0
 17 51  1  0
 18 52  1  0
 19 53  1  0
 21 54  1  0
 25 55  1  0
 26 56  1  0
 27 57  1  0
 33 58  1  0
 34 59  1  0
 35 60  1  0
 36 61  1  0
 39 62  1  0
 40 63  1  0
M  CHG  1   2   1
M  END
>  <meeko>  (4) 
{"is_sidechain": [false], "free_energy": -9.248, "intermolecular_energy": -12.689, "internal_energy": -1.095}

$$$$
LIB_RBGUOHBCKRTPMX__M_PUB_ALL__e8__s20260927
     RDKit          3D

 63 67  0  0  0  0  0  0  0  0999 V2000
   15.9220  -17.2090  -12.2430 C   0  0  0  0  0  0  0  0  0  0  0  0
   15.0950  -16.8690  -11.0560 N   0  0  0  0  0  0  0  0  0  0  0  0
   14.9400  -17.9850  -10.1010 C   0  0  0  0  0  0  0  0  0  0  0  0
   15.7440  -15.4940  -10.3120 S   0  0  0  0  0  0  0  0  0  0  0  0
   17.0870  -15.8870   -9.9650 O   0  0  0  0  0  0  0  0  0  0  0  0
   15.4490  -14.4740  -11.2900 O   0  0  0  0  0  0  0  0  0  0  0  0
   14.8350  -15.1250   -8.8400 C   0  0  0  0  0  0  0  0  0  0  0  0
   15.3680  -15.4740   -7.5940 C   0  0  0  0  0  0  0  0  0  0  0  0
   14.6670  -15.1450   -6.4310 C   0  0  0  0  0  0  0  0  0  0  0  0
   13.4380  -14.4720   -6.5040 C   0  0  0  0  0  0  0  0  0  0  0  0
   12.7270  -14.1200   -5.2900 C   0  0  0  0  0  0  0  0  0  0  0  0
   11.4950  -14.5840   -4.7920 C   0  0  0  0  0  0  0  0  0  0  0  0
   11.1640  -14.0410   -3.6240 N   0  0  0  0  0  0  0  0  0  0  0  0
   12.1820  -13.1840   -3.3330 N   0  0  0  0  0  0  0  0  0  0  0  0
   12.3220  -12.3350   -2.2180 C   0  0  0  0  0  0  0  0  0  0  0  0
   11.2990  -12.2490   -1.1520 C   0  0  0  0  0  0  0  0  0  0  0  0
   11.6670  -12.0340    0.1810 C   0  0  0  0  0  0  0  0  0  0  0  0
   10.6940  -11.9500    1.1770 C   0  0  0  0  0  0  0  0  0  0  0  0
    9.3440  -12.0730    0.8490 C   0  0  0  0  0  0  0  0  0  0  0  0
    8.9500  -12.2820   -0.4760 C   0  0  0  0  0  0  0  0  0  0  0  0
    7.5670  -12.3940   -0.7330 N   0  0  0  0  0  0  0  0  0  0  0  0
    6.7150  -11.3970   -1.1730 C   0  0  0  0  0  0  0  0  0  0  0  0
    6.9890  -10.2120   -1.3220 O   0  0  0  0  0  0  0  0  0  0  0  0
    5.3140  -11.8330   -1.4340 C   0  0  0  0  0  0  0  0  0  0  0  0
    4.5980  -12.6090   -0.5150 C   0  0  0  0  0  0  0  0  0  0  0  0
    3.2880  -12.9960   -0.8000 C   0  0  0  0  0  0  0  0  0  0  0  0
    2.6930  -12.6230   -2.0070 C   0  0  0  0  0  0  0  0  0  0  0  0
    3.4060  -11.8710   -2.9530 C   0  0  0  0  0  0  0  0  0  0  0  0
    2.7670  -11.4570   -4.2560 C   0  0  0  0  0  0  0  0  0  0  0  0
    2.2090  -10.2170   -4.1830 F   0  0  0  0  0  0  0  0  0  0  0  0
    1.7700  -12.2940   -4.6560 F   0  0  0  0  0  0  0  0  0  0  0  0
    3.6510  -11.4100   -5.2910 F   0  0  0  0  0  0  0  0  0  0  0  0
    4.7210  -11.4770   -2.6540 C   0  0  0  0  0  0  0  0  0  0  0  0
    9.9340  -12.3800   -1.4660 C   0  0  0  0  0  0  0  0  0  0  0  0
   13.4320  -11.5790   -2.1110 C   0  0  0  0  0  0  0  0  0  0  0  0
   14.4230  -11.7100   -3.2060 C   0  0  0  0  0  0  0  0  0  0  0  0
   14.3230  -12.4780   -4.2490 N   0  0  0  0  0  0  0  0  0  0  0  0
   13.1760  -13.2280   -4.3320 C   0  0  0  0  0  0  0  0  0  0  0  0
   12.9050  -14.1620   -7.7640 C   0  0  0  0  0  0  0  0  0  0  0  0
   13.5930  -14.4920   -8.9330 C   0  0  0  0  0  0  0  0  0  0  0  0
   16.8922  -17.6079  -11.9119 H   0  0  0  0  0  0  0  0  0  0  0  0
   15.4015  -17.9661  -12.8479 H   0  0  0  0  0  0  0  0  0  0  0  0
   16.0845  -16.3047  -12.8479 H   0  0  0  0  0  0  0  0  0  0  0  0
   14.1920  -16.5240  -11.3820 H   0  0  0  0  0  0  0  0  0  0  0  0
   14.9938  -17.5979   -9.0728 H   0  0  0  0  0  0  0  0  0  0  0  0
   13.9658  -18.4706  -10.2595 H   0  0  0  0  0  0  0  0  0  0  0  0
   15.7450  -18.7177  -10.2595 H   0  0  0  0  0  0  0  0  0  0  0  0
   16.3305  -16.0028   -7.5308 H   0  0  0  0  0  0  0  0  0  0  0  0
   15.0824  -15.4161   -5.4492 H   0  0  0  0  0  0  0  0  0  0  0  0
   10.8691  -15.3213   -5.3160 H   0  0  0  0  0  0  0  0  0  0  0  0
   12.7299  -11.9306    0.4449 H   0  0  0  0  0  0  0  0  0  0  0  0
   10.9920  -11.7864    2.2231 H   0  0  0  0  0  0  0  0  0  0  0  0
    8.5825  -12.0050    1.6399 H   0  0  0  0  0  0  0  0  0  0  0  0
    7.1530  -13.2920   -0.5160 H   0  0  0  0  0  0  0  0  0  0  0  0
    5.0680  -12.9137    0.4317 H   0  0  0  0  0  0  0  0  0  0  0  0
    2.7226  -13.5964   -0.0721 H   0  0  0  0  0  0  0  0  0  0  0  0
    1.6556  -12.9215   -2.2182 H   0  0  0  0  0  0  0  0  0  0  0  0
    5.2910  -10.8835   -3.3839 H   0  0  0  0  0  0  0  0  0  0  0  0
    9.6348  -12.5628   -2.5086 H   0  0  0  0  0  0  0  0  0  0  0  0
   13.5940  -10.9024   -1.2589 H   0  0  0  0  0  0  0  0  0  0  0  0
   15.3326  -11.0964   -3.1275 H   0  0  0  0  0  0  0  0  0  0  0  0
   11.9325  -13.6524   -7.8318 H   0  0  0  0  0  0  0  0  0  0  0  0
   13.1618  -14.2561   -9.9171 H   0  0  0  0  0  0  0  0  0  0  0  0
  1  2  1  0
  2  3  1  0
  2  4  1  0
  4  5  2  0
  4  6  2  0
  4  7  1  0
  7  8  2  0
  8  9  1  0
  9 10  2  0
 10 11  1  0
 11 12  1  0
 12 13  2  0
 13 14  1  0
 14 15  1  0
 15 16  1  0
 16 17  2  0
 17 18  1  0
 18 19  2  0
 19 20  1  0
 20 21  1  0
 21 22  1  0
 22 23  2  0
 22 24  1  0
 24 25  2  0
 25 26  1  0
 26 27  2  0
 27 28  1  0
 28 29  1  0
 29 30  1  0
 29 31  1  0
 29 32  1  0
 28 33  2  0
 20 34  2  0
 15 35  2  0
 35 36  1  0
 36 37  2  0
 37 38  1  0
 10 39  1  0
 39 40  2  0
 40  7  1  0
 38 11  2  0
 38 14  1  0
 34 16  1  0
 33 24  1  0
  1 41  1  0
  1 42  1  0
  1 43  1  0
  2 44  1  0
  3 45  1  0
  3 46  1  0
  3 47  1  0
  8 48  1  0
  9 49  1  0
 12 50  1  0
 17 51  1  0
 18 52  1  0
 19 53  1  0
 21 54  1  0
 25 55  1  0
 26 56  1  0
 27 57  1  0
 33 58  1  0
 34 59  1  0
 35 60  1  0
 36 61  1  0
 39 62  1  0
 40 63  1  0
M  CHG  1   2   1
M  END
>  <meeko>  (5) 
{"is_sidechain": [false], "free_energy": -9.146, "intermolecular_energy": -12.865, "internal_energy": -0.775}

$$$$
LIB_RBGUOHBCKRTPMX__M_PUB_ALL__e8__s20260927
     RDKit          3D

 63 67  0  0  0  0  0  0  0  0999 V2000
   17.6210  -16.7120  -12.9230 C   0  0  0  0  0  0  0  0  0  0  0  0
   16.7860  -16.0590  -11.8810 N   0  0  0  0  0  0  0  0  0  0  0  0
   15.7580  -15.1510  -12.4280 C   0  0  0  0  0  0  0  0  0  0  0  0
   16.1050  -17.2550  -10.8950 S   0  0  0  0  0  0  0  0  0  0  0  0
   15.1190  -17.8810  -11.7400 O   0  0  0  0  0  0  0  0  0  0  0  0
   17.2830  -17.9370  -10.4200 O   0  0  0  0  0  0  0  0  0  0  0  0
   15.3060  -16.5020   -9.5080 C   0  0  0  0  0  0  0  0  0  0  0  0
   13.9230  -16.6430   -9.3480 C   0  0  0  0  0  0  0  0  0  0  0  0
   13.3010  -16.0830   -8.2290 C   0  0  0  0  0  0  0  0  0  0  0  0
   14.0500  -15.3830   -7.2720 C   0  0  0  0  0  0  0  0  0  0  0  0
   13.3960  -14.8200   -6.1060 C   0  0  0  0  0  0  0  0  0  0  0  0
   12.7320  -13.5900   -5.9420 C   0  0  0  0  0  0  0  0  0  0  0  0
   12.2360  -13.4200   -4.7200 N   0  0  0  0  0  0  0  0  0  0  0  0
   12.5830  -14.5490   -4.0400 N   0  0  0  0  0  0  0  0  0  0  0  0
   12.3260  -14.8750   -2.6940 C   0  0  0  0  0  0  0  0  0  0  0  0
   11.6080  -13.9610   -1.7780 C   0  0  0  0  0  0  0  0  0  0  0  0
   12.2960  -13.2530   -0.7860 C   0  0  0  0  0  0  0  0  0  0  0  0
   11.6110  -12.3900    0.0690 C   0  0  0  0  0  0  0  0  0  0  0  0
   10.2320  -12.2210   -0.0640 C   0  0  0  0  0  0  0  0  0  0  0  0
    9.5240  -12.9120   -1.0520 C   0  0  0  0  0  0  0  0  0  0  0  0
    8.1320  -12.6880   -1.1290 N   0  0  0  0  0  0  0  0  0  0  0  0
    7.4480  -12.0120   -2.1230 C   0  0  0  0  0  0  0  0  0  0  0  0
    7.9390  -11.3990   -3.0640 O   0  0  0  0  0  0  0  0  0  0  0  0
    5.9650  -12.0060   -1.9770 C   0  0  0  0  0  0  0  0  0  0  0  0
    5.3310  -12.5470   -0.8510 C   0  0  0  0  0  0  0  0  0  0  0  0
    3.9400  -12.5220   -0.7550 C   0  0  0  0  0  0  0  0  0  0  0  0
    3.1750  -11.9680   -1.7840 C   0  0  0  0  0  0  0  0  0  0  0  0
    3.7910  -11.4480   -2.9320 C   0  0  0  0  0  0  0  0  0  0  0  0
    2.9720  -10.8400   -4.0450 C   0  0  0  0  0  0  0  0  0  0  0  0
    3.7490  -10.4060   -5.0760 F   0  0  0  0  0  0  0  0  0  0  0  0
    2.2400   -9.7630   -3.6470 F   0  0  0  0  0  0  0  0  0  0  0  0
    2.0810  -11.7150   -4.5890 F   0  0  0  0  0  0  0  0  0  0  0  0
    5.1940  -11.4690   -3.0170 C   0  0  0  0  0  0  0  0  0  0  0  0
   10.2170  -13.7870   -1.8940 C   0  0  0  0  0  0  0  0  0  0  0  0
   12.7400  -16.0670   -2.2230 C   0  0  0  0  0  0  0  0  0  0  0  0
   13.4500  -16.9430   -3.1870 C   0  0  0  0  0  0  0  0  0  0  0  0
   13.7080  -16.6700   -4.4300 N   0  0  0  0  0  0  0  0  0  0  0  0
   13.2800  -15.4440   -4.8760 C   0  0  0  0  0  0  0  0  0  0  0  0
   15.4290  -15.2240   -7.4690 C   0  0  0  0  0  0  0  0  0  0  0  0
   16.0600  -15.7740   -8.5860 C   0  0  0  0  0  0  0  0  0  0  0  0
   18.3997  -17.3209  -12.4404 H   0  0  0  0  0  0  0  0  0  0  0  0
   16.9874  -17.3566  -13.5498 H   0  0  0  0  0  0  0  0  0  0  0  0
   18.0939  -15.9417  -13.5498 H   0  0  0  0  0  0  0  0  0  0  0  0
   17.4060  -15.5770  -11.2280 H   0  0  0  0  0  0  0  0  0  0  0  0
   15.2148  -14.6712  -11.6005 H   0  0  0  0  0  0  0  0  0  0  0  0
   16.2413  -14.3795  -13.0455 H   0  0  0  0  0  0  0  0  0  0  0  0
   15.0521  -15.7259  -13.0455 H   0  0  0  0  0  0  0  0  0  0  0  0
   13.3307  -17.1898  -10.0965 H   0  0  0  0  0  0  0  0  0  0  0  0
   12.2143  -16.1922   -8.0976 H   0  0  0  0  0  0  0  0  0  0  0  0
   12.6332  -12.8440   -6.7443 H   0  0  0  0  0  0  0  0  0  0  0  0
   13.3837  -13.3780   -0.6800 H   0  0  0  0  0  0  0  0  0  0  0  0
   12.1586  -11.8415    0.8496 H   0  0  0  0  0  0  0  0  0  0  0  0
    9.6980  -11.5388    0.6138 H   0  0  0  0  0  0  0  0  0  0  0  0
    7.5920  -13.0150   -0.3380 H   0  0  0  0  0  0  0  0  0  0  0  0
    5.9303  -12.9914   -0.0427 H   0  0  0  0  0  0  0  0  0  0  0  0
    3.4439  -12.9397    0.1335 H   0  0  0  0  0  0  0  0  0  0  0  0
    2.0791  -11.9392   -1.6933 H   0  0  0  0  0  0  0  0  0  0  0  0
    5.6917  -11.0599   -3.9086 H   0  0  0  0  0  0  0  0  0  0  0  0
    9.6645  -14.3495   -2.6610 H   0  0  0  0  0  0  0  0  0  0  0  0
   12.5616  -16.3738   -1.1818 H   0  0  0  0  0  0  0  0  0  0  0  0
   13.7913  -17.9192   -2.8122 H   0  0  0  0  0  0  0  0  0  0  0  0
   16.0210  -14.6588   -6.7341 H   0  0  0  0  0  0  0  0  0  0  0  0
   17.1405  -15.6352   -8.7382 H   0  0  0  0  0  0  0  0  0  0  0  0
  1  2  1  0
  2  3  1  0
  2  4  1  0
  4  5  2  0
  4  6  2  0
  4  7  1  0
  7  8  2  0
  8  9  1  0
  9 10  2  0
 10 11  1  0
 11 12  1  0
 12 13  2  0
 13 14  1  0
 14 15  1  0
 15 16  1  0
 16 17  2  0
 17 18  1  0
 18 19  2  0
 19 20  1  0
 20 21  1  0
 21 22  1  0
 22 23  2  0
 22 24  1  0
 24 25  2  0
 25 26  1  0
 26 27  2  0
 27 28  1  0
 28 29  1  0
 29 30  1  0
 29 31  1  0
 29 32  1  0
 28 33  2  0
 20 34  2  0
 15 35  2  0
 35 36  1  0
 36 37  2  0
 37 38  1  0
 10 39  1  0
 39 40  2  0
 40  7  1  0
 38 11  2  0
 38 14  1  0
 34 16  1  0
 33 24  1  0
  1 41  1  0
  1 42  1  0
  1 43  1  0
  2 44  1  0
  3 45  1  0
  3 46  1  0
  3 47  1  0
  8 48  1  0
  9 49  1  0
 12 50  1  0
 17 51  1  0
 18 52  1  0
 19 53  1  0
 21 54  1  0
 25 55  1  0
 26 56  1  0
 27 57  1  0
 33 58  1  0
 34 59  1  0
 35 60  1  0
 36 61  1  0
 39 62  1  0
 40 63  1  0
M  CHG  1   2   1
M  END
>  <meeko>  (6) 
{"is_sidechain": [false], "free_energy": -9.133, "intermolecular_energy": -12.362, "internal_energy": -1.259}

$$$$
LIB_RBGUOHBCKRTPMX__M_PUB_ALL__e8__s20260927
     RDKit          3D

 63 67  0  0  0  0  0  0  0  0999 V2000
   10.6170  -12.5000  -10.6730 C   0  0  0  0  0  0  0  0  0  0  0  0
    9.2150  -12.0070  -10.6970 N   0  0  0  0  0  0  0  0  0  0  0  0
    8.9200  -11.1100  -11.8330 C   0  0  0  0  0  0  0  0  0  0  0  0
    8.1670  -13.3370  -10.6620 S   0  0  0  0  0  0  0  0  0  0  0  0
    7.1220  -12.9810  -11.5890 O   0  0  0  0  0  0  0  0  0  0  0  0
    9.0830  -14.4280  -10.8880 O   0  0  0  0  0  0  0  0  0  0  0  0
    7.4840  -13.5170   -9.0400 C   0  0  0  0  0  0  0  0  0  0  0  0
    8.0650  -14.4220   -8.1450 C   0  0  0  0  0  0  0  0  0  0  0  0
    7.5490  -14.5340   -6.8500 C   0  0  0  0  0  0  0  0  0  0  0  0
    6.4600  -13.7480   -6.4460 C   0  0  0  0  0  0  0  0  0  0  0  0
    5.9440  -13.8590   -5.0950 C   0  0  0  0  0  0  0  0  0  0  0  0
    4.9770  -14.7310   -4.5600 C   0  0  0  0  0  0  0  0  0  0  0  0
    4.7700  -14.5500   -3.2600 N   0  0  0  0  0  0  0  0  0  0  0  0
    5.6000  -13.5280   -2.9100 N   0  0  0  0  0  0  0  0  0  0  0  0
    5.7600  -12.9200   -1.6490 C   0  0  0  0  0  0  0  0  0  0  0  0
    4.9780  -13.3350   -0.4630 C   0  0  0  0  0  0  0  0  0  0  0  0
    5.5190  -14.2180    0.4800 C   0  0  0  0  0  0  0  0  0  0  0  0
    4.7750  -14.5980    1.5970 C   0  0  0  0  0  0  0  0  0  0  0  0
    3.4870  -14.0960    1.7850 C   0  0  0  0  0  0  0  0  0  0  0  0
    2.9280  -13.2080    0.8610 C   0  0  0  0  0  0  0  0  0  0  0  0
    1.6220  -12.7400    1.1190 N   0  0  0  0  0  0  0  0  0  0  0  0
    0.4350  -13.4230    0.9220 C   0  0  0  0  0  0  0  0  0  0  0  0
    0.3000  -14.5200    0.3930 O   0  0  0  0  0  0  0  0  0  0  0  0
   -0.7910  -12.6990    1.3630 C   0  0  0  0  0  0  0  0  0  0  0  0
   -0.9420  -12.2340    2.6750 C   0  0  0  0  0  0  0  0  0  0  0  0
   -2.1070  -11.5620    3.0470 C   0  0  0  0  0  0  0  0  0  0  0  0
   -3.1290  -11.3620    2.1160 C   0  0  0  0  0  0  0  0  0  0  0  0
   -3.0070  -11.8460    0.8060 C   0  0  0  0  0  0  0  0  0  0  0  0
   -4.1030  -11.6270   -0.2080 C   0  0  0  0  0  0  0  0  0  0  0  0
   -3.9250  -12.3790   -1.3290 F   0  0  0  0  0  0  0  0  0  0  0  0
   -4.1910  -10.3360   -0.6330 F   0  0  0  0  0  0  0  0  0  0  0  0
   -5.3390  -11.9470    0.2670 F   0  0  0  0  0  0  0  0  0  0  0  0
   -1.8270  -12.5150    0.4370 C   0  0  0  0  0  0  0  0  0  0  0  0
    3.6750  -12.8450   -0.2640 C   0  0  0  0  0  0  0  0  0  0  0  0
    6.6640  -11.9310   -1.5140 C   0  0  0  0  0  0  0  0  0  0  0  0
    7.4200  -11.5610   -2.7350 C   0  0  0  0  0  0  0  0  0  0  0  0
    7.2930  -12.0960   -3.9110 N   0  0  0  0  0  0  0  0  0  0  0  0
    6.3570  -13.0950   -4.0170 C   0  0  0  0  0  0  0  0  0  0  0  0
    5.8720  -12.8720   -7.3700 C   0  0  0  0  0  0  0  0  0  0  0  0
    6.3730  -12.7580   -8.6680 C   0  0  0  0  0  0  0  0  0  0  0  0
   10.9471  -12.6161   -9.6301 H   0  0  0  0  0  0  0  0  0  0  0  0
   10.6728  -13.4717  -11.1856 H   0  0  0  0  0  0  0  0  0  0  0  0
   11.2687  -11.7771  -11.1856 H   0  0  0  0  0  0  0  0  0  0  0  0
    9.0160  -11.5600   -9.8020 H   0  0  0  0  0  0  0  0  0  0  0  0
    8.5976  -10.1297  -11.4520 H   0  0  0  0  0  0  0  0  0  0  0  0
    9.8245  -10.9856  -12.4464 H   0  0  0  0  0  0  0  0  0  0  0  0
    8.1182  -11.5468  -12.4464 H   0  0  0  0  0  0  0  0  0  0  0  0
    8.9199  -15.0398   -8.4571 H   0  0  0  0  0  0  0  0  0  0  0  0
    8.0011  -15.2445   -6.1423 H   0  0  0  0  0  0  0  0  0  0  0  0
    4.4461  -15.4863   -5.1580 H   0  0  0  0  0  0  0  0  0  0  0  0
    6.5356  -14.6138    0.3391 H   0  0  0  0  0  0  0  0  0  0  0  0
    5.2048  -15.2951    2.3314 H   0  0  0  0  0  0  0  0  0  0  0  0
    2.9062  -14.4015    2.6678 H   0  0  0  0  0  0  0  0  0  0  0  0
    1.5550  -11.7790    1.4300 H   0  0  0  0  0  0  0  0  0  0  0  0
   -0.1424  -12.3984    3.4124 H   0  0  0  0  0  0  0  0  0  0  0  0
   -2.2208  -11.1890    4.0755 H   0  0  0  0  0  0  0  0  0  0  0  0
   -4.0384  -10.8194    2.4137 H   0  0  0  0  0  0  0  0  0  0  0  0
   -1.7156  -12.8977   -0.5882 H   0  0  0  0  0  0  0  0  0  0  0  0
    3.2352  -12.1635   -1.0071 H   0  0  0  0  0  0  0  0  0  0  0  0
    6.8323  -11.4257   -0.5515 H   0  0  0  0  0  0  0  0  0  0  0  0
    8.1609  -10.7542   -2.6344 H   0  0  0  0  0  0  0  0  0  0  0  0
    5.0046  -12.2667   -7.0679 H   0  0  0  0  0  0  0  0  0  0  0  0
    5.8975  -12.0776   -9.3898 H   0  0  0  0  0  0  0  0  0  0  0  0
  1  2  1  0
  2  3  1  0
  2  4  1  0
  4  5  2  0
  4  6  2  0
  4  7  1  0
  7  8  2  0
  8  9  1  0
  9 10  2  0
 10 11  1  0
 11 12  1  0
 12 13  2  0
 13 14  1  0
 14 15  1  0
 15 16  1  0
 16 17  2  0
 17 18  1  0
 18 19  2  0
 19 20  1  0
 20 21  1  0
 21 22  1  0
 22 23  2  0
 22 24  1  0
 24 25  2  0
 25 26  1  0
 26 27  2  0
 27 28  1  0
 28 29  1  0
 29 30  1  0
 29 31  1  0
 29 32  1  0
 28 33  2  0
 20 34  2  0
 15 35  2  0
 35 36  1  0
 36 37  2  0
 37 38  1  0
 10 39  1  0
 39 40  2  0
 40  7  1  0
 38 11  2  0
 38 14  1  0
 34 16  1  0
 33 24  1  0
  1 41  1  0
  1 42  1  0
  1 43  1  0
  2 44  1  0
  3 45  1  0
  3 46  1  0
  3 47  1  0
  8 48  1  0
  9 49  1  0
 12 50  1  0
 17 51  1  0
 18 52  1  0
 19 53  1  0
 21 54  1  0
 25 55  1  0
 26 56  1  0
 27 57  1  0
 33 58  1  0
 34 59  1  0
 35 60  1  0
 36 61  1  0
 39 62  1  0
 40 63  1  0
M  CHG  1   2   1
M  END
>  <meeko>  (7) 
{"is_sidechain": [false], "free_energy": -9.056, "intermolecular_energy": -12.274, "internal_energy": -1.24}

$$$$
LIB_RBGUOHBCKRTPMX__M_PUB_ALL__e8__s20260927
     RDKit          3D

 63 67  0  0  0  0  0  0  0  0999 V2000
    9.3980  -13.3110   -9.8900 C   0  0  0  0  0  0  0  0  0  0  0  0
    7.9640  -13.6340   -9.6670 N   0  0  0  0  0  0  0  0  0  0  0  0
    7.2580  -14.0730  -10.8890 C   0  0  0  0  0  0  0  0  0  0  0  0
    7.8470  -14.7850   -8.4300 S   0  0  0  0  0  0  0  0  0  0  0  0
    7.4360  -15.9870   -9.1100 O   0  0  0  0  0  0  0  0  0  0  0  0
    9.1320  -14.6430   -7.7880 O   0  0  0  0  0  0  0  0  0  0  0  0
    6.5970  -14.2970   -7.2770 C   0  0  0  0  0  0  0  0  0  0  0  0
    6.2890  -15.1350   -6.1990 C   0  0  0  0  0  0  0  0  0  0  0  0
    5.3300  -14.7290   -5.2670 C   0  0  0  0  0  0  0  0  0  0  0  0
    4.6790  -13.4940   -5.4040 C   0  0  0  0  0  0  0  0  0  0  0  0
    3.6980  -13.0750   -4.4210 C   0  0  0  0  0  0  0  0  0  0  0  0
    2.3220  -12.8200   -4.5630 C   0  0  0  0  0  0  0  0  0  0  0  0
    1.7340  -12.4660   -3.4240 N   0  0  0  0  0  0  0  0  0  0  0  0
    2.7330  -12.4680   -2.4970 N   0  0  0  0  0  0  0  0  0  0  0  0
    2.6590  -12.1430   -1.1280 C   0  0  0  0  0  0  0  0  0  0  0  0
    1.4010  -11.7120   -0.4810 C   0  0  0  0  0  0  0  0  0  0  0  0
    0.9210  -10.4070   -0.6420 C   0  0  0  0  0  0  0  0  0  0  0  0
   -0.2700  -10.0120   -0.0310 C   0  0  0  0  0  0  0  0  0  0  0  0
   -0.9950  -10.9200    0.7410 C   0  0  0  0  0  0  0  0  0  0  0  0
   -0.5400  -12.2320    0.9110 C   0  0  0  0  0  0  0  0  0  0  0  0
   -1.3280  -13.0950    1.7030 N   0  0  0  0  0  0  0  0  0  0  0  0
   -2.5400  -13.6680    1.3610 C   0  0  0  0  0  0  0  0  0  0  0  0
   -3.1950  -13.4490    0.3490 O   0  0  0  0  0  0  0  0  0  0  0  0
   -3.1020  -14.6060    2.3740 C   0  0  0  0  0  0  0  0  0  0  0  0
   -2.5240  -15.8560    2.6260 C   0  0  0  0  0  0  0  0  0  0  0  0
   -3.0830  -16.7030    3.5820 C   0  0  0  0  0  0  0  0  0  0  0  0
   -4.2260  -16.3120    4.2830 C   0  0  0  0  0  0  0  0  0  0  0  0
   -4.8360  -15.0760    4.0240 C   0  0  0  0  0  0  0  0  0  0  0  0
   -6.0670  -14.6430    4.7830 C   0  0  0  0  0  0  0  0  0  0  0  0
   -6.2950  -13.3050    4.6710 F   0  0  0  0  0  0  0  0  0  0  0  0
   -5.9930  -14.9000    6.1180 F   0  0  0  0  0  0  0  0  0  0  0  0
   -7.2030  -15.2560    4.3480 F   0  0  0  0  0  0  0  0  0  0  0  0
   -4.2610  -14.2240    3.0650 C   0  0  0  0  0  0  0  0  0  0  0  0
    0.6630  -12.6130    0.3070 C   0  0  0  0  0  0  0  0  0  0  0  0
    3.7740  -12.2350   -0.3780 C   0  0  0  0  0  0  0  0  0  0  0  0
    5.0040  -12.6760   -1.0800 C   0  0  0  0  0  0  0  0  0  0  0  0
    5.1060  -12.9770   -2.3390 N   0  0  0  0  0  0  0  0  0  0  0  0
    3.9550  -12.8630   -3.0780 C   0  0  0  0  0  0  0  0  0  0  0  0
    4.9790  -12.6850   -6.5100 C   0  0  0  0  0  0  0  0  0  0  0  0
    5.9300  -13.0830   -7.4520 C   0  0  0  0  0  0  0  0  0  0  0  0
    9.9034  -13.1972   -8.9196 H   0  0  0  0  0  0  0  0  0  0  0  0
    9.8731  -14.1246  -10.4577 H   0  0  0  0  0  0  0  0  0  0  0  0
    9.4784  -12.3722  -10.4577 H   0  0  0  0  0  0  0  0  0  0  0  0
    7.5140  -12.8230   -9.2420 H   0  0  0  0  0  0  0  0  0  0  0  0
    6.3547  -14.6347  -10.6088 H   0  0  0  0  0  0  0  0  0  0  0  0
    6.9727  -13.1928  -11.4838 H   0  0  0  0  0  0  0  0  0  0  0  0
    7.9212  -14.7182  -11.4838 H   0  0  0  0  0  0  0  0  0  0  0  0
    6.7971  -16.1041   -6.0864 H   0  0  0  0  0  0  0  0  0  0  0  0
    5.0834  -15.3838   -4.4183 H   0  0  0  0  0  0  0  0  0  0  0  0
    1.7862  -12.9049   -5.5199 H   0  0  0  0  0  0  0  0  0  0  0  0
    1.4860   -9.6884   -1.2539 H   0  0  0  0  0  0  0  0  0  0  0  0
   -0.6376   -8.9831   -0.1584 H   0  0  0  0  0  0  0  0  0  0  0  0
   -1.9325  -10.6016    1.2202 H   0  0  0  0  0  0  0  0  0  0  0  0
   -0.9860  -13.2620    2.6410 H   0  0  0  0  0  0  0  0  0  0  0  0
   -1.6286  -16.1700    2.0696 H   0  0  0  0  0  0  0  0  0  0  0  0
   -2.6228  -17.6814    3.7846 H   0  0  0  0  0  0  0  0  0  0  0  0
   -4.6520  -16.9802    5.0459 H   0  0  0  0  0  0  0  0  0  0  0  0
   -4.7244  -13.2488    2.8547 H   0  0  0  0  0  0  0  0  0  0  0  0
    1.0387  -13.6367    0.4512 H   0  0  0  0  0  0  0  0  0  0  0  0
    3.7725  -11.9963    0.6958 H   0  0  0  0  0  0  0  0  0  0  0  0
    5.9192  -12.7559   -0.4749 H   0  0  0  0  0  0  0  0  0  0  0  0
    4.4583  -11.7244   -6.6370 H   0  0  0  0  0  0  0  0  0  0  0  0
    6.1511  -12.4472   -8.3220 H   0  0  0  0  0  0  0  0  0  0  0  0
  1  2  1  0
  2  3  1  0
  2  4  1  0
  4  5  2  0
  4  6  2  0
  4  7  1  0
  7  8  2  0
  8  9  1  0
  9 10  2  0
 10 11  1  0
 11 12  1  0
 12 13  2  0
 13 14  1  0
 14 15  1  0
 15 16  1  0
 16 17  2  0
 17 18  1  0
 18 19  2  0
 19 20  1  0
 20 21  1  0
 21 22  1  0
 22 23  2  0
 22 24  1  0
 24 25  2  0
 25 26  1  0
 26 27  2  0
 27 28  1  0
 28 29  1  0
 29 30  1  0
 29 31  1  0
 29 32  1  0
 28 33  2  0
 20 34  2  0
 15 35  2  0
 35 36  1  0
 36 37  2  0
 37 38  1  0
 10 39  1  0
 39 40  2  0
 40  7  1  0
 38 11  2  0
 38 14  1  0
 34 16  1  0
 33 24  1  0
  1 41  1  0
  1 42  1  0
  1 43  1  0
  2 44  1  0
  3 45  1  0
  3 46  1  0
  3 47  1  0
  8 48  1  0
  9 49  1  0
 12 50  1  0
 17 51  1  0
 18 52  1  0
 19 53  1  0
 21 54  1  0
 25 55  1  0
 26 56  1  0
 27 57  1  0
 33 58  1  0
 34 59  1  0
 35 60  1  0
 36 61  1  0
 39 62  1  0
 40 63  1  0
M  CHG  1   2   1
M  END
>  <meeko>  (8) 
{"is_sidechain": [false], "free_energy": -8.947, "intermolecular_energy": -12.274, "internal_energy": -1.086}

$$$$
LIB_RBGUOHBCKRTPMX__M_PUB_ALL__e8__s20260927
     RDKit          3D

 63 67  0  0  0  0  0  0  0  0999 V2000
  -14.7970  -25.5640   12.7260 C   0  0  0  0  0  0  0  0  0  0  0  0
  -14.3150  -25.0700   11.4090 N   0  0  0  0  0  0  0  0  0  0  0  0
  -14.5220  -23.6210   11.2070 C   0  0  0  0  0  0  0  0  0  0  0  0
  -12.6880  -25.5010   11.2240 S   0  0  0  0  0  0  0  0  0  0  0  0
  -12.2650  -25.8430   12.5590 O   0  0  0  0  0  0  0  0  0  0  0  0
  -12.7680  -26.4630   10.1520 O   0  0  0  0  0  0  0  0  0  0  0  0
  -11.7630  -24.1070   10.6470 C   0  0  0  0  0  0  0  0  0  0  0  0
  -11.6790  -23.8570    9.2730 C   0  0  0  0  0  0  0  0  0  0  0  0
  -10.9820  -22.7330    8.8210 C   0  0  0  0  0  0  0  0  0  0  0  0
  -10.3690  -21.8600    9.7320 C   0  0  0  0  0  0  0  0  0  0  0  0
   -9.6620  -20.6870    9.2530 C   0  0  0  0  0  0  0  0  0  0  0  0
   -8.4230  -20.1490    9.6470 C   0  0  0  0  0  0  0  0  0  0  0  0
   -8.0840  -19.0590    8.9660 N   0  0  0  0  0  0  0  0  0  0  0  0
   -9.1190  -18.8470    8.1050 N   0  0  0  0  0  0  0  0  0  0  0  0
   -9.2800  -17.8070    7.1680 C   0  0  0  0  0  0  0  0  0  0  0  0
   -8.2820  -16.7280    6.9990 C   0  0  0  0  0  0  0  0  0  0  0  0
   -8.2570  -15.6310    7.8680 C   0  0  0  0  0  0  0  0  0  0  0  0
   -7.3090  -14.6220    7.7030 C   0  0  0  0  0  0  0  0  0  0  0  0
   -6.3720  -14.7020    6.6720 C   0  0  0  0  0  0  0  0  0  0  0  0
   -6.3730  -15.7910    5.7940 C   0  0  0  0  0  0  0  0  0  0  0  0
   -5.3940  -15.8060    4.7780 N   0  0  0  0  0  0  0  0  0  0  0  0
   -4.2730  -16.6130    4.7090 C   0  0  0  0  0  0  0  0  0  0  0  0
   -3.8750  -17.3900    5.5690 O   0  0  0  0  0  0  0  0  0  0  0  0
   -3.4600  -16.4600    3.4690 C   0  0  0  0  0  0  0  0  0  0  0  0
   -2.7080  -17.5180    2.9430 C   0  0  0  0  0  0  0  0  0  0  0  0
   -1.9610  -17.3310    1.7800 C   0  0  0  0  0  0  0  0  0  0  0  0
   -1.9510  -16.0870    1.1440 C   0  0  0  0  0  0  0  0  0  0  0  0
   -2.6750  -15.0090    1.6730 C   0  0  0  0  0  0  0  0  0  0  0  0
   -2.6760  -13.6640    0.9870 C   0  0  0  0  0  0  0  0  0  0  0  0
   -1.4240  -13.2750    0.6180 F   0  0  0  0  0  0  0  0  0  0  0  0
   -3.1650  -12.6620    1.7690 F   0  0  0  0  0  0  0  0  0  0  0  0
   -3.4250  -13.6480   -0.1510 F   0  0  0  0  0  0  0  0  0  0  0  0
   -3.4320  -15.2080    2.8400 C   0  0  0  0  0  0  0  0  0  0  0  0
   -7.3370  -16.7910    5.9580 C   0  0  0  0  0  0  0  0  0  0  0  0
  -10.3790  -17.7980    6.3890 C   0  0  0  0  0  0  0  0  0  0  0  0
  -11.3420  -18.9070    6.6000 C   0  0  0  0  0  0  0  0  0  0  0  0
  -11.2260  -19.8750    7.4580 N   0  0  0  0  0  0  0  0  0  0  0  0
  -10.1000  -19.8500    8.2410 C   0  0  0  0  0  0  0  0  0  0  0  0
  -10.4360  -22.1480   11.1030 C   0  0  0  0  0  0  0  0  0  0  0  0
  -11.1230  -23.2720   11.5650 C   0  0  0  0  0  0  0  0  0  0  0  0
  -14.2744  -25.0283   13.5322 H   0  0  0  0  0  0  0  0  0  0  0  0
  -15.8795  -25.3873   12.8101 H   0  0  0  0  0  0  0  0  0  0  0  0
  -14.5938  -26.6418   12.8101 H   0  0  0  0  0  0  0  0  0  0  0  0
  -14.7620  -25.6210   10.6760 H   0  0  0  0  0  0  0  0  0  0  0  0
  -14.5934  -23.1211   12.1842 H   0  0  0  0  0  0  0  0  0  0  0  0
  -13.6742  -23.2046   10.6432 H   0  0  0  0  0  0  0  0  0  0  0  0
  -15.4525  -23.4586   10.6432 H   0  0  0  0  0  0  0  0  0  0  0  0
  -12.1573  -24.5391    8.5547 H   0  0  0  0  0  0  0  0  0  0  0  0
  -10.9136  -22.5313    7.7418 H   0  0  0  0  0  0  0  0  0  0  0  0
   -7.7977  -20.5866   10.4391 H   0  0  0  0  0  0  0  0  0  0  0  0
   -8.9896  -15.5645    8.6859 H   0  0  0  0  0  0  0  0  0  0  0  0
   -7.2997  -13.7608    8.3872 H   0  0  0  0  0  0  0  0  0  0  0  0
   -5.6267  -13.9024    6.5487 H   0  0  0  0  0  0  0  0  0  0  0  0
   -5.5060  -15.1080    4.0530 H   0  0  0  0  0  0  0  0  0  0  0  0
   -2.7065  -18.4959    3.4468 H   0  0  0  0  0  0  0  0  0  0  0  0
   -1.3782  -18.1652    1.3624 H   0  0  0  0  0  0  0  0  0  0  0  0
   -1.3698  -15.9521    0.2198 H   0  0  0  0  0  0  0  0  0  0  0  0
   -4.0084  -14.3726    3.2641 H   0  0  0  0  0  0  0  0  0  0  0  0
   -7.3569  -17.6418    5.2610 H   0  0  0  0  0  0  0  0  0  0  0  0
  -10.5527  -17.0127    5.6386 H   0  0  0  0  0  0  0  0  0  0  0  0
  -12.2422  -18.9095    5.9679 H   0  0  0  0  0  0  0  0  0  0  0  0
   -9.9411  -21.4799   11.8232 H   0  0  0  0  0  0  0  0  0  0  0  0
  -11.1597  -23.4975   12.6410 H   0  0  0  0  0  0  0  0  0  0  0  0
  1  2  1  0
  2  3  1  0
  2  4  1  0
  4  5  2  0
  4  6  2  0
  4  7  1  0
  7  8  2  0
  8  9  1  0
  9 10  2  0
 10 11  1  0
 11 12  1  0
 12 13  2  0
 13 14  1  0
 14 15  1  0
 15 16  1  0
 16 17  2  0
 17 18  1  0
 18 19  2  0
 19 20  1  0
 20 21  1  0
 21 22  1  0
 22 23  2  0
 22 24  1  0
 24 25  2  0
 25 26  1  0
 26 27  2  0
 27 28  1  0
 28 29  1  0
 29 30  1  0
 29 31  1  0
 29 32  1  0
 28 33  2  0
 20 34  2  0
 15 35  2  0
 35 36  1  0
 36 37  2  0
 37 38  1  0
 10 39  1  0
 39 40  2  0
 40  7  1  0
 38 11  2  0
 38 14  1  0
 34 16  1  0
 33 24  1  0
  1 41  1  0
  1 42  1  0
  1 43  1  0
  2 44  1  0
  3 45  1  0
  3 46  1  0
  3 47  1  0
  8 48  1  0
  9 49  1  0
 12 50  1  0
 17 51  1  0
 18 52  1  0
 19 53  1  0
 21 54  1  0
 25 55  1  0
 26 56  1  0
 27 57  1  0
 33 58  1  0
 34 59  1  0
 35 60  1  0
 36 61  1  0
 39 62  1  0
 40 63  1  0
M  CHG  1   2   1
M  END
>  <meeko>  (9) 
{"is_sidechain": [false], "free_energy": -8.874, "intermolecular_energy": -12.396, "internal_energy": -0.861}

$$$$
