LIB_XRZVCGWERZVRNT__M_PUB_ALL__e8__s20260927
     RDKit          3D

 59 62  0  0  0  0  0  0  0  0999 V2000
   13.0350  -16.0980   -8.5840 C   0  0  0  0  0  0  0  0  0  0  0  0
   13.9050  -14.8650   -8.2890 C   0  0  0  0  0  0  0  0  0  0  0  0
   13.7540  -13.8250   -9.4100 C   0  0  0  0  0  0  0  0  0  0  0  0
   15.3290  -15.3070   -8.2580 C   0  0  0  0  0  0  0  0  0  0  0  0
   16.4420  -15.6340   -8.1900 N   0  0  0  0  0  0  0  0  0  0  0  0
   13.5760  -14.2810   -6.9760 N   0  0  0  0  0  0  0  0  0  0  0  0
   13.8290  -14.8950   -5.7710 C   0  0  0  0  0  0  0  0  0  0  0  0
   14.3230  -16.0100   -5.6670 O   0  0  0  0  0  0  0  0  0  0  0  0
   13.4320  -14.1410   -4.5480 C   0  0  0  0  0  0  0  0  0  0  0  0
   13.9680  -12.8670   -4.3510 C   0  0  0  0  0  0  0  0  0  0  0  0
   13.6190  -12.1240   -3.2170 C   0  0  0  0  0  0  0  0  0  0  0  0
   12.7240  -12.6260   -2.2540 C   0  0  0  0  0  0  0  0  0  0  0  0
   12.3710  -11.8250   -1.0640 C   0  0  0  0  0  0  0  0  0  0  0  0
   13.1290  -10.7600   -0.6240 C   0  0  0  0  0  0  0  0  0  0  0  0
   12.6680  -10.1140    0.4950 C   0  0  0  0  0  0  0  0  0  0  0  0
   11.5510  -10.4700    1.1480 N   0  0  0  0  0  0  0  0  0  0  0  0
   10.8590  -11.5100    0.6650 C   0  0  0  0  0  0  0  0  0  0  0  0
    9.6890  -11.9660    1.2630 N   0  0  0  0  0  0  0  0  0  0  0  0
    8.3620  -12.0830    0.8420 C   0  0  0  0  0  0  0  0  0  0  0  0
    7.8550  -13.1770    0.1440 C   0  0  0  0  0  0  0  0  0  0  0  0
    6.5060  -13.2320   -0.2520 C   0  0  0  0  0  0  0  0  0  0  0  0
    5.6040  -12.2030    0.0410 C   0  0  0  0  0  0  0  0  0  0  0  0
    4.2700  -12.2360   -0.3470 N   0  0  0  0  0  0  0  0  0  0  0  0
    3.9090  -12.4590   -1.7570 C   0  0  0  0  0  0  0  0  0  0  0  0
    2.4630  -12.0090   -2.0200 C   0  0  0  0  0  0  0  0  0  0  0  0
    1.5390  -12.6430   -1.1230 O   0  0  0  0  0  0  0  0  0  0  0  0
    1.8640  -12.2960    0.2320 C   0  0  0  0  0  0  0  0  0  0  0  0
    3.2790  -12.7560    0.6160 C   0  0  0  0  0  0  0  0  0  0  0  0
    6.1250  -11.1030    0.7330 C   0  0  0  0  0  0  0  0  0  0  0  0
    7.4700  -11.0430    1.1270 C   0  0  0  0  0  0  0  0  0  0  0  0
   11.2360  -12.1950   -0.4270 N   0  0  0  0  0  0  0  0  0  0  0  0
   12.1770  -13.9030   -2.4850 C   0  0  0  0  0  0  0  0  0  0  0  0
   12.5220  -14.6530   -3.6180 C   0  0  0  0  0  0  0  0  0  0  0  0
   12.7128  -16.5546   -7.6365 H   0  0  0  0  0  0  0  0  0  0  0  0
   12.1510  -15.7929   -9.1633 H   0  0  0  0  0  0  0  0  0  0  0  0
   13.6187  -16.8285   -9.1633 H   0  0  0  0  0  0  0  0  0  0  0  0
   13.6093  -12.8281   -8.9682 H   0  0  0  0  0  0  0  0  0  0  0  0
   14.6611  -13.8222  -10.0322 H   0  0  0  0  0  0  0  0  0  0  0  0
   12.8835  -14.0803  -10.0322 H   0  0  0  0  0  0  0  0  0  0  0  0
   13.0570  -13.4110   -6.9790 H   0  0  0  0  0  0  0  0  0  0  0  0
   14.6666  -12.4458   -5.0890 H   0  0  0  0  0  0  0  0  0  0  0  0
   14.0547  -11.1240   -3.0753 H   0  0  0  0  0  0  0  0  0  0  0  0
   14.0488  -10.4471   -1.1398 H   0  0  0  0  0  0  0  0  0  0  0  0
   13.2446   -9.2588    0.8773 H   0  0  0  0  0  0  0  0  0  0  0  0
    9.8980  -12.2610    2.2040 H   0  0  0  0  0  0  0  0  0  0  0  0
    8.5233  -14.0152   -0.1026 H   0  0  0  0  0  0  0  0  0  0  0  0
    6.1494  -14.1109   -0.8091 H   0  0  0  0  0  0  0  0  0  0  0  0
    4.5901  -11.8829   -2.4006 H   0  0  0  0  0  0  0  0  0  0  0  0
    3.9937  -13.5327   -1.9804 H   0  0  0  0  0  0  0  0  0  0  0  0
    2.3988  -10.9190   -1.8864 H   0  0  0  0  0  0  0  0  0  0  0  0
    2.1957  -12.2962   -3.0476 H   0  0  0  0  0  0  0  0  0  0  0  0
    1.8022  -11.2035    0.3442 H   0  0  0  0  0  0  0  0  0  0  0  0
    1.1481  -12.8031    0.8956 H   0  0  0  0  0  0  0  0  0  0  0  0
    3.5208  -12.3822    1.6219 H   0  0  0  0  0  0  0  0  0  0  0  0
    3.3120  -13.8554    0.6023 H   0  0  0  0  0  0  0  0  0  0  0  0
    5.4599  -10.2609    0.9749 H   0  0  0  0  0  0  0  0  0  0  0  0
    7.8316  -10.1587    1.6722 H   0  0  0  0  0  0  0  0  0  0  0  0
   11.4631  -14.3213   -1.7602 H   0  0  0  0  0  0  0  0  0  0  0  0
   12.0760  -15.6461   -3.7757 H   0  0  0  0  0  0  0  0  0  0  0  0
  1  2  1  0
  2  3  1  0
  2  4  1  0
  4  5  3  0
  2  6  1  0
  6  7  1  0
  7  8  2  0
  7  9  1  0
  9 10  2  0
 10 11  1  0
 11 12  2  0
 12 13  1  0
 13 14  2  0
 14 15  1  0
 15 16  2  0
 16 17  1  0
 17 18  1  0
 18 19  1  0
 19 20  2  0
 20 21  1  0
 21 22  2  0
 22 23  1  0
 23 24  1  0
 24 25  1  0
 25 26  1  0
 26 27  1  0
 27 28  1  0
 22 29  1  0
 29 30  2  0
 17 31  2  0
 12 32  1  0
 32 33  2  0
 33  9  1  0
 31 13  1  0
 30 19  1  0
 28 23  1  0
  1 34  1  0
  1 35  1  0
  1 36  1  0
  3 37  1  0
  3 38  1  0
  3 39  1  0
  6 40  1  0
 10 41  1  0
 11 42  1  0
 14 43  1  0
 15 44  1  0
 18 45  1  0
 20 46  1  0
 21 47  1  0
 24 48  1  0
 24 49  1  0
 25 50  1  0
 25 51  1  0
 27 52  1  0
 27 53  1  0
 28 54  1  0
 28 55  1  0
 29 56  1  0
 30 57  1  0
 32 58  1  0
 33 59  1  0
M  END
>  <meeko>  (1) 
{"is_sidechain": [false], "free_energy": -8.724, "intermolecular_energy": -11.784, "internal_energy": -0.335}

$$$$
LIB_XRZVCGWERZVRNT__M_PUB_ALL__e8__s20260927
     RDKit          3D

 59 62  0  0  0  0  0  0  0  0999 V2000
   18.8410   -4.2550   12.6420 C   0  0  0  0  0  0  0  0  0  0  0  0
   19.4690   -5.6400   12.8680 C   0  0  0  0  0  0  0  0  0  0  0  0
   20.2620   -5.6590   14.1850 C   0  0  0  0  0  0  0  0  0  0  0  0
   20.4240   -5.8980   11.7520 C   0  0  0  0  0  0  0  0  0  0  0  0
   21.1430   -6.1380   10.8720 N   0  0  0  0  0  0  0  0  0  0  0  0
   18.4450   -6.7010   12.8520 N   0  0  0  0  0  0  0  0  0  0  0  0
   17.5600   -6.9050   11.8170 C   0  0  0  0  0  0  0  0  0  0  0  0
   17.5100   -6.2010   10.8170 O   0  0  0  0  0  0  0  0  0  0  0  0
   16.6030   -8.0350   11.9800 C   0  0  0  0  0  0  0  0  0  0  0  0
   15.2740   -7.8390   11.5960 C   0  0  0  0  0  0  0  0  0  0  0  0
   14.3430   -8.8750   11.7290 C   0  0  0  0  0  0  0  0  0  0  0  0
   14.7090  -10.1330   12.2430 C   0  0  0  0  0  0  0  0  0  0  0  0
   13.7080  -11.2130   12.3760 C   0  0  0  0  0  0  0  0  0  0  0  0
   13.7640  -12.3820   11.6460 C   0  0  0  0  0  0  0  0  0  0  0  0
   12.7630  -13.2890   11.8850 C   0  0  0  0  0  0  0  0  0  0  0  0
   11.7720  -13.0830   12.7660 N   0  0  0  0  0  0  0  0  0  0  0  0
   11.7800  -11.9290   13.4450 C   0  0  0  0  0  0  0  0  0  0  0  0
   10.8020  -11.6100   14.3810 N   0  0  0  0  0  0  0  0  0  0  0  0
    9.7050  -10.7460   14.3880 C   0  0  0  0  0  0  0  0  0  0  0  0
    8.4090  -11.1260   14.7320 C   0  0  0  0  0  0  0  0  0  0  0  0
    7.3470  -10.2040   14.7170 C   0  0  0  0  0  0  0  0  0  0  0  0
    7.5350   -8.8610   14.3690 C   0  0  0  0  0  0  0  0  0  0  0  0
    6.4970   -7.9370   14.3430 N   0  0  0  0  0  0  0  0  0  0  0  0
    6.7060   -6.5960   13.7700 C   0  0  0  0  0  0  0  0  0  0  0  0
    5.6140   -5.6290   14.2520 C   0  0  0  0  0  0  0  0  0  0  0  0
    4.2990   -6.1320   13.9720 O   0  0  0  0  0  0  0  0  0  0  0  0
    4.1040   -7.3820   14.6520 C   0  0  0  0  0  0  0  0  0  0  0  0
    5.1180   -8.4440   14.1980 C   0  0  0  0  0  0  0  0  0  0  0  0
    8.8380   -8.4900   14.0150 C   0  0  0  0  0  0  0  0  0  0  0  0
    9.8980   -9.4080   14.0260 C   0  0  0  0  0  0  0  0  0  0  0  0
   12.7240  -10.9890   13.2770 N   0  0  0  0  0  0  0  0  0  0  0  0
   16.0580  -10.3160   12.6000 C   0  0  0  0  0  0  0  0  0  0  0  0
   16.9970   -9.2840   12.4690 C   0  0  0  0  0  0  0  0  0  0  0  0
   18.6283   -3.7858   13.6139 H   0  0  0  0  0  0  0  0  0  0  0  0
   19.5407   -3.6232   12.0752 H   0  0  0  0  0  0  0  0  0  0  0  0
   17.9047   -4.3650   12.0752 H   0  0  0  0  0  0  0  0  0  0  0  0
   19.5630   -5.6423   15.0342 H   0  0  0  0  0  0  0  0  0  0  0  0
   20.8737   -6.5721   14.2316 H   0  0  0  0  0  0  0  0  0  0  0  0
   20.9167   -4.7763   14.2316 H   0  0  0  0  0  0  0  0  0  0  0  0
   18.3430   -7.2520   13.6950 H   0  0  0  0  0  0  0  0  0  0  0  0
   14.9587   -6.8674   11.1879 H   0  0  0  0  0  0  0  0  0  0  0  0
   13.3002   -8.7021   11.4246 H   0  0  0  0  0  0  0  0  0  0  0  0
   14.5636  -12.5754   10.9158 H   0  0  0  0  0  0  0  0  0  0  0  0
   12.7732  -14.2355   11.3247 H   0  0  0  0  0  0  0  0  0  0  0  0
   10.9670  -12.1450   15.2190 H   0  0  0  0  0  0  0  0  0  0  0  0
    8.2126  -12.1689   15.0213 H   0  0  0  0  0  0  0  0  0  0  0  0
    6.3379  -10.5486   14.9869 H   0  0  0  0  0  0  0  0  0  0  0  0
    7.6896   -6.2172   14.0846 H   0  0  0  0  0  0  0  0  0  0  0  0
    6.6600   -6.6666   12.6732 H   0  0  0  0  0  0  0  0  0  0  0  0
    5.7176   -5.4867   15.3378 H   0  0  0  0  0  0  0  0  0  0  0  0
    5.7383   -4.6764   13.7163 H   0  0  0  0  0  0  0  0  0  0  0  0
    4.2185   -7.2202   15.7340 H   0  0  0  0  0  0  0  0  0  0  0  0
    3.0951   -7.7481   14.4111 H   0  0  0  0  0  0  0  0  0  0  0  0
    4.9974   -9.3468   14.8148 H   0  0  0  0  0  0  0  0  0  0  0  0
    4.9354   -8.6810   13.1395 H   0  0  0  0  0  0  0  0  0  0  0  0
    9.0357   -7.4489   13.7199 H   0  0  0  0  0  0  0  0  0  0  0  0
   10.9053   -9.0683   13.7433 H   0  0  0  0  0  0  0  0  0  0  0  0
   16.3828  -11.2916   12.9909 H   0  0  0  0  0  0  0  0  0  0  0  0
   18.0459   -9.4570   12.7514 H   0  0  0  0  0  0  0  0  0  0  0  0
  1  2  1  0
  2  3  1  0
  2  4  1  0
  4  5  3  0
  2  6  1  0
  6  7  1  0
  7  8  2  0
  7  9  1  0
  9 10  2  0
 10 11  1  0
 11 12  2  0
 12 13  1  0
 13 14  2  0
 14 15  1  0
 15 16  2  0
 16 17  1  0
 17 18  1  0
 18 19  1  0
 19 20  2  0
 20 21  1  0
 21 22  2  0
 22 23  1  0
 23 24  1  0
 24 25  1  0
 25 26  1  0
 26 27  1  0
 27 28  1  0
 22 29  1  0
 29 30  2  0
 17 31  2  0
 12 32  1  0
 32 33  2  0
 33  9  1  0
 31 13  1  0
 30 19  1  0
 28 23  1  0
  1 34  1  0
  1 35  1  0
  1 36  1  0
  3 37  1  0
  3 38  1  0
  3 39  1  0
  6 40  1  0
 10 41  1  0
 11 42  1  0
 14 43  1  0
 15 44  1  0
 18 45  1  0
 20 46  1  0
 21 47  1  0
 24 48  1  0
 24 49  1  0
 25 50  1  0
 25 51  1  0
 27 52  1  0
 27 53  1  0
 28 54  1  0
 28 55  1  0
 29 56  1  0
 30 57  1  0
 32 58  1  0
 33 59  1  0
M  END
>  <meeko>  (2) 
{"is_sidechain": [false], "free_energy": -8.196, "intermolecular_energy": -11.124, "internal_energy": -0.282}

$$$$
LIB_XRZVCGWERZVRNT__M_PUB_ALL__e8__s20260927
     RDKit          3D

 59 62  0  0  0  0  0  0  0  0999 V2000
   15.6970   -6.6380   11.1540 C   0  0  0  0  0  0  0  0  0  0  0  0
   16.1840   -7.4810   12.3440 C   0  0  0  0  0  0  0  0  0  0  0  0
   15.9470   -6.7290   13.6640 C   0  0  0  0  0  0  0  0  0  0  0  0
   17.6530   -7.6880   12.1890 C   0  0  0  0  0  0  0  0  0  0  0  0
   18.7890   -7.8960   12.0680 N   0  0  0  0  0  0  0  0  0  0  0  0
   15.5320   -8.8040   12.3640 N   0  0  0  0  0  0  0  0  0  0  0  0
   14.1700   -8.9940   12.3710 C   0  0  0  0  0  0  0  0  0  0  0  0
   13.3560   -8.0800   12.3970 O   0  0  0  0  0  0  0  0  0  0  0  0
   13.6990  -10.4080   12.3820 C   0  0  0  0  0  0  0  0  0  0  0  0
   12.6740  -10.7590   13.2620 C   0  0  0  0  0  0  0  0  0  0  0  0
   12.2010  -12.0760   13.3030 C   0  0  0  0  0  0  0  0  0  0  0  0
   12.7310  -13.0760   12.4660 C   0  0  0  0  0  0  0  0  0  0  0  0
   12.2170  -14.4600   12.5270 C   0  0  0  0  0  0  0  0  0  0  0  0
   10.8760  -14.7660   12.4290 C   0  0  0  0  0  0  0  0  0  0  0  0
   10.5570  -16.0990   12.5010 C   0  0  0  0  0  0  0  0  0  0  0  0
   11.4680  -17.0710   12.6580 N   0  0  0  0  0  0  0  0  0  0  0  0
   12.7540  -16.7050   12.7420 C   0  0  0  0  0  0  0  0  0  0  0  0
   13.7810  -17.6280   12.9070 N   0  0  0  0  0  0  0  0  0  0  0  0
   14.8180  -18.0880   12.0920 C   0  0  0  0  0  0  0  0  0  0  0  0
   16.1710  -17.8820   12.3540 C   0  0  0  0  0  0  0  0  0  0  0  0
   17.1670  -18.3720   11.4900 C   0  0  0  0  0  0  0  0  0  0  0  0
   16.8550  -19.0960   10.3330 C   0  0  0  0  0  0  0  0  0  0  0  0
   17.8250  -19.5830    9.4650 N   0  0  0  0  0  0  0  0  0  0  0  0
   17.4640  -19.9860    8.0950 C   0  0  0  0  0  0  0  0  0  0  0  0
   18.5520  -20.8920    7.4970 C   0  0  0  0  0  0  0  0  0  0  0  0
   19.8450  -20.2720    7.5500 O   0  0  0  0  0  0  0  0  0  0  0  0
   20.2010  -20.0090    8.9160 C   0  0  0  0  0  0  0  0  0  0  0  0
   19.2000  -19.0610    9.5950 C   0  0  0  0  0  0  0  0  0  0  0  0
   15.4930  -19.2890   10.0730 C   0  0  0  0  0  0  0  0  0  0  0  0
   14.4980  -18.7990   10.9310 C   0  0  0  0  0  0  0  0  0  0  0  0
   13.1540  -15.4240   12.6760 N   0  0  0  0  0  0  0  0  0  0  0  0
   13.7470  -12.6940   11.5700 C   0  0  0  0  0  0  0  0  0  0  0  0
   14.2270  -11.3770   11.5230 C   0  0  0  0  0  0  0  0  0  0  0  0
   15.1793   -5.7419   11.5269 H   0  0  0  0  0  0  0  0  0  0  0  0
   16.5593   -6.3352   10.5419 H   0  0  0  0  0  0  0  0  0  0  0  0
   15.0039   -7.2338   10.5419 H   0  0  0  0  0  0  0  0  0  0  0  0
   16.1581   -7.3988   14.5106 H   0  0  0  0  0  0  0  0  0  0  0  0
   16.6133   -5.8551   13.7129 H   0  0  0  0  0  0  0  0  0  0  0  0
   14.9001   -6.3950   13.7129 H   0  0  0  0  0  0  0  0  0  0  0  0
   16.1370   -9.6100   12.4630 H   0  0  0  0  0  0  0  0  0  0  0  0
   12.2365   -9.9984   13.9254 H   0  0  0  0  0  0  0  0  0  0  0  0
   11.3959  -12.3356   14.0061 H   0  0  0  0  0  0  0  0  0  0  0  0
   10.1083  -13.9887   12.3009 H   0  0  0  0  0  0  0  0  0  0  0  0
    9.4976  -16.3856   12.4259 H   0  0  0  0  0  0  0  0  0  0  0  0
   13.7170  -18.0240   13.8320 H   0  0  0  0  0  0  0  0  0  0  0  0
   16.4663  -17.3246   13.2552 H   0  0  0  0  0  0  0  0  0  0  0  0
   18.2231  -18.1805   11.7307 H   0  0  0  0  0  0  0  0  0  0  0  0
   16.5098  -20.5327    8.1179 H   0  0  0  0  0  0  0  0  0  0  0  0
   17.3692  -19.0845    7.4719 H   0  0  0  0  0  0  0  0  0  0  0  0
   18.5842  -21.8335    8.0650 H   0  0  0  0  0  0  0  0  0  0  0  0
   18.3029  -21.0775    6.4418 H   0  0  0  0  0  0  0  0  0  0  0  0
   20.2211  -20.9602    9.4681 H   0  0  0  0  0  0  0  0  0  0  0  0
   21.1891  -19.5256    8.9245 H   0  0  0  0  0  0  0  0  0  0  0  0
   19.4535  -18.9701   10.6615 H   0  0  0  0  0  0  0  0  0  0  0  0
   19.2548  -18.0765    9.1074 H   0  0  0  0  0  0  0  0  0  0  0  0
   15.1947  -19.8410    9.1695 H   0  0  0  0  0  0  0  0  0  0  0  0
   13.4409  -18.9781   10.6851 H   0  0  0  0  0  0  0  0  0  0  0  0
   14.1746  -13.4461   10.8906 H   0  0  0  0  0  0  0  0  0  0  0  0
   15.0195  -11.1061   10.8098 H   0  0  0  0  0  0  0  0  0  0  0  0
  1  2  1  0
  2  3  1  0
  2  4  1  0
  4  5  3  0
  2  6  1  0
  6  7  1  0
  7  8  2  0
  7  9  1  0
  9 10  2  0
 10 11  1  0
 11 12  2  0
 12 13  1  0
 13 14  2  0
 14 15  1  0
 15 16  2  0
 16 17  1  0
 17 18  1  0
 18 19  1  0
 19 20  2  0
 20 21  1  0
 21 22  2  0
 22 23  1  0
 23 24  1  0
 24 25  1  0
 25 26  1  0
 26 27  1  0
 27 28  1  0
 22 29  1  0
 29 30  2  0
 17 31  2  0
 12 32  1  0
 32 33  2  0
 33  9  1  0
 31 13  1  0
 30 19  1  0
 28 23  1  0
  1 34  1  0
  1 35  1  0
  1 36  1  0
  3 37  1  0
  3 38  1  0
  3 39  1  0
  6 40  1  0
 10 41  1  0
 11 42  1  0
 14 43  1  0
 15 44  1  0
 18 45  1  0
 20 46  1  0
 21 47  1  0
 24 48  1  0
 24 49  1  0
 25 50  1  0
 25 51  1  0
 27 52  1  0
 27 53  1  0
 28 54  1  0
 28 55  1  0
 29 56  1  0
 30 57  1  0
 32 58  1  0
 33 59  1  0
M  END
>  <meeko>  (3) 
{"is_sidechain": [false], "free_energy": -7.944, "intermolecular_energy": -10.536, "internal_energy": -0.53}

$$$$
LIB_XRZVCGWERZVRNT__M_PUB_ALL__e8__s20260927
     RDKit          3D

 59 62  0  0  0  0  0  0  0  0999 V2000
    9.0190  -12.9320   -9.9630 C   0  0  0  0  0  0  0  0  0  0  0  0
    7.5380  -12.6150  -10.2340 C   0  0  0  0  0  0  0  0  0  0  0  0
    6.9840  -13.5460  -11.3240 C   0  0  0  0  0  0  0  0  0  0  0  0
    7.4550  -11.2140  -10.7380 C   0  0  0  0  0  0  0  0  0  0  0  0
    7.3600  -10.1120  -11.0940 N   0  0  0  0  0  0  0  0  0  0  0  0
    6.7370  -12.7090   -8.9990 N   0  0  0  0  0  0  0  0  0  0  0  0
    6.6950  -13.8200   -8.1880 C   0  0  0  0  0  0  0  0  0  0  0  0
    7.2920  -14.8610   -8.4290 O   0  0  0  0  0  0  0  0  0  0  0  0
    5.8330  -13.7220   -6.9770 C   0  0  0  0  0  0  0  0  0  0  0  0
    4.8510  -12.7290   -6.9400 C   0  0  0  0  0  0  0  0  0  0  0  0
    4.0180  -12.6040   -5.8220 C   0  0  0  0  0  0  0  0  0  0  0  0
    4.1360  -13.4650   -4.7150 C   0  0  0  0  0  0  0  0  0  0  0  0
    3.2460  -13.3140   -3.5450 C   0  0  0  0  0  0  0  0  0  0  0  0
    3.1090  -12.1270   -2.8560 C   0  0  0  0  0  0  0  0  0  0  0  0
    2.2410  -12.1460   -1.7930 C   0  0  0  0  0  0  0  0  0  0  0  0
    1.5540  -13.2350   -1.4170 N   0  0  0  0  0  0  0  0  0  0  0  0
    1.7310  -14.3530   -2.1320 C   0  0  0  0  0  0  0  0  0  0  0  0
    1.0710  -15.5400   -1.8310 N   0  0  0  0  0  0  0  0  0  0  0  0
    0.4430  -16.0430   -0.6890 C   0  0  0  0  0  0  0  0  0  0  0  0
    1.1120  -16.4030    0.4790 C   0  0  0  0  0  0  0  0  0  0  0  0
    0.4180  -16.9050    1.5950 C   0  0  0  0  0  0  0  0  0  0  0  0
   -0.9720  -17.0610    1.5950 C   0  0  0  0  0  0  0  0  0  0  0  0
   -1.6740  -17.5610    2.6860 N   0  0  0  0  0  0  0  0  0  0  0  0
   -1.0120  -17.7130    3.9930 C   0  0  0  0  0  0  0  0  0  0  0  0
   -1.8050  -18.6780    4.8880 C   0  0  0  0  0  0  0  0  0  0  0  0
   -3.1740  -18.2710    5.0250 O   0  0  0  0  0  0  0  0  0  0  0  0
   -3.8060  -18.2550    3.7350 C   0  0  0  0  0  0  0  0  0  0  0  0
   -3.1190  -17.2730    2.7740 C   0  0  0  0  0  0  0  0  0  0  0  0
   -1.6350  -16.7080    0.4140 C   0  0  0  0  0  0  0  0  0  0  0  0
   -0.9460  -16.2090   -0.7010 C   0  0  0  0  0  0  0  0  0  0  0  0
    2.5550  -14.4220   -3.1900 N   0  0  0  0  0  0  0  0  0  0  0  0
    5.1160  -14.4740   -4.7850 C   0  0  0  0  0  0  0  0  0  0  0  0
    5.9540  -14.6060   -5.9000 C   0  0  0  0  0  0  0  0  0  0  0  0
    9.1933  -12.9693   -8.8775 H   0  0  0  0  0  0  0  0  0  0  0  0
    9.2733  -13.9049  -10.4089 H   0  0  0  0  0  0  0  0  0  0  0  0
    9.6492  -12.1484  -10.4089 H   0  0  0  0  0  0  0  0  0  0  0  0
    6.4757  -14.4002  -10.8530 H   0  0  0  0  0  0  0  0  0  0  0  0
    6.2681  -12.9928  -11.9496 H   0  0  0  0  0  0  0  0  0  0  0  0
    7.8117  -13.9114  -11.9496 H   0  0  0  0  0  0  0  0  0  0  0  0
    6.1210  -11.9320   -8.7930 H   0  0  0  0  0  0  0  0  0  0  0  0
    4.7320  -12.0434   -7.7919 H   0  0  0  0  0  0  0  0  0  0  0  0
    3.2528  -11.8139   -5.8083 H   0  0  0  0  0  0  0  0  0  0  0  0
    3.6620  -11.2199   -3.1412 H   0  0  0  0  0  0  0  0  0  0  0  0
    2.1012  -11.2184   -1.2186 H   0  0  0  0  0  0  0  0  0  0  0  0
    1.0770  -16.1320   -2.6480 H   0  0  0  0  0  0  0  0  0  0  0  0
    2.2053  -16.2924    0.5295 H   0  0  0  0  0  0  0  0  0  0  0  0
    0.9858  -17.1833    2.4951 H   0  0  0  0  0  0  0  0  0  0  0  0
    0.0023  -18.1107    3.8411 H   0  0  0  0  0  0  0  0  0  0  0  0
   -0.9638  -16.7300    4.4842 H   0  0  0  0  0  0  0  0  0  0  0  0
   -1.7749  -19.6834    4.4427 H   0  0  0  0  0  0  0  0  0  0  0  0
   -1.3449  -18.6754    5.8871 H   0  0  0  0  0  0  0  0  0  0  0  0
   -3.7601  -19.2659    3.3037 H   0  0  0  0  0  0  0  0  0  0  0  0
   -4.8479  -17.9288    3.8693 H   0  0  0  0  0  0  0  0  0  0  0  0
   -3.5689  -17.3698    1.7749 H   0  0  0  0  0  0  0  0  0  0  0  0
   -3.2552  -16.2497    3.1538 H   0  0  0  0  0  0  0  0  0  0  0  0
   -2.7273  -16.8253    0.3588 H   0  0  0  0  0  0  0  0  0  0  0  0
   -1.5110  -15.9419   -1.6062 H   0  0  0  0  0  0  0  0  0  0  0  0
    5.2261  -15.1750   -3.9445 H   0  0  0  0  0  0  0  0  0  0  0  0
    6.7083  -15.4062   -5.9284 H   0  0  0  0  0  0  0  0  0  0  0  0
  1  2  1  0
  2  3  1  0
  2  4  1  0
  4  5  3  0
  2  6  1  0
  6  7  1  0
  7  8  2  0
  7  9  1  0
  9 10  2  0
 10 11  1  0
 11 12  2  0
 12 13  1  0
 13 14  2  0
 14 15  1  0
 15 16  2  0
 16 17  1  0
 17 18  1  0
 18 19  1  0
 19 20  2  0
 20 21  1  0
 21 22  2  0
 22 23  1  0
 23 24  1  0
 24 25  1  0
 25 26  1  0
 26 27  1  0
 27 28  1  0
 22 29  1  0
 29 30  2  0
 17 31  2  0
 12 32  1  0
 32 33  2  0
 33  9  1  0
 31 13  1  0
 30 19  1  0
 28 23  1  0
  1 34  1  0
  1 35  1  0
  1 36  1  0
  3 37  1  0
  3 38  1  0
  3 39  1  0
  6 40  1  0
 10 41  1  0
 11 42  1  0
 14 43  1  0
 15 44  1  0
 18 45  1  0
 20 46  1  0
 21 47  1  0
 24 48  1  0
 24 49  1  0
 25 50  1  0
 25 51  1  0
 27 52  1  0
 27 53  1  0
 28 54  1  0
 28 55  1  0
 29 56  1  0
 30 57  1  0
 32 58  1  0
 33 59  1  0
M  END
>  <meeko>  (4) 
{"is_sidechain": [false], "free_energy": -7.925, "intermolecular_energy": -10.565, "internal_energy": -0.475}

$$$$
LIB_XRZVCGWERZVRNT__M_PUB_ALL__e8__s20260927
     RDKit          3D

 59 62  0  0  0  0  0  0  0  0999 V2000
    7.4530  -13.6620  -11.4380 C   0  0  0  0  0  0  0  0  0  0  0  0
    7.9950  -12.6060  -10.4600 C   0  0  0  0  0  0  0  0  0  0  0  0
    8.1410  -11.2490  -11.1670 C   0  0  0  0  0  0  0  0  0  0  0  0
    9.3490  -13.0440  -10.0180 C   0  0  0  0  0  0  0  0  0  0  0  0
   10.3890  -13.3840   -9.6280 N   0  0  0  0  0  0  0  0  0  0  0  0
    7.1350  -12.4910   -9.2670 N   0  0  0  0  0  0  0  0  0  0  0  0
    6.7810  -13.5520   -8.4650 C   0  0  0  0  0  0  0  0  0  0  0  0
    7.1150  -14.7090   -8.6820 O   0  0  0  0  0  0  0  0  0  0  0  0
    5.9110  -13.2350   -7.2980 C   0  0  0  0  0  0  0  0  0  0  0  0
    5.2050  -12.0300   -7.3030 C   0  0  0  0  0  0  0  0  0  0  0  0
    4.3750  -11.6950   -6.2270 C   0  0  0  0  0  0  0  0  0  0  0  0
    4.2200  -12.5520   -5.1210 C   0  0  0  0  0  0  0  0  0  0  0  0
    3.3380  -12.1780   -3.9960 C   0  0  0  0  0  0  0  0  0  0  0  0
    3.0350  -10.8690   -3.6850 C   0  0  0  0  0  0  0  0  0  0  0  0
    2.1990  -10.6840   -2.6120 C   0  0  0  0  0  0  0  0  0  0  0  0
    1.6920  -11.6920   -1.8860 N   0  0  0  0  0  0  0  0  0  0  0  0
    2.0240  -12.9390   -2.2460 C   0  0  0  0  0  0  0  0  0  0  0  0
    1.5570  -14.0580   -1.5640 N   0  0  0  0  0  0  0  0  0  0  0  0
    1.4930  -14.4220   -0.2160 C   0  0  0  0  0  0  0  0  0  0  0  0
    2.4930  -14.1520    0.7170 C   0  0  0  0  0  0  0  0  0  0  0  0
    2.3660  -14.5480    2.0600 C   0  0  0  0  0  0  0  0  0  0  0  0
    1.2330  -15.2200    2.5320 C   0  0  0  0  0  0  0  0  0  0  0  0
    1.0920  -15.6240    3.8540 N   0  0  0  0  0  0  0  0  0  0  0  0
    1.5400  -16.9620    4.2770 C   0  0  0  0  0  0  0  0  0  0  0  0
    0.8870  -17.3500    5.6130 C   0  0  0  0  0  0  0  0  0  0  0  0
    1.1240  -16.3610    6.6260 O   0  0  0  0  0  0  0  0  0  0  0  0
    0.5630  -15.1040    6.2160 C   0  0  0  0  0  0  0  0  0  0  0  0
    1.1920  -14.5960    4.9100 C   0  0  0  0  0  0  0  0  0  0  0  0
    0.2390  -15.4960    1.5860 C   0  0  0  0  0  0  0  0  0  0  0  0
    0.3630  -15.1050    0.2440 C   0  0  0  0  0  0  0  0  0  0  0  0
    2.8300  -13.2100   -3.2850 N   0  0  0  0  0  0  0  0  0  0  0  0
    4.9210  -13.7730   -5.1490 C   0  0  0  0  0  0  0  0  0  0  0  0
    5.7540  -14.1150   -6.2220 C   0  0  0  0  0  0  0  0  0  0  0  0
    7.0226  -14.5005  -10.8708 H   0  0  0  0  0  0  0  0  0  0  0  0
    6.6753  -13.2103  -12.0714 H   0  0  0  0  0  0  0  0  0  0  0  0
    8.2734  -14.0305  -12.0714 H   0  0  0  0  0  0  0  0  0  0  0  0
    8.2269  -10.4510  -10.4148 H   0  0  0  0  0  0  0  0  0  0  0  0
    9.0433  -11.2585  -11.7961 H   0  0  0  0  0  0  0  0  0  0  0  0
    7.2573  -11.0664  -11.7961 H   0  0  0  0  0  0  0  0  0  0  0  0
    6.7200  -11.5850   -9.0880 H   0  0  0  0  0  0  0  0  0  0  0  0
    5.3016  -11.3418   -8.1556 H   0  0  0  0  0  0  0  0  0  0  0  0
    3.8308  -10.7392   -6.2460 H   0  0  0  0  0  0  0  0  0  0  0  0
    3.4389  -10.0241   -4.2620 H   0  0  0  0  0  0  0  0  0  0  0  0
    1.9305   -9.6545   -2.3325 H   0  0  0  0  0  0  0  0  0  0  0  0
    1.2000  -14.7220   -2.2330 H   0  0  0  0  0  0  0  0  0  0  0  0
    3.3997  -13.6184    0.3959 H   0  0  0  0  0  0  0  0  0  0  0  0
    3.1827  -14.3226    2.7616 H   0  0  0  0  0  0  0  0  0  0  0  0
    1.2585  -17.6977    3.5092 H   0  0  0  0  0  0  0  0  0  0  0  0
    2.6324  -16.9476    4.4055 H   0  0  0  0  0  0  0  0  0  0  0  0
   -0.1977  -17.4539    5.4629 H   0  0  0  0  0  0  0  0  0  0  0  0
    1.3307  -18.2988    5.9491 H   0  0  0  0  0  0  0  0  0  0  0  0
   -0.5192  -15.2299    6.0643 H   0  0  0  0  0  0  0  0  0  0  0  0
    0.7691  -14.3649    7.0042 H   0  0  0  0  0  0  0  0  0  0  0  0
    0.6638  -13.6883    4.5828 H   0  0  0  0  0  0  0  0  0  0  0  0
    2.2540  -14.3725    5.0898 H   0  0  0  0  0  0  0  0  0  0  0  0
   -0.6657  -16.0351    1.9037 H   0  0  0  0  0  0  0  0  0  0  0  0
   -0.4469  -15.3411   -0.4619 H   0  0  0  0  0  0  0  0  0  0  0  0
    4.8119  -14.4745   -4.3088 H   0  0  0  0  0  0  0  0  0  0  0  0
    6.2859  -15.0778   -6.2185 H   0  0  0  0  0  0  0  0  0  0  0  0
  1  2  1  0
  2  3  1  0
  2  4  1  0
  4  5  3  0
  2  6  1  0
  6  7  1  0
  7  8  2  0
  7  9  1  0
  9 10  2  0
 10 11  1  0
 11 12  2  0
 12 13  1  0
 13 14  2  0
 14 15  1  0
 15 16  2  0
 16 17  1  0
 17 18  1  0
 18 19  1  0
 19 20  2  0
 20 21  1  0
 21 22  2  0
 22 23  1  0
 23 24  1  0
 24 25  1  0
 25 26  1  0
 26 27  1  0
 27 28  1  0
 22 29  1  0
 29 30  2  0
 17 31  2  0
 12 32  1  0
 32 33  2  0
 33  9  1  0
 31 13  1  0
 30 19  1  0
 28 23  1  0
  1 34  1  0
  1 35  1  0
  1 36  1  0
  3 37  1  0
  3 38  1  0
  3 39  1  0
  6 40  1  0
 10 41  1  0
 11 42  1  0
 14 43  1  0
 15 44  1  0
 18 45  1  0
 20 46  1  0
 21 47  1  0
 24 48  1  0
 24 49  1  0
 25 50  1  0
 25 51  1  0
 27 52  1  0
 27 53  1  0
 28 54  1  0
 28 55  1  0
 29 56  1  0
 30 57  1  0
 32 58  1  0
 33 59  1  0
M  END
>  <meeko>  (5) 
{"is_sidechain": [false], "free_energy": -7.917, "intermolecular_energy": -10.641, "internal_energy": -0.387}

$$$$
LIB_XRZVCGWERZVRNT__M_PUB_ALL__e8__s20260927
     RDKit          3D

 59 62  0  0  0  0  0  0  0  0999 V2000
    7.1020  -14.0050  -11.1110 C   0  0  0  0  0  0  0  0  0  0  0  0
    7.7680  -14.5550   -9.8390 C   0  0  0  0  0  0  0  0  0  0  0  0
    9.1570  -13.9250   -9.6490 C   0  0  0  0  0  0  0  0  0  0  0  0
    7.9490  -16.0240  -10.0140 C   0  0  0  0  0  0  0  0  0  0  0  0
    8.0630  -17.1760  -10.1120 N   0  0  0  0  0  0  0  0  0  0  0  0
    6.9200  -14.3330   -8.6530 N   0  0  0  0  0  0  0  0  0  0  0  0
    6.3850  -13.1150   -8.3020 C   0  0  0  0  0  0  0  0  0  0  0  0
    6.5910  -12.0790   -8.9200 O   0  0  0  0  0  0  0  0  0  0  0  0
    5.5440  -13.0920   -7.0720 C   0  0  0  0  0  0  0  0  0  0  0  0
    4.7820  -11.9510   -6.8110 C   0  0  0  0  0  0  0  0  0  0  0  0
    3.9760  -11.8890   -5.6680 C   0  0  0  0  0  0  0  0  0  0  0  0
    3.9040  -12.9600   -4.7590 C   0  0  0  0  0  0  0  0  0  0  0  0
    3.0470  -12.8720   -3.5580 C   0  0  0  0  0  0  0  0  0  0  0  0
    2.7900  -11.6850   -2.9050 C   0  0  0  0  0  0  0  0  0  0  0  0
    1.9730  -11.7670   -1.8060 C   0  0  0  0  0  0  0  0  0  0  0  0
    1.4390  -12.9160   -1.3640 N   0  0  0  0  0  0  0  0  0  0  0  0
    1.7250  -14.0320   -2.0470 C   0  0  0  0  0  0  0  0  0  0  0  0
    1.2290  -15.2780   -1.6780 N   0  0  0  0  0  0  0  0  0  0  0  0
    0.4980  -15.7500   -0.5850 C   0  0  0  0  0  0  0  0  0  0  0  0
   -0.8810  -15.9520   -0.5920 C   0  0  0  0  0  0  0  0  0  0  0  0
   -1.5570  -16.4300    0.5450 C   0  0  0  0  0  0  0  0  0  0  0  0
   -0.8850  -16.7360    1.7340 C   0  0  0  0  0  0  0  0  0  0  0  0
   -1.5360  -17.2030    2.8690 N   0  0  0  0  0  0  0  0  0  0  0  0
   -2.6650  -18.1410    2.7480 C   0  0  0  0  0  0  0  0  0  0  0  0
   -3.4940  -18.1550    4.0410 C   0  0  0  0  0  0  0  0  0  0  0  0
   -2.6810  -18.4400    5.1890 O   0  0  0  0  0  0  0  0  0  0  0  0
   -1.6710  -17.4290    5.3310 C   0  0  0  0  0  0  0  0  0  0  0  0
   -0.7460  -17.3700    4.1050 C   0  0  0  0  0  0  0  0  0  0  0  0
    0.4980  -16.5200    1.7350 C   0  0  0  0  0  0  0  0  0  0  0  0
    1.1750  -16.0410    0.6040 C   0  0  0  0  0  0  0  0  0  0  0  0
    2.5120  -14.0410   -3.1360 N   0  0  0  0  0  0  0  0  0  0  0  0
    4.6620  -14.1090   -5.0540 C   0  0  0  0  0  0  0  0  0  0  0  0
    5.4710  -14.1800   -6.1970 C   0  0  0  0  0  0  0  0  0  0  0  0
    6.2816  -13.3275  -10.8317 H   0  0  0  0  0  0  0  0  0  0  0  0
    7.8459  -13.4545  -11.7056 H   0  0  0  0  0  0  0  0  0  0  0  0
    6.7020  -14.8395  -11.7056 H   0  0  0  0  0  0  0  0  0  0  0  0
    9.3716  -13.8277   -8.5745 H   0  0  0  0  0  0  0  0  0  0  0  0
    9.9177  -14.5662  -10.1182 H   0  0  0  0  0  0  0  0  0  0  0  0
    9.1758  -12.9303  -10.1182 H   0  0  0  0  0  0  0  0  0  0  0  0
    6.8000  -15.1170   -8.0230 H   0  0  0  0  0  0  0  0  0  0  0  0
    4.8152  -11.0986   -7.5055 H   0  0  0  0  0  0  0  0  0  0  0  0
    3.3850  -10.9813   -5.4762 H   0  0  0  0  0  0  0  0  0  0  0  0
    3.2149  -10.7291   -3.2451 H   0  0  0  0  0  0  0  0  0  0  0  0
    1.7434  -10.8414   -1.2578 H   0  0  0  0  0  0  0  0  0  0  0  0
    1.4800  -15.9510   -2.3850 H   0  0  0  0  0  0  0  0  0  0  0  0
   -1.4527  -15.7330   -1.5059 H   0  0  0  0  0  0  0  0  0  0  0  0
   -2.6474  -16.5676    0.4983 H   0  0  0  0  0  0  0  0  0  0  0  0
   -3.3062  -17.8295    1.9103 H   0  0  0  0  0  0  0  0  0  0  0  0
   -2.2700  -19.1517    2.5678 H   0  0  0  0  0  0  0  0  0  0  0  0
   -3.9650  -17.1698    4.1733 H   0  0  0  0  0  0  0  0  0  0  0  0
   -4.2534  -18.9460    3.9533 H   0  0  0  0  0  0  0  0  0  0  0  0
   -2.1604  -16.4517    5.4551 H   0  0  0  0  0  0  0  0  0  0  0  0
   -1.0584  -17.6788    6.2098 H   0  0  0  0  0  0  0  0  0  0  0  0
   -0.0570  -16.5192    4.2120 H   0  0  0  0  0  0  0  0  0  0  0  0
   -0.1797  -18.3108    4.0409 H   0  0  0  0  0  0  0  0  0  0  0  0
    1.0707  -16.7322    2.6498 H   0  0  0  0  0  0  0  0  0  0  0  0
    2.2636  -15.8907    0.6531 H   0  0  0  0  0  0  0  0  0  0  0  0
    4.6186  -14.9710   -4.3721 H   0  0  0  0  0  0  0  0  0  0  0  0
    6.0488  -15.0925   -6.4055 H   0  0  0  0  0  0  0  0  0  0  0  0
  1  2  1  0
  2  3  1  0
  2  4  1  0
  4  5  3  0
  2  6  1  0
  6  7  1  0
  7  8  2  0
  7  9  1  0
  9 10  2  0
 10 11  1  0
 11 12  2  0
 12 13  1  0
 13 14  2  0
 14 15  1  0
 15 16  2  0
 16 17  1  0
 17 18  1  0
 18 19  1  0
 19 20  2  0
 20 21  1  0
 21 22  2  0
 22 23  1  0
 23 24  1  0
 24 25  1  0
 25 26  1  0
 26 27  1  0
 27 28  1  0
 22 29  1  0
 29 30  2  0
 17 31  2  0
 12 32  1  0
 32 33  2  0
 33  9  1  0
 31 13  1  0
 30 19  1  0
 28 23  1  0
  1 34  1  0
  1 35  1  0
  1 36  1  0
  3 37  1  0
  3 38  1  0
  3 39  1  0
  6 40  1  0
 10 41  1  0
 11 42  1  0
 14 43  1  0
 15 44  1  0
 18 45  1  0
 20 46  1  0
 21 47  1  0
 24 48  1  0
 24 49  1  0
 25 50  1  0
 25 51  1  0
 27 52  1  0
 27 53  1  0
 28 54  1  0
 28 55  1  0
 29 56  1  0
 30 57  1  0
 32 58  1  0
 33 59  1  0
M  END
>  <meeko>  (6) 
{"is_sidechain": [false], "free_energy": -7.849, "intermolecular_energy": -10.487, "internal_energy": -0.451}

$$$$
LIB_XRZVCGWERZVRNT__M_PUB_ALL__e8__s20260927
     RDKit          3D

 59 62  0  0  0  0  0  0  0  0999 V2000
   10.5790  -14.6220  -10.4380 C   0  0  0  0  0  0  0  0  0  0  0  0
   10.0120  -13.1980  -10.5590 C   0  0  0  0  0  0  0  0  0  0  0  0
    9.5290  -12.9360  -11.9950 C   0  0  0  0  0  0  0  0  0  0  0  0
   11.1150  -12.2390  -10.2620 C   0  0  0  0  0  0  0  0  0  0  0  0
   11.9470  -11.4740   -9.9950 N   0  0  0  0  0  0  0  0  0  0  0  0
    8.9280  -12.9700   -9.5850 N   0  0  0  0  0  0  0  0  0  0  0  0
    7.8180  -13.7730   -9.4630 C   0  0  0  0  0  0  0  0  0  0  0  0
    7.5980  -14.7420  -10.1770 O   0  0  0  0  0  0  0  0  0  0  0  0
    6.8340  -13.3860   -8.4130 C   0  0  0  0  0  0  0  0  0  0  0  0
    6.5990  -14.2760   -7.3630 C   0  0  0  0  0  0  0  0  0  0  0  0
    5.6840  -13.9500   -6.3550 C   0  0  0  0  0  0  0  0  0  0  0  0
    4.9850  -12.7290   -6.3610 C   0  0  0  0  0  0  0  0  0  0  0  0
    4.0230  -12.4060   -5.2870 C   0  0  0  0  0  0  0  0  0  0  0  0
    3.8800  -11.1370   -4.7660 C   0  0  0  0  0  0  0  0  0  0  0  0
    2.9420  -10.9970   -3.7730 C   0  0  0  0  0  0  0  0  0  0  0  0
    2.1940  -12.0110   -3.3120 N   0  0  0  0  0  0  0  0  0  0  0  0
    2.3810  -13.2170   -3.8650 C   0  0  0  0  0  0  0  0  0  0  0  0
    1.6630  -14.3380   -3.4640 N   0  0  0  0  0  0  0  0  0  0  0  0
    1.4340  -14.9600   -2.2350 C   0  0  0  0  0  0  0  0  0  0  0  0
    0.2470  -14.8570   -1.5120 C   0  0  0  0  0  0  0  0  0  0  0  0
    0.0830  -15.5100   -0.2770 C   0  0  0  0  0  0  0  0  0  0  0  0
    1.0920  -16.3000    0.2850 C   0  0  0  0  0  0  0  0  0  0  0  0
    0.9500  -16.9470    1.5070 N   0  0  0  0  0  0  0  0  0  0  0  0
   -0.3880  -17.1750    2.0780 C   0  0  0  0  0  0  0  0  0  0  0  0
   -0.2860  -17.4710    3.5830 C   0  0  0  0  0  0  0  0  0  0  0  0
    0.6040  -18.5650    3.8490 O   0  0  0  0  0  0  0  0  0  0  0  0
    1.9220  -18.2420    3.3790 C   0  0  0  0  0  0  0  0  0  0  0  0
    1.9410  -17.9810    1.8650 C   0  0  0  0  0  0  0  0  0  0  0  0
    2.2850  -16.3890   -0.4420 C   0  0  0  0  0  0  0  0  0  0  0  0
    2.4530  -15.7370   -1.6730 C   0  0  0  0  0  0  0  0  0  0  0  0
    3.2730  -13.4410   -4.8450 N   0  0  0  0  0  0  0  0  0  0  0  0
    5.2560  -11.8360   -7.4160 C   0  0  0  0  0  0  0  0  0  0  0  0
    6.1700  -12.1550   -8.4290 C   0  0  0  0  0  0  0  0  0  0  0  0
   10.6840  -14.8858   -9.3753 H   0  0  0  0  0  0  0  0  0  0  0  0
    9.8949  -15.3318  -10.9261 H   0  0  0  0  0  0  0  0  0  0  0  0
   11.5637  -14.6673  -10.9261 H   0  0  0  0  0  0  0  0  0  0  0  0
    8.5624  -12.4117  -11.9668 H   0  0  0  0  0  0  0  0  0  0  0  0
   10.2678  -12.3150  -12.5228 H   0  0  0  0  0  0  0  0  0  0  0  0
    9.4113  -13.8939  -12.5228 H   0  0  0  0  0  0  0  0  0  0  0  0
    8.9770  -12.1200   -9.0370 H   0  0  0  0  0  0  0  0  0  0  0  0
    7.1345  -15.2362   -7.3278 H   0  0  0  0  0  0  0  0  0  0  0  0
    5.5072  -14.6657   -5.5386 H   0  0  0  0  0  0  0  0  0  0  0  0
    4.4811  -10.2883   -5.1243 H   0  0  0  0  0  0  0  0  0  0  0  0
    2.7960  -10.0000   -3.3318 H   0  0  0  0  0  0  0  0  0  0  0  0
    1.2350  -14.7580   -4.2750 H   0  0  0  0  0  0  0  0  0  0  0  0
   -0.5787  -14.2525   -1.9155 H   0  0  0  0  0  0  0  0  0  0  0  0
   -0.8681  -15.3961    0.2639 H   0  0  0  0  0  0  0  0  0  0  0  0
   -1.0045  -16.2767    1.9264 H   0  0  0  0  0  0  0  0  0  0  0  0
   -0.8477  -18.0387    1.5752 H   0  0  0  0  0  0  0  0  0  0  0  0
    0.0876  -16.5739    4.0984 H   0  0  0  0  0  0  0  0  0  0  0  0
   -1.2868  -17.7463    3.9472 H   0  0  0  0  0  0  0  0  0  0  0  0
    2.2744  -17.3397    3.9001 H   0  0  0  0  0  0  0  0  0  0  0  0
    2.5781  -19.1003    3.5858 H   0  0  0  0  0  0  0  0  0  0  0  0
    2.9438  -17.6394    1.5689 H   0  0  0  0  0  0  0  0  0  0  0  0
    1.6881  -18.9137    1.3396 H   0  0  0  0  0  0  0  0  0  0  0  0
    3.1144  -16.9872   -0.0366 H   0  0  0  0  0  0  0  0  0  0  0  0
    3.4082  -15.8391   -2.2089 H   0  0  0  0  0  0  0  0  0  0  0  0
    4.7382  -10.8659   -7.4453 H   0  0  0  0  0  0  0  0  0  0  0  0
    6.3657  -11.4361   -9.2382 H   0  0  0  0  0  0  0  0  0  0  0  0
  1  2  1  0
  2  3  1  0
  2  4  1  0
  4  5  3  0
  2  6  1  0
  6  7  1  0
  7  8  2  0
  7  9  1  0
  9 10  2  0
 10 11  1  0
 11 12  2  0
 12 13  1  0
 13 14  2  0
 14 15  1  0
 15 16  2  0
 16 17  1  0
 17 18  1  0
 18 19  1  0
 19 20  2  0
 20 21  1  0
 21 22  2  0
 22 23  1  0
 23 24  1  0
 24 25  1  0
 25 26  1  0
 26 27  1  0
 27 28  1  0
 22 29  1  0
 29 30  2  0
 17 31  2  0
 12 32  1  0
 32 33  2  0
 33  9  1  0
 31 13  1  0
 30 19  1  0
 28 23  1  0
  1 34  1  0
  1 35  1  0
  1 36  1  0
  3 37  1  0
  3 38  1  0
  3 39  1  0
  6 40  1  0
 10 41  1  0
 11 42  1  0
 14 43  1  0
 15 44  1  0
 18 45  1  0
 20 46  1  0
 21 47  1  0
 24 48  1  0
 24 49  1  0
 25 50  1  0
 25 51  1  0
 27 52  1  0
 27 53  1  0
 28 54  1  0
 28 55  1  0
 29 56  1  0
 30 57  1  0
 32 58  1  0
 33 59  1  0
M  END
>  <meeko>  (7) 
{"is_sidechain": [false], "free_energy": -7.575, "intermolecular_energy": -10.088, "internal_energy": -0.479}

$$$$
LIB_XRZVCGWERZVRNT__M_PUB_ALL__e8__s20260927
     RDKit          3D

 59 62  0  0  0  0  0  0  0  0999 V2000
    6.7910  -13.7170   -4.0960 C   0  0  0  0  0  0  0  0  0  0  0  0
    5.3810  -13.9070   -4.6790 C   0  0  0  0  0  0  0  0  0  0  0  0
    5.1400  -15.3860   -5.0220 C   0  0  0  0  0  0  0  0  0  0  0  0
    5.2990  -13.1210   -5.9430 C   0  0  0  0  0  0  0  0  0  0  0  0
    5.1980  -12.4840   -6.9090 N   0  0  0  0  0  0  0  0  0  0  0  0
    4.3480  -13.4030   -3.7540 N   0  0  0  0  0  0  0  0  0  0  0  0
    4.3920  -12.1700   -3.1450 C   0  0  0  0  0  0  0  0  0  0  0  0
    5.3150  -11.3770   -3.2800 O   0  0  0  0  0  0  0  0  0  0  0  0
    3.2500  -11.8340   -2.2500 C   0  0  0  0  0  0  0  0  0  0  0  0
    3.1550  -12.4900   -1.0200 C   0  0  0  0  0  0  0  0  0  0  0  0
    2.0990  -12.2020   -0.1480 C   0  0  0  0  0  0  0  0  0  0  0  0
    1.1130  -11.2530   -0.4730 C   0  0  0  0  0  0  0  0  0  0  0  0
    0.0060  -10.9660    0.4630 C   0  0  0  0  0  0  0  0  0  0  0  0
   -1.0070  -10.0750    0.1760 C   0  0  0  0  0  0  0  0  0  0  0  0
   -1.9650   -9.9190    1.1470 C   0  0  0  0  0  0  0  0  0  0  0  0
   -1.9470  -10.5760    2.3160 N   0  0  0  0  0  0  0  0  0  0  0  0
   -0.9370  -11.4300    2.5290 C   0  0  0  0  0  0  0  0  0  0  0  0
   -0.8180  -12.1620    3.7060 N   0  0  0  0  0  0  0  0  0  0  0  0
   -0.7070  -13.5230    4.0000 C   0  0  0  0  0  0  0  0  0  0  0  0
   -1.3280  -14.5360    3.2710 C   0  0  0  0  0  0  0  0  0  0  0  0
   -1.1750  -15.8890    3.6220 C   0  0  0  0  0  0  0  0  0  0  0  0
   -0.3900  -16.2900    4.7080 C   0  0  0  0  0  0  0  0  0  0  0  0
   -0.2320  -17.6220    5.0740 N   0  0  0  0  0  0  0  0  0  0  0  0
   -1.3940  -18.5260    5.1170 C   0  0  0  0  0  0  0  0  0  0  0  0
   -1.0770  -19.7700    5.9610 C   0  0  0  0  0  0  0  0  0  0  0  0
    0.1050  -20.4380    5.4960 O   0  0  0  0  0  0  0  0  0  0  0  0
    1.2310  -19.5520    5.5870 C   0  0  0  0  0  0  0  0  0  0  0  0
    1.0370  -18.2920    4.7290 C   0  0  0  0  0  0  0  0  0  0  0  0
    0.2210  -15.2660    5.4410 C   0  0  0  0  0  0  0  0  0  0  0  0
    0.0690  -13.9150    5.0960 C   0  0  0  0  0  0  0  0  0  0  0  0
    0.0380  -11.6470    1.6320 N   0  0  0  0  0  0  0  0  0  0  0  0
    1.2410  -10.5860   -1.7060 C   0  0  0  0  0  0  0  0  0  0  0  0
    2.2960  -10.8680   -2.5850 C   0  0  0  0  0  0  0  0  0  0  0  0
    6.7375  -13.7242   -2.9973 H   0  0  0  0  0  0  0  0  0  0  0  0
    7.4420  -14.5355   -4.4368 H   0  0  0  0  0  0  0  0  0  0  0  0
    7.2022  -12.7553   -4.4368 H   0  0  0  0  0  0  0  0  0  0  0  0
    5.0453  -15.9672   -4.0929 H   0  0  0  0  0  0  0  0  0  0  0  0
    4.2147  -15.4801   -5.6093 H   0  0  0  0  0  0  0  0  0  0  0  0
    5.9876  -15.7690   -5.6093 H   0  0  0  0  0  0  0  0  0  0  0  0
    3.6110  -14.0470   -3.4980 H   0  0  0  0  0  0  0  0  0  0  0  0
    3.9127  -13.2352   -0.7362 H   0  0  0  0  0  0  0  0  0  0  0  0
    2.0386  -12.7305    0.8148 H   0  0  0  0  0  0  0  0  0  0  0  0
   -1.0451   -9.5223   -0.7743 H   0  0  0  0  0  0  0  0  0  0  0  0
   -2.7910   -9.2181    0.9560 H   0  0  0  0  0  0  0  0  0  0  0  0
   -0.8200  -11.5250    4.4880 H   0  0  0  0  0  0  0  0  0  0  0  0
   -1.9504  -14.2715    2.4035 H   0  0  0  0  0  0  0  0  0  0  0  0
   -1.6887  -16.6560    3.0238 H   0  0  0  0  0  0  0  0  0  0  0  0
   -2.2491  -17.9955    5.5612 H   0  0  0  0  0  0  0  0  0  0  0  0
   -1.6357  -18.8437    4.0920 H   0  0  0  0  0  0  0  0  0  0  0  0
   -0.9253  -19.4628    7.0063 H   0  0  0  0  0  0  0  0  0  0  0  0
   -1.9226  -20.4682    5.8749 H   0  0  0  0  0  0  0  0  0  0  0  0
    1.3632  -19.2510    6.6367 H   0  0  0  0  0  0  0  0  0  0  0  0
    2.1173  -20.0863    5.2141 H   0  0  0  0  0  0  0  0  0  0  0  0
    1.8725  -17.5995    4.9088 H   0  0  0  0  0  0  0  0  0  0  0  0
    1.0082  -18.5844    3.6690 H   0  0  0  0  0  0  0  0  0  0  0  0
    0.8383  -15.5284    6.3129 H   0  0  0  0  0  0  0  0  0  0  0  0
    0.5715  -13.1460    5.7011 H   0  0  0  0  0  0  0  0  0  0  0  0
    0.4964   -9.8263   -1.9861 H   0  0  0  0  0  0  0  0  0  0  0  0
    2.3736  -10.3282   -3.5403 H   0  0  0  0  0  0  0  0  0  0  0  0
  1  2  1  0
  2  3  1  0
  2  4  1  0
  4  5  3  0
  2  6  1  0
  6  7  1  0
  7  8  2  0
  7  9  1  0
  9 10  2  0
 10 11  1  0
 11 12  2  0
 12 13  1  0
 13 14  2  0
 14 15  1  0
 15 16  2  0
 16 17  1  0
 17 18  1  0
 18 19  1  0
 19 20  2  0
 20 21  1  0
 21 22  2  0
 22 23  1  0
 23 24  1  0
 24 25  1  0
 25 26  1  0
 26 27  1  0
 27 28  1  0
 22 29  1  0
 29 30  2  0
 17 31  2  0
 12 32  1  0
 32 33  2  0
 33  9  1  0
 31 13  1  0
 30 19  1  0
 28 23  1  0
  1 34  1  0
  1 35  1  0
  1 36  1  0
  3 37  1  0
  3 38  1  0
  3 39  1  0
  6 40  1  0
 10 41  1  0
 11 42  1  0
 14 43  1  0
 15 44  1  0
 18 45  1  0
 20 46  1  0
 21 47  1  0
 24 48  1  0
 24 49  1  0
 25 50  1  0
 25 51  1  0
 27 52  1  0
 27 53  1  0
 28 54  1  0
 28 55  1  0
 29 56  1  0
 30 57  1  0
 32 58  1  0
 33 59  1  0
M  END
>  <meeko>  (8) 
{"is_sidechain": [false], "free_energy": -7.502, "intermolecular_energy": -10.062, "internal_energy": -0.406}

$$$$
LIB_XRZVCGWERZVRNT__M_PUB_ALL__e8__s20260927
     RDKit          3D

 59 62  0  0  0  0  0  0  0  0999 V2000
   11.7650  -12.0460  -10.1810 C   0  0  0  0  0  0  0  0  0  0  0  0
   10.4220  -12.5990  -10.6880 C   0  0  0  0  0  0  0  0  0  0  0  0
   10.6490  -13.8780  -11.5100 C   0  0  0  0  0  0  0  0  0  0  0  0
    9.8150  -11.5760  -11.5860 C   0  0  0  0  0  0  0  0  0  0  0  0
    9.3030  -10.7770  -12.2570 N   0  0  0  0  0  0  0  0  0  0  0  0
    9.4900  -12.8450   -9.5720 N   0  0  0  0  0  0  0  0  0  0  0  0
    8.2630  -13.4520   -9.7090 C   0  0  0  0  0  0  0  0  0  0  0  0
    7.8030  -13.8200  -10.7810 O   0  0  0  0  0  0  0  0  0  0  0  0
    7.4660  -13.6210   -8.4610 C   0  0  0  0  0  0  0  0  0  0  0  0
    7.9470  -14.4900   -7.4790 C   0  0  0  0  0  0  0  0  0  0  0  0
    7.2310  -14.6750   -6.2910 C   0  0  0  0  0  0  0  0  0  0  0  0
    6.0210  -13.9990   -6.0470 C   0  0  0  0  0  0  0  0  0  0  0  0
    5.2810  -14.2110   -4.7850 C   0  0  0  0  0  0  0  0  0  0  0  0
    5.0650  -15.4600   -4.2430 C   0  0  0  0  0  0  0  0  0  0  0  0
    4.3620  -15.4920   -3.0650 C   0  0  0  0  0  0  0  0  0  0  0  0
    3.8960  -14.3940   -2.4510 N   0  0  0  0  0  0  0  0  0  0  0  0
    4.1450  -13.2120   -3.0290 C   0  0  0  0  0  0  0  0  0  0  0  0
    3.7080  -12.0100   -2.4820 N   0  0  0  0  0  0  0  0  0  0  0  0
    2.6720  -11.6540   -1.6150 C   0  0  0  0  0  0  0  0  0  0  0  0
    1.7040  -10.6930   -1.9030 C   0  0  0  0  0  0  0  0  0  0  0  0
    0.6860  -10.3820   -0.9830 C   0  0  0  0  0  0  0  0  0  0  0  0
    0.5850  -11.0210    0.2580 C   0  0  0  0  0  0  0  0  0  0  0  0
   -0.4100  -10.7220    1.1810 N   0  0  0  0  0  0  0  0  0  0  0  0
   -0.8200   -9.3260    1.4090 C   0  0  0  0  0  0  0  0  0  0  0  0
   -1.5650   -9.1960    2.7460 C   0  0  0  0  0  0  0  0  0  0  0  0
   -2.6760  -10.1010    2.8240 O   0  0  0  0  0  0  0  0  0  0  0  0
   -2.2080  -11.4540    2.7160 C   0  0  0  0  0  0  0  0  0  0  0  0
   -1.4920  -11.7060    1.3810 C   0  0  0  0  0  0  0  0  0  0  0  0
    1.5680  -11.9770    0.5420 C   0  0  0  0  0  0  0  0  0  0  0  0
    2.5850  -12.2890   -0.3710 C   0  0  0  0  0  0  0  0  0  0  0  0
    4.8290  -13.0890   -4.1790 N   0  0  0  0  0  0  0  0  0  0  0  0
    5.5680  -13.1100   -7.0400 C   0  0  0  0  0  0  0  0  0  0  0  0
    6.2790  -12.9180   -8.2320 C   0  0  0  0  0  0  0  0  0  0  0  0
   11.7690  -12.0443   -9.0810 H   0  0  0  0  0  0  0  0  0  0  0  0
   12.5851  -12.6796  -10.5497 H   0  0  0  0  0  0  0  0  0  0  0  0
   11.9012  -11.0186  -10.5497 H   0  0  0  0  0  0  0  0  0  0  0  0
   10.8001  -14.7291  -10.8297 H   0  0  0  0  0  0  0  0  0  0  0  0
    9.7704  -14.0670  -12.1443 H   0  0  0  0  0  0  0  0  0  0  0  0
   11.5390  -13.7531  -12.1443 H   0  0  0  0  0  0  0  0  0  0  0  0
    9.7460  -12.4630   -8.6690 H   0  0  0  0  0  0  0  0  0  0  0  0
    8.8914  -15.0305   -7.6399 H   0  0  0  0  0  0  0  0  0  0  0  0
    7.6233  -15.3653   -5.5297 H   0  0  0  0  0  0  0  0  0  0  0  0
    5.4343  -16.3766   -4.7262 H   0  0  0  0  0  0  0  0  0  0  0  0
    4.1704  -16.4700   -2.5994 H   0  0  0  0  0  0  0  0  0  0  0  0
    4.2990  -11.2650   -2.8160 H   0  0  0  0  0  0  0  0  0  0  0  0
    1.7368  -10.1674   -2.8688 H   0  0  0  0  0  0  0  0  0  0  0  0
   -0.0539   -9.6122   -1.2475 H   0  0  0  0  0  0  0  0  0  0  0  0
    0.0736   -8.6848    1.4286 H   0  0  0  0  0  0  0  0  0  0  0  0
   -1.4919   -9.0150    0.5955 H   0  0  0  0  0  0  0  0  0  0  0  0
   -0.8665   -9.4173    3.5664 H   0  0  0  0  0  0  0  0  0  0  0  0
   -1.9524   -8.1695    2.8246 H   0  0  0  0  0  0  0  0  0  0  0  0
   -1.5068  -11.6548    3.5394 H   0  0  0  0  0  0  0  0  0  0  0  0
   -3.0803  -12.1222    2.7671 H   0  0  0  0  0  0  0  0  0  0  0  0
   -1.0636  -12.7192    1.3855 H   0  0  0  0  0  0  0  0  0  0  0  0
   -2.2199  -11.6058    0.5624 H   0  0  0  0  0  0  0  0  0  0  0  0
    1.5414  -12.4986    1.5101 H   0  0  0  0  0  0  0  0  0  0  0  0
    3.3321  -13.0507   -0.1033 H   0  0  0  0  0  0  0  0  0  0  0  0
    4.6338  -12.5529   -6.8763 H   0  0  0  0  0  0  0  0  0  0  0  0
    5.9031  -12.2135   -8.9885 H   0  0  0  0  0  0  0  0  0  0  0  0
  1  2  1  0
  2  3  1  0
  2  4  1  0
  4  5  3  0
  2  6  1  0
  6  7  1  0
  7  8  2  0
  7  9  1  0
  9 10  2  0
 10 11  1  0
 11 12  2  0
 12 13  1  0
 13 14  2  0
 14 15  1  0
 15 16  2  0
 16 17  1  0
 17 18  1  0
 18 19  1  0
 19 20  2  0
 20 21  1  0
 21 22  2  0
 22 23  1  0
 23 24  1  0
 24 25  1  0
 25 26  1  0
 26 27  1  0
 27 28  1  0
 22 29  1  0
 29 30  2  0
 17 31  2  0
 12 32  1  0
 32 33  2  0
 33  9  1  0
 31 13  1  0
 30 19  1  0
 28 23  1  0
  1 34  1  0
  1 35  1  0
  1 36  1  0
  3 37  1  0
  3 38  1  0
  3 39  1  0
  6 40  1  0
 10 41  1  0
 11 42  1  0
 14 43  1  0
 15 44  1  0
 18 45  1  0
 20 46  1  0
 21 47  1  0
 24 48  1  0
 24 49  1  0
 25 50  1  0
 25 51  1  0
 27 52  1  0
 27 53  1  0
 28 54  1  0
 28 55  1  0
 29 56  1  0
 30 57  1  0
 32 58  1  0
 33 59  1  0
M  END
>  <meeko>  (9) 
{"is_sidechain": [false], "free_energy": -7.486, "intermolecular_energy": -10.313, "internal_energy": -0.133}

$$$$
