LIB_TVRADXVJUWRKGV__M_PUB_ALL__e8__s20260927
     RDKit          3D

 77 82  0  0  0  0  0  0  0  0999 V2000
   13.1020  -10.6450   -0.1950 C   0  0  0  0  0  0  0  0  0  0  0  0
   12.9650  -11.7250   -1.1090 O   0  0  0  0  0  0  0  0  0  0  0  0
   11.6990  -12.1450   -1.4250 C   0  0  0  0  0  0  0  0  0  0  0  0
   10.7270  -12.5120   -0.4870 C   0  0  0  0  0  0  0  0  0  0  0  0
    9.4610  -12.9380   -0.8680 C   0  0  0  0  0  0  0  0  0  0  0  0
    8.5780  -13.2740    0.0800 N   0  0  0  0  0  0  0  0  0  0  0  0
    7.3480  -13.6470   -0.2730 C   0  0  0  0  0  0  0  0  0  0  0  0
    6.4130  -13.9770    0.7010 N   0  0  0  0  0  0  0  0  0  0  0  0
    6.1540  -12.9160    1.6980 C   0  0  0  0  0  0  0  0  0  0  0  0
    5.1960  -13.4170    2.7880 C   0  0  0  0  0  0  0  0  0  0  0  0
    3.9910  -13.9470    2.2210 O   0  0  0  0  0  0  0  0  0  0  0  0
    4.2820  -15.0550    1.3630 C   0  0  0  0  0  0  0  0  0  0  0  0
    5.1950  -14.6400    0.2000 C   0  0  0  0  0  0  0  0  0  0  0  0
    6.9830  -13.8070   -1.5540 N   0  0  0  0  0  0  0  0  0  0  0  0
    7.8760  -13.4790   -2.5180 C   0  0  0  0  0  0  0  0  0  0  0  0
    7.4780  -13.7640   -3.8340 N   0  0  0  0  0  0  0  0  0  0  0  0
    6.6020  -14.9530   -3.9510 C   0  0  0  0  0  0  0  0  0  0  0  0
    5.1510  -14.6290   -3.4990 C   0  0  0  0  0  0  0  0  0  0  0  0
    4.9740  -13.1410   -3.3450 N   0  0  0  0  0  0  0  0  0  0  0  0
    3.6540  -12.7680   -2.9250 C   0  0  0  0  0  0  0  0  0  0  0  0
    2.7720  -13.2410   -3.6110 O   0  0  0  0  0  0  0  0  0  0  0  0
    3.5860  -11.9590   -1.8280 N   0  0  0  0  0  0  0  0  0  0  0  0
    2.4100  -11.4720   -1.2160 C   0  0  0  0  0  0  0  0  0  0  0  0
    2.1150  -11.9550    0.0660 C   0  0  0  0  0  0  0  0  0  0  0  0
    0.9750  -11.5220    0.7450 C   0  0  0  0  0  0  0  0  0  0  0  0
    0.1230  -10.5910    0.1550 C   0  0  0  0  0  0  0  0  0  0  0  0
   -1.0020  -10.2430    0.8650 O   0  0  0  0  0  0  0  0  0  0  0  0
   -2.1820  -10.8600    0.5190 C   0  0  0  0  0  0  0  0  0  0  0  0
   -3.0880  -10.1260   -0.2470 C   0  0  0  0  0  0  0  0  0  0  0  0
   -4.2860  -10.7150   -0.6540 C   0  0  0  0  0  0  0  0  0  0  0  0
   -4.5670  -12.0370   -0.3080 C   0  0  0  0  0  0  0  0  0  0  0  0
   -3.6480  -12.7760    0.4380 C   0  0  0  0  0  0  0  0  0  0  0  0
   -2.4490  -12.1910    0.8470 C   0  0  0  0  0  0  0  0  0  0  0  0
    0.3950  -10.1210   -1.1300 C   0  0  0  0  0  0  0  0  0  0  0  0
    1.5390  -10.5550   -1.8110 C   0  0  0  0  0  0  0  0  0  0  0  0
    5.5010  -12.3650   -4.5190 C   0  0  0  0  0  0  0  0  0  0  0  0
    7.0310  -12.6050   -4.6450 C   0  0  0  0  0  0  0  0  0  0  0  0
    9.1600  -13.0110   -2.2270 C   0  0  0  0  0  0  0  0  0  0  0  0
   10.1250  -12.6280   -3.1900 C   0  0  0  0  0  0  0  0  0  0  0  0
   11.3900  -12.1950   -2.7940 C   0  0  0  0  0  0  0  0  0  0  0  0
   12.3870  -11.8240   -3.6580 O   0  0  0  0  0  0  0  0  0  0  0  0
   13.0080  -12.8420   -4.4300 C   0  0  0  0  0  0  0  0  0  0  0  0
   13.0534  -11.0280    0.8350 H   0  0  0  0  0  0  0  0  0  0  0  0
   14.0703  -10.1487   -0.3564 H   0  0  0  0  0  0  0  0  0  0  0  0
   12.2883   -9.9226   -0.3564 H   0  0  0  0  0  0  0  0  0  0  0  0
   10.9731  -12.4615    0.5839 H   0  0  0  0  0  0  0  0  0  0  0  0
    7.1052  -12.6174    2.1628 H   0  0  0  0  0  0  0  0  0  0  0  0
    5.6918  -12.0576    1.1886 H   0  0  0  0  0  0  0  0  0  0  0  0
    5.6958  -14.2063    3.3687 H   0  0  0  0  0  0  0  0  0  0  0  0
    4.9305  -12.5668    3.4334 H   0  0  0  0  0  0  0  0  0  0  0  0
    4.7835  -15.8392    1.9491 H   0  0  0  0  0  0  0  0  0  0  0  0
    3.3350  -15.4256    0.9437 H   0  0  0  0  0  0  0  0  0  0  0  0
    5.4809  -15.5355   -0.3712 H   0  0  0  0  0  0  0  0  0  0  0  0
    4.6484  -13.9341   -0.4426 H   0  0  0  0  0  0  0  0  0  0  0  0
    6.5855  -15.2846   -4.9997 H   0  0  0  0  0  0  0  0  0  0  0  0
    7.0009  -15.7448   -3.2999 H   0  0  0  0  0  0  0  0  0  0  0  0
    4.4433  -15.0029   -4.2536 H   0  0  0  0  0  0  0  0  0  0  0  0
    4.9596  -15.1153   -2.5311 H   0  0  0  0  0  0  0  0  0  0  0  0
    5.6050  -12.8590   -2.5820 H   0  0  0  0  0  0  0  0  0  0  0  0
    4.4470  -11.6770   -1.3720 H   0  0  0  0  0  0  0  0  0  0  0  0
    2.7887  -12.6827    0.5420 H   0  0  0  0  0  0  0  0  0  0  0  0
    0.7491  -11.9162    1.7468 H   0  0  0  0  0  0  0  0  0  0  0  0
   -2.8591   -9.0877   -0.5289 H   0  0  0  0  0  0  0  0  0  0  0  0
   -5.0090  -10.1366   -1.2479 H   0  0  0  0  0  0  0  0  0  0  0  0
   -5.5147  -12.4976   -0.6238 H   0  0  0  0  0  0  0  0  0  0  0  0
   -3.8689  -13.8203    0.7038 H   0  0  0  0  0  0  0  0  0  0  0  0
   -1.7178  -12.7753    1.4249 H   0  0  0  0  0  0  0  0  0  0  0  0
   -0.2911   -9.4074   -1.6096 H   0  0  0  0  0  0  0  0  0  0  0  0
    1.7533  -10.1722   -2.8197 H   0  0  0  0  0  0  0  0  0  0  0  0
    4.9989  -12.7018   -5.4379 H   0  0  0  0  0  0  0  0  0  0  0  0
    5.3062  -11.2926   -4.3706 H   0  0  0  0  0  0  0  0  0  0  0  0
    7.2755  -12.7942   -5.7007 H   0  0  0  0  0  0  0  0  0  0  0  0
    7.5484  -11.7086   -4.2725 H   0  0  0  0  0  0  0  0  0  0  0  0
    9.8745  -12.6725   -4.2602 H   0  0  0  0  0  0  0  0  0  0  0  0
   13.4618  -13.5859   -3.7587 H   0  0  0  0  0  0  0  0  0  0  0  0
   12.2548  -13.3319   -5.0646 H   0  0  0  0  0  0  0  0  0  0  0  0
   13.7883  -12.3965   -5.0646 H   0  0  0  0  0  0  0  0  0  0  0  0
  1  2  1  0
  2  3  1  0
  3  4  2  0
  4  5  1  0
  5  6  2  0
  6  7  1  0
  7  8  1  0
  8  9  1  0
  9 10  1  0
 10 11  1  0
 11 12  1  0
 12 13  1  0
  7 14  2  0
 14 15  1  0
 15 16  1  0
 16 17  1  0
 17 18  1  0
 18 19  1  0
 19 20  1  0
 20 21  2  0
 20 22  1  0
 22 23  1  0
 23 24  2  0
 24 25  1  0
 25 26  2  0
 26 27  1  0
 27 28  1  0
 28 29  2  0
 29 30  1  0
 30 31  2  0
 31 32  1  0
 32 33  2  0
 26 34  1  0
 34 35  2  0
 19 36  1  0
 36 37  1  0
 15 38  2  0
 38 39  1  0
 39 40  2  0
 40 41  1  0
 41 42  1  0
 40  3  1  0
 38  5  1  0
 13  8  1  0
 37 16  1  0
 35 23  1  0
 33 28  1  0
  1 43  1  0
  1 44  1  0
  1 45  1  0
  4 46  1  0
  9 47  1  0
  9 48  1  0
 10 49  1  0
 10 50  1  0
 12 51  1  0
 12 52  1  0
 13 53  1  0
 13 54  1  0
 17 55  1  0
 17 56  1  0
 18 57  1  0
 18 58  1  0
 19 59  1  0
 22 60  1  0
 24 61  1  0
 25 62  1  0
 29 63  1  0
 30 64  1  0
 31 65  1  0
 32 66  1  0
 33 67  1  0
 34 68  1  0
 35 69  1  0
 36 70  1  0
 36 71  1  0
 37 72  1  0
 37 73  1  0
 39 74  1  0
 42 75  1  0
 42 76  1  0
 42 77  1  0
M  CHG  1  19   1
M  END
>  <meeko>  (1) 
{"is_sidechain": [false], "free_energy": -9.05, "intermolecular_energy": -13.282, "internal_energy": -1.379}

$$$$
LIB_TVRADXVJUWRKGV__M_PUB_ALL__e8__s20260927
     RDKit          3D

 77 82  0  0  0  0  0  0  0  0999 V2000
    7.1100  -10.0150    1.0490 C   0  0  0  0  0  0  0  0  0  0  0  0
    7.1330  -11.3480    1.5390 O   0  0  0  0  0  0  0  0  0  0  0  0
    6.1600  -12.2120    1.1050 C   0  0  0  0  0  0  0  0  0  0  0  0
    4.7870  -11.9450    1.1470 C   0  0  0  0  0  0  0  0  0  0  0  0
    3.8450  -12.8630    0.6990 C   0  0  0  0  0  0  0  0  0  0  0  0
    2.5470  -12.5440    0.7670 N   0  0  0  0  0  0  0  0  0  0  0  0
    1.6370  -13.4020    0.3040 C   0  0  0  0  0  0  0  0  0  0  0  0
    0.2870  -13.0760    0.3460 N   0  0  0  0  0  0  0  0  0  0  0  0
   -0.6340  -14.2180    0.1650 C   0  0  0  0  0  0  0  0  0  0  0  0
   -2.0920  -13.7390    0.1160 C   0  0  0  0  0  0  0  0  0  0  0  0
   -2.4190  -12.9440    1.2630 O   0  0  0  0  0  0  0  0  0  0  0  0
   -1.5860  -11.7820    1.3250 C   0  0  0  0  0  0  0  0  0  0  0  0
   -0.1010  -12.1590    1.4340 C   0  0  0  0  0  0  0  0  0  0  0  0
    1.9600  -14.6300   -0.1310 N   0  0  0  0  0  0  0  0  0  0  0  0
    3.2710  -14.9610   -0.1910 C   0  0  0  0  0  0  0  0  0  0  0  0
    3.5440  -16.2900   -0.5550 N   0  0  0  0  0  0  0  0  0  0  0  0
    4.2360  -17.0690    0.4980 C   0  0  0  0  0  0  0  0  0  0  0  0
    3.2520  -17.4970    1.6210 C   0  0  0  0  0  0  0  0  0  0  0  0
    1.8300  -17.2510    1.1880 N   0  0  0  0  0  0  0  0  0  0  0  0
    0.8630  -17.6210    2.1810 C   0  0  0  0  0  0  0  0  0  0  0  0
    1.2510  -18.4830    2.9430 O   0  0  0  0  0  0  0  0  0  0  0  0
   -0.3260  -16.9520    2.1310 N   0  0  0  0  0  0  0  0  0  0  0  0
   -1.4220  -17.1250    3.0040 C   0  0  0  0  0  0  0  0  0  0  0  0
   -1.3500  -16.4830    4.2480 C   0  0  0  0  0  0  0  0  0  0  0  0
   -2.3930  -16.5960    5.1690 C   0  0  0  0  0  0  0  0  0  0  0  0
   -3.5260  -17.3420    4.8510 C   0  0  0  0  0  0  0  0  0  0  0  0
   -4.4940  -17.4430    5.8230 O   0  0  0  0  0  0  0  0  0  0  0  0
   -5.2580  -16.3260    6.0700 C   0  0  0  0  0  0  0  0  0  0  0  0
   -5.4150  -15.9390    7.4010 C   0  0  0  0  0  0  0  0  0  0  0  0
   -6.1520  -14.7940    7.7060 C   0  0  0  0  0  0  0  0  0  0  0  0
   -6.7160  -14.0330    6.6820 C   0  0  0  0  0  0  0  0  0  0  0  0
   -6.5380  -14.4100    5.3510 C   0  0  0  0  0  0  0  0  0  0  0  0
   -5.8010  -15.5530    5.0410 C   0  0  0  0  0  0  0  0  0  0  0  0
   -3.5980  -18.0030    3.6250 C   0  0  0  0  0  0  0  0  0  0  0  0
   -2.5520  -17.8890    2.7010 C   0  0  0  0  0  0  0  0  0  0  0  0
    1.5420  -17.7710   -0.1920 C   0  0  0  0  0  0  0  0  0  0  0  0
    2.4380  -17.0250   -1.2180 C   0  0  0  0  0  0  0  0  0  0  0  0
    4.2880  -14.0890    0.2070 C   0  0  0  0  0  0  0  0  0  0  0  0
    5.6740  -14.3700    0.1430 C   0  0  0  0  0  0  0  0  0  0  0  0
    6.6100  -13.4360    0.5880 C   0  0  0  0  0  0  0  0  0  0  0  0
    7.9660  -13.6340    0.5780 O   0  0  0  0  0  0  0  0  0  0  0  0
    8.6230  -13.6670   -0.6800 C   0  0  0  0  0  0  0  0  0  0  0  0
    7.0979   -9.3132    1.8959 H   0  0  0  0  0  0  0  0  0  0  0  0
    8.0052   -9.8343    0.4358 H   0  0  0  0  0  0  0  0  0  0  0  0
    6.2091   -9.8652    0.4358 H   0  0  0  0  0  0  0  0  0  0  0  0
    4.4432  -10.9796    1.5466 H   0  0  0  0  0  0  0  0  0  0  0  0
   -0.3911  -14.7316   -0.7769 H   0  0  0  0  0  0  0  0  0  0  0  0
   -0.5165  -14.9046    1.0163 H   0  0  0  0  0  0  0  0  0  0  0  0
   -2.2405  -13.1359   -0.7919 H   0  0  0  0  0  0  0  0  0  0  0  0
   -2.7471  -14.6226    0.1084 H   0  0  0  0  0  0  0  0  0  0  0  0
   -1.7372  -11.1848    0.4137 H   0  0  0  0  0  0  0  0  0  0  0  0
   -1.8626  -11.2065    2.2207 H   0  0  0  0  0  0  0  0  0  0  0  0
    0.5087  -11.2456    1.3706 H   0  0  0  0  0  0  0  0  0  0  0  0
    0.0652  -12.6638    2.3971 H   0  0  0  0  0  0  0  0  0  0  0  0
    4.6776  -17.9694    0.0460 H   0  0  0  0  0  0  0  0  0  0  0  0
    5.0166  -16.4346    0.9432 H   0  0  0  0  0  0  0  0  0  0  0  0
    3.3870  -18.5677    1.8339 H   0  0  0  0  0  0  0  0  0  0  0  0
    3.4595  -16.9055    2.5249 H   0  0  0  0  0  0  0  0  0  0  0  0
    1.7420  -16.2320    1.0720 H   0  0  0  0  0  0  0  0  0  0  0  0
   -0.4600  -16.2420    1.4200 H   0  0  0  0  0  0  0  0  0  0  0  0
   -0.4627  -15.8841    4.5011 H   0  0  0  0  0  0  0  0  0  0  0  0
   -2.3203  -16.0959    6.1461 H   0  0  0  0  0  0  0  0  0  0  0  0
   -4.9598  -16.5338    8.2066 H   0  0  0  0  0  0  0  0  0  0  0  0
   -6.2883  -14.4913    8.7547 H   0  0  0  0  0  0  0  0  0  0  0  0
   -7.3020  -13.1342    6.9246 H   0  0  0  0  0  0  0  0  0  0  0  0
   -6.9792  -13.8054    4.5450 H   0  0  0  0  0  0  0  0  0  0  0  0
   -5.6482  -15.8442    3.9913 H   0  0  0  0  0  0  0  0  0  0  0  0
   -4.4790  -18.6157    3.3832 H   0  0  0  0  0  0  0  0  0  0  0  0
   -2.6203  -18.4037    1.7313 H   0  0  0  0  0  0  0  0  0  0  0  0
    1.7576  -18.8490   -0.2311 H   0  0  0  0  0  0  0  0  0  0  0  0
    0.4828  -17.6024   -0.4361 H   0  0  0  0  0  0  0  0  0  0  0  0
    2.8669  -17.7593   -1.9157 H   0  0  0  0  0  0  0  0  0  0  0  0
    1.8118  -16.2927   -1.7487 H   0  0  0  0  0  0  0  0  0  0  0  0
    6.0163  -15.3340   -0.2615 H   0  0  0  0  0  0  0  0  0  0  0  0
    9.7106  -13.7216   -0.5243 H   0  0  0  0  0  0  0  0  0  0  0  0
    8.2887  -14.5495   -1.2452 H   0  0  0  0  0  0  0  0  0  0  0  0
    8.3788  -12.7555   -1.2452 H   0  0  0  0  0  0  0  0  0  0  0  0
  1  2  1  0
  2  3  1  0
  3  4  2  0
  4  5  1  0
  5  6  2  0
  6  7  1  0
  7  8  1  0
  8  9  1  0
  9 10  1  0
 10 11  1  0
 11 12  1  0
 12 13  1  0
  7 14  2  0
 14 15  1  0
 15 16  1  0
 16 17  1  0
 17 18  1  0
 18 19  1  0
 19 20  1  0
 20 21  2  0
 20 22  1  0
 22 23  1  0
 23 24  2  0
 24 25  1  0
 25 26  2  0
 26 27  1  0
 27 28  1  0
 28 29  2  0
 29 30  1  0
 30 31  2  0
 31 32  1  0
 32 33  2  0
 26 34  1  0
 34 35  2  0
 19 36  1  0
 36 37  1  0
 15 38  2  0
 38 39  1  0
 39 40  2  0
 40 41  1  0
 41 42  1  0
 40  3  1  0
 38  5  1  0
 13  8  1  0
 37 16  1  0
 35 23  1  0
 33 28  1  0
  1 43  1  0
  1 44  1  0
  1 45  1  0
  4 46  1  0
  9 47  1  0
  9 48  1  0
 10 49  1  0
 10 50  1  0
 12 51  1  0
 12 52  1  0
 13 53  1  0
 13 54  1  0
 17 55  1  0
 17 56  1  0
 18 57  1  0
 18 58  1  0
 19 59  1  0
 22 60  1  0
 24 61  1  0
 25 62  1  0
 29 63  1  0
 30 64  1  0
 31 65  1  0
 32 66  1  0
 33 67  1  0
 34 68  1  0
 35 69  1  0
 36 70  1  0
 36 71  1  0
 37 72  1  0
 37 73  1  0
 39 74  1  0
 42 75  1  0
 42 76  1  0
 42 77  1  0
M  CHG  1  19   1
M  END
>  <meeko>  (2) 
{"is_sidechain": [false], "free_energy": -8.813, "intermolecular_energy": -12.62, "internal_energy": -1.694}

$$$$
LIB_TVRADXVJUWRKGV__M_PUB_ALL__e8__s20260927
     RDKit          3D

 77 82  0  0  0  0  0  0  0  0999 V2000
    6.9430  -10.9590    0.9530 C   0  0  0  0  0  0  0  0  0  0  0  0
    6.7280  -12.2670    0.4410 O   0  0  0  0  0  0  0  0  0  0  0  0
    5.4440  -12.6310    0.1230 C   0  0  0  0  0  0  0  0  0  0  0  0
    4.2960  -12.0600    0.6830 C   0  0  0  0  0  0  0  0  0  0  0  0
    3.0190  -12.4760    0.3270 C   0  0  0  0  0  0  0  0  0  0  0  0
    1.9630  -11.8870    0.9000 N   0  0  0  0  0  0  0  0  0  0  0  0
    0.7330  -12.2520    0.5370 C   0  0  0  0  0  0  0  0  0  0  0  0
   -0.3740  -11.6340    1.1070 N   0  0  0  0  0  0  0  0  0  0  0  0
   -0.8520  -12.2500    2.3630 C   0  0  0  0  0  0  0  0  0  0  0  0
   -2.1370  -11.5660    2.8500 C   0  0  0  0  0  0  0  0  0  0  0  0
   -1.9640  -10.1470    2.9620 O   0  0  0  0  0  0  0  0  0  0  0  0
   -1.6290   -9.5790    1.6920 C   0  0  0  0  0  0  0  0  0  0  0  0
   -0.3180  -10.1610    1.1440 C   0  0  0  0  0  0  0  0  0  0  0  0
    0.5020  -13.2690   -0.3070 N   0  0  0  0  0  0  0  0  0  0  0  0
    1.5680  -13.8760   -0.8810 C   0  0  0  0  0  0  0  0  0  0  0  0
    1.2720  -14.9970   -1.6730 N   0  0  0  0  0  0  0  0  0  0  0  0
    1.9940  -16.2240   -1.2660 C   0  0  0  0  0  0  0  0  0  0  0  0
    1.3590  -16.8560    0.0030 C   0  0  0  0  0  0  0  0  0  0  0  0
    0.0280  -16.2150    0.2940 N   0  0  0  0  0  0  0  0  0  0  0  0
   -0.6170  -16.7480    1.4590 C   0  0  0  0  0  0  0  0  0  0  0  0
   -0.3930  -17.9270    1.6430 O   0  0  0  0  0  0  0  0  0  0  0  0
   -1.3630  -15.8650    2.1820 N   0  0  0  0  0  0  0  0  0  0  0  0
   -2.0760  -16.1420    3.3700 C   0  0  0  0  0  0  0  0  0  0  0  0
   -3.4010  -16.5760    3.2280 C   0  0  0  0  0  0  0  0  0  0  0  0
   -4.1760  -16.8770    4.3490 C   0  0  0  0  0  0  0  0  0  0  0  0
   -3.6290  -16.7610    5.6250 C   0  0  0  0  0  0  0  0  0  0  0  0
   -4.4640  -17.0350    6.6840 O   0  0  0  0  0  0  0  0  0  0  0  0
   -5.1290  -15.9730    7.2530 C   0  0  0  0  0  0  0  0  0  0  0  0
   -4.7000  -15.5480    8.5100 C   0  0  0  0  0  0  0  0  0  0  0  0
   -5.3180  -14.4550    9.1190 C   0  0  0  0  0  0  0  0  0  0  0  0
   -6.3500  -13.7820    8.4630 C   0  0  0  0  0  0  0  0  0  0  0  0
   -6.7610  -14.1950    7.1950 C   0  0  0  0  0  0  0  0  0  0  0  0
   -6.1450  -15.2870    6.5830 C   0  0  0  0  0  0  0  0  0  0  0  0
   -2.3190  -16.3090    5.7790 C   0  0  0  0  0  0  0  0  0  0  0  0
   -1.5420  -16.0070    4.6540 C   0  0  0  0  0  0  0  0  0  0  0  0
   -0.8520  -16.1190   -0.9210 C   0  0  0  0  0  0  0  0  0  0  0  0
   -0.1620  -15.2180   -1.9820 C   0  0  0  0  0  0  0  0  0  0  0  0
    2.8860  -13.5010   -0.6070 C   0  0  0  0  0  0  0  0  0  0  0  0
    4.0360  -14.0800   -1.1960 C   0  0  0  0  0  0  0  0  0  0  0  0
    5.3120  -13.6480   -0.8350 C   0  0  0  0  0  0  0  0  0  0  0  0
    6.4770  -14.1650   -1.3410 O   0  0  0  0  0  0  0  0  0  0  0  0
    6.8090  -15.5040   -1.0060 C   0  0  0  0  0  0  0  0  0  0  0  0
    6.9379  -10.9902    2.0525 H   0  0  0  0  0  0  0  0  0  0  0  0
    7.9150  -10.5828    0.6014 H   0  0  0  0  0  0  0  0  0  0  0  0
    6.1425  -10.2914    0.6014 H   0  0  0  0  0  0  0  0  0  0  0  0
    4.4078  -11.2578    1.4273 H   0  0  0  0  0  0  0  0  0  0  0  0
   -1.0554  -13.3166    2.1871 H   0  0  0  0  0  0  0  0  0  0  0  0
   -0.0752  -12.1306    3.1326 H   0  0  0  0  0  0  0  0  0  0  0  0
   -2.9459  -11.7725    2.1338 H   0  0  0  0  0  0  0  0  0  0  0  0
   -2.3855  -11.9641    3.8449 H   0  0  0  0  0  0  0  0  0  0  0  0
   -2.4399   -9.7920    0.9800 H   0  0  0  0  0  0  0  0  0  0  0  0
   -1.4976   -8.4947    1.8225 H   0  0  0  0  0  0  0  0  0  0  0  0
   -0.1527   -9.7807    0.1252 H   0  0  0  0  0  0  0  0  0  0  0  0
    0.5066   -9.8560    1.8051 H   0  0  0  0  0  0  0  0  0  0  0  0
    1.9535  -16.9534   -2.0884 H   0  0  0  0  0  0  0  0  0  0  0  0
    3.0356  -15.9547   -1.0365 H   0  0  0  0  0  0  0  0  0  0  0  0
    1.2147  -17.9340   -0.1616 H   0  0  0  0  0  0  0  0  0  0  0  0
    2.0303  -16.6928    0.8590 H   0  0  0  0  0  0  0  0  0  0  0  0
    0.2310  -15.2280    0.5080 H   0  0  0  0  0  0  0  0  0  0  0  0
   -1.4180  -14.9000    1.8740 H   0  0  0  0  0  0  0  0  0  0  0  0
   -3.8347  -16.6805    2.2225 H   0  0  0  0  0  0  0  0  0  0  0  0
   -5.2184  -17.2057    4.2251 H   0  0  0  0  0  0  0  0  0  0  0  0
   -3.8779  -16.0721    9.0194 H   0  0  0  0  0  0  0  0  0  0  0  0
   -4.9919  -14.1238   10.1160 H   0  0  0  0  0  0  0  0  0  0  0  0
   -6.8403  -12.9243    8.9466 H   0  0  0  0  0  0  0  0  0  0  0  0
   -7.5708  -13.6595    6.6779 H   0  0  0  0  0  0  0  0  0  0  0  0
   -6.4578  -15.6063    5.5779 H   0  0  0  0  0  0  0  0  0  0  0  0
   -1.8949  -16.1894    6.7869 H   0  0  0  0  0  0  0  0  0  0  0  0
   -0.5055  -15.6616    4.7818 H   0  0  0  0  0  0  0  0  0  0  0  0
   -1.0121  -17.1236   -1.3396 H   0  0  0  0  0  0  0  0  0  0  0  0
   -1.8223  -15.6831   -0.6409 H   0  0  0  0  0  0  0  0  0  0  0  0
   -0.2430  -15.7022   -2.9664 H   0  0  0  0  0  0  0  0  0  0  0  0
   -0.6658  -14.2402   -1.9779 H   0  0  0  0  0  0  0  0  0  0  0  0
    3.9220  -14.8776   -1.9449 H   0  0  0  0  0  0  0  0  0  0  0  0
    6.8359  -15.6123    0.0883 H   0  0  0  0  0  0  0  0  0  0  0  0
    6.0524  -16.1848   -1.4234 H   0  0  0  0  0  0  0  0  0  0  0  0
    7.7959  -15.7525   -1.4234 H   0  0  0  0  0  0  0  0  0  0  0  0
  1  2  1  0
  2  3  1  0
  3  4  2  0
  4  5  1  0
  5  6  2  0
  6  7  1  0
  7  8  1  0
  8  9  1  0
  9 10  1  0
 10 11  1  0
 11 12  1  0
 12 13  1  0
  7 14  2  0
 14 15  1  0
 15 16  1  0
 16 17  1  0
 17 18  1  0
 18 19  1  0
 19 20  1  0
 20 21  2  0
 20 22  1  0
 22 23  1  0
 23 24  2  0
 24 25  1  0
 25 26  2  0
 26 27  1  0
 27 28  1  0
 28 29  2  0
 29 30  1  0
 30 31  2  0
 31 32  1  0
 32 33  2  0
 26 34  1  0
 34 35  2  0
 19 36  1  0
 36 37  1  0
 15 38  2  0
 38 39  1  0
 39 40  2  0
 40 41  1  0
 41 42  1  0
 40  3  1  0
 38  5  1  0
 13  8  1  0
 37 16  1  0
 35 23  1  0
 33 28  1  0
  1 43  1  0
  1 44  1  0
  1 45  1  0
  4 46  1  0
  9 47  1  0
  9 48  1  0
 10 49  1  0
 10 50  1  0
 12 51  1  0
 12 52  1  0
 13 53  1  0
 13 54  1  0
 17 55  1  0
 17 56  1  0
 18 57  1  0
 18 58  1  0
 19 59  1  0
 22 60  1  0
 24 61  1  0
 25 62  1  0
 29 63  1  0
 30 64  1  0
 31 65  1  0
 32 66  1  0
 33 67  1  0
 34 68  1  0
 35 69  1  0
 36 70  1  0
 36 71  1  0
 37 72  1  0
 37 73  1  0
 39 74  1  0
 42 75  1  0
 42 76  1  0
 42 77  1  0
M  CHG  1  19   1
M  END
>  <meeko>  (3) 
{"is_sidechain": [false], "free_energy": -8.705, "intermolecular_energy": -12.698, "internal_energy": -1.457}

$$$$
LIB_TVRADXVJUWRKGV__M_PUB_ALL__e8__s20260927
     RDKit          3D

 77 82  0  0  0  0  0  0  0  0999 V2000
    7.3950   -8.8990    1.1970 C   0  0  0  0  0  0  0  0  0  0  0  0
    6.8640  -10.1160    1.7020 O   0  0  0  0  0  0  0  0  0  0  0  0
    7.2380  -11.2850    1.0920 C   0  0  0  0  0  0  0  0  0  0  0  0
    8.2960  -11.4030    0.1830 C   0  0  0  0  0  0  0  0  0  0  0  0
    8.6250  -12.6150   -0.4110 C   0  0  0  0  0  0  0  0  0  0  0  0
    9.6490  -12.6580   -1.2710 N   0  0  0  0  0  0  0  0  0  0  0  0
    9.9980  -13.8230   -1.8170 C   0  0  0  0  0  0  0  0  0  0  0  0
   11.0730  -13.8880   -2.6950 N   0  0  0  0  0  0  0  0  0  0  0  0
   11.6140  -12.5770   -3.1130 C   0  0  0  0  0  0  0  0  0  0  0  0
   12.7200  -12.7550   -4.1630 C   0  0  0  0  0  0  0  0  0  0  0  0
   13.7400  -13.6500   -3.7000 O   0  0  0  0  0  0  0  0  0  0  0  0
   13.1910  -14.9440   -3.4320 C   0  0  0  0  0  0  0  0  0  0  0  0
   12.1060  -14.8800   -2.3450 C   0  0  0  0  0  0  0  0  0  0  0  0
    9.2930  -14.9490   -1.6240 N   0  0  0  0  0  0  0  0  0  0  0  0
    8.2490  -14.9090   -0.7630 C   0  0  0  0  0  0  0  0  0  0  0  0
    7.4870  -16.0860   -0.6790 N   0  0  0  0  0  0  0  0  0  0  0  0
    6.0290  -15.8650   -0.8180 C   0  0  0  0  0  0  0  0  0  0  0  0
    5.6360  -15.6240   -2.3020 C   0  0  0  0  0  0  0  0  0  0  0  0
    6.7900  -15.9630   -3.2080 N   0  0  0  0  0  0  0  0  0  0  0  0
    6.4980  -15.7600   -4.5990 C   0  0  0  0  0  0  0  0  0  0  0  0
    5.7720  -16.6080   -5.0740 O   0  0  0  0  0  0  0  0  0  0  0  0
    7.0620  -14.6550   -5.1680 N   0  0  0  0  0  0  0  0  0  0  0  0
    6.9120  -14.2330   -6.5080 C   0  0  0  0  0  0  0  0  0  0  0  0
    7.7580  -14.8230   -7.4570 C   0  0  0  0  0  0  0  0  0  0  0  0
    7.6740  -14.4670   -8.8040 C   0  0  0  0  0  0  0  0  0  0  0  0
    6.7340  -13.5270   -9.2190 C   0  0  0  0  0  0  0  0  0  0  0  0
    6.7370  -13.1950  -10.5540 O   0  0  0  0  0  0  0  0  0  0  0  0
    7.4560  -12.0830  -10.9260 C   0  0  0  0  0  0  0  0  0  0  0  0
    8.7760  -12.2800  -11.3340 C   0  0  0  0  0  0  0  0  0  0  0  0
    9.5400  -11.1910  -11.7530 C   0  0  0  0  0  0  0  0  0  0  0  0
    8.9800   -9.9130  -11.7780 C   0  0  0  0  0  0  0  0  0  0  0  0
    7.6530   -9.7230  -11.3910 C   0  0  0  0  0  0  0  0  0  0  0  0
    6.8850  -10.8090  -10.9720 C   0  0  0  0  0  0  0  0  0  0  0  0
    5.9030  -12.9170   -8.2790 C   0  0  0  0  0  0  0  0  0  0  0  0
    5.9860  -13.2750   -6.9280 C   0  0  0  0  0  0  0  0  0  0  0  0
    7.4140  -17.2920   -2.8870 C   0  0  0  0  0  0  0  0  0  0  0  0
    7.9960  -17.2480   -1.4470 C   0  0  0  0  0  0  0  0  0  0  0  0
    7.8670  -13.7410   -0.0960 C   0  0  0  0  0  0  0  0  0  0  0  0
    6.8030  -13.6450    0.8340 C   0  0  0  0  0  0  0  0  0  0  0  0
    6.4890  -12.4230    1.4280 C   0  0  0  0  0  0  0  0  0  0  0  0
    5.4660  -12.2380    2.3220 O   0  0  0  0  0  0  0  0  0  0  0  0
    4.7990  -13.3900    2.8160 C   0  0  0  0  0  0  0  0  0  0  0  0
    7.6795   -8.2470    2.0360 H   0  0  0  0  0  0  0  0  0  0  0  0
    8.2815   -9.1130    0.5820 H   0  0  0  0  0  0  0  0  0  0  0  0
    6.6351   -8.3947    0.5820 H   0  0  0  0  0  0  0  0  0  0  0  0
    8.8849  -10.5087   -0.0687 H   0  0  0  0  0  0  0  0  0  0  0  0
   10.8021  -11.9720   -3.5430 H   0  0  0  0  0  0  0  0  0  0  0  0
   12.0404  -12.0739   -2.2326 H   0  0  0  0  0  0  0  0  0  0  0  0
   12.2773  -13.1622   -5.0840 H   0  0  0  0  0  0  0  0  0  0  0  0
   13.1795  -11.7737   -4.3524 H   0  0  0  0  0  0  0  0  0  0  0  0
   12.7481  -15.3431   -4.3564 H   0  0  0  0  0  0  0  0  0  0  0  0
   14.0013  -15.5959   -3.0737 H   0  0  0  0  0  0  0  0  0  0  0  0
   11.6366  -15.8698   -2.2452 H   0  0  0  0  0  0  0  0  0  0  0  0
   12.5747  -14.5814   -1.3957 H   0  0  0  0  0  0  0  0  0  0  0  0
    5.4946  -16.7510   -0.4447 H   0  0  0  0  0  0  0  0  0  0  0  0
    5.7549  -14.9728   -0.2358 H   0  0  0  0  0  0  0  0  0  0  0  0
    4.7750  -16.2591   -2.5574 H   0  0  0  0  0  0  0  0  0  0  0  0
    5.3742  -14.5640   -2.4360 H   0  0  0  0  0  0  0  0  0  0  0  0
    7.5380  -15.2960   -2.9740 H   0  0  0  0  0  0  0  0  0  0  0  0
    7.6360  -14.0460   -4.5960 H   0  0  0  0  0  0  0  0  0  0  0  0
    8.4954  -15.5740   -7.1371 H   0  0  0  0  0  0  0  0  0  0  0  0
    8.3505  -14.9291   -9.5380 H   0  0  0  0  0  0  0  0  0  0  0  0
    9.2120  -13.2899  -11.3252 H   0  0  0  0  0  0  0  0  0  0  0  0
   10.5846  -11.3396  -12.0640 H   0  0  0  0  0  0  0  0  0  0  0  0
    9.5856   -9.0542  -12.1033 H   0  0  0  0  0  0  0  0  0  0  0  0
    7.2121   -8.7155  -11.4164 H   0  0  0  0  0  0  0  0  0  0  0  0
    5.8348  -10.6631  -10.6792 H   0  0  0  0  0  0  0  0  0  0  0  0
    5.1804  -12.1524   -8.6002 H   0  0  0  0  0  0  0  0  0  0  0  0
    5.3189  -12.7997   -6.1938 H   0  0  0  0  0  0  0  0  0  0  0  0
    6.6512  -18.0819   -2.9517 H   0  0  0  0  0  0  0  0  0  0  0  0
    8.2195  -17.5054   -3.6051 H   0  0  0  0  0  0  0  0  0  0  0  0
    7.7143  -18.1724   -0.9214 H   0  0  0  0  0  0  0  0  0  0  0  0
    9.0891  -17.1525   -1.5244 H   0  0  0  0  0  0  0  0  0  0  0  0
    6.2196  -14.5417    1.0898 H   0  0  0  0  0  0  0  0  0  0  0  0
    4.8076  -13.3752    3.9159 H   0  0  0  0  0  0  0  0  0  0  0  0
    3.7591  -13.3936    2.4574 H   0  0  0  0  0  0  0  0  0  0  0  0
    5.3136  -14.2937    2.4574 H   0  0  0  0  0  0  0  0  0  0  0  0
  1  2  1  0
  2  3  1  0
  3  4  2  0
  4  5  1  0
  5  6  2  0
  6  7  1  0
  7  8  1  0
  8  9  1  0
  9 10  1  0
 10 11  1  0
 11 12  1  0
 12 13  1  0
  7 14  2  0
 14 15  1  0
 15 16  1  0
 16 17  1  0
 17 18  1  0
 18 19  1  0
 19 20  1  0
 20 21  2  0
 20 22  1  0
 22 23  1  0
 23 24  2  0
 24 25  1  0
 25 26  2  0
 26 27  1  0
 27 28  1  0
 28 29  2  0
 29 30  1  0
 30 31  2  0
 31 32  1  0
 32 33  2  0
 26 34  1  0
 34 35  2  0
 19 36  1  0
 36 37  1  0
 15 38  2  0
 38 39  1  0
 39 40  2  0
 40 41  1  0
 41 42  1  0
 40  3  1  0
 38  5  1  0
 13  8  1  0
 37 16  1  0
 35 23  1  0
 33 28  1  0
  1 43  1  0
  1 44  1  0
  1 45  1  0
  4 46  1  0
  9 47  1  0
  9 48  1  0
 10 49  1  0
 10 50  1  0
 12 51  1  0
 12 52  1  0
 13 53  1  0
 13 54  1  0
 17 55  1  0
 17 56  1  0
 18 57  1  0
 18 58  1  0
 19 59  1  0
 22 60  1  0
 24 61  1  0
 25 62  1  0
 29 63  1  0
 30 64  1  0
 31 65  1  0
 32 66  1  0
 33 67  1  0
 34 68  1  0
 35 69  1  0
 36 70  1  0
 36 71  1  0
 37 72  1  0
 37 73  1  0
 39 74  1  0
 42 75  1  0
 42 76  1  0
 42 77  1  0
M  CHG  1  19   1
M  END
>  <meeko>  (4) 
{"is_sidechain": [false], "free_energy": -8.303, "intermolecular_energy": -12.289, "internal_energy": -1.276}

$$$$
LIB_TVRADXVJUWRKGV__M_PUB_ALL__e8__s20260927
     RDKit          3D

 77 82  0  0  0  0  0  0  0  0999 V2000
   11.4970  -11.7340    0.5130 C   0  0  0  0  0  0  0  0  0  0  0  0
   11.4990  -12.3370   -0.7740 O   0  0  0  0  0  0  0  0  0  0  0  0
   10.3800  -13.0250   -1.1650 C   0  0  0  0  0  0  0  0  0  0  0  0
    9.1690  -12.4260   -1.5320 C   0  0  0  0  0  0  0  0  0  0  0  0
    8.0630  -13.1770   -1.9130 C   0  0  0  0  0  0  0  0  0  0  0  0
    6.9350  -12.5410   -2.2520 N   0  0  0  0  0  0  0  0  0  0  0  0
    5.8810  -13.2490   -2.6570 C   0  0  0  0  0  0  0  0  0  0  0  0
    4.7100  -12.6030   -3.0340 N   0  0  0  0  0  0  0  0  0  0  0  0
    3.9340  -12.0210   -1.9180 C   0  0  0  0  0  0  0  0  0  0  0  0
    2.6110  -11.4310   -2.4250 C   0  0  0  0  0  0  0  0  0  0  0  0
    2.8300  -10.4960   -3.4900 O   0  0  0  0  0  0  0  0  0  0  0  0
    3.4670  -11.1370   -4.5990 C   0  0  0  0  0  0  0  0  0  0  0  0
    4.8350  -11.7150   -4.2040 C   0  0  0  0  0  0  0  0  0  0  0  0
    5.8630  -14.5910   -2.6360 N   0  0  0  0  0  0  0  0  0  0  0  0
    6.9980  -15.2390   -2.2830 C   0  0  0  0  0  0  0  0  0  0  0  0
    6.8910  -16.6360   -2.1800 N   0  0  0  0  0  0  0  0  0  0  0  0
    7.0420  -17.1460   -0.7980 C   0  0  0  0  0  0  0  0  0  0  0  0
    5.7520  -16.9080    0.0350 C   0  0  0  0  0  0  0  0  0  0  0  0
    4.6210  -16.4900   -0.8670 N   0  0  0  0  0  0  0  0  0  0  0  0
    3.3940  -16.2480   -0.1640 C   0  0  0  0  0  0  0  0  0  0  0  0
    3.0670  -17.1560    0.5730 O   0  0  0  0  0  0  0  0  0  0  0  0
    2.7920  -15.0490   -0.4140 N   0  0  0  0  0  0  0  0  0  0  0  0
    1.5940  -14.5750    0.1640 C   0  0  0  0  0  0  0  0  0  0  0  0
    0.4070  -14.8320   -0.5350 C   0  0  0  0  0  0  0  0  0  0  0  0
   -0.8230  -14.4030   -0.0330 C   0  0  0  0  0  0  0  0  0  0  0  0
   -0.8810  -13.7240    1.1810 C   0  0  0  0  0  0  0  0  0  0  0  0
   -2.1210  -13.2950    1.5930 O   0  0  0  0  0  0  0  0  0  0  0  0
   -2.7260  -12.3080    0.8500 C   0  0  0  0  0  0  0  0  0  0  0  0
   -3.9270  -12.6270    0.2170 C   0  0  0  0  0  0  0  0  0  0  0  0
   -4.6000  -11.6530   -0.5210 C   0  0  0  0  0  0  0  0  0  0  0  0
   -4.0790  -10.3620   -0.6120 C   0  0  0  0  0  0  0  0  0  0  0  0
   -2.8890  -10.0390    0.0420 C   0  0  0  0  0  0  0  0  0  0  0  0
   -2.2130  -11.0100    0.7820 C   0  0  0  0  0  0  0  0  0  0  0  0
    0.2970  -13.4430    1.8750 C   0  0  0  0  0  0  0  0  0  0  0  0
    1.5300  -13.8740    1.3710 C   0  0  0  0  0  0  0  0  0  0  0  0
    4.4850  -17.3680   -2.0800 C   0  0  0  0  0  0  0  0  0  0  0  0
    5.7780  -17.2620   -2.9350 C   0  0  0  0  0  0  0  0  0  0  0  0
    8.1670  -14.5660   -1.9170 C   0  0  0  0  0  0  0  0  0  0  0  0
    9.3890  -15.1880   -1.5650 C   0  0  0  0  0  0  0  0  0  0  0  0
   10.4940  -14.4240   -1.1910 C   0  0  0  0  0  0  0  0  0  0  0  0
   11.7060  -14.9440   -0.8190 O   0  0  0  0  0  0  0  0  0  0  0  0
   11.9200  -16.3340   -1.0150 C   0  0  0  0  0  0  0  0  0  0  0  0
   11.4996  -12.5176    1.2850 H   0  0  0  0  0  0  0  0  0  0  0  0
   12.3931  -11.1059    0.6250 H   0  0  0  0  0  0  0  0  0  0  0  0
   10.5968  -11.1119    0.6250 H   0  0  0  0  0  0  0  0  0  0  0  0
    9.0904  -11.3289   -1.5185 H   0  0  0  0  0  0  0  0  0  0  0  0
    3.7189  -12.8073   -1.1794 H   0  0  0  0  0  0  0  0  0  0  0  0
    4.5263  -11.2162   -1.4581 H   0  0  0  0  0  0  0  0  0  0  0  0
    1.9718  -12.2478   -2.7914 H   0  0  0  0  0  0  0  0  0  0  0  0
    2.1265  -10.9003   -1.5921 H   0  0  0  0  0  0  0  0  0  0  0  0
    2.8236  -11.9539   -4.9577 H   0  0  0  0  0  0  0  0  0  0  0  0
    3.6235  -10.3871   -5.3884 H   0  0  0  0  0  0  0  0  0  0  0  0
    5.2422  -12.2882   -5.0499 H   0  0  0  0  0  0  0  0  0  0  0  0
    5.5076  -10.8839   -3.9456 H   0  0  0  0  0  0  0  0  0  0  0  0
    7.2507  -18.2254   -0.8351 H   0  0  0  0  0  0  0  0  0  0  0  0
    7.8708  -16.6060   -0.3169 H   0  0  0  0  0  0  0  0  0  0  0  0
    5.4779  -17.8381    0.5544 H   0  0  0  0  0  0  0  0  0  0  0  0
    5.9402  -16.1101    0.7685 H   0  0  0  0  0  0  0  0  0  0  0  0
    4.9000  -15.5850   -1.2700 H   0  0  0  0  0  0  0  0  0  0  0  0
    3.2330  -14.4040   -1.0600 H   0  0  0  0  0  0  0  0  0  0  0  0
    0.4448  -15.3776   -1.4894 H   0  0  0  0  0  0  0  0  0  0  0  0
   -1.7465  -14.6015   -0.5967 H   0  0  0  0  0  0  0  0  0  0  0  0
   -4.3419  -13.6424    0.2993 H   0  0  0  0  0  0  0  0  0  0  0  0
   -5.5418  -11.9030   -1.0314 H   0  0  0  0  0  0  0  0  0  0  0  0
   -4.6071   -9.5972   -1.2003 H   0  0  0  0  0  0  0  0  0  0  0  0
   -2.4838   -9.0186   -0.0259 H   0  0  0  0  0  0  0  0  0  0  0  0
   -1.2816  -10.7551    1.3088 H   0  0  0  0  0  0  0  0  0  0  0  0
    0.2565  -12.8816    2.8201 H   0  0  0  0  0  0  0  0  0  0  0  0
    2.4537  -13.6595    1.9284 H   0  0  0  0  0  0  0  0  0  0  0  0
    4.3372  -18.4113   -1.7643 H   0  0  0  0  0  0  0  0  0  0  0  0
    3.6199  -17.0428   -2.6765 H   0  0  0  0  0  0  0  0  0  0  0  0
    6.0829  -18.2723   -3.2454 H   0  0  0  0  0  0  0  0  0  0  0  0
    5.5589  -16.6283   -3.8070 H   0  0  0  0  0  0  0  0  0  0  0  0
    9.4677  -16.2850   -1.5867 H   0  0  0  0  0  0  0  0  0  0  0  0
   11.9970  -16.8344   -0.0384 H   0  0  0  0  0  0  0  0  0  0  0  0
   11.0767  -16.7589   -1.5792 H   0  0  0  0  0  0  0  0  0  0  0  0
   12.8521  -16.4855   -1.5792 H   0  0  0  0  0  0  0  0  0  0  0  0
  1  2  1  0
  2  3  1  0
  3  4  2  0
  4  5  1  0
  5  6  2  0
  6  7  1  0
  7  8  1  0
  8  9  1  0
  9 10  1  0
 10 11  1  0
 11 12  1  0
 12 13  1  0
  7 14  2  0
 14 15  1  0
 15 16  1  0
 16 17  1  0
 17 18  1  0
 18 19  1  0
 19 20  1  0
 20 21  2  0
 20 22  1  0
 22 23  1  0
 23 24  2  0
 24 25  1  0
 25 26  2  0
 26 27  1  0
 27 28  1  0
 28 29  2  0
 29 30  1  0
 30 31  2  0
 31 32  1  0
 32 33  2  0
 26 34  1  0
 34 35  2  0
 19 36  1  0
 36 37  1  0
 15 38  2  0
 38 39  1  0
 39 40  2  0
 40 41  1  0
 41 42  1  0
 40  3  1  0
 38  5  1  0
 13  8  1  0
 37 16  1  0
 35 23  1  0
 33 28  1  0
  1 43  1  0
  1 44  1  0
  1 45  1  0
  4 46  1  0
  9 47  1  0
  9 48  1  0
 10 49  1  0
 10 50  1  0
 12 51  1  0
 12 52  1  0
 13 53  1  0
 13 54  1  0
 17 55  1  0
 17 56  1  0
 18 57  1  0
 18 58  1  0
 19 59  1  0
 22 60  1  0
 24 61  1  0
 25 62  1  0
 29 63  1  0
 30 64  1  0
 31 65  1  0
 32 66  1  0
 33 67  1  0
 34 68  1  0
 35 69  1  0
 36 70  1  0
 36 71  1  0
 37 72  1  0
 37 73  1  0
 39 74  1  0
 42 75  1  0
 42 76  1  0
 42 77  1  0
M  CHG  1  19   1
M  END
>  <meeko>  (5) 
{"is_sidechain": [false], "free_energy": -8.241, "intermolecular_energy": -11.745, "internal_energy": -1.728}

$$$$
LIB_TVRADXVJUWRKGV__M_PUB_ALL__e8__s20260927
     RDKit          3D

 77 82  0  0  0  0  0  0  0  0999 V2000
   13.2750  -12.1780   -4.0030 C   0  0  0  0  0  0  0  0  0  0  0  0
   12.6650  -12.3230   -2.7280 O   0  0  0  0  0  0  0  0  0  0  0  0
   11.3910  -12.8270   -2.6760 C   0  0  0  0  0  0  0  0  0  0  0  0
   10.2510  -12.1480   -3.1230 C   0  0  0  0  0  0  0  0  0  0  0  0
    8.9820  -12.7070   -3.0380 C   0  0  0  0  0  0  0  0  0  0  0  0
    7.9340  -12.0040   -3.4840 N   0  0  0  0  0  0  0  0  0  0  0  0
    6.7160  -12.5460   -3.4430 C   0  0  0  0  0  0  0  0  0  0  0  0
    5.6210  -11.8380   -3.9240 N   0  0  0  0  0  0  0  0  0  0  0  0
    5.0840  -12.3250   -5.2120 C   0  0  0  0  0  0  0  0  0  0  0  0
    3.9530  -11.4130   -5.7090 C   0  0  0  0  0  0  0  0  0  0  0  0
    2.9350  -11.2520   -4.7120 O   0  0  0  0  0  0  0  0  0  0  0  0
    3.4780  -10.6580   -3.5290 C   0  0  0  0  0  0  0  0  0  0  0  0
    4.5870  -11.5300   -2.9200 C   0  0  0  0  0  0  0  0  0  0  0  0
    6.4760  -13.7350   -2.8690 N   0  0  0  0  0  0  0  0  0  0  0  0
    7.5310  -14.4450   -2.4050 C   0  0  0  0  0  0  0  0  0  0  0  0
    7.2110  -15.6310   -1.7240 N   0  0  0  0  0  0  0  0  0  0  0  0
    7.5730  -15.6120   -0.2880 C   0  0  0  0  0  0  0  0  0  0  0  0
    6.5590  -14.7720    0.5370 C   0  0  0  0  0  0  0  0  0  0  0  0
    5.3450  -14.4550   -0.2980 N   0  0  0  0  0  0  0  0  0  0  0  0
    4.3640  -13.6750    0.4010 C   0  0  0  0  0  0  0  0  0  0  0  0
    4.7890  -13.1440    1.4060 O   0  0  0  0  0  0  0  0  0  0  0  0
    3.1230  -13.6380   -0.1640 N   0  0  0  0  0  0  0  0  0  0  0  0
    2.0010  -12.9320    0.3220 C   0  0  0  0  0  0  0  0  0  0  0  0
    1.1610  -13.6120    1.2150 C   0  0  0  0  0  0  0  0  0  0  0  0
    0.0320  -12.9860    1.7470 C   0  0  0  0  0  0  0  0  0  0  0  0
   -0.2620  -11.6690    1.4030 C   0  0  0  0  0  0  0  0  0  0  0  0
   -1.4120  -11.1320    1.9330 O   0  0  0  0  0  0  0  0  0  0  0  0
   -2.5550  -11.2130    1.1720 C   0  0  0  0  0  0  0  0  0  0  0  0
   -3.4580  -12.2320    1.4770 C   0  0  0  0  0  0  0  0  0  0  0  0
   -4.6490  -12.3390    0.7580 C   0  0  0  0  0  0  0  0  0  0  0  0
   -4.9400  -11.4200   -0.2520 C   0  0  0  0  0  0  0  0  0  0  0  0
   -4.0460  -10.3880   -0.5380 C   0  0  0  0  0  0  0  0  0  0  0  0
   -2.8540  -10.2770    0.1780 C   0  0  0  0  0  0  0  0  0  0  0  0
    0.5540  -10.9910    0.4980 C   0  0  0  0  0  0  0  0  0  0  0  0
    1.6870  -11.6180   -0.0350 C   0  0  0  0  0  0  0  0  0  0  0  0
    4.7980  -15.6580   -1.0120 C   0  0  0  0  0  0  0  0  0  0  0  0
    5.8690  -16.1990   -1.9990 C   0  0  0  0  0  0  0  0  0  0  0  0
    8.8460  -13.9760   -2.4790 C   0  0  0  0  0  0  0  0  0  0  0  0
    9.9900  -14.6840   -2.0370 C   0  0  0  0  0  0  0  0  0  0  0  0
   11.2590  -14.1150   -2.1350 C   0  0  0  0  0  0  0  0  0  0  0  0
   12.4140  -14.7210   -1.7150 O   0  0  0  0  0  0  0  0  0  0  0  0
   12.3200  -16.0380   -1.1900 C   0  0  0  0  0  0  0  0  0  0  0  0
   14.3378  -11.9254   -3.8744 H   0  0  0  0  0  0  0  0  0  0  0  0
   13.1874  -13.1220   -4.5609 H   0  0  0  0  0  0  0  0  0  0  0  0
   12.7720  -11.3744   -4.5609 H   0  0  0  0  0  0  0  0  0  0  0  0
   10.3635  -11.1423   -3.5542 H   0  0  0  0  0  0  0  0  0  0  0  0
    5.8920  -12.3375   -5.9583 H   0  0  0  0  0  0  0  0  0  0  0  0
    4.6824  -13.3387   -5.0667 H   0  0  0  0  0  0  0  0  0  0  0  0
    4.3713  -10.4261   -5.9561 H   0  0  0  0  0  0  0  0  0  0  0  0
    3.4983  -11.8773   -6.5965 H   0  0  0  0  0  0  0  0  0  0  0  0
    3.8966   -9.6731   -3.7832 H   0  0  0  0  0  0  0  0  0  0  0  0
    2.6698  -10.5605   -2.7892 H   0  0  0  0  0  0  0  0  0  0  0  0
    5.0492  -10.9910   -2.0799 H   0  0  0  0  0  0  0  0  0  0  0  0
    4.1421  -12.4736   -2.5710 H   0  0  0  0  0  0  0  0  0  0  0  0
    7.5789  -16.6435    0.0940 H   0  0  0  0  0  0  0  0  0  0  0  0
    8.5681  -15.1545   -0.1861 H   0  0  0  0  0  0  0  0  0  0  0  0
    6.2504  -15.3440    1.4245 H   0  0  0  0  0  0  0  0  0  0  0  0
    7.0387  -13.8312    0.8448 H   0  0  0  0  0  0  0  0  0  0  0  0
    5.6810  -13.8630   -1.0700 H   0  0  0  0  0  0  0  0  0  0  0  0
    2.9610  -14.1420   -1.0290 H   0  0  0  0  0  0  0  0  0  0  0  0
    1.3936  -14.6488    1.4993 H   0  0  0  0  0  0  0  0  0  0  0  0
   -0.6256  -13.5335    2.4383 H   0  0  0  0  0  0  0  0  0  0  0  0
   -3.2319  -12.9480    2.2809 H   0  0  0  0  0  0  0  0  0  0  0  0
   -5.3588  -13.1476    0.9870 H   0  0  0  0  0  0  0  0  0  0  0  0
   -5.8758  -11.5099   -0.8232 H   0  0  0  0  0  0  0  0  0  0  0  0
   -4.2813   -9.6609   -1.3291 H   0  0  0  0  0  0  0  0  0  0  0  0
   -2.1532   -9.4573   -0.0385 H   0  0  0  0  0  0  0  0  0  0  0  0
    0.3070   -9.9608    0.2020 H   0  0  0  0  0  0  0  0  0  0  0  0
    2.3335  -11.0731   -0.7387 H   0  0  0  0  0  0  0  0  0  0  0  0
    4.5467  -16.4382   -0.2784 H   0  0  0  0  0  0  0  0  0  0  0  0
    3.8921  -15.3763   -1.5687 H   0  0  0  0  0  0  0  0  0  0  0  0
    5.9198  -17.2937   -1.9038 H   0  0  0  0  0  0  0  0  0  0  0  0
    5.5753  -15.9029   -3.0169 H   0  0  0  0  0  0  0  0  0  0  0  0
    9.8763  -15.6923   -1.6124 H   0  0  0  0  0  0  0  0  0  0  0  0
   12.3230  -15.9956   -0.0908 H   0  0  0  0  0  0  0  0  0  0  0  0
   11.3862  -16.5050   -1.5364 H   0  0  0  0  0  0  0  0  0  0  0  0
   13.1780  -16.6329   -1.5364 H   0  0  0  0  0  0  0  0  0  0  0  0
  1  2  1  0
  2  3  1  0
  3  4  2  0
  4  5  1  0
  5  6  2  0
  6  7  1  0
  7  8  1  0
  8  9  1  0
  9 10  1  0
 10 11  1  0
 11 12  1  0
 12 13  1  0
  7 14  2  0
 14 15  1  0
 15 16  1  0
 16 17  1  0
 17 18  1  0
 18 19  1  0
 19 20  1  0
 20 21  2  0
 20 22  1  0
 22 23  1  0
 23 24  2  0
 24 25  1  0
 25 26  2  0
 26 27  1  0
 27 28  1  0
 28 29  2  0
 29 30  1  0
 30 31  2  0
 31 32  1  0
 32 33  2  0
 26 34  1  0
 34 35  2  0
 19 36  1  0
 36 37  1  0
 15 38  2  0
 38 39  1  0
 39 40  2  0
 40 41  1  0
 41 42  1  0
 40  3  1  0
 38  5  1  0
 13  8  1  0
 37 16  1  0
 35 23  1  0
 33 28  1  0
  1 43  1  0
  1 44  1  0
  1 45  1  0
  4 46  1  0
  9 47  1  0
  9 48  1  0
 10 49  1  0
 10 50  1  0
 12 51  1  0
 12 52  1  0
 13 53  1  0
 13 54  1  0
 17 55  1  0
 17 56  1  0
 18 57  1  0
 18 58  1  0
 19 59  1  0
 22 60  1  0
 24 61  1  0
 25 62  1  0
 29 63  1  0
 30 64  1  0
 31 65  1  0
 32 66  1  0
 33 67  1  0
 34 68  1  0
 35 69  1  0
 36 70  1  0
 36 71  1  0
 37 72  1  0
 37 73  1  0
 39 74  1  0
 42 75  1  0
 42 76  1  0
 42 77  1  0
M  CHG  1  19   1
M  END
>  <meeko>  (6) 
{"is_sidechain": [false], "free_energy": -8.217, "intermolecular_energy": -11.857, "internal_energy": -1.581}

$$$$
LIB_TVRADXVJUWRKGV__M_PUB_ALL__e8__s20260927
     RDKit          3D

 77 82  0  0  0  0  0  0  0  0999 V2000
   13.9140  -12.9960   -3.6940 C   0  0  0  0  0  0  0  0  0  0  0  0
   12.8660  -12.5410   -4.5380 O   0  0  0  0  0  0  0  0  0  0  0  0
   11.5880  -12.9540   -4.2590 C   0  0  0  0  0  0  0  0  0  0  0  0
   10.8290  -12.5070   -3.1710 C   0  0  0  0  0  0  0  0  0  0  0  0
    9.5410  -12.9680   -2.9340 C   0  0  0  0  0  0  0  0  0  0  0  0
    8.8690  -12.4990   -1.8760 N   0  0  0  0  0  0  0  0  0  0  0  0
    7.6180  -12.9050   -1.6610 C   0  0  0  0  0  0  0  0  0  0  0  0
    6.9000  -12.4100   -0.5790 N   0  0  0  0  0  0  0  0  0  0  0  0
    6.3620  -13.4420    0.3340 C   0  0  0  0  0  0  0  0  0  0  0  0
    5.4960  -12.8010    1.4280 C   0  0  0  0  0  0  0  0  0  0  0  0
    6.2090  -11.7690    2.1210 O   0  0  0  0  0  0  0  0  0  0  0  0
    6.5970  -10.7300    1.2170 C   0  0  0  0  0  0  0  0  0  0  0  0
    7.5190  -11.2630    0.1090 C   0  0  0  0  0  0  0  0  0  0  0  0
    7.0310  -13.8560   -2.4050 N   0  0  0  0  0  0  0  0  0  0  0  0
    7.7100  -14.3420   -3.4710 C   0  0  0  0  0  0  0  0  0  0  0  0
    7.0910  -15.4050   -4.1500 N   0  0  0  0  0  0  0  0  0  0  0  0
    6.5140  -16.4320   -3.2530 C   0  0  0  0  0  0  0  0  0  0  0  0
    5.1750  -15.9470   -2.6310 C   0  0  0  0  0  0  0  0  0  0  0  0
    4.6980  -14.7000   -3.3290 N   0  0  0  0  0  0  0  0  0  0  0  0
    3.4640  -14.1920   -2.8020 C   0  0  0  0  0  0  0  0  0  0  0  0
    2.4780  -14.6670   -3.3260 O   0  0  0  0  0  0  0  0  0  0  0  0
    3.5790  -13.2740   -1.7990 N   0  0  0  0  0  0  0  0  0  0  0  0
    2.5180  -12.6450   -1.1120 C   0  0  0  0  0  0  0  0  0  0  0  0
    2.0140  -13.3040    0.0170 C   0  0  0  0  0  0  0  0  0  0  0  0
    0.9680  -12.7490    0.7580 C   0  0  0  0  0  0  0  0  0  0  0  0
    0.4250  -11.5220    0.3850 C   0  0  0  0  0  0  0  0  0  0  0  0
   -0.6290  -11.0570    1.1360 O   0  0  0  0  0  0  0  0  0  0  0  0
   -1.8970  -11.2740    0.6460 C   0  0  0  0  0  0  0  0  0  0  0  0
   -2.5490  -10.1920    0.0530 C   0  0  0  0  0  0  0  0  0  0  0  0
   -3.8220  -10.3650   -0.4890 C   0  0  0  0  0  0  0  0  0  0  0  0
   -4.4330  -11.6190   -0.4530 C   0  0  0  0  0  0  0  0  0  0  0  0
   -3.7690  -12.7040    0.1190 C   0  0  0  0  0  0  0  0  0  0  0  0
   -2.4950  -12.5360    0.6630 C   0  0  0  0  0  0  0  0  0  0  0  0
    0.9040  -10.8680   -0.7510 C   0  0  0  0  0  0  0  0  0  0  0  0
    1.9530  -11.4240   -1.4930 C   0  0  0  0  0  0  0  0  0  0  0  0
    4.7390  -14.8170   -4.8260 C   0  0  0  0  0  0  0  0  0  0  0  0
    6.2100  -15.0300   -5.2820 C   0  0  0  0  0  0  0  0  0  0  0  0
    8.9980  -13.9120   -3.8030 C   0  0  0  0  0  0  0  0  0  0  0  0
    9.7450  -14.3640   -4.9180 C   0  0  0  0  0  0  0  0  0  0  0  0
   11.0350  -13.8870   -5.1490 C   0  0  0  0  0  0  0  0  0  0  0  0
   11.8320  -14.2840   -6.1910 O   0  0  0  0  0  0  0  0  0  0  0  0
   11.2800  -15.1800   -7.1450 C   0  0  0  0  0  0  0  0  0  0  0  0
   13.6193  -12.8680   -2.6420 H   0  0  0  0  0  0  0  0  0  0  0  0
   14.1095  -14.0600   -3.8932 H   0  0  0  0  0  0  0  0  0  0  0  0
   14.8248  -12.4123   -3.8932 H   0  0  0  0  0  0  0  0  0  0  0  0
   11.2662  -11.7683   -2.4831 H   0  0  0  0  0  0  0  0  0  0  0  0
    5.7492  -14.1503   -0.2428 H   0  0  0  0  0  0  0  0  0  0  0  0
    7.2037  -13.9656    0.8109 H   0  0  0  0  0  0  0  0  0  0  0  0
    4.5978  -12.3665    0.9649 H   0  0  0  0  0  0  0  0  0  0  0  0
    5.2222  -13.5805    2.1542 H   0  0  0  0  0  0  0  0  0  0  0  0
    5.6947  -10.3018    0.7560 H   0  0  0  0  0  0  0  0  0  0  0  0
    7.1467   -9.9653    1.7854 H   0  0  0  0  0  0  0  0  0  0  0  0
    7.7057  -10.4620   -0.6214 H   0  0  0  0  0  0  0  0  0  0  0  0
    8.4643  -11.5929    0.5647 H   0  0  0  0  0  0  0  0  0  0  0  0
    6.3297  -17.3500   -3.8304 H   0  0  0  0  0  0  0  0  0  0  0  0
    7.2276  -16.6230   -2.4379 H   0  0  0  0  0  0  0  0  0  0  0  0
    4.4169  -16.7366   -2.7396 H   0  0  0  0  0  0  0  0  0  0  0  0
    5.3345  -15.7232   -1.5659 H   0  0  0  0  0  0  0  0  0  0  0  0
    5.4070  -13.9800   -3.1350 H   0  0  0  0  0  0  0  0  0  0  0  0
    4.5050  -13.0100   -1.4790 H   0  0  0  0  0  0  0  0  0  0  0  0
    2.4463  -14.2681    0.3229 H   0  0  0  0  0  0  0  0  0  0  0  0
    0.5732  -13.2811    1.6361 H   0  0  0  0  0  0  0  0  0  0  0  0
   -2.0608   -9.2070    0.0133 H   0  0  0  0  0  0  0  0  0  0  0  0
   -4.3453   -9.5119   -0.9455 H   0  0  0  0  0  0  0  0  0  0  0  0
   -5.4396  -11.7520   -0.8763 H   0  0  0  0  0  0  0  0  0  0  0  0
   -4.2500  -13.6930    0.1413 H   0  0  0  0  0  0  0  0  0  0  0  0
   -1.9644  -13.3932    1.1030 H   0  0  0  0  0  0  0  0  0  0  0  0
    0.4562   -9.9133   -1.0642 H   0  0  0  0  0  0  0  0  0  0  0  0
    2.3347  -10.8976   -2.3803 H   0  0  0  0  0  0  0  0  0  0  0  0
    4.1272  -15.6737   -5.1450 H   0  0  0  0  0  0  0  0  0  0  0  0
    4.3409  -13.8973   -5.2796 H   0  0  0  0  0  0  0  0  0  0  0  0
    6.2365  -15.8322   -6.0342 H   0  0  0  0  0  0  0  0  0  0  0  0
    6.5779  -14.0816   -5.7006 H   0  0  0  0  0  0  0  0  0  0  0  0
    9.3037  -15.0981   -5.6082 H   0  0  0  0  0  0  0  0  0  0  0  0
   10.7722  -16.0043   -6.6229 H   0  0  0  0  0  0  0  0  0  0  0  0
   10.5555  -14.6437   -7.7754 H   0  0  0  0  0  0  0  0  0  0  0  0
   12.0849  -15.5859   -7.7754 H   0  0  0  0  0  0  0  0  0  0  0  0
  1  2  1  0
  2  3  1  0
  3  4  2  0
  4  5  1  0
  5  6  2  0
  6  7  1  0
  7  8  1  0
  8  9  1  0
  9 10  1  0
 10 11  1  0
 11 12  1  0
 12 13  1  0
  7 14  2  0
 14 15  1  0
 15 16  1  0
 16 17  1  0
 17 18  1  0
 18 19  1  0
 19 20  1  0
 20 21  2  0
 20 22  1  0
 22 23  1  0
 23 24  2  0
 24 25  1  0
 25 26  2  0
 26 27  1  0
 27 28  1  0
 28 29  2  0
 29 30  1  0
 30 31  2  0
 31 32  1  0
 32 33  2  0
 26 34  1  0
 34 35  2  0
 19 36  1  0
 36 37  1  0
 15 38  2  0
 38 39  1  0
 39 40  2  0
 40 41  1  0
 41 42  1  0
 40  3  1  0
 38  5  1  0
 13  8  1  0
 37 16  1  0
 35 23  1  0
 33 28  1  0
  1 43  1  0
  1 44  1  0
  1 45  1  0
  4 46  1  0
  9 47  1  0
  9 48  1  0
 10 49  1  0
 10 50  1  0
 12 51  1  0
 12 52  1  0
 13 53  1  0
 13 54  1  0
 17 55  1  0
 17 56  1  0
 18 57  1  0
 18 58  1  0
 19 59  1  0
 22 60  1  0
 24 61  1  0
 25 62  1  0
 29 63  1  0
 30 64  1  0
 31 65  1  0
 32 66  1  0
 33 67  1  0
 34 68  1  0
 35 69  1  0
 36 70  1  0
 36 71  1  0
 37 72  1  0
 37 73  1  0
 39 74  1  0
 42 75  1  0
 42 76  1  0
 42 77  1  0
M  CHG  1  19   1
M  END
>  <meeko>  (7) 
{"is_sidechain": [false], "free_energy": -8.103, "intermolecular_energy": -11.965, "internal_energy": -1.306}

$$$$
LIB_TVRADXVJUWRKGV__M_PUB_ALL__e8__s20260927
     RDKit          3D

 77 82  0  0  0  0  0  0  0  0999 V2000
   11.5220  -18.0160   -1.2280 C   0  0  0  0  0  0  0  0  0  0  0  0
   10.3150  -18.2970   -1.9230 O   0  0  0  0  0  0  0  0  0  0  0  0
    9.5360  -17.2390   -2.3160 C   0  0  0  0  0  0  0  0  0  0  0  0
    9.0080  -16.2770   -1.4470 C   0  0  0  0  0  0  0  0  0  0  0  0
    8.2170  -15.2300   -1.9030 C   0  0  0  0  0  0  0  0  0  0  0  0
    7.7440  -14.3430   -1.0180 N   0  0  0  0  0  0  0  0  0  0  0  0
    7.0170  -13.3120   -1.4500 C   0  0  0  0  0  0  0  0  0  0  0  0
    6.5380  -12.3710   -0.5460 N   0  0  0  0  0  0  0  0  0  0  0  0
    5.5270  -12.8820    0.4050 C   0  0  0  0  0  0  0  0  0  0  0  0
    4.9830  -11.7450    1.2810 C   0  0  0  0  0  0  0  0  0  0  0  0
    6.0430  -11.0340    1.9330 O   0  0  0  0  0  0  0  0  0  0  0  0
    6.9240  -10.4490    0.9690 C   0  0  0  0  0  0  0  0  0  0  0  0
    7.5680  -11.5180    0.0730 C   0  0  0  0  0  0  0  0  0  0  0  0
    6.6430  -13.1810   -2.7320 N   0  0  0  0  0  0  0  0  0  0  0  0
    7.1090  -14.0810   -3.6290 C   0  0  0  0  0  0  0  0  0  0  0  0
    6.6030  -13.9550   -4.9330 N   0  0  0  0  0  0  0  0  0  0  0  0
    5.5700  -14.9600   -5.2730 C   0  0  0  0  0  0  0  0  0  0  0  0
    4.2040  -14.6040   -4.6250 C   0  0  0  0  0  0  0  0  0  0  0  0
    4.2370  -13.2020   -4.0760 N   0  0  0  0  0  0  0  0  0  0  0  0
    3.0050  -12.8060   -3.4570 C   0  0  0  0  0  0  0  0  0  0  0  0
    2.0330  -12.9480   -4.1700 O   0  0  0  0  0  0  0  0  0  0  0  0
    3.1050  -12.3460   -2.1760 N   0  0  0  0  0  0  0  0  0  0  0  0
    2.0400  -11.9150   -1.3540 C   0  0  0  0  0  0  0  0  0  0  0  0
    1.4850  -10.6610   -1.6420 C   0  0  0  0  0  0  0  0  0  0  0  0
    0.4260  -10.1600   -0.8820 C   0  0  0  0  0  0  0  0  0  0  0  0
   -0.0970  -10.9140    0.1660 C   0  0  0  0  0  0  0  0  0  0  0  0
   -1.1110  -10.3400    0.8960 O   0  0  0  0  0  0  0  0  0  0  0  0
   -2.3840  -10.8250    0.6990 C   0  0  0  0  0  0  0  0  0  0  0  0
   -3.1210  -10.2820   -0.3540 C   0  0  0  0  0  0  0  0  0  0  0  0
   -4.4040  -10.7620   -0.6190 C   0  0  0  0  0  0  0  0  0  0  0  0
   -4.9390  -11.7900    0.1560 C   0  0  0  0  0  0  0  0  0  0  0  0
   -4.1910  -12.3470    1.1940 C   0  0  0  0  0  0  0  0  0  0  0  0
   -2.9070  -11.8710    1.4630 C   0  0  0  0  0  0  0  0  0  0  0  0
    0.4630  -12.1530    0.4750 C   0  0  0  0  0  0  0  0  0  0  0  0
    1.5240  -12.6560   -0.2880 C   0  0  0  0  0  0  0  0  0  0  0  0
    4.7970  -12.2060   -5.0520 C   0  0  0  0  0  0  0  0  0  0  0  0
    6.2710  -12.5780   -5.3730 C   0  0  0  0  0  0  0  0  0  0  0  0
    7.9370  -15.1470   -3.2650 C   0  0  0  0  0  0  0  0  0  0  0  0
    8.4760  -16.1020   -4.1610 C   0  0  0  0  0  0  0  0  0  0  0  0
    9.2740  -17.1450   -3.6910 C   0  0  0  0  0  0  0  0  0  0  0  0
    9.8200  -18.1200   -4.4850 O   0  0  0  0  0  0  0  0  0  0  0  0
   10.7210  -17.7180   -5.5060 C   0  0  0  0  0  0  0  0  0  0  0  0
   11.3394  -18.0585   -0.1441 H   0  0  0  0  0  0  0  0  0  0  0  0
   12.2842  -18.7607   -1.5009 H   0  0  0  0  0  0  0  0  0  0  0  0
   11.8769  -17.0112   -1.5009 H   0  0  0  0  0  0  0  0  0  0  0  0
    9.2258  -16.3523   -0.3714 H   0  0  0  0  0  0  0  0  0  0  0  0
    4.6967  -13.3328   -0.1583 H   0  0  0  0  0  0  0  0  0  0  0  0
    6.0000  -13.6335    1.0542 H   0  0  0  0  0  0  0  0  0  0  0  0
    4.4185  -11.0444    0.6482 H   0  0  0  0  0  0  0  0  0  0  0  0
    4.3339  -12.1834    2.0534 H   0  0  0  0  0  0  0  0  0  0  0  0
    6.3522   -9.7517    0.3390 H   0  0  0  0  0  0  0  0  0  0  0  0
    7.7251   -9.9225    1.5084 H   0  0  0  0  0  0  0  0  0  0  0  0
    8.1496  -11.0227   -0.7185 H   0  0  0  0  0  0  0  0  0  0  0  0
    8.2234  -12.1487    0.6916 H   0  0  0  0  0  0  0  0  0  0  0  0
    5.4501  -14.9955   -6.3659 H   0  0  0  0  0  0  0  0  0  0  0  0
    5.8946  -15.9372   -4.8860 H   0  0  0  0  0  0  0  0  0  0  0  0
    3.4116  -14.6781   -5.3843 H   0  0  0  0  0  0  0  0  0  0  0  0
    4.0036  -15.3063   -3.8025 H   0  0  0  0  0  0  0  0  0  0  0  0
    4.9420  -13.2100   -3.3260 H   0  0  0  0  0  0  0  0  0  0  0  0
    4.0170  -12.3160   -1.7350 H   0  0  0  0  0  0  0  0  0  0  0  0
    1.8874  -10.0655   -2.4748 H   0  0  0  0  0  0  0  0  0  0  0  0
    0.0048   -9.1699   -1.1109 H   0  0  0  0  0  0  0  0  0  0  0  0
   -2.6926   -9.4794   -0.9722 H   0  0  0  0  0  0  0  0  0  0  0  0
   -4.9940  -10.3289   -1.4402 H   0  0  0  0  0  0  0  0  0  0  0  0
   -5.9529  -12.1628   -0.0512 H   0  0  0  0  0  0  0  0  0  0  0  0
   -4.6136  -13.1616    1.8005 H   0  0  0  0  0  0  0  0  0  0  0  0
   -2.3101  -12.3170    2.2722 H   0  0  0  0  0  0  0  0  0  0  0  0
    0.0703  -12.7369    1.3204 H   0  0  0  0  0  0  0  0  0  0  0  0
    1.9534  -13.6396   -0.0468 H   0  0  0  0  0  0  0  0  0  0  0  0
    4.2031  -12.2242   -5.9777 H   0  0  0  0  0  0  0  0  0  0  0  0
    4.7574  -11.1976   -4.6144 H   0  0  0  0  0  0  0  0  0  0  0  0
    6.4277  -12.5044   -6.4593 H   0  0  0  0  0  0  0  0  0  0  0  0
    6.9246  -11.8799   -4.8295 H   0  0  0  0  0  0  0  0  0  0  0  0
    8.2635  -16.0206   -5.2372 H   0  0  0  0  0  0  0  0  0  0  0  0
   11.6348  -17.3103   -5.0490 H   0  0  0  0  0  0  0  0  0  0  0  0
   10.9791  -18.5863   -6.1300 H   0  0  0  0  0  0  0  0  0  0  0  0
   10.2472  -16.9459   -6.1300 H   0  0  0  0  0  0  0  0  0  0  0  0
  1  2  1  0
  2  3  1  0
  3  4  2  0
  4  5  1  0
  5  6  2  0
  6  7  1  0
  7  8  1  0
  8  9  1  0
  9 10  1  0
 10 11  1  0
 11 12  1  0
 12 13  1  0
  7 14  2  0
 14 15  1  0
 15 16  1  0
 16 17  1  0
 17 18  1  0
 18 19  1  0
 19 20  1  0
 20 21  2  0
 20 22  1  0
 22 23  1  0
 23 24  2  0
 24 25  1  0
 25 26  2  0
 26 27  1  0
 27 28  1  0
 28 29  2  0
 29 30  1  0
 30 31  2  0
 31 32  1  0
 32 33  2  0
 26 34  1  0
 34 35  2  0
 19 36  1  0
 36 37  1  0
 15 38  2  0
 38 39  1  0
 39 40  2  0
 40 41  1  0
 41 42  1  0
 40  3  1  0
 38  5  1  0
 13  8  1  0
 37 16  1  0
 35 23  1  0
 33 28  1  0
  1 43  1  0
  1 44  1  0
  1 45  1  0
  4 46  1  0
  9 47  1  0
  9 48  1  0
 10 49  1  0
 10 50  1  0
 12 51  1  0
 12 52  1  0
 13 53  1  0
 13 54  1  0
 17 55  1  0
 17 56  1  0
 18 57  1  0
 18 58  1  0
 19 59  1  0
 22 60  1  0
 24 61  1  0
 25 62  1  0
 29 63  1  0
 30 64  1  0
 31 65  1  0
 32 66  1  0
 33 67  1  0
 34 68  1  0
 35 69  1  0
 36 70  1  0
 36 71  1  0
 37 72  1  0
 37 73  1  0
 39 74  1  0
 42 75  1  0
 42 76  1  0
 42 77  1  0
M  CHG  1  19   1
M  END
>  <meeko>  (8) 
{"is_sidechain": [false], "free_energy": -8.048, "intermolecular_energy": -11.599, "internal_energy": -1.591}

$$$$
LIB_TVRADXVJUWRKGV__M_PUB_ALL__e8__s20260927
     RDKit          3D

 77 82  0  0  0  0  0  0  0  0999 V2000
    9.7880  -14.8190   -7.4610 C   0  0  0  0  0  0  0  0  0  0  0  0
    8.4380  -15.2270   -7.2860 O   0  0  0  0  0  0  0  0  0  0  0  0
    7.6290  -14.4550   -6.4930 C   0  0  0  0  0  0  0  0  0  0  0  0
    7.7540  -14.3410   -5.1030 C   0  0  0  0  0  0  0  0  0  0  0  0
    6.8980  -13.5480   -4.3500 C   0  0  0  0  0  0  0  0  0  0  0  0
    7.0730  -13.4830   -3.0250 N   0  0  0  0  0  0  0  0  0  0  0  0
    6.2820  -12.6940   -2.2980 C   0  0  0  0  0  0  0  0  0  0  0  0
    6.4650  -12.5980   -0.9240 N   0  0  0  0  0  0  0  0  0  0  0  0
    7.6910  -11.8820   -0.5090 C   0  0  0  0  0  0  0  0  0  0  0  0
    7.8570  -11.9280    1.0170 C   0  0  0  0  0  0  0  0  0  0  0  0
    6.6840  -11.4470    1.6850 O   0  0  0  0  0  0  0  0  0  0  0  0
    5.5490  -12.2520    1.3530 C   0  0  0  0  0  0  0  0  0  0  0  0
    5.2630  -12.2250   -0.1570 C   0  0  0  0  0  0  0  0  0  0  0  0
    5.2360  -12.0380   -2.8250 N   0  0  0  0  0  0  0  0  0  0  0  0
    5.0480  -12.1090   -4.1640 C   0  0  0  0  0  0  0  0  0  0  0  0
    3.8830  -11.4890   -4.6450 N   0  0  0  0  0  0  0  0  0  0  0  0
    2.9100  -12.4300   -5.2460 C   0  0  0  0  0  0  0  0  0  0  0  0
    2.1340  -13.2130   -4.1510 C   0  0  0  0  0  0  0  0  0  0  0  0
    2.3800  -12.5970   -2.7990 N   0  0  0  0  0  0  0  0  0  0  0  0
    1.6960  -13.2740   -1.7340 C   0  0  0  0  0  0  0  0  0  0  0  0
    1.5370  -12.5900   -0.7440 O   0  0  0  0  0  0  0  0  0  0  0  0
    1.3200  -14.5600   -1.9920 N   0  0  0  0  0  0  0  0  0  0  0  0
    0.6250  -15.4220   -1.1170 C   0  0  0  0  0  0  0  0  0  0  0  0
   -0.7750  -15.3640   -1.1490 C   0  0  0  0  0  0  0  0  0  0  0  0
   -1.5410  -16.1860   -0.3200 C   0  0  0  0  0  0  0  0  0  0  0  0
   -0.9150  -17.0840    0.5410 C   0  0  0  0  0  0  0  0  0  0  0  0
   -1.7320  -17.8320    1.3570 O   0  0  0  0  0  0  0  0  0  0  0  0
   -1.9900  -17.3360    2.6150 C   0  0  0  0  0  0  0  0  0  0  0  0
   -1.1100  -17.6930    3.6380 C   0  0  0  0  0  0  0  0  0  0  0  0
   -1.3070  -17.1910    4.9240 C   0  0  0  0  0  0  0  0  0  0  0  0
   -2.3700  -16.3250    5.1820 C   0  0  0  0  0  0  0  0  0  0  0  0
   -3.2340  -15.9520    4.1520 C   0  0  0  0  0  0  0  0  0  0  0  0
   -3.0420  -16.4510    2.8630 C   0  0  0  0  0  0  0  0  0  0  0  0
    0.4780  -17.1340    0.5970 C   0  0  0  0  0  0  0  0  0  0  0  0
    1.2460  -16.3110   -0.2350 C   0  0  0  0  0  0  0  0  0  0  0  0
    2.2170  -11.1030   -2.7990 C   0  0  0  0  0  0  0  0  0  0  0  0
    3.2690  -10.4750   -3.7550 C   0  0  0  0  0  0  0  0  0  0  0  0
    5.8790  -12.8560   -5.0030 C   0  0  0  0  0  0  0  0  0  0  0  0
    5.7480  -12.9460   -6.4100 C   0  0  0  0  0  0  0  0  0  0  0  0
    6.6190  -13.7410   -7.1560 C   0  0  0  0  0  0  0  0  0  0  0  0
    6.5510  -13.8990   -8.5150 O   0  0  0  0  0  0  0  0  0  0  0  0
    6.9120  -12.7930   -9.3310 C   0  0  0  0  0  0  0  0  0  0  0  0
   10.2586  -14.6768   -6.4770 H   0  0  0  0  0  0  0  0  0  0  0  0
   10.3350  -15.5919   -8.0208 H   0  0  0  0  0  0  0  0  0  0  0  0
    9.8154  -13.8725   -8.0208 H   0  0  0  0  0  0  0  0  0  0  0  0
    8.5544  -14.8963   -4.5921 H   0  0  0  0  0  0  0  0  0  0  0  0
    8.5636  -12.3566   -0.9815 H   0  0  0  0  0  0  0  0  0  0  0  0
    7.6104  -10.8312   -0.8242 H   0  0  0  0  0  0  0  0  0  0  0  0
    8.0439  -12.9672    1.3256 H   0  0  0  0  0  0  0  0  0  0  0  0
    8.7026  -11.2809    1.2930 H   0  0  0  0  0  0  0  0  0  0  0  0
    5.7439  -13.2897    1.6616 H   0  0  0  0  0  0  0  0  0  0  0  0
    4.6719  -11.8461    1.8782 H   0  0  0  0  0  0  0  0  0  0  0  0
    4.4553  -12.9364   -0.3838 H   0  0  0  0  0  0  0  0  0  0  0  0
    4.9657  -11.2048   -0.4414 H   0  0  0  0  0  0  0  0  0  0  0  0
    2.1929  -11.8625   -5.8573 H   0  0  0  0  0  0  0  0  0  0  0  0
    3.4618  -13.1525   -5.8653 H   0  0  0  0  0  0  0  0  0  0  0  0
    1.0575  -13.1804   -4.3748 H   0  0  0  0  0  0  0  0  0  0  0  0
    2.4835  -14.2559   -4.1395 H   0  0  0  0  0  0  0  0  0  0  0  0
    3.3850  -12.7190   -2.6120 H   0  0  0  0  0  0  0  0  0  0  0  0
    1.5300  -14.9600   -2.9000 H   0  0  0  0  0  0  0  0  0  0  0  0
   -1.2754  -14.6638   -1.8341 H   0  0  0  0  0  0  0  0  0  0  0  0
   -2.6389  -16.1243   -0.3470 H   0  0  0  0  0  0  0  0  0  0  0  0
   -0.2655  -18.3668    3.4308 H   0  0  0  0  0  0  0  0  0  0  0  0
   -0.6232  -17.4783    5.7363 H   0  0  0  0  0  0  0  0  0  0  0  0
   -2.5271  -15.9358    6.1988 H   0  0  0  0  0  0  0  0  0  0  0  0
   -4.0675  -15.2638    4.3562 H   0  0  0  0  0  0  0  0  0  0  0  0
   -3.7151  -16.1492    2.0470 H   0  0  0  0  0  0  0  0  0  0  0  0
    0.9743  -17.8222    1.2970 H   0  0  0  0  0  0  0  0  0  0  0  0
    2.3440  -16.3641   -0.1945 H   0  0  0  0  0  0  0  0  0  0  0  0
    1.2052  -10.8432   -3.1435 H   0  0  0  0  0  0  0  0  0  0  0  0
    2.3645  -10.7148   -1.7804 H   0  0  0  0  0  0  0  0  0  0  0  0
    2.7757   -9.7109   -4.3737 H   0  0  0  0  0  0  0  0  0  0  0  0
    4.0671  -10.0333   -3.1403 H   0  0  0  0  0  0  0  0  0  0  0  0
    4.9519  -12.3837   -6.9199 H   0  0  0  0  0  0  0  0  0  0  0  0
    7.1899  -11.9415   -8.6925 H   0  0  0  0  0  0  0  0  0  0  0  0
    7.7666  -13.0694   -9.9661 H   0  0  0  0  0  0  0  0  0  0  0  0
    6.0589  -12.5120   -9.9661 H   0  0  0  0  0  0  0  0  0  0  0  0
  1  2  1  0
  2  3  1  0
  3  4  2  0
  4  5  1  0
  5  6  2  0
  6  7  1  0
  7  8  1  0
  8  9  1  0
  9 10  1  0
 10 11  1  0
 11 12  1  0
 12 13  1  0
  7 14  2  0
 14 15  1  0
 15 16  1  0
 16 17  1  0
 17 18  1  0
 18 19  1  0
 19 20  1  0
 20 21  2  0
 20 22  1  0
 22 23  1  0
 23 24  2  0
 24 25  1  0
 25 26  2  0
 26 27  1  0
 27 28  1  0
 28 29  2  0
 29 30  1  0
 30 31  2  0
 31 32  1  0
 32 33  2  0
 26 34  1  0
 34 35  2  0
 19 36  1  0
 36 37  1  0
 15 38  2  0
 38 39  1  0
 39 40  2  0
 40 41  1  0
 41 42  1  0
 40  3  1  0
 38  5  1  0
 13  8  1  0
 37 16  1  0
 35 23  1  0
 33 28  1  0
  1 43  1  0
  1 44  1  0
  1 45  1  0
  4 46  1  0
  9 47  1  0
  9 48  1  0
 10 49  1  0
 10 50  1  0
 12 51  1  0
 12 52  1  0
 13 53  1  0
 13 54  1  0
 17 55  1  0
 17 56  1  0
 18 57  1  0
 18 58  1  0
 19 59  1  0
 22 60  1  0
 24 61  1  0
 25 62  1  0
 29 63  1  0
 30 64  1  0
 31 65  1  0
 32 66  1  0
 33 67  1  0
 34 68  1  0
 35 69  1  0
 36 70  1  0
 36 71  1  0
 37 72  1  0
 37 73  1  0
 39 74  1  0
 42 75  1  0
 42 76  1  0
 42 77  1  0
M  CHG  1  19   1
M  END
>  <meeko>  (9) 
{"is_sidechain": [false], "free_energy": -7.951, "intermolecular_energy": -11.516, "internal_energy": -1.533}

$$$$
