LIB_PWPRVHILSMCPLW__M_PUB_ALL__e8__s20260927
     RDKit          3D

 74 80  0  0  0  0  0  0  0  0999 V2000
   11.9180  -14.2020   -0.2870 C   0  0  0  0  0  0  0  0  0  0  0  0
   12.2150  -12.8840   -0.7740 N   0  0  0  0  0  0  0  0  0  0  0  0
   12.5350  -11.9130    0.0980 N   0  0  0  0  0  0  0  0  0  0  0  0
   12.8430  -10.8650   -0.6490 N   0  0  0  0  0  0  0  0  0  0  0  0
   12.7280  -11.1620   -1.9820 N   0  0  0  0  0  0  0  0  0  0  0  0
   12.3110  -12.4130   -2.0590 C   0  0  0  0  0  0  0  0  0  0  0  0
   12.0620  -13.1590   -3.2920 C   0  0  0  0  0  0  0  0  0  0  0  0
   13.1880  -13.5790   -4.0250 C   0  0  0  0  0  0  0  0  0  0  0  0
   13.0480  -14.3020   -5.2080 C   0  0  0  0  0  0  0  0  0  0  0  0
   11.7790  -14.6070   -5.6830 C   0  0  0  0  0  0  0  0  0  0  0  0
   10.6520  -14.1820   -4.9790 C   0  0  0  0  0  0  0  0  0  0  0  0
   10.7630  -13.4480   -3.7790 C   0  0  0  0  0  0  0  0  0  0  0  0
    9.5250  -13.0030   -3.1050 C   0  0  0  0  0  0  0  0  0  0  0  0
    8.9400  -11.7630   -3.4020 C   0  0  0  0  0  0  0  0  0  0  0  0
    7.7870  -11.3340   -2.7400 C   0  0  0  0  0  0  0  0  0  0  0  0
    7.1780  -12.1420   -1.7720 C   0  0  0  0  0  0  0  0  0  0  0  0
    5.9570  -11.6490   -1.0260 C   0  0  0  0  0  0  0  0  0  0  0  0
    4.7460  -12.3060   -1.4930 N   0  0  0  0  0  0  0  0  0  0  0  0
    4.6050  -12.6040   -2.8270 C   0  0  0  0  0  0  0  0  0  0  0  0
    3.5940  -13.2090   -3.3500 N   0  0  0  0  0  0  0  0  0  0  0  0
    2.5590  -13.5990   -2.4900 C   0  0  0  0  0  0  0  0  0  0  0  0
    1.4640  -14.2810   -3.0170 C   0  0  0  0  0  0  0  0  0  0  0  0
    0.4090  -14.6870   -2.1890 C   0  0  0  0  0  0  0  0  0  0  0  0
    0.4180  -14.4050   -0.8150 C   0  0  0  0  0  0  0  0  0  0  0  0
   -0.6580  -14.8260    0.0270 N   0  0  0  0  0  0  0  0  0  0  0  0
   -1.1030  -16.2240   -0.0390 C   0  0  0  0  0  0  0  0  0  0  0  0
    0.0360  -17.1910    0.3030 C   0  0  0  0  0  0  0  0  0  0  0  0
    0.6200  -17.8430   -0.5670 O   0  0  0  0  0  0  0  0  0  0  0  0
    0.4380  -17.2330    1.6950 C   0  0  0  0  0  0  0  0  0  0  0  0
    1.5550  -16.7230    2.3310 C   0  0  0  0  0  0  0  0  0  0  0  0
    1.4290  -17.0490    3.7010 C   0  0  0  0  0  0  0  0  0  0  0  0
    0.2410  -17.7310    3.8240 C   0  0  0  0  0  0  0  0  0  0  0  0
   -0.3690  -17.8420    2.6160 O   0  0  0  0  0  0  0  0  0  0  0  0
   -1.3000  -14.0300    0.9890 C   0  0  0  0  0  0  0  0  0  0  0  0
   -1.3600  -14.3420    2.1790 O   0  0  0  0  0  0  0  0  0  0  0  0
   -2.0470  -12.8190    0.5690 C   0  0  0  0  0  0  0  0  0  0  0  0
   -3.3250  -12.9710    0.0180 C   0  0  0  0  0  0  0  0  0  0  0  0
   -4.0370  -11.8450   -0.3980 C   0  0  0  0  0  0  0  0  0  0  0  0
   -3.4680  -10.5760   -0.2840 C   0  0  0  0  0  0  0  0  0  0  0  0
   -2.1810  -10.4280    0.2370 C   0  0  0  0  0  0  0  0  0  0  0  0
   -1.4640  -11.5490    0.6560 C   0  0  0  0  0  0  0  0  0  0  0  0
    1.5270  -13.7340   -0.2870 C   0  0  0  0  0  0  0  0  0  0  0  0
    2.5810  -13.3370   -1.1220 C   0  0  0  0  0  0  0  0  0  0  0  0
    3.7590  -12.6360   -0.5750 C   0  0  0  0  0  0  0  0  0  0  0  0
    3.8190  -12.3790    0.6230 O   0  0  0  0  0  0  0  0  0  0  0  0
    7.7430  -13.3900   -1.4830 C   0  0  0  0  0  0  0  0  0  0  0  0
    8.8990  -13.8140   -2.1450 C   0  0  0  0  0  0  0  0  0  0  0  0
   11.9195  -14.1954    0.8130 H   0  0  0  0  0  0  0  0  0  0  0  0
   10.9273  -14.5126   -0.6505 H   0  0  0  0  0  0  0  0  0  0  0  0
   12.6797  -14.9075   -0.6505 H   0  0  0  0  0  0  0  0  0  0  0  0
   14.1952  -13.3324   -3.6578 H   0  0  0  0  0  0  0  0  0  0  0  0
   13.9390  -14.6299   -5.7635 H   0  0  0  0  0  0  0  0  0  0  0  0
   11.6627  -15.1829   -6.6130 H   0  0  0  0  0  0  0  0  0  0  0  0
    9.6525  -14.4250   -5.3689 H   0  0  0  0  0  0  0  0  0  0  0  0
    9.3962  -11.1186   -4.1679 H   0  0  0  0  0  0  0  0  0  0  0  0
    7.3535  -10.3523   -2.9814 H   0  0  0  0  0  0  0  0  0  0  0  0
    6.0854  -11.8565    0.0466 H   0  0  0  0  0  0  0  0  0  0  0  0
    5.8551  -10.5687   -1.2062 H   0  0  0  0  0  0  0  0  0  0  0  0
    5.4194  -12.3024   -3.5021 H   0  0  0  0  0  0  0  0  0  0  0  0
    1.4275  -14.5029   -4.0938 H   0  0  0  0  0  0  0  0  0  0  0  0
   -0.4397  -15.2356   -2.6234 H   0  0  0  0  0  0  0  0  0  0  0  0
   -1.9250  -16.3720    0.6768 H   0  0  0  0  0  0  0  0  0  0  0  0
   -1.4371  -16.4325   -1.0661 H   0  0  0  0  0  0  0  0  0  0  0  0
    2.3821  -16.1703    1.8616 H   0  0  0  0  0  0  0  0  0  0  0  0
    2.1381  -16.8061    4.5061 H   0  0  0  0  0  0  0  0  0  0  0  0
   -0.1586  -18.1302    4.7679 H   0  0  0  0  0  0  0  0  0  0  0  0
   -3.7660  -13.9733   -0.0866 H   0  0  0  0  0  0  0  0  0  0  0  0
   -5.0481  -11.9581   -0.8163 H   0  0  0  0  0  0  0  0  0  0  0  0
   -4.0349   -9.6898   -0.6054 H   0  0  0  0  0  0  0  0  0  0  0  0
   -1.7322   -9.4269    0.3171 H   0  0  0  0  0  0  0  0  0  0  0  0
   -0.4445  -11.4355    1.0532 H   0  0  0  0  0  0  0  0  0  0  0  0
    1.5720  -13.5166    0.7904 H   0  0  0  0  0  0  0  0  0  0  0  0
    7.2743  -14.0410   -0.7303 H   0  0  0  0  0  0  0  0  0  0  0  0
    9.3256  -14.8002   -1.9096 H   0  0  0  0  0  0  0  0  0  0  0  0
  1  2  1  0
  2  3  1  0
  3  4  2  0
  4  5  1  0
  5  6  2  0
  6  7  1  0
  7  8  2  0
  8  9  1  0
  9 10  2  0
 10 11  1  0
 11 12  2  0
 12 13  1  0
 13 14  2  0
 14 15  1  0
 15 16  2  0
 16 17  1  0
 17 18  1  0
 18 19  1  0
 19 20  2  0
 20 21  1  0
 21 22  2  0
 22 23  1  0
 23 24  2  0
 24 25  1  0
 25 26  1  0
 26 27  1  0
 27 28  2  0
 27 29  1  0
 29 30  2  0
 30 31  1  0
 31 32  2  0
 32 33  1  0
 25 34  1  0
 34 35  2  0
 34 36  1  0
 36 37  2  0
 37 38  1  0
 38 39  2  0
 39 40  1  0
 40 41  2  0
 24 42  1  0
 42 43  2  0
 43 44  1  0
 44 45  2  0
 16 46  1  0
 46 47  2  0
  6  2  1  0
 12  7  1  0
 47 13  1  0
 44 18  1  0
 43 21  1  0
 33 29  1  0
 41 36  1  0
  1 48  1  0
  1 49  1  0
  1 50  1  0
  8 51  1  0
  9 52  1  0
 10 53  1  0
 11 54  1  0
 14 55  1  0
 15 56  1  0
 17 57  1  0
 17 58  1  0
 19 59  1  0
 22 60  1  0
 23 61  1  0
 26 62  1  0
 26 63  1  0
 30 64  1  0
 31 65  1  0
 32 66  1  0
 37 67  1  0
 38 68  1  0
 39 69  1  0
 40 70  1  0
 41 71  1  0
 42 72  1  0
 46 73  1  0
 47 74  1  0
M  END
>  <meeko>  (1) 
{"is_sidechain": [false], "free_energy": -9.553, "intermolecular_energy": -15.137, "internal_energy": -2.64}

$$$$
LIB_PWPRVHILSMCPLW__M_PUB_ALL__e8__s20260927
     RDKit          3D

 74 80  0  0  0  0  0  0  0  0999 V2000
   11.8530  -14.1050   -0.1970 C   0  0  0  0  0  0  0  0  0  0  0  0
   12.1830  -12.8160   -0.7390 N   0  0  0  0  0  0  0  0  0  0  0  0
   12.4330  -11.7920    0.0950 N   0  0  0  0  0  0  0  0  0  0  0  0
   12.7940  -10.7880   -0.6870 N   0  0  0  0  0  0  0  0  0  0  0  0
   12.7800  -11.1650   -2.0060 N   0  0  0  0  0  0  0  0  0  0  0  0
   12.3740  -12.4220   -2.0390 C   0  0  0  0  0  0  0  0  0  0  0  0
   12.2210  -13.2420   -3.2400 C   0  0  0  0  0  0  0  0  0  0  0  0
   13.3990  -13.7300   -3.8360 C   0  0  0  0  0  0  0  0  0  0  0  0
   13.3510  -14.5260   -4.9790 C   0  0  0  0  0  0  0  0  0  0  0  0
   12.1250  -14.8370   -5.5510 C   0  0  0  0  0  0  0  0  0  0  0  0
   10.9480  -14.3450   -4.9830 C   0  0  0  0  0  0  0  0  0  0  0  0
   10.9660  -13.5370   -3.8270 C   0  0  0  0  0  0  0  0  0  0  0  0
    9.6830  -13.0260   -3.3020 C   0  0  0  0  0  0  0  0  0  0  0  0
    9.2310  -11.7350   -3.6140 C   0  0  0  0  0  0  0  0  0  0  0  0
    8.0320  -11.2460   -3.0900 C   0  0  0  0  0  0  0  0  0  0  0  0
    7.2430  -12.0410   -2.2490 C   0  0  0  0  0  0  0  0  0  0  0  0
    5.9700  -11.4860   -1.6480 C   0  0  0  0  0  0  0  0  0  0  0  0
    4.7930  -12.1450   -2.1920 N   0  0  0  0  0  0  0  0  0  0  0  0
    4.6000  -12.1810   -3.5520 C   0  0  0  0  0  0  0  0  0  0  0  0
    3.6140  -12.7590   -4.1480 N   0  0  0  0  0  0  0  0  0  0  0  0
    2.6660  -13.4080   -3.3450 C   0  0  0  0  0  0  0  0  0  0  0  0
    1.6020  -14.0680   -3.9570 C   0  0  0  0  0  0  0  0  0  0  0  0
    0.6340  -14.7280   -3.1890 C   0  0  0  0  0  0  0  0  0  0  0  0
    0.6990  -14.7280   -1.7870 C   0  0  0  0  0  0  0  0  0  0  0  0
   -0.2880  -15.4070   -1.0080 N   0  0  0  0  0  0  0  0  0  0  0  0
   -0.1680  -16.8600   -0.8230 C   0  0  0  0  0  0  0  0  0  0  0  0
    1.1990  -17.2400   -0.2420 C   0  0  0  0  0  0  0  0  0  0  0  0
    2.1350  -17.5990   -0.9610 O   0  0  0  0  0  0  0  0  0  0  0  0
    1.3480  -17.0750    1.1900 C   0  0  0  0  0  0  0  0  0  0  0  0
    2.0170  -16.1150    1.9270 C   0  0  0  0  0  0  0  0  0  0  0  0
    1.8230  -16.4380    3.2900 C   0  0  0  0  0  0  0  0  0  0  0  0
    1.0440  -17.5710    3.3070 C   0  0  0  0  0  0  0  0  0  0  0  0
    0.7460  -17.9610    2.0410 O   0  0  0  0  0  0  0  0  0  0  0  0
   -1.3490  -14.7950   -0.3220 C   0  0  0  0  0  0  0  0  0  0  0  0
   -2.4230  -14.5260   -0.8610 O   0  0  0  0  0  0  0  0  0  0  0  0
   -1.1580  -14.3340    1.0750 C   0  0  0  0  0  0  0  0  0  0  0  0
   -0.4490  -13.1500    1.3060 C   0  0  0  0  0  0  0  0  0  0  0  0
   -0.2450  -12.7080    2.6130 C   0  0  0  0  0  0  0  0  0  0  0  0
   -0.7300  -13.4560    3.6870 C   0  0  0  0  0  0  0  0  0  0  0  0
   -1.4110  -14.6530    3.4590 C   0  0  0  0  0  0  0  0  0  0  0  0
   -1.6190  -15.1000    2.1540 C   0  0  0  0  0  0  0  0  0  0  0  0
    1.7770  -14.0780   -1.1770 C   0  0  0  0  0  0  0  0  0  0  0  0
    2.7450  -13.4250   -1.9550 C   0  0  0  0  0  0  0  0  0  0  0  0
    3.8910  -12.7430   -1.3230 C   0  0  0  0  0  0  0  0  0  0  0  0
    3.9990  -12.7280   -0.1010 O   0  0  0  0  0  0  0  0  0  0  0  0
    7.6760  -13.3380   -1.9480 C   0  0  0  0  0  0  0  0  0  0  0  0
    8.8780  -13.8230   -2.4720 C   0  0  0  0  0  0  0  0  0  0  0  0
   11.8658  -14.0549    0.9018 H   0  0  0  0  0  0  0  0  0  0  0  0
   10.8502  -14.4007   -0.5389 H   0  0  0  0  0  0  0  0  0  0  0  0
   12.5903  -14.8462   -0.5389 H   0  0  0  0  0  0  0  0  0  0  0  0
   14.3737  -13.4790   -3.3923 H   0  0  0  0  0  0  0  0  0  0  0  0
   14.2812  -14.9064   -5.4262 H   0  0  0  0  0  0  0  0  0  0  0  0
   12.0807  -15.4697   -6.4498 H   0  0  0  0  0  0  0  0  0  0  0  0
    9.9829  -14.5937   -5.4486 H   0  0  0  0  0  0  0  0  0  0  0  0
    9.8300  -11.0981   -4.2815 H   0  0  0  0  0  0  0  0  0  0  0  0
    7.7042  -10.2263   -3.3404 H   0  0  0  0  0  0  0  0  0  0  0  0
    5.9932  -11.6375   -0.5587 H   0  0  0  0  0  0  0  0  0  0  0  0
    5.9106  -10.4153   -1.8930 H   0  0  0  0  0  0  0  0  0  0  0  0
    5.3467  -11.6762   -4.1826 H   0  0  0  0  0  0  0  0  0  0  0  0
    1.5215  -14.0707   -5.0540 H   0  0  0  0  0  0  0  0  0  0  0  0
   -0.1900  -15.2545   -3.6927 H   0  0  0  0  0  0  0  0  0  0  0  0
   -0.9561  -17.1992   -0.1346 H   0  0  0  0  0  0  0  0  0  0  0  0
   -0.2726  -17.3434   -1.8055 H   0  0  0  0  0  0  0  0  0  0  0  0
    2.5897  -15.2641    1.5296 H   0  0  0  0  0  0  0  0  0  0  0  0
    2.2160  -15.8929    4.1609 H   0  0  0  0  0  0  0  0  0  0  0  0
    0.7093  -18.0886    4.2181 H   0  0  0  0  0  0  0  0  0  0  0  0
   -0.0537  -12.5696    0.4593 H   0  0  0  0  0  0  0  0  0  0  0  0
    0.2983  -11.7695    2.7975 H   0  0  0  0  0  0  0  0  0  0  0  0
   -0.5751  -13.1010    4.7166 H   0  0  0  0  0  0  0  0  0  0  0  0
   -1.7837  -15.2440    4.3086 H   0  0  0  0  0  0  0  0  0  0  0  0
   -2.1429  -16.0501    1.9727 H   0  0  0  0  0  0  0  0  0  0  0  0
    1.8664  -14.0788   -0.0806 H   0  0  0  0  0  0  0  0  0  0  0  0
    7.0664  -13.9797   -1.2949 H   0  0  0  0  0  0  0  0  0  0  0  0
    9.1988  -14.8469   -2.2299 H   0  0  0  0  0  0  0  0  0  0  0  0
  1  2  1  0
  2  3  1  0
  3  4  2  0
  4  5  1  0
  5  6  2  0
  6  7  1  0
  7  8  2  0
  8  9  1  0
  9 10  2  0
 10 11  1  0
 11 12  2  0
 12 13  1  0
 13 14  2  0
 14 15  1  0
 15 16  2  0
 16 17  1  0
 17 18  1  0
 18 19  1  0
 19 20  2  0
 20 21  1  0
 21 22  2  0
 22 23  1  0
 23 24  2  0
 24 25  1  0
 25 26  1  0
 26 27  1  0
 27 28  2  0
 27 29  1  0
 29 30  2  0
 30 31  1  0
 31 32  2  0
 32 33  1  0
 25 34  1  0
 34 35  2  0
 34 36  1  0
 36 37  2  0
 37 38  1  0
 38 39  2  0
 39 40  1  0
 40 41  2  0
 24 42  1  0
 42 43  2  0
 43 44  1  0
 44 45  2  0
 16 46  1  0
 46 47  2  0
  6  2  1  0
 12  7  1  0
 47 13  1  0
 44 18  1  0
 43 21  1  0
 33 29  1  0
 41 36  1  0
  1 48  1  0
  1 49  1  0
  1 50  1  0
  8 51  1  0
  9 52  1  0
 10 53  1  0
 11 54  1  0
 14 55  1  0
 15 56  1  0
 17 57  1  0
 17 58  1  0
 19 59  1  0
 22 60  1  0
 23 61  1  0
 26 62  1  0
 26 63  1  0
 30 64  1  0
 31 65  1  0
 32 66  1  0
 37 67  1  0
 38 68  1  0
 39 69  1  0
 40 70  1  0
 41 71  1  0
 42 72  1  0
 46 73  1  0
 47 74  1  0
M  END
>  <meeko>  (2) 
{"is_sidechain": [false], "free_energy": -9.379, "intermolecular_energy": -14.19, "internal_energy": -3.312}

$$$$
LIB_PWPRVHILSMCPLW__M_PUB_ALL__e8__s20260927
     RDKit          3D

 74 80  0  0  0  0  0  0  0  0999 V2000
   12.2930  -12.3280   -2.8370 C   0  0  0  0  0  0  0  0  0  0  0  0
   12.0960  -12.3370   -1.4150 N   0  0  0  0  0  0  0  0  0  0  0  0
   12.2820  -11.2050   -0.7140 N   0  0  0  0  0  0  0  0  0  0  0  0
   11.9360  -11.5050    0.5270 N   0  0  0  0  0  0  0  0  0  0  0  0
   11.5280  -12.8110    0.6200 N   0  0  0  0  0  0  0  0  0  0  0  0
   11.6520  -13.3360   -0.5850 C   0  0  0  0  0  0  0  0  0  0  0  0
   11.3180  -14.7100   -0.9610 C   0  0  0  0  0  0  0  0  0  0  0  0
   12.3670  -15.6480   -0.9540 C   0  0  0  0  0  0  0  0  0  0  0  0
   12.1410  -16.9820   -1.2890 C   0  0  0  0  0  0  0  0  0  0  0  0
   10.8660  -17.3950   -1.6480 C   0  0  0  0  0  0  0  0  0  0  0  0
    9.8180  -16.4740   -1.6790 C   0  0  0  0  0  0  0  0  0  0  0  0
   10.0160  -15.1170   -1.3450 C   0  0  0  0  0  0  0  0  0  0  0  0
    8.8680  -14.1930   -1.4320 C   0  0  0  0  0  0  0  0  0  0  0  0
    7.9700  -14.0440   -0.3640 C   0  0  0  0  0  0  0  0  0  0  0  0
    6.8670  -13.1910   -0.4640 C   0  0  0  0  0  0  0  0  0  0  0  0
    6.6410  -12.4510   -1.6310 C   0  0  0  0  0  0  0  0  0  0  0  0
    5.4190  -11.5660   -1.7470 C   0  0  0  0  0  0  0  0  0  0  0  0
    4.2340  -12.3370   -2.0900 N   0  0  0  0  0  0  0  0  0  0  0  0
    4.0770  -12.8080   -3.3700 C   0  0  0  0  0  0  0  0  0  0  0  0
    3.0860  -13.5240   -3.7820 N   0  0  0  0  0  0  0  0  0  0  0  0
    2.0950  -13.8530   -2.8470 C   0  0  0  0  0  0  0  0  0  0  0  0
    1.0260  -14.6490   -3.2510 C   0  0  0  0  0  0  0  0  0  0  0  0
    0.0140  -14.9990   -2.3460 C   0  0  0  0  0  0  0  0  0  0  0  0
    0.0410  -14.5440   -1.0190 C   0  0  0  0  0  0  0  0  0  0  0  0
   -0.9890  -14.9080   -0.0980 N   0  0  0  0  0  0  0  0  0  0  0  0
   -1.4950  -16.2870   -0.1100 C   0  0  0  0  0  0  0  0  0  0  0  0
   -0.6350  -17.2060    0.7640 C   0  0  0  0  0  0  0  0  0  0  0  0
   -1.1270  -17.9020    1.6570 O   0  0  0  0  0  0  0  0  0  0  0  0
    0.7730  -17.2700    0.4280 C   0  0  0  0  0  0  0  0  0  0  0  0
    1.8930  -16.8900    1.1440 C   0  0  0  0  0  0  0  0  0  0  0  0
    3.0140  -17.1880    0.3350 C   0  0  0  0  0  0  0  0  0  0  0  0
    2.5150  -17.7370   -0.8230 C   0  0  0  0  0  0  0  0  0  0  0  0
    1.1600  -17.7970   -0.7730 O   0  0  0  0  0  0  0  0  0  0  0  0
   -1.5290  -14.0730    0.8930 C   0  0  0  0  0  0  0  0  0  0  0  0
   -1.5280  -14.3700    2.0870 O   0  0  0  0  0  0  0  0  0  0  0  0
   -2.2420  -12.8310    0.5060 C   0  0  0  0  0  0  0  0  0  0  0  0
   -3.5020  -12.9340   -0.0960 C   0  0  0  0  0  0  0  0  0  0  0  0
   -4.1820  -11.7780   -0.4820 C   0  0  0  0  0  0  0  0  0  0  0  0
   -3.5970  -10.5260   -0.2870 C   0  0  0  0  0  0  0  0  0  0  0  0
   -2.3280  -10.4240    0.2850 C   0  0  0  0  0  0  0  0  0  0  0  0
   -1.6430  -11.5760    0.6740 C   0  0  0  0  0  0  0  0  0  0  0  0
    1.1260  -13.7580   -0.6140 C   0  0  0  0  0  0  0  0  0  0  0  0
    2.1360  -13.4180   -1.5250 C   0  0  0  0  0  0  0  0  0  0  0  0
    3.2880  -12.5960   -1.1080 C   0  0  0  0  0  0  0  0  0  0  0  0
    3.3650  -12.1860    0.0470 O   0  0  0  0  0  0  0  0  0  0  0  0
    7.5430  -12.5770   -2.6940 C   0  0  0  0  0  0  0  0  0  0  0  0
    8.6430  -13.4340   -2.5920 C   0  0  0  0  0  0  0  0  0  0  0  0
   13.3695  -12.2788   -3.0577 H   0  0  0  0  0  0  0  0  0  0  0  0
   11.8712  -13.2464   -3.2714 H   0  0  0  0  0  0  0  0  0  0  0  0
   11.7892  -11.4519   -3.2714 H   0  0  0  0  0  0  0  0  0  0  0  0
   13.3816  -15.3233   -0.6798 H   0  0  0  0  0  0  0  0  0  0  0  0
   12.9702  -17.7045   -1.2688 H   0  0  0  0  0  0  0  0  0  0  0  0
   10.6813  -18.4478   -1.9080 H   0  0  0  0  0  0  0  0  0  0  0  0
    8.8133  -16.8138   -1.9708 H   0  0  0  0  0  0  0  0  0  0  0  0
    8.1366  -14.6071    0.5662 H   0  0  0  0  0  0  0  0  0  0  0  0
    6.1700  -13.1003    0.3821 H   0  0  0  0  0  0  0  0  0  0  0  0
    5.2507  -11.0608   -0.7845 H   0  0  0  0  0  0  0  0  0  0  0  0
    5.5980  -10.8330   -2.5475 H   0  0  0  0  0  0  0  0  0  0  0  0
    4.8579  -12.5549   -4.1022 H   0  0  0  0  0  0  0  0  0  0  0  0
    0.9752  -15.0065   -4.2900 H   0  0  0  0  0  0  0  0  0  0  0  0
   -0.8142  -15.6404   -2.6816 H   0  0  0  0  0  0  0  0  0  0  0  0
   -2.5267  -16.2929    0.2715 H   0  0  0  0  0  0  0  0  0  0  0  0
   -1.4590  -16.6599   -1.1443 H   0  0  0  0  0  0  0  0  0  0  0  0
    1.9091  -16.4424    2.1487 H   0  0  0  0  0  0  0  0  0  0  0  0
    4.0719  -17.0155    0.5821 H   0  0  0  0  0  0  0  0  0  0  0  0
    3.1276  -18.0792   -1.6701 H   0  0  0  0  0  0  0  0  0  0  0  0
   -3.9543  -13.9225   -0.2641 H   0  0  0  0  0  0  0  0  0  0  0  0
   -5.1792  -11.8537   -0.9400 H   0  0  0  0  0  0  0  0  0  0  0  0
   -4.1382   -9.6160   -0.5853 H   0  0  0  0  0  0  0  0  0  0  0  0
   -1.8677   -9.4354    0.4292 H   0  0  0  0  0  0  0  0  0  0  0  0
   -0.6364  -11.4987    1.1109 H   0  0  0  0  0  0  0  0  0  0  0  0
    1.1867  -13.4047    0.4259 H   0  0  0  0  0  0  0  0  0  0  0  0
    7.3853  -11.9979   -3.6158 H   0  0  0  0  0  0  0  0  0  0  0  0
    9.3446  -13.5152   -3.4353 H   0  0  0  0  0  0  0  0  0  0  0  0
  1  2  1  0
  2  3  1  0
  3  4  2  0
  4  5  1  0
  5  6  2  0
  6  7  1  0
  7  8  2  0
  8  9  1  0
  9 10  2  0
 10 11  1  0
 11 12  2  0
 12 13  1  0
 13 14  2  0
 14 15  1  0
 15 16  2  0
 16 17  1  0
 17 18  1  0
 18 19  1  0
 19 20  2  0
 20 21  1  0
 21 22  2  0
 22 23  1  0
 23 24  2  0
 24 25  1  0
 25 26  1  0
 26 27  1  0
 27 28  2  0
 27 29  1  0
 29 30  2  0
 30 31  1  0
 31 32  2  0
 32 33  1  0
 25 34  1  0
 34 35  2  0
 34 36  1  0
 36 37  2  0
 37 38  1  0
 38 39  2  0
 39 40  1  0
 40 41  2  0
 24 42  1  0
 42 43  2  0
 43 44  1  0
 44 45  2  0
 16 46  1  0
 46 47  2  0
  6  2  1  0
 12  7  1  0
 47 13  1  0
 44 18  1  0
 43 21  1  0
 33 29  1  0
 41 36  1  0
  1 48  1  0
  1 49  1  0
  1 50  1  0
  8 51  1  0
  9 52  1  0
 10 53  1  0
 11 54  1  0
 14 55  1  0
 15 56  1  0
 17 57  1  0
 17 58  1  0
 19 59  1  0
 22 60  1  0
 23 61  1  0
 26 62  1  0
 26 63  1  0
 30 64  1  0
 31 65  1  0
 32 66  1  0
 37 67  1  0
 38 68  1  0
 39 69  1  0
 40 70  1  0
 41 71  1  0
 42 72  1  0
 46 73  1  0
 47 74  1  0
M  END
>  <meeko>  (3) 
{"is_sidechain": [false], "free_energy": -9.297, "intermolecular_energy": -14.468, "internal_energy": -2.904}

$$$$
LIB_PWPRVHILSMCPLW__M_PUB_ALL__e8__s20260927
     RDKit          3D

 74 80  0  0  0  0  0  0  0  0999 V2000
    0.5620  -10.0610   -1.0140 C   0  0  0  0  0  0  0  0  0  0  0  0
    0.0800   -9.7770    0.3080 N   0  0  0  0  0  0  0  0  0  0  0  0
    0.7350   -8.8870    1.0740 N   0  0  0  0  0  0  0  0  0  0  0  0
    0.0070   -8.7740    2.1730 N   0  0  0  0  0  0  0  0  0  0  0  0
   -1.1030   -9.5760    2.1110 N   0  0  0  0  0  0  0  0  0  0  0  0
   -1.0430  -10.2200    0.9590 C   0  0  0  0  0  0  0  0  0  0  0  0
   -2.0300  -11.1790    0.4610 C   0  0  0  0  0  0  0  0  0  0  0  0
   -3.2560  -10.6580    0.0090 C   0  0  0  0  0  0  0  0  0  0  0  0
   -4.2530  -11.4940   -0.4910 C   0  0  0  0  0  0  0  0  0  0  0  0
   -4.0430  -12.8650   -0.5360 C   0  0  0  0  0  0  0  0  0  0  0  0
   -2.8390  -13.4000   -0.0740 C   0  0  0  0  0  0  0  0  0  0  0  0
   -1.8130  -12.5790    0.4380 C   0  0  0  0  0  0  0  0  0  0  0  0
   -0.5790  -13.2180    0.9390 C   0  0  0  0  0  0  0  0  0  0  0  0
   -0.4150  -13.5170    2.3000 C   0  0  0  0  0  0  0  0  0  0  0  0
    0.7670  -14.0940    2.7730 C   0  0  0  0  0  0  0  0  0  0  0  0
    1.8120  -14.4020    1.8930 C   0  0  0  0  0  0  0  0  0  0  0  0
    3.1060  -14.9830    2.4220 C   0  0  0  0  0  0  0  0  0  0  0  0
    4.2530  -14.1870    2.0140 N   0  0  0  0  0  0  0  0  0  0  0  0
    4.5470  -13.0250    2.6850 C   0  0  0  0  0  0  0  0  0  0  0  0
    5.5510  -12.2550    2.4330 N   0  0  0  0  0  0  0  0  0  0  0  0
    6.4140  -12.6380    1.3970 C   0  0  0  0  0  0  0  0  0  0  0  0
    7.5240  -11.8450    1.1170 C   0  0  0  0  0  0  0  0  0  0  0  0
    8.4100  -12.1940    0.0890 C   0  0  0  0  0  0  0  0  0  0  0  0
    8.1940  -13.3370   -0.6950 C   0  0  0  0  0  0  0  0  0  0  0  0
    9.1030  -13.6920   -1.7390 N   0  0  0  0  0  0  0  0  0  0  0  0
    8.6870  -13.5020   -3.1350 C   0  0  0  0  0  0  0  0  0  0  0  0
    8.1620  -12.0820   -3.3750 C   0  0  0  0  0  0  0  0  0  0  0  0
    8.9230  -11.1200   -3.5090 O   0  0  0  0  0  0  0  0  0  0  0  0
    6.7250  -11.9500   -3.5140 C   0  0  0  0  0  0  0  0  0  0  0  0
    5.7680  -11.4880   -2.6300 C   0  0  0  0  0  0  0  0  0  0  0  0
    4.5230  -11.5730   -3.2960 C   0  0  0  0  0  0  0  0  0  0  0  0
    4.7920  -12.0750   -4.5470 C   0  0  0  0  0  0  0  0  0  0  0  0
    6.1240  -12.3010   -4.6910 O   0  0  0  0  0  0  0  0  0  0  0  0
   10.4170  -14.1500   -1.5560 C   0  0  0  0  0  0  0  0  0  0  0  0
   10.6810  -15.2040   -0.9780 O   0  0  0  0  0  0  0  0  0  0  0  0
   11.5610  -13.2950   -1.9590 C   0  0  0  0  0  0  0  0  0  0  0  0
   11.9360  -12.2320   -1.1300 C   0  0  0  0  0  0  0  0  0  0  0  0
   12.9990  -11.4070   -1.4990 C   0  0  0  0  0  0  0  0  0  0  0  0
   13.6710  -11.6300   -2.7010 C   0  0  0  0  0  0  0  0  0  0  0  0
   13.2780  -12.6710   -3.5440 C   0  0  0  0  0  0  0  0  0  0  0  0
   12.2170  -13.5010   -3.1800 C   0  0  0  0  0  0  0  0  0  0  0  0
    7.0860  -14.1400   -0.4000 C   0  0  0  0  0  0  0  0  0  0  0  0
    6.2080  -13.7850    0.6350 C   0  0  0  0  0  0  0  0  0  0  0  0
    5.0410  -14.6280    0.9600 C   0  0  0  0  0  0  0  0  0  0  0  0
    4.8180  -15.6450    0.3120 O   0  0  0  0  0  0  0  0  0  0  0  0
    1.6500  -14.1270    0.5310 C   0  0  0  0  0  0  0  0  0  0  0  0
    0.4670  -13.5460    0.0620 C   0  0  0  0  0  0  0  0  0  0  0  0
    1.5080  -10.6184   -0.9475 H   0  0  0  0  0  0  0  0  0  0  0  0
   -0.1823  -10.6649   -1.5538 H   0  0  0  0  0  0  0  0  0  0  0  0
    0.7296   -9.1173   -1.5538 H   0  0  0  0  0  0  0  0  0  0  0  0
   -3.4308   -9.5728    0.0508 H   0  0  0  0  0  0  0  0  0  0  0  0
   -5.2024  -11.0687   -0.8485 H   0  0  0  0  0  0  0  0  0  0  0  0
   -4.8238  -13.5291   -0.9350 H   0  0  0  0  0  0  0  0  0  0  0  0
   -2.6869  -14.4888   -0.1103 H   0  0  0  0  0  0  0  0  0  0  0  0
   -1.2290  -13.2940    3.0055 H   0  0  0  0  0  0  0  0  0  0  0  0
    0.8774  -14.3081    3.8463 H   0  0  0  0  0  0  0  0  0  0  0  0
    3.0627  -15.0108    3.5208 H   0  0  0  0  0  0  0  0  0  0  0  0
    3.2241  -15.9958    2.0094 H   0  0  0  0  0  0  0  0  0  0  0  0
    3.8730  -12.7275    3.5019 H   0  0  0  0  0  0  0  0  0  0  0  0
    7.7070  -10.9358    1.7085 H   0  0  0  0  0  0  0  0  0  0  0  0
    9.2887  -11.5617   -0.1063 H   0  0  0  0  0  0  0  0  0  0  0  0
    9.5504  -13.6801   -3.7929 H   0  0  0  0  0  0  0  0  0  0  0  0
    7.8758  -14.2121   -3.3537 H   0  0  0  0  0  0  0  0  0  0  0  0
    5.9412  -11.1245   -1.6064 H   0  0  0  0  0  0  0  0  0  0  0  0
    3.5380  -11.2937   -2.8938 H   0  0  0  0  0  0  0  0  0  0  0  0
    4.0355  -12.2667   -5.3222 H   0  0  0  0  0  0  0  0  0  0  0  0
   11.3945  -12.0473   -0.1905 H   0  0  0  0  0  0  0  0  0  0  0  0
   13.3073  -10.5805   -0.8419 H   0  0  0  0  0  0  0  0  0  0  0  0
   14.5139  -10.9830   -2.9856 H   0  0  0  0  0  0  0  0  0  0  0  0
   13.8048  -12.8370   -4.4953 H   0  0  0  0  0  0  0  0  0  0  0  0
   11.8969  -14.3136   -3.8487 H   0  0  0  0  0  0  0  0  0  0  0  0
    6.9027  -15.0546   -0.9830 H   0  0  0  0  0  0  0  0  0  0  0  0
    2.4577  -14.3691   -0.1754 H   0  0  0  0  0  0  0  0  0  0  0  0
    0.3544  -13.3425   -1.0131 H   0  0  0  0  0  0  0  0  0  0  0  0
  1  2  1  0
  2  3  1  0
  3  4  2  0
  4  5  1  0
  5  6  2  0
  6  7  1  0
  7  8  2  0
  8  9  1  0
  9 10  2  0
 10 11  1  0
 11 12  2  0
 12 13  1  0
 13 14  2  0
 14 15  1  0
 15 16  2  0
 16 17  1  0
 17 18  1  0
 18 19  1  0
 19 20  2  0
 20 21  1  0
 21 22  2  0
 22 23  1  0
 23 24  2  0
 24 25  1  0
 25 26  1  0
 26 27  1  0
 27 28  2  0
 27 29  1  0
 29 30  2  0
 30 31  1  0
 31 32  2  0
 32 33  1  0
 25 34  1  0
 34 35  2  0
 34 36  1  0
 36 37  2  0
 37 38  1  0
 38 39  2  0
 39 40  1  0
 40 41  2  0
 24 42  1  0
 42 43  2  0
 43 44  1  0
 44 45  2  0
 16 46  1  0
 46 47  2  0
  6  2  1  0
 12  7  1  0
 47 13  1  0
 44 18  1  0
 43 21  1  0
 33 29  1  0
 41 36  1  0
  1 48  1  0
  1 49  1  0
  1 50  1  0
  8 51  1  0
  9 52  1  0
 10 53  1  0
 11 54  1  0
 14 55  1  0
 15 56  1  0
 17 57  1  0
 17 58  1  0
 19 59  1  0
 22 60  1  0
 23 61  1  0
 26 62  1  0
 26 63  1  0
 30 64  1  0
 31 65  1  0
 32 66  1  0
 37 67  1  0
 38 68  1  0
 39 69  1  0
 40 70  1  0
 41 71  1  0
 42 72  1  0
 46 73  1  0
 47 74  1  0
M  END
>  <meeko>  (4) 
{"is_sidechain": [false], "free_energy": -9.285, "intermolecular_energy": -14.348, "internal_energy": -3.004}

$$$$
LIB_PWPRVHILSMCPLW__M_PUB_ALL__e8__s20260927
     RDKit          3D

 74 80  0  0  0  0  0  0  0  0999 V2000
   12.2500  -12.4680   -3.1490 C   0  0  0  0  0  0  0  0  0  0  0  0
   12.1720  -12.3740   -1.7180 N   0  0  0  0  0  0  0  0  0  0  0  0
   12.4420  -11.2030   -1.1160 N   0  0  0  0  0  0  0  0  0  0  0  0
   12.1940  -11.4080    0.1670 N   0  0  0  0  0  0  0  0  0  0  0  0
   11.7660  -12.6920    0.3850 N   0  0  0  0  0  0  0  0  0  0  0  0
   11.7780  -13.3010   -0.7870 C   0  0  0  0  0  0  0  0  0  0  0  0
   11.3830  -14.6880   -1.0360 C   0  0  0  0  0  0  0  0  0  0  0  0
   12.3960  -15.6630   -0.9740 C   0  0  0  0  0  0  0  0  0  0  0  0
   12.1130  -17.0100   -1.1890 C   0  0  0  0  0  0  0  0  0  0  0  0
   10.8130  -17.4020   -1.4820 C   0  0  0  0  0  0  0  0  0  0  0  0
    9.8000  -16.4460   -1.5670 C   0  0  0  0  0  0  0  0  0  0  0  0
   10.0570  -15.0750   -1.3540 C   0  0  0  0  0  0  0  0  0  0  0  0
    8.9420  -14.1170   -1.4920 C   0  0  0  0  0  0  0  0  0  0  0  0
    8.1450  -13.7620   -0.3920 C   0  0  0  0  0  0  0  0  0  0  0  0
    7.0720  -12.8790   -0.5360 C   0  0  0  0  0  0  0  0  0  0  0  0
    6.7750  -12.3140   -1.7820 C   0  0  0  0  0  0  0  0  0  0  0  0
    5.5820  -11.3950   -1.9370 C   0  0  0  0  0  0  0  0  0  0  0  0
    4.3390  -12.1470   -2.0250 N   0  0  0  0  0  0  0  0  0  0  0  0
    3.9530  -12.6810   -3.2300 C   0  0  0  0  0  0  0  0  0  0  0  0
    2.8910  -13.3880   -3.4220 N   0  0  0  0  0  0  0  0  0  0  0  0
    2.0700  -13.6350   -2.3130 C   0  0  0  0  0  0  0  0  0  0  0  0
    0.9300  -14.4180   -2.4790 C   0  0  0  0  0  0  0  0  0  0  0  0
    0.0840  -14.6870   -1.3960 C   0  0  0  0  0  0  0  0  0  0  0  0
    0.3500  -14.1630   -0.1220 C   0  0  0  0  0  0  0  0  0  0  0  0
   -0.5120  -14.4440    0.9820 N   0  0  0  0  0  0  0  0  0  0  0  0
   -0.5200  -15.8000    1.5470 C   0  0  0  0  0  0  0  0  0  0  0  0
   -1.8580  -16.5040    1.2940 C   0  0  0  0  0  0  0  0  0  0  0  0
   -2.3120  -16.6500    0.1560 O   0  0  0  0  0  0  0  0  0  0  0  0
   -2.5160  -17.0560    2.4620 C   0  0  0  0  0  0  0  0  0  0  0  0
   -3.3860  -16.4800    3.3690 C   0  0  0  0  0  0  0  0  0  0  0  0
   -3.7240  -17.4860    4.3040 C   0  0  0  0  0  0  0  0  0  0  0  0
   -3.0480  -18.6170    3.9110 C   0  0  0  0  0  0  0  0  0  0  0  0
   -2.3190  -18.3690    2.7930 O   0  0  0  0  0  0  0  0  0  0  0  0
   -1.3200  -13.5070    1.6450 C   0  0  0  0  0  0  0  0  0  0  0  0
   -1.4410  -13.4800    2.8700 O   0  0  0  0  0  0  0  0  0  0  0  0
   -2.1680  -12.5750    0.8610 C   0  0  0  0  0  0  0  0  0  0  0  0
   -1.8350  -11.2160    0.8360 C   0  0  0  0  0  0  0  0  0  0  0  0
   -2.6290  -10.3210    0.1180 C   0  0  0  0  0  0  0  0  0  0  0  0
   -3.7630  -10.7790   -0.5550 C   0  0  0  0  0  0  0  0  0  0  0  0
   -4.1130  -12.1290   -0.5050 C   0  0  0  0  0  0  0  0  0  0  0  0
   -3.3220  -13.0290    0.2100 C   0  0  0  0  0  0  0  0  0  0  0  0
    1.5050  -13.3890    0.0440 C   0  0  0  0  0  0  0  0  0  0  0  0
    2.3490  -13.1300   -1.0460 C   0  0  0  0  0  0  0  0  0  0  0  0
    3.5730  -12.3230   -0.8810 C   0  0  0  0  0  0  0  0  0  0  0  0
    3.8570  -11.8540    0.2160 O   0  0  0  0  0  0  0  0  0  0  0  0
    7.5760  -12.6450   -2.8800 C   0  0  0  0  0  0  0  0  0  0  0  0
    8.6470  -13.5330   -2.7340 C   0  0  0  0  0  0  0  0  0  0  0  0
   12.9298  -13.2872   -3.4261 H   0  0  0  0  0  0  0  0  0  0  0  0
   11.2488  -12.6679   -3.5584 H   0  0  0  0  0  0  0  0  0  0  0  0
   12.6312  -11.5209   -3.5584 H   0  0  0  0  0  0  0  0  0  0  0  0
   13.4288  -15.3563   -0.7520 H   0  0  0  0  0  0  0  0  0  0  0  0
   12.9154  -17.7598   -1.1270 H   0  0  0  0  0  0  0  0  0  0  0  0
   10.5823  -18.4648   -1.6468 H   0  0  0  0  0  0  0  0  0  0  0  0
    8.7760  -16.7691   -1.8059 H   0  0  0  0  0  0  0  0  0  0  0  0
    8.3688  -14.1855    0.5982 H   0  0  0  0  0  0  0  0  0  0  0  0
    6.4545  -12.6252    0.3382 H   0  0  0  0  0  0  0  0  0  0  0  0
    5.5327  -10.7230   -1.0675 H   0  0  0  0  0  0  0  0  0  0  0  0
    5.7058  -10.8217   -2.8676 H   0  0  0  0  0  0  0  0  0  0  0  0
    4.5998  -12.4911   -4.0993 H   0  0  0  0  0  0  0  0  0  0  0  0
    0.6918  -14.8293   -3.4710 H   0  0  0  0  0  0  0  0  0  0  0  0
   -0.8034  -15.3193   -1.5466 H   0  0  0  0  0  0  0  0  0  0  0  0
    0.2863  -16.3862    1.0819 H   0  0  0  0  0  0  0  0  0  0  0  0
   -0.3698  -15.7228    2.6340 H   0  0  0  0  0  0  0  0  0  0  0  0
   -3.7457  -15.4405    3.3644 H   0  0  0  0  0  0  0  0  0  0  0  0
   -4.3931  -17.3841    5.1711 H   0  0  0  0  0  0  0  0  0  0  0  0
   -3.0917  -19.5862    4.4294 H   0  0  0  0  0  0  0  0  0  0  0  0
   -0.9502  -10.8545    1.3806 H   0  0  0  0  0  0  0  0  0  0  0  0
   -2.3614   -9.2546    0.0823 H   0  0  0  0  0  0  0  0  0  0  0  0
   -4.3831  -10.0731   -1.1269 H   0  0  0  0  0  0  0  0  0  0  0  0
   -5.0126  -12.4836   -1.0293 H   0  0  0  0  0  0  0  0  0  0  0  0
   -3.6037  -14.0910    0.2622 H   0  0  0  0  0  0  0  0  0  0  0  0
    1.7520  -12.9815    1.0354 H   0  0  0  0  0  0  0  0  0  0  0  0
    7.3623  -12.2041   -3.8648 H   0  0  0  0  0  0  0  0  0  0  0  0
    9.2689  -13.7779   -3.6077 H   0  0  0  0  0  0  0  0  0  0  0  0
  1  2  1  0
  2  3  1  0
  3  4  2  0
  4  5  1  0
  5  6  2  0
  6  7  1  0
  7  8  2  0
  8  9  1  0
  9 10  2  0
 10 11  1  0
 11 12  2  0
 12 13  1  0
 13 14  2  0
 14 15  1  0
 15 16  2  0
 16 17  1  0
 17 18  1  0
 18 19  1  0
 19 20  2  0
 20 21  1  0
 21 22  2  0
 22 23  1  0
 23 24  2  0
 24 25  1  0
 25 26  1  0
 26 27  1  0
 27 28  2  0
 27 29  1  0
 29 30  2  0
 30 31  1  0
 31 32  2  0
 32 33  1  0
 25 34  1  0
 34 35  2  0
 34 36  1  0
 36 37  2  0
 37 38  1  0
 38 39  2  0
 39 40  1  0
 40 41  2  0
 24 42  1  0
 42 43  2  0
 43 44  1  0
 44 45  2  0
 16 46  1  0
 46 47  2  0
  6  2  1  0
 12  7  1  0
 47 13  1  0
 44 18  1  0
 43 21  1  0
 33 29  1  0
 41 36  1  0
  1 48  1  0
  1 49  1  0
  1 50  1  0
  8 51  1  0
  9 52  1  0
 10 53  1  0
 11 54  1  0
 14 55  1  0
 15 56  1  0
 17 57  1  0
 17 58  1  0
 19 59  1  0
 22 60  1  0
 23 61  1  0
 26 62  1  0
 26 63  1  0
 30 64  1  0
 31 65  1  0
 32 66  1  0
 37 67  1  0
 38 68  1  0
 39 69  1  0
 40 70  1  0
 41 71  1  0
 42 72  1  0
 46 73  1  0
 47 74  1  0
M  END
>  <meeko>  (5) 
{"is_sidechain": [false], "free_energy": -9.172, "intermolecular_energy": -14.372, "internal_energy": -2.801}

$$$$
LIB_PWPRVHILSMCPLW__M_PUB_ALL__e8__s20260927
     RDKit          3D

 74 80  0  0  0  0  0  0  0  0999 V2000
   -3.2960  -14.6470    2.8270 C   0  0  0  0  0  0  0  0  0  0  0  0
   -2.9990  -15.0500    1.4810 N   0  0  0  0  0  0  0  0  0  0  0  0
   -3.1340  -16.3410    1.1310 N   0  0  0  0  0  0  0  0  0  0  0  0
   -2.8860  -16.3750   -0.1680 N   0  0  0  0  0  0  0  0  0  0  0  0
   -2.6020  -15.1220   -0.6470 N   0  0  0  0  0  0  0  0  0  0  0  0
   -2.6480  -14.3000    0.3870 C   0  0  0  0  0  0  0  0  0  0  0  0
   -2.4220  -12.8560    0.3440 C   0  0  0  0  0  0  0  0  0  0  0  0
   -3.5250  -12.0450    0.0180 C   0  0  0  0  0  0  0  0  0  0  0  0
   -3.4060  -10.6570   -0.0390 C   0  0  0  0  0  0  0  0  0  0  0  0
   -2.1800  -10.0600    0.2180 C   0  0  0  0  0  0  0  0  0  0  0  0
   -1.0710  -10.8500    0.5240 C   0  0  0  0  0  0  0  0  0  0  0  0
   -1.1610  -12.2570    0.5890 C   0  0  0  0  0  0  0  0  0  0  0  0
    0.0620  -13.0300    0.8860 C   0  0  0  0  0  0  0  0  0  0  0  0
    0.2920  -13.5670    2.1620 C   0  0  0  0  0  0  0  0  0  0  0  0
    1.4650  -14.2710    2.4460 C   0  0  0  0  0  0  0  0  0  0  0  0
    2.4350  -14.4710    1.4560 C   0  0  0  0  0  0  0  0  0  0  0  0
    3.7230  -15.1940    1.7860 C   0  0  0  0  0  0  0  0  0  0  0  0
    4.8860  -14.3700    1.4960 N   0  0  0  0  0  0  0  0  0  0  0  0
    5.1740  -13.2940    2.2990 C   0  0  0  0  0  0  0  0  0  0  0  0
    6.1900  -12.5120    2.1580 N   0  0  0  0  0  0  0  0  0  0  0  0
    7.0730  -12.7860    1.1040 C   0  0  0  0  0  0  0  0  0  0  0  0
    8.1970  -11.9790    0.9390 C   0  0  0  0  0  0  0  0  0  0  0  0
    9.1030  -12.2200   -0.1020 C   0  0  0  0  0  0  0  0  0  0  0  0
    8.8960  -13.2650   -1.0140 C   0  0  0  0  0  0  0  0  0  0  0  0
    9.8250  -13.5110   -2.0710 N   0  0  0  0  0  0  0  0  0  0  0  0
   10.8660  -14.5290   -1.8760 C   0  0  0  0  0  0  0  0  0  0  0  0
   12.2660  -13.9490   -2.1030 C   0  0  0  0  0  0  0  0  0  0  0  0
   13.0320  -14.4100   -2.9540 O   0  0  0  0  0  0  0  0  0  0  0  0
   12.6050  -12.7810   -1.3160 C   0  0  0  0  0  0  0  0  0  0  0  0
   13.0640  -11.5330   -1.6980 C   0  0  0  0  0  0  0  0  0  0  0  0
   13.2200  -10.7760   -0.5140 C   0  0  0  0  0  0  0  0  0  0  0  0
   12.8420  -11.6000    0.5200 C   0  0  0  0  0  0  0  0  0  0  0  0
   12.4630  -12.8140    0.0440 O   0  0  0  0  0  0  0  0  0  0  0  0
    9.7950  -12.9110   -3.3400 C   0  0  0  0  0  0  0  0  0  0  0  0
    9.9350  -11.6990   -3.5060 O   0  0  0  0  0  0  0  0  0  0  0  0
    9.4650  -13.7240   -4.5360 C   0  0  0  0  0  0  0  0  0  0  0  0
   10.4770  -14.0110   -5.4590 C   0  0  0  0  0  0  0  0  0  0  0  0
   10.1830  -14.7610   -6.5980 C   0  0  0  0  0  0  0  0  0  0  0  0
    8.8800  -15.2060   -6.8250 C   0  0  0  0  0  0  0  0  0  0  0  0
    7.8640  -14.8930   -5.9200 C   0  0  0  0  0  0  0  0  0  0  0  0
    8.1510  -14.1450   -4.7780 C   0  0  0  0  0  0  0  0  0  0  0  0
    7.7740  -14.0830   -0.8350 C   0  0  0  0  0  0  0  0  0  0  0  0
    6.8760  -13.8380    0.2140 C   0  0  0  0  0  0  0  0  0  0  0  0
    5.6940  -14.6980    0.4170 C   0  0  0  0  0  0  0  0  0  0  0  0
    5.4780  -15.6350   -0.3460 O   0  0  0  0  0  0  0  0  0  0  0  0
    2.2050  -13.9570    0.1750 C   0  0  0  0  0  0  0  0  0  0  0  0
    1.0320  -13.2500   -0.1050 C   0  0  0  0  0  0  0  0  0  0  0  0
   -2.7952  -15.3266    3.5322 H   0  0  0  0  0  0  0  0  0  0  0  0
   -2.9372  -13.6200    2.9899 H   0  0  0  0  0  0  0  0  0  0  0  0
   -4.3832  -14.6857    2.9899 H   0  0  0  0  0  0  0  0  0  0  0  0
   -4.4969  -12.5139   -0.1953 H   0  0  0  0  0  0  0  0  0  0  0  0
   -4.2806  -10.0376   -0.2867 H   0  0  0  0  0  0  0  0  0  0  0  0
   -2.0823   -8.9650    0.1806 H   0  0  0  0  0  0  0  0  0  0  0  0
   -0.1035  -10.3644    0.7192 H   0  0  0  0  0  0  0  0  0  0  0  0
   -0.4628  -13.4316    2.9507 H   0  0  0  0  0  0  0  0  0  0  0  0
    1.6281  -14.6721    3.4572 H   0  0  0  0  0  0  0  0  0  0  0  0
    3.7247  -15.4510    2.8555 H   0  0  0  0  0  0  0  0  0  0  0  0
    3.7788  -16.1005    1.1654 H   0  0  0  0  0  0  0  0  0  0  0  0
    4.4833  -13.0821    3.1285 H   0  0  0  0  0  0  0  0  0  0  0  0
    8.3747  -11.1444    1.6331 H   0  0  0  0  0  0  0  0  0  0  0  0
    9.9911  -11.5792   -0.2057 H   0  0  0  0  0  0  0  0  0  0  0  0
   10.8010  -14.9148   -0.8479 H   0  0  0  0  0  0  0  0  0  0  0  0
   10.7029  -15.3348   -2.6068 H   0  0  0  0  0  0  0  0  0  0  0  0
   13.2682  -11.1949   -2.7247 H   0  0  0  0  0  0  0  0  0  0  0  0
   13.5727   -9.7370   -0.4358 H   0  0  0  0  0  0  0  0  0  0  0  0
   12.8461  -11.3159    1.5827 H   0  0  0  0  0  0  0  0  0  0  0  0
   11.5005  -13.6466   -5.2870 H   0  0  0  0  0  0  0  0  0  0  0  0
   10.9791  -15.0018   -7.3179 H   0  0  0  0  0  0  0  0  0  0  0  0
    8.6528  -15.8049   -7.7192 H   0  0  0  0  0  0  0  0  0  0  0  0
    6.8360  -15.2366   -6.1077 H   0  0  0  0  0  0  0  0  0  0  0  0
    7.3491  -13.8869   -4.0707 H   0  0  0  0  0  0  0  0  0  0  0  0
    7.5956  -14.9235   -1.5218 H   0  0  0  0  0  0  0  0  0  0  0  0
    2.9525  -14.1104   -0.6173 H   0  0  0  0  0  0  0  0  0  0  0  0
    0.8660  -12.8591   -1.1197 H   0  0  0  0  0  0  0  0  0  0  0  0
  1  2  1  0
  2  3  1  0
  3  4  2  0
  4  5  1  0
  5  6  2  0
  6  7  1  0
  7  8  2  0
  8  9  1  0
  9 10  2  0
 10 11  1  0
 11 12  2  0
 12 13  1  0
 13 14  2  0
 14 15  1  0
 15 16  2  0
 16 17  1  0
 17 18  1  0
 18 19  1  0
 19 20  2  0
 20 21  1  0
 21 22  2  0
 22 23  1  0
 23 24  2  0
 24 25  1  0
 25 26  1  0
 26 27  1  0
 27 28  2  0
 27 29  1  0
 29 30  2  0
 30 31  1  0
 31 32  2  0
 32 33  1  0
 25 34  1  0
 34 35  2  0
 34 36  1  0
 36 37  2  0
 37 38  1  0
 38 39  2  0
 39 40  1  0
 40 41  2  0
 24 42  1  0
 42 43  2  0
 43 44  1  0
 44 45  2  0
 16 46  1  0
 46 47  2  0
  6  2  1  0
 12  7  1  0
 47 13  1  0
 44 18  1  0
 43 21  1  0
 33 29  1  0
 41 36  1  0
  1 48  1  0
  1 49  1  0
  1 50  1  0
  8 51  1  0
  9 52  1  0
 10 53  1  0
 11 54  1  0
 14 55  1  0
 15 56  1  0
 17 57  1  0
 17 58  1  0
 19 59  1  0
 22 60  1  0
 23 61  1  0
 26 62  1  0
 26 63  1  0
 30 64  1  0
 31 65  1  0
 32 66  1  0
 37 67  1  0
 38 68  1  0
 39 69  1  0
 40 70  1  0
 41 71  1  0
 42 72  1  0
 46 73  1  0
 47 74  1  0
M  END
>  <meeko>  (6) 
{"is_sidechain": [false], "free_energy": -9.133, "intermolecular_energy": -14.387, "internal_energy": -2.724}

$$$$
LIB_PWPRVHILSMCPLW__M_PUB_ALL__e8__s20260927
     RDKit          3D

 74 80  0  0  0  0  0  0  0  0999 V2000
    0.4750  -10.1820   -0.7460 C   0  0  0  0  0  0  0  0  0  0  0  0
   -0.1360   -9.7150    0.4670 N   0  0  0  0  0  0  0  0  0  0  0  0
    0.5050   -8.8070    1.2230 N   0  0  0  0  0  0  0  0  0  0  0  0
   -0.3380   -8.5120    2.1990 N   0  0  0  0  0  0  0  0  0  0  0  0
   -1.5060   -9.2180    2.0680 N   0  0  0  0  0  0  0  0  0  0  0  0
   -1.3690   -9.9870    1.0030 C   0  0  0  0  0  0  0  0  0  0  0  0
   -2.3770  -10.9060    0.4730 C   0  0  0  0  0  0  0  0  0  0  0  0
   -3.4730  -10.3350   -0.2000 C   0  0  0  0  0  0  0  0  0  0  0  0
   -4.4770  -11.1320   -0.7450 C   0  0  0  0  0  0  0  0  0  0  0  0
   -4.4080  -12.5120   -0.6150 C   0  0  0  0  0  0  0  0  0  0  0  0
   -3.3380  -13.0940    0.0670 C   0  0  0  0  0  0  0  0  0  0  0  0
   -2.3060  -12.3120    0.6290 C   0  0  0  0  0  0  0  0  0  0  0  0
   -1.2230  -12.9960    1.3650 C   0  0  0  0  0  0  0  0  0  0  0  0
   -0.1350  -13.5710    0.6910 C   0  0  0  0  0  0  0  0  0  0  0  0
    0.8720  -14.2420    1.3900 C   0  0  0  0  0  0  0  0  0  0  0  0
    0.8250  -14.3450    2.7860 C   0  0  0  0  0  0  0  0  0  0  0  0
    1.8940  -15.1150    3.5300 C   0  0  0  0  0  0  0  0  0  0  0  0
    1.3330  -16.2500    4.2450 N   0  0  0  0  0  0  0  0  0  0  0  0
    1.1860  -17.4540    3.6000 C   0  0  0  0  0  0  0  0  0  0  0  0
    0.7290  -18.5340    4.1380 N   0  0  0  0  0  0  0  0  0  0  0  0
    0.3600  -18.4760    5.4890 C   0  0  0  0  0  0  0  0  0  0  0  0
   -0.1110  -19.6310    6.1100 C   0  0  0  0  0  0  0  0  0  0  0  0
   -0.4900  -19.6140    7.4580 C   0  0  0  0  0  0  0  0  0  0  0  0
   -0.4250  -18.4330    8.2130 C   0  0  0  0  0  0  0  0  0  0  0  0
   -0.8080  -18.4200    9.5890 N   0  0  0  0  0  0  0  0  0  0  0  0
   -2.1900  -18.7710    9.9430 C   0  0  0  0  0  0  0  0  0  0  0  0
   -2.2460  -20.0570   10.7750 C   0  0  0  0  0  0  0  0  0  0  0  0
   -2.6070  -20.0530   11.9550 O   0  0  0  0  0  0  0  0  0  0  0  0
   -1.9290  -21.2830   10.0710 C   0  0  0  0  0  0  0  0  0  0  0  0
   -0.9880  -22.2610   10.3340 C   0  0  0  0  0  0  0  0  0  0  0  0
   -1.1240  -23.2410    9.3230 C   0  0  0  0  0  0  0  0  0  0  0  0
   -2.1420  -22.8090    8.5070 C   0  0  0  0  0  0  0  0  0  0  0  0
   -2.6410  -21.6280    8.9550 O   0  0  0  0  0  0  0  0  0  0  0  0
    0.0500  -18.1690   10.6730 C   0  0  0  0  0  0  0  0  0  0  0  0
   -0.3240  -17.6040   11.7010 O   0  0  0  0  0  0  0  0  0  0  0  0
    1.4960  -18.4770   10.5580 C   0  0  0  0  0  0  0  0  0  0  0  0
    1.9090  -19.8130   10.6040 C   0  0  0  0  0  0  0  0  0  0  0  0
    3.2670  -20.1220   10.5140 C   0  0  0  0  0  0  0  0  0  0  0  0
    4.2100  -19.1000   10.3980 C   0  0  0  0  0  0  0  0  0  0  0  0
    3.8010  -17.7650   10.3830 C   0  0  0  0  0  0  0  0  0  0  0  0
    2.4450  -17.4490   10.4720 C   0  0  0  0  0  0  0  0  0  0  0  0
    0.0630  -17.2780    7.5900 C   0  0  0  0  0  0  0  0  0  0  0  0
    0.4470  -17.3070    6.2410 C   0  0  0  0  0  0  0  0  0  0  0  0
    0.9700  -16.0990    5.5760 C   0  0  0  0  0  0  0  0  0  0  0  0
    1.0600  -15.0450    6.1980 O   0  0  0  0  0  0  0  0  0  0  0  0
   -0.2460  -13.7570    3.4680 C   0  0  0  0  0  0  0  0  0  0  0  0
   -1.2530  -13.0890    2.7650 C   0  0  0  0  0  0  0  0  0  0  0  0
    1.3269  -10.8331   -0.5004 H   0  0  0  0  0  0  0  0  0  0  0  0
   -0.2624  -10.7489   -1.3333 H   0  0  0  0  0  0  0  0  0  0  0  0
    0.8284   -9.3217   -1.3333 H   0  0  0  0  0  0  0  0  0  0  0  0
   -3.5380   -9.2412   -0.2973 H   0  0  0  0  0  0  0  0  0  0  0  0
   -5.3216  -10.6692   -1.2766 H   0  0  0  0  0  0  0  0  0  0  0  0
   -5.1952  -13.1462   -1.0487 H   0  0  0  0  0  0  0  0  0  0  0  0
   -3.2981  -14.1885    0.1689 H   0  0  0  0  0  0  0  0  0  0  0  0
   -0.0737  -13.4924   -0.4045 H   0  0  0  0  0  0  0  0  0  0  0  0
    1.7097  -14.6937    0.8384 H   0  0  0  0  0  0  0  0  0  0  0  0
    2.6393  -15.4802    2.8081 H   0  0  0  0  0  0  0  0  0  0  0  0
    2.3580  -14.4398    4.2640 H   0  0  0  0  0  0  0  0  0  0  0  0
    1.4812  -17.5010    2.5414 H   0  0  0  0  0  0  0  0  0  0  0  0
   -0.1859  -20.5660    5.5354 H   0  0  0  0  0  0  0  0  0  0  0  0
   -0.8442  -20.5410    7.9325 H   0  0  0  0  0  0  0  0  0  0  0  0
   -2.6298  -17.9484   10.5260 H   0  0  0  0  0  0  0  0  0  0  0  0
   -2.7538  -18.9361    9.0130 H   0  0  0  0  0  0  0  0  0  0  0  0
   -0.2716  -22.2745   11.1686 H   0  0  0  0  0  0  0  0  0  0  0  0
   -0.5340  -24.1628    9.2123 H   0  0  0  0  0  0  0  0  0  0  0  0
   -2.5020  -23.3445    7.6162 H   0  0  0  0  0  0  0  0  0  0  0  0
    1.1659  -20.6170   10.7107 H   0  0  0  0  0  0  0  0  0  0  0  0
    3.5942  -21.1720   10.5345 H   0  0  0  0  0  0  0  0  0  0  0  0
    5.2790  -19.3468   10.3181 H   0  0  0  0  0  0  0  0  0  0  0  0
    4.5483  -16.9620   10.3010 H   0  0  0  0  0  0  0  0  0  0  0  0
    2.1220  -16.3975   10.4747 H   0  0  0  0  0  0  0  0  0  0  0  0
    0.1458  -16.3420    8.1619 H   0  0  0  0  0  0  0  0  0  0  0  0
   -0.2960  -13.8208    4.5650 H   0  0  0  0  0  0  0  0  0  0  0  0
   -2.0838  -12.6280    3.3192 H   0  0  0  0  0  0  0  0  0  0  0  0
  1  2  1  0
  2  3  1  0
  3  4  2  0
  4  5  1  0
  5  6  2  0
  6  7  1  0
  7  8  2  0
  8  9  1  0
  9 10  2  0
 10 11  1  0
 11 12  2  0
 12 13  1  0
 13 14  2  0
 14 15  1  0
 15 16  2  0
 16 17  1  0
 17 18  1  0
 18 19  1  0
 19 20  2  0
 20 21  1  0
 21 22  2  0
 22 23  1  0
 23 24  2  0
 24 25  1  0
 25 26  1  0
 26 27  1  0
 27 28  2  0
 27 29  1  0
 29 30  2  0
 30 31  1  0
 31 32  2  0
 32 33  1  0
 25 34  1  0
 34 35  2  0
 34 36  1  0
 36 37  2  0
 37 38  1  0
 38 39  2  0
 39 40  1  0
 40 41  2  0
 24 42  1  0
 42 43  2  0
 43 44  1  0
 44 45  2  0
 16 46  1  0
 46 47  2  0
  6  2  1  0
 12  7  1  0
 47 13  1  0
 44 18  1  0
 43 21  1  0
 33 29  1  0
 41 36  1  0
  1 48  1  0
  1 49  1  0
  1 50  1  0
  8 51  1  0
  9 52  1  0
 10 53  1  0
 11 54  1  0
 14 55  1  0
 15 56  1  0
 17 57  1  0
 17 58  1  0
 19 59  1  0
 22 60  1  0
 23 61  1  0
 26 62  1  0
 26 63  1  0
 30 64  1  0
 31 65  1  0
 32 66  1  0
 37 67  1  0
 38 68  1  0
 39 69  1  0
 40 70  1  0
 41 71  1  0
 42 72  1  0
 46 73  1  0
 47 74  1  0
M  END
>  <meeko>  (7) 
{"is_sidechain": [false], "free_energy": -9.084, "intermolecular_energy": -14.352, "internal_energy": -2.683}

$$$$
LIB_PWPRVHILSMCPLW__M_PUB_ALL__e8__s20260927
     RDKit          3D

 74 80  0  0  0  0  0  0  0  0999 V2000
   11.8940  -13.7090    0.1490 C   0  0  0  0  0  0  0  0  0  0  0  0
   12.2910  -12.5990   -0.6700 N   0  0  0  0  0  0  0  0  0  0  0  0
   12.6050  -11.4270   -0.0910 N   0  0  0  0  0  0  0  0  0  0  0  0
   13.0150  -10.6500   -1.0800 N   0  0  0  0  0  0  0  0  0  0  0  0
   12.9690  -11.3160   -2.2780 N   0  0  0  0  0  0  0  0  0  0  0  0
   12.4930  -12.5220   -2.0250 C   0  0  0  0  0  0  0  0  0  0  0  0
   12.2840  -13.5850   -3.0090 C   0  0  0  0  0  0  0  0  0  0  0  0
   13.4290  -14.2490   -3.4860 C   0  0  0  0  0  0  0  0  0  0  0  0
   13.3270  -15.2800   -4.4180 C   0  0  0  0  0  0  0  0  0  0  0  0
   12.0790  -15.6550   -4.8960 C   0  0  0  0  0  0  0  0  0  0  0  0
   10.9340  -14.9940   -4.4480 C   0  0  0  0  0  0  0  0  0  0  0  0
   11.0070  -13.9460   -3.5050 C   0  0  0  0  0  0  0  0  0  0  0  0
    9.7570  -13.2710   -3.1010 C   0  0  0  0  0  0  0  0  0  0  0  0
    9.3920  -12.0300   -3.6450 C   0  0  0  0  0  0  0  0  0  0  0  0
    8.2230  -11.3810   -3.2360 C   0  0  0  0  0  0  0  0  0  0  0  0
    7.3790  -11.9640   -2.2820 C   0  0  0  0  0  0  0  0  0  0  0  0
    6.1410  -11.2320   -1.8120 C   0  0  0  0  0  0  0  0  0  0  0  0
    4.9270  -11.9200   -2.2220 N   0  0  0  0  0  0  0  0  0  0  0  0
    4.6040  -11.9900   -3.5550 C   0  0  0  0  0  0  0  0  0  0  0  0
    3.5730  -12.5960   -4.0390 N   0  0  0  0  0  0  0  0  0  0  0  0
    2.7180  -13.2390   -3.1320 C   0  0  0  0  0  0  0  0  0  0  0  0
    1.6110  -13.9280   -3.6220 C   0  0  0  0  0  0  0  0  0  0  0  0
    0.7330  -14.5840   -2.7490 C   0  0  0  0  0  0  0  0  0  0  0  0
    0.9350  -14.5500   -1.3600 C   0  0  0  0  0  0  0  0  0  0  0  0
    0.0410  -15.2240   -0.4730 N   0  0  0  0  0  0  0  0  0  0  0  0
   -1.3160  -14.6900   -0.2940 C   0  0  0  0  0  0  0  0  0  0  0  0
   -1.3150  -13.4460    0.6010 C   0  0  0  0  0  0  0  0  0  0  0  0
   -0.4850  -13.2920    1.5010 O   0  0  0  0  0  0  0  0  0  0  0  0
   -2.2950  -12.4290    0.2760 C   0  0  0  0  0  0  0  0  0  0  0  0
   -2.2110  -11.0490    0.3050 C   0  0  0  0  0  0  0  0  0  0  0  0
   -3.4660  -10.5550   -0.1220 C   0  0  0  0  0  0  0  0  0  0  0  0
   -4.2390  -11.6600   -0.3930 C   0  0  0  0  0  0  0  0  0  0  0  0
   -3.5370  -12.7990   -0.1610 O   0  0  0  0  0  0  0  0  0  0  0  0
    0.3150  -16.4210    0.2080 C   0  0  0  0  0  0  0  0  0  0  0  0
    0.3080  -17.5200   -0.3480 O   0  0  0  0  0  0  0  0  0  0  0  0
    0.5080  -16.4080    1.6790 C   0  0  0  0  0  0  0  0  0  0  0  0
   -0.5070  -16.9150    2.4980 C   0  0  0  0  0  0  0  0  0  0  0  0
   -0.3520  -16.8970    3.8850 C   0  0  0  0  0  0  0  0  0  0  0  0
    0.8030  -16.3560    4.4510 C   0  0  0  0  0  0  0  0  0  0  0  0
    1.8020  -15.8220    3.6350 C   0  0  0  0  0  0  0  0  0  0  0  0
    1.6540  -15.8380    2.2480 C   0  0  0  0  0  0  0  0  0  0  0  0
    2.0580  -13.8700   -0.8740 C   0  0  0  0  0  0  0  0  0  0  0  0
    2.9340  -13.2220   -1.7570 C   0  0  0  0  0  0  0  0  0  0  0  0
    4.1250  -12.5100   -1.2560 C   0  0  0  0  0  0  0  0  0  0  0  0
    4.3520  -12.4640   -0.0510 O   0  0  0  0  0  0  0  0  0  0  0  0
    7.7250  -13.2110   -1.7490 C   0  0  0  0  0  0  0  0  0  0  0  0
    8.8970  -13.8560   -2.1580 C   0  0  0  0  0  0  0  0  0  0  0  0
   11.9919  -13.4354    1.2099 H   0  0  0  0  0  0  0  0  0  0  0  0
   10.8473  -13.9687   -0.0677 H   0  0  0  0  0  0  0  0  0  0  0  0
   12.5386  -14.5736   -0.0677 H   0  0  0  0  0  0  0  0  0  0  0  0
   14.4211  -13.9494   -3.1172 H   0  0  0  0  0  0  0  0  0  0  0  0
   14.2319  -15.7946   -4.7734 H   0  0  0  0  0  0  0  0  0  0  0  0
   11.9923  -16.4723   -5.6271 H   0  0  0  0  0  0  0  0  0  0  0  0
    9.9515  -15.2969   -4.8391 H   0  0  0  0  0  0  0  0  0  0  0  0
   10.0350  -11.5609   -4.4043 H   0  0  0  0  0  0  0  0  0  0  0  0
    7.9635  -10.4030   -3.6676 H   0  0  0  0  0  0  0  0  0  0  0  0
    6.1605  -11.1651   -0.7142 H   0  0  0  0  0  0  0  0  0  0  0  0
    6.1396  -10.2298   -2.2655 H   0  0  0  0  0  0  0  0  0  0  0  0
    5.2777  -11.4898   -4.2663 H   0  0  0  0  0  0  0  0  0  0  0  0
    1.4241  -13.9574   -4.7056 H   0  0  0  0  0  0  0  0  0  0  0  0
   -0.1274  -15.1339   -3.1580 H   0  0  0  0  0  0  0  0  0  0  0  0
   -1.7277  -14.4222   -1.2783 H   0  0  0  0  0  0  0  0  0  0  0  0
   -1.9308  -15.4634    0.1896 H   0  0  0  0  0  0  0  0  0  0  0  0
   -1.3371  -10.4509    0.6026 H   0  0  0  0  0  0  0  0  0  0  0  0
   -3.7635   -9.5004   -0.2179 H   0  0  0  0  0  0  0  0  0  0  0  0
   -5.2796  -11.6258   -0.7478 H   0  0  0  0  0  0  0  0  0  0  0  0
   -1.4238  -17.3263    2.0503 H   0  0  0  0  0  0  0  0  0  0  0  0
   -1.1404  -17.3093    4.5319 H   0  0  0  0  0  0  0  0  0  0  0  0
    0.9268  -16.3503    5.5440 H   0  0  0  0  0  0  0  0  0  0  0  0
    2.7066  -15.3883    4.0862 H   0  0  0  0  0  0  0  0  0  0  0  0
    2.4337  -15.4050    1.6041 H   0  0  0  0  0  0  0  0  0  0  0  0
    2.2547  -13.8437    0.2079 H   0  0  0  0  0  0  0  0  0  0  0  0
    7.0710  -13.6870   -1.0035 H   0  0  0  0  0  0  0  0  0  0  0  0
    9.1492  -14.8389   -1.7333 H   0  0  0  0  0  0  0  0  0  0  0  0
  1  2  1  0
  2  3  1  0
  3  4  2  0
  4  5  1  0
  5  6  2  0
  6  7  1  0
  7  8  2  0
  8  9  1  0
  9 10  2  0
 10 11  1  0
 11 12  2  0
 12 13  1  0
 13 14  2  0
 14 15  1  0
 15 16  2  0
 16 17  1  0
 17 18  1  0
 18 19  1  0
 19 20  2  0
 20 21  1  0
 21 22  2  0
 22 23  1  0
 23 24  2  0
 24 25  1  0
 25 26  1  0
 26 27  1  0
 27 28  2  0
 27 29  1  0
 29 30  2  0
 30 31  1  0
 31 32  2  0
 32 33  1  0
 25 34  1  0
 34 35  2  0
 34 36  1  0
 36 37  2  0
 37 38  1  0
 38 39  2  0
 39 40  1  0
 40 41  2  0
 24 42  1  0
 42 43  2  0
 43 44  1  0
 44 45  2  0
 16 46  1  0
 46 47  2  0
  6  2  1  0
 12  7  1  0
 47 13  1  0
 44 18  1  0
 43 21  1  0
 33 29  1  0
 41 36  1  0
  1 48  1  0
  1 49  1  0
  1 50  1  0
  8 51  1  0
  9 52  1  0
 10 53  1  0
 11 54  1  0
 14 55  1  0
 15 56  1  0
 17 57  1  0
 17 58  1  0
 19 59  1  0
 22 60  1  0
 23 61  1  0
 26 62  1  0
 26 63  1  0
 30 64  1  0
 31 65  1  0
 32 66  1  0
 37 67  1  0
 38 68  1  0
 39 69  1  0
 40 70  1  0
 41 71  1  0
 42 72  1  0
 46 73  1  0
 47 74  1  0
M  END
>  <meeko>  (8) 
{"is_sidechain": [false], "free_energy": -8.955, "intermolecular_energy": -14.331, "internal_energy": -2.499}

$$$$
LIB_PWPRVHILSMCPLW__M_PUB_ALL__e8__s20260927
     RDKit          3D

 74 80  0  0  0  0  0  0  0  0999 V2000
   -1.7670   -9.2770    2.7060 C   0  0  0  0  0  0  0  0  0  0  0  0
   -1.0040   -9.5980    1.5330 N   0  0  0  0  0  0  0  0  0  0  0  0
    0.1430   -8.9420    1.2890 N   0  0  0  0  0  0  0  0  0  0  0  0
    0.6500   -9.5190    0.2120 N   0  0  0  0  0  0  0  0  0  0  0  0
   -0.1590  -10.5350   -0.2270 N   0  0  0  0  0  0  0  0  0  0  0  0
   -1.2030  -10.5670    0.5820 C   0  0  0  0  0  0  0  0  0  0  0  0
   -2.3220  -11.5050    0.5000 C   0  0  0  0  0  0  0  0  0  0  0  0
   -3.5840  -10.9700    0.1780 C   0  0  0  0  0  0  0  0  0  0  0  0
   -4.7060  -11.7880    0.0700 C   0  0  0  0  0  0  0  0  0  0  0  0
   -4.5880  -13.1530    0.2940 C   0  0  0  0  0  0  0  0  0  0  0  0
   -3.3480  -13.6980    0.6330 C   0  0  0  0  0  0  0  0  0  0  0  0
   -2.1940  -12.8940    0.7490 C   0  0  0  0  0  0  0  0  0  0  0  0
   -0.9230  -13.5350    1.1440 C   0  0  0  0  0  0  0  0  0  0  0  0
   -0.4640  -13.4880    2.4680 C   0  0  0  0  0  0  0  0  0  0  0  0
    0.7540  -14.0700    2.8290 C   0  0  0  0  0  0  0  0  0  0  0  0
    1.5400  -14.7290    1.8760 C   0  0  0  0  0  0  0  0  0  0  0  0
    2.8800  -15.3150    2.2660 C   0  0  0  0  0  0  0  0  0  0  0  0
    3.9810  -14.5050    1.7680 N   0  0  0  0  0  0  0  0  0  0  0  0
    4.4470  -13.4550    2.5200 C   0  0  0  0  0  0  0  0  0  0  0  0
    5.4330  -12.6880    2.1960 N   0  0  0  0  0  0  0  0  0  0  0  0
    6.0830  -12.9520    0.9830 C   0  0  0  0  0  0  0  0  0  0  0  0
    7.1700  -12.1620    0.6150 C   0  0  0  0  0  0  0  0  0  0  0  0
    7.8460  -12.3930   -0.5900 C   0  0  0  0  0  0  0  0  0  0  0  0
    7.4390  -13.4120   -1.4640 C   0  0  0  0  0  0  0  0  0  0  0  0
    8.1340  -13.6480   -2.6900 N   0  0  0  0  0  0  0  0  0  0  0  0
    9.5740  -13.9370   -2.6420 C   0  0  0  0  0  0  0  0  0  0  0  0
   10.4030  -12.6500   -2.5860 C   0  0  0  0  0  0  0  0  0  0  0  0
   10.2770  -11.7570   -3.4280 O   0  0  0  0  0  0  0  0  0  0  0  0
   11.2820  -12.5090   -1.4420 C   0  0  0  0  0  0  0  0  0  0  0  0
   11.5100  -13.3480   -0.3670 C   0  0  0  0  0  0  0  0  0  0  0  0
   12.4790  -12.7150    0.4460 C   0  0  0  0  0  0  0  0  0  0  0  0
   12.7900  -11.5320   -0.1820 C   0  0  0  0  0  0  0  0  0  0  0  0
   12.0760  -11.4010   -1.3290 O   0  0  0  0  0  0  0  0  0  0  0  0
    7.5470  -13.7050   -3.9640 C   0  0  0  0  0  0  0  0  0  0  0  0
    8.1810  -13.9980   -4.9770 O   0  0  0  0  0  0  0  0  0  0  0  0
    6.1350  -13.2860   -4.1470 C   0  0  0  0  0  0  0  0  0  0  0  0
    5.7730  -11.9730   -3.8270 C   0  0  0  0  0  0  0  0  0  0  0  0
    4.4470  -11.5640   -3.9770 C   0  0  0  0  0  0  0  0  0  0  0  0
    3.4840  -12.4690   -4.4250 C   0  0  0  0  0  0  0  0  0  0  0  0
    3.8390  -13.7870   -4.7140 C   0  0  0  0  0  0  0  0  0  0  0  0
    5.1630  -14.2020   -4.5670 C   0  0  0  0  0  0  0  0  0  0  0  0
    6.3560  -14.2130   -1.0830 C   0  0  0  0  0  0  0  0  0  0  0  0
    5.6890  -13.9770    0.1270 C   0  0  0  0  0  0  0  0  0  0  0  0
    4.5520  -14.8210    0.5430 C   0  0  0  0  0  0  0  0  0  0  0  0
    4.1670  -15.7340   -0.1810 O   0  0  0  0  0  0  0  0  0  0  0  0
    1.0810  -14.7990    0.5560 C   0  0  0  0  0  0  0  0  0  0  0  0
   -0.1370  -14.2120    0.1980 C   0  0  0  0  0  0  0  0  0  0  0  0
   -1.1808   -9.5236    3.6035 H   0  0  0  0  0  0  0  0  0  0  0  0
   -2.0041   -8.2029    2.7066 H   0  0  0  0  0  0  0  0  0  0  0  0
   -2.7007   -9.8586    2.7066 H   0  0  0  0  0  0  0  0  0  0  0  0
   -3.6854   -9.8878    0.0089 H   0  0  0  0  0  0  0  0  0  0  0  0
   -5.6823  -11.3540   -0.1919 H   0  0  0  0  0  0  0  0  0  0  0  0
   -5.4700  -13.8042    0.2046 H   0  0  0  0  0  0  0  0  0  0  0  0
   -3.2687  -14.7801    0.8140 H   0  0  0  0  0  0  0  0  0  0  0  0
   -1.0721  -12.9852    3.2344 H   0  0  0  0  0  0  0  0  0  0  0  0
    1.0986  -14.0098    3.8719 H   0  0  0  0  0  0  0  0  0  0  0  0
    2.9419  -15.3667    3.3630 H   0  0  0  0  0  0  0  0  0  0  0  0
    2.9607  -16.3180    1.8217 H   0  0  0  0  0  0  0  0  0  0  0  0
    3.9396  -13.2514    3.4745 H   0  0  0  0  0  0  0  0  0  0  0  0
    7.5008  -11.3485    1.2775 H   0  0  0  0  0  0  0  0  0  0  0  0
    8.7096  -11.7654   -0.8551 H   0  0  0  0  0  0  0  0  0  0  0  0
    9.7881  -14.5394   -1.7468 H   0  0  0  0  0  0  0  0  0  0  0  0
    9.8470  -14.4841   -3.5564 H   0  0  0  0  0  0  0  0  0  0  0  0
   11.0304  -14.3201   -0.1801 H   0  0  0  0  0  0  0  0  0  0  0  0
   12.8989  -13.0928    1.3899 H   0  0  0  0  0  0  0  0  0  0  0  0
   13.5157  -10.7951    0.1926 H   0  0  0  0  0  0  0  0  0  0  0  0
    6.5306  -11.2657   -3.4586 H   0  0  0  0  0  0  0  0  0  0  0  0
    4.1611  -10.5281   -3.7420 H   0  0  0  0  0  0  0  0  0  0  0  0
    2.4412  -12.1421   -4.5508 H   0  0  0  0  0  0  0  0  0  0  0  0
    3.0746  -14.4994   -5.0579 H   0  0  0  0  0  0  0  0  0  0  0  0
    5.4420  -15.2445   -4.7802 H   0  0  0  0  0  0  0  0  0  0  0  0
    6.0262  -15.0332   -1.7376 H   0  0  0  0  0  0  0  0  0  0  0  0
    1.6818  -15.3189   -0.2048 H   0  0  0  0  0  0  0  0  0  0  0  0
   -0.4852  -14.2820   -0.8431 H   0  0  0  0  0  0  0  0  0  0  0  0
  1  2  1  0
  2  3  1  0
  3  4  2  0
  4  5  1  0
  5  6  2  0
  6  7  1  0
  7  8  2  0
  8  9  1  0
  9 10  2  0
 10 11  1  0
 11 12  2  0
 12 13  1  0
 13 14  2  0
 14 15  1  0
 15 16  2  0
 16 17  1  0
 17 18  1  0
 18 19  1  0
 19 20  2  0
 20 21  1  0
 21 22  2  0
 22 23  1  0
 23 24  2  0
 24 25  1  0
 25 26  1  0
 26 27  1  0
 27 28  2  0
 27 29  1  0
 29 30  2  0
 30 31  1  0
 31 32  2  0
 32 33  1  0
 25 34  1  0
 34 35  2  0
 34 36  1  0
 36 37  2  0
 37 38  1  0
 38 39  2  0
 39 40  1  0
 40 41  2  0
 24 42  1  0
 42 43  2  0
 43 44  1  0
 44 45  2  0
 16 46  1  0
 46 47  2  0
  6  2  1  0
 12  7  1  0
 47 13  1  0
 44 18  1  0
 43 21  1  0
 33 29  1  0
 41 36  1  0
  1 48  1  0
  1 49  1  0
  1 50  1  0
  8 51  1  0
  9 52  1  0
 10 53  1  0
 11 54  1  0
 14 55  1  0
 15 56  1  0
 17 57  1  0
 17 58  1  0
 19 59  1  0
 22 60  1  0
 23 61  1  0
 26 62  1  0
 26 63  1  0
 30 64  1  0
 31 65  1  0
 32 66  1  0
 37 67  1  0
 38 68  1  0
 39 69  1  0
 40 70  1  0
 41 71  1  0
 42 72  1  0
 46 73  1  0
 47 74  1  0
M  END
>  <meeko>  (9) 
{"is_sidechain": [false], "free_energy": -8.817, "intermolecular_energy": -14.504, "internal_energy": -2.107}

$$$$
