LIB_RPIUOWOTQONAKE__M_PUB_ALL__e8__s20260927
     RDKit          3D

 80 84  0  0  0  0  0  0  0  0999 V2000
   14.2840  -11.8180   -3.2080 C   0  0  0  0  0  0  0  0  0  0  0  0
   13.1100  -11.7060   -2.2870 C   0  0  0  0  0  0  0  0  0  0  0  0
   13.0150  -10.9010   -1.3680 O   0  0  0  0  0  0  0  0  0  0  0  0
   12.1760  -12.6390   -2.5980 O   0  0  0  0  0  0  0  0  0  0  0  0
   11.8990  -13.6520   -1.5930 C   0  0  1  0  0  0  0  0  0  0  0  0
   10.4070  -13.5030   -1.2320 C   0  0  1  0  0  0  0  0  0  0  0  0
   10.1860  -12.1720   -0.7400 O   0  0  0  0  0  0  0  0  0  0  0  0
    9.5040  -13.8340   -2.4500 C   0  0  2  0  0  0  0  0  0  0  0  0
    8.1090  -13.6430   -2.1130 O   0  0  0  0  0  0  0  0  0  0  0  0
    7.5890  -12.4290   -2.4310 C   0  0  0  0  0  0  0  0  0  0  0  0
    8.1710  -11.5490   -3.0490 O   0  0  0  0  0  0  0  0  0  0  0  0
    6.1840  -12.3140   -1.9610 C   0  0  0  0  0  0  0  0  0  0  0  0
    5.2290  -11.5390   -2.6320 C   0  0  0  0  0  0  0  0  0  0  0  0
    3.9240  -11.4520   -2.1380 C   0  0  0  0  0  0  0  0  0  0  0  0
    3.5700  -12.1350   -0.9740 C   0  0  0  0  0  0  0  0  0  0  0  0
    4.5170  -12.9060   -0.3010 C   0  0  0  0  0  0  0  0  0  0  0  0
    5.8210  -12.9960   -0.7910 C   0  0  0  0  0  0  0  0  0  0  0  0
    9.7060  -15.3030   -2.9580 C   0  0  1  0  0  0  0  0  0  0  0  0
    9.1480  -16.3020   -1.9020 C   0  0  0  0  0  0  0  0  0  0  0  0
    8.8440  -15.5790   -4.2550 C   0  0  1  0  0  0  0  0  0  0  0  0
    8.5880  -14.3480   -4.9610 O   0  0  0  0  0  0  0  0  0  0  0  0
    7.5010  -14.3220   -5.7690 C   0  0  0  0  0  0  0  0  0  0  0  0
    7.5040  -14.1340   -6.9770 O   0  0  0  0  0  0  0  0  0  0  0  0
    6.2530  -14.5790   -5.0230 C   0  0  0  0  0  0  0  0  0  0  0  0
    5.0690  -14.0220   -5.3200 C   0  0  0  0  0  0  0  0  0  0  0  0
    3.8510  -14.2370   -4.5310 C   0  0  0  0  0  0  0  0  0  0  0  0
    2.6210  -13.6610   -4.8750 C   0  0  0  0  0  0  0  0  0  0  0  0
    1.4920  -13.8750   -4.0810 C   0  0  0  0  0  0  0  0  0  0  0  0
    1.5820  -14.6580   -2.9320 C   0  0  0  0  0  0  0  0  0  0  0  0
    2.8030  -15.2250   -2.5720 C   0  0  0  0  0  0  0  0  0  0  0  0
    3.9340  -15.0110   -3.3650 C   0  0  0  0  0  0  0  0  0  0  0  0
    9.4510  -16.6360   -5.2160 C   0  0  0  0  0  0  0  0  0  0  0  0
   10.9960  -16.7060   -5.2620 C   0  0  2  0  0  0  0  0  0  0  0  0
   11.4860  -16.9040   -3.8380 C   0  0  0  0  0  0  0  0  0  0  0  0
   11.2390  -15.4990   -3.2720 C   0  0  1  0  0  0  0  0  0  0  0  0
   11.5260  -14.6010   -4.4130 O   0  0  0  0  0  0  0  0  0  0  0  0
   11.6910  -15.3850   -5.6140 C   0  0  0  0  0  0  0  0  0  0  0  0
   11.1280  -14.6470   -6.8290 C   0  0  0  0  0  0  0  0  0  0  0  0
   13.2010  -15.5530   -5.8820 C   0  0  0  0  0  0  0  0  0  0  0  0
   12.2190  -15.0930   -2.1080 C   0  0  2  0  0  0  0  0  0  0  0  0
   12.2640  -16.0730   -0.9220 C   0  0  0  0  0  0  0  0  0  0  0  0
   13.5670  -15.1690   -2.6280 O   0  0  0  0  0  0  0  0  0  0  0  0
   15.2071  -11.9061   -2.6163 H   0  0  0  0  0  0  0  0  0  0  0  0
   14.1687  -12.7092   -3.8424 H   0  0  0  0  0  0  0  0  0  0  0  0
   14.3393  -10.9210   -3.8424 H   0  0  0  0  0  0  0  0  0  0  0  0
   12.5404  -13.5083   -0.7110 H   0  0  0  0  0  0  0  0  0  0  0  0
   10.1371  -14.2216   -0.4441 H   0  0  0  0  0  0  0  0  0  0  0  0
    9.5540  -12.2320    0.0080 H   0  0  0  0  0  0  0  0  0  0  0  0
    9.7979  -13.1458   -3.2562 H   0  0  0  0  0  0  0  0  0  0  0  0
    5.5064  -10.9982   -3.5488 H   0  0  0  0  0  0  0  0  0  0  0  0
    3.1755  -10.8444   -2.6676 H   0  0  0  0  0  0  0  0  0  0  0  0
    2.5428  -12.0652   -0.5868 H   0  0  0  0  0  0  0  0  0  0  0  0
    4.2363  -13.4437    0.6167 H   0  0  0  0  0  0  0  0  0  0  0  0
    6.5663  -13.6041   -0.2574 H   0  0  0  0  0  0  0  0  0  0  0  0
    9.3596  -15.9232   -0.8912 H   0  0  0  0  0  0  0  0  0  0  0  0
    8.0610  -16.4063   -2.0344 H   0  0  0  0  0  0  0  0  0  0  0  0
    9.6292  -17.2823   -2.0344 H   0  0  0  0  0  0  0  0  0  0  0  0
    7.8988  -16.0116   -3.8953 H   0  0  0  0  0  0  0  0  0  0  0  0
    6.2967  -15.2713   -4.1693 H   0  0  0  0  0  0  0  0  0  0  0  0
    5.0083  -13.3687   -6.2029 H   0  0  0  0  0  0  0  0  0  0  0  0
    2.5439  -13.0358   -5.7768 H   0  0  0  0  0  0  0  0  0  0  0  0
    0.5292  -13.4242   -4.3635 H   0  0  0  0  0  0  0  0  0  0  0  0
    0.6908  -14.8283   -2.3101 H   0  0  0  0  0  0  0  0  0  0  0  0
    2.8768  -15.8410   -1.6637 H   0  0  0  0  0  0  0  0  0  0  0  0
    4.8974  -15.4536   -3.0717 H   0  0  0  0  0  0  0  0  0  0  0  0
    9.0788  -17.6240   -4.9073 H   0  0  0  0  0  0  0  0  0  0  0  0
    9.1387  -16.3314   -6.2258 H   0  0  0  0  0  0  0  0  0  0  0  0
   11.2200  -17.4866   -6.0039 H   0  0  0  0  0  0  0  0  0  0  0  0
   10.8983  -17.6671   -3.3067 H   0  0  0  0  0  0  0  0  0  0  0  0
   12.5223  -17.2625   -3.7508 H   0  0  0  0  0  0  0  0  0  0  0  0
   10.4931  -13.8148   -6.4908 H   0  0  0  0  0  0  0  0  0  0  0  0
   11.9570  -14.2529   -7.4352 H   0  0  0  0  0  0  0  0  0  0  0  0
   10.5288  -15.3424   -7.4352 H   0  0  0  0  0  0  0  0  0  0  0  0
   13.7389  -15.6128   -4.9244 H   0  0  0  0  0  0  0  0  0  0  0  0
   13.3710  -16.4756   -6.4564 H   0  0  0  0  0  0  0  0  0  0  0  0
   13.5697  -14.6903   -6.4564 H   0  0  0  0  0  0  0  0  0  0  0  0
   12.2381  -15.5082    0.0216 H   0  0  0  0  0  0  0  0  0  0  0  0
   11.3958  -16.7468   -0.9700 H   0  0  0  0  0  0  0  0  0  0  0  0
   13.1902  -16.6644   -0.9700 H   0  0  0  0  0  0  0  0  0  0  0  0
   13.6160  -14.6480   -3.4560 H   0  0  0  0  0  0  0  0  0  0  0  0
  1  2  1  0
  2  3  2  0
  2  4  1  0
  4  5  1  0
  5  6  1  0
  6  7  1  0
  6  8  1  0
  8  9  1  0
  9 10  1  0
 10 11  2  0
 10 12  1  0
 12 13  2  0
 13 14  1  0
 14 15  2  0
 15 16  1  0
 16 17  2  0
  8 18  1  0
 18 19  1  1
 18 20  1  0
 20 21  1  0
 21 22  1  0
 22 23  2  0
 22 24  1  0
 24 25  2  0
 25 26  1  0
 26 27  2  0
 27 28  1  0
 28 29  2  0
 29 30  1  0
 30 31  2  0
 20 32  1  0
 32 33  1  0
 33 34  1  0
 34 35  1  0
 35 36  1  6
 36 37  1  0
 37 38  1  0
 37 39  1  0
 35 40  1  0
 40 41  1  0
 40 42  1  6
 40  5  1  0
 17 12  1  0
 35 18  1  0
 31 26  1  0
 37 33  1  0
  1 43  1  0
  1 44  1  0
  1 45  1  0
  5 46  1  1
  6 47  1  1
  7 48  1  0
  8 49  1  6
 13 50  1  0
 14 51  1  0
 15 52  1  0
 16 53  1  0
 17 54  1  0
 19 55  1  0
 19 56  1  0
 19 57  1  0
 20 58  1  1
 24 59  1  0
 25 60  1  0
 27 61  1  0
 28 62  1  0
 29 63  1  0
 30 64  1  0
 31 65  1  0
 32 66  1  0
 32 67  1  0
 33 68  1  6
 34 69  1  0
 34 70  1  0
 38 71  1  0
 38 72  1  0
 38 73  1  0
 39 74  1  0
 39 75  1  0
 39 76  1  0
 41 77  1  0
 41 78  1  0
 41 79  1  0
 42 80  1  0
M  END
>  <meeko>  (1) 
{"is_sidechain": [false], "free_energy": -7.576, "intermolecular_energy": -12.005, "internal_energy": -4.521}

$$$$
LIB_RPIUOWOTQONAKE__M_PUB_ALL__e8__s20260927
     RDKit          3D

 80 84  0  0  0  0  0  0  0  0999 V2000
   -2.6370  -10.8390    2.4700 C   0  0  0  0  0  0  0  0  0  0  0  0
   -1.5280  -11.5500    3.1800 C   0  0  0  0  0  0  0  0  0  0  0  0
   -1.1080  -11.2570    4.2920 O   0  0  0  0  0  0  0  0  0  0  0  0
   -1.0360  -12.5490    2.4050 O   0  0  0  0  0  0  0  0  0  0  0  0
   -1.8470  -12.9630    1.2730 C   0  0  1  0  0  0  0  0  0  0  0  0
   -0.9630  -12.7830    0.0220 C   0  0  1  0  0  0  0  0  0  0  0  0
   -0.5680  -11.4040   -0.0660 O   0  0  0  0  0  0  0  0  0  0  0  0
    0.2580  -13.7390    0.0600 C   0  0  2  0  0  0  0  0  0  0  0  0
    1.1070  -13.5250   -1.0940 O   0  0  0  0  0  0  0  0  0  0  0  0
    1.9270  -12.4450   -1.0280 C   0  0  0  0  0  0  0  0  0  0  0  0
    2.3050  -11.9040    0.0020 O   0  0  0  0  0  0  0  0  0  0  0  0
    2.3510  -12.0170   -2.3860 C   0  0  0  0  0  0  0  0  0  0  0  0
    2.6210  -10.6790   -2.7020 C   0  0  0  0  0  0  0  0  0  0  0  0
    3.0000  -10.3280   -4.0010 C   0  0  0  0  0  0  0  0  0  0  0  0
    3.1080  -11.3090   -4.9870 C   0  0  0  0  0  0  0  0  0  0  0  0
    2.8380  -12.6420   -4.6800 C   0  0  0  0  0  0  0  0  0  0  0  0
    2.4600  -12.9970   -3.3840 C   0  0  0  0  0  0  0  0  0  0  0  0
   -0.1680  -15.2460    0.1030 C   0  0  1  0  0  0  0  0  0  0  0  0
   -0.8080  -15.6470   -1.2580 C   0  0  0  0  0  0  0  0  0  0  0  0
    1.0940  -16.1900    0.2380 C   0  0  1  0  0  0  0  0  0  0  0  0
    2.1860  -15.4850    0.8640 O   0  0  0  0  0  0  0  0  0  0  0  0
    3.4360  -15.9380    0.6000 C   0  0  0  0  0  0  0  0  0  0  0  0
    4.0150  -16.8410    1.1860 O   0  0  0  0  0  0  0  0  0  0  0  0
    4.0540  -15.2200   -0.5330 C   0  0  0  0  0  0  0  0  0  0  0  0
    5.0260  -14.3040   -0.4030 C   0  0  0  0  0  0  0  0  0  0  0  0
    5.5880  -13.5520   -1.5310 C   0  0  0  0  0  0  0  0  0  0  0  0
    5.8550  -12.1780   -1.4600 C   0  0  0  0  0  0  0  0  0  0  0  0
    6.3680  -11.4990   -2.5670 C   0  0  0  0  0  0  0  0  0  0  0  0
    6.6100  -12.1820   -3.7580 C   0  0  0  0  0  0  0  0  0  0  0  0
    6.3350  -13.5450   -3.8440 C   0  0  0  0  0  0  0  0  0  0  0  0
    5.8210  -14.2260   -2.7380 C   0  0  0  0  0  0  0  0  0  0  0  0
    0.8200  -17.5270    0.9780 C   0  0  0  0  0  0  0  0  0  0  0  0
   -0.2570  -17.4810    2.0890 C   0  0  2  0  0  0  0  0  0  0  0  0
   -1.5250  -16.9180    1.4710 C   0  0  0  0  0  0  0  0  0  0  0  0
   -1.1270  -15.4420    1.3400 C   0  0  1  0  0  0  0  0  0  0  0  0
   -0.2880  -15.1930    2.5340 O   0  0  0  0  0  0  0  0  0  0  0  0
   -0.0030  -16.4460    3.1910 C   0  0  0  0  0  0  0  0  0  0  0  0
    1.4090  -16.4430    3.7800 C   0  0  0  0  0  0  0  0  0  0  0  0
   -0.9620  -16.5960    4.3900 C   0  0  0  0  0  0  0  0  0  0  0  0
   -2.3400  -14.4390    1.4120 C   0  0  2  0  0  0  0  0  0  0  0  0
   -3.4700  -14.7100    0.4020 C   0  0  0  0  0  0  0  0  0  0  0  0
   -3.0000  -14.6460    2.6830 O   0  0  0  0  0  0  0  0  0  0  0  0
   -3.3229  -10.3992    3.2090 H   0  0  0  0  0  0  0  0  0  0  0  0
   -2.2169  -10.0415    1.8396 H   0  0  0  0  0  0  0  0  0  0  0  0
   -3.1864  -11.5537    1.8396 H   0  0  0  0  0  0  0  0  0  0  0  0
   -2.7611  -12.3545    1.2091 H   0  0  0  0  0  0  0  0  0  0  0  0
   -1.5330  -13.0472   -0.8809 H   0  0  0  0  0  0  0  0  0  0  0  0
   -1.2570  -10.8680    0.3800 H   0  0  0  0  0  0  0  0  0  0  0  0
    0.8086  -13.5086    0.9840 H   0  0  0  0  0  0  0  0  0  0  0  0
    2.5346   -9.9035   -1.9267 H   0  0  0  0  0  0  0  0  0  0  0  0
    3.2133   -9.2771   -4.2460 H   0  0  0  0  0  0  0  0  0  0  0  0
    3.4067  -11.0304   -6.0084 H   0  0  0  0  0  0  0  0  0  0  0  0
    2.9229  -13.4139   -5.4591 H   0  0  0  0  0  0  0  0  0  0  0  0
    2.2468  -14.0492   -3.1443 H   0  0  0  0  0  0  0  0  0  0  0  0
   -1.7272  -16.2229   -1.0754 H   0  0  0  0  0  0  0  0  0  0  0  0
   -1.0514  -14.7396   -1.8302 H   0  0  0  0  0  0  0  0  0  0  0  0
   -0.0977  -16.2618   -1.8302 H   0  0  0  0  0  0  0  0  0  0  0  0
    1.3650  -16.4696   -0.7908 H   0  0  0  0  0  0  0  0  0  0  0  0
    3.6951  -15.4505   -1.5469 H   0  0  0  0  0  0  0  0  0  0  0  0
    5.4230  -14.1061    0.6036 H   0  0  0  0  0  0  0  0  0  0  0  0
    5.6591  -11.6309   -0.5260 H   0  0  0  0  0  0  0  0  0  0  0  0
    6.5818  -10.4221   -2.4992 H   0  0  0  0  0  0  0  0  0  0  0  0
    7.0172  -11.6459   -4.6279 H   0  0  0  0  0  0  0  0  0  0  0  0
    6.5228  -14.0853   -4.7836 H   0  0  0  0  0  0  0  0  0  0  0  0
    5.5972  -15.3002   -2.8147 H   0  0  0  0  0  0  0  0  0  0  0  0
    0.4993  -18.2662    0.2292 H   0  0  0  0  0  0  0  0  0  0  0  0
    1.7608  -17.7810    1.4882 H   0  0  0  0  0  0  0  0  0  0  0  0
   -0.2837  -18.5023    2.4968 H   0  0  0  0  0  0  0  0  0  0  0  0
   -1.7378  -17.3716    0.4917 H   0  0  0  0  0  0  0  0  0  0  0  0
   -2.4423  -17.1002    2.0501 H   0  0  0  0  0  0  0  0  0  0  0  0
    1.3481  -16.4431    4.8783 H   0  0  0  0  0  0  0  0  0  0  0  0
    1.9489  -17.3400    3.4426 H   0  0  0  0  0  0  0  0  0  0  0  0
    1.9451  -15.5437    3.4426 H   0  0  0  0  0  0  0  0  0  0  0  0
   -0.3936  -16.5071    5.3275 H   0  0  0  0  0  0  0  0  0  0  0  0
   -1.7269  -15.8066    4.3487 H   0  0  0  0  0  0  0  0  0  0  0  0
   -1.4493  -17.5813    4.3487 H   0  0  0  0  0  0  0  0  0  0  0  0
   -4.4007  -14.9332    0.9442 H   0  0  0  0  0  0  0  0  0  0  0  0
   -3.6178  -13.8218   -0.2299 H   0  0  0  0  0  0  0  0  0  0  0  0
   -3.1989  -15.5686   -0.2299 H   0  0  0  0  0  0  0  0  0  0  0  0
   -3.0770  -15.6090    2.8460 H   0  0  0  0  0  0  0  0  0  0  0  0
  1  2  1  0
  2  3  2  0
  2  4  1  0
  4  5  1  0
  5  6  1  0
  6  7  1  0
  6  8  1  0
  8  9  1  0
  9 10  1  0
 10 11  2  0
 10 12  1  0
 12 13  2  0
 13 14  1  0
 14 15  2  0
 15 16  1  0
 16 17  2  0
  8 18  1  0
 18 19  1  6
 18 20  1  0
 20 21  1  0
 21 22  1  0
 22 23  2  0
 22 24  1  0
 24 25  2  0
 25 26  1  0
 26 27  2  0
 27 28  1  0
 28 29  2  0
 29 30  1  0
 30 31  2  0
 20 32  1  0
 32 33  1  0
 33 34  1  0
 34 35  1  0
 35 36  1  1
 36 37  1  0
 37 38  1  0
 37 39  1  0
 35 40  1  0
 40 41  1  0
 40 42  1  1
 40  5  1  0
 17 12  1  0
 35 18  1  0
 31 26  1  0
 37 33  1  0
  1 43  1  0
  1 44  1  0
  1 45  1  0
  5 46  1  6
  6 47  1  6
  7 48  1  0
  8 49  1  1
 13 50  1  0
 14 51  1  0
 15 52  1  0
 16 53  1  0
 17 54  1  0
 19 55  1  0
 19 56  1  0
 19 57  1  0
 20 58  1  6
 24 59  1  0
 25 60  1  0
 27 61  1  0
 28 62  1  0
 29 63  1  0
 30 64  1  0
 31 65  1  0
 32 66  1  0
 32 67  1  0
 33 68  1  1
 34 69  1  0
 34 70  1  0
 38 71  1  0
 38 72  1  0
 38 73  1  0
 39 74  1  0
 39 75  1  0
 39 76  1  0
 41 77  1  0
 41 78  1  0
 41 79  1  0
 42 80  1  0
M  END
>  <meeko>  (2) 
{"is_sidechain": [false], "free_energy": -7.058, "intermolecular_energy": -11.61, "internal_energy": -4.096}

$$$$
LIB_RPIUOWOTQONAKE__M_PUB_ALL__e8__s20260927
     RDKit          3D

 80 84  0  0  0  0  0  0  0  0999 V2000
    2.0220  -13.7510   -4.7700 C   0  0  0  0  0  0  0  0  0  0  0  0
    3.5160  -13.7670   -4.8380 C   0  0  0  0  0  0  0  0  0  0  0  0
    4.1700  -13.7020   -5.8710 O   0  0  0  0  0  0  0  0  0  0  0  0
    4.0440  -13.8890   -3.5950 O   0  0  0  0  0  0  0  0  0  0  0  0
    4.6340  -15.1720   -3.2530 C   0  0  1  0  0  0  0  0  0  0  0  0
    6.1320  -14.9040   -3.0070 C   0  0  1  0  0  0  0  0  0  0  0  0
    6.7000  -14.3440   -4.2010 O   0  0  0  0  0  0  0  0  0  0  0  0
    6.3380  -13.9850   -1.7740 C   0  0  2  0  0  0  0  0  0  0  0  0
    7.7450  -13.7010   -1.5820 O   0  0  0  0  0  0  0  0  0  0  0  0
    8.2830  -12.7920   -2.4360 C   0  0  0  0  0  0  0  0  0  0  0  0
    7.7120  -11.7970   -2.8620 O   0  0  0  0  0  0  0  0  0  0  0  0
    9.6900  -13.1370   -2.7630 C   0  0  0  0  0  0  0  0  0  0  0  0
   10.1760  -14.4500   -2.6980 C   0  0  0  0  0  0  0  0  0  0  0  0
   11.5140  -14.7180   -3.0000 C   0  0  0  0  0  0  0  0  0  0  0  0
   12.3700  -13.6790   -3.3660 C   0  0  0  0  0  0  0  0  0  0  0  0
   11.8930  -12.3700   -3.4290 C   0  0  0  0  0  0  0  0  0  0  0  0
   10.5570  -12.0980   -3.1290 C   0  0  0  0  0  0  0  0  0  0  0  0
    5.7660  -14.6170   -0.4590 C   0  0  1  0  0  0  0  0  0  0  0  0
    6.6290  -15.8470   -0.0520 C   0  0  0  0  0  0  0  0  0  0  0  0
    5.9060  -13.6180    0.7590 C   0  0  1  0  0  0  0  0  0  0  0  0
    5.9460  -12.2540    0.2900 O   0  0  0  0  0  0  0  0  0  0  0  0
    6.6180  -11.3640    1.0600 C   0  0  0  0  0  0  0  0  0  0  0  0
    6.1530  -10.7180    1.9880 O   0  0  0  0  0  0  0  0  0  0  0  0
    8.0380  -11.2590    0.6690 C   0  0  0  0  0  0  0  0  0  0  0  0
    9.0300  -11.9570    1.2440 C   0  0  0  0  0  0  0  0  0  0  0  0
   10.4450  -11.7970    0.8880 C   0  0  0  0  0  0  0  0  0  0  0  0
   11.0750  -10.5460    0.8590 C   0  0  0  0  0  0  0  0  0  0  0  0
   12.4180  -10.4380    0.4930 C   0  0  0  0  0  0  0  0  0  0  0  0
   13.1420  -11.5770    0.1440 C   0  0  0  0  0  0  0  0  0  0  0  0
   12.5220  -12.8240    0.1560 C   0  0  0  0  0  0  0  0  0  0  0  0
   11.1780  -12.9330    0.5210 C   0  0  0  0  0  0  0  0  0  0  0  0
    4.8140  -13.7800    1.8510 C   0  0  0  0  0  0  0  0  0  0  0  0
    3.4210  -14.2380    1.3580 C   0  0  2  0  0  0  0  0  0  0  0  0
    3.6140  -15.5220    0.5710 C   0  0  0  0  0  0  0  0  0  0  0  0
    4.2470  -14.9600   -0.7090 C   0  0  1  0  0  0  0  0  0  0  0  0
    3.5730  -13.6550   -0.8940 O   0  0  0  0  0  0  0  0  0  0  0  0
    2.7930  -13.3450    0.2800 C   0  0  0  0  0  0  0  0  0  0  0  0
    2.8190  -11.8430    0.5710 C   0  0  0  0  0  0  0  0  0  0  0  0
    1.3190  -13.6960   -0.0070 C   0  0  0  0  0  0  0  0  0  0  0  0
    3.9570  -15.8150   -2.0000 C   0  0  2  0  0  0  0  0  0  0  0  0
    4.3490  -17.3000   -1.8990 C   0  0  0  0  0  0  0  0  0  0  0  0
    2.5210  -15.8810   -2.1650 O   0  0  0  0  0  0  0  0  0  0  0  0
    1.7029  -13.7476   -3.7173 H   0  0  0  0  0  0  0  0  0  0  0  0
    1.6418  -12.8487   -5.2713 H   0  0  0  0  0  0  0  0  0  0  0  0
    1.6225  -14.6449   -5.2713 H   0  0  0  0  0  0  0  0  0  0  0  0
    4.4854  -15.8961   -4.0676 H   0  0  0  0  0  0  0  0  0  0  0  0
    6.6494  -15.8473   -2.7778 H   0  0  0  0  0  0  0  0  0  0  0  0
    6.5540  -14.9830   -4.9290 H   0  0  0  0  0  0  0  0  0  0  0  0
    5.7871  -13.0554   -1.9798 H   0  0  0  0  0  0  0  0  0  0  0  0
    9.5033  -15.2709   -2.4088 H   0  0  0  0  0  0  0  0  0  0  0  0
   11.8926  -15.7495   -2.9490 H   0  0  0  0  0  0  0  0  0  0  0  0
   13.4223  -13.8924   -3.6051 H   0  0  0  0  0  0  0  0  0  0  0  0
   12.5698  -11.5515   -3.7152 H   0  0  0  0  0  0  0  0  0  0  0  0
   10.1833  -11.0647   -3.1800 H   0  0  0  0  0  0  0  0  0  0  0  0
    6.6765  -15.9147    1.0449 H   0  0  0  0  0  0  0  0  0  0  0  0
    6.1749  -16.7636   -0.4566 H   0  0  0  0  0  0  0  0  0  0  0  0
    7.6454  -15.7318   -0.4566 H   0  0  0  0  0  0  0  0  0  0  0  0
    6.8569  -13.8785    1.2468 H   0  0  0  0  0  0  0  0  0  0  0  0
    8.2992  -10.5657   -0.1441 H   0  0  0  0  0  0  0  0  0  0  0  0
    8.7686  -12.6878    2.0235 H   0  0  0  0  0  0  0  0  0  0  0  0
   10.5075   -9.6424    1.1265 H   0  0  0  0  0  0  0  0  0  0  0  0
   12.9058   -9.4522    0.4800 H   0  0  0  0  0  0  0  0  0  0  0  0
   14.2011  -11.4910   -0.1404 H   0  0  0  0  0  0  0  0  0  0  0  0
   13.0909  -13.7235   -0.1221 H   0  0  0  0  0  0  0  0  0  0  0  0
   10.6911  -13.9193    0.5202 H   0  0  0  0  0  0  0  0  0  0  0  0
    5.1738  -14.5224    2.5785 H   0  0  0  0  0  0  0  0  0  0  0  0
    4.6632  -12.7740    2.2695 H   0  0  0  0  0  0  0  0  0  0  0  0
    2.7995  -14.2706    2.2650 H   0  0  0  0  0  0  0  0  0  0  0  0
    4.2895  -16.2195    1.0878 H   0  0  0  0  0  0  0  0  0  0  0  0
    2.6979  -16.1104    0.4141 H   0  0  0  0  0  0  0  0  0  0  0  0
    2.8218  -11.6803    1.6589 H   0  0  0  0  0  0  0  0  0  0  0  0
    3.7249  -11.4000    0.1316 H   0  0  0  0  0  0  0  0  0  0  0  0
    1.9289  -11.3689    0.1316 H   0  0  0  0  0  0  0  0  0  0  0  0
    0.7808  -13.8242    0.9437 H   0  0  0  0  0  0  0  0  0  0  0  0
    0.8544  -12.8834   -0.5847 H   0  0  0  0  0  0  0  0  0  0  0  0
    1.2705  -14.6308   -0.5847 H   0  0  0  0  0  0  0  0  0  0  0  0
    4.4250  -17.5880   -0.8401 H   0  0  0  0  0  0  0  0  0  0  0  0
    3.5827  -17.9159   -2.3924 H   0  0  0  0  0  0  0  0  0  0  0  0
    5.3195  -17.4574   -2.3924 H   0  0  0  0  0  0  0  0  0  0  0  0
    2.1480  -14.9830   -2.0450 H   0  0  0  0  0  0  0  0  0  0  0  0
  1  2  1  0
  2  3  2  0
  2  4  1  0
  4  5  1  0
  5  6  1  0
  6  7  1  0
  6  8  1  0
  8  9  1  0
  9 10  1  0
 10 11  2  0
 10 12  1  0
 12 13  2  0
 13 14  1  0
 14 15  2  0
 15 16  1  0
 16 17  2  0
  8 18  1  0
 18 19  1  1
 18 20  1  0
 20 21  1  0
 21 22  1  0
 22 23  2  0
 22 24  1  0
 24 25  2  0
 25 26  1  0
 26 27  2  0
 27 28  1  0
 28 29  2  0
 29 30  1  0
 30 31  2  0
 20 32  1  0
 32 33  1  0
 33 34  1  0
 34 35  1  0
 35 36  1  6
 36 37  1  0
 37 38  1  0
 37 39  1  0
 35 40  1  0
 40 41  1  0
 40 42  1  6
 40  5  1  0
 17 12  1  0
 35 18  1  0
 31 26  1  0
 37 33  1  0
  1 43  1  0
  1 44  1  0
  1 45  1  0
  5 46  1  6
  6 47  1  1
  7 48  1  0
  8 49  1  6
 13 50  1  0
 14 51  1  0
 15 52  1  0
 16 53  1  0
 17 54  1  0
 19 55  1  0
 19 56  1  0
 19 57  1  0
 20 58  1  1
 24 59  1  0
 25 60  1  0
 27 61  1  0
 28 62  1  0
 29 63  1  0
 30 64  1  0
 31 65  1  0
 32 66  1  0
 32 67  1  0
 33 68  1  1
 34 69  1  0
 34 70  1  0
 38 71  1  0
 38 72  1  0
 38 73  1  0
 39 74  1  0
 39 75  1  0
 39 76  1  0
 41 77  1  0
 41 78  1  0
 41 79  1  0
 42 80  1  0
M  END
>  <meeko>  (3) 
{"is_sidechain": [false], "free_energy": -7.006, "intermolecular_energy": -11.705, "internal_energy": -3.918}

$$$$
LIB_RPIUOWOTQONAKE__M_PUB_ALL__e8__s20260927
     RDKit          3D

 80 84  0  0  0  0  0  0  0  0999 V2000
    4.7730  -12.8780   -6.3240 C   0  0  0  0  0  0  0  0  0  0  0  0
    4.1800  -11.9970   -5.2710 C   0  0  0  0  0  0  0  0  0  0  0  0
    3.5760  -10.9540   -5.4880 O   0  0  0  0  0  0  0  0  0  0  0  0
    4.4300  -12.5030   -4.0370 O   0  0  0  0  0  0  0  0  0  0  0  0
    4.8220  -11.5590   -3.0050 C   0  0  1  0  0  0  0  0  0  0  0  0
    3.6930  -11.5770   -1.9540 C   0  0  1  0  0  0  0  0  0  0  0  0
    2.4630  -11.2040   -2.5960 O   0  0  0  0  0  0  0  0  0  0  0  0
    3.5960  -12.9640   -1.2660 C   0  0  2  0  0  0  0  0  0  0  0  0
    2.5020  -12.9850   -0.3170 O   0  0  0  0  0  0  0  0  0  0  0  0
    1.3320  -13.4960   -0.7800 C   0  0  0  0  0  0  0  0  0  0  0  0
    1.1580  -13.9690   -1.8950 O   0  0  0  0  0  0  0  0  0  0  0  0
    0.2800  -13.4470    0.2670 C   0  0  0  0  0  0  0  0  0  0  0  0
   -0.8780  -14.2350    0.2060 C   0  0  0  0  0  0  0  0  0  0  0  0
   -1.8450  -14.1380    1.2100 C   0  0  0  0  0  0  0  0  0  0  0  0
   -1.6620  -13.2550    2.2750 C   0  0  0  0  0  0  0  0  0  0  0  0
   -0.5130  -12.4670    2.3390 C   0  0  0  0  0  0  0  0  0  0  0  0
    0.4560  -12.5610    1.3400 C   0  0  0  0  0  0  0  0  0  0  0  0
    4.9190  -13.3520   -0.5210 C   0  0  1  0  0  0  0  0  0  0  0  0
    5.1120  -12.4260    0.7170 C   0  0  0  0  0  0  0  0  0  0  0  0
    4.8220  -14.8080    0.0890 C   0  0  1  0  0  0  0  0  0  0  0  0
    3.8720  -15.6020   -0.6510 O   0  0  0  0  0  0  0  0  0  0  0  0
    3.2370  -16.5870    0.0310 C   0  0  0  0  0  0  0  0  0  0  0  0
    3.1320  -17.7530   -0.3190 O   0  0  0  0  0  0  0  0  0  0  0  0
    2.6790  -16.1010    1.3080 C   0  0  0  0  0  0  0  0  0  0  0  0
    1.5700  -16.5950    1.8810 C   0  0  0  0  0  0  0  0  0  0  0  0
    0.9910  -16.0610    3.1190 C   0  0  0  0  0  0  0  0  0  0  0  0
   -0.2670  -16.4580    3.5920 C   0  0  0  0  0  0  0  0  0  0  0  0
   -0.7890  -15.9050    4.7640 C   0  0  0  0  0  0  0  0  0  0  0  0
   -0.0650  -14.9450    5.4690 C   0  0  0  0  0  0  0  0  0  0  0  0
    1.1810  -14.5330    5.0000 C   0  0  0  0  0  0  0  0  0  0  0  0
    1.7040  -15.0840    3.8280 C   0  0  0  0  0  0  0  0  0  0  0  0
    6.1810  -15.5520    0.1940 C   0  0  0  0  0  0  0  0  0  0  0  0
    7.2250  -15.2180   -0.8990 C   0  0  2  0  0  0  0  0  0  0  0  0
    7.4160  -13.7120   -0.9020 C   0  0  0  0  0  0  0  0  0  0  0  0
    6.1000  -13.2760   -1.5620 C   0  0  1  0  0  0  0  0  0  0  0  0
    5.8270  -14.3470   -2.5480 O   0  0  0  0  0  0  0  0  0  0  0  0
    6.7450  -15.4400   -2.3390 C   0  0  0  0  0  0  0  0  0  0  0  0
    6.0640  -16.7830   -2.6070 C   0  0  0  0  0  0  0  0  0  0  0  0
    7.8820  -15.3270   -3.3750 C   0  0  0  0  0  0  0  0  0  0  0  0
    6.2000  -11.9250   -2.3660 C   0  0  2  0  0  0  0  0  0  0  0  0
    6.7380  -10.7280   -1.5620 C   0  0  0  0  0  0  0  0  0  0  0  0
    7.2120  -12.0980   -3.3850 O   0  0  0  0  0  0  0  0  0  0  0  0
    5.3261  -13.6998   -5.8457 H   0  0  0  0  0  0  0  0  0  0  0  0
    3.9694  -13.2926   -6.9504 H   0  0  0  0  0  0  0  0  0  0  0  0
    5.4596  -12.2896   -6.9504 H   0  0  0  0  0  0  0  0  0  0  0  0
    4.9564  -10.5539   -3.4312 H   0  0  0  0  0  0  0  0  0  0  0  0
    3.9106  -10.8514   -1.1564 H   0  0  0  0  0  0  0  0  0  0  0  0
    2.6430  -10.4180   -3.1520 H   0  0  0  0  0  0  0  0  0  0  0  0
    3.4199  -13.6991   -2.0652 H   0  0  0  0  0  0  0  0  0  0  0  0
   -1.0255  -14.9305   -0.6333 H   0  0  0  0  0  0  0  0  0  0  0  0
   -2.7519  -14.7586    1.1608 H   0  0  0  0  0  0  0  0  0  0  0  0
   -2.4244  -13.1804    3.0644 H   0  0  0  0  0  0  0  0  0  0  0  0
   -0.3707  -11.7705    3.1784 H   0  0  0  0  0  0  0  0  0  0  0  0
    1.3611  -11.9382    1.3939 H   0  0  0  0  0  0  0  0  0  0  0  0
    4.9893  -13.0148    1.6380 H   0  0  0  0  0  0  0  0  0  0  0  0
    6.1207  -11.9880    0.6935 H   0  0  0  0  0  0  0  0  0  0  0  0
    4.3622  -11.6214    0.6935 H   0  0  0  0  0  0  0  0  0  0  0  0
    4.4759  -14.6722    1.1243 H   0  0  0  0  0  0  0  0  0  0  0  0
    3.2046  -15.2830    1.8223 H   0  0  0  0  0  0  0  0  0  0  0  0
    1.0685  -17.4457    1.3964 H   0  0  0  0  0  0  0  0  0  0  0  0
   -0.8472  -17.2099    3.0369 H   0  0  0  0  0  0  0  0  0  0  0  0
   -1.7742  -16.2281    5.1314 H   0  0  0  0  0  0  0  0  0  0  0  0
   -0.4762  -14.5135    6.3935 H   0  0  0  0  0  0  0  0  0  0  0  0
    1.7529  -13.7734    5.5532 H   0  0  0  0  0  0  0  0  0  0  0  0
    2.6840  -14.7484    3.4579 H   0  0  0  0  0  0  0  0  0  0  0  0
    6.6250  -15.3053    1.1697 H   0  0  0  0  0  0  0  0  0  0  0  0
    5.9456  -16.6184    0.0625 H   0  0  0  0  0  0  0  0  0  0  0  0
    8.0915  -15.8532   -0.6631 H   0  0  0  0  0  0  0  0  0  0  0  0
    7.5134  -13.3111    0.1177 H   0  0  0  0  0  0  0  0  0  0  0  0
    8.3266  -13.3621   -1.4102 H   0  0  0  0  0  0  0  0  0  0  0  0
    5.8186  -17.2670   -1.6502 H   0  0  0  0  0  0  0  0  0  0  0  0
    5.1408  -16.6177   -3.1818 H   0  0  0  0  0  0  0  0  0  0  0  0
    6.7429  -17.4301   -3.1818 H   0  0  0  0  0  0  0  0  0  0  0  0
    8.8455  -15.2312   -2.8530 H   0  0  0  0  0  0  0  0  0  0  0  0
    7.8945  -16.2283   -4.0054 H   0  0  0  0  0  0  0  0  0  0  0  0
    7.7169  -14.4408   -4.0054 H   0  0  0  0  0  0  0  0  0  0  0  0
    6.6441  -10.9370   -0.4861 H   0  0  0  0  0  0  0  0  0  0  0  0
    7.7964  -10.5639   -1.8126 H   0  0  0  0  0  0  0  0  0  0  0  0
    6.1580   -9.8275   -1.8126 H   0  0  0  0  0  0  0  0  0  0  0  0
    7.6200  -12.9830   -3.2770 H   0  0  0  0  0  0  0  0  0  0  0  0
  1  2  1  0
  2  3  2  0
  2  4  1  0
  4  5  1  0
  5  6  1  0
  6  7  1  0
  6  8  1  0
  8  9  1  0
  9 10  1  0
 10 11  2  0
 10 12  1  0
 12 13  2  0
 13 14  1  0
 14 15  2  0
 15 16  1  0
 16 17  2  0
  8 18  1  0
 18 19  1  1
 18 20  1  0
 20 21  1  0
 21 22  1  0
 22 23  2  0
 22 24  1  0
 24 25  2  0
 25 26  1  0
 26 27  2  0
 27 28  1  0
 28 29  2  0
 29 30  1  0
 30 31  2  0
 20 32  1  0
 32 33  1  0
 33 34  1  0
 34 35  1  0
 35 36  1  6
 36 37  1  0
 37 38  1  0
 37 39  1  0
 35 40  1  0
 40 41  1  0
 40 42  1  6
 40  5  1  0
 17 12  1  0
 35 18  1  0
 31 26  1  0
 37 33  1  0
  1 43  1  0
  1 44  1  0
  1 45  1  0
  5 46  1  6
  6 47  1  1
  7 48  1  0
  8 49  1  6
 13 50  1  0
 14 51  1  0
 15 52  1  0
 16 53  1  0
 17 54  1  0
 19 55  1  0
 19 56  1  0
 19 57  1  0
 20 58  1  1
 24 59  1  0
 25 60  1  0
 27 61  1  0
 28 62  1  0
 29 63  1  0
 30 64  1  0
 31 65  1  0
 32 66  1  0
 32 67  1  0
 33 68  1  1
 34 69  1  0
 34 70  1  0
 38 71  1  0
 38 72  1  0
 38 73  1  0
 39 74  1  0
 39 75  1  0
 39 76  1  0
 41 77  1  0
 41 78  1  0
 41 79  1  0
 42 80  1  0
M  END
>  <meeko>  (4) 
{"is_sidechain": [false], "free_energy": -6.796, "intermolecular_energy": -10.598, "internal_energy": -4.693}

$$$$
LIB_RPIUOWOTQONAKE__M_PUB_ALL__e8__s20260927
     RDKit          3D

 80 84  0  0  0  0  0  0  0  0999 V2000
    3.3490  -10.8060   -4.5840 C   0  0  0  0  0  0  0  0  0  0  0  0
    4.3830  -11.8440   -4.2830 C   0  0  0  0  0  0  0  0  0  0  0  0
    5.3710  -12.0680   -4.9710 O   0  0  0  0  0  0  0  0  0  0  0  0
    4.0560  -12.5210   -3.1530 O   0  0  0  0  0  0  0  0  0  0  0  0
    4.4390  -11.9150   -1.8900 C   0  0  1  0  0  0  0  0  0  0  0  0
    3.2660  -12.1650   -0.9200 C   0  0  1  0  0  0  0  0  0  0  0  0
    2.0800  -11.5720   -1.4730 O   0  0  0  0  0  0  0  0  0  0  0  0
    3.0860  -13.6810   -0.6430 C   0  0  2  0  0  0  0  0  0  0  0  0
    1.9520  -13.9060    0.2290 O   0  0  0  0  0  0  0  0  0  0  0  0
    0.7500  -14.0320   -0.3910 C   0  0  0  0  0  0  0  0  0  0  0  0
    0.5870  -14.3410   -1.5640 O   0  0  0  0  0  0  0  0  0  0  0  0
   -0.3660  -13.7840    0.5570 C   0  0  0  0  0  0  0  0  0  0  0  0
   -0.1580  -13.2710    1.8440 C   0  0  0  0  0  0  0  0  0  0  0  0
   -1.2420  -13.0720    2.7030 C   0  0  0  0  0  0  0  0  0  0  0  0
   -2.5340  -13.3840    2.2820 C   0  0  0  0  0  0  0  0  0  0  0  0
   -2.7480  -13.8980    1.0030 C   0  0  0  0  0  0  0  0  0  0  0  0
   -1.6680  -14.0970    0.1420 C   0  0  0  0  0  0  0  0  0  0  0  0
    4.3600  -14.3210    0.0080 C   0  0  1  0  0  0  0  0  0  0  0  0
    4.5340  -13.7790    1.4570 C   0  0  0  0  0  0  0  0  0  0  0  0
    4.1810  -15.8820    0.1900 C   0  0  1  0  0  0  0  0  0  0  0  0
    3.2340  -16.3960   -0.7680 O   0  0  0  0  0  0  0  0  0  0  0  0
    2.6310  -17.5700   -0.4610 C   0  0  0  0  0  0  0  0  0  0  0  0
    2.8130  -18.6420   -1.0200 O   0  0  0  0  0  0  0  0  0  0  0  0
    1.7070  -17.4320    0.6820 C   0  0  0  0  0  0  0  0  0  0  0  0
    0.3690  -17.4620    0.5760 C   0  0  0  0  0  0  0  0  0  0  0  0
   -0.5380  -17.2600    1.7120 C   0  0  0  0  0  0  0  0  0  0  0  0
   -1.9170  -17.4900    1.6220 C   0  0  0  0  0  0  0  0  0  0  0  0
   -2.7470  -17.2630    2.7230 C   0  0  0  0  0  0  0  0  0  0  0  0
   -2.2080  -16.7940    3.9200 C   0  0  0  0  0  0  0  0  0  0  0  0
   -0.8400  -16.5490    4.0160 C   0  0  0  0  0  0  0  0  0  0  0  0
   -0.0100  -16.7750    2.9160 C   0  0  0  0  0  0  0  0  0  0  0  0
    5.5050  -16.6910    0.1290 C   0  0  0  0  0  0  0  0  0  0  0  0
    6.6070  -16.1220   -0.7970 C   0  0  2  0  0  0  0  0  0  0  0  0
    6.8560  -14.6840   -0.3800 C   0  0  0  0  0  0  0  0  0  0  0  0
    5.5870  -14.0210   -0.9350 C   0  0  1  0  0  0  0  0  0  0  0  0
    5.3160  -14.7670   -2.1860 O   0  0  0  0  0  0  0  0  0  0  0  0
    6.1820  -15.9190   -2.2560 C   0  0  0  0  0  0  0  0  0  0  0  0
    5.4630  -17.1030   -2.9040 C   0  0  0  0  0  0  0  0  0  0  0  0
    7.3670  -15.5820   -3.1850 C   0  0  0  0  0  0  0  0  0  0  0  0
    5.7730  -12.5080   -1.3330 C   0  0  2  0  0  0  0  0  0  0  0  0
    6.3210  -11.6030   -0.2150 C   0  0  0  0  0  0  0  0  0  0  0  0
    6.8210  -12.4450   -2.3280 O   0  0  0  0  0  0  0  0  0  0  0  0
    2.9482  -10.4037   -3.6419 H   0  0  0  0  0  0  0  0  0  0  0  0
    3.8055   -9.9916   -5.1657 H   0  0  0  0  0  0  0  0  0  0  0  0
    2.5329  -11.2593   -5.1657 H   0  0  0  0  0  0  0  0  0  0  0  0
    4.6301  -10.8395   -2.0197 H   0  0  0  0  0  0  0  0  0  0  0  0
    3.4769  -11.6966    0.0527 H   0  0  0  0  0  0  0  0  0  0  0  0
    2.3560  -10.9790   -2.2040 H   0  0  0  0  0  0  0  0  0  0  0  0
    2.9166  -14.1613   -1.6180 H   0  0  0  0  0  0  0  0  0  0  0  0
    0.8604  -13.0245    2.1788 H   0  0  0  0  0  0  0  0  0  0  0  0
   -1.0758  -12.6686    3.7128 H   0  0  0  0  0  0  0  0  0  0  0  0
   -3.3859  -13.2246    2.9594 H   0  0  0  0  0  0  0  0  0  0  0  0
   -3.7676  -14.1463    0.6733 H   0  0  0  0  0  0  0  0  0  0  0  0
   -1.8390  -14.5012   -0.8667 H   0  0  0  0  0  0  0  0  0  0  0  0
    4.2799  -14.5704    2.1775 H   0  0  0  0  0  0  0  0  0  0  0  0
    5.5777  -13.4663    1.6087 H   0  0  0  0  0  0  0  0  0  0  0  0
    3.8674  -12.9173    1.6087 H   0  0  0  0  0  0  0  0  0  0  0  0
    3.7956  -16.0184    1.2112 H   0  0  0  0  0  0  0  0  0  0  0  0
    2.1420  -17.2961    1.6832 H   0  0  0  0  0  0  0  0  0  0  0  0
   -0.0709  -17.6479   -0.4149 H   0  0  0  0  0  0  0  0  0  0  0  0
   -2.3496  -17.8520    0.6776 H   0  0  0  0  0  0  0  0  0  0  0  0
   -3.8274  -17.4547    2.6450 H   0  0  0  0  0  0  0  0  0  0  0  0
   -2.8616  -16.6177    4.7870 H   0  0  0  0  0  0  0  0  0  0  0  0
   -0.4132  -16.1772    4.9592 H   0  0  0  0  0  0  0  0  0  0  0  0
    1.0679  -16.5705    2.9953 H   0  0  0  0  0  0  0  0  0  0  0  0
    5.9154  -16.7418    1.1483 H   0  0  0  0  0  0  0  0  0  0  0  0
    5.2354  -17.6684   -0.2976 H   0  0  0  0  0  0  0  0  0  0  0  0
    7.4376  -16.8389   -0.7179 H   0  0  0  0  0  0  0  0  0  0  0  0
    6.9249  -14.5822    0.7131 H   0  0  0  0  0  0  0  0  0  0  0  0
    7.8005  -14.2533   -0.7440 H   0  0  0  0  0  0  0  0  0  0  0  0
    5.0625  -17.7625   -2.1200 H   0  0  0  0  0  0  0  0  0  0  0  0
    4.6370  -16.7329   -3.5291 H   0  0  0  0  0  0  0  0  0  0  0  0
    6.1723  -17.6653   -3.5291 H   0  0  0  0  0  0  0  0  0  0  0  0
    8.2492  -15.3311   -2.5777 H   0  0  0  0  0  0  0  0  0  0  0  0
    7.5940  -16.4512   -3.8198 H   0  0  0  0  0  0  0  0  0  0  0  0
    7.1026  -14.7234   -3.8198 H   0  0  0  0  0  0  0  0  0  0  0  0
    6.0614  -12.0318    0.7642 H   0  0  0  0  0  0  0  0  0  0  0  0
    7.4149  -11.5304   -0.3051 H   0  0  0  0  0  0  0  0  0  0  0  0
    5.8784  -10.6000   -0.3051 H   0  0  0  0  0  0  0  0  0  0  0  0
    6.6700  -11.6620   -2.8970 H   0  0  0  0  0  0  0  0  0  0  0  0
  1  2  1  0
  2  3  2  0
  2  4  1  0
  4  5  1  0
  5  6  1  0
  6  7  1  0
  6  8  1  0
  8  9  1  0
  9 10  1  0
 10 11  2  0
 10 12  1  0
 12 13  2  0
 13 14  1  0
 14 15  2  0
 15 16  1  0
 16 17  2  0
  8 18  1  0
 18 19  1  1
 18 20  1  0
 20 21  1  0
 21 22  1  0
 22 23  2  0
 22 24  1  0
 24 25  2  0
 25 26  1  0
 26 27  2  0
 27 28  1  0
 28 29  2  0
 29 30  1  0
 30 31  2  0
 20 32  1  0
 32 33  1  0
 33 34  1  0
 34 35  1  0
 35 36  1  6
 36 37  1  0
 37 38  1  0
 37 39  1  0
 35 40  1  0
 40 41  1  0
 40 42  1  6
 40  5  1  0
 17 12  1  0
 35 18  1  0
 31 26  1  0
 37 33  1  0
  1 43  1  0
  1 44  1  0
  1 45  1  0
  5 46  1  6
  6 47  1  1
  7 48  1  0
  8 49  1  6
 13 50  1  0
 14 51  1  0
 15 52  1  0
 16 53  1  0
 17 54  1  0
 19 55  1  0
 19 56  1  0
 19 57  1  0
 20 58  1  1
 24 59  1  0
 25 60  1  0
 27 61  1  0
 28 62  1  0
 29 63  1  0
 30 64  1  0
 31 65  1  0
 32 66  1  0
 32 67  1  0
 33 68  1  6
 34 69  1  0
 34 70  1  0
 38 71  1  0
 38 72  1  0
 38 73  1  0
 39 74  1  0
 39 75  1  0
 39 76  1  0
 41 77  1  0
 41 78  1  0
 41 79  1  0
 42 80  1  0
M  END
>  <meeko>  (5) 
{"is_sidechain": [false], "free_energy": -6.779, "intermolecular_energy": -10.646, "internal_energy": -4.618}

$$$$
LIB_RPIUOWOTQONAKE__M_PUB_ALL__e8__s20260927
     RDKit          3D

 80 84  0  0  0  0  0  0  0  0999 V2000
    3.1120  -17.9880   -0.5960 C   0  0  0  0  0  0  0  0  0  0  0  0
    2.7120  -16.5490   -0.6780 C   0  0  0  0  0  0  0  0  0  0  0  0
    1.5750  -16.1270   -0.5050 O   0  0  0  0  0  0  0  0  0  0  0  0
    3.7820  -15.7790   -0.9980 O   0  0  0  0  0  0  0  0  0  0  0  0
    4.1390  -14.7270   -0.0620 C   0  0  1  0  0  0  0  0  0  0  0  0
    5.6590  -14.8530    0.1680 C   0  0  1  0  0  0  0  0  0  0  0  0
    5.9360  -16.1630    0.6880 O   0  0  0  0  0  0  0  0  0  0  0  0
    6.4460  -14.5650   -1.1380 C   0  0  2  0  0  0  0  0  0  0  0  0
    7.8670  -14.7350   -0.9220 O   0  0  0  0  0  0  0  0  0  0  0  0
    8.4020  -15.8850   -1.4080 C   0  0  0  0  0  0  0  0  0  0  0  0
    7.7640  -16.8540   -1.7940 O   0  0  0  0  0  0  0  0  0  0  0  0
    9.8850  -15.8040   -1.4520 C   0  0  0  0  0  0  0  0  0  0  0  0
   10.6740  -16.7910   -2.0570 C   0  0  0  0  0  0  0  0  0  0  0  0
   12.0660  -16.6740   -2.0560 C   0  0  0  0  0  0  0  0  0  0  0  0
   12.6750  -15.5750   -1.4500 C   0  0  0  0  0  0  0  0  0  0  0  0
   11.8960  -14.5910   -0.8420 C   0  0  0  0  0  0  0  0  0  0  0  0
   10.5050  -14.7030   -0.8430 C   0  0  0  0  0  0  0  0  0  0  0  0
    6.1850  -13.1180   -1.6810 C   0  0  1  0  0  0  0  0  0  0  0  0
    6.8280  -12.0760   -0.7180 C   0  0  0  0  0  0  0  0  0  0  0  0
    6.9250  -12.8880   -3.0600 C   0  0  1  0  0  0  0  0  0  0  0  0
    7.1270  -14.1430   -3.7390 O   0  0  0  0  0  0  0  0  0  0  0  0
    8.0670  -14.1650   -4.7160 C   0  0  0  0  0  0  0  0  0  0  0  0
    7.9180  -14.5930   -5.8510 O   0  0  0  0  0  0  0  0  0  0  0  0
    9.3420  -13.5730   -4.2650 C   0  0  0  0  0  0  0  0  0  0  0  0
   10.5410  -13.8870   -4.7800 C   0  0  0  0  0  0  0  0  0  0  0  0
   11.8070  -13.3370   -4.2800 C   0  0  0  0  0  0  0  0  0  0  0  0
   11.8580  -12.2450   -3.4050 C   0  0  0  0  0  0  0  0  0  0  0  0
   13.0870  -11.7410   -2.9730 C   0  0  0  0  0  0  0  0  0  0  0  0
   14.2760  -12.3160   -3.4190 C   0  0  0  0  0  0  0  0  0  0  0  0
   14.2370  -13.3940   -4.3010 C   0  0  0  0  0  0  0  0  0  0  0  0
   13.0090  -13.8990   -4.7340 C   0  0  0  0  0  0  0  0  0  0  0  0
    6.2240  -11.8710   -4.0020 C   0  0  0  0  0  0  0  0  0  0  0  0
    4.6800  -11.8120   -3.9110 C   0  0  2  0  0  0  0  0  0  0  0  0
    4.3190  -11.5620   -2.4570 C   0  0  0  0  0  0  0  0  0  0  0  0
    4.6290  -12.9420   -1.8620 C   0  0  1  0  0  0  0  0  0  0  0  0
    4.2480  -13.8860   -2.9380 O   0  0  0  0  0  0  0  0  0  0  0  0
    3.9680  -13.1490   -4.1470 C   0  0  0  0  0  0  0  0  0  0  0  0
    4.4270  -13.9300   -5.3800 C   0  0  0  0  0  0  0  0  0  0  0  0
    2.4390  -13.0000   -4.2840 C   0  0  0  0  0  0  0  0  0  0  0  0
    3.7610  -13.3090   -0.6000 C   0  0  2  0  0  0  0  0  0  0  0  0
    3.8150  -12.2840    0.5470 C   0  0  0  0  0  0  0  0  0  0  0  0
    2.3710  -13.2610   -0.9980 O   0  0  0  0  0  0  0  0  0  0  0  0
    3.1948  -18.2860    0.4596 H   0  0  0  0  0  0  0  0  0  0  0  0
    2.3523  -18.6087   -1.0937 H   0  0  0  0  0  0  0  0  0  0  0  0
    4.0830  -18.1276   -1.0937 H   0  0  0  0  0  0  0  0  0  0  0  0
    3.5809  -14.8406    0.8791 H   0  0  0  0  0  0  0  0  0  0  0  0
    5.9914  -14.1023    0.9001 H   0  0  0  0  0  0  0  0  0  0  0  0
    6.1470  -16.0670    1.6410 H   0  0  0  0  0  0  0  0  0  0  0  0
    6.0877  -15.2861   -1.8874 H   0  0  0  0  0  0  0  0  0  0  0  0
   10.1965  -17.6597   -2.5337 H   0  0  0  0  0  0  0  0  0  0  0  0
   12.6827  -17.4495   -2.5337 H   0  0  0  0  0  0  0  0  0  0  0  0
   13.7713  -15.4844   -1.4517 H   0  0  0  0  0  0  0  0  0  0  0  0
   12.3779  -13.7267   -0.3617 H   0  0  0  0  0  0  0  0  0  0  0  0
    9.8924  -13.9248   -0.3643 H   0  0  0  0  0  0  0  0  0  0  0  0
    6.6427  -12.3763    0.3238 H   0  0  0  0  0  0  0  0  0  0  0  0
    7.9120  -12.0296   -0.8989 H   0  0  0  0  0  0  0  0  0  0  0  0
    6.3834  -11.0863   -0.8989 H   0  0  0  0  0  0  0  0  0  0  0  0
    7.8953  -12.4376   -2.8037 H   0  0  0  0  0  0  0  0  0  0  0  0
    9.3072  -12.8280   -3.4564 H   0  0  0  0  0  0  0  0  0  0  0  0
   10.5770  -14.5943   -5.6217 H   0  0  0  0  0  0  0  0  0  0  0  0
   10.9239  -11.7809   -3.0555 H   0  0  0  0  0  0  0  0  0  0  0  0
   13.1167  -10.8881   -2.2790 H   0  0  0  0  0  0  0  0  0  0  0  0
   15.2429  -11.9196   -3.0754 H   0  0  0  0  0  0  0  0  0  0  0  0
   15.1740  -13.8475   -4.6565 H   0  0  0  0  0  0  0  0  0  0  0  0
   12.9844  -14.7447   -5.4370 H   0  0  0  0  0  0  0  0  0  0  0  0
    6.6133  -10.8698   -3.7652 H   0  0  0  0  0  0  0  0  0  0  0  0
    6.4473  -12.2117   -5.0238 H   0  0  0  0  0  0  0  0  0  0  0  0
    4.3831  -11.0625   -4.6594 H   0  0  0  0  0  0  0  0  0  0  0  0
    4.9452  -10.7754   -2.0107 H   0  0  0  0  0  0  0  0  0  0  0  0
    3.2914  -11.2067   -2.2901 H   0  0  0  0  0  0  0  0  0  0  0  0
    4.9605  -14.8377   -5.0614 H   0  0  0  0  0  0  0  0  0  0  0  0
    3.5509  -14.2120   -5.9825 H   0  0  0  0  0  0  0  0  0  0  0  0
    5.0996  -13.3018   -5.9825 H   0  0  0  0  0  0  0  0  0  0  0  0
    1.9838  -12.9556   -3.2836 H   0  0  0  0  0  0  0  0  0  0  0  0
    2.2085  -12.0751   -4.8331 H   0  0  0  0  0  0  0  0  0  0  0  0
    2.0342  -13.8630   -4.8331 H   0  0  0  0  0  0  0  0  0  0  0  0
    3.7872  -12.8116    1.5118 H   0  0  0  0  0  0  0  0  0  0  0  0
    4.7451  -11.7012    0.4744 H   0  0  0  0  0  0  0  0  0  0  0  0
    2.9513  -11.6067    0.4744 H   0  0  0  0  0  0  0  0  0  0  0  0
    2.3250  -13.0800   -1.9600 H   0  0  0  0  0  0  0  0  0  0  0  0
  1  2  1  0
  2  3  2  0
  2  4  1  0
  4  5  1  0
  5  6  1  0
  6  7  1  0
  6  8  1  0
  8  9  1  0
  9 10  1  0
 10 11  2  0
 10 12  1  0
 12 13  2  0
 13 14  1  0
 14 15  2  0
 15 16  1  0
 16 17  2  0
  8 18  1  0
 18 19  1  1
 18 20  1  0
 20 21  1  0
 21 22  1  0
 22 23  2  0
 22 24  1  0
 24 25  2  0
 25 26  1  0
 26 27  2  0
 27 28  1  0
 28 29  2  0
 29 30  1  0
 30 31  2  0
 20 32  1  0
 32 33  1  0
 33 34  1  0
 34 35  1  0
 35 36  1  6
 36 37  1  0
 37 38  1  0
 37 39  1  0
 35 40  1  0
 40 41  1  0
 40 42  1  6
 40  5  1  0
 17 12  1  0
 35 18  1  0
 31 26  1  0
 37 33  1  0
  1 43  1  0
  1 44  1  0
  1 45  1  0
  5 46  1  1
  6 47  1  1
  7 48  1  0
  8 49  1  6
 13 50  1  0
 14 51  1  0
 15 52  1  0
 16 53  1  0
 17 54  1  0
 19 55  1  0
 19 56  1  0
 19 57  1  0
 20 58  1  1
 24 59  1  0
 25 60  1  0
 27 61  1  0
 28 62  1  0
 29 63  1  0
 30 64  1  0
 31 65  1  0
 32 66  1  0
 32 67  1  0
 33 68  1  6
 34 69  1  0
 34 70  1  0
 38 71  1  0
 38 72  1  0
 38 73  1  0
 39 74  1  0
 39 75  1  0
 39 76  1  0
 41 77  1  0
 41 78  1  0
 41 79  1  0
 42 80  1  0
M  END
>  <meeko>  (6) 
{"is_sidechain": [false], "free_energy": -6.776, "intermolecular_energy": -10.817, "internal_energy": -4.442}

$$$$
LIB_RPIUOWOTQONAKE__M_PUB_ALL__e8__s20260927
     RDKit          3D

 80 84  0  0  0  0  0  0  0  0999 V2000
    7.7400  -11.5710    0.5530 C   0  0  0  0  0  0  0  0  0  0  0  0
    7.4940  -12.1640   -0.7980 C   0  0  0  0  0  0  0  0  0  0  0  0
    8.2460  -12.0560   -1.7580 O   0  0  0  0  0  0  0  0  0  0  0  0
    6.3040  -12.8160   -0.8160 O   0  0  0  0  0  0  0  0  0  0  0  0
    6.3180  -14.1970   -1.2680 C   0  0  1  0  0  0  0  0  0  0  0  0
    5.5800  -15.0110   -0.1870 C   0  0  1  0  0  0  0  0  0  0  0  0
    6.2670  -14.8400    1.0640 O   0  0  0  0  0  0  0  0  0  0  0  0
    4.0890  -14.5940   -0.0960 C   0  0  2  0  0  0  0  0  0  0  0  0
    3.4190  -15.3300    0.9560 O   0  0  0  0  0  0  0  0  0  0  0  0
    3.3290  -14.6950    2.1520 C   0  0  0  0  0  0  0  0  0  0  0  0
    3.9280  -13.6730    2.4580 O   0  0  0  0  0  0  0  0  0  0  0  0
    2.3650  -15.3830    3.0480 C   0  0  0  0  0  0  0  0  0  0  0  0
    1.7090  -14.7220    4.0950 C   0  0  0  0  0  0  0  0  0  0  0  0
    0.8230  -15.4210    4.9200 C   0  0  0  0  0  0  0  0  0  0  0  0
    0.5910  -16.7790    4.7040 C   0  0  0  0  0  0  0  0  0  0  0  0
    1.2430  -17.4430    3.6650 C   0  0  0  0  0  0  0  0  0  0  0  0
    2.1270  -16.7490    2.8390 C   0  0  0  0  0  0  0  0  0  0  0  0
    3.3240  -14.8280   -1.4440 C   0  0  1  0  0  0  0  0  0  0  0  0
    3.1820  -16.3560   -1.7060 C   0  0  0  0  0  0  0  0  0  0  0  0
    1.8340  -14.3060   -1.3490 C   0  0  1  0  0  0  0  0  0  0  0  0
    1.7260  -13.2670   -0.3540 O   0  0  0  0  0  0  0  0  0  0  0  0
    0.4860  -13.0100    0.1290 C   0  0  0  0  0  0  0  0  0  0  0  0
   -0.0780  -11.9260    0.1280 O   0  0  0  0  0  0  0  0  0  0  0  0
   -0.1620  -14.2260    0.6590 C   0  0  0  0  0  0  0  0  0  0  0  0
   -1.1160  -14.2200    1.6030 C   0  0  0  0  0  0  0  0  0  0  0  0
   -1.7070  -15.4400    2.1660 C   0  0  0  0  0  0  0  0  0  0  0  0
   -1.5300  -16.7000    1.5800 C   0  0  0  0  0  0  0  0  0  0  0  0
   -2.1300  -17.8310    2.1380 C   0  0  0  0  0  0  0  0  0  0  0  0
   -2.9190  -17.7130    3.2810 C   0  0  0  0  0  0  0  0  0  0  0  0
   -3.1130  -16.4630    3.8650 C   0  0  0  0  0  0  0  0  0  0  0  0
   -2.5140  -15.3310    3.3070 C   0  0  0  0  0  0  0  0  0  0  0  0
    1.2350  -13.8250   -2.6980 C   0  0  0  0  0  0  0  0  0  0  0  0
    2.2330  -13.1940   -3.6990 C   0  0  2  0  0  0  0  0  0  0  0  0
    3.3550  -14.1950   -3.9150 C   0  0  0  0  0  0  0  0  0  0  0  0
    4.0980  -14.0560   -2.5790 C   0  0  1  0  0  0  0  0  0  0  0  0
    3.9620  -12.6200   -2.2450 O   0  0  0  0  0  0  0  0  0  0  0  0
    3.0270  -12.0010   -3.1540 C   0  0  0  0  0  0  0  0  0  0  0  0
    2.1990  -10.9310   -2.4390 C   0  0  0  0  0  0  0  0  0  0  0  0
    3.8250  -11.2600   -4.2460 C   0  0  0  0  0  0  0  0  0  0  0  0
    5.6410  -14.3640   -2.6670 C   0  0  2  0  0  0  0  0  0  0  0  0
    5.9980  -15.7390   -3.2590 C   0  0  0  0  0  0  0  0  0  0  0  0
    6.2130  -13.4490   -3.6310 O   0  0  0  0  0  0  0  0  0  0  0  0
    7.4414  -12.2909    1.3293 H   0  0  0  0  0  0  0  0  0  0  0  0
    8.8094  -11.3372    0.6616 H   0  0  0  0  0  0  0  0  0  0  0  0
    7.1502  -10.6489    0.6616 H   0  0  0  0  0  0  0  0  0  0  0  0
    7.3513  -14.5506   -1.3996 H   0  0  0  0  0  0  0  0  0  0  0  0
    5.5854  -16.0785   -0.4523 H   0  0  0  0  0  0  0  0  0  0  0  0
    5.5980  -14.6050    1.7410 H   0  0  0  0  0  0  0  0  0  0  0  0
    4.0766  -13.5170    0.1275 H   0  0  0  0  0  0  0  0  0  0  0  0
    1.8915  -13.6511    4.2681 H   0  0  0  0  0  0  0  0  0  0  0  0
    0.3083  -14.8993    5.7403 H   0  0  0  0  0  0  0  0  0  0  0  0
   -0.1070  -17.3272    5.3538 H   0  0  0  0  0  0  0  0  0  0  0  0
    1.0599  -18.5146    3.4970 H   0  0  0  0  0  0  0  0  0  0  0  0
    2.6395  -17.2754    2.0203 H   0  0  0  0  0  0  0  0  0  0  0  0
    3.1324  -16.8897   -0.7454 H   0  0  0  0  0  0  0  0  0  0  0  0
    2.2623  -16.5459   -2.2789 H   0  0  0  0  0  0  0  0  0  0  0  0
    4.0509  -16.7121   -2.2789 H   0  0  0  0  0  0  0  0  0  0  0  0
    1.2341  -15.1784   -1.0507 H   0  0  0  0  0  0  0  0  0  0  0  0
    0.1571  -15.1980    0.2548 H   0  0  0  0  0  0  0  0  0  0  0  0
   -1.4742  -13.2487    1.9748 H   0  0  0  0  0  0  0  0  0  0  0  0
   -0.9141  -16.7993    0.6740 H   0  0  0  0  0  0  0  0  0  0  0  0
   -1.9796  -18.8171    1.6744 H   0  0  0  0  0  0  0  0  0  0  0  0
   -3.3878  -18.6054    3.7213 H   0  0  0  0  0  0  0  0  0  0  0  0
   -3.7377  -16.3675    4.7653 H   0  0  0  0  0  0  0  0  0  0  0  0
   -2.6771  -14.3453    3.7671 H   0  0  0  0  0  0  0  0  0  0  0  0
    0.7707  -14.6933   -3.1884 H   0  0  0  0  0  0  0  0  0  0  0  0
    0.5289  -13.0224   -2.4387 H   0  0  0  0  0  0  0  0  0  0  0  0
    1.6179  -12.9039   -4.5636 H   0  0  0  0  0  0  0  0  0  0  0  0
    2.9694  -15.2145   -4.0634 H   0  0  0  0  0  0  0  0  0  0  0  0
    3.9709  -14.0145   -4.8083 H   0  0  0  0  0  0  0  0  0  0  0  0
    2.2972  -11.0578   -1.3508 H   0  0  0  0  0  0  0  0  0  0  0  0
    2.5626   -9.9333   -2.7261 H   0  0  0  0  0  0  0  0  0  0  0  0
    1.1420  -11.0327   -2.7261 H   0  0  0  0  0  0  0  0  0  0  0  0
    4.5529  -10.5841   -3.7733 H   0  0  0  0  0  0  0  0  0  0  0  0
    4.3568  -11.9918   -4.8718 H   0  0  0  0  0  0  0  0  0  0  0  0
    3.1345  -10.6755   -4.8718 H   0  0  0  0  0  0  0  0  0  0  0  0
    6.1833  -16.4527   -2.4427 H   0  0  0  0  0  0  0  0  0  0  0  0
    5.1636  -16.0992   -3.8787 H   0  0  0  0  0  0  0  0  0  0  0  0
    6.9023  -15.6478   -3.8787 H   0  0  0  0  0  0  0  0  0  0  0  0
    5.5530  -12.7560   -3.8390 H   0  0  0  0  0  0  0  0  0  0  0  0
  1  2  1  0
  2  3  2  0
  2  4  1  0
  4  5  1  0
  5  6  1  0
  6  7  1  0
  6  8  1  0
  8  9  1  0
  9 10  1  0
 10 11  2  0
 10 12  1  0
 12 13  2  0
 13 14  1  0
 14 15  2  0
 15 16  1  0
 16 17  2  0
  8 18  1  0
 18 19  1  6
 18 20  1  0
 20 21  1  0
 21 22  1  0
 22 23  2  0
 22 24  1  0
 24 25  2  0
 25 26  1  0
 26 27  2  0
 27 28  1  0
 28 29  2  0
 29 30  1  0
 30 31  2  0
 20 32  1  0
 32 33  1  0
 33 34  1  0
 34 35  1  0
 35 36  1  1
 36 37  1  0
 37 38  1  0
 37 39  1  0
 35 40  1  0
 40 41  1  0
 40 42  1  6
 40  5  1  0
 17 12  1  0
 35 18  1  0
 31 26  1  0
 37 33  1  0
  1 43  1  0
  1 44  1  0
  1 45  1  0
  5 46  1  6
  6 47  1  6
  7 48  1  0
  8 49  1  1
 13 50  1  0
 14 51  1  0
 15 52  1  0
 16 53  1  0
 17 54  1  0
 19 55  1  0
 19 56  1  0
 19 57  1  0
 20 58  1  1
 24 59  1  0
 25 60  1  0
 27 61  1  0
 28 62  1  0
 29 63  1  0
 30 64  1  0
 31 65  1  0
 32 66  1  0
 32 67  1  0
 33 68  1  6
 34 69  1  0
 34 70  1  0
 38 71  1  0
 38 72  1  0
 38 73  1  0
 39 74  1  0
 39 75  1  0
 39 76  1  0
 41 77  1  0
 41 78  1  0
 41 79  1  0
 42 80  1  0
M  END
>  <meeko>  (7) 
{"is_sidechain": [false], "free_energy": -6.597, "intermolecular_energy": -10.401, "internal_energy": -4.573}

$$$$
LIB_RPIUOWOTQONAKE__M_PUB_ALL__e8__s20260927
     RDKit          3D

 80 84  0  0  0  0  0  0  0  0999 V2000
   13.1680  -14.1090   -4.3680 C   0  0  0  0  0  0  0  0  0  0  0  0
   12.9380  -15.2820   -5.2670 C   0  0  0  0  0  0  0  0  0  0  0  0
   13.8170  -16.0160   -5.7000 O   0  0  0  0  0  0  0  0  0  0  0  0
   11.6180  -15.4030   -5.5560 O   0  0  0  0  0  0  0  0  0  0  0  0
   10.9740  -16.6510   -5.1850 C   0  0  1  0  0  0  0  0  0  0  0  0
    9.6820  -16.2640   -4.4380 C   0  0  1  0  0  0  0  0  0  0  0  0
   10.0350  -15.4720   -3.2920 O   0  0  0  0  0  0  0  0  0  0  0  0
    8.6950  -15.5250   -5.3780 C   0  0  2  0  0  0  0  0  0  0  0  0
    7.5080  -15.1230   -4.6530 O   0  0  0  0  0  0  0  0  0  0  0  0
    7.5760  -13.9140   -4.0380 C   0  0  0  0  0  0  0  0  0  0  0  0
    8.3700  -13.0240   -4.3110 O   0  0  0  0  0  0  0  0  0  0  0  0
    6.5200  -13.7850   -3.0010 C   0  0  0  0  0  0  0  0  0  0  0  0
    5.6530  -14.8370   -2.6760 C   0  0  0  0  0  0  0  0  0  0  0  0
    4.6660  -14.6570   -1.7040 C   0  0  0  0  0  0  0  0  0  0  0  0
    4.5400  -13.4290   -1.0540 C   0  0  0  0  0  0  0  0  0  0  0  0
    5.3980  -12.3780   -1.3750 C   0  0  0  0  0  0  0  0  0  0  0  0
    6.3850  -12.5530   -2.3450 C   0  0  0  0  0  0  0  0  0  0  0  0
    8.2670  -16.4050   -6.6020 C   0  0  1  0  0  0  0  0  0  0  0  0
    7.3740  -17.5830   -6.1110 C   0  0  0  0  0  0  0  0  0  0  0  0
    7.3380  -15.5920   -7.5900 C   0  0  1  0  0  0  0  0  0  0  0  0
    7.5910  -14.1770   -7.4700 O   0  0  0  0  0  0  0  0  0  0  0  0
    6.5950  -13.3440   -7.8580 C   0  0  0  0  0  0  0  0  0  0  0  0
    6.5630  -12.6900   -8.8910 O   0  0  0  0  0  0  0  0  0  0  0  0
    5.4890  -13.3150   -6.8810 C   0  0  0  0  0  0  0  0  0  0  0  0
    5.0280  -12.1970   -6.2980 C   0  0  0  0  0  0  0  0  0  0  0  0
    3.9700  -12.1910   -5.2810 C   0  0  0  0  0  0  0  0  0  0  0  0
    3.6900  -11.0650   -4.4950 C   0  0  0  0  0  0  0  0  0  0  0  0
    2.6890  -11.1120   -3.5220 C   0  0  0  0  0  0  0  0  0  0  0  0
    1.9640  -12.2850   -3.3200 C   0  0  0  0  0  0  0  0  0  0  0  0
    2.2420  -13.4140   -4.0860 C   0  0  0  0  0  0  0  0  0  0  0  0
    3.2440  -13.3700   -5.0590 C   0  0  0  0  0  0  0  0  0  0  0  0
    7.4370  -16.0340   -9.0750 C   0  0  0  0  0  0  0  0  0  0  0  0
    8.8170  -16.5600   -9.5370 C   0  0  2  0  0  0  0  0  0  0  0  0
    9.2170  -17.6820   -8.5960 C   0  0  0  0  0  0  0  0  0  0  0  0
    9.5780  -16.8680   -7.3460 C   0  0  1  0  0  0  0  0  0  0  0  0
   10.1810  -15.6310   -7.8910 O   0  0  0  0  0  0  0  0  0  0  0  0
    9.9830  -15.5880   -9.3200 C   0  0  0  0  0  0  0  0  0  0  0  0
    9.7420  -14.1530   -9.7940 C   0  0  0  0  0  0  0  0  0  0  0  0
   11.2860  -16.0480  -10.0060 C   0  0  0  0  0  0  0  0  0  0  0  0
   10.6650  -17.5460   -6.4290 C   0  0  2  0  0  0  0  0  0  0  0  0
   10.3330  -18.9770   -5.9740 C   0  0  0  0  0  0  0  0  0  0  0  0
   11.8520  -17.7400   -7.2330 O   0  0  0  0  0  0  0  0  0  0  0  0
   13.1044  -14.4332   -3.3188 H   0  0  0  0  0  0  0  0  0  0  0  0
   14.1657  -13.6884   -4.5620 H   0  0  0  0  0  0  0  0  0  0  0  0
   12.4030  -13.3428   -4.5620 H   0  0  0  0  0  0  0  0  0  0  0  0
   11.6386  -17.2544   -4.5492 H   0  0  0  0  0  0  0  0  0  0  0  0
    9.1605  -17.1701   -4.0958 H   0  0  0  0  0  0  0  0  0  0  0  0
   10.9640  -15.1800   -3.4060 H   0  0  0  0  0  0  0  0  0  0  0  0
    9.2263  -14.6397   -5.7574 H   0  0  0  0  0  0  0  0  0  0  0  0
    5.7499  -15.8062   -3.1872 H   0  0  0  0  0  0  0  0  0  0  0  0
    3.9872  -15.4847   -1.4507 H   0  0  0  0  0  0  0  0  0  0  0  0
    3.7632  -13.2899   -0.2877 H   0  0  0  0  0  0  0  0  0  0  0  0
    5.2965  -11.4098   -0.8628 H   0  0  0  0  0  0  0  0  0  0  0  0
    7.0599  -11.7215   -2.5963 H   0  0  0  0  0  0  0  0  0  0  0  0
    7.3613  -17.5998   -5.0112 H   0  0  0  0  0  0  0  0  0  0  0  0
    6.3493  -17.4480   -6.4875 H   0  0  0  0  0  0  0  0  0  0  0  0
    7.7808  -18.5331   -6.4875 H   0  0  0  0  0  0  0  0  0  0  0  0
    6.3072  -15.8191   -7.2802 H   0  0  0  0  0  0  0  0  0  0  0  0
    5.0124  -14.2697   -6.6137 H   0  0  0  0  0  0  0  0  0  0  0  0
    5.4667  -11.2341   -6.5986 H   0  0  0  0  0  0  0  0  0  0  0  0
    4.2625  -10.1378   -4.6454 H   0  0  0  0  0  0  0  0  0  0  0  0
    2.4724  -10.2213   -2.9139 H   0  0  0  0  0  0  0  0  0  0  0  0
    1.1731  -12.3188   -2.5563 H   0  0  0  0  0  0  0  0  0  0  0  0
    1.6725  -14.3412   -3.9251 H   0  0  0  0  0  0  0  0  0  0  0  0
    3.4650  -14.2674   -5.6555 H   0  0  0  0  0  0  0  0  0  0  0  0
    6.7004  -16.8346   -9.2374 H   0  0  0  0  0  0  0  0  0  0  0  0
    7.2532  -15.1254   -9.6671 H   0  0  0  0  0  0  0  0  0  0  0  0
    8.6842  -16.7960  -10.6031 H   0  0  0  0  0  0  0  0  0  0  0  0
    8.3819  -18.3724   -8.4061 H   0  0  0  0  0  0  0  0  0  0  0  0
   10.0188  -18.3356   -8.9699 H   0  0  0  0  0  0  0  0  0  0  0  0
    9.6311  -13.4924   -8.9215 H   0  0  0  0  0  0  0  0  0  0  0  0
   10.5966  -13.8188  -10.4006 H   0  0  0  0  0  0  0  0  0  0  0  0
    8.8251  -14.1163  -10.4006 H   0  0  0  0  0  0  0  0  0  0  0  0
   12.0305  -16.3108   -9.2401 H   0  0  0  0  0  0  0  0  0  0  0  0
   11.0793  -16.9275  -10.6335 H   0  0  0  0  0  0  0  0  0  0  0  0
   11.6773  -15.2337  -10.6335 H   0  0  0  0  0  0  0  0  0  0  0  0
   10.3232  -19.0193   -4.8749 H   0  0  0  0  0  0  0  0  0  0  0  0
    9.3443  -19.2647   -6.3608 H   0  0  0  0  0  0  0  0  0  0  0  0
   11.0941  -19.6706   -6.3608 H   0  0  0  0  0  0  0  0  0  0  0  0
   12.5160  -18.2290   -6.7030 H   0  0  0  0  0  0  0  0  0  0  0  0
  1  2  1  0
  2  3  2  0
  2  4  1  0
  4  5  1  0
  5  6  1  0
  6  7  1  0
  6  8  1  0
  8  9  1  0
  9 10  1  0
 10 11  2  0
 10 12  1  0
 12 13  2  0
 13 14  1  0
 14 15  2  0
 15 16  1  0
 16 17  2  0
  8 18  1  0
 18 19  1  1
 18 20  1  0
 20 21  1  0
 21 22  1  0
 22 23  2  0
 22 24  1  0
 24 25  2  0
 25 26  1  0
 26 27  2  0
 27 28  1  0
 28 29  2  0
 29 30  1  0
 30 31  2  0
 20 32  1  0
 32 33  1  0
 33 34  1  0
 34 35  1  0
 35 36  1  6
 36 37  1  0
 37 38  1  0
 37 39  1  0
 35 40  1  0
 40 41  1  0
 40 42  1  6
 40  5  1  0
 17 12  1  0
 35 18  1  0
 31 26  1  0
 37 33  1  0
  1 43  1  0
  1 44  1  0
  1 45  1  0
  5 46  1  1
  6 47  1  1
  7 48  1  0
  8 49  1  6
 13 50  1  0
 14 51  1  0
 15 52  1  0
 16 53  1  0
 17 54  1  0
 19 55  1  0
 19 56  1  0
 19 57  1  0
 20 58  1  1
 24 59  1  0
 25 60  1  0
 27 61  1  0
 28 62  1  0
 29 63  1  0
 30 64  1  0
 31 65  1  0
 32 66  1  0
 32 67  1  0
 33 68  1  6
 34 69  1  0
 34 70  1  0
 38 71  1  0
 38 72  1  0
 38 73  1  0
 39 74  1  0
 39 75  1  0
 39 76  1  0
 41 77  1  0
 41 78  1  0
 41 79  1  0
 42 80  1  0
M  END
>  <meeko>  (8) 
{"is_sidechain": [false], "free_energy": -6.56, "intermolecular_energy": -10.297, "internal_energy": -4.62}

$$$$
LIB_RPIUOWOTQONAKE__M_PUB_ALL__e8__s20260927
     RDKit          3D

 80 84  0  0  0  0  0  0  0  0999 V2000
   -3.3080  -18.3920    3.2550 C   0  0  0  0  0  0  0  0  0  0  0  0
   -2.1900  -18.5350    4.2390 C   0  0  0  0  0  0  0  0  0  0  0  0
   -2.3010  -19.0140    5.3600 O   0  0  0  0  0  0  0  0  0  0  0  0
   -1.0400  -18.0340    3.7210 O   0  0  0  0  0  0  0  0  0  0  0  0
   -0.1130  -17.4180    4.6540 C   0  0  1  0  0  0  0  0  0  0  0  0
    1.2790  -17.5020    3.9950 C   0  0  1  0  0  0  0  0  0  0  0  0
    1.5880  -18.8830    3.7510 O   0  0  0  0  0  0  0  0  0  0  0  0
    1.3330  -16.6530    2.6980 C   0  0  2  0  0  0  0  0  0  0  0  0
    2.6280  -16.7790    2.0620 O   0  0  0  0  0  0  0  0  0  0  0  0
    2.6630  -17.5520    0.9470 C   0  0  0  0  0  0  0  0  0  0  0  0
    1.9230  -18.5000    0.7190 O   0  0  0  0  0  0  0  0  0  0  0  0
    3.7020  -17.0730   -0.0000 C   0  0  0  0  0  0  0  0  0  0  0  0
    3.6740  -17.3820   -1.3660 C   0  0  0  0  0  0  0  0  0  0  0  0
    4.6860  -16.9190   -2.2110 C   0  0  0  0  0  0  0  0  0  0  0  0
    5.7280  -16.1480   -1.6960 C   0  0  0  0  0  0  0  0  0  0  0  0
    5.7640  -15.8390   -0.3370 C   0  0  0  0  0  0  0  0  0  0  0  0
    4.7540  -16.2990    0.5100 C   0  0  0  0  0  0  0  0  0  0  0  0
    1.0480  -15.1360    2.9680 C   0  0  1  0  0  0  0  0  0  0  0  0
    2.2300  -14.5160    3.7700 C   0  0  0  0  0  0  0  0  0  0  0  0
    1.0160  -14.3140    1.6170 C   0  0  1  0  0  0  0  0  0  0  0  0
    0.6640  -15.1730    0.5130 O   0  0  0  0  0  0  0  0  0  0  0  0
    0.8840  -14.6870   -0.7330 C   0  0  0  0  0  0  0  0  0  0  0  0
    0.1370  -14.8020   -1.6940 O   0  0  0  0  0  0  0  0  0  0  0  0
    2.1590  -13.9490   -0.8190 C   0  0  0  0  0  0  0  0  0  0  0  0
    2.7570  -13.6110   -1.9720 C   0  0  0  0  0  0  0  0  0  0  0  0
    4.0570  -12.9330   -2.0440 C   0  0  0  0  0  0  0  0  0  0  0  0
    4.7850  -12.8280   -3.2360 C   0  0  0  0  0  0  0  0  0  0  0  0
    6.0290  -12.1930   -3.2520 C   0  0  0  0  0  0  0  0  0  0  0  0
    6.5610  -11.6660   -2.0760 C   0  0  0  0  0  0  0  0  0  0  0  0
    5.8520  -11.7770   -0.8820 C   0  0  0  0  0  0  0  0  0  0  0  0
    4.6080  -12.4120   -0.8650 C   0  0  0  0  0  0  0  0  0  0  0  0
    0.0920  -13.0670    1.6460 C   0  0  0  0  0  0  0  0  0  0  0  0
   -1.1690  -13.1740    2.5380 C   0  0  2  0  0  0  0  0  0  0  0  0
   -0.7080  -13.5560    3.9330 C   0  0  0  0  0  0  0  0  0  0  0  0
   -0.3440  -15.0290    3.7020 C   0  0  1  0  0  0  0  0  0  0  0  0
   -1.3470  -15.4920    2.7150 O   0  0  0  0  0  0  0  0  0  0  0  0
   -2.0880  -14.3590    2.2150 C   0  0  0  0  0  0  0  0  0  0  0  0
   -2.4310  -14.5420    0.7360 C   0  0  0  0  0  0  0  0  0  0  0  0
   -3.4380  -14.2920    2.9590 C   0  0  0  0  0  0  0  0  0  0  0  0
   -0.5000  -15.9390    4.9790 C   0  0  2  0  0  0  0  0  0  0  0  0
    0.2710  -15.4570    6.2200 C   0  0  0  0  0  0  0  0  0  0  0  0
   -1.8780  -15.8490    5.4110 O   0  0  0  0  0  0  0  0  0  0  0  0
   -4.2585  -18.2704    3.7951 H   0  0  0  0  0  0  0  0  0  0  0  0
   -3.1298  -17.5093    2.6232 H   0  0  0  0  0  0  0  0  0  0  0  0
   -3.3577  -19.2911    2.6232 H   0  0  0  0  0  0  0  0  0  0  0  0
   -0.1316  -17.9426    5.6207 H   0  0  0  0  0  0  0  0  0  0  0  0
    2.0397  -17.0825    4.6698 H   0  0  0  0  0  0  0  0  0  0  0  0
    0.9480  -19.2200    3.0900 H   0  0  0  0  0  0  0  0  0  0  0  0
    0.5450  -17.0412    2.0358 H   0  0  0  0  0  0  0  0  0  0  0  0
    2.8536  -17.9904   -1.7744 H   0  0  0  0  0  0  0  0  0  0  0  0
    4.6609  -17.1628   -3.2833 H   0  0  0  0  0  0  0  0  0  0  0  0
    6.5227  -15.7831   -2.3633 H   0  0  0  0  0  0  0  0  0  0  0  0
    6.5879  -15.2330    0.0678 H   0  0  0  0  0  0  0  0  0  0  0  0
    4.7837  -16.0532    1.5818 H   0  0  0  0  0  0  0  0  0  0  0  0
    2.0353  -14.6181    4.8478 H   0  0  0  0  0  0  0  0  0  0  0  0
    3.1620  -15.0413    3.5144 H   0  0  0  0  0  0  0  0  0  0  0  0
    2.3276  -13.4506    3.5144 H   0  0  0  0  0  0  0  0  0  0  0  0
    2.0364  -13.9255    1.4832 H   0  0  0  0  0  0  0  0  0  0  0  0
    2.6502  -13.6576    0.1211 H   0  0  0  0  0  0  0  0  0  0  0  0
    2.2451  -13.8554   -2.9144 H   0  0  0  0  0  0  0  0  0  0  0  0
    4.3743  -13.2485   -4.1658 H   0  0  0  0  0  0  0  0  0  0  0  0
    6.5901  -12.1086   -4.1944 H   0  0  0  0  0  0  0  0  0  0  0  0
    7.5393  -11.1632   -2.0909 H   0  0  0  0  0  0  0  0  0  0  0  0
    6.2718  -11.3646    0.0474 H   0  0  0  0  0  0  0  0  0  0  0  0
    4.0558  -12.5041    0.0819 H   0  0  0  0  0  0  0  0  0  0  0  0
    0.6877  -12.2157    2.0070 H   0  0  0  0  0  0  0  0  0  0  0  0
   -0.2822  -12.9527    0.6180 H   0  0  0  0  0  0  0  0  0  0  0  0
   -1.6904  -12.2146    2.4051 H   0  0  0  0  0  0  0  0  0  0  0  0
    0.1640  -12.9653    4.2504 H   0  0  0  0  0  0  0  0  0  0  0  0
   -1.4476  -13.3817    4.7283 H   0  0  0  0  0  0  0  0  0  0  0  0
   -3.3982  -15.0580    0.6450 H   0  0  0  0  0  0  0  0  0  0  0  0
   -2.4935  -13.5574    0.2496 H   0  0  0  0  0  0  0  0  0  0  0  0
   -1.6480  -15.1422    0.2496 H   0  0  0  0  0  0  0  0  0  0  0  0
   -3.2593  -14.3009    4.0444 H   0  0  0  0  0  0  0  0  0  0  0  0
   -3.9640  -13.3666    2.6815 H   0  0  0  0  0  0  0  0  0  0  0  0
   -4.0531  -15.1607    2.6815 H   0  0  0  0  0  0  0  0  0  0  0  0
   -0.2546  -15.7856    7.1287 H   0  0  0  0  0  0  0  0  0  0  0  0
    1.2855  -15.8820    6.2093 H   0  0  0  0  0  0  0  0  0  0  0  0
    0.3333  -14.3588    6.2093 H   0  0  0  0  0  0  0  0  0  0  0  0
   -1.9150  -16.0030    6.3780 H   0  0  0  0  0  0  0  0  0  0  0  0
  1  2  1  0
  2  3  2  0
  2  4  1  0
  4  5  1  0
  5  6  1  0
  6  7  1  0
  6  8  1  0
  8  9  1  0
  9 10  1  0
 10 11  2  0
 10 12  1  0
 12 13  2  0
 13 14  1  0
 14 15  2  0
 15 16  1  0
 16 17  2  0
  8 18  1  0
 18 19  1  1
 18 20  1  0
 20 21  1  0
 21 22  1  0
 22 23  2  0
 22 24  1  0
 24 25  2  0
 25 26  1  0
 26 27  2  0
 27 28  1  0
 28 29  2  0
 29 30  1  0
 30 31  2  0
 20 32  1  0
 32 33  1  0
 33 34  1  0
 34 35  1  0
 35 36  1  6
 36 37  1  0
 37 38  1  0
 37 39  1  0
 35 40  1  0
 40 41  1  0
 40 42  1  1
 40  5  1  0
 17 12  1  0
 35 18  1  0
 31 26  1  0
 37 33  1  0
  1 43  1  0
  1 44  1  0
  1 45  1  0
  5 46  1  1
  6 47  1  1
  7 48  1  0
  8 49  1  6
 13 50  1  0
 14 51  1  0
 15 52  1  0
 16 53  1  0
 17 54  1  0
 19 55  1  0
 19 56  1  0
 19 57  1  0
 20 58  1  6
 24 59  1  0
 25 60  1  0
 27 61  1  0
 28 62  1  0
 29 63  1  0
 30 64  1  0
 31 65  1  0
 32 66  1  0
 32 67  1  0
 33 68  1  1
 34 69  1  0
 34 70  1  0
 38 71  1  0
 38 72  1  0
 38 73  1  0
 39 74  1  0
 39 75  1  0
 39 76  1  0
 41 77  1  0
 41 78  1  0
 41 79  1  0
 42 80  1  0
M  END
>  <meeko>  (9) 
{"is_sidechain": [false], "free_energy": -6.55, "intermolecular_energy": -10.891, "internal_energy": -4.009}

$$$$
