LIB_AKYFJTRMYYHEJM__M_PUB_ALL__e8__s20260927
     RDKit          3D

 58 62  0  0  0  0  0  0  0  0999 V2000
   -0.4700  -17.4730    7.8020 C   0  0  0  0  0  0  0  0  0  0  0  0
   -1.8240  -17.2620    7.2250 C   0  0  0  0  0  0  0  0  0  0  0  0
   -2.3280  -17.7940    6.0320 C   0  0  0  0  0  0  0  0  0  0  0  0
   -1.7960  -18.6720    4.9850 C   0  0  0  0  0  0  0  0  0  0  0  0
   -0.6750  -19.1780    5.0640 O   0  0  0  0  0  0  0  0  0  0  0  0
   -2.6830  -18.8230    3.9880 N   0  0  0  0  0  0  0  0  0  0  0  0
   -2.2680  -18.2820    2.6880 N   0  0  0  0  0  0  0  0  0  0  0  0
   -2.6520  -17.0520    2.2170 C   0  0  0  0  0  0  0  0  0  0  0  0
   -2.3880  -15.8070    2.6730 C   0  0  0  0  0  0  0  0  0  0  0  0
   -1.6500  -15.4820    3.7940 N   0  0  0  0  0  0  0  0  0  0  0  0
   -0.2120  -15.7270    3.9840 N   0  0  0  0  0  0  0  0  0  0  0  0
    0.5430  -14.6390    4.2020 C   0  0  0  0  0  0  0  0  0  0  0  0
    1.4790  -14.5300    4.9940 O   0  0  0  0  0  0  0  0  0  0  0  0
    0.1140  -13.5300    3.3420 C   0  0  0  0  0  0  0  0  0  0  0  0
   -0.6880  -12.5750    3.9260 O   0  0  0  0  0  0  0  0  0  0  0  0
   -0.9800  -11.6410    2.9920 C   0  0  0  0  0  0  0  0  0  0  0  0
   -1.7710  -10.5120    3.2040 C   0  0  0  0  0  0  0  0  0  0  0  0
   -1.9580   -9.6610    2.1110 C   0  0  0  0  0  0  0  0  0  0  0  0
   -1.3760   -9.9430    0.8740 C   0  0  0  0  0  0  0  0  0  0  0  0
   -0.5860  -11.0880    0.6930 C   0  0  0  0  0  0  0  0  0  0  0  0
   -0.3840  -11.9590    1.7830 C   0  0  0  0  0  0  0  0  0  0  0  0
    0.3270  -13.1820    2.0030 C   0  0  0  0  0  0  0  0  0  0  0  0
    1.1270  -13.9270    0.9950 C   0  0  0  0  0  0  0  0  0  0  0  0
   -2.9800  -14.6930    1.8920 C   0  0  0  0  0  0  0  0  0  0  0  0
   -3.8390  -13.7670    2.5020 C   0  0  0  0  0  0  0  0  0  0  0  0
   -4.3920  -12.7210    1.7610 C   0  0  0  0  0  0  0  0  0  0  0  0
   -4.0870  -12.6000    0.4050 C   0  0  0  0  0  0  0  0  0  0  0  0
   -4.7730  -11.3120   -0.5120 Cl  0  0  0  0  0  0  0  0  0  0  0  0
   -3.2370  -13.5130   -0.2180 C   0  0  0  0  0  0  0  0  0  0  0  0
   -2.6870  -14.5580    0.5280 C   0  0  0  0  0  0  0  0  0  0  0  0
   -3.6230  -17.3550    5.8650 O   0  0  0  0  0  0  0  0  0  0  0  0
   -3.9400  -16.5650    6.9170 C   0  0  0  0  0  0  0  0  0  0  0  0
   -5.1690  -15.9310    7.1030 C   0  0  0  0  0  0  0  0  0  0  0  0
   -5.3050  -15.1530    8.2560 C   0  0  0  0  0  0  0  0  0  0  0  0
   -4.2540  -15.0280    9.1670 C   0  0  0  0  0  0  0  0  0  0  0  0
   -3.0300  -15.6790    8.9490 C   0  0  0  0  0  0  0  0  0  0  0  0
   -2.8720  -16.4670    7.7910 C   0  0  0  0  0  0  0  0  0  0  0  0
   -0.5338  -17.4631    8.9001 H   0  0  0  0  0  0  0  0  0  0  0  0
   -0.0756  -18.4435    7.4664 H   0  0  0  0  0  0  0  0  0  0  0  0
    0.2010  -16.6686    7.4664 H   0  0  0  0  0  0  0  0  0  0  0  0
   -1.6630  -18.8650    2.1110 H   0  0  0  0  0  0  0  0  0  0  0  0
   -3.2814  -17.0843    1.3155 H   0  0  0  0  0  0  0  0  0  0  0  0
   -2.1660  -15.1540    4.6090 H   0  0  0  0  0  0  0  0  0  0  0  0
   -2.2254  -10.3016    4.1834 H   0  0  0  0  0  0  0  0  0  0  0  0
   -2.5726   -8.7561    2.2273 H   0  0  0  0  0  0  0  0  0  0  0  0
   -1.5391   -9.2577    0.0292 H   0  0  0  0  0  0  0  0  0  0  0  0
   -0.1308  -11.3031   -0.2850 H   0  0  0  0  0  0  0  0  0  0  0  0
    1.8388  -14.5898    1.5089 H   0  0  0  0  0  0  0  0  0  0  0  0
    0.4549  -14.5284    0.3652 H   0  0  0  0  0  0  0  0  0  0  0  0
    1.6791  -13.2139    0.3652 H   0  0  0  0  0  0  0  0  0  0  0  0
   -4.0785  -13.8656    3.5711 H   0  0  0  0  0  0  0  0  0  0  0  0
   -5.0644  -11.9964    2.2435 H   0  0  0  0  0  0  0  0  0  0  0  0
   -3.0016  -13.4112   -1.2877 H   0  0  0  0  0  0  0  0  0  0  0  0
   -2.0175  -15.2819    0.0404 H   0  0  0  0  0  0  0  0  0  0  0  0
   -5.9897  -16.0382    6.3784 H   0  0  0  0  0  0  0  0  0  0  0  0
   -6.2541  -14.6313    8.4488 H   0  0  0  0  0  0  0  0  0  0  0  0
   -4.3873  -14.4109   10.0678 H   0  0  0  0  0  0  0  0  0  0  0  0
   -2.2064  -15.5759    9.6709 H   0  0  0  0  0  0  0  0  0  0  0  0
  1  2  1  0
  2  3  2  0
  3  4  1  0
  4  5  2  0
  4  6  1  0
  6  7  1  0
  7  8  1  0
  8  9  2  0
  9 10  1  0
 10 11  1  0
 11 12  1  0
 12 13  2  0
 12 14  1  0
 14 15  1  0
 15 16  1  0
 16 17  2  0
 17 18  1  0
 18 19  2  0
 19 20  1  0
 20 21  2  0
 21 22  1  0
 22 23  1  0
  9 24  1  0
 24 25  2  0
 25 26  1  0
 26 27  2  0
 27 28  1  0
 27 29  1  0
 29 30  2  0
  3 31  1  0
 31 32  1  0
 32 33  2  0
 33 34  1  0
 34 35  2  0
 35 36  1  0
 36 37  2  0
 37  2  1  0
 22 14  2  0
 30 24  1  0
 37 32  1  0
 21 16  1  0
  1 38  1  0
  1 39  1  0
  1 40  1  0
  7 41  1  0
  8 42  1  0
 10 43  1  0
 17 44  1  0
 18 45  1  0
 19 46  1  0
 20 47  1  0
 23 48  1  0
 23 49  1  0
 23 50  1  0
 25 51  1  0
 26 52  1  0
 29 53  1  0
 30 54  1  0
 33 55  1  0
 34 56  1  0
 35 57  1  0
 36 58  1  0
M  CHG  2   6  -1  11  -1
M  END
>  <meeko>  (1) 
{"is_sidechain": [false], "free_energy": -8.502, "intermolecular_energy": -12.975, "internal_energy": -4.139}

$$$$
LIB_AKYFJTRMYYHEJM__M_PUB_ALL__e8__s20260927
     RDKit          3D

 58 62  0  0  0  0  0  0  0  0999 V2000
   -0.4350  -13.7870    4.8970 C   0  0  0  0  0  0  0  0  0  0  0  0
   -0.1550  -13.2960    3.5220 C   0  0  0  0  0  0  0  0  0  0  0  0
    0.7740  -13.8140    2.6110 C   0  0  0  0  0  0  0  0  0  0  0  0
    1.7370  -14.9190    2.6320 C   0  0  0  0  0  0  0  0  0  0  0  0
    2.0760  -15.4710    3.6800 O   0  0  0  0  0  0  0  0  0  0  0  0
    2.1600  -15.2110    1.3910 N   0  0  0  0  0  0  0  0  0  0  0  0
    3.1860  -14.3140    0.8480 N   0  0  0  0  0  0  0  0  0  0  0  0
    3.3200  -14.0290   -0.4870 C   0  0  0  0  0  0  0  0  0  0  0  0
    2.3930  -13.9120   -1.4650 C   0  0  0  0  0  0  0  0  0  0  0  0
    1.0300  -14.0870   -1.3300 N   0  0  0  0  0  0  0  0  0  0  0  0
    0.2460  -15.2140   -1.8590 N   0  0  0  0  0  0  0  0  0  0  0  0
   -0.2240  -16.0780   -0.9470 C   0  0  0  0  0  0  0  0  0  0  0  0
    0.1540  -17.2330   -0.7530 O   0  0  0  0  0  0  0  0  0  0  0  0
   -1.2940  -15.4620   -0.1530 C   0  0  0  0  0  0  0  0  0  0  0  0
   -1.9680  -14.4140   -0.7390 O   0  0  0  0  0  0  0  0  0  0  0  0
   -2.9090  -13.9790    0.1310 C   0  0  0  0  0  0  0  0  0  0  0  0
   -3.7940  -12.9280   -0.1040 C   0  0  0  0  0  0  0  0  0  0  0  0
   -4.6960  -12.6250    0.9210 C   0  0  0  0  0  0  0  0  0  0  0  0
   -4.6950  -13.3490    2.1150 C   0  0  0  0  0  0  0  0  0  0  0  0
   -3.7900  -14.4010    2.3200 C   0  0  0  0  0  0  0  0  0  0  0  0
   -2.8720  -14.7230    1.2990 C   0  0  0  0  0  0  0  0  0  0  0  0
   -1.8290  -15.6860    1.1220 C   0  0  0  0  0  0  0  0  0  0  0  0
   -1.4040  -16.7140    2.1090 C   0  0  0  0  0  0  0  0  0  0  0  0
    2.9150  -13.5860   -2.8150 C   0  0  0  0  0  0  0  0  0  0  0  0
    3.7340  -14.4910   -3.5040 C   0  0  0  0  0  0  0  0  0  0  0  0
    4.2200  -14.1780   -4.7760 C   0  0  0  0  0  0  0  0  0  0  0  0
    3.8880  -12.9560   -5.3590 C   0  0  0  0  0  0  0  0  0  0  0  0
    4.4930  -12.5660   -6.9250 Cl  0  0  0  0  0  0  0  0  0  0  0  0
    3.0770  -12.0430   -4.6860 C   0  0  0  0  0  0  0  0  0  0  0  0
    2.5930  -12.3610   -3.4150 C   0  0  0  0  0  0  0  0  0  0  0  0
    0.7160  -13.0710    1.4520 O   0  0  0  0  0  0  0  0  0  0  0  0
   -0.2180  -12.1070    1.6140 C   0  0  0  0  0  0  0  0  0  0  0  0
   -0.5620  -11.1530    0.6560 C   0  0  0  0  0  0  0  0  0  0  0  0
   -1.5540  -10.2350    1.0110 C   0  0  0  0  0  0  0  0  0  0  0  0
   -2.1610  -10.2840    2.2680 C   0  0  0  0  0  0  0  0  0  0  0  0
   -1.7910  -11.2570    3.2090 C   0  0  0  0  0  0  0  0  0  0  0  0
   -0.7910  -12.1910    2.8710 C   0  0  0  0  0  0  0  0  0  0  0  0
   -0.0289  -13.0749    5.6304 H   0  0  0  0  0  0  0  0  0  0  0  0
   -1.5218  -13.8798    5.0390 H   0  0  0  0  0  0  0  0  0  0  0  0
    0.0386  -14.7696    5.0390 H   0  0  0  0  0  0  0  0  0  0  0  0
    3.8330  -13.8890    1.5110 H   0  0  0  0  0  0  0  0  0  0  0  0
    4.3566  -13.8685   -0.8182 H   0  0  0  0  0  0  0  0  0  0  0  0
    0.5000  -13.3100   -0.9360 H   0  0  0  0  0  0  0  0  0  0  0  0
   -3.7835  -12.3648   -1.0488 H   0  0  0  0  0  0  0  0  0  0  0  0
   -5.4163  -11.8049    0.7847 H   0  0  0  0  0  0  0  0  0  0  0  0
   -5.4142  -13.0907    2.9062 H   0  0  0  0  0  0  0  0  0  0  0  0
   -3.7963  -14.9666    3.2634 H   0  0  0  0  0  0  0  0  0  0  0  0
   -1.5622  -16.3314    3.1281 H   0  0  0  0  0  0  0  0  0  0  0  0
   -1.9977  -17.6287    1.9645 H   0  0  0  0  0  0  0  0  0  0  0  0
   -0.3377  -16.9424    1.9645 H   0  0  0  0  0  0  0  0  0  0  0  0
    3.9957  -15.4536   -3.0404 H   0  0  0  0  0  0  0  0  0  0  0  0
    4.8609  -14.8917   -5.3143 H   0  0  0  0  0  0  0  0  0  0  0  0
    2.8205  -11.0803   -5.1522 H   0  0  0  0  0  0  0  0  0  0  0  0
    1.9533  -11.6435   -2.8801 H   0  0  0  0  0  0  0  0  0  0  0  0
   -0.0762  -11.1248   -0.3305 H   0  0  0  0  0  0  0  0  0  0  0  0
   -1.8612   -9.4629    0.2903 H   0  0  0  0  0  0  0  0  0  0  0  0
   -2.9394   -9.5501    2.5237 H   0  0  0  0  0  0  0  0  0  0  0  0
   -2.2746  -11.2903    4.1965 H   0  0  0  0  0  0  0  0  0  0  0  0
  1  2  1  0
  2  3  2  0
  3  4  1  0
  4  5  2  0
  4  6  1  0
  6  7  1  0
  7  8  1  0
  8  9  2  0
  9 10  1  0
 10 11  1  0
 11 12  1  0
 12 13  2  0
 12 14  1  0
 14 15  1  0
 15 16  1  0
 16 17  2  0
 17 18  1  0
 18 19  2  0
 19 20  1  0
 20 21  2  0
 21 22  1  0
 22 23  1  0
  9 24  1  0
 24 25  2  0
 25 26  1  0
 26 27  2  0
 27 28  1  0
 27 29  1  0
 29 30  2  0
  3 31  1  0
 31 32  1  0
 32 33  2  0
 33 34  1  0
 34 35  2  0
 35 36  1  0
 36 37  2  0
 37  2  1  0
 22 14  2  0
 30 24  1  0
 37 32  1  0
 21 16  1  0
  1 38  1  0
  1 39  1  0
  1 40  1  0
  7 41  1  0
  8 42  1  0
 10 43  1  0
 17 44  1  0
 18 45  1  0
 19 46  1  0
 20 47  1  0
 23 48  1  0
 23 49  1  0
 23 50  1  0
 25 51  1  0
 26 52  1  0
 29 53  1  0
 30 54  1  0
 33 55  1  0
 34 56  1  0
 35 57  1  0
 36 58  1  0
M  CHG  2   6  -1  11  -1
M  END
>  <meeko>  (2) 
{"is_sidechain": [false], "free_energy": -8.07, "intermolecular_energy": -11.436, "internal_energy": -5.019}

$$$$
LIB_AKYFJTRMYYHEJM__M_PUB_ALL__e8__s20260927
     RDKit          3D

 58 62  0  0  0  0  0  0  0  0999 V2000
   -1.1340  -11.4990    3.8270 C   0  0  0  0  0  0  0  0  0  0  0  0
   -1.7220  -11.3120    2.4740 C   0  0  0  0  0  0  0  0  0  0  0  0
   -1.1870  -10.5690    1.4150 C   0  0  0  0  0  0  0  0  0  0  0  0
    0.0250   -9.7670    1.2220 C   0  0  0  0  0  0  0  0  0  0  0  0
    0.0380   -8.5480    1.4020 O   0  0  0  0  0  0  0  0  0  0  0  0
    1.0560  -10.5380    0.8400 N   0  0  0  0  0  0  0  0  0  0  0  0
    0.7570  -11.5100   -0.2180 N   0  0  0  0  0  0  0  0  0  0  0  0
    1.5240  -11.6700   -1.3450 C   0  0  0  0  0  0  0  0  0  0  0  0
    2.8300  -11.9880   -1.4890 C   0  0  0  0  0  0  0  0  0  0  0  0
    3.7380  -12.2130   -0.4740 N   0  0  0  0  0  0  0  0  0  0  0  0
    3.4740  -12.9370    0.7800 N   0  0  0  0  0  0  0  0  0  0  0  0
    3.2620  -14.2560    0.6580 C   0  0  0  0  0  0  0  0  0  0  0  0
    4.0770  -15.1110    0.3090 O   0  0  0  0  0  0  0  0  0  0  0  0
    1.8790  -14.5950    1.0140 C   0  0  0  0  0  0  0  0  0  0  0  0
    0.9790  -14.6730   -0.0260 O   0  0  0  0  0  0  0  0  0  0  0  0
   -0.2310  -14.9920    0.4870 C   0  0  0  0  0  0  0  0  0  0  0  0
   -1.3980  -15.1610   -0.2560 C   0  0  0  0  0  0  0  0  0  0  0  0
   -2.5550  -15.4910    0.4580 C   0  0  0  0  0  0  0  0  0  0  0  0
   -2.5260  -15.6370    1.8450 C   0  0  0  0  0  0  0  0  0  0  0  0
   -1.3330  -15.4590    2.5640 C   0  0  0  0  0  0  0  0  0  0  0  0
   -0.1560  -15.1270    1.8640 C   0  0  0  0  0  0  0  0  0  0  0  0
    1.2090  -14.8710    2.2120 C   0  0  0  0  0  0  0  0  0  0  0  0
    1.7870  -14.8950    3.5820 C   0  0  0  0  0  0  0  0  0  0  0  0
    3.3240  -12.0760   -2.8860 C   0  0  0  0  0  0  0  0  0  0  0  0
    3.9160  -13.2530   -3.3630 C   0  0  0  0  0  0  0  0  0  0  0  0
    4.3780  -13.3290   -4.6790 C   0  0  0  0  0  0  0  0  0  0  0  0
    4.2490  -12.2230   -5.5200 C   0  0  0  0  0  0  0  0  0  0  0  0
    4.8250  -12.3140   -7.1420 Cl  0  0  0  0  0  0  0  0  0  0  0  0
    3.6660  -11.0440   -5.0600 C   0  0  0  0  0  0  0  0  0  0  0  0
    3.2050  -10.9740   -3.7430 C   0  0  0  0  0  0  0  0  0  0  0  0
   -2.0440  -10.6550    0.3390 O   0  0  0  0  0  0  0  0  0  0  0  0
   -3.0950  -11.4270    0.6970 C   0  0  0  0  0  0  0  0  0  0  0  0
   -4.1750  -11.7450   -0.1270 C   0  0  0  0  0  0  0  0  0  0  0  0
   -5.1680  -12.5580    0.4260 C   0  0  0  0  0  0  0  0  0  0  0  0
   -5.0690  -13.0210    1.7400 C   0  0  0  0  0  0  0  0  0  0  0  0
   -3.9690  -12.6820    2.5420 C   0  0  0  0  0  0  0  0  0  0  0  0
   -2.9570  -11.8620    2.0040 C   0  0  0  0  0  0  0  0  0  0  0  0
   -1.8882  -11.2591    4.5909 H   0  0  0  0  0  0  0  0  0  0  0  0
   -0.8116  -12.5440    3.9455 H   0  0  0  0  0  0  0  0  0  0  0  0
   -0.2672  -10.8322    3.9455 H   0  0  0  0  0  0  0  0  0  0  0  0
   -0.0730  -12.0900   -0.1000 H   0  0  0  0  0  0  0  0  0  0  0  0
    0.9849  -11.5129   -2.2909 H   0  0  0  0  0  0  0  0  0  0  0  0
    4.6350  -11.7330   -0.5400 H   0  0  0  0  0  0  0  0  0  0  0  0
   -1.4088  -15.0409   -1.3494 H   0  0  0  0  0  0  0  0  0  0  0  0
   -3.5018  -15.6375   -0.0825 H   0  0  0  0  0  0  0  0  0  0  0  0
   -3.4502  -15.8951    2.3828 H   0  0  0  0  0  0  0  0  0  0  0  0
   -1.3175  -15.5770    3.6575 H   0  0  0  0  0  0  0  0  0  0  0  0
    0.9749  -14.8613    4.3232 H   0  0  0  0  0  0  0  0  0  0  0  0
    2.3695  -15.8181    3.7181 H   0  0  0  0  0  0  0  0  0  0  0  0
    2.4441  -14.0234    3.7181 H   0  0  0  0  0  0  0  0  0  0  0  0
    4.0175  -14.1225   -2.6970 H   0  0  0  0  0  0  0  0  0  0  0  0
    4.8408  -14.2553   -5.0502 H   0  0  0  0  0  0  0  0  0  0  0  0
    3.5695  -10.1756   -5.7282 H   0  0  0  0  0  0  0  0  0  0  0  0
    2.7444  -10.0451   -3.3755 H   0  0  0  0  0  0  0  0  0  0  0  0
   -4.2415  -11.3742   -1.1605 H   0  0  0  0  0  0  0  0  0  0  0  0
   -6.0406  -12.8375   -0.1826 H   0  0  0  0  0  0  0  0  0  0  0  0
   -5.8642  -13.6600    2.1515 H   0  0  0  0  0  0  0  0  0  0  0  0
   -3.8975  -13.0509    3.5758 H   0  0  0  0  0  0  0  0  0  0  0  0
  1  2  1  0
  2  3  2  0
  3  4  1  0
  4  5  2  0
  4  6  1  0
  6  7  1  0
  7  8  1  0
  8  9  2  0
  9 10  1  0
 10 11  1  0
 11 12  1  0
 12 13  2  0
 12 14  1  0
 14 15  1  0
 15 16  1  0
 16 17  2  0
 17 18  1  0
 18 19  2  0
 19 20  1  0
 20 21  2  0
 21 22  1  0
 22 23  1  0
  9 24  1  0
 24 25  2  0
 25 26  1  0
 26 27  2  0
 27 28  1  0
 27 29  1  0
 29 30  2  0
  3 31  1  0
 31 32  1  0
 32 33  2  0
 33 34  1  0
 34 35  2  0
 35 36  1  0
 36 37  2  0
 37  2  1  0
 22 14  2  0
 30 24  1  0
 37 32  1  0
 21 16  1  0
  1 38  1  0
  1 39  1  0
  1 40  1  0
  7 41  1  0
  8 42  1  0
 10 43  1  0
 17 44  1  0
 18 45  1  0
 19 46  1  0
 20 47  1  0
 23 48  1  0
 23 49  1  0
 23 50  1  0
 25 51  1  0
 26 52  1  0
 29 53  1  0
 30 54  1  0
 33 55  1  0
 34 56  1  0
 35 57  1  0
 36 58  1  0
M  CHG  2   6  -1  11  -1
M  END
>  <meeko>  (3) 
{"is_sidechain": [false], "free_energy": -8.016, "intermolecular_energy": -12.38, "internal_energy": -3.992}

$$$$
LIB_AKYFJTRMYYHEJM__M_PUB_ALL__e8__s20260927
     RDKit          3D

 58 62  0  0  0  0  0  0  0  0999 V2000
   -0.6090  -13.7470    2.0080 C   0  0  0  0  0  0  0  0  0  0  0  0
   -1.8200  -13.5480    1.1700 C   0  0  0  0  0  0  0  0  0  0  0  0
   -2.6650  -14.5390    0.6540 C   0  0  0  0  0  0  0  0  0  0  0  0
   -2.7010  -16.0040    0.7190 C   0  0  0  0  0  0  0  0  0  0  0  0
   -2.7650  -16.6090    1.7900 O   0  0  0  0  0  0  0  0  0  0  0  0
   -2.6580  -16.5410   -0.5110 N   0  0  0  0  0  0  0  0  0  0  0  0
   -1.3160  -16.6960   -1.0830 N   0  0  0  0  0  0  0  0  0  0  0  0
   -0.5310  -15.6440   -1.4830 C   0  0  0  0  0  0  0  0  0  0  0  0
    0.8000  -15.4370   -1.3650 C   0  0  0  0  0  0  0  0  0  0  0  0
    1.7120  -16.2800   -0.7620 N   0  0  0  0  0  0  0  0  0  0  0  0
    2.4400  -17.3790   -1.4160 N   0  0  0  0  0  0  0  0  0  0  0  0
    3.7720  -17.3750   -1.2540 C   0  0  0  0  0  0  0  0  0  0  0  0
    4.4960  -18.3460   -1.0320 O   0  0  0  0  0  0  0  0  0  0  0  0
    4.3070  -16.0150   -1.3840 C   0  0  0  0  0  0  0  0  0  0  0  0
    4.2950  -15.2390   -0.2460 O   0  0  0  0  0  0  0  0  0  0  0  0
    4.8200  -14.0310   -0.5530 C   0  0  0  0  0  0  0  0  0  0  0  0
    4.9770  -12.9730    0.3400 C   0  0  0  0  0  0  0  0  0  0  0  0
    5.5420  -11.7990   -0.1680 C   0  0  0  0  0  0  0  0  0  0  0  0
    5.9240  -11.7080   -1.5080 C   0  0  0  0  0  0  0  0  0  0  0  0
    5.7520  -12.7920   -2.3820 C   0  0  0  0  0  0  0  0  0  0  0  0
    5.1850  -13.9850   -1.8890 C   0  0  0  0  0  0  0  0  0  0  0  0
    4.8550  -15.2670   -2.4330 C   0  0  0  0  0  0  0  0  0  0  0  0
    5.0570  -15.7040   -3.8400 C   0  0  0  0  0  0  0  0  0  0  0  0
    1.3080  -14.1610   -1.9260 C   0  0  0  0  0  0  0  0  0  0  0  0
    1.6360  -14.0550   -3.2850 C   0  0  0  0  0  0  0  0  0  0  0  0
    2.1140  -12.8500   -3.8050 C   0  0  0  0  0  0  0  0  0  0  0  0
    2.2640  -11.7480   -2.9640 C   0  0  0  0  0  0  0  0  0  0  0  0
    2.8590  -10.2620   -3.6050 Cl  0  0  0  0  0  0  0  0  0  0  0  0
    1.9460  -11.8370   -1.6100 C   0  0  0  0  0  0  0  0  0  0  0  0
    1.4690  -13.0440   -1.0940 C   0  0  0  0  0  0  0  0  0  0  0  0
   -3.6700  -13.9320   -0.0660 O   0  0  0  0  0  0  0  0  0  0  0  0
   -3.4760  -12.5940   -0.0160 C   0  0  0  0  0  0  0  0  0  0  0  0
   -4.2900  -11.6410   -0.6290 C   0  0  0  0  0  0  0  0  0  0  0  0
   -3.9250  -10.3030   -0.4630 C   0  0  0  0  0  0  0  0  0  0  0  0
   -2.7970   -9.9530    0.2840 C   0  0  0  0  0  0  0  0  0  0  0  0
   -2.0000  -10.9370    0.8870 C   0  0  0  0  0  0  0  0  0  0  0  0
   -2.3500  -12.2930    0.7310 C   0  0  0  0  0  0  0  0  0  0  0  0
   -0.8873  -13.7013    3.0712 H   0  0  0  0  0  0  0  0  0  0  0  0
   -0.1673  -14.7298    1.7865 H   0  0  0  0  0  0  0  0  0  0  0  0
    0.1240  -12.9573    1.7865 H   0  0  0  0  0  0  0  0  0  0  0  0
   -0.9600  -17.6450   -1.1890 H   0  0  0  0  0  0  0  0  0  0  0  0
   -1.0770  -14.8314   -1.9846 H   0  0  0  0  0  0  0  0  0  0  0  0
    1.8010  -16.2160    0.2520 H   0  0  0  0  0  0  0  0  0  0  0  0
    4.6714  -13.0571    1.3933 H   0  0  0  0  0  0  0  0  0  0  0  0
    5.6875  -10.9352    0.4973 H   0  0  0  0  0  0  0  0  0  0  0  0
    6.3660  -10.7734   -1.8836 H   0  0  0  0  0  0  0  0  0  0  0  0
    6.0551  -12.7123   -3.4364 H   0  0  0  0  0  0  0  0  0  0  0  0
    5.5185  -16.7024   -3.8512 H   0  0  0  0  0  0  0  0  0  0  0  0
    4.0857  -15.7433   -4.3548 H   0  0  0  0  0  0  0  0  0  0  0  0
    5.7162  -14.9896   -4.3548 H   0  0  0  0  0  0  0  0  0  0  0  0
    1.5162  -14.9262   -3.9458 H   0  0  0  0  0  0  0  0  0  0  0  0
    2.3706  -12.7708   -4.8717 H   0  0  0  0  0  0  0  0  0  0  0  0
    2.0697  -10.9635   -0.9529 H   0  0  0  0  0  0  0  0  0  0  0  0
    1.2175  -13.1189   -0.0258 H   0  0  0  0  0  0  0  0  0  0  0  0
   -5.1757  -11.9292   -1.2143 H   0  0  0  0  0  0  0  0  0  0  0  0
   -4.5343   -9.5134   -0.9270 H   0  0  0  0  0  0  0  0  0  0  0  0
   -2.5308   -8.8921    0.4006 H   0  0  0  0  0  0  0  0  0  0  0  0
   -1.1137  -10.6540    1.4738 H   0  0  0  0  0  0  0  0  0  0  0  0
  1  2  1  0
  2  3  2  0
  3  4  1  0
  4  5  2  0
  4  6  1  0
  6  7  1  0
  7  8  1  0
  8  9  2  0
  9 10  1  0
 10 11  1  0
 11 12  1  0
 12 13  2  0
 12 14  1  0
 14 15  1  0
 15 16  1  0
 16 17  2  0
 17 18  1  0
 18 19  2  0
 19 20  1  0
 20 21  2  0
 21 22  1  0
 22 23  1  0
  9 24  1  0
 24 25  2  0
 25 26  1  0
 26 27  2  0
 27 28  1  0
 27 29  1  0
 29 30  2  0
  3 31  1  0
 31 32  1  0
 32 33  2  0
 33 34  1  0
 34 35  2  0
 35 36  1  0
 36 37  2  0
 37  2  1  0
 22 14  2  0
 30 24  1  0
 37 32  1  0
 21 16  1  0
  1 38  1  0
  1 39  1  0
  1 40  1  0
  7 41  1  0
  8 42  1  0
 10 43  1  0
 17 44  1  0
 18 45  1  0
 19 46  1  0
 20 47  1  0
 23 48  1  0
 23 49  1  0
 23 50  1  0
 25 51  1  0
 26 52  1  0
 29 53  1  0
 30 54  1  0
 33 55  1  0
 34 56  1  0
 35 57  1  0
 36 58  1  0
M  CHG  2   6  -1  11  -1
M  END
>  <meeko>  (4) 
{"is_sidechain": [false], "free_energy": -7.953, "intermolecular_energy": -12.297, "internal_energy": -3.979}

$$$$
LIB_AKYFJTRMYYHEJM__M_PUB_ALL__e8__s20260927
     RDKit          3D

 58 62  0  0  0  0  0  0  0  0999 V2000
    2.7380  -13.7320    1.2430 C   0  0  0  0  0  0  0  0  0  0  0  0
    3.7790  -13.0240    0.4520 C   0  0  0  0  0  0  0  0  0  0  0  0
    5.1220  -12.8350    0.7990 C   0  0  0  0  0  0  0  0  0  0  0  0
    5.9570  -13.2090    1.9450 C   0  0  0  0  0  0  0  0  0  0  0  0
    5.5190  -13.2210    3.0960 O   0  0  0  0  0  0  0  0  0  0  0  0
    7.2030  -13.5190    1.5510 N   0  0  0  0  0  0  0  0  0  0  0  0
    8.1380  -12.3910    1.4720 N   0  0  0  0  0  0  0  0  0  0  0  0
    9.1750  -12.3210    0.5770 C   0  0  0  0  0  0  0  0  0  0  0  0
    9.2930  -12.8030   -0.6810 C   0  0  0  0  0  0  0  0  0  0  0  0
    8.3480  -13.5350   -1.3720 N   0  0  0  0  0  0  0  0  0  0  0  0
    8.2920  -15.0020   -1.4720 N   0  0  0  0  0  0  0  0  0  0  0  0
    7.0640  -15.5420   -1.4590 C   0  0  0  0  0  0  0  0  0  0  0  0
    6.6140  -16.3470   -0.6420 O   0  0  0  0  0  0  0  0  0  0  0  0
    6.2650  -15.0380   -2.5810 C   0  0  0  0  0  0  0  0  0  0  0  0
    6.9360  -14.3030   -3.5320 O   0  0  0  0  0  0  0  0  0  0  0  0
    6.0470  -13.9270   -4.4800 C   0  0  0  0  0  0  0  0  0  0  0  0
    6.3500  -13.1680   -5.6090 C   0  0  0  0  0  0  0  0  0  0  0  0
    5.2910  -12.8790   -6.4760 C   0  0  0  0  0  0  0  0  0  0  0  0
    4.0000  -13.3360   -6.2080 C   0  0  0  0  0  0  0  0  0  0  0  0
    3.7280  -14.0980   -5.0610 C   0  0  0  0  0  0  0  0  0  0  0  0
    4.7820  -14.4000   -4.1750 C   0  0  0  0  0  0  0  0  0  0  0  0
    4.9150  -15.1210   -2.9460 C   0  0  0  0  0  0  0  0  0  0  0  0
    3.8250  -15.8150   -2.2100 C   0  0  0  0  0  0  0  0  0  0  0  0
   10.5840  -12.5300   -1.3600 C   0  0  0  0  0  0  0  0  0  0  0  0
   11.6740  -12.0130   -0.6460 C   0  0  0  0  0  0  0  0  0  0  0  0
   12.8860  -11.7580   -1.2920 C   0  0  0  0  0  0  0  0  0  0  0  0
   13.0080  -12.0210   -2.6560 C   0  0  0  0  0  0  0  0  0  0  0  0
   14.5010  -11.7020   -3.4560 Cl  0  0  0  0  0  0  0  0  0  0  0  0
   11.9330  -12.5330   -3.3820 C   0  0  0  0  0  0  0  0  0  0  0  0
   10.7230  -12.7850   -2.7310 C   0  0  0  0  0  0  0  0  0  0  0  0
    5.7430  -12.1320   -0.2090 O   0  0  0  0  0  0  0  0  0  0  0  0
    4.8280  -11.8760   -1.1720 C   0  0  0  0  0  0  0  0  0  0  0  0
    5.0800  -11.1810   -2.3550 C   0  0  0  0  0  0  0  0  0  0  0  0
    4.0010  -11.0170   -3.2290 C   0  0  0  0  0  0  0  0  0  0  0  0
    2.7400  -11.5310   -2.9180 C   0  0  0  0  0  0  0  0  0  0  0  0
    2.5210  -12.2250   -1.7190 C   0  0  0  0  0  0  0  0  0  0  0  0
    3.5950  -12.4000   -0.8230 C   0  0  0  0  0  0  0  0  0  0  0  0
    2.9375  -13.5963    2.3162 H   0  0  0  0  0  0  0  0  0  0  0  0
    1.7481  -13.3191    0.9990 H   0  0  0  0  0  0  0  0  0  0  0  0
    2.7583  -14.8044    0.9990 H   0  0  0  0  0  0  0  0  0  0  0  0
    8.0000  -11.6230    2.1280 H   0  0  0  0  0  0  0  0  0  0  0  0
   10.0604  -11.7816    0.9447 H   0  0  0  0  0  0  0  0  0  0  0  0
    7.7040  -13.0150   -1.9660 H   0  0  0  0  0  0  0  0  0  0  0  0
    7.3720  -12.8135   -5.8085 H   0  0  0  0  0  0  0  0  0  0  0  0
    5.4785  -12.2833   -7.3815 H   0  0  0  0  0  0  0  0  0  0  0  0
    3.1840  -13.0957   -6.9054 H   0  0  0  0  0  0  0  0  0  0  0  0
    2.7075  -14.4542   -4.8565 H   0  0  0  0  0  0  0  0  0  0  0  0
    3.9892  -15.7104   -1.1274 H   0  0  0  0  0  0  0  0  0  0  0  0
    2.8574  -15.3663   -2.4791 H   0  0  0  0  0  0  0  0  0  0  0  0
    3.8221  -16.8816   -2.4791 H   0  0  0  0  0  0  0  0  0  0  0  0
   11.5742  -11.8068    0.4299 H   0  0  0  0  0  0  0  0  0  0  0  0
   13.7389  -11.3522   -0.7282 H   0  0  0  0  0  0  0  0  0  0  0  0
   12.0370  -12.7367   -4.4580 H   0  0  0  0  0  0  0  0  0  0  0  0
    9.8716  -13.1872   -3.2996 H   0  0  0  0  0  0  0  0  0  0  0  0
    6.0780  -10.7818   -2.5886 H   0  0  0  0  0  0  0  0  0  0  0  0
    4.1473  -10.4754   -4.1752 H   0  0  0  0  0  0  0  0  0  0  0  0
    1.9075  -11.3896   -3.6229 H   0  0  0  0  0  0  0  0  0  0  0  0
    1.5251  -12.6271   -1.4812 H   0  0  0  0  0  0  0  0  0  0  0  0
  1  2  1  0
  2  3  2  0
  3  4  1  0
  4  5  2  0
  4  6  1  0
  6  7  1  0
  7  8  1  0
  8  9  2  0
  9 10  1  0
 10 11  1  0
 11 12  1  0
 12 13  2  0
 12 14  1  0
 14 15  1  0
 15 16  1  0
 16 17  2  0
 17 18  1  0
 18 19  2  0
 19 20  1  0
 20 21  2  0
 21 22  1  0
 22 23  1  0
  9 24  1  0
 24 25  2  0
 25 26  1  0
 26 27  2  0
 27 28  1  0
 27 29  1  0
 29 30  2  0
  3 31  1  0
 31 32  1  0
 32 33  2  0
 33 34  1  0
 34 35  2  0
 35 36  1  0
 36 37  2  0
 37  2  1  0
 22 14  2  0
 30 24  1  0
 37 32  1  0
 21 16  1  0
  1 38  1  0
  1 39  1  0
  1 40  1  0
  7 41  1  0
  8 42  1  0
 10 43  1  0
 17 44  1  0
 18 45  1  0
 19 46  1  0
 20 47  1  0
 23 48  1  0
 23 49  1  0
 23 50  1  0
 25 51  1  0
 26 52  1  0
 29 53  1  0
 30 54  1  0
 33 55  1  0
 34 56  1  0
 35 57  1  0
 36 58  1  0
M  CHG  2   6  -1  11  -1
M  END
>  <meeko>  (5) 
{"is_sidechain": [false], "free_energy": -7.78, "intermolecular_energy": -11.513, "internal_energy": -4.499}

$$$$
LIB_AKYFJTRMYYHEJM__M_PUB_ALL__e8__s20260927
     RDKit          3D

 58 62  0  0  0  0  0  0  0  0999 V2000
    3.6480  -16.2680   -0.0150 C   0  0  0  0  0  0  0  0  0  0  0  0
    3.9610  -15.7750   -1.3820 C   0  0  0  0  0  0  0  0  0  0  0  0
    5.2130  -15.7560   -2.0090 C   0  0  0  0  0  0  0  0  0  0  0  0
    6.5690  -16.1630   -1.6250 C   0  0  0  0  0  0  0  0  0  0  0  0
    7.2530  -16.9020   -2.3340 O   0  0  0  0  0  0  0  0  0  0  0  0
    6.9160  -15.6250   -0.4440 N   0  0  0  0  0  0  0  0  0  0  0  0
    7.3220  -14.2160   -0.4900 N   0  0  0  0  0  0  0  0  0  0  0  0
    8.5160  -13.7840   -1.0100 C   0  0  0  0  0  0  0  0  0  0  0  0
    8.8810  -12.5810   -1.5090 C   0  0  0  0  0  0  0  0  0  0  0  0
    8.0780  -11.4650   -1.6320 N   0  0  0  0  0  0  0  0  0  0  0  0
    7.4560  -10.9780   -2.8730 N   0  0  0  0  0  0  0  0  0  0  0  0
    6.5840  -11.8140   -3.4560 C   0  0  0  0  0  0  0  0  0  0  0  0
    6.7960  -12.5650   -4.4090 O   0  0  0  0  0  0  0  0  0  0  0  0
    5.2750  -11.7410   -2.7950 C   0  0  0  0  0  0  0  0  0  0  0  0
    5.2080  -12.2290   -1.5090 O   0  0  0  0  0  0  0  0  0  0  0  0
    3.9390  -12.0790   -1.0670 C   0  0  0  0  0  0  0  0  0  0  0  0
    3.4790  -12.4560    0.1940 C   0  0  0  0  0  0  0  0  0  0  0  0
    2.1270  -12.2200    0.4660 C   0  0  0  0  0  0  0  0  0  0  0  0
    1.2940  -11.6350   -0.4890 C   0  0  0  0  0  0  0  0  0  0  0  0
    1.7900  -11.2670   -1.7490 C   0  0  0  0  0  0  0  0  0  0  0  0
    3.1490  -11.4970   -2.0440 C   0  0  0  0  0  0  0  0  0  0  0  0
    4.0080  -11.2750   -3.1660 C   0  0  0  0  0  0  0  0  0  0  0  0
    3.6180  -10.6690   -4.4680 C   0  0  0  0  0  0  0  0  0  0  0  0
   10.2810  -12.4780   -1.9890 C   0  0  0  0  0  0  0  0  0  0  0  0
   10.5890  -12.6620   -3.3450 C   0  0  0  0  0  0  0  0  0  0  0  0
   11.9090  -12.5620   -3.7900 C   0  0  0  0  0  0  0  0  0  0  0  0
   12.9250  -12.2800   -2.8760 C   0  0  0  0  0  0  0  0  0  0  0  0
   14.5550  -12.1630   -3.4240 Cl  0  0  0  0  0  0  0  0  0  0  0  0
   12.6370  -12.0980   -1.5250 C   0  0  0  0  0  0  0  0  0  0  0  0
   11.3150  -12.1980   -1.0850 C   0  0  0  0  0  0  0  0  0  0  0  0
    5.0660  -15.2230   -3.2700 O   0  0  0  0  0  0  0  0  0  0  0  0
    3.7630  -14.9080   -3.4480 C   0  0  0  0  0  0  0  0  0  0  0  0
    3.2230  -14.3420   -4.6030 C   0  0  0  0  0  0  0  0  0  0  0  0
    1.8490  -14.0890   -4.5950 C   0  0  0  0  0  0  0  0  0  0  0  0
    1.0680  -14.3930   -3.4770 C   0  0  0  0  0  0  0  0  0  0  0  0
    1.6430  -14.9610   -2.3300 C   0  0  0  0  0  0  0  0  0  0  0  0
    3.0280  -15.2240   -2.3180 C   0  0  0  0  0  0  0  0  0  0  0  0
    4.0820  -15.5845    0.7296 H   0  0  0  0  0  0  0  0  0  0  0  0
    2.5570  -16.3108    0.1185 H   0  0  0  0  0  0  0  0  0  0  0  0
    4.0734  -17.2736    0.1185 H   0  0  0  0  0  0  0  0  0  0  0  0
    6.6740  -13.5300   -0.1060 H   0  0  0  0  0  0  0  0  0  0  0  0
    9.3106  -14.5445   -1.0233 H   0  0  0  0  0  0  0  0  0  0  0  0
    8.0070  -10.8540   -0.8190 H   0  0  0  0  0  0  0  0  0  0  0  0
    4.1459  -12.9161    0.9380 H   0  0  0  0  0  0  0  0  0  0  0  0
    1.7146  -12.4995    1.4467 H   0  0  0  0  0  0  0  0  0  0  0  0
    0.2345  -11.4601   -0.2507 H   0  0  0  0  0  0  0  0  0  0  0  0
    1.1275  -10.8055   -2.4961 H   0  0  0  0  0  0  0  0  0  0  0  0
    3.0309   -9.7567   -4.2866 H   0  0  0  0  0  0  0  0  0  0  0  0
    4.5227  -10.4151   -5.0399 H   0  0  0  0  0  0  0  0  0  0  0  0
    3.0122  -11.3872   -5.0399 H   0  0  0  0  0  0  0  0  0  0  0  0
    9.7859  -12.8865   -4.0624 H   0  0  0  0  0  0  0  0  0  0  0  0
   12.1463  -12.7047   -4.8546 H   0  0  0  0  0  0  0  0  0  0  0  0
   13.4440  -11.8774   -0.8108 H   0  0  0  0  0  0  0  0  0  0  0  0
   11.0832  -12.0557   -0.0191 H   0  0  0  0  0  0  0  0  0  0  0  0
    3.8481  -14.1065   -5.4769 H   0  0  0  0  0  0  0  0  0  0  0  0
    1.3749  -13.6438   -5.4822 H   0  0  0  0  0  0  0  0  0  0  0  0
   -0.0118  -14.1843   -3.4963 H   0  0  0  0  0  0  0  0  0  0  0  0
    1.0223  -15.1976   -1.4532 H   0  0  0  0  0  0  0  0  0  0  0  0
  1  2  1  0
  2  3  2  0
  3  4  1  0
  4  5  2  0
  4  6  1  0
  6  7  1  0
  7  8  1  0
  8  9  2  0
  9 10  1  0
 10 11  1  0
 11 12  1  0
 12 13  2  0
 12 14  1  0
 14 15  1  0
 15 16  1  0
 16 17  2  0
 17 18  1  0
 18 19  2  0
 19 20  1  0
 20 21  2  0
 21 22  1  0
 22 23  1  0
  9 24  1  0
 24 25  2  0
 25 26  1  0
 26 27  2  0
 27 28  1  0
 27 29  1  0
 29 30  2  0
  3 31  1  0
 31 32  1  0
 32 33  2  0
 33 34  1  0
 34 35  2  0
 35 36  1  0
 36 37  2  0
 37  2  1  0
 22 14  2  0
 30 24  1  0
 37 32  1  0
 21 16  1  0
  1 38  1  0
  1 39  1  0
  1 40  1  0
  7 41  1  0
  8 42  1  0
 10 43  1  0
 17 44  1  0
 18 45  1  0
 19 46  1  0
 20 47  1  0
 23 48  1  0
 23 49  1  0
 23 50  1  0
 25 51  1  0
 26 52  1  0
 29 53  1  0
 30 54  1  0
 33 55  1  0
 34 56  1  0
 35 57  1  0
 36 58  1  0
M  CHG  2   6  -1  11  -1
M  END
>  <meeko>  (6) 
{"is_sidechain": [false], "free_energy": -7.753, "intermolecular_energy": -11.31, "internal_energy": -4.661}

$$$$
LIB_AKYFJTRMYYHEJM__M_PUB_ALL__e8__s20260927
     RDKit          3D

 58 62  0  0  0  0  0  0  0  0999 V2000
   13.1670  -10.3440   -0.0840 C   0  0  0  0  0  0  0  0  0  0  0  0
   12.6560  -11.5060   -0.8570 C   0  0  0  0  0  0  0  0  0  0  0  0
   11.5710  -12.3290   -0.5310 C   0  0  0  0  0  0  0  0  0  0  0  0
   10.6070  -12.3800    0.5730 C   0  0  0  0  0  0  0  0  0  0  0  0
   10.9020  -12.0240    1.7150 O   0  0  0  0  0  0  0  0  0  0  0  0
    9.4200  -12.8490    0.1530 N   0  0  0  0  0  0  0  0  0  0  0  0
    8.8560  -12.1740   -1.0210 N   0  0  0  0  0  0  0  0  0  0  0  0
    7.6500  -12.5060   -1.5850 C   0  0  0  0  0  0  0  0  0  0  0  0
    6.5660  -13.1200   -1.0600 C   0  0  0  0  0  0  0  0  0  0  0  0
    6.4360  -13.5960    0.2300 N   0  0  0  0  0  0  0  0  0  0  0  0
    6.1730  -12.7860    1.4300 N   0  0  0  0  0  0  0  0  0  0  0  0
    5.1640  -13.2050    2.2080 C   0  0  0  0  0  0  0  0  0  0  0  0
    5.0860  -13.1210    3.4340 O   0  0  0  0  0  0  0  0  0  0  0  0
    4.0970  -13.8020    1.3960 C   0  0  0  0  0  0  0  0  0  0  0  0
    4.1310  -15.1710    1.2480 O   0  0  0  0  0  0  0  0  0  0  0  0
    3.0810  -15.5380    0.4780 C   0  0  0  0  0  0  0  0  0  0  0  0
    2.7780  -16.8470    0.1050 C   0  0  0  0  0  0  0  0  0  0  0  0
    1.6470  -17.0260   -0.6980 C   0  0  0  0  0  0  0  0  0  0  0  0
    0.8720  -15.9370   -1.0990 C   0  0  0  0  0  0  0  0  0  0  0  0
    1.2050  -14.6310   -0.7060 C   0  0  0  0  0  0  0  0  0  0  0  0
    2.3410  -14.4290    0.1040 C   0  0  0  0  0  0  0  0  0  0  0  0
    2.9930  -13.3010    0.6960 C   0  0  0  0  0  0  0  0  0  0  0  0
    2.5720  -11.8790    0.5780 C   0  0  0  0  0  0  0  0  0  0  0  0
    5.4210  -13.3130   -1.9840 C   0  0  0  0  0  0  0  0  0  0  0  0
    5.0700  -14.5950   -2.4300 C   0  0  0  0  0  0  0  0  0  0  0  0
    3.9900  -14.7700   -3.2990 C   0  0  0  0  0  0  0  0  0  0  0  0
    3.2610  -13.6600   -3.7230 C   0  0  0  0  0  0  0  0  0  0  0  0
    1.9320  -13.8740   -4.8010 Cl  0  0  0  0  0  0  0  0  0  0  0  0
    3.5990  -12.3780   -3.2910 C   0  0  0  0  0  0  0  0  0  0  0  0
    4.6790  -12.2090   -2.4220 C   0  0  0  0  0  0  0  0  0  0  0  0
   11.4320  -13.2850   -1.5120 O   0  0  0  0  0  0  0  0  0  0  0  0
   12.3980  -13.0850   -2.4370 C   0  0  0  0  0  0  0  0  0  0  0  0
   12.5830  -13.8570   -3.5850 C   0  0  0  0  0  0  0  0  0  0  0  0
   13.6400  -13.4920   -4.4230 C   0  0  0  0  0  0  0  0  0  0  0  0
   14.4610  -12.4050   -4.1130 C   0  0  0  0  0  0  0  0  0  0  0  0
   14.2470  -11.6500   -2.9500 C   0  0  0  0  0  0  0  0  0  0  0  0
   13.1870  -12.0020   -2.0910 C   0  0  0  0  0  0  0  0  0  0  0  0
   13.0759  -10.5511    0.9925 H   0  0  0  0  0  0  0  0  0  0  0  0
   14.2238  -10.1720   -0.3362 H   0  0  0  0  0  0  0  0  0  0  0  0
   12.5795   -9.4489   -0.3362 H   0  0  0  0  0  0  0  0  0  0  0  0
    9.4030  -11.4190   -1.4340 H   0  0  0  0  0  0  0  0  0  0  0  0
    7.5479  -12.2250   -2.6436 H   0  0  0  0  0  0  0  0  0  0  0  0
    6.6610  -14.5780    0.3850 H   0  0  0  0  0  0  0  0  0  0  0  0
    3.3979  -17.6969    0.4265 H   0  0  0  0  0  0  0  0  0  0  0  0
    1.3643  -18.0397   -1.0181 H   0  0  0  0  0  0  0  0  0  0  0  0
   -0.0121  -16.1042   -1.7318 H   0  0  0  0  0  0  0  0  0  0  0  0
    0.5885  -13.7778   -1.0254 H   0  0  0  0  0  0  0  0  0  0  0  0
    2.4449  -11.4497    1.5827 H   0  0  0  0  0  0  0  0  0  0  0  0
    3.3411  -11.3130    0.0320 H   0  0  0  0  0  0  0  0  0  0  0  0
    1.6187  -11.8229    0.0320 H   0  0  0  0  0  0  0  0  0  0  0  0
    5.6483  -15.4682   -2.0938 H   0  0  0  0  0  0  0  0  0  0  0  0
    3.7167  -15.7773   -3.6464 H   0  0  0  0  0  0  0  0  0  0  0  0
    3.0198  -11.5072   -3.6318 H   0  0  0  0  0  0  0  0  0  0  0  0
    4.9493  -11.1996   -2.0784 H   0  0  0  0  0  0  0  0  0  0  0  0
   11.9293  -14.7103   -3.8185 H   0  0  0  0  0  0  0  0  0  0  0  0
   13.8284  -14.0691   -5.3403 H   0  0  0  0  0  0  0  0  0  0  0  0
   15.2860  -12.1376   -4.7896 H   0  0  0  0  0  0  0  0  0  0  0  0
   14.8975  -10.7954   -2.7121 H   0  0  0  0  0  0  0  0  0  0  0  0
  1  2  1  0
  2  3  2  0
  3  4  1  0
  4  5  2  0
  4  6  1  0
  6  7  1  0
  7  8  1  0
  8  9  2  0
  9 10  1  0
 10 11  1  0
 11 12  1  0
 12 13  2  0
 12 14  1  0
 14 15  1  0
 15 16  1  0
 16 17  2  0
 17 18  1  0
 18 19  2  0
 19 20  1  0
 20 21  2  0
 21 22  1  0
 22 23  1  0
  9 24  1  0
 24 25  2  0
 25 26  1  0
 26 27  2  0
 27 28  1  0
 27 29  1  0
 29 30  2  0
  3 31  1  0
 31 32  1  0
 32 33  2  0
 33 34  1  0
 34 35  2  0
 35 36  1  0
 36 37  2  0
 37  2  1  0
 22 14  2  0
 30 24  1  0
 37 32  1  0
 21 16  1  0
  1 38  1  0
  1 39  1  0
  1 40  1  0
  7 41  1  0
  8 42  1  0
 10 43  1  0
 17 44  1  0
 18 45  1  0
 19 46  1  0
 20 47  1  0
 23 48  1  0
 23 49  1  0
 23 50  1  0
 25 51  1  0
 26 52  1  0
 29 53  1  0
 30 54  1  0
 33 55  1  0
 34 56  1  0
 35 57  1  0
 36 58  1  0
M  CHG  2   6  -1  11  -1
M  END
>  <meeko>  (7) 
{"is_sidechain": [false], "free_energy": -7.692, "intermolecular_energy": -12.246, "internal_energy": -3.632}

$$$$
LIB_AKYFJTRMYYHEJM__M_PUB_ALL__e8__s20260927
     RDKit          3D

 58 62  0  0  0  0  0  0  0  0999 V2000
   -0.2100  -18.0440    9.8400 C   0  0  0  0  0  0  0  0  0  0  0  0
   -0.8150  -17.5530    8.5740 C   0  0  0  0  0  0  0  0  0  0  0  0
   -0.1670  -17.3510    7.3500 C   0  0  0  0  0  0  0  0  0  0  0  0
    1.2080  -17.5200    6.8660 C   0  0  0  0  0  0  0  0  0  0  0  0
    2.0280  -18.2190    7.4620 O   0  0  0  0  0  0  0  0  0  0  0  0
    1.4060  -16.8270    5.7320 N   0  0  0  0  0  0  0  0  0  0  0  0
    1.4050  -15.3670    5.8780 N   0  0  0  0  0  0  0  0  0  0  0  0
    0.9470  -14.5060    4.9140 C   0  0  0  0  0  0  0  0  0  0  0  0
   -0.0710  -14.6230    4.0320 C   0  0  0  0  0  0  0  0  0  0  0  0
   -0.9090  -15.7110    3.8850 N   0  0  0  0  0  0  0  0  0  0  0  0
   -0.6770  -16.8700    3.0090 N   0  0  0  0  0  0  0  0  0  0  0  0
   -1.6930  -17.2020    2.1980 C   0  0  0  0  0  0  0  0  0  0  0  0
   -2.1420  -18.3310    1.9930 O   0  0  0  0  0  0  0  0  0  0  0  0
   -2.2510  -16.0100    1.5510 C   0  0  0  0  0  0  0  0  0  0  0  0
   -3.1940  -15.3060    2.2670 O   0  0  0  0  0  0  0  0  0  0  0  0
   -3.5900  -14.2500    1.5200 C   0  0  0  0  0  0  0  0  0  0  0  0
   -4.5360  -13.3020    1.9070 C   0  0  0  0  0  0  0  0  0  0  0  0
   -4.8130  -12.2810    0.9940 C   0  0  0  0  0  0  0  0  0  0  0  0
   -4.1660  -12.2280   -0.2420 C   0  0  0  0  0  0  0  0  0  0  0  0
   -3.2180  -13.1990   -0.6010 C   0  0  0  0  0  0  0  0  0  0  0  0
   -2.9240  -14.2370    0.3060 C   0  0  0  0  0  0  0  0  0  0  0  0
   -2.0550  -15.3740    0.3190 C   0  0  0  0  0  0  0  0  0  0  0  0
   -1.1320  -15.7890   -0.7710 C   0  0  0  0  0  0  0  0  0  0  0  0
   -0.2770  -13.4680    3.1240 C   0  0  0  0  0  0  0  0  0  0  0  0
   -1.1550  -12.4320    3.4710 C   0  0  0  0  0  0  0  0  0  0  0  0
   -1.3440  -11.3470    2.6110 C   0  0  0  0  0  0  0  0  0  0  0  0
   -0.6530  -11.2990    1.4000 C   0  0  0  0  0  0  0  0  0  0  0  0
   -0.8890   -9.9640    0.3360 Cl  0  0  0  0  0  0  0  0  0  0  0  0
    0.2220  -12.3220    1.0390 C   0  0  0  0  0  0  0  0  0  0  0  0
    0.4070  -13.4050    1.9020 C   0  0  0  0  0  0  0  0  0  0  0  0
   -1.0870  -16.8910    6.4340 O   0  0  0  0  0  0  0  0  0  0  0  0
   -2.2870  -16.7980    7.0510 C   0  0  0  0  0  0  0  0  0  0  0  0
   -3.4690  -16.3670    6.4480 C   0  0  0  0  0  0  0  0  0  0  0  0
   -4.6110  -16.3400    7.2540 C   0  0  0  0  0  0  0  0  0  0  0  0
   -4.5550  -16.7290    8.5940 C   0  0  0  0  0  0  0  0  0  0  0  0
   -3.3490  -17.1580    9.1690 C   0  0  0  0  0  0  0  0  0  0  0  0
   -2.1860  -17.1920    8.3740 C   0  0  0  0  0  0  0  0  0  0  0  0
   -0.7466  -17.6085   10.6958 H   0  0  0  0  0  0  0  0  0  0  0  0
   -0.2839  -19.1408    9.8805 H   0  0  0  0  0  0  0  0  0  0  0  0
    0.8481  -17.7460    9.8805 H   0  0  0  0  0  0  0  0  0  0  0  0
    1.7720  -14.9840    6.7490 H   0  0  0  0  0  0  0  0  0  0  0  0
    1.5024  -13.5589    4.8469 H   0  0  0  0  0  0  0  0  0  0  0  0
   -1.8250  -15.6520    4.3270 H   0  0  0  0  0  0  0  0  0  0  0  0
   -5.0398  -13.3551    2.8834 H   0  0  0  0  0  0  0  0  0  0  0  0
   -5.5515  -11.5079    1.2529 H   0  0  0  0  0  0  0  0  0  0  0  0
   -4.4022  -11.4146   -0.9438 H   0  0  0  0  0  0  0  0  0  0  0  0
   -2.7117  -13.1505   -1.5764 H   0  0  0  0  0  0  0  0  0  0  0  0
   -0.2113  -16.2030   -0.3341 H   0  0  0  0  0  0  0  0  0  0  0  0
   -1.6194  -16.5546   -1.3925 H   0  0  0  0  0  0  0  0  0  0  0  0
   -0.8827  -14.9163   -1.3925 H   0  0  0  0  0  0  0  0  0  0  0  0
   -1.6987  -12.4733    4.4263 H   0  0  0  0  0  0  0  0  0  0  0  0
   -2.0335  -10.5356    2.8872 H   0  0  0  0  0  0  0  0  0  0  0  0
    0.7627  -12.2771    0.0821 H   0  0  0  0  0  0  0  0  0  0  0  0
    1.0954  -14.2153    1.6201 H   0  0  0  0  0  0  0  0  0  0  0  0
   -3.5008  -16.0636    5.3912 H   0  0  0  0  0  0  0  0  0  0  0  0
   -5.5682  -16.0073    6.8261 H   0  0  0  0  0  0  0  0  0  0  0  0
   -5.4681  -16.6987    9.2067 H   0  0  0  0  0  0  0  0  0  0  0  0
   -3.3120  -17.4634   10.2251 H   0  0  0  0  0  0  0  0  0  0  0  0
  1  2  1  0
  2  3  2  0
  3  4  1  0
  4  5  2  0
  4  6  1  0
  6  7  1  0
  7  8  1  0
  8  9  2  0
  9 10  1  0
 10 11  1  0
 11 12  1  0
 12 13  2  0
 12 14  1  0
 14 15  1  0
 15 16  1  0
 16 17  2  0
 17 18  1  0
 18 19  2  0
 19 20  1  0
 20 21  2  0
 21 22  1  0
 22 23  1  0
  9 24  1  0
 24 25  2  0
 25 26  1  0
 26 27  2  0
 27 28  1  0
 27 29  1  0
 29 30  2  0
  3 31  1  0
 31 32  1  0
 32 33  2  0
 33 34  1  0
 34 35  2  0
 35 36  1  0
 36 37  2  0
 37  2  1  0
 22 14  2  0
 30 24  1  0
 37 32  1  0
 21 16  1  0
  1 38  1  0
  1 39  1  0
  1 40  1  0
  7 41  1  0
  8 42  1  0
 10 43  1  0
 17 44  1  0
 18 45  1  0
 19 46  1  0
 20 47  1  0
 23 48  1  0
 23 49  1  0
 23 50  1  0
 25 51  1  0
 26 52  1  0
 29 53  1  0
 30 54  1  0
 33 55  1  0
 34 56  1  0
 35 57  1  0
 36 58  1  0
M  CHG  2   6  -1  11  -1
M  END
>  <meeko>  (8) 
{"is_sidechain": [false], "free_energy": -7.675, "intermolecular_energy": -11.352, "internal_energy": -4.5}

$$$$
LIB_AKYFJTRMYYHEJM__M_PUB_ALL__e8__s20260927
     RDKit          3D

 58 62  0  0  0  0  0  0  0  0999 V2000
   -3.7390  -13.3380    2.5150 C   0  0  0  0  0  0  0  0  0  0  0  0
   -2.4200  -12.9720    1.9340 C   0  0  0  0  0  0  0  0  0  0  0  0
   -1.4640  -13.8410    1.3940 C   0  0  0  0  0  0  0  0  0  0  0  0
   -1.3750  -15.2920    1.2010 C   0  0  0  0  0  0  0  0  0  0  0  0
   -0.7540  -16.0170    1.9790 O   0  0  0  0  0  0  0  0  0  0  0  0
   -2.0460  -15.6720    0.1010 N   0  0  0  0  0  0  0  0  0  0  0  0
   -1.2120  -16.0370   -1.0500 N   0  0  0  0  0  0  0  0  0  0  0  0
   -0.3710  -15.1620   -1.6900 C   0  0  0  0  0  0  0  0  0  0  0  0
    0.9760  -15.0530   -1.6700 C   0  0  0  0  0  0  0  0  0  0  0  0
    1.8520  -15.8320   -0.9400 N   0  0  0  0  0  0  0  0  0  0  0  0
    2.4040  -15.5040    0.3840 N   0  0  0  0  0  0  0  0  0  0  0  0
    3.7390  -15.5840    0.4970 C   0  0  0  0  0  0  0  0  0  0  0  0
    4.3790  -16.3440    1.2250 O   0  0  0  0  0  0  0  0  0  0  0  0
    4.3930  -14.6210   -0.3960 C   0  0  0  0  0  0  0  0  0  0  0  0
    4.7320  -15.0790   -1.6500 O   0  0  0  0  0  0  0  0  0  0  0  0
    5.3190  -14.0640   -2.3250 C   0  0  0  0  0  0  0  0  0  0  0  0
    5.7990  -14.1400   -3.6310 C   0  0  0  0  0  0  0  0  0  0  0  0
    6.3760  -12.9800   -4.1580 C   0  0  0  0  0  0  0  0  0  0  0  0
    6.4580  -11.8110   -3.3990 C   0  0  0  0  0  0  0  0  0  0  0  0
    5.9650  -11.7680   -2.0860 C   0  0  0  0  0  0  0  0  0  0  0  0
    5.3800  -12.9270   -1.5370 C   0  0  0  0  0  0  0  0  0  0  0  0
    4.7820  -13.2810   -0.2850 C   0  0  0  0  0  0  0  0  0  0  0  0
    4.6160  -12.3900    0.8940 C   0  0  0  0  0  0  0  0  0  0  0  0
    1.5500  -13.9680   -2.5030 C   0  0  0  0  0  0  0  0  0  0  0  0
    1.7270  -12.6790   -1.9800 C   0  0  0  0  0  0  0  0  0  0  0  0
    2.2690  -11.6630   -2.7700 C   0  0  0  0  0  0  0  0  0  0  0  0
    2.6340  -11.9360   -4.0880 C   0  0  0  0  0  0  0  0  0  0  0  0
    3.2970  -10.6800   -5.0660 Cl  0  0  0  0  0  0  0  0  0  0  0  0
    2.4620  -13.2110   -4.6250 C   0  0  0  0  0  0  0  0  0  0  0  0
    1.9200  -14.2230   -3.8310 C   0  0  0  0  0  0  0  0  0  0  0  0
   -0.3870  -13.0970    0.9620 O   0  0  0  0  0  0  0  0  0  0  0  0
   -0.6430  -11.7940    1.2190 C   0  0  0  0  0  0  0  0  0  0  0  0
    0.2150  -10.7340    0.9250 C   0  0  0  0  0  0  0  0  0  0  0  0
   -0.2280   -9.4540    1.2680 C   0  0  0  0  0  0  0  0  0  0  0  0
   -1.4720   -9.2630    1.8740 C   0  0  0  0  0  0  0  0  0  0  0  0
   -2.3110  -10.3510    2.1560 C   0  0  0  0  0  0  0  0  0  0  0  0
   -1.8820  -11.6510    1.8190 C   0  0  0  0  0  0  0  0  0  0  0  0
   -3.6738  -13.3199    3.6129 H   0  0  0  0  0  0  0  0  0  0  0  0
   -4.4996  -12.6170    2.1809 H   0  0  0  0  0  0  0  0  0  0  0  0
   -4.0193  -14.3479    2.1809 H   0  0  0  0  0  0  0  0  0  0  0  0
   -1.2740  -16.9970   -1.3860 H   0  0  0  0  0  0  0  0  0  0  0  0
   -0.8794  -14.4238   -2.3277 H   0  0  0  0  0  0  0  0  0  0  0  0
    2.2480  -16.6460   -1.4080 H   0  0  0  0  0  0  0  0  0  0  0  0
    5.7276  -15.0670   -4.2188 H   0  0  0  0  0  0  0  0  0  0  0  0
    6.7707  -12.9888   -5.1847 H   0  0  0  0  0  0  0  0  0  0  0  0
    6.9154  -10.9113   -3.8364 H   0  0  0  0  0  0  0  0  0  0  0  0
    6.0340  -10.8435   -1.4939 H   0  0  0  0  0  0  0  0  0  0  0  0
    4.7257  -12.9786    1.8168 H   0  0  0  0  0  0  0  0  0  0  0  0
    5.3827  -11.6017    0.8687 H   0  0  0  0  0  0  0  0  0  0  0  0
    3.6168  -11.9307    0.8687 H   0  0  0  0  0  0  0  0  0  0  0  0
    1.4369  -12.4667   -0.9404 H   0  0  0  0  0  0  0  0  0  0  0  0
    2.4072  -10.6536   -2.3553 H   0  0  0  0  0  0  0  0  0  0  0  0
    2.7511  -13.4178   -5.6660 H   0  0  0  0  0  0  0  0  0  0  0  0
    1.7819  -15.2301   -4.2512 H   0  0  0  0  0  0  0  0  0  0  0  0
    1.1920  -10.8978    0.4468 H   0  0  0  0  0  0  0  0  0  0  0  0
    0.4120   -8.5844    1.0578 H   0  0  0  0  0  0  0  0  0  0  0  0
   -1.7982   -8.2451    2.1337 H   0  0  0  0  0  0  0  0  0  0  0  0
   -3.2894  -10.1923    2.6331 H   0  0  0  0  0  0  0  0  0  0  0  0
  1  2  1  0
  2  3  2  0
  3  4  1  0
  4  5  2  0
  4  6  1  0
  6  7  1  0
  7  8  1  0
  8  9  2  0
  9 10  1  0
 10 11  1  0
 11 12  1  0
 12 13  2  0
 12 14  1  0
 14 15  1  0
 15 16  1  0
 16 17  2  0
 17 18  1  0
 18 19  2  0
 19 20  1  0
 20 21  2  0
 21 22  1  0
 22 23  1  0
  9 24  1  0
 24 25  2  0
 25 26  1  0
 26 27  2  0
 27 28  1  0
 27 29  1  0
 29 30  2  0
  3 31  1  0
 31 32  1  0
 32 33  2  0
 33 34  1  0
 34 35  2  0
 35 36  1  0
 36 37  2  0
 37  2  1  0
 22 14  2  0
 30 24  1  0
 37 32  1  0
 21 16  1  0
  1 38  1  0
  1 39  1  0
  1 40  1  0
  7 41  1  0
  8 42  1  0
 10 43  1  0
 17 44  1  0
 18 45  1  0
 19 46  1  0
 20 47  1  0
 23 48  1  0
 23 49  1  0
 23 50  1  0
 25 51  1  0
 26 52  1  0
 29 53  1  0
 30 54  1  0
 33 55  1  0
 34 56  1  0
 35 57  1  0
 36 58  1  0
M  CHG  2   6  -1  11  -1
M  END
>  <meeko>  (9) 
{"is_sidechain": [false], "free_energy": -7.614, "intermolecular_energy": -11.474, "internal_energy": -4.285}

$$$$
