LIB_HATNRBQJMSRMEP__M_PUB_ALL__e8__s20260927
     RDKit          3D

 71 74  0  0  0  0  0  0  0  0999 V2000
    4.6350  -14.4390   -3.5990 C   0  0  0  0  0  0  0  0  0  0  0  0
    5.0730  -13.2570   -2.8610 N   0  0  0  0  0  0  0  0  0  0  0  0
    4.4030  -12.0190   -2.8630 C   0  0  0  0  0  0  0  0  0  0  0  0
    5.0060  -10.9820   -2.5510 O   0  0  0  0  0  0  0  0  0  0  0  0
    2.8860  -11.9230   -3.2460 C   0  0  0  0  0  0  0  0  0  0  0  0
    2.6130  -12.9370   -4.3920 C   0  0  0  0  0  0  0  0  0  0  0  0
    2.6000  -10.5280   -3.8440 C   0  0  0  0  0  0  0  0  0  0  0  0
    1.9640  -12.3480   -2.0880 C   0  0  0  0  0  0  0  0  0  0  0  0
    1.4910  -13.6730   -2.0110 C   0  0  0  0  0  0  0  0  0  0  0  0
    0.6450  -14.0990   -0.9710 C   0  0  0  0  0  0  0  0  0  0  0  0
    0.1620  -15.5300   -0.9310 C   0  0  0  0  0  0  0  0  0  0  0  0
   -0.9490  -15.7440   -1.6850 F   0  0  0  0  0  0  0  0  0  0  0  0
   -0.1630  -15.9310    0.3310 F   0  0  0  0  0  0  0  0  0  0  0  0
    1.1000  -16.4090   -1.3740 F   0  0  0  0  0  0  0  0  0  0  0  0
    0.2400  -13.1700   -0.0050 C   0  0  0  0  0  0  0  0  0  0  0  0
    0.6770  -11.8390   -0.0600 C   0  0  0  0  0  0  0  0  0  0  0  0
    0.2160  -10.8290    0.9680 C   0  0  0  0  0  0  0  0  0  0  0  0
    1.1470   -9.8720    1.2320 F   0  0  0  0  0  0  0  0  0  0  0  0
   -0.0870  -11.4060    2.1610 F   0  0  0  0  0  0  0  0  0  0  0  0
   -0.9040  -10.1610    0.5750 F   0  0  0  0  0  0  0  0  0  0  0  0
    1.5250  -11.4400   -1.1090 C   0  0  0  0  0  0  0  0  0  0  0  0
    6.2910  -13.3860   -2.0930 C   0  0  0  0  0  0  0  0  0  0  0  0
    7.5020  -12.9290   -2.6340 C   0  0  0  0  0  0  0  0  0  0  0  0
    8.7120  -12.9900   -2.0210 N   0  0  0  0  0  0  0  0  0  0  0  0
    8.7250  -13.5160   -0.7990 C   0  0  0  0  0  0  0  0  0  0  0  0
   10.0180  -13.4620   -0.1850 N   0  0  0  0  0  0  0  0  0  0  0  0
   10.3300  -12.2230    0.5740 C   0  0  0  0  0  0  0  0  0  0  0  0
   11.8490  -12.1920    0.5750 C   0  0  0  0  0  0  0  0  0  0  0  0
   12.1950  -12.6900   -0.8190 C   0  0  2  0  0  0  0  0  0  0  0  0
   11.9680  -11.6130   -1.7360 O   0  0  0  0  0  0  0  0  0  0  0  0
   11.1740  -13.8110   -1.1110 C   0  0  1  0  0  0  0  0  0  0  0  0
   11.6670  -15.2170   -0.7250 C   0  0  0  0  0  0  0  0  0  0  0  0
   13.0870  -15.1890   -0.5640 O   0  0  0  0  0  0  0  0  0  0  0  0
    7.6060  -14.0110   -0.1520 C   0  0  0  0  0  0  0  0  0  0  0  0
    6.3530  -13.9520   -0.7970 C   0  0  0  0  0  0  0  0  0  0  0  0
    5.1760  -14.3720   -0.0150 C   0  0  0  0  0  0  0  0  0  0  0  0
    4.8000  -15.7300   -0.0050 C   0  0  0  0  0  0  0  0  0  0  0  0
    3.6940  -16.1650    0.7290 C   0  0  0  0  0  0  0  0  0  0  0  0
    2.9490  -15.2560    1.4760 C   0  0  0  0  0  0  0  0  0  0  0  0
    3.3130  -13.9100    1.4960 C   0  0  0  0  0  0  0  0  0  0  0  0
    4.4190  -13.4710    0.7630 C   0  0  0  0  0  0  0  0  0  0  0  0
    4.8340  -11.7940    0.8690 Cl  0  0  0  0  0  0  0  0  0  0  0  0
    4.3430  -15.2270   -2.8893 H   0  0  0  0  0  0  0  0  0  0  0  0
    3.7739  -14.1780   -4.2317 H   0  0  0  0  0  0  0  0  0  0  0  0
    5.4583  -14.8021   -4.2317 H   0  0  0  0  0  0  0  0  0  0  0  0
    2.3498  -13.9145   -3.9617 H   0  0  0  0  0  0  0  0  0  0  0  0
    1.7807  -12.5735   -5.0127 H   0  0  0  0  0  0  0  0  0  0  0  0
    3.5153  -13.0405   -5.0127 H   0  0  0  0  0  0  0  0  0  0  0  0
    2.4515   -9.8035   -3.0298 H   0  0  0  0  0  0  0  0  0  0  0  0
    3.4523  -10.2131   -4.4641 H   0  0  0  0  0  0  0  0  0  0  0  0
    1.6926  -10.5739   -4.4641 H   0  0  0  0  0  0  0  0  0  0  0  0
    1.7915  -14.3941   -2.7854 H   0  0  0  0  0  0  0  0  0  0  0  0
   -0.4296  -13.4885    0.8075 H   0  0  0  0  0  0  0  0  0  0  0  0
    1.8527  -10.3914   -1.1645 H   0  0  0  0  0  0  0  0  0  0  0  0
    7.4685  -12.4838   -3.6393 H   0  0  0  0  0  0  0  0  0  0  0  0
    9.9740  -14.2370    0.5030 H   0  0  0  0  0  0  0  0  0  0  0  0
    9.9174  -11.3367    0.0698 H   0  0  0  0  0  0  0  0  0  0  0  0
    9.8970  -12.2151    1.5851 H   0  0  0  0  0  0  0  0  0  0  0  0
   12.2247  -11.1707    0.7358 H   0  0  0  0  0  0  0  0  0  0  0  0
   12.2971  -12.7960    1.3777 H   0  0  0  0  0  0  0  0  0  0  0  0
   13.2340  -13.0406   -0.9061 H   0  0  0  0  0  0  0  0  0  0  0  0
   11.0030  -11.4720   -1.8020 H   0  0  0  0  0  0  0  0  0  0  0  0
   10.9464  -13.8539   -2.1864 H   0  0  0  0  0  0  0  0  0  0  0  0
   11.1956  -15.5258    0.2197 H   0  0  0  0  0  0  0  0  0  0  0  0
   11.3986  -15.9329   -1.5158 H   0  0  0  0  0  0  0  0  0  0  0  0
   13.2820  -15.5540    0.3240 H   0  0  0  0  0  0  0  0  0  0  0  0
    7.6930  -14.4458    0.8547 H   0  0  0  0  0  0  0  0  0  0  0  0
    5.3864  -16.4586   -0.5840 H   0  0  0  0  0  0  0  0  0  0  0  0
    3.4109  -17.2279    0.7169 H   0  0  0  0  0  0  0  0  0  0  0  0
    2.0751  -15.5991    2.0492 H   0  0  0  0  0  0  0  0  0  0  0  0
    2.7283  -13.1922    2.0900 H   0  0  0  0  0  0  0  0  0  0  0  0
  1  2  1  0
  2  3  1  0
  3  4  2  0
  3  5  1  0
  5  6  1  0
  5  7  1  0
  5  8  1  0
  8  9  2  0
  9 10  1  0
 10 11  1  0
 11 12  1  0
 11 13  1  0
 11 14  1  0
 10 15  2  0
 15 16  1  0
 16 17  1  0
 17 18  1  0
 17 19  1  0
 17 20  1  0
 16 21  2  0
  2 22  1  0
 22 23  2  0
 23 24  1  0
 24 25  2  0
 25 26  1  0
 26 27  1  0
 27 28  1  0
 28 29  1  0
 29 30  1  0
 29 31  1  0
 31 32  1  0
 32 33  1  0
 25 34  1  0
 34 35  2  0
 35 36  1  0
 36 37  2  0
 37 38  1  0
 38 39  2  0
 39 40  1  0
 40 41  2  0
 41 42  1  0
 21  8  1  0
 35 22  1  0
 41 36  1  0
 31 26  1  0
  1 43  1  0
  1 44  1  0
  1 45  1  0
  6 46  1  0
  6 47  1  0
  6 48  1  0
  7 49  1  0
  7 50  1  0
  7 51  1  0
  9 52  1  0
 15 53  1  0
 21 54  1  0
 23 55  1  0
 26 56  1  0
 27 57  1  0
 27 58  1  0
 28 59  1  0
 28 60  1  0
 29 61  1  1
 30 62  1  0
 31 63  1  6
 32 64  1  0
 32 65  1  0
 33 66  1  0
 34 67  1  0
 37 68  1  0
 38 69  1  0
 39 70  1  0
 40 71  1  0
M  CHG  1  26   1
M  END
>  <meeko>  (1) 
{"is_sidechain": [false], "free_energy": -8.423, "intermolecular_energy": -13.348, "internal_energy": -3.209}

$$$$
LIB_HATNRBQJMSRMEP__M_PUB_ALL__e8__s20260927
     RDKit          3D

 71 74  0  0  0  0  0  0  0  0999 V2000
    5.0520  -15.7790   -4.4620 C   0  0  0  0  0  0  0  0  0  0  0  0
    5.0530  -15.2670   -3.0940 N   0  0  0  0  0  0  0  0  0  0  0  0
    4.0450  -15.5200   -2.1450 C   0  0  0  0  0  0  0  0  0  0  0  0
    4.2010  -16.4020   -1.2890 O   0  0  0  0  0  0  0  0  0  0  0  0
    2.7040  -14.7090   -2.1560 C   0  0  0  0  0  0  0  0  0  0  0  0
    1.5800  -15.6300   -1.6030 C   0  0  0  0  0  0  0  0  0  0  0  0
    2.3090  -14.3990   -3.6170 C   0  0  0  0  0  0  0  0  0  0  0  0
    2.7470  -13.4940   -1.2110 C   0  0  0  0  0  0  0  0  0  0  0  0
    3.8350  -13.3220   -0.3320 C   0  0  0  0  0  0  0  0  0  0  0  0
    3.9110  -12.2270    0.5470 C   0  0  0  0  0  0  0  0  0  0  0  0
    5.0970  -12.0830    1.4720 C   0  0  0  0  0  0  0  0  0  0  0  0
    5.0920  -12.9790    2.4960 F   0  0  0  0  0  0  0  0  0  0  0  0
    5.1510  -10.8530    2.0570 F   0  0  0  0  0  0  0  0  0  0  0  0
    6.2830  -12.2460    0.8270 F   0  0  0  0  0  0  0  0  0  0  0  0
    2.8590  -11.3020    0.5690 C   0  0  0  0  0  0  0  0  0  0  0  0
    1.7530  -11.4530   -0.2780 C   0  0  0  0  0  0  0  0  0  0  0  0
    0.6030  -10.4690   -0.2340 C   0  0  0  0  0  0  0  0  0  0  0  0
   -0.6000  -11.0630   -0.0070 F   0  0  0  0  0  0  0  0  0  0  0  0
    0.4730   -9.7730   -1.3950 F   0  0  0  0  0  0  0  0  0  0  0  0
    0.7520   -9.5400    0.7510 F   0  0  0  0  0  0  0  0  0  0  0  0
    1.7040  -12.5550   -1.1520 C   0  0  0  0  0  0  0  0  0  0  0  0
    6.1690  -14.4310   -2.7150 C   0  0  0  0  0  0  0  0  0  0  0  0
    7.2630  -14.9990   -2.0430 C   0  0  0  0  0  0  0  0  0  0  0  0
    8.3700  -14.3290   -1.6320 N   0  0  0  0  0  0  0  0  0  0  0  0
    8.4080  -13.0300   -1.9140 C   0  0  0  0  0  0  0  0  0  0  0  0
    9.6430  -12.4140   -1.5300 N   0  0  0  0  0  0  0  0  0  0  0  0
   10.6850  -12.3260   -2.5860 C   0  0  0  0  0  0  0  0  0  0  0  0
   11.9750  -12.2150   -1.7900 C   0  0  0  0  0  0  0  0  0  0  0  0
   11.7310  -13.1610   -0.6250 C   0  0  2  0  0  0  0  0  0  0  0  0
   11.9010  -14.4990   -1.1060 O   0  0  0  0  0  0  0  0  0  0  0  0
   10.2490  -12.9570   -0.2440 C   0  0  1  0  0  0  0  0  0  0  0  0
   10.0280  -11.9010    0.8530 C   0  0  0  0  0  0  0  0  0  0  0  0
   10.8980  -12.1770    1.9540 O   0  0  0  0  0  0  0  0  0  0  0  0
    7.3950  -12.3430   -2.5620 C   0  0  0  0  0  0  0  0  0  0  0  0
    6.2450  -13.0430   -2.9800 C   0  0  0  0  0  0  0  0  0  0  0  0
    5.2580  -12.2930   -3.7800 C   0  0  0  0  0  0  0  0  0  0  0  0
    4.3560  -11.4270   -3.1310 C   0  0  0  0  0  0  0  0  0  0  0  0
    3.4110  -10.6970   -3.8560 C   0  0  0  0  0  0  0  0  0  0  0  0
    3.3560  -10.8090   -5.2430 C   0  0  0  0  0  0  0  0  0  0  0  0
    4.2510  -11.6460   -5.9090 C   0  0  0  0  0  0  0  0  0  0  0  0
    5.1980  -12.3780   -5.1860 C   0  0  0  0  0  0  0  0  0  0  0  0
    6.3010  -13.3650   -6.0840 Cl  0  0  0  0  0  0  0  0  0  0  0  0
    5.0499  -16.8788   -4.4419 H   0  0  0  0  0  0  0  0  0  0  0  0
    4.1546  -15.4201   -4.9872 H   0  0  0  0  0  0  0  0  0  0  0  0
    5.9508  -15.4236   -4.9872 H   0  0  0  0  0  0  0  0  0  0  0  0
    1.6002  -15.6134   -0.5033 H   0  0  0  0  0  0  0  0  0  0  0  0
    0.6030  -15.2694   -1.9572 H   0  0  0  0  0  0  0  0  0  0  0  0
    1.7415  -16.6588   -1.9572 H   0  0  0  0  0  0  0  0  0  0  0  0
    1.4437  -13.7199   -3.6267 H   0  0  0  0  0  0  0  0  0  0  0  0
    3.1555  -13.9216   -4.1323 H   0  0  0  0  0  0  0  0  0  0  0  0
    2.0465  -15.3347   -4.1323 H   0  0  0  0  0  0  0  0  0  0  0  0
    4.6467  -14.0644   -0.3335 H   0  0  0  0  0  0  0  0  0  0  0  0
    2.9018  -10.4468    1.2596 H   0  0  0  0  0  0  0  0  0  0  0  0
    0.8279  -12.6841   -1.8046 H   0  0  0  0  0  0  0  0  0  0  0  0
    7.2196  -16.0776   -1.8317 H   0  0  0  0  0  0  0  0  0  0  0  0
    9.3530  -11.4440   -1.3080 H   0  0  0  0  0  0  0  0  0  0  0  0
   10.6861  -13.2279   -3.2157 H   0  0  0  0  0  0  0  0  0  0  0  0
   10.5299  -11.4843   -3.2770 H   0  0  0  0  0  0  0  0  0  0  0  0
   12.8396  -12.5377   -2.3887 H   0  0  0  0  0  0  0  0  0  0  0  0
   12.2072  -11.1866   -1.4761 H   0  0  0  0  0  0  0  0  0  0  0  0
   12.4069  -12.9822    0.2242 H   0  0  0  0  0  0  0  0  0  0  0  0
   12.1630  -14.4510   -2.0460 H   0  0  0  0  0  0  0  0  0  0  0  0
    9.8197  -13.8921    0.1449 H   0  0  0  0  0  0  0  0  0  0  0  0
   10.2491  -10.9012    0.4511 H   0  0  0  0  0  0  0  0  0  0  0  0
    8.9819  -11.9335    1.1916 H   0  0  0  0  0  0  0  0  0  0  0  0
   11.3010  -11.3250    2.2220 H   0  0  0  0  0  0  0  0  0  0  0  0
    7.4868  -11.2628   -2.7485 H   0  0  0  0  0  0  0  0  0  0  0  0
    4.3964  -11.3241   -2.0366 H   0  0  0  0  0  0  0  0  0  0  0  0
    2.7092  -10.0327   -3.3305 H   0  0  0  0  0  0  0  0  0  0  0  0
    2.6078  -10.2382   -5.8125 H   0  0  0  0  0  0  0  0  0  0  0  0
    4.2119  -11.7305   -7.0051 H   0  0  0  0  0  0  0  0  0  0  0  0
  1  2  1  0
  2  3  1  0
  3  4  2  0
  3  5  1  0
  5  6  1  0
  5  7  1  0
  5  8  1  0
  8  9  2  0
  9 10  1  0
 10 11  1  0
 11 12  1  0
 11 13  1  0
 11 14  1  0
 10 15  2  0
 15 16  1  0
 16 17  1  0
 17 18  1  0
 17 19  1  0
 17 20  1  0
 16 21  2  0
  2 22  1  0
 22 23  2  0
 23 24  1  0
 24 25  2  0
 25 26  1  0
 26 27  1  0
 27 28  1  0
 28 29  1  0
 29 30  1  0
 29 31  1  0
 31 32  1  0
 32 33  1  0
 25 34  1  0
 34 35  2  0
 35 36  1  0
 36 37  2  0
 37 38  1  0
 38 39  2  0
 39 40  1  0
 40 41  2  0
 41 42  1  0
 21  8  1  0
 35 22  1  0
 41 36  1  0
 31 26  1  0
  1 43  1  0
  1 44  1  0
  1 45  1  0
  6 46  1  0
  6 47  1  0
  6 48  1  0
  7 49  1  0
  7 50  1  0
  7 51  1  0
  9 52  1  0
 15 53  1  0
 21 54  1  0
 23 55  1  0
 26 56  1  0
 27 57  1  0
 27 58  1  0
 28 59  1  0
 28 60  1  0
 29 61  1  1
 30 62  1  0
 31 63  1  1
 32 64  1  0
 32 65  1  0
 33 66  1  0
 34 67  1  0
 37 68  1  0
 38 69  1  0
 39 70  1  0
 40 71  1  0
M  CHG  1  26   1
M  END
>  <meeko>  (2) 
{"is_sidechain": [false], "free_energy": -8.336, "intermolecular_energy": -12.808, "internal_energy": -3.611}

$$$$
LIB_HATNRBQJMSRMEP__M_PUB_ALL__e8__s20260927
     RDKit          3D

 71 74  0  0  0  0  0  0  0  0999 V2000
    4.5740  -15.8960   -2.8180 C   0  0  0  0  0  0  0  0  0  0  0  0
    4.7260  -14.8960   -1.7650 N   0  0  0  0  0  0  0  0  0  0  0  0
    3.7590  -14.6190   -0.7800 C   0  0  0  0  0  0  0  0  0  0  0  0
    4.1040  -14.4090    0.3920 O   0  0  0  0  0  0  0  0  0  0  0  0
    2.2330  -14.5830   -1.1340 C   0  0  0  0  0  0  0  0  0  0  0  0
    1.6550  -16.0100   -0.9190 C   0  0  0  0  0  0  0  0  0  0  0  0
    2.0680  -14.2880   -2.6410 C   0  0  0  0  0  0  0  0  0  0  0  0
    1.4350  -13.6660   -0.1880 C   0  0  0  0  0  0  0  0  0  0  0  0
    1.1080  -12.3550   -0.5860 C   0  0  0  0  0  0  0  0  0  0  0  0
    0.3830  -11.4860    0.2490 C   0  0  0  0  0  0  0  0  0  0  0  0
    0.0550  -10.0870   -0.2190 C   0  0  0  0  0  0  0  0  0  0  0  0
    0.3820   -9.1270    0.6870 F   0  0  0  0  0  0  0  0  0  0  0  0
   -1.2740   -9.9240   -0.4710 F   0  0  0  0  0  0  0  0  0  0  0  0
    0.7000   -9.7600   -1.3710 F   0  0  0  0  0  0  0  0  0  0  0  0
    0.0040  -11.9300    1.5220 C   0  0  0  0  0  0  0  0  0  0  0  0
    0.3290  -13.2230    1.9580 C   0  0  0  0  0  0  0  0  0  0  0  0
   -0.0560  -13.6930    3.3440 C   0  0  0  0  0  0  0  0  0  0  0  0
   -0.9930  -14.6800    3.3330 F   0  0  0  0  0  0  0  0  0  0  0  0
   -0.5660  -12.6900    4.1070 F   0  0  0  0  0  0  0  0  0  0  0  0
    1.0050  -14.1950    4.0360 F   0  0  0  0  0  0  0  0  0  0  0  0
    1.0510  -14.0730    1.1010 C   0  0  0  0  0  0  0  0  0  0  0  0
    5.9570  -14.1380   -1.7620 C   0  0  0  0  0  0  0  0  0  0  0  0
    7.0930  -14.6650   -1.1290 C   0  0  0  0  0  0  0  0  0  0  0  0
    8.3060  -14.0590   -1.0540 N   0  0  0  0  0  0  0  0  0  0  0  0
    8.4080  -12.8750   -1.6500 C   0  0  0  0  0  0  0  0  0  0  0  0
    9.7370  -12.3430   -1.6050 N   0  0  0  0  0  0  0  0  0  0  0  0
   10.4490  -12.2540   -2.9060 C   0  0  0  0  0  0  0  0  0  0  0  0
   11.9140  -12.2490   -2.4990 C   0  0  0  0  0  0  0  0  0  0  0  0
   11.9430  -13.2410   -1.3460 C   0  0  2  0  0  0  0  0  0  0  0  0
   11.8890  -14.5590   -1.9030 O   0  0  0  0  0  0  0  0  0  0  0  0
   10.6400  -12.9810   -0.5590 C   0  0  1  0  0  0  0  0  0  0  0  0
   10.7990  -11.9740    0.5920 C   0  0  0  0  0  0  0  0  0  0  0  0
   11.2220  -12.6670    1.7690 O   0  0  0  0  0  0  0  0  0  0  0  0
    7.3650  -12.2370   -2.3010 C   0  0  0  0  0  0  0  0  0  0  0  0
    6.1070  -12.8690   -2.3690 C   0  0  0  0  0  0  0  0  0  0  0  0
    5.0690  -12.2090   -3.1850 C   0  0  0  0  0  0  0  0  0  0  0  0
    4.1600  -11.3280   -2.5670 C   0  0  0  0  0  0  0  0  0  0  0  0
    3.1680  -10.6810   -3.3080 C   0  0  0  0  0  0  0  0  0  0  0  0
    3.0720  -10.8920   -4.6810 C   0  0  0  0  0  0  0  0  0  0  0  0
    3.9730  -11.7450   -5.3170 C   0  0  0  0  0  0  0  0  0  0  0  0
    4.9670  -12.3940   -4.5790 C   0  0  0  0  0  0  0  0  0  0  0  0
    6.0730  -13.4060   -5.4440 Cl  0  0  0  0  0  0  0  0  0  0  0  0
    4.4234  -16.8866   -2.3640 H   0  0  0  0  0  0  0  0  0  0  0  0
    3.7041  -15.6424   -3.4417 H   0  0  0  0  0  0  0  0  0  0  0  0
    5.4800  -15.9124   -3.4417 H   0  0  0  0  0  0  0  0  0  0  0  0
    1.5725  -16.2136    0.1588 H   0  0  0  0  0  0  0  0  0  0  0  0
    0.6593  -16.0759   -1.3819 H   0  0  0  0  0  0  0  0  0  0  0  0
    2.3242  -16.7502   -1.3819 H   0  0  0  0  0  0  0  0  0  0  0  0
    1.5348  -13.3348   -2.7718 H   0  0  0  0  0  0  0  0  0  0  0  0
    3.0597  -14.2211   -3.1123 H   0  0  0  0  0  0  0  0  0  0  0  0
    1.4920  -15.0980   -3.1123 H   0  0  0  0  0  0  0  0  0  0  0  0
    1.4284  -12.0012   -1.5770 H   0  0  0  0  0  0  0  0  0  0  0  0
   -0.5553  -11.2566    2.1881 H   0  0  0  0  0  0  0  0  0  0  0  0
    1.3217  -15.0810    1.4483 H   0  0  0  0  0  0  0  0  0  0  0  0
    6.9926  -15.6519   -0.6536 H   0  0  0  0  0  0  0  0  0  0  0  0
    9.5820  -11.3720   -1.2760 H   0  0  0  0  0  0  0  0  0  0  0  0
   10.2190  -13.1216   -3.5420 H   0  0  0  0  0  0  0  0  0  0  0  0
   10.1616  -11.3713   -3.4962 H   0  0  0  0  0  0  0  0  0  0  0  0
   12.5569  -12.5835   -3.3265 H   0  0  0  0  0  0  0  0  0  0  0  0
   12.2884  -11.2512   -2.2265 H   0  0  0  0  0  0  0  0  0  0  0  0
   12.8372  -13.1417   -0.7132 H   0  0  0  0  0  0  0  0  0  0  0  0
   12.5670  -14.6180   -2.6050 H   0  0  0  0  0  0  0  0  0  0  0  0
   10.2765  -13.9115   -0.0985 H   0  0  0  0  0  0  0  0  0  0  0  0
   11.5514  -11.2194    0.3191 H   0  0  0  0  0  0  0  0  0  0  0  0
    9.8368  -11.4760    0.7825 H   0  0  0  0  0  0  0  0  0  0  0  0
   10.4410  -12.7420    2.3550 H   0  0  0  0  0  0  0  0  0  0  0  0
    7.5167  -11.2487   -2.7595 H   0  0  0  0  0  0  0  0  0  0  0  0
    4.2324  -11.1467   -1.4845 H   0  0  0  0  0  0  0  0  0  0  0  0
    2.4615  -10.0037   -2.8059 H   0  0  0  0  0  0  0  0  0  0  0  0
    2.2869  -10.3867   -5.2627 H   0  0  0  0  0  0  0  0  0  0  0  0
    3.9014  -11.9077   -6.4025 H   0  0  0  0  0  0  0  0  0  0  0  0
  1  2  1  0
  2  3  1  0
  3  4  2  0
  3  5  1  0
  5  6  1  0
  5  7  1  0
  5  8  1  0
  8  9  2  0
  9 10  1  0
 10 11  1  0
 11 12  1  0
 11 13  1  0
 11 14  1  0
 10 15  2  0
 15 16  1  0
 16 17  1  0
 17 18  1  0
 17 19  1  0
 17 20  1  0
 16 21  2  0
  2 22  1  0
 22 23  2  0
 23 24  1  0
 24 25  2  0
 25 26  1  0
 26 27  1  0
 27 28  1  0
 28 29  1  0
 29 30  1  0
 29 31  1  0
 31 32  1  0
 32 33  1  0
 25 34  1  0
 34 35  2  0
 35 36  1  0
 36 37  2  0
 37 38  1  0
 38 39  2  0
 39 40  1  0
 40 41  2  0
 41 42  1  0
 21  8  1  0
 35 22  1  0
 41 36  1  0
 31 26  1  0
  1 43  1  0
  1 44  1  0
  1 45  1  0
  6 46  1  0
  6 47  1  0
  6 48  1  0
  7 49  1  0
  7 50  1  0
  7 51  1  0
  9 52  1  0
 15 53  1  0
 21 54  1  0
 23 55  1  0
 26 56  1  0
 27 57  1  0
 27 58  1  0
 28 59  1  0
 28 60  1  0
 29 61  1  1
 30 62  1  0
 31 63  1  1
 32 64  1  0
 32 65  1  0
 33 66  1  0
 34 67  1  0
 37 68  1  0
 38 69  1  0
 39 70  1  0
 40 71  1  0
M  CHG  1  26   1
M  END
>  <meeko>  (3) 
{"is_sidechain": [false], "free_energy": -8.31, "intermolecular_energy": -13.716, "internal_energy": -2.661}

$$$$
LIB_HATNRBQJMSRMEP__M_PUB_ALL__e8__s20260927
     RDKit          3D

 71 74  0  0  0  0  0  0  0  0999 V2000
    4.8060  -14.7140   -3.6720 C   0  0  0  0  0  0  0  0  0  0  0  0
    5.2360  -13.4870   -3.0050 N   0  0  0  0  0  0  0  0  0  0  0  0
    4.5720  -12.2500   -3.1010 C   0  0  0  0  0  0  0  0  0  0  0  0
    5.1720  -11.1970   -2.8410 O   0  0  0  0  0  0  0  0  0  0  0  0
    3.0650  -12.1730   -3.5230 C   0  0  0  0  0  0  0  0  0  0  0  0
    2.8090  -13.2680   -4.5970 C   0  0  0  0  0  0  0  0  0  0  0  0
    2.8030  -10.8250   -4.2300 C   0  0  0  0  0  0  0  0  0  0  0  0
    2.1140  -12.5060   -2.3580 C   0  0  0  0  0  0  0  0  0  0  0  0
    1.8100  -11.5250   -1.3930 C   0  0  0  0  0  0  0  0  0  0  0  0
    0.9480  -11.7900   -0.3140 C   0  0  0  0  0  0  0  0  0  0  0  0
    0.6510  -10.7070    0.6980 C   0  0  0  0  0  0  0  0  0  0  0  0
    1.7710  -10.1500    1.2330 F   0  0  0  0  0  0  0  0  0  0  0  0
   -0.0740  -11.1710    1.7550 F   0  0  0  0  0  0  0  0  0  0  0  0
   -0.0690   -9.6830    0.1680 F   0  0  0  0  0  0  0  0  0  0  0  0
    0.4040  -13.0740   -0.1810 C   0  0  0  0  0  0  0  0  0  0  0  0
    0.7000  -14.0790   -1.1120 C   0  0  0  0  0  0  0  0  0  0  0  0
    0.1350  -15.4740   -0.9530 C   0  0  0  0  0  0  0  0  0  0  0  0
    1.0310  -16.4520   -1.2610 F   0  0  0  0  0  0  0  0  0  0  0  0
   -0.9490  -15.6870   -1.7440 F   0  0  0  0  0  0  0  0  0  0  0  0
   -0.2700  -15.7280    0.3230 F   0  0  0  0  0  0  0  0  0  0  0  0
    1.5620  -13.7870   -2.1850 C   0  0  0  0  0  0  0  0  0  0  0  0
    6.4400  -13.5690   -2.2100 C   0  0  0  0  0  0  0  0  0  0  0  0
    7.6620  -13.1490   -2.7580 C   0  0  0  0  0  0  0  0  0  0  0  0
    8.8610  -13.1730   -2.1210 N   0  0  0  0  0  0  0  0  0  0  0  0
    8.8510  -13.6210   -0.8680 C   0  0  0  0  0  0  0  0  0  0  0  0
   10.1340  -13.5310   -0.2370 N   0  0  0  0  0  0  0  0  0  0  0  0
   10.3650  -12.3260    0.6010 C   0  0  0  0  0  0  0  0  0  0  0  0
   11.8810  -12.2060    0.6230 C   0  0  0  0  0  0  0  0  0  0  0  0
   12.2670  -12.5950   -0.7950 C   0  0  2  0  0  0  0  0  0  0  0  0
   11.9850  -11.4780   -1.6470 O   0  0  0  0  0  0  0  0  0  0  0  0
   11.3170  -13.7530   -1.1680 C   0  0  1  0  0  0  0  0  0  0  0  0
   11.8880  -15.1490   -0.8640 C   0  0  0  0  0  0  0  0  0  0  0  0
   13.1550  -15.2900   -1.5120 O   0  0  0  0  0  0  0  0  0  0  0  0
    7.7200  -14.0730   -0.2110 C   0  0  0  0  0  0  0  0  0  0  0  0
    6.4790  -14.0520   -0.8810 C   0  0  0  0  0  0  0  0  0  0  0  0
    5.2870  -14.4210   -0.0940 C   0  0  0  0  0  0  0  0  0  0  0  0
    4.8740  -15.7670   -0.0520 C   0  0  0  0  0  0  0  0  0  0  0  0
    3.7540  -16.1540    0.6870 C   0  0  0  0  0  0  0  0  0  0  0  0
    3.0310  -15.2070    1.4070 C   0  0  0  0  0  0  0  0  0  0  0  0
    3.4310  -13.8710    1.3950 C   0  0  0  0  0  0  0  0  0  0  0  0
    4.5520  -13.4810    0.6570 C   0  0  0  0  0  0  0  0  0  0  0  0
    5.0110  -11.8130    0.7230 Cl  0  0  0  0  0  0  0  0  0  0  0  0
    4.5415  -15.4686   -2.9166 H   0  0  0  0  0  0  0  0  0  0  0  0
    3.9288  -14.5015   -4.3007 H   0  0  0  0  0  0  0  0  0  0  0  0
    5.6240  -15.0956   -4.3007 H   0  0  0  0  0  0  0  0  0  0  0  0
    2.5856  -14.2237   -4.1003 H   0  0  0  0  0  0  0  0  0  0  0  0
    1.9556  -12.9730   -5.2252 H   0  0  0  0  0  0  0  0  0  0  0  0
    3.7047  -13.3819   -5.2252 H   0  0  0  0  0  0  0  0  0  0  0  0
    2.6502  -10.0390   -3.4758 H   0  0  0  0  0  0  0  0  0  0  0  0
    3.6677  -10.5666   -4.8589 H   0  0  0  0  0  0  0  0  0  0  0  0
    1.9044  -10.9093   -4.8589 H   0  0  0  0  0  0  0  0  0  0  0  0
    2.2590  -10.5252   -1.4863 H   0  0  0  0  0  0  0  0  0  0  0  0
   -0.2637  -13.2962    0.6645 H   0  0  0  0  0  0  0  0  0  0  0  0
    1.8098  -14.5802   -2.9057 H   0  0  0  0  0  0  0  0  0  0  0  0
    7.6472  -12.7685   -3.7900 H   0  0  0  0  0  0  0  0  0  0  0  0
   10.1300  -14.3480    0.4010 H   0  0  0  0  0  0  0  0  0  0  0  0
    9.9050  -11.4356    0.1475 H   0  0  0  0  0  0  0  0  0  0  0  0
    9.9232  -12.4067    1.6052 H   0  0  0  0  0  0  0  0  0  0  0  0
   12.1942  -11.1765    0.8512 H   0  0  0  0  0  0  0  0  0  0  0  0
   12.3575  -12.8312    1.3925 H   0  0  0  0  0  0  0  0  0  0  0  0
   13.3256  -12.8782   -0.8908 H   0  0  0  0  0  0  0  0  0  0  0  0
   11.8200  -11.8200   -2.5470 H   0  0  0  0  0  0  0  0  0  0  0  0
   11.1023  -13.7415   -2.2468 H   0  0  0  0  0  0  0  0  0  0  0  0
   12.0153  -15.2659    0.2223 H   0  0  0  0  0  0  0  0  0  0  0  0
   11.1959  -15.9200   -1.2337 H   0  0  0  0  0  0  0  0  0  0  0  0
   12.9820  -15.3300   -2.4750 H   0  0  0  0  0  0  0  0  0  0  0  0
    7.7881  -14.4445    0.8221 H   0  0  0  0  0  0  0  0  0  0  0  0
    5.4427  -16.5253   -0.6101 H   0  0  0  0  0  0  0  0  0  0  0  0
    3.4426  -17.2089    0.7002 H   0  0  0  0  0  0  0  0  0  0  0  0
    2.1458  -15.5119    1.9844 H   0  0  0  0  0  0  0  0  0  0  0  0
    2.8631  -13.1228    1.9675 H   0  0  0  0  0  0  0  0  0  0  0  0
  1  2  1  0
  2  3  1  0
  3  4  2  0
  3  5  1  0
  5  6  1  0
  5  7  1  0
  5  8  1  0
  8  9  2  0
  9 10  1  0
 10 11  1  0
 11 12  1  0
 11 13  1  0
 11 14  1  0
 10 15  2  0
 15 16  1  0
 16 17  1  0
 17 18  1  0
 17 19  1  0
 17 20  1  0
 16 21  2  0
  2 22  1  0
 22 23  2  0
 23 24  1  0
 24 25  2  0
 25 26  1  0
 26 27  1  0
 27 28  1  0
 28 29  1  0
 29 30  1  0
 29 31  1  0
 31 32  1  0
 32 33  1  0
 25 34  1  0
 34 35  2  0
 35 36  1  0
 36 37  2  0
 37 38  1  0
 38 39  2  0
 39 40  1  0
 40 41  2  0
 41 42  1  0
 21  8  1  0
 35 22  1  0
 41 36  1  0
 31 26  1  0
  1 43  1  0
  1 44  1  0
  1 45  1  0
  6 46  1  0
  6 47  1  0
  6 48  1  0
  7 49  1  0
  7 50  1  0
  7 51  1  0
  9 52  1  0
 15 53  1  0
 21 54  1  0
 23 55  1  0
 26 56  1  0
 27 57  1  0
 27 58  1  0
 28 59  1  0
 28 60  1  0
 29 61  1  1
 30 62  1  0
 31 63  1  6
 32 64  1  0
 32 65  1  0
 33 66  1  0
 34 67  1  0
 37 68  1  0
 38 69  1  0
 39 70  1  0
 40 71  1  0
M  CHG  1  26   1
M  END
>  <meeko>  (4) 
{"is_sidechain": [false], "free_energy": -8.308, "intermolecular_energy": -13.135, "internal_energy": -3.24}

$$$$
LIB_HATNRBQJMSRMEP__M_PUB_ALL__e8__s20260927
     RDKit          3D

 71 74  0  0  0  0  0  0  0  0999 V2000
    6.1200  -12.6700   -5.4850 C   0  0  0  0  0  0  0  0  0  0  0  0
    6.2290  -12.4120   -4.0510 N   0  0  0  0  0  0  0  0  0  0  0  0
    5.1970  -11.8830   -3.2530 C   0  0  0  0  0  0  0  0  0  0  0  0
    5.4600  -11.0940   -2.3350 O   0  0  0  0  0  0  0  0  0  0  0  0
    3.7030  -12.2870   -3.4950 C   0  0  0  0  0  0  0  0  0  0  0  0
    3.6730  -13.7720   -3.9520 C   0  0  0  0  0  0  0  0  0  0  0  0
    3.1420  -11.4720   -4.6810 C   0  0  0  0  0  0  0  0  0  0  0  0
    2.8670  -12.2340   -2.2020 C   0  0  0  0  0  0  0  0  0  0  0  0
    1.9950  -11.1530   -1.9680 C   0  0  0  0  0  0  0  0  0  0  0  0
    1.2170  -11.0670   -0.8000 C   0  0  0  0  0  0  0  0  0  0  0  0
    0.2950   -9.8880   -0.5910 C   0  0  0  0  0  0  0  0  0  0  0  0
    0.2400   -9.0530   -1.6640 F   0  0  0  0  0  0  0  0  0  0  0  0
    0.6780   -9.1130    0.4630 F   0  0  0  0  0  0  0  0  0  0  0  0
   -0.9850  -10.2660   -0.3350 F   0  0  0  0  0  0  0  0  0  0  0  0
    1.3370  -12.0710    0.1690 C   0  0  0  0  0  0  0  0  0  0  0  0
    2.2090  -13.1530   -0.0230 C   0  0  0  0  0  0  0  0  0  0  0  0
    2.3600  -14.2230    1.0370 C   0  0  0  0  0  0  0  0  0  0  0  0
    3.5810  -14.2120    1.6370 F   0  0  0  0  0  0  0  0  0  0  0  0
    2.1930  -15.4750    0.5350 F   0  0  0  0  0  0  0  0  0  0  0  0
    1.4500  -14.0930    2.0410 F   0  0  0  0  0  0  0  0  0  0  0  0
    2.9730  -13.2160   -1.2020 C   0  0  0  0  0  0  0  0  0  0  0  0
    7.5000  -12.7140   -3.4320 C   0  0  0  0  0  0  0  0  0  0  0  0
    8.5330  -11.7650   -3.4720 C   0  0  0  0  0  0  0  0  0  0  0  0
    9.7690  -11.9220   -2.9330 N   0  0  0  0  0  0  0  0  0  0  0  0
    9.9930  -13.0730   -2.3040 C   0  0  0  0  0  0  0  0  0  0  0  0
   11.2840  -13.1250   -1.6860 N   0  0  0  0  0  0  0  0  0  0  0  0
   11.2970  -13.3630   -0.2200 C   0  0  0  0  0  0  0  0  0  0  0  0
   12.6390  -12.7910    0.2110 C   0  0  0  0  0  0  0  0  0  0  0  0
   12.7680  -11.5500   -0.6580 C   0  0  2  0  0  0  0  0  0  0  0  0
   11.9240  -10.5360   -0.1000 O   0  0  0  0  0  0  0  0  0  0  0  0
   12.2020  -11.9620   -2.0340 C   0  0  1  0  0  0  0  0  0  0  0  0
   13.2660  -12.4890   -3.0120 C   0  0  0  0  0  0  0  0  0  0  0  0
   14.5270  -11.8890   -2.7040 O   0  0  0  0  0  0  0  0  0  0  0  0
    9.0670  -14.0960   -2.1980 C   0  0  0  0  0  0  0  0  0  0  0  0
    7.7870  -13.9290   -2.7660 C   0  0  0  0  0  0  0  0  0  0  0  0
    6.7980  -14.9930   -2.5110 C   0  0  0  0  0  0  0  0  0  0  0  0
    6.5880  -15.9910   -3.4830 C   0  0  0  0  0  0  0  0  0  0  0  0
    5.6630  -17.0170   -3.2750 C   0  0  0  0  0  0  0  0  0  0  0  0
    4.9380  -17.0720   -2.0870 C   0  0  0  0  0  0  0  0  0  0  0  0
    5.1410  -16.1060   -1.1030 C   0  0  0  0  0  0  0  0  0  0  0  0
    6.0660  -15.0780   -1.3090 C   0  0  0  0  0  0  0  0  0  0  0  0
    6.2930  -13.9380   -0.0260 Cl  0  0  0  0  0  0  0  0  0  0  0  0
    5.6965  -13.6724   -5.6461 H   0  0  0  0  0  0  0  0  0  0  0  0
    5.4634  -11.9164   -5.9443 H   0  0  0  0  0  0  0  0  0  0  0  0
    7.1180  -12.6155   -5.9443 H   0  0  0  0  0  0  0  0  0  0  0  0
    3.6598  -14.4273   -3.0686 H   0  0  0  0  0  0  0  0  0  0  0  0
    2.7710  -13.9518   -4.5554 H   0  0  0  0  0  0  0  0  0  0  0  0
    4.5670  -13.9881   -4.5554 H   0  0  0  0  0  0  0  0  0  0  0  0
    2.5573  -10.6225   -4.2982 H   0  0  0  0  0  0  0  0  0  0  0  0
    3.9744  -11.0973   -5.2947 H   0  0  0  0  0  0  0  0  0  0  0  0
    2.4948  -12.1158   -5.2947 H   0  0  0  0  0  0  0  0  0  0  0  0
    1.9205  -10.3537   -2.7200 H   0  0  0  0  0  0  0  0  0  0  0  0
    0.7406  -12.0105    1.0913 H   0  0  0  0  0  0  0  0  0  0  0  0
    3.6706  -14.0543   -1.3451 H   0  0  0  0  0  0  0  0  0  0  0  0
    8.3236  -10.8138   -3.9832 H   0  0  0  0  0  0  0  0  0  0  0  0
   11.7150  -13.9570   -2.1320 H   0  0  0  0  0  0  0  0  0  0  0  0
   10.4666  -12.8361    0.2729 H   0  0  0  0  0  0  0  0  0  0  0  0
   11.1732  -14.4229    0.0469 H   0  0  0  0  0  0  0  0  0  0  0  0
   12.6336  -12.5284    1.2792 H   0  0  0  0  0  0  0  0  0  0  0  0
   13.4736  -13.4972    0.0901 H   0  0  0  0  0  0  0  0  0  0  0  0
   13.8008  -11.1777   -0.7273 H   0  0  0  0  0  0  0  0  0  0  0  0
   11.1050  -10.9660    0.2160 H   0  0  0  0  0  0  0  0  0  0  0  0
   11.7345  -11.0993   -2.5313 H   0  0  0  0  0  0  0  0  0  0  0  0
   13.3453  -13.5819   -2.9153 H   0  0  0  0  0  0  0  0  0  0  0  0
   12.9782  -12.2350   -4.0428 H   0  0  0  0  0  0  0  0  0  0  0  0
   14.9280  -11.6120   -3.5530 H   0  0  0  0  0  0  0  0  0  0  0  0
    9.3265  -15.0291   -1.6765 H   0  0  0  0  0  0  0  0  0  0  0  0
    7.1618  -15.9619   -4.4210 H   0  0  0  0  0  0  0  0  0  0  0  0
    5.5071  -17.7819   -4.0500 H   0  0  0  0  0  0  0  0  0  0  0  0
    4.2060  -17.8770   -1.9255 H   0  0  0  0  0  0  0  0  0  0  0  0
    4.5724  -16.1525   -0.1625 H   0  0  0  0  0  0  0  0  0  0  0  0
  1  2  1  0
  2  3  1  0
  3  4  2  0
  3  5  1  0
  5  6  1  0
  5  7  1  0
  5  8  1  0
  8  9  2  0
  9 10  1  0
 10 11  1  0
 11 12  1  0
 11 13  1  0
 11 14  1  0
 10 15  2  0
 15 16  1  0
 16 17  1  0
 17 18  1  0
 17 19  1  0
 17 20  1  0
 16 21  2  0
  2 22  1  0
 22 23  2  0
 23 24  1  0
 24 25  2  0
 25 26  1  0
 26 27  1  0
 27 28  1  0
 28 29  1  0
 29 30  1  0
 29 31  1  0
 31 32  1  0
 32 33  1  0
 25 34  1  0
 34 35  2  0
 35 36  1  0
 36 37  2  0
 37 38  1  0
 38 39  2  0
 39 40  1  0
 40 41  2  0
 41 42  1  0
 21  8  1  0
 35 22  1  0
 41 36  1  0
 31 26  1  0
  1 43  1  0
  1 44  1  0
  1 45  1  0
  6 46  1  0
  6 47  1  0
  6 48  1  0
  7 49  1  0
  7 50  1  0
  7 51  1  0
  9 52  1  0
 15 53  1  0
 21 54  1  0
 23 55  1  0
 26 56  1  0
 27 57  1  0
 27 58  1  0
 28 59  1  0
 28 60  1  0
 29 61  1  6
 30 62  1  0
 31 63  1  6
 32 64  1  0
 32 65  1  0
 33 66  1  0
 34 67  1  0
 37 68  1  0
 38 69  1  0
 39 70  1  0
 40 71  1  0
M  CHG  1  26   1
M  END
>  <meeko>  (5) 
{"is_sidechain": [false], "free_energy": -8.298, "intermolecular_energy": -13.242, "internal_energy": -3.117}

$$$$
LIB_HATNRBQJMSRMEP__M_PUB_ALL__e8__s20260927
     RDKit          3D

 71 74  0  0  0  0  0  0  0  0999 V2000
    4.8050  -16.2930   -1.4620 C   0  0  0  0  0  0  0  0  0  0  0  0
    4.8890  -14.9850   -0.8150 N   0  0  0  0  0  0  0  0  0  0  0  0
    3.8700  -14.4150   -0.0290 C   0  0  0  0  0  0  0  0  0  0  0  0
    4.1540  -13.7860    1.0000 O   0  0  0  0  0  0  0  0  0  0  0  0
    2.3620  -14.5740   -0.4230 C   0  0  0  0  0  0  0  0  0  0  0  0
    1.8610  -15.9390    0.1260 C   0  0  0  0  0  0  0  0  0  0  0  0
    2.2460  -14.6730   -1.9600 C   0  0  0  0  0  0  0  0  0  0  0  0
    1.4690  -13.5070    0.2400 C   0  0  0  0  0  0  0  0  0  0  0  0
    0.8360  -13.7800    1.4680 C   0  0  0  0  0  0  0  0  0  0  0  0
    0.0130  -12.8340    2.1040 C   0  0  0  0  0  0  0  0  0  0  0  0
   -0.6460  -13.1710    3.4220 C   0  0  0  0  0  0  0  0  0  0  0  0
   -1.8810  -13.7220    3.2790 F   0  0  0  0  0  0  0  0  0  0  0  0
   -0.8180  -12.0720    4.2100 F   0  0  0  0  0  0  0  0  0  0  0  0
    0.0830  -14.0520    4.1580 F   0  0  0  0  0  0  0  0  0  0  0  0
   -0.2070  -11.5990    1.4800 C   0  0  0  0  0  0  0  0  0  0  0  0
    0.3930  -11.3010    0.2480 C   0  0  0  0  0  0  0  0  0  0  0  0
    0.1330   -9.9780   -0.4400 C   0  0  0  0  0  0  0  0  0  0  0  0
    0.4860   -8.9040    0.3170 F   0  0  0  0  0  0  0  0  0  0  0  0
   -1.1780   -9.8080   -0.7560 F   0  0  0  0  0  0  0  0  0  0  0  0
    0.8240   -9.8550   -1.6070 F   0  0  0  0  0  0  0  0  0  0  0  0
    1.2150  -12.2640   -0.3650 C   0  0  0  0  0  0  0  0  0  0  0  0
    6.1060  -14.2340   -1.0250 C   0  0  0  0  0  0  0  0  0  0  0  0
    7.2730  -14.6030   -0.3380 C   0  0  0  0  0  0  0  0  0  0  0  0
    8.4780  -13.9860   -0.4430 N   0  0  0  0  0  0  0  0  0  0  0  0
    8.5380  -12.9570   -1.2850 C   0  0  0  0  0  0  0  0  0  0  0  0
    9.8590  -12.4180   -1.4070 N   0  0  0  0  0  0  0  0  0  0  0  0
   10.4080  -12.3400   -2.7860 C   0  0  0  0  0  0  0  0  0  0  0  0
   11.9110  -12.3230   -2.5600 C   0  0  0  0  0  0  0  0  0  0  0  0
   12.0870  -13.2990   -1.4080 C   0  0  2  0  0  0  0  0  0  0  0  0
   11.9750  -14.6250   -1.9380 O   0  0  0  0  0  0  0  0  0  0  0  0
   10.8870  -13.0370   -0.4720 C   0  0  1  0  0  0  0  0  0  0  0  0
   11.1770  -12.0140    0.6390 C   0  0  0  0  0  0  0  0  0  0  0  0
   11.2080  -12.6860    1.9010 O   0  0  0  0  0  0  0  0  0  0  0  0
    7.4620  -12.4840   -2.0160 C   0  0  0  0  0  0  0  0  0  0  0  0
    6.2130  -13.1260   -1.8970 C   0  0  0  0  0  0  0  0  0  0  0  0
    5.1360  -12.6660   -2.7940 C   0  0  0  0  0  0  0  0  0  0  0  0
    4.3550  -11.5530   -2.4250 C   0  0  0  0  0  0  0  0  0  0  0  0
    3.3300  -11.0860   -3.2520 C   0  0  0  0  0  0  0  0  0  0  0  0
    3.0720  -11.7140   -4.4670 C   0  0  0  0  0  0  0  0  0  0  0  0
    3.8430  -12.8060   -4.8620 C   0  0  0  0  0  0  0  0  0  0  0  0
    4.8700  -13.2760   -4.0380 C   0  0  0  0  0  0  0  0  0  0  0  0
    5.8110  -14.6100   -4.6130 Cl  0  0  0  0  0  0  0  0  0  0  0  0
    4.7545  -17.0792   -0.6943 H   0  0  0  0  0  0  0  0  0  0  0  0
    3.9023  -16.3345   -2.0893 H   0  0  0  0  0  0  0  0  0  0  0  0
    5.6949  -16.4496   -2.0893 H   0  0  0  0  0  0  0  0  0  0  0  0
    1.8690  -15.9171    1.2258 H   0  0  0  0  0  0  0  0  0  0  0  0
    0.8365  -16.1235   -0.2296 H   0  0  0  0  0  0  0  0  0  0  0  0
    2.5228  -16.7424   -0.2296 H   0  0  0  0  0  0  0  0  0  0  0  0
    1.4335  -15.3665   -2.2225 H   0  0  0  0  0  0  0  0  0  0  0  0
    2.0279  -13.6784   -2.3761 H   0  0  0  0  0  0  0  0  0  0  0  0
    3.1940  -15.0447   -2.3761 H   0  0  0  0  0  0  0  0  0  0  0  0
    0.9897  -14.7603    1.9427 H   0  0  0  0  0  0  0  0  0  0  0  0
   -0.8578  -10.8546    1.9620 H   0  0  0  0  0  0  0  0  0  0  0  0
    1.6698  -12.0389   -1.3410 H   0  0  0  0  0  0  0  0  0  0  0  0
    7.2058  -15.4645    0.3427 H   0  0  0  0  0  0  0  0  0  0  0  0
    9.7380  -11.4430   -1.0740 H   0  0  0  0  0  0  0  0  0  0  0  0
   10.1082  -13.2158   -3.3802 H   0  0  0  0  0  0  0  0  0  0  0  0
   10.0457  -11.4653   -3.3461 H   0  0  0  0  0  0  0  0  0  0  0  0
   12.4506  -12.6649   -3.4555 H   0  0  0  0  0  0  0  0  0  0  0  0
   12.3089  -11.3199   -2.3468 H   0  0  0  0  0  0  0  0  0  0  0  0
   13.0508  -13.1858   -0.8901 H   0  0  0  0  0  0  0  0  0  0  0  0
   11.5670  -15.1900   -1.2530 H   0  0  0  0  0  0  0  0  0  0  0  0
   10.5892  -13.9640    0.0399 H   0  0  0  0  0  0  0  0  0  0  0  0
   12.1497  -11.5351    0.4533 H   0  0  0  0  0  0  0  0  0  0  0  0
   10.3896  -11.2460    0.6487 H   0  0  0  0  0  0  0  0  0  0  0  0
   10.6700  -13.4990    1.8070 H   0  0  0  0  0  0  0  0  0  0  0  0
    7.5804  -11.6168   -2.6823 H   0  0  0  0  0  0  0  0  0  0  0  0
    4.5552  -11.0436   -1.4708 H   0  0  0  0  0  0  0  0  0  0  0  0
    2.7259  -10.2205   -2.9422 H   0  0  0  0  0  0  0  0  0  0  0  0
    2.2610  -11.3492   -5.1145 H   0  0  0  0  0  0  0  0  0  0  0  0
    3.6429  -13.2993   -5.8246 H   0  0  0  0  0  0  0  0  0  0  0  0
  1  2  1  0
  2  3  1  0
  3  4  2  0
  3  5  1  0
  5  6  1  0
  5  7  1  0
  5  8  1  0
  8  9  2  0
  9 10  1  0
 10 11  1  0
 11 12  1  0
 11 13  1  0
 11 14  1  0
 10 15  2  0
 15 16  1  0
 16 17  1  0
 17 18  1  0
 17 19  1  0
 17 20  1  0
 16 21  2  0
  2 22  1  0
 22 23  2  0
 23 24  1  0
 24 25  2  0
 25 26  1  0
 26 27  1  0
 27 28  1  0
 28 29  1  0
 29 30  1  0
 29 31  1  0
 31 32  1  0
 32 33  1  0
 25 34  1  0
 34 35  2  0
 35 36  1  0
 36 37  2  0
 37 38  1  0
 38 39  2  0
 39 40  1  0
 40 41  2  0
 41 42  1  0
 21  8  1  0
 35 22  1  0
 41 36  1  0
 31 26  1  0
  1 43  1  0
  1 44  1  0
  1 45  1  0
  6 46  1  0
  6 47  1  0
  6 48  1  0
  7 49  1  0
  7 50  1  0
  7 51  1  0
  9 52  1  0
 15 53  1  0
 21 54  1  0
 23 55  1  0
 26 56  1  0
 27 57  1  0
 27 58  1  0
 28 59  1  0
 28 60  1  0
 29 61  1  1
 30 62  1  0
 31 63  1  1
 32 64  1  0
 32 65  1  0
 33 66  1  0
 34 67  1  0
 37 68  1  0
 38 69  1  0
 39 70  1  0
 40 71  1  0
M  CHG  1  26   1
M  END
>  <meeko>  (6) 
{"is_sidechain": [false], "free_energy": -8.268, "intermolecular_energy": -13.406, "internal_energy": -2.906}

$$$$
LIB_HATNRBQJMSRMEP__M_PUB_ALL__e8__s20260927
     RDKit          3D

 71 74  0  0  0  0  0  0  0  0999 V2000
    6.0260  -12.6110   -5.4830 C   0  0  0  0  0  0  0  0  0  0  0  0
    6.1340  -12.3910   -4.0430 N   0  0  0  0  0  0  0  0  0  0  0  0
    5.1040  -11.8760   -3.2330 C   0  0  0  0  0  0  0  0  0  0  0  0
    5.3720  -11.1300   -2.2810 O   0  0  0  0  0  0  0  0  0  0  0  0
    3.6050  -12.2420   -3.5050 C   0  0  0  0  0  0  0  0  0  0  0  0
    3.5510  -13.7100   -4.0130 C   0  0  0  0  0  0  0  0  0  0  0  0
    3.0730  -11.3760   -4.6690 C   0  0  0  0  0  0  0  0  0  0  0  0
    2.7550  -12.2160   -2.2210 C   0  0  0  0  0  0  0  0  0  0  0  0
    2.7470  -13.3290   -1.3560 C   0  0  0  0  0  0  0  0  0  0  0  0
    1.9830  -13.3450   -0.1760 C   0  0  0  0  0  0  0  0  0  0  0  0
    2.0060  -14.5610    0.7210 C   0  0  0  0  0  0  0  0  0  0  0  0
    3.1770  -14.7090    1.3970 F   0  0  0  0  0  0  0  0  0  0  0  0
    1.8300  -15.7200    0.0250 F   0  0  0  0  0  0  0  0  0  0  0  0
    1.0230  -14.5330    1.6600 F   0  0  0  0  0  0  0  0  0  0  0  0
    1.1860  -12.2350    0.1300 C   0  0  0  0  0  0  0  0  0  0  0  0
    1.1550  -11.1170   -0.7170 C   0  0  0  0  0  0  0  0  0  0  0  0
    0.2720   -9.9300   -0.4010 C   0  0  0  0  0  0  0  0  0  0  0  0
   -1.0350  -10.2680   -0.2260 F   0  0  0  0  0  0  0  0  0  0  0  0
    0.2960   -8.9910   -1.3840 F   0  0  0  0  0  0  0  0  0  0  0  0
    0.6480   -9.2920    0.7430 F   0  0  0  0  0  0  0  0  0  0  0  0
    1.9320  -11.1250   -1.8900 C   0  0  0  0  0  0  0  0  0  0  0  0
    7.4020  -12.7170   -3.4300 C   0  0  0  0  0  0  0  0  0  0  0  0
    8.4390  -11.7720   -3.4410 C   0  0  0  0  0  0  0  0  0  0  0  0
    9.6730  -11.9500   -2.9040 N   0  0  0  0  0  0  0  0  0  0  0  0
    9.8900  -13.1200   -2.3080 C   0  0  0  0  0  0  0  0  0  0  0  0
   11.1800  -13.1970   -1.6890 N   0  0  0  0  0  0  0  0  0  0  0  0
   11.1930  -13.5780   -0.2530 C   0  0  0  0  0  0  0  0  0  0  0  0
   12.5150  -13.0140    0.2430 C   0  0  0  0  0  0  0  0  0  0  0  0
   12.6120  -11.6890   -0.4980 C   0  0  2  0  0  0  0  0  0  0  0  0
   11.7360  -10.7610    0.1510 O   0  0  0  0  0  0  0  0  0  0  0  0
   12.0640  -11.9790   -1.9130 C   0  0  1  0  0  0  0  0  0  0  0  0
   13.1480  -12.3750   -2.9300 C   0  0  0  0  0  0  0  0  0  0  0  0
   14.3950  -11.7950   -2.5390 O   0  0  0  0  0  0  0  0  0  0  0  0
    8.9590  -14.1410   -2.2330 C   0  0  0  0  0  0  0  0  0  0  0  0
    7.6820  -13.9520   -2.8000 C   0  0  0  0  0  0  0  0  0  0  0  0
    6.6870  -15.0180   -2.5790 C   0  0  0  0  0  0  0  0  0  0  0  0
    6.5190  -16.0220   -3.5530 C   0  0  0  0  0  0  0  0  0  0  0  0
    5.5900  -17.0500   -3.3760 C   0  0  0  0  0  0  0  0  0  0  0  0
    4.8190  -17.1020   -2.2180 C   0  0  0  0  0  0  0  0  0  0  0  0
    4.9800  -16.1300   -1.2310 C   0  0  0  0  0  0  0  0  0  0  0  0
    5.9090  -15.1000   -1.4050 C   0  0  0  0  0  0  0  0  0  0  0  0
    6.0810  -13.9530   -0.1200 Cl  0  0  0  0  0  0  0  0  0  0  0  0
    5.5484  -13.5840   -5.6705 H   0  0  0  0  0  0  0  0  0  0  0  0
    5.4179  -11.8116   -5.9315 H   0  0  0  0  0  0  0  0  0  0  0  0
    7.0304  -12.6031   -5.9315 H   0  0  0  0  0  0  0  0  0  0  0  0
    3.5258  -14.3950   -3.1527 H   0  0  0  0  0  0  0  0  0  0  0  0
    2.6470  -13.8539   -4.6229 H   0  0  0  0  0  0  0  0  0  0  0  0
    4.4420  -13.9200   -4.6229 H   0  0  0  0  0  0  0  0  0  0  0  0
    2.5379  -10.5049   -4.2631 H   0  0  0  0  0  0  0  0  0  0  0  0
    3.9165  -11.0332   -5.2863 H   0  0  0  0  0  0  0  0  0  0  0  0
    2.3859  -11.9735   -5.2863 H   0  0  0  0  0  0  0  0  0  0  0  0
    3.3553  -14.2092   -1.6113 H   0  0  0  0  0  0  0  0  0  0  0  0
    0.5767  -12.2397    1.0458 H   0  0  0  0  0  0  0  0  0  0  0  0
    1.8947  -10.2568   -2.5644 H   0  0  0  0  0  0  0  0  0  0  0  0
    8.2350  -10.8057   -3.9254 H   0  0  0  0  0  0  0  0  0  0  0  0
   11.6360  -13.9670   -2.2120 H   0  0  0  0  0  0  0  0  0  0  0  0
   10.3453  -13.1261    0.2829 H   0  0  0  0  0  0  0  0  0  0  0  0
   11.0989  -14.6622   -0.0931 H   0  0  0  0  0  0  0  0  0  0  0  0
   12.4967  -12.8592    1.3319 H   0  0  0  0  0  0  0  0  0  0  0  0
   13.3705  -13.6806    0.0593 H   0  0  0  0  0  0  0  0  0  0  0  0
   13.6336  -11.2819   -0.5223 H   0  0  0  0  0  0  0  0  0  0  0  0
   10.8290  -11.1230    0.1110 H   0  0  0  0  0  0  0  0  0  0  0  0
   11.5728  -11.0855   -2.3258 H   0  0  0  0  0  0  0  0  0  0  0  0
   13.2443  -13.4704   -2.9570 H   0  0  0  0  0  0  0  0  0  0  0  0
   12.8680  -12.0097   -3.9291 H   0  0  0  0  0  0  0  0  0  0  0  0
   14.4900  -11.9410   -1.5750 H   0  0  0  0  0  0  0  0  0  0  0  0
    9.2123  -15.0894   -1.7366 H   0  0  0  0  0  0  0  0  0  0  0  0
    7.1294  -15.9959   -4.4678 H   0  0  0  0  0  0  0  0  0  0  0  0
    5.4675  -17.8194   -4.1525 H   0  0  0  0  0  0  0  0  0  0  0  0
    4.0837  -17.9087   -2.0817 H   0  0  0  0  0  0  0  0  0  0  0  0
    4.3747  -16.1739   -0.3136 H   0  0  0  0  0  0  0  0  0  0  0  0
  1  2  1  0
  2  3  1  0
  3  4  2  0
  3  5  1  0
  5  6  1  0
  5  7  1  0
  5  8  1  0
  8  9  2  0
  9 10  1  0
 10 11  1  0
 11 12  1  0
 11 13  1  0
 11 14  1  0
 10 15  2  0
 15 16  1  0
 16 17  1  0
 17 18  1  0
 17 19  1  0
 17 20  1  0
 16 21  2  0
  2 22  1  0
 22 23  2  0
 23 24  1  0
 24 25  2  0
 25 26  1  0
 26 27  1  0
 27 28  1  0
 28 29  1  0
 29 30  1  0
 29 31  1  0
 31 32  1  0
 32 33  1  0
 25 34  1  0
 34 35  2  0
 35 36  1  0
 36 37  2  0
 37 38  1  0
 38 39  2  0
 39 40  1  0
 40 41  2  0
 41 42  1  0
 21  8  1  0
 35 22  1  0
 41 36  1  0
 31 26  1  0
  1 43  1  0
  1 44  1  0
  1 45  1  0
  6 46  1  0
  6 47  1  0
  6 48  1  0
  7 49  1  0
  7 50  1  0
  7 51  1  0
  9 52  1  0
 15 53  1  0
 21 54  1  0
 23 55  1  0
 26 56  1  0
 27 57  1  0
 27 58  1  0
 28 59  1  0
 28 60  1  0
 29 61  1  6
 30 62  1  0
 31 63  1  6
 32 64  1  0
 32 65  1  0
 33 66  1  0
 34 67  1  0
 37 68  1  0
 38 69  1  0
 39 70  1  0
 40 71  1  0
M  CHG  1  26   1
M  END
>  <meeko>  (7) 
{"is_sidechain": [false], "free_energy": -8.243, "intermolecular_energy": -13.099, "internal_energy": -3.172}

$$$$
LIB_HATNRBQJMSRMEP__M_PUB_ALL__e8__s20260927
     RDKit          3D

 71 74  0  0  0  0  0  0  0  0999 V2000
    5.5510  -14.3290   -4.4190 C   0  0  0  0  0  0  0  0  0  0  0  0
    5.5320  -13.3850   -3.3040 N   0  0  0  0  0  0  0  0  0  0  0  0
    4.3840  -12.7110   -2.8480 C   0  0  0  0  0  0  0  0  0  0  0  0
    4.4530  -11.5230   -2.5010 O   0  0  0  0  0  0  0  0  0  0  0  0
    3.0010  -13.4430   -2.7540 C   0  0  0  0  0  0  0  0  0  0  0  0
    3.2720  -14.9630   -2.5700 C   0  0  0  0  0  0  0  0  0  0  0  0
    2.2630  -13.3100   -4.1040 C   0  0  0  0  0  0  0  0  0  0  0  0
    2.1950  -13.0130   -1.5140 C   0  0  0  0  0  0  0  0  0  0  0  0
    1.9810  -13.9230   -0.4600 C   0  0  0  0  0  0  0  0  0  0  0  0
    1.2490  -13.5690    0.6870 C   0  0  0  0  0  0  0  0  0  0  0  0
    1.0440  -14.5790    1.7930 C   0  0  0  0  0  0  0  0  0  0  0  0
   -0.2370  -14.6220    2.2510 F   0  0  0  0  0  0  0  0  0  0  0  0
    1.8190  -14.3180    2.8820 F   0  0  0  0  0  0  0  0  0  0  0  0
    1.3530  -15.8450    1.4050 F   0  0  0  0  0  0  0  0  0  0  0  0
    0.6930  -12.2860    0.7670 C   0  0  0  0  0  0  0  0  0  0  0  0
    0.8700  -11.3610   -0.2720 C   0  0  0  0  0  0  0  0  0  0  0  0
    0.2460   -9.9840   -0.1980 C   0  0  0  0  0  0  0  0  0  0  0  0
   -1.1140  -10.0160   -0.1630 F   0  0  0  0  0  0  0  0  0  0  0  0
    0.5830   -9.2060   -1.2600 F   0  0  0  0  0  0  0  0  0  0  0  0
    0.6320   -9.2970    0.9130 F   0  0  0  0  0  0  0  0  0  0  0  0
    1.6110  -11.7390   -1.4060 C   0  0  0  0  0  0  0  0  0  0  0  0
    6.7940  -13.1290   -2.6490 C   0  0  0  0  0  0  0  0  0  0  0  0
    7.6970  -12.2180   -3.2180 C   0  0  0  0  0  0  0  0  0  0  0  0
    8.9110  -11.8890   -2.7070 N   0  0  0  0  0  0  0  0  0  0  0  0
    9.2460  -12.4780   -1.5620 C   0  0  0  0  0  0  0  0  0  0  0  0
   10.4970  -12.0120   -1.0430 N   0  0  0  0  0  0  0  0  0  0  0  0
   11.6740  -12.1690   -1.9360 C   0  0  0  0  0  0  0  0  0  0  0  0
   12.8450  -12.1700   -0.9670 C   0  0  0  0  0  0  0  0  0  0  0  0
   12.3020  -12.9620    0.2130 C   0  0  2  0  0  0  0  0  0  0  0  0
   12.3290  -14.3490   -0.1430 O   0  0  0  0  0  0  0  0  0  0  0  0
   10.8310  -12.5160    0.3540 C   0  0  1  0  0  0  0  0  0  0  0  0
   10.6270  -11.3440    1.3290 C   0  0  0  0  0  0  0  0  0  0  0  0
   11.4440  -10.2440    0.9200 O   0  0  0  0  0  0  0  0  0  0  0  0
    8.4540  -13.4000   -0.9000 C   0  0  0  0  0  0  0  0  0  0  0  0
    7.1970  -13.7430   -1.4400 C   0  0  0  0  0  0  0  0  0  0  0  0
    6.3400  -14.6290   -0.6300 C   0  0  0  0  0  0  0  0  0  0  0  0
    6.3940  -16.0220   -0.8330 C   0  0  0  0  0  0  0  0  0  0  0  0
    5.6010  -16.8910   -0.0810 C   0  0  0  0  0  0  0  0  0  0  0  0
    4.7460  -16.3880    0.8960 C   0  0  0  0  0  0  0  0  0  0  0  0
    4.6880  -15.0150    1.1280 C   0  0  0  0  0  0  0  0  0  0  0  0
    5.4810  -14.1420    0.3770 C   0  0  0  0  0  0  0  0  0  0  0  0
    5.3850  -12.4540    0.7500 Cl  0  0  0  0  0  0  0  0  0  0  0  0
    5.5717  -15.3572   -4.0286 H   0  0  0  0  0  0  0  0  0  0  0  0
    4.6498  -14.1883   -5.0339 H   0  0  0  0  0  0  0  0  0  0  0  0
    6.4458  -14.1522   -5.0339 H   0  0  0  0  0  0  0  0  0  0  0  0
    3.3144  -15.2006   -1.4968 H   0  0  0  0  0  0  0  0  0  0  0  0
    2.4625  -15.5395   -3.0415 H   0  0  0  0  0  0  0  0  0  0  0  0
    4.2309  -15.2242   -3.0415 H   0  0  0  0  0  0  0  0  0  0  0  0
    1.1955  -13.1176   -3.9209 H   0  0  0  0  0  0  0  0  0  0  0  0
    2.6932  -12.4749   -4.6763 H   0  0  0  0  0  0  0  0  0  0  0  0
    2.3746  -14.2427   -4.6763 H   0  0  0  0  0  0  0  0  0  0  0  0
    2.3979  -14.9380   -0.5365 H   0  0  0  0  0  0  0  0  0  0  0  0
    0.1106  -12.0005    1.6554 H   0  0  0  0  0  0  0  0  0  0  0  0
    1.7367  -11.0198   -2.2288 H   0  0  0  0  0  0  0  0  0  0  0  0
    7.3961  -11.7296   -4.1566 H   0  0  0  0  0  0  0  0  0  0  0  0
   10.3320  -10.9940   -0.9350 H   0  0  0  0  0  0  0  0  0  0  0  0
   11.6226  -13.1155   -2.4941 H   0  0  0  0  0  0  0  0  0  0  0  0
   11.7455  -11.3803   -2.6994 H   0  0  0  0  0  0  0  0  0  0  0  0
   13.7233  -12.6653   -1.4067 H   0  0  0  0  0  0  0  0  0  0  0  0
   13.1872  -11.1606   -0.6948 H   0  0  0  0  0  0  0  0  0  0  0  0
   12.8748  -12.8043    1.1387 H   0  0  0  0  0  0  0  0  0  0  0  0
   11.4670  -14.5730   -0.5470 H   0  0  0  0  0  0  0  0  0  0  0  0
   10.2142  -13.3414    0.7391 H   0  0  0  0  0  0  0  0  0  0  0  0
    9.5700  -11.0396    1.3222 H   0  0  0  0  0  0  0  0  0  0  0  0
   10.9090  -11.6557    2.3455 H   0  0  0  0  0  0  0  0  0  0  0  0
   10.9390   -9.4260    1.1070 H   0  0  0  0  0  0  0  0  0  0  0  0
    8.8010  -13.8602    0.0369 H   0  0  0  0  0  0  0  0  0  0  0  0
    7.0719  -16.4317   -1.5963 H   0  0  0  0  0  0  0  0  0  0  0  0
    5.6518  -17.9750   -0.2608 H   0  0  0  0  0  0  0  0  0  0  0  0
    4.1174  -17.0731    1.4837 H   0  0  0  0  0  0  0  0  0  0  0  0
    4.0169  -14.6173    1.9036 H   0  0  0  0  0  0  0  0  0  0  0  0
  1  2  1  0
  2  3  1  0
  3  4  2  0
  3  5  1  0
  5  6  1  0
  5  7  1  0
  5  8  1  0
  8  9  2  0
  9 10  1  0
 10 11  1  0
 11 12  1  0
 11 13  1  0
 11 14  1  0
 10 15  2  0
 15 16  1  0
 16 17  1  0
 17 18  1  0
 17 19  1  0
 17 20  1  0
 16 21  2  0
  2 22  1  0
 22 23  2  0
 23 24  1  0
 24 25  2  0
 25 26  1  0
 26 27  1  0
 27 28  1  0
 28 29  1  0
 29 30  1  0
 29 31  1  0
 31 32  1  0
 32 33  1  0
 25 34  1  0
 34 35  2  0
 35 36  1  0
 36 37  2  0
 37 38  1  0
 38 39  2  0
 39 40  1  0
 40 41  2  0
 41 42  1  0
 21  8  1  0
 35 22  1  0
 41 36  1  0
 31 26  1  0
  1 43  1  0
  1 44  1  0
  1 45  1  0
  6 46  1  0
  6 47  1  0
  6 48  1  0
  7 49  1  0
  7 50  1  0
  7 51  1  0
  9 52  1  0
 15 53  1  0
 21 54  1  0
 23 55  1  0
 26 56  1  0
 27 57  1  0
 27 58  1  0
 28 59  1  0
 28 60  1  0
 29 61  1  1
 30 62  1  0
 31 63  1  1
 32 64  1  0
 32 65  1  0
 33 66  1  0
 34 67  1  0
 37 68  1  0
 38 69  1  0
 39 70  1  0
 40 71  1  0
M  CHG  1  26   1
M  END
>  <meeko>  (8) 
{"is_sidechain": [false], "free_energy": -8.038, "intermolecular_energy": -13.043, "internal_energy": -2.904}

$$$$
LIB_HATNRBQJMSRMEP__M_PUB_ALL__e8__s20260927
     RDKit          3D

 71 74  0  0  0  0  0  0  0  0999 V2000
    5.8490  -16.5430   -2.7490 C   0  0  0  0  0  0  0  0  0  0  0  0
    6.1640  -15.9080   -1.4720 N   0  0  0  0  0  0  0  0  0  0  0  0
    5.3280  -15.9320   -0.3400 C   0  0  0  0  0  0  0  0  0  0  0  0
    5.7950  -15.7120    0.7870 O   0  0  0  0  0  0  0  0  0  0  0  0
    3.7990  -16.2500   -0.4720 C   0  0  0  0  0  0  0  0  0  0  0  0
    3.2260  -16.4630    0.9570 C   0  0  0  0  0  0  0  0  0  0  0  0
    3.6210  -17.6010   -1.2000 C   0  0  0  0  0  0  0  0  0  0  0  0
    3.0060  -15.0700   -1.0640 C   0  0  0  0  0  0  0  0  0  0  0  0
    2.4910  -14.0680   -0.2180 C   0  0  0  0  0  0  0  0  0  0  0  0
    1.7610  -12.9770   -0.7200 C   0  0  0  0  0  0  0  0  0  0  0  0
    1.2270  -11.9260    0.2270 C   0  0  0  0  0  0  0  0  0  0  0  0
    2.2010  -11.1490    0.7720 F   0  0  0  0  0  0  0  0  0  0  0  0
    0.5550  -12.4720    1.2800 F   0  0  0  0  0  0  0  0  0  0  0  0
    0.3540  -11.0770   -0.3770 F   0  0  0  0  0  0  0  0  0  0  0  0
    1.5140  -12.9030   -2.0960 C   0  0  0  0  0  0  0  0  0  0  0  0
    1.9960  -13.8910   -2.9670 C   0  0  0  0  0  0  0  0  0  0  0  0
    1.7050  -13.8260   -4.4500 C   0  0  0  0  0  0  0  0  0  0  0  0
    0.5980  -14.5330   -4.8090 F   0  0  0  0  0  0  0  0  0  0  0  0
    2.7290  -14.3130   -5.2000 F   0  0  0  0  0  0  0  0  0  0  0  0
    1.4900  -12.5520   -4.8830 F   0  0  0  0  0  0  0  0  0  0  0  0
    2.7270  -14.9710   -2.4390 C   0  0  0  0  0  0  0  0  0  0  0  0
    7.4200  -15.1970   -1.3920 C   0  0  0  0  0  0  0  0  0  0  0  0
    8.5640  -15.8650   -0.9300 C   0  0  0  0  0  0  0  0  0  0  0  0
    9.8000  -15.3160   -0.8060 N   0  0  0  0  0  0  0  0  0  0  0  0
    9.9170  -14.0430   -1.1750 C   0  0  0  0  0  0  0  0  0  0  0  0
   11.2650  -13.5660   -1.1010 N   0  0  0  0  0  0  0  0  0  0  0  0
   11.9110  -13.6350    0.2360 C   0  0  0  0  0  0  0  0  0  0  0  0
   13.0010  -12.5790    0.1490 C   0  0  0  0  0  0  0  0  0  0  0  0
   12.3270  -11.4680   -0.6410 C   0  0  2  0  0  0  0  0  0  0  0  0
   11.4410  -10.7760    0.2460 O   0  0  0  0  0  0  0  0  0  0  0  0
   11.4860  -12.1910   -1.7150 C   0  0  1  0  0  0  0  0  0  0  0  0
   12.2220  -12.3940   -3.0500 C   0  0  0  0  0  0  0  0  0  0  0  0
   12.7410  -11.1390   -3.4970 O   0  0  0  0  0  0  0  0  0  0  0  0
    8.8690  -13.2670   -1.6390 C   0  0  0  0  0  0  0  0  0  0  0  0
    7.5860  -13.8410   -1.7580 C   0  0  0  0  0  0  0  0  0  0  0  0
    6.5370  -13.0110   -2.3790 C   0  0  0  0  0  0  0  0  0  0  0  0
    6.3940  -13.0100   -3.7810 C   0  0  0  0  0  0  0  0  0  0  0  0
    5.4080  -12.2410   -4.4030 C   0  0  0  0  0  0  0  0  0  0  0  0
    4.5390  -11.4670   -3.6380 C   0  0  0  0  0  0  0  0  0  0  0  0
    4.6490  -11.4660   -2.2490 C   0  0  0  0  0  0  0  0  0  0  0  0
    5.6350  -12.2350   -1.6220 C   0  0  0  0  0  0  0  0  0  0  0  0
    5.6850  -12.2140    0.1080 Cl  0  0  0  0  0  0  0  0  0  0  0  0
    5.3670  -17.5147   -2.5663 H   0  0  0  0  0  0  0  0  0  0  0  0
    5.1668  -15.8971   -3.3213 H   0  0  0  0  0  0  0  0  0  0  0  0
    6.7760  -16.6954   -3.3213 H   0  0  0  0  0  0  0  0  0  0  0  0
    3.9846  -16.1810    1.7020 H   0  0  0  0  0  0  0  0  0  0  0  0
    2.3310  -15.8375    1.0902 H   0  0  0  0  0  0  0  0  0  0  0  0
    2.9569  -17.5212    1.0902 H   0  0  0  0  0  0  0  0  0  0  0  0
    3.5149  -18.4061   -0.4580 H   0  0  0  0  0  0  0  0  0  0  0  0
    2.7202  -17.5621   -1.8301 H   0  0  0  0  0  0  0  0  0  0  0  0
    4.5011  -17.7967   -1.8301 H   0  0  0  0  0  0  0  0  0  0  0  0
    2.6651  -14.1416    0.8656 H   0  0  0  0  0  0  0  0  0  0  0  0
    0.9346  -12.0593   -2.4991 H   0  0  0  0  0  0  0  0  0  0  0  0
    3.0891  -15.7570   -3.1180 H   0  0  0  0  0  0  0  0  0  0  0  0
    8.4504  -16.9212   -0.6445 H   0  0  0  0  0  0  0  0  0  0  0  0
   11.7730  -14.2260   -1.7180 H   0  0  0  0  0  0  0  0  0  0  0  0
   11.1928  -13.3959    1.0341 H   0  0  0  0  0  0  0  0  0  0  0  0
   12.2979  -14.6360    0.4774 H   0  0  0  0  0  0  0  0  0  0  0  0
   13.2970  -12.2310    1.1496 H   0  0  0  0  0  0  0  0  0  0  0  0
   13.9279  -12.9454   -0.3164 H   0  0  0  0  0  0  0  0  0  0  0  0
   13.0421  -10.7574   -1.0811 H   0  0  0  0  0  0  0  0  0  0  0  0
   11.4530   -9.8290    0.0060 H   0  0  0  0  0  0  0  0  0  0  0  0
   10.5837  -11.6083   -1.9524 H   0  0  0  0  0  0  0  0  0  0  0  0
   13.0494  -13.1051   -2.9094 H   0  0  0  0  0  0  0  0  0  0  0  0
   11.5232  -12.7928   -3.8000 H   0  0  0  0  0  0  0  0  0  0  0  0
   12.1900  -10.4390   -3.0890 H   0  0  0  0  0  0  0  0  0  0  0  0
    9.0348  -12.2144   -1.9119 H   0  0  0  0  0  0  0  0  0  0  0  0
    7.0693  -13.6243   -4.3948 H   0  0  0  0  0  0  0  0  0  0  0  0
    5.3176  -12.2467   -5.4993 H   0  0  0  0  0  0  0  0  0  0  0  0
    3.7667  -10.8572   -4.1297 H   0  0  0  0  0  0  0  0  0  0  0  0
    3.9590  -10.8592   -1.6442 H   0  0  0  0  0  0  0  0  0  0  0  0
  1  2  1  0
  2  3  1  0
  3  4  2  0
  3  5  1  0
  5  6  1  0
  5  7  1  0
  5  8  1  0
  8  9  2  0
  9 10  1  0
 10 11  1  0
 11 12  1  0
 11 13  1  0
 11 14  1  0
 10 15  2  0
 15 16  1  0
 16 17  1  0
 17 18  1  0
 17 19  1  0
 17 20  1  0
 16 21  2  0
  2 22  1  0
 22 23  2  0
 23 24  1  0
 24 25  2  0
 25 26  1  0
 26 27  1  0
 27 28  1  0
 28 29  1  0
 29 30  1  0
 29 31  1  0
 31 32  1  0
 32 33  1  0
 25 34  1  0
 34 35  2  0
 35 36  1  0
 36 37  2  0
 37 38  1  0
 38 39  2  0
 39 40  1  0
 40 41  2  0
 41 42  1  0
 21  8  1  0
 35 22  1  0
 41 36  1  0
 31 26  1  0
  1 43  1  0
  1 44  1  0
  1 45  1  0
  6 46  1  0
  6 47  1  0
  6 48  1  0
  7 49  1  0
  7 50  1  0
  7 51  1  0
  9 52  1  0
 15 53  1  0
 21 54  1  0
 23 55  1  0
 26 56  1  0
 27 57  1  0
 27 58  1  0
 28 59  1  0
 28 60  1  0
 29 61  1  6
 30 62  1  0
 31 63  1  6
 32 64  1  0
 32 65  1  0
 33 66  1  0
 34 67  1  0
 37 68  1  0
 38 69  1  0
 39 70  1  0
 40 71  1  0
M  CHG  1  26   1
M  END
>  <meeko>  (9) 
{"is_sidechain": [false], "free_energy": -7.996, "intermolecular_energy": -12.109, "internal_energy": -3.771}

$$$$
