LIB_SICRXINMTYWPHY__M_PUB_ALL__e8__s20260927
     RDKit          3D

 60 63  0  0  0  0  0  0  0  0999 V2000
   13.8690   -9.4210   11.0860 O   0  0  0  0  0  0  0  0  0  0  0  0
   14.4100   -9.6960   12.1520 C   0  0  0  0  0  0  0  0  0  0  0  0
   13.8300  -10.3420   13.2300 N   0  0  0  0  0  0  0  0  0  0  0  0
   12.5380  -10.9100   13.2910 C   0  0  0  0  0  0  0  0  0  0  0  0
   11.4430  -10.2830   13.8950 C   0  0  0  0  0  0  0  0  0  0  0  0
   10.1760  -10.8860   13.9550 C   0  0  0  0  0  0  0  0  0  0  0  0
    9.0810  -10.2690   14.5770 N   0  0  0  0  0  0  0  0  0  0  0  0
    7.7600  -10.8450   14.3440 C   0  0  0  0  0  0  0  0  0  0  0  0
    6.7700  -10.3460   15.3870 C   0  0  0  0  0  0  0  0  0  0  0  0
    6.7780   -8.8190   15.5090 C   0  0  0  0  0  0  0  0  0  0  0  0
    6.2210   -8.1630   14.2490 N   0  0  0  0  0  0  0  0  0  0  0  0
    6.2450   -6.6460   14.2400 C   0  0  0  0  0  0  0  0  0  0  0  0
    5.2080   -6.2950   13.1980 C   0  0  0  0  0  0  0  0  0  0  0  0
    4.0900   -7.2660   13.5040 C   0  0  0  0  0  0  0  0  0  0  0  0
    4.7890   -8.5580   13.8960 C   0  0  0  0  0  0  0  0  0  0  0  0
    8.2010   -8.3430   15.8150 C   0  0  0  0  0  0  0  0  0  0  0  0
    9.2150   -8.8280   14.7880 C   0  0  0  0  0  0  0  0  0  0  0  0
   10.0310  -12.1480   13.3640 C   0  0  0  0  0  0  0  0  0  0  0  0
   11.1050  -12.7930   12.7300 C   0  0  0  0  0  0  0  0  0  0  0  0
   10.9090  -14.1570   12.1170 C   0  0  0  0  0  0  0  0  0  0  0  0
   10.8990  -15.1420   13.0560 F   0  0  0  0  0  0  0  0  0  0  0  0
   11.8840  -14.4920   11.2290 F   0  0  0  0  0  0  0  0  0  0  0  0
    9.7310  -14.2680   11.4440 F   0  0  0  0  0  0  0  0  0  0  0  0
   12.3590  -12.1660   12.7060 C   0  0  0  0  0  0  0  0  0  0  0  0
   15.8210   -9.2610   12.3590 C   0  0  0  0  0  0  0  0  0  0  0  0
   16.7360  -10.0400   13.0780 C   0  0  0  0  0  0  0  0  0  0  0  0
   18.0510   -9.5990   13.2380 C   0  0  0  0  0  0  0  0  0  0  0  0
   18.4580   -8.3880   12.6760 C   0  0  0  0  0  0  0  0  0  0  0  0
   17.5580   -7.6000   11.9430 C   0  0  0  0  0  0  0  0  0  0  0  0
   18.0010   -6.3070   11.3020 C   0  0  0  0  0  0  0  0  0  0  0  0
   17.7950   -6.3030    9.9570 F   0  0  0  0  0  0  0  0  0  0  0  0
   19.3230   -6.0410   11.4850 F   0  0  0  0  0  0  0  0  0  0  0  0
   17.3320   -5.2250   11.7870 F   0  0  0  0  0  0  0  0  0  0  0  0
   16.2380   -8.0540   11.7810 C   0  0  0  0  0  0  0  0  0  0  0  0
   14.3650  -10.3720   14.0900 H   0  0  0  0  0  0  0  0  0  0  0  0
   11.5788   -9.2851   14.3374 H   0  0  0  0  0  0  0  0  0  0  0  0
    7.4092  -10.5533   13.3431 H   0  0  0  0  0  0  0  0  0  0  0  0
    7.8314  -11.9403   14.4162 H   0  0  0  0  0  0  0  0  0  0  0  0
    5.7594  -10.6732   15.1012 H   0  0  0  0  0  0  0  0  0  0  0  0
    7.0660  -10.7640   16.3605 H   0  0  0  0  0  0  0  0  0  0  0  0
    6.1210   -8.5180   16.3383 H   0  0  0  0  0  0  0  0  0  0  0  0
    6.8040   -8.4570   13.4520 H   0  0  0  0  0  0  0  0  0  0  0  0
    5.9690   -6.2405   15.2246 H   0  0  0  0  0  0  0  0  0  0  0  0
    7.2390   -6.2298   14.0193 H   0  0  0  0  0  0  0  0  0  0  0  0
    4.8708   -5.2538   13.3085 H   0  0  0  0  0  0  0  0  0  0  0  0
    5.5821   -6.3700   12.1663 H   0  0  0  0  0  0  0  0  0  0  0  0
    3.4708   -6.8941   14.3336 H   0  0  0  0  0  0  0  0  0  0  0  0
    3.4157   -7.4043   12.6460 H   0  0  0  0  0  0  0  0  0  0  0  0
    4.2920   -9.0146   14.7646 H   0  0  0  0  0  0  0  0  0  0  0  0
    4.7610   -9.2976   13.0822 H   0  0  0  0  0  0  0  0  0  0  0  0
    8.2096   -7.2431   15.8262 H   0  0  0  0  0  0  0  0  0  0  0  0
    8.4893   -8.7613   16.7906 H   0  0  0  0  0  0  0  0  0  0  0  0
    9.0439   -8.3052   13.8354 H   0  0  0  0  0  0  0  0  0  0  0  0
   10.2280   -8.6156   15.1604 H   0  0  0  0  0  0  0  0  0  0  0  0
    9.0508  -12.6462   13.3975 H   0  0  0  0  0  0  0  0  0  0  0  0
   13.2098  -12.6678   12.2220 H   0  0  0  0  0  0  0  0  0  0  0  0
   16.4192  -10.9980   13.5161 H   0  0  0  0  0  0  0  0  0  0  0  0
   18.7681  -10.2075   13.8085 H   0  0  0  0  0  0  0  0  0  0  0  0
   19.4955   -8.0478   12.8092 H   0  0  0  0  0  0  0  0  0  0  0  0
   15.5247   -7.4561   11.1947 H   0  0  0  0  0  0  0  0  0  0  0  0
  1  2  2  0
  2  3  1  0
  3  4  1  0
  4  5  2  0
  5  6  1  0
  6  7  1  0
  7  8  1  0
  8  9  1  0
  9 10  1  0
 10 11  1  0
 11 12  1  0
 12 13  1  0
 13 14  1  0
 14 15  1  0
 10 16  1  0
 16 17  1  0
  6 18  2  0
 18 19  1  0
 19 20  1  0
 20 21  1  0
 20 22  1  0
 20 23  1  0
 19 24  2  0
  2 25  1  0
 25 26  2  0
 26 27  1  0
 27 28  2  0
 28 29  1  0
 29 30  1  0
 30 31  1  0
 30 32  1  0
 30 33  1  0
 29 34  2  0
 24  4  1  0
 34 25  1  0
 17  7  1  0
 15 11  1  0
  3 35  1  0
  5 36  1  0
  8 37  1  0
  8 38  1  0
  9 39  1  0
  9 40  1  0
 10 41  1  0
 11 42  1  0
 12 43  1  0
 12 44  1  0
 13 45  1  0
 13 46  1  0
 14 47  1  0
 14 48  1  0
 15 49  1  0
 15 50  1  0
 16 51  1  0
 16 52  1  0
 17 53  1  0
 17 54  1  0
 18 55  1  0
 24 56  1  0
 26 57  1  0
 27 58  1  0
 28 59  1  0
 34 60  1  0
M  CHG  1  11   1
M  END
>  <meeko>  (1) 
{"is_sidechain": [false], "free_energy": -9.109, "intermolecular_energy": -12.304, "internal_energy": -1.307}

$$$$
LIB_SICRXINMTYWPHY__M_PUB_ALL__e8__s20260927
     RDKit          3D

 60 63  0  0  0  0  0  0  0  0999 V2000
    6.3360  -14.6370   -6.7250 O   0  0  0  0  0  0  0  0  0  0  0  0
    6.3260  -13.4910   -7.1590 C   0  0  0  0  0  0  0  0  0  0  0  0
    6.0320  -12.3400   -6.4470 N   0  0  0  0  0  0  0  0  0  0  0  0
    5.7890  -12.2330   -5.0600 C   0  0  0  0  0  0  0  0  0  0  0  0
    6.7670  -12.4490   -4.0840 C   0  0  0  0  0  0  0  0  0  0  0  0
    6.4870  -12.3530   -2.7110 C   0  0  0  0  0  0  0  0  0  0  0  0
    7.4600  -12.5890   -1.7290 N   0  0  0  0  0  0  0  0  0  0  0  0
    7.6630  -11.5540   -0.7190 C   0  0  0  0  0  0  0  0  0  0  0  0
    8.4170  -12.1180    0.4770 C   0  0  0  0  0  0  0  0  0  0  0  0
    9.6970  -12.8510    0.0610 C   0  0  0  0  0  0  0  0  0  0  0  0
   10.7320  -11.8800   -0.4980 N   0  0  0  0  0  0  0  0  0  0  0  0
   11.7680  -12.4920   -1.4220 C   0  0  0  0  0  0  0  0  0  0  0  0
   12.8980  -11.4890   -1.3800 C   0  0  0  0  0  0  0  0  0  0  0  0
   12.9680  -11.1320    0.0880 C   0  0  0  0  0  0  0  0  0  0  0  0
   11.5210  -11.1030    0.5540 C   0  0  0  0  0  0  0  0  0  0  0  0
    9.3460  -13.9480   -0.9480 C   0  0  0  0  0  0  0  0  0  0  0  0
    8.5890  -13.4150   -2.1560 C   0  0  0  0  0  0  0  0  0  0  0  0
    5.1800  -12.0100   -2.3390 C   0  0  0  0  0  0  0  0  0  0  0  0
    4.1820  -11.7650   -3.2960 C   0  0  0  0  0  0  0  0  0  0  0  0
    2.7850  -11.4100   -2.8530 C   0  0  0  0  0  0  0  0  0  0  0  0
    2.4470  -10.1390   -3.2010 F   0  0  0  0  0  0  0  0  0  0  0  0
    2.6120  -11.4900   -1.5050 F   0  0  0  0  0  0  0  0  0  0  0  0
    1.8370  -12.2160   -3.4030 F   0  0  0  0  0  0  0  0  0  0  0  0
    4.4970  -11.8870   -4.6570 C   0  0  0  0  0  0  0  0  0  0  0  0
    6.6060  -13.2840   -8.6090 C   0  0  0  0  0  0  0  0  0  0  0  0
    6.7350  -14.3590   -9.4970 C   0  0  0  0  0  0  0  0  0  0  0  0
    6.9870  -14.1200  -10.8490 C   0  0  0  0  0  0  0  0  0  0  0  0
    7.1030  -12.8100  -11.3190 C   0  0  0  0  0  0  0  0  0  0  0  0
    6.9660  -11.7210  -10.4460 C   0  0  0  0  0  0  0  0  0  0  0  0
    7.0540  -10.3020  -10.9550 C   0  0  0  0  0  0  0  0  0  0  0  0
    8.0550  -10.1420  -11.8620 F   0  0  0  0  0  0  0  0  0  0  0  0
    7.2860   -9.3910   -9.9700 F   0  0  0  0  0  0  0  0  0  0  0  0
    5.9140   -9.8960  -11.5780 F   0  0  0  0  0  0  0  0  0  0  0  0
    6.7060  -11.9710   -9.0890 C   0  0  0  0  0  0  0  0  0  0  0  0
    5.9300  -11.4840   -6.9800 H   0  0  0  0  0  0  0  0  0  0  0  0
    7.7891  -12.7024   -4.4020 H   0  0  0  0  0  0  0  0  0  0  0  0
    8.2441  -10.7293   -1.1573 H   0  0  0  0  0  0  0  0  0  0  0  0
    6.6819  -11.1886   -0.3814 H   0  0  0  0  0  0  0  0  0  0  0  0
    8.6856  -11.2897    1.1492 H   0  0  0  0  0  0  0  0  0  0  0  0
    7.7601  -12.8437    0.9788 H   0  0  0  0  0  0  0  0  0  0  0  0
   10.1505  -13.3193    0.9471 H   0  0  0  0  0  0  0  0  0  0  0  0
   10.2360  -11.1740   -1.0620 H   0  0  0  0  0  0  0  0  0  0  0  0
   12.0973  -13.4739   -1.0512 H   0  0  0  0  0  0  0  0  0  0  0  0
   11.3882  -12.6739   -2.4382 H   0  0  0  0  0  0  0  0  0  0  0  0
   13.8409  -11.9385   -1.7247 H   0  0  0  0  0  0  0  0  0  0  0  0
   12.7359  -10.6198   -2.0344 H   0  0  0  0  0  0  0  0  0  0  0  0
   13.5383  -11.8908    0.6439 H   0  0  0  0  0  0  0  0  0  0  0  0
   13.4762  -10.1710    0.2563 H   0  0  0  0  0  0  0  0  0  0  0  0
   11.4254  -11.5847    1.5383 H   0  0  0  0  0  0  0  0  0  0  0  0
   11.1497  -10.0731    0.6611 H   0  0  0  0  0  0  0  0  0  0  0  0
   10.2780  -14.4174   -1.2959 H   0  0  0  0  0  0  0  0  0  0  0  0
    8.6918  -14.6708   -0.4386 H   0  0  0  0  0  0  0  0  0  0  0  0
    9.2697  -12.8079   -2.7708 H   0  0  0  0  0  0  0  0  0  0  0  0
    8.2071  -14.2652   -2.7402 H   0  0  0  0  0  0  0  0  0  0  0  0
    4.9297  -11.9307   -1.2708 H   0  0  0  0  0  0  0  0  0  0  0  0
    3.7194  -11.7086   -5.4143 H   0  0  0  0  0  0  0  0  0  0  0  0
    6.6378  -15.3912   -9.1294 H   0  0  0  0  0  0  0  0  0  0  0  0
    7.0944  -14.9648  -11.5453 H   0  0  0  0  0  0  0  0  0  0  0  0
    7.3040  -12.6304  -12.3855 H   0  0  0  0  0  0  0  0  0  0  0  0
    6.5794  -11.1270   -8.3950 H   0  0  0  0  0  0  0  0  0  0  0  0
  1  2  2  0
  2  3  1  0
  3  4  1  0
  4  5  2  0
  5  6  1  0
  6  7  1  0
  7  8  1  0
  8  9  1  0
  9 10  1  0
 10 11  1  0
 11 12  1  0
 12 13  1  0
 13 14  1  0
 14 15  1  0
 10 16  1  0
 16 17  1  0
  6 18  2  0
 18 19  1  0
 19 20  1  0
 20 21  1  0
 20 22  1  0
 20 23  1  0
 19 24  2  0
  2 25  1  0
 25 26  2  0
 26 27  1  0
 27 28  2  0
 28 29  1  0
 29 30  1  0
 30 31  1  0
 30 32  1  0
 30 33  1  0
 29 34  2  0
 24  4  1  0
 34 25  1  0
 17  7  1  0
 15 11  1  0
  3 35  1  0
  5 36  1  0
  8 37  1  0
  8 38  1  0
  9 39  1  0
  9 40  1  0
 10 41  1  0
 11 42  1  0
 12 43  1  0
 12 44  1  0
 13 45  1  0
 13 46  1  0
 14 47  1  0
 14 48  1  0
 15 49  1  0
 15 50  1  0
 16 51  1  0
 16 52  1  0
 17 53  1  0
 17 54  1  0
 18 55  1  0
 24 56  1  0
 26 57  1  0
 27 58  1  0
 28 59  1  0
 34 60  1  0
M  CHG  1  11   1
M  END
>  <meeko>  (2) 
{"is_sidechain": [false], "free_energy": -8.854, "intermolecular_energy": -12.078, "internal_energy": -1.188}

$$$$
LIB_SICRXINMTYWPHY__M_PUB_ALL__e8__s20260927
     RDKit          3D

 60 63  0  0  0  0  0  0  0  0999 V2000
   14.2930   -9.5840   11.2920 O   0  0  0  0  0  0  0  0  0  0  0  0
   14.6680   -9.6520   12.4580 C   0  0  0  0  0  0  0  0  0  0  0  0
   13.9080  -10.0400   13.5480 N   0  0  0  0  0  0  0  0  0  0  0  0
   12.5870  -10.5390   13.5340 C   0  0  0  0  0  0  0  0  0  0  0  0
   11.4960   -9.8580   14.0830 C   0  0  0  0  0  0  0  0  0  0  0  0
   10.1970  -10.3920   14.0700 C   0  0  0  0  0  0  0  0  0  0  0  0
    9.1050   -9.7210   14.6380 N   0  0  0  0  0  0  0  0  0  0  0  0
    7.8080  -10.3900   14.5990 C   0  0  0  0  0  0  0  0  0  0  0  0
    6.8490   -9.7520   15.5940 C   0  0  0  0  0  0  0  0  0  0  0  0
    6.7770   -8.2300   15.4340 C   0  0  0  0  0  0  0  0  0  0  0  0
    6.1160   -7.8450   14.1130 N   0  0  0  0  0  0  0  0  0  0  0  0
    5.9180   -6.3570   13.8930 C   0  0  0  0  0  0  0  0  0  0  0  0
    4.8290   -6.3090   12.8450 C   0  0  0  0  0  0  0  0  0  0  0  0
    3.8680   -7.3770   13.3190 C   0  0  0  0  0  0  0  0  0  0  0  0
    4.7530   -8.4870   13.8640 C   0  0  0  0  0  0  0  0  0  0  0  0
    8.1850   -7.6410   15.5560 C   0  0  0  0  0  0  0  0  0  0  0  0
    9.1680   -8.2610   14.5730 C   0  0  0  0  0  0  0  0  0  0  0  0
   10.0170  -11.6410   13.4620 C   0  0  0  0  0  0  0  0  0  0  0  0
   11.0880  -12.3390   12.8820 C   0  0  0  0  0  0  0  0  0  0  0  0
   10.8530  -13.6880   12.2470 C   0  0  0  0  0  0  0  0  0  0  0  0
    9.7580  -13.6890   11.4410 F   0  0  0  0  0  0  0  0  0  0  0  0
   10.6540  -14.6810   13.1560 F   0  0  0  0  0  0  0  0  0  0  0  0
   11.8940  -14.0930   11.4690 F   0  0  0  0  0  0  0  0  0  0  0  0
   12.3740  -11.7810   12.9310 C   0  0  0  0  0  0  0  0  0  0  0  0
   16.0630   -9.2330   12.7750 C   0  0  0  0  0  0  0  0  0  0  0  0
   16.7490   -8.2960   11.9920 C   0  0  0  0  0  0  0  0  0  0  0  0
   18.0510   -7.9240   12.3310 C   0  0  0  0  0  0  0  0  0  0  0  0
   18.6680   -8.4790   13.4540 C   0  0  0  0  0  0  0  0  0  0  0  0
   17.9920   -9.4110   14.2560 C   0  0  0  0  0  0  0  0  0  0  0  0
   18.6410   -9.9880   15.4910 C   0  0  0  0  0  0  0  0  0  0  0  0
   17.7900  -10.7810   16.1970 F   0  0  0  0  0  0  0  0  0  0  0  0
   19.0830   -9.0370   16.3600 F   0  0  0  0  0  0  0  0  0  0  0  0
   19.7240  -10.7610   15.2030 F   0  0  0  0  0  0  0  0  0  0  0  0
   16.6810   -9.7740   13.9110 C   0  0  0  0  0  0  0  0  0  0  0  0
   14.3210   -9.9110   14.4650 H   0  0  0  0  0  0  0  0  0  0  0  0
   11.6606   -8.8712   14.5403 H   0  0  0  0  0  0  0  0  0  0  0  0
    7.3876  -10.3058   13.5860 H   0  0  0  0  0  0  0  0  0  0  0  0
    7.9454  -11.4483   14.8658 H   0  0  0  0  0  0  0  0  0  0  0  0
    5.8447  -10.1725   15.4376 H   0  0  0  0  0  0  0  0  0  0  0  0
    7.2201   -9.9679   16.6067 H   0  0  0  0  0  0  0  0  0  0  0  0
    6.1499   -7.8110   16.2347 H   0  0  0  0  0  0  0  0  0  0  0  0
    6.7260   -8.1630   13.3470 H   0  0  0  0  0  0  0  0  0  0  0  0
    5.5965   -5.8598   14.8200 H   0  0  0  0  0  0  0  0  0  0  0  0
    6.8381   -5.8385   13.5855 H   0  0  0  0  0  0  0  0  0  0  0  0
    4.3448   -5.3216   12.8204 H   0  0  0  0  0  0  0  0  0  0  0  0
    5.1982   -6.4752   11.8222 H   0  0  0  0  0  0  0  0  0  0  0  0
    3.2109   -6.9833   14.1084 H   0  0  0  0  0  0  0  0  0  0  0  0
    3.2112   -7.7308   12.5107 H   0  0  0  0  0  0  0  0  0  0  0  0
    4.3380   -8.8821   14.8030 H   0  0  0  0  0  0  0  0  0  0  0  0
    4.8241   -9.3308   13.1619 H   0  0  0  0  0  0  0  0  0  0  0  0
    8.1316   -6.5590   15.3652 H   0  0  0  0  0  0  0  0  0  0  0  0
    8.5490   -7.8574   16.5712 H   0  0  0  0  0  0  0  0  0  0  0  0
    8.9164   -7.9328   13.5537 H   0  0  0  0  0  0  0  0  0  0  0  0
   10.1859   -7.9367   14.8352 H   0  0  0  0  0  0  0  0  0  0  0  0
    9.0113  -12.0860   13.4384 H   0  0  0  0  0  0  0  0  0  0  0  0
   13.2220  -12.3261   12.4908 H   0  0  0  0  0  0  0  0  0  0  0  0
   16.2621   -7.8535   11.1105 H   0  0  0  0  0  0  0  0  0  0  0  0
   18.5918   -7.1925   11.7125 H   0  0  0  0  0  0  0  0  0  0  0  0
   19.6952   -8.1823   13.7127 H   0  0  0  0  0  0  0  0  0  0  0  0
   16.1322  -10.4911   14.5391 H   0  0  0  0  0  0  0  0  0  0  0  0
  1  2  2  0
  2  3  1  0
  3  4  1  0
  4  5  2  0
  5  6  1  0
  6  7  1  0
  7  8  1  0
  8  9  1  0
  9 10  1  0
 10 11  1  0
 11 12  1  0
 12 13  1  0
 13 14  1  0
 14 15  1  0
 10 16  1  0
 16 17  1  0
  6 18  2  0
 18 19  1  0
 19 20  1  0
 20 21  1  0
 20 22  1  0
 20 23  1  0
 19 24  2  0
  2 25  1  0
 25 26  2  0
 26 27  1  0
 27 28  2  0
 28 29  1  0
 29 30  1  0
 30 31  1  0
 30 32  1  0
 30 33  1  0
 29 34  2  0
 24  4  1  0
 34 25  1  0
 17  7  1  0
 15 11  1  0
  3 35  1  0
  5 36  1  0
  8 37  1  0
  8 38  1  0
  9 39  1  0
  9 40  1  0
 10 41  1  0
 11 42  1  0
 12 43  1  0
 12 44  1  0
 13 45  1  0
 13 46  1  0
 14 47  1  0
 14 48  1  0
 15 49  1  0
 15 50  1  0
 16 51  1  0
 16 52  1  0
 17 53  1  0
 17 54  1  0
 18 55  1  0
 24 56  1  0
 26 57  1  0
 27 58  1  0
 28 59  1  0
 34 60  1  0
M  CHG  1  11   1
M  END
>  <meeko>  (3) 
{"is_sidechain": [false], "free_energy": -8.741, "intermolecular_energy": -11.835, "internal_energy": -1.279}

$$$$
LIB_SICRXINMTYWPHY__M_PUB_ALL__e8__s20260927
     RDKit          3D

 60 63  0  0  0  0  0  0  0  0999 V2000
   13.6000  -12.0370   -4.5380 O   0  0  0  0  0  0  0  0  0  0  0  0
   12.9420  -12.9890   -4.1300 C   0  0  0  0  0  0  0  0  0  0  0  0
   12.4230  -14.0220   -4.8920 N   0  0  0  0  0  0  0  0  0  0  0  0
   12.6320  -14.2540   -6.2690 C   0  0  0  0  0  0  0  0  0  0  0  0
   11.6840  -13.9650   -7.2560 C   0  0  0  0  0  0  0  0  0  0  0  0
   11.9160  -14.2280   -8.6160 C   0  0  0  0  0  0  0  0  0  0  0  0
   10.9590  -13.9580   -9.6050 N   0  0  0  0  0  0  0  0  0  0  0  0
   11.3070  -12.9780  -10.6300 C   0  0  0  0  0  0  0  0  0  0  0  0
   10.3750  -13.1050  -11.8270 C   0  0  0  0  0  0  0  0  0  0  0  0
    8.9000  -13.0890  -11.4160 C   0  0  0  0  0  0  0  0  0  0  0  0
    8.4910  -11.7200  -10.8800 N   0  0  0  0  0  0  0  0  0  0  0  0
    7.0110  -11.5470  -10.5960 C   0  0  0  0  0  0  0  0  0  0  0  0
    6.8350  -10.0450  -10.6080 C   0  0  0  0  0  0  0  0  0  0  0  0
    7.6720   -9.6240  -11.7950 C   0  0  0  0  0  0  0  0  0  0  0  0
    8.8860  -10.5390  -11.7640 C   0  0  0  0  0  0  0  0  0  0  0  0
    8.6480  -14.1980  -10.3900 C   0  0  0  0  0  0  0  0  0  0  0  0
    9.5660  -14.0970   -9.1800 C   0  0  0  0  0  0  0  0  0  0  0  0
   13.1550  -14.7790   -8.9660 C   0  0  0  0  0  0  0  0  0  0  0  0
   14.1360  -15.0590   -8.0020 C   0  0  0  0  0  0  0  0  0  0  0  0
   15.4530  -15.6640   -8.4210 C   0  0  0  0  0  0  0  0  0  0  0  0
   15.2950  -16.8950   -8.9790 F   0  0  0  0  0  0  0  0  0  0  0  0
   16.3220  -15.8280   -7.3860 F   0  0  0  0  0  0  0  0  0  0  0  0
   16.1080  -14.9120   -9.3460 F   0  0  0  0  0  0  0  0  0  0  0  0
   13.8600  -14.7990   -6.6520 C   0  0  0  0  0  0  0  0  0  0  0  0
   12.6060  -13.0420   -2.6780 C   0  0  0  0  0  0  0  0  0  0  0  0
   12.1230  -14.2090   -2.0740 C   0  0  0  0  0  0  0  0  0  0  0  0
   11.8310  -14.2170   -0.7090 C   0  0  0  0  0  0  0  0  0  0  0  0
   12.0270  -13.0660    0.0570 C   0  0  0  0  0  0  0  0  0  0  0  0
   12.5200  -11.8910   -0.5300 C   0  0  0  0  0  0  0  0  0  0  0  0
   12.7680  -10.6540    0.3000 C   0  0  0  0  0  0  0  0  0  0  0  0
   13.9870  -10.6760    0.9040 F   0  0  0  0  0  0  0  0  0  0  0  0
   11.8550  -10.4810    1.2940 F   0  0  0  0  0  0  0  0  0  0  0  0
   12.7360   -9.5110   -0.4400 F   0  0  0  0  0  0  0  0  0  0  0  0
   12.8180  -11.8940   -1.9020 C   0  0  0  0  0  0  0  0  0  0  0  0
   11.7850  -14.6580   -4.4290 H   0  0  0  0  0  0  0  0  0  0  0  0
   10.7249  -13.5169   -6.9571 H   0  0  0  0  0  0  0  0  0  0  0  0
   11.2187  -11.9660  -10.2081 H   0  0  0  0  0  0  0  0  0  0  0  0
   12.3396  -13.1615  -10.9619 H   0  0  0  0  0  0  0  0  0  0  0  0
   10.5611  -12.2644  -12.5116 H   0  0  0  0  0  0  0  0  0  0  0  0
   10.5796  -14.0702  -12.3133 H   0  0  0  0  0  0  0  0  0  0  0  0
    8.2758  -13.2803  -12.3013 H   0  0  0  0  0  0  0  0  0  0  0  0
    8.9680  -11.5750   -9.9790 H   0  0  0  0  0  0  0  0  0  0  0  0
    6.4003  -12.0228  -11.3775 H   0  0  0  0  0  0  0  0  0  0  0  0
    6.6938  -12.0129   -9.6514 H   0  0  0  0  0  0  0  0  0  0  0  0
    5.7793   -9.7701  -10.7491 H   0  0  0  0  0  0  0  0  0  0  0  0
    7.1363   -9.5618   -9.6669 H   0  0  0  0  0  0  0  0  0  0  0  0
    7.1104   -9.7582  -12.7313 H   0  0  0  0  0  0  0  0  0  0  0  0
    7.9536   -8.5618  -11.7464 H   0  0  0  0  0  0  0  0  0  0  0  0
    9.1316  -10.8849  -12.7789 H   0  0  0  0  0  0  0  0  0  0  0  0
    9.7751  -10.0207  -11.3756 H   0  0  0  0  0  0  0  0  0  0  0  0
    7.6050  -14.1302  -10.0473 H   0  0  0  0  0  0  0  0  0  0  0  0
    8.8519  -15.1600  -10.8830 H   0  0  0  0  0  0  0  0  0  0  0  0
    9.2807  -13.2194   -8.5812 H   0  0  0  0  0  0  0  0  0  0  0  0
    9.4665  -15.0135   -8.5799 H   0  0  0  0  0  0  0  0  0  0  0  0
   13.3647  -14.9979  -10.0234 H   0  0  0  0  0  0  0  0  0  0  0  0
   14.6175  -15.0263   -5.8874 H   0  0  0  0  0  0  0  0  0  0  0  0
   11.9738  -15.1186   -2.6744 H   0  0  0  0  0  0  0  0  0  0  0  0
   11.4456  -15.1321   -0.2357 H   0  0  0  0  0  0  0  0  0  0  0  0
   11.7925  -13.0808    1.1316 H   0  0  0  0  0  0  0  0  0  0  0  0
   13.2221  -10.9858   -2.3730 H   0  0  0  0  0  0  0  0  0  0  0  0
  1  2  2  0
  2  3  1  0
  3  4  1  0
  4  5  2  0
  5  6  1  0
  6  7  1  0
  7  8  1  0
  8  9  1  0
  9 10  1  0
 10 11  1  0
 11 12  1  0
 12 13  1  0
 13 14  1  0
 14 15  1  0
 10 16  1  0
 16 17  1  0
  6 18  2  0
 18 19  1  0
 19 20  1  0
 20 21  1  0
 20 22  1  0
 20 23  1  0
 19 24  2  0
  2 25  1  0
 25 26  2  0
 26 27  1  0
 27 28  2  0
 28 29  1  0
 29 30  1  0
 30 31  1  0
 30 32  1  0
 30 33  1  0
 29 34  2  0
 24  4  1  0
 34 25  1  0
 17  7  1  0
 15 11  1  0
  3 35  1  0
  5 36  1  0
  8 37  1  0
  8 38  1  0
  9 39  1  0
  9 40  1  0
 10 41  1  0
 11 42  1  0
 12 43  1  0
 12 44  1  0
 13 45  1  0
 13 46  1  0
 14 47  1  0
 14 48  1  0
 15 49  1  0
 15 50  1  0
 16 51  1  0
 16 52  1  0
 17 53  1  0
 17 54  1  0
 18 55  1  0
 24 56  1  0
 26 57  1  0
 27 58  1  0
 28 59  1  0
 34 60  1  0
M  CHG  1  11   1
M  END
>  <meeko>  (4) 
{"is_sidechain": [false], "free_energy": -8.638, "intermolecular_energy": -11.731, "internal_energy": -1.245}

$$$$
LIB_SICRXINMTYWPHY__M_PUB_ALL__e8__s20260927
     RDKit          3D

 60 63  0  0  0  0  0  0  0  0999 V2000
    1.2020   -9.9890    0.9020 O   0  0  0  0  0  0  0  0  0  0  0  0
    0.6370  -11.0160    0.5400 C   0  0  0  0  0  0  0  0  0  0  0  0
    1.0800  -11.9060   -0.4230 N   0  0  0  0  0  0  0  0  0  0  0  0
    2.3140  -11.8780   -1.1090 C   0  0  0  0  0  0  0  0  0  0  0  0
    3.5380  -12.2000   -0.5140 C   0  0  0  0  0  0  0  0  0  0  0  0
    4.7510  -12.1430   -1.2200 C   0  0  0  0  0  0  0  0  0  0  0  0
    5.9820  -12.4450   -0.6210 N   0  0  0  0  0  0  0  0  0  0  0  0
    6.7040  -11.3530    0.0250 C   0  0  0  0  0  0  0  0  0  0  0  0
    7.7710  -11.9010    0.9630 C   0  0  0  0  0  0  0  0  0  0  0  0
    8.6720  -12.9310    0.2760 C   0  0  0  0  0  0  0  0  0  0  0  0
    9.5410  -12.2770   -0.7950 N   0  0  0  0  0  0  0  0  0  0  0  0
    9.7610  -13.1010   -2.0490 C   0  0  0  0  0  0  0  0  0  0  0  0
   11.0090  -12.4910   -2.6440 C   0  0  0  0  0  0  0  0  0  0  0  0
   11.8860  -12.2820   -1.4290 C   0  0  0  0  0  0  0  0  0  0  0  0
   10.9320  -11.8550   -0.3260 C   0  0  0  0  0  0  0  0  0  0  0  0
    7.8070  -14.0530   -0.3050 C   0  0  0  0  0  0  0  0  0  0  0  0
    6.7290  -13.5360   -1.2470 C   0  0  0  0  0  0  0  0  0  0  0  0
    4.6980  -11.7660   -2.5680 C   0  0  0  0  0  0  0  0  0  0  0  0
    3.4820  -11.4580   -3.2000 C   0  0  0  0  0  0  0  0  0  0  0  0
    3.4700  -11.0450   -4.6510 C   0  0  0  0  0  0  0  0  0  0  0  0
    2.3920  -11.5420   -5.3150 F   0  0  0  0  0  0  0  0  0  0  0  0
    4.5650  -11.4690   -5.3390 F   0  0  0  0  0  0  0  0  0  0  0  0
    3.4230   -9.6950   -4.8140 F   0  0  0  0  0  0  0  0  0  0  0  0
    2.2940  -11.5110   -2.4570 C   0  0  0  0  0  0  0  0  0  0  0  0
   -0.6870  -11.3420    1.1430 C   0  0  0  0  0  0  0  0  0  0  0  0
   -0.8340  -11.5910    2.5130 C   0  0  0  0  0  0  0  0  0  0  0  0
   -2.0940  -11.8820    3.0380 C   0  0  0  0  0  0  0  0  0  0  0  0
   -3.2110  -11.9180    2.2000 C   0  0  0  0  0  0  0  0  0  0  0  0
   -3.0840  -11.6610    0.8270 C   0  0  0  0  0  0  0  0  0  0  0  0
   -4.2930  -11.6640   -0.0780 C   0  0  0  0  0  0  0  0  0  0  0  0
   -4.1060  -12.4340   -1.1840 F   0  0  0  0  0  0  0  0  0  0  0  0
   -4.6280  -10.4250   -0.5310 F   0  0  0  0  0  0  0  0  0  0  0  0
   -5.4070  -12.1510    0.5350 F   0  0  0  0  0  0  0  0  0  0  0  0
   -1.8130  -11.3630    0.3090 C   0  0  0  0  0  0  0  0  0  0  0  0
    0.4340  -12.6330   -0.7080 H   0  0  0  0  0  0  0  0  0  0  0  0
    3.5513  -12.5081    0.5419 H   0  0  0  0  0  0  0  0  0  0  0  0
    7.1837  -10.7307   -0.7448 H   0  0  0  0  0  0  0  0  0  0  0  0
    5.9917  -10.7516    0.6089 H   0  0  0  0  0  0  0  0  0  0  0  0
    8.3936  -11.0663    1.3174 H   0  0  0  0  0  0  0  0  0  0  0  0
    7.2606  -12.4028    1.7983 H   0  0  0  0  0  0  0  0  0  0  0  0
    9.3581  -13.3638    1.0190 H   0  0  0  0  0  0  0  0  0  0  0  0
    9.0710  -11.4150   -1.1050 H   0  0  0  0  0  0  0  0  0  0  0  0
    9.9185  -14.1614   -1.8024 H   0  0  0  0  0  0  0  0  0  0  0  0
    8.9012  -13.0833   -2.7349 H   0  0  0  0  0  0  0  0  0  0  0  0
   11.4824  -13.1766   -3.3622 H   0  0  0  0  0  0  0  0  0  0  0  0
   10.8175  -11.5671   -3.2094 H   0  0  0  0  0  0  0  0  0  0  0  0
   12.3989  -13.2163   -1.1567 H   0  0  0  0  0  0  0  0  0  0  0  0
   12.6715  -11.5334   -1.6095 H   0  0  0  0  0  0  0  0  0  0  0  0
   11.1874  -12.3586    0.6180 H   0  0  0  0  0  0  0  0  0  0  0  0
   10.9861  -10.7723   -0.1396 H   0  0  0  0  0  0  0  0  0  0  0  0
    8.4561  -14.7464   -0.8598 H   0  0  0  0  0  0  0  0  0  0  0  0
    7.3023  -14.5523    0.5352 H   0  0  0  0  0  0  0  0  0  0  0  0
    7.2008  -13.1686   -2.1703 H   0  0  0  0  0  0  0  0  0  0  0  0
    6.0340  -14.3570   -1.4771 H   0  0  0  0  0  0  0  0  0  0  0  0
    5.6321  -11.7097   -3.1462 H   0  0  0  0  0  0  0  0  0  0  0  0
    1.3376  -11.2614   -2.9398 H   0  0  0  0  0  0  0  0  0  0  0  0
    0.0435  -11.5573    3.1755 H   0  0  0  0  0  0  0  0  0  0  0  0
   -2.2076  -12.0833    4.1134 H   0  0  0  0  0  0  0  0  0  0  0  0
   -4.2003  -12.1503    2.6212 H   0  0  0  0  0  0  0  0  0  0  0  0
   -1.7002  -11.1437   -0.7630 H   0  0  0  0  0  0  0  0  0  0  0  0
  1  2  2  0
  2  3  1  0
  3  4  1  0
  4  5  2  0
  5  6  1  0
  6  7  1  0
  7  8  1  0
  8  9  1  0
  9 10  1  0
 10 11  1  0
 11 12  1  0
 12 13  1  0
 13 14  1  0
 14 15  1  0
 10 16  1  0
 16 17  1  0
  6 18  2  0
 18 19  1  0
 19 20  1  0
 20 21  1  0
 20 22  1  0
 20 23  1  0
 19 24  2  0
  2 25  1  0
 25 26  2  0
 26 27  1  0
 27 28  2  0
 28 29  1  0
 29 30  1  0
 30 31  1  0
 30 32  1  0
 30 33  1  0
 29 34  2  0
 24  4  1  0
 34 25  1  0
 17  7  1  0
 15 11  1  0
  3 35  1  0
  5 36  1  0
  8 37  1  0
  8 38  1  0
  9 39  1  0
  9 40  1  0
 10 41  1  0
 11 42  1  0
 12 43  1  0
 12 44  1  0
 13 45  1  0
 13 46  1  0
 14 47  1  0
 14 48  1  0
 15 49  1  0
 15 50  1  0
 16 51  1  0
 16 52  1  0
 17 53  1  0
 17 54  1  0
 18 55  1  0
 24 56  1  0
 26 57  1  0
 27 58  1  0
 28 59  1  0
 34 60  1  0
M  CHG  1  11   1
M  END
>  <meeko>  (5) 
{"is_sidechain": [false], "free_energy": -8.39, "intermolecular_energy": -11.664, "internal_energy": -0.976}

$$$$
LIB_SICRXINMTYWPHY__M_PUB_ALL__e8__s20260927
     RDKit          3D

 60 63  0  0  0  0  0  0  0  0999 V2000
    3.6800  -12.2260   -0.9210 O   0  0  0  0  0  0  0  0  0  0  0  0
    3.3560  -12.2250    0.2610 C   0  0  0  0  0  0  0  0  0  0  0  0
    4.1420  -11.8380    1.3330 N   0  0  0  0  0  0  0  0  0  0  0  0
    5.4320  -11.2650    1.2830 C   0  0  0  0  0  0  0  0  0  0  0  0
    6.5780  -11.9700    0.9000 C   0  0  0  0  0  0  0  0  0  0  0  0
    7.8500  -11.3740    0.8800 C   0  0  0  0  0  0  0  0  0  0  0  0
    9.0040  -12.0840    0.5170 N   0  0  0  0  0  0  0  0  0  0  0  0
   10.2930  -11.5220    0.9130 C   0  0  0  0  0  0  0  0  0  0  0  0
   11.3840  -12.5810    0.8250 C   0  0  0  0  0  0  0  0  0  0  0  0
   11.3960  -13.2890   -0.5340 C   0  0  0  0  0  0  0  0  0  0  0  0
   11.8290  -12.3380   -1.6470 N   0  0  0  0  0  0  0  0  0  0  0  0
   12.1180  -12.9910   -2.9850 C   0  0  0  0  0  0  0  0  0  0  0  0
   12.9900  -11.9710   -3.6810 C   0  0  0  0  0  0  0  0  0  0  0  0
   13.9210  -11.5230   -2.5750 C   0  0  0  0  0  0  0  0  0  0  0  0
   13.0560  -11.4880   -1.3260 C   0  0  0  0  0  0  0  0  0  0  0  0
   10.0130  -13.8870   -0.8060 C   0  0  0  0  0  0  0  0  0  0  0  0
    8.8990  -12.8510   -0.7240 C   0  0  0  0  0  0  0  0  0  0  0  0
    7.9380  -10.0240    1.2420 C   0  0  0  0  0  0  0  0  0  0  0  0
    6.8030   -9.2830    1.6080 C   0  0  0  0  0  0  0  0  0  0  0  0
    6.9440   -7.8340    2.0020 C   0  0  0  0  0  0  0  0  0  0  0  0
    7.1040   -7.6830    3.3440 F   0  0  0  0  0  0  0  0  0  0  0  0
    5.8630   -7.0780    1.6640 F   0  0  0  0  0  0  0  0  0  0  0  0
    8.0190   -7.2330    1.4240 F   0  0  0  0  0  0  0  0  0  0  0  0
    5.5530   -9.9180    1.6330 C   0  0  0  0  0  0  0  0  0  0  0  0
    2.0010  -12.7350    0.6210 C   0  0  0  0  0  0  0  0  0  0  0  0
    1.8050  -14.0350    1.1020 C   0  0  0  0  0  0  0  0  0  0  0  0
    0.5210  -14.4680    1.4360 C   0  0  0  0  0  0  0  0  0  0  0  0
   -0.5680  -13.6040    1.2990 C   0  0  0  0  0  0  0  0  0  0  0  0
   -0.3880  -12.2940    0.8300 C   0  0  0  0  0  0  0  0  0  0  0  0
   -1.5550  -11.3440    0.7140 C   0  0  0  0  0  0  0  0  0  0  0  0
   -2.6810  -11.9630    0.2660 F   0  0  0  0  0  0  0  0  0  0  0  0
   -1.3240  -10.3110   -0.1420 F   0  0  0  0  0  0  0  0  0  0  0  0
   -1.8890  -10.7740    1.9050 F   0  0  0  0  0  0  0  0  0  0  0  0
    0.9090  -11.8650    0.5020 C   0  0  0  0  0  0  0  0  0  0  0  0
    3.7800  -12.0270    2.2600 H   0  0  0  0  0  0  0  0  0  0  0  0
    6.4800  -13.0251    0.6050 H   0  0  0  0  0  0  0  0  0  0  0  0
   10.5447  -10.6860    0.2439 H   0  0  0  0  0  0  0  0  0  0  0  0
   10.2233  -11.1672    1.9519 H   0  0  0  0  0  0  0  0  0  0  0  0
   12.3598  -12.0980    0.9813 H   0  0  0  0  0  0  0  0  0  0  0  0
   11.1831  -13.3375    1.5979 H   0  0  0  0  0  0  0  0  0  0  0  0
   12.1333  -14.1050   -0.5107 H   0  0  0  0  0  0  0  0  0  0  0  0
   11.0590  -11.6760   -1.8180 H   0  0  0  0  0  0  0  0  0  0  0  0
   12.6524  -13.9433   -2.8527 H   0  0  0  0  0  0  0  0  0  0  0  0
   11.2082  -13.2409   -3.5505 H   0  0  0  0  0  0  0  0  0  0  0  0
   13.5497  -12.4272   -4.5108 H   0  0  0  0  0  0  0  0  0  0  0  0
   12.4212  -11.1462   -4.1351 H   0  0  0  0  0  0  0  0  0  0  0  0
   14.7486  -12.2372   -2.4527 H   0  0  0  0  0  0  0  0  0  0  0  0
   14.3786  -10.5459   -2.7893 H   0  0  0  0  0  0  0  0  0  0  0  0
   13.6019  -11.9110   -0.4698 H   0  0  0  0  0  0  0  0  0  0  0  0
   12.7766  -10.4591   -1.0552 H   0  0  0  0  0  0  0  0  0  0  0  0
   10.0116  -14.3265   -1.8144 H   0  0  0  0  0  0  0  0  0  0  0  0
    9.8202  -14.6447   -0.0323 H   0  0  0  0  0  0  0  0  0  0  0  0
    8.9779  -12.1658   -1.5809 H   0  0  0  0  0  0  0  0  0  0  0  0
    7.9289  -13.3692   -0.7413 H   0  0  0  0  0  0  0  0  0  0  0  0
    8.9216   -9.5315    1.2395 H   0  0  0  0  0  0  0  0  0  0  0  0
    4.6593   -9.3501    1.9310 H   0  0  0  0  0  0  0  0  0  0  0  0
    2.6623  -14.7146    1.2166 H   0  0  0  0  0  0  0  0  0  0  0  0
    0.3662  -15.4916    1.8078 H   0  0  0  0  0  0  0  0  0  0  0  0
   -1.5771  -13.9543    1.5615 H   0  0  0  0  0  0  0  0  0  0  0  0
    1.0689  -10.8358    0.1482 H   0  0  0  0  0  0  0  0  0  0  0  0
  1  2  2  0
  2  3  1  0
  3  4  1  0
  4  5  2  0
  5  6  1  0
  6  7  1  0
  7  8  1  0
  8  9  1  0
  9 10  1  0
 10 11  1  0
 11 12  1  0
 12 13  1  0
 13 14  1  0
 14 15  1  0
 10 16  1  0
 16 17  1  0
  6 18  2  0
 18 19  1  0
 19 20  1  0
 20 21  1  0
 20 22  1  0
 20 23  1  0
 19 24  2  0
  2 25  1  0
 25 26  2  0
 26 27  1  0
 27 28  2  0
 28 29  1  0
 29 30  1  0
 30 31  1  0
 30 32  1  0
 30 33  1  0
 29 34  2  0
 24  4  1  0
 34 25  1  0
 17  7  1  0
 15 11  1  0
  3 35  1  0
  5 36  1  0
  8 37  1  0
  8 38  1  0
  9 39  1  0
  9 40  1  0
 10 41  1  0
 11 42  1  0
 12 43  1  0
 12 44  1  0
 13 45  1  0
 13 46  1  0
 14 47  1  0
 14 48  1  0
 15 49  1  0
 15 50  1  0
 16 51  1  0
 16 52  1  0
 17 53  1  0
 17 54  1  0
 18 55  1  0
 24 56  1  0
 26 57  1  0
 27 58  1  0
 28 59  1  0
 34 60  1  0
M  CHG  1  11   1
M  END
>  <meeko>  (6) 
{"is_sidechain": [false], "free_energy": -8.365, "intermolecular_energy": -11.409, "internal_energy": -1.198}

$$$$
LIB_SICRXINMTYWPHY__M_PUB_ALL__e8__s20260927
     RDKit          3D

 60 63  0  0  0  0  0  0  0  0999 V2000
    7.6950  -14.0180   -1.4490 O   0  0  0  0  0  0  0  0  0  0  0  0
    7.9230  -12.8700   -1.0830 C   0  0  0  0  0  0  0  0  0  0  0  0
    7.0160  -11.8260   -1.0230 N   0  0  0  0  0  0  0  0  0  0  0  0
    5.6260  -11.8880   -1.2650 C   0  0  0  0  0  0  0  0  0  0  0  0
    4.6970  -12.3540   -0.3290 C   0  0  0  0  0  0  0  0  0  0  0  0
    3.3220  -12.4210   -0.6090 C   0  0  0  0  0  0  0  0  0  0  0  0
    2.3910  -12.9060    0.3200 N   0  0  0  0  0  0  0  0  0  0  0  0
    2.6160  -14.2430    0.8650 C   0  0  0  0  0  0  0  0  0  0  0  0
    1.7920  -14.4480    2.1290 C   0  0  0  0  0  0  0  0  0  0  0  0
    0.3170  -14.0930    1.9220 C   0  0  0  0  0  0  0  0  0  0  0  0
   -0.3610  -15.0790    0.9760 N   0  0  0  0  0  0  0  0  0  0  0  0
   -1.8170  -14.7890    0.6640 C   0  0  0  0  0  0  0  0  0  0  0  0
   -2.3390  -16.1260    0.1910 C   0  0  0  0  0  0  0  0  0  0  0  0
   -1.7090  -17.0920    1.1710 C   0  0  0  0  0  0  0  0  0  0  0  0
   -0.3160  -16.5380    1.4260 C   0  0  0  0  0  0  0  0  0  0  0  0
    0.2090  -12.6530    1.4120 C   0  0  0  0  0  0  0  0  0  0  0  0
    1.0240  -12.4160    0.1480 C   0  0  0  0  0  0  0  0  0  0  0  0
    2.8960  -11.9820   -1.8690 C   0  0  0  0  0  0  0  0  0  0  0  0
    3.8010  -11.4880   -2.8220 C   0  0  0  0  0  0  0  0  0  0  0  0
    3.3020  -11.0360   -4.1720 C   0  0  0  0  0  0  0  0  0  0  0  0
    2.9450   -9.7240   -4.1710 F   0  0  0  0  0  0  0  0  0  0  0  0
    2.2080  -11.7250   -4.5980 F   0  0  0  0  0  0  0  0  0  0  0  0
    4.2370  -11.1710   -5.1520 F   0  0  0  0  0  0  0  0  0  0  0  0
    5.1680  -11.4530   -2.5110 C   0  0  0  0  0  0  0  0  0  0  0  0
    9.3220  -12.5160   -0.7060 C   0  0  0  0  0  0  0  0  0  0  0  0
    9.6700  -12.1820    0.6090 C   0  0  0  0  0  0  0  0  0  0  0  0
   10.9940  -11.8680    0.9210 C   0  0  0  0  0  0  0  0  0  0  0  0
   11.9730  -11.8920   -0.0740 C   0  0  0  0  0  0  0  0  0  0  0  0
   11.6440  -12.2350   -1.3940 C   0  0  0  0  0  0  0  0  0  0  0  0
   12.7050  -12.2980   -2.4670 C   0  0  0  0  0  0  0  0  0  0  0  0
   13.1270  -13.5700   -2.6980 F   0  0  0  0  0  0  0  0  0  0  0  0
   13.8190  -11.5770   -2.1650 F   0  0  0  0  0  0  0  0  0  0  0  0
   12.2670  -11.8240   -3.6670 F   0  0  0  0  0  0  0  0  0  0  0  0
   10.3110  -12.5560   -1.6980 C   0  0  0  0  0  0  0  0  0  0  0  0
    7.3890  -10.9030   -0.8330 H   0  0  0  0  0  0  0  0  0  0  0  0
    5.0549  -12.6788    0.6591 H   0  0  0  0  0  0  0  0  0  0  0  0
    2.3231  -14.9935    0.1160 H   0  0  0  0  0  0  0  0  0  0  0  0
    3.6821  -14.3518    1.1132 H   0  0  0  0  0  0  0  0  0  0  0  0
    1.8633  -15.5033    2.4311 H   0  0  0  0  0  0  0  0  0  0  0  0
    2.1940  -13.7811    2.9059 H   0  0  0  0  0  0  0  0  0  0  0  0
   -0.2105  -14.1660    2.8845 H   0  0  0  0  0  0  0  0  0  0  0  0
    0.1310  -15.0440    0.0710 H   0  0  0  0  0  0  0  0  0  0  0  0
   -2.3537  -14.4511    1.5627 H   0  0  0  0  0  0  0  0  0  0  0  0
   -1.9490  -13.9866   -0.0768 H   0  0  0  0  0  0  0  0  0  0  0  0
   -3.4370  -16.1652    0.2450 H   0  0  0  0  0  0  0  0  0  0  0  0
   -2.0932  -16.3451   -0.8586 H   0  0  0  0  0  0  0  0  0  0  0  0
   -2.2882  -17.1280    2.1055 H   0  0  0  0  0  0  0  0  0  0  0  0
   -1.6806  -18.1195    0.7793 H   0  0  0  0  0  0  0  0  0  0  0  0
   -0.0681  -16.6017    2.4958 H   0  0  0  0  0  0  0  0  0  0  0  0
    0.4523  -17.1066    0.8816 H   0  0  0  0  0  0  0  0  0  0  0  0
   -0.8472  -12.4341    1.1962 H   0  0  0  0  0  0  0  0  0  0  0  0
    0.6091  -11.9918    2.1948 H   0  0  0  0  0  0  0  0  0  0  0  0
    0.5521  -12.9472   -0.6918 H   0  0  0  0  0  0  0  0  0  0  0  0
    1.0567  -11.3357   -0.0566 H   0  0  0  0  0  0  0  0  0  0  0  0
    1.8255  -12.0254   -2.1182 H   0  0  0  0  0  0  0  0  0  0  0  0
    5.8866  -11.0794   -3.2554 H   0  0  0  0  0  0  0  0  0  0  0  0
    8.9008  -12.1671    1.3952 H   0  0  0  0  0  0  0  0  0  0  0  0
   11.2664  -11.6012    1.9528 H   0  0  0  0  0  0  0  0  0  0  0  0
   13.0131  -11.6394    0.1796 H   0  0  0  0  0  0  0  0  0  0  0  0
   10.0405  -12.8417   -2.7252 H   0  0  0  0  0  0  0  0  0  0  0  0
  1  2  2  0
  2  3  1  0
  3  4  1  0
  4  5  2  0
  5  6  1  0
  6  7  1  0
  7  8  1  0
  8  9  1  0
  9 10  1  0
 10 11  1  0
 11 12  1  0
 12 13  1  0
 13 14  1  0
 14 15  1  0
 10 16  1  0
 16 17  1  0
  6 18  2  0
 18 19  1  0
 19 20  1  0
 20 21  1  0
 20 22  1  0
 20 23  1  0
 19 24  2  0
  2 25  1  0
 25 26  2  0
 26 27  1  0
 27 28  2  0
 28 29  1  0
 29 30  1  0
 30 31  1  0
 30 32  1  0
 30 33  1  0
 29 34  2  0
 24  4  1  0
 34 25  1  0
 17  7  1  0
 15 11  1  0
  3 35  1  0
  5 36  1  0
  8 37  1  0
  8 38  1  0
  9 39  1  0
  9 40  1  0
 10 41  1  0
 11 42  1  0
 12 43  1  0
 12 44  1  0
 13 45  1  0
 13 46  1  0
 14 47  1  0
 14 48  1  0
 15 49  1  0
 15 50  1  0
 16 51  1  0
 16 52  1  0
 17 53  1  0
 17 54  1  0
 18 55  1  0
 24 56  1  0
 26 57  1  0
 27 58  1  0
 28 59  1  0
 34 60  1  0
M  CHG  1  11   1
M  END
>  <meeko>  (7) 
{"is_sidechain": [false], "free_energy": -8.305, "intermolecular_energy": -11.252, "internal_energy": -1.274}

$$$$
LIB_SICRXINMTYWPHY__M_PUB_ALL__e8__s20260927
     RDKit          3D

 60 63  0  0  0  0  0  0  0  0999 V2000
    1.8190  -13.3990   -1.9120 O   0  0  0  0  0  0  0  0  0  0  0  0
    2.1760  -12.3210   -1.4490 C   0  0  0  0  0  0  0  0  0  0  0  0
    3.3770  -11.6750   -1.6890 N   0  0  0  0  0  0  0  0  0  0  0  0
    4.3900  -12.0650   -2.5930 C   0  0  0  0  0  0  0  0  0  0  0  0
    5.6350  -12.5610   -2.1940 C   0  0  0  0  0  0  0  0  0  0  0  0
    6.6280  -12.9220   -3.1190 C   0  0  0  0  0  0  0  0  0  0  0  0
    7.8850  -13.4000   -2.7220 N   0  0  0  0  0  0  0  0  0  0  0  0
    8.1920  -13.3820   -1.2940 C   0  0  0  0  0  0  0  0  0  0  0  0
    9.3740  -14.2930   -0.9920 C   0  0  0  0  0  0  0  0  0  0  0  0
   10.5750  -14.0020   -1.8980 C   0  0  0  0  0  0  0  0  0  0  0  0
   11.1800  -12.6350   -1.5890 N   0  0  0  0  0  0  0  0  0  0  0  0
   12.5150  -12.3480   -2.2510 C   0  0  0  0  0  0  0  0  0  0  0  0
   13.0910  -11.2460   -1.3930 C   0  0  0  0  0  0  0  0  0  0  0  0
   12.7600  -11.7100    0.0080 C   0  0  0  0  0  0  0  0  0  0  0  0
   11.3820  -12.3410   -0.1040 C   0  0  0  0  0  0  0  0  0  0  0  0
   10.1430  -14.1120   -3.3630 C   0  0  0  0  0  0  0  0  0  0  0  0
    8.9610  -13.2120   -3.6950 C   0  0  0  0  0  0  0  0  0  0  0  0
    6.3240  -12.7880   -4.4800 C   0  0  0  0  0  0  0  0  0  0  0  0
    5.0750  -12.3150   -4.9130 C   0  0  0  0  0  0  0  0  0  0  0  0
    4.7920  -12.1740   -6.3880 C   0  0  0  0  0  0  0  0  0  0  0  0
    4.0720  -13.2220   -6.8720 F   0  0  0  0  0  0  0  0  0  0  0  0
    5.9200  -12.1090   -7.1470 F   0  0  0  0  0  0  0  0  0  0  0  0
    4.0750  -11.0560   -6.6820 F   0  0  0  0  0  0  0  0  0  0  0  0
    4.1160  -11.9480   -3.9570 C   0  0  0  0  0  0  0  0  0  0  0  0
    1.2680  -11.6320   -0.4870 C   0  0  0  0  0  0  0  0  0  0  0  0
    0.8690  -10.3020   -0.6710 C   0  0  0  0  0  0  0  0  0  0  0  0
    0.0080   -9.7000    0.2480 C   0  0  0  0  0  0  0  0  0  0  0  0
   -0.4600  -10.4220    1.3470 C   0  0  0  0  0  0  0  0  0  0  0  0
   -0.0800  -11.7580    1.5410 C   0  0  0  0  0  0  0  0  0  0  0  0
   -0.6120  -12.5560    2.7070 C   0  0  0  0  0  0  0  0  0  0  0  0
   -1.0700  -11.7590    3.7100 F   0  0  0  0  0  0  0  0  0  0  0  0
    0.3200  -13.3750    3.2690 F   0  0  0  0  0  0  0  0  0  0  0  0
   -1.6550  -13.3610    2.3610 F   0  0  0  0  0  0  0  0  0  0  0  0
    0.7810  -12.3590    0.6070 C   0  0  0  0  0  0  0  0  0  0  0  0
    3.5810  -10.8590   -1.1240 H   0  0  0  0  0  0  0  0  0  0  0  0
    5.8435  -12.6721   -1.1197 H   0  0  0  0  0  0  0  0  0  0  0  0
    8.4398  -12.3544   -0.9898 H   0  0  0  0  0  0  0  0  0  0  0  0
    7.3143  -13.7409   -0.7365 H   0  0  0  0  0  0  0  0  0  0  0  0
    9.6763  -14.1457    0.0553 H   0  0  0  0  0  0  0  0  0  0  0  0
    9.0564  -15.3302   -1.1748 H   0  0  0  0  0  0  0  0  0  0  0  0
   11.3617  -14.7466   -1.7065 H   0  0  0  0  0  0  0  0  0  0  0  0
   10.5330  -11.9130   -1.9380 H   0  0  0  0  0  0  0  0  0  0  0  0
   13.1618  -13.2377   -2.2383 H   0  0  0  0  0  0  0  0  0  0  0  0
   12.4216  -12.0679   -3.3106 H   0  0  0  0  0  0  0  0  0  0  0  0
   14.1782  -11.1590   -1.5358 H   0  0  0  0  0  0  0  0  0  0  0  0
   12.6873  -10.2508   -1.6306 H   0  0  0  0  0  0  0  0  0  0  0  0
   13.4970  -12.4492    0.3551 H   0  0  0  0  0  0  0  0  0  0  0  0
   12.7790  -10.8831    0.7332 H   0  0  0  0  0  0  0  0  0  0  0  0
   11.3380  -13.2718    0.4805 H   0  0  0  0  0  0  0  0  0  0  0  0
   10.5984  -11.6758    0.2879 H   0  0  0  0  0  0  0  0  0  0  0  0
   10.9919  -13.8287   -4.0026 H   0  0  0  0  0  0  0  0  0  0  0  0
    9.8299  -15.1515   -3.5404 H   0  0  0  0  0  0  0  0  0  0  0  0
    9.2884  -12.1621   -3.6744 H   0  0  0  0  0  0  0  0  0  0  0  0
    8.5855  -13.4724   -4.6956 H   0  0  0  0  0  0  0  0  0  0  0  0
    7.0830  -13.0602   -5.2282 H   0  0  0  0  0  0  0  0  0  0  0  0
    3.1387  -11.5644   -4.2853 H   0  0  0  0  0  0  0  0  0  0  0  0
    1.2337   -9.7327   -1.5387 H   0  0  0  0  0  0  0  0  0  0  0  0
   -0.3024   -8.6543    0.1058 H   0  0  0  0  0  0  0  0  0  0  0  0
   -1.1342   -9.9379    2.0688 H   0  0  0  0  0  0  0  0  0  0  0  0
    1.0755  -13.4109    0.7362 H   0  0  0  0  0  0  0  0  0  0  0  0
  1  2  2  0
  2  3  1  0
  3  4  1  0
  4  5  2  0
  5  6  1  0
  6  7  1  0
  7  8  1  0
  8  9  1  0
  9 10  1  0
 10 11  1  0
 11 12  1  0
 12 13  1  0
 13 14  1  0
 14 15  1  0
 10 16  1  0
 16 17  1  0
  6 18  2  0
 18 19  1  0
 19 20  1  0
 20 21  1  0
 20 22  1  0
 20 23  1  0
 19 24  2  0
  2 25  1  0
 25 26  2  0
 26 27  1  0
 27 28  2  0
 28 29  1  0
 29 30  1  0
 30 31  1  0
 30 32  1  0
 30 33  1  0
 29 34  2  0
 24  4  1  0
 34 25  1  0
 17  7  1  0
 15 11  1  0
  3 35  1  0
  5 36  1  0
  8 37  1  0
  8 38  1  0
  9 39  1  0
  9 40  1  0
 10 41  1  0
 11 42  1  0
 12 43  1  0
 12 44  1  0
 13 45  1  0
 13 46  1  0
 14 47  1  0
 14 48  1  0
 15 49  1  0
 15 50  1  0
 16 51  1  0
 16 52  1  0
 17 53  1  0
 17 54  1  0
 18 55  1  0
 24 56  1  0
 26 57  1  0
 27 58  1  0
 28 59  1  0
 34 60  1  0
M  CHG  1  11   1
M  END
>  <meeko>  (8) 
{"is_sidechain": [false], "free_energy": -8.238, "intermolecular_energy": -11.23, "internal_energy": -1.204}

$$$$
LIB_SICRXINMTYWPHY__M_PUB_ALL__e8__s20260927
     RDKit          3D

 60 63  0  0  0  0  0  0  0  0999 V2000
    0.7210  -14.0710   -0.5240 O   0  0  0  0  0  0  0  0  0  0  0  0
    0.7680  -12.9650    0.0030 C   0  0  0  0  0  0  0  0  0  0  0  0
    1.7690  -12.0200   -0.1470 N   0  0  0  0  0  0  0  0  0  0  0  0
    2.8820  -12.0860   -1.0140 C   0  0  0  0  0  0  0  0  0  0  0  0
    4.1490  -12.5230   -0.6160 C   0  0  0  0  0  0  0  0  0  0  0  0
    5.2410  -12.5570   -1.5000 C   0  0  0  0  0  0  0  0  0  0  0  0
    6.5180  -12.9750   -1.0980 N   0  0  0  0  0  0  0  0  0  0  0  0
    7.4770  -11.9410   -0.7210 C   0  0  0  0  0  0  0  0  0  0  0  0
    8.6290  -12.5460    0.0690 C   0  0  0  0  0  0  0  0  0  0  0  0
    9.2500  -13.7510   -0.6440 C   0  0  0  0  0  0  0  0  0  0  0  0
    9.9710  -13.3250   -1.9200 N   0  0  0  0  0  0  0  0  0  0  0  0
   10.5260  -14.4570   -2.7650 C   0  0  0  0  0  0  0  0  0  0  0  0
   11.5820  -13.7720   -3.6010 C   0  0  0  0  0  0  0  0  0  0  0  0
   12.2570  -12.8600   -2.6010 C   0  0  0  0  0  0  0  0  0  0  0  0
   11.1330  -12.3560   -1.7100 C   0  0  0  0  0  0  0  0  0  0  0  0
    8.1600  -14.7880   -0.9290 C   0  0  0  0  0  0  0  0  0  0  0  0
    6.9930  -14.2110   -1.7180 C   0  0  0  0  0  0  0  0  0  0  0  0
    5.0150  -12.1540   -2.8220 C   0  0  0  0  0  0  0  0  0  0  0  0
    3.7490  -11.7330   -3.2590 C   0  0  0  0  0  0  0  0  0  0  0  0
    3.5510  -11.2950   -4.6890 C   0  0  0  0  0  0  0  0  0  0  0  0
    2.4130  -11.8090   -5.2270 F   0  0  0  0  0  0  0  0  0  0  0  0
    4.5650  -11.6780   -5.5120 F   0  0  0  0  0  0  0  0  0  0  0  0
    3.4520   -9.9440   -4.8170 F   0  0  0  0  0  0  0  0  0  0  0  0
    2.6880  -11.6960   -2.3410 C   0  0  0  0  0  0  0  0  0  0  0  0
   -0.3230  -12.5870    0.9470 C   0  0  0  0  0  0  0  0  0  0  0  0
   -1.1600  -13.5450    1.5300 C   0  0  0  0  0  0  0  0  0  0  0  0
   -2.1630  -13.1480    2.4160 C   0  0  0  0  0  0  0  0  0  0  0  0
   -2.3280  -11.7970    2.7280 C   0  0  0  0  0  0  0  0  0  0  0  0
   -1.4910  -10.8240    2.1620 C   0  0  0  0  0  0  0  0  0  0  0  0
   -1.6400   -9.3660    2.5230 C   0  0  0  0  0  0  0  0  0  0  0  0
   -1.9050   -9.1880    3.8460 F   0  0  0  0  0  0  0  0  0  0  0  0
   -2.6460   -8.7450    1.8480 F   0  0  0  0  0  0  0  0  0  0  0  0
   -0.5150   -8.6430    2.2640 F   0  0  0  0  0  0  0  0  0  0  0  0
   -0.4810  -11.2330    1.2760 C   0  0  0  0  0  0  0  0  0  0  0  0
    1.7330  -11.2120    0.4630 H   0  0  0  0  0  0  0  0  0  0  0  0
    4.2960  -12.8511    0.4236 H   0  0  0  0  0  0  0  0  0  0  0  0
    7.8722  -11.4647   -1.6304 H   0  0  0  0  0  0  0  0  0  0  0  0
    6.9678  -11.1949   -0.0933 H   0  0  0  0  0  0  0  0  0  0  0  0
    9.4046  -11.7785    0.2083 H   0  0  0  0  0  0  0  0  0  0  0  0
    8.2311  -12.8930    1.0340 H   0  0  0  0  0  0  0  0  0  0  0  0
   10.0076  -14.2075    0.0099 H   0  0  0  0  0  0  0  0  0  0  0  0
    9.2940  -12.8330   -2.5210 H   0  0  0  0  0  0  0  0  0  0  0  0
   10.9691  -15.2411   -2.1334 H   0  0  0  0  0  0  0  0  0  0  0  0
    9.7582  -14.9644   -3.3676 H   0  0  0  0  0  0  0  0  0  0  0  0
   12.2934  -14.5008   -4.0166 H   0  0  0  0  0  0  0  0  0  0  0  0
   11.1720  -13.2386   -4.4712 H   0  0  0  0  0  0  0  0  0  0  0  0
   12.9996  -13.4160   -2.0099 H   0  0  0  0  0  0  0  0  0  0  0  0
   12.7979  -12.0368   -3.0907 H   0  0  0  0  0  0  0  0  0  0  0  0
   11.4487  -12.3587   -0.6563 H   0  0  0  0  0  0  0  0  0  0  0  0
   10.8497  -11.3229   -1.9600 H   0  0  0  0  0  0  0  0  0  0  0  0
    8.6017  -15.6133   -1.5067 H   0  0  0  0  0  0  0  0  0  0  0  0
    7.7684  -15.1335    0.0391 H   0  0  0  0  0  0  0  0  0  0  0  0
    7.3211  -13.9976   -2.7460 H   0  0  0  0  0  0  0  0  0  0  0  0
    6.1723  -14.9433   -1.7267 H   0  0  0  0  0  0  0  0  0  0  0  0
    5.8512  -12.1677   -3.5366 H   0  0  0  0  0  0  0  0  0  0  0  0
    1.6946  -11.3567   -2.6696 H   0  0  0  0  0  0  0  0  0  0  0  0
   -1.0276  -14.6104    1.2902 H   0  0  0  0  0  0  0  0  0  0  0  0
   -2.8246  -13.9009    2.8692 H   0  0  0  0  0  0  0  0  0  0  0  0
   -3.1227  -11.4925    3.4250 H   0  0  0  0  0  0  0  0  0  0  0  0
    0.1931  -10.4836    0.8356 H   0  0  0  0  0  0  0  0  0  0  0  0
  1  2  2  0
  2  3  1  0
  3  4  1  0
  4  5  2  0
  5  6  1  0
  6  7  1  0
  7  8  1  0
  8  9  1  0
  9 10  1  0
 10 11  1  0
 11 12  1  0
 12 13  1  0
 13 14  1  0
 14 15  1  0
 10 16  1  0
 16 17  1  0
  6 18  2  0
 18 19  1  0
 19 20  1  0
 20 21  1  0
 20 22  1  0
 20 23  1  0
 19 24  2  0
  2 25  1  0
 25 26  2  0
 26 27  1  0
 27 28  2  0
 28 29  1  0
 29 30  1  0
 30 31  1  0
 30 32  1  0
 30 33  1  0
 29 34  2  0
 24  4  1  0
 34 25  1  0
 17  7  1  0
 15 11  1  0
  3 35  1  0
  5 36  1  0
  8 37  1  0
  8 38  1  0
  9 39  1  0
  9 40  1  0
 10 41  1  0
 11 42  1  0
 12 43  1  0
 12 44  1  0
 13 45  1  0
 13 46  1  0
 14 47  1  0
 14 48  1  0
 15 49  1  0
 15 50  1  0
 16 51  1  0
 16 52  1  0
 17 53  1  0
 17 54  1  0
 18 55  1  0
 24 56  1  0
 26 57  1  0
 27 58  1  0
 28 59  1  0
 34 60  1  0
M  CHG  1  11   1
M  END
>  <meeko>  (9) 
{"is_sidechain": [false], "free_energy": -8.161, "intermolecular_energy": -11.007, "internal_energy": -1.324}

$$$$
