LIB_KOMBODFBKQOZRA__M_PUB_ALL__e8__s20260927
     RDKit          3D

 60 64  0  0  0  0  0  0  0  0999 V2000
    5.8990  -12.1870   -7.0230 O   0  0  0  0  0  0  0  0  0  0  0  0
    6.2010  -13.3540   -6.8120 C   0  0  0  0  0  0  0  0  0  0  0  0
    6.7380  -14.2200   -7.7530 N   0  0  0  0  0  0  0  0  0  0  0  0
    7.1320  -13.9270   -9.0760 C   0  0  0  0  0  0  0  0  0  0  0  0
    6.2910  -14.0170  -10.1840 C   0  0  0  0  0  0  0  0  0  0  0  0
    6.7620  -13.6770  -11.4540 C   0  0  0  0  0  0  0  0  0  0  0  0
    8.0790  -13.2510  -11.6300 C   0  0  0  0  0  0  0  0  0  0  0  0
    8.9520  -13.1670  -10.5370 C   0  0  0  0  0  0  0  0  0  0  0  0
   10.3590  -12.7100  -10.6670 C   0  0  0  0  0  0  0  0  0  0  0  0
   11.3780  -13.5830  -10.5180 C   0  0  0  0  0  0  0  0  0  0  0  0
   12.6670  -13.1050  -10.6190 N   0  0  0  0  0  0  0  0  0  0  0  0
   13.8850  -13.7200  -10.5220 C   0  0  0  0  0  0  0  0  0  0  0  0
   14.8090  -12.7140  -10.7120 C   0  0  0  0  0  0  0  0  0  0  0  0
   14.1930  -11.5040  -10.9200 N   0  0  0  0  0  0  0  0  0  0  0  0
   12.9060  -11.7800  -10.8550 C   0  0  0  0  0  0  0  0  0  0  0  0
   11.7810  -10.8720  -10.9950 C   0  0  0  0  0  0  0  0  0  0  0  0
   11.9790   -9.5330  -11.2130 N   0  0  0  0  0  0  0  0  0  0  0  0
   10.9210   -8.5750  -11.3950 C   0  0  0  0  0  0  0  0  0  0  0  0
   11.4780   -7.2770  -11.9160 C   0  0  0  0  0  0  0  0  0  0  0  0
   11.4780   -6.1270  -11.1170 C   0  0  0  0  0  0  0  0  0  0  0  0
   12.0020   -4.9270  -11.6060 C   0  0  0  0  0  0  0  0  0  0  0  0
   12.5310   -4.8420  -12.9030 C   0  0  0  0  0  0  0  0  0  0  0  0
   13.1110   -3.5410  -13.4260 C   0  0  0  0  0  0  0  0  0  0  0  0
   14.2990   -3.2520  -13.0720 O   0  0  0  0  0  0  0  0  0  0  0  0
   12.3700   -2.8390  -14.1840 O   0  0  0  0  0  0  0  0  0  0  0  0
   12.5070   -5.9930  -13.7040 C   0  0  0  0  0  0  0  0  0  0  0  0
   11.9840   -7.1960  -13.2200 C   0  0  0  0  0  0  0  0  0  0  0  0
   10.5600  -11.3530  -10.9010 N   0  0  0  0  0  0  0  0  0  0  0  0
    8.4540  -13.5000   -9.2630 C   0  0  0  0  0  0  0  0  0  0  0  0
    6.0550  -14.0030   -5.5920 N   0  0  0  0  0  0  0  0  0  0  0  0
    5.4770  -13.5000   -4.4080 C   0  0  0  0  0  0  0  0  0  0  0  0
    6.3050  -13.4200   -3.2810 C   0  0  0  0  0  0  0  0  0  0  0  0
    5.8150  -12.9350   -2.0670 C   0  0  0  0  0  0  0  0  0  0  0  0
    4.4880  -12.5260   -1.9650 C   0  0  0  0  0  0  0  0  0  0  0  0
    3.6370  -12.6060   -3.0760 C   0  0  0  0  0  0  0  0  0  0  0  0
    2.2000  -12.1560   -2.9880 C   0  0  0  0  0  0  0  0  0  0  0  0
    2.0640  -10.7990   -2.9430 F   0  0  0  0  0  0  0  0  0  0  0  0
    1.4580  -12.5650   -4.0530 F   0  0  0  0  0  0  0  0  0  0  0  0
    1.5610  -12.6230   -1.8800 F   0  0  0  0  0  0  0  0  0  0  0  0
    4.1460  -13.0930   -4.2950 C   0  0  0  0  0  0  0  0  0  0  0  0
    6.8250  -15.1870   -7.4810 H   0  0  0  0  0  0  0  0  0  0  0  0
    5.2526  -14.3571  -10.0576 H   0  0  0  0  0  0  0  0  0  0  0  0
    6.0898  -13.7455  -12.3220 H   0  0  0  0  0  0  0  0  0  0  0  0
    8.4348  -12.9789  -12.6347 H   0  0  0  0  0  0  0  0  0  0  0  0
   11.1847  -14.6478  -10.3212 H   0  0  0  0  0  0  0  0  0  0  0  0
   14.0841  -14.7853  -10.3335 H   0  0  0  0  0  0  0  0  0  0  0  0
   15.8990  -12.8616  -10.6987 H   0  0  0  0  0  0  0  0  0  0  0  0
   12.9370   -9.1990  -11.2740 H   0  0  0  0  0  0  0  0  0  0  0  0
   10.1912   -8.9724  -12.1157 H   0  0  0  0  0  0  0  0  0  0  0  0
   10.4320   -8.3925  -10.4267 H   0  0  0  0  0  0  0  0  0  0  0  0
   11.0634   -6.1682  -10.0990 H   0  0  0  0  0  0  0  0  0  0  0  0
   11.9997   -4.0342  -10.9634 H   0  0  0  0  0  0  0  0  0  0  0  0
   12.9056   -5.9487  -14.7283 H   0  0  0  0  0  0  0  0  0  0  0  0
   11.9697   -8.0851  -13.8676 H   0  0  0  0  0  0  0  0  0  0  0  0
    9.1201  -13.4231   -8.3910 H   0  0  0  0  0  0  0  0  0  0  0  0
    6.4530  -14.9270   -5.5280 H   0  0  0  0  0  0  0  0  0  0  0  0
    7.3540  -13.7432   -3.3534 H   0  0  0  0  0  0  0  0  0  0  0  0
    6.4775  -12.8760   -1.1908 H   0  0  0  0  0  0  0  0  0  0  0  0
    4.1060  -12.1386   -1.0090 H   0  0  0  0  0  0  0  0  0  0  0  0
    3.4849  -13.1538   -5.1721 H   0  0  0  0  0  0  0  0  0  0  0  0
  1  2  2  0
  2  3  1  0
  3  4  1  0
  4  5  2  0
  5  6  1  0
  6  7  2  0
  7  8  1  0
  8  9  1  0
  9 10  2  0
 10 11  1  0
 11 12  1  0
 12 13  2  0
 13 14  1  0
 14 15  2  0
 15 16  1  0
 16 17  1  0
 17 18  1  0
 18 19  1  0
 19 20  2  0
 20 21  1  0
 21 22  2  0
 22 23  1  0
 23 24  2  0
 23 25  1  0
 22 26  1  0
 26 27  2  0
 16 28  2  0
  8 29  2  0
  2 30  1  0
 30 31  1  0
 31 32  2  0
 32 33  1  0
 33 34  2  0
 34 35  1  0
 35 36  1  0
 36 37  1  0
 36 38  1  0
 36 39  1  0
 35 40  2  0
 29  4  1  0
 40 31  1  0
 28  9  1  0
 15 11  1  0
 27 19  1  0
  3 41  1  0
  5 42  1  0
  6 43  1  0
  7 44  1  0
 10 45  1  0
 12 46  1  0
 13 47  1  0
 17 48  1  0
 18 49  1  0
 18 50  1  0
 20 51  1  0
 21 52  1  0
 26 53  1  0
 27 54  1  0
 29 55  1  0
 30 56  1  0
 32 57  1  0
 33 58  1  0
 34 59  1  0
 40 60  1  0
M  CHG  1  25  -1
M  END
>  <meeko>  (1) 
{"is_sidechain": [false], "free_energy": -9.895, "intermolecular_energy": -13.944, "internal_energy": -0.979}

$$$$
LIB_KOMBODFBKQOZRA__M_PUB_ALL__e8__s20260927
     RDKit          3D

 60 64  0  0  0  0  0  0  0  0999 V2000
    5.6610  -14.4810   -6.1670 O   0  0  0  0  0  0  0  0  0  0  0  0
    5.7020  -13.4160   -6.7690 C   0  0  0  0  0  0  0  0  0  0  0  0
    6.5390  -13.1400   -7.8410 N   0  0  0  0  0  0  0  0  0  0  0  0
    7.4150  -14.0230   -8.5070 C   0  0  0  0  0  0  0  0  0  0  0  0
    7.0670  -14.7810   -9.6230 C   0  0  0  0  0  0  0  0  0  0  0  0
    8.0120  -15.6080  -10.2350 C   0  0  0  0  0  0  0  0  0  0  0  0
    9.3120  -15.6890   -9.7340 C   0  0  0  0  0  0  0  0  0  0  0  0
    9.6860  -14.9500   -8.6030 C   0  0  0  0  0  0  0  0  0  0  0  0
   11.0570  -14.9920   -8.0360 C   0  0  0  0  0  0  0  0  0  0  0  0
   12.1080  -15.3310   -8.8130 C   0  0  0  0  0  0  0  0  0  0  0  0
   13.3580  -15.3830   -8.2340 N   0  0  0  0  0  0  0  0  0  0  0  0
   14.5930  -15.6840   -8.7400 C   0  0  0  0  0  0  0  0  0  0  0  0
   15.4560  -15.5670   -7.6700 C   0  0  0  0  0  0  0  0  0  0  0  0
   14.7840  -15.2070   -6.5270 N   0  0  0  0  0  0  0  0  0  0  0  0
   13.5270  -15.1080   -6.9060 C   0  0  0  0  0  0  0  0  0  0  0  0
   12.3670  -14.7620   -6.1030 C   0  0  0  0  0  0  0  0  0  0  0  0
   12.4920  -14.4980   -4.7620 N   0  0  0  0  0  0  0  0  0  0  0  0
   11.4010  -14.1160   -3.9060 C   0  0  0  0  0  0  0  0  0  0  0  0
   11.8770  -13.1460   -2.8570 C   0  0  0  0  0  0  0  0  0  0  0  0
   13.0200  -12.3660   -3.0720 C   0  0  0  0  0  0  0  0  0  0  0  0
   13.4530  -11.4640   -2.0950 C   0  0  0  0  0  0  0  0  0  0  0  0
   12.7640  -11.3240   -0.8810 C   0  0  0  0  0  0  0  0  0  0  0  0
   13.2290  -10.3340    0.1720 C   0  0  0  0  0  0  0  0  0  0  0  0
   12.3290   -9.6760    0.7850 O   0  0  0  0  0  0  0  0  0  0  0  0
   14.4820  -10.2410    0.3650 O   0  0  0  0  0  0  0  0  0  0  0  0
   11.6320  -12.1250   -0.6660 C   0  0  0  0  0  0  0  0  0  0  0  0
   11.1950  -13.0290   -1.6390 C   0  0  0  0  0  0  0  0  0  0  0  0
   11.1860  -14.7120   -6.6790 N   0  0  0  0  0  0  0  0  0  0  0  0
    8.7230  -14.1120   -8.0100 C   0  0  0  0  0  0  0  0  0  0  0  0
    4.9170  -12.3080   -6.4760 N   0  0  0  0  0  0  0  0  0  0  0  0
    3.9990  -12.1520   -5.4170 C   0  0  0  0  0  0  0  0  0  0  0  0
    3.7900  -10.8510   -4.9430 C   0  0  0  0  0  0  0  0  0  0  0  0
    2.8980  -10.6050   -3.8980 C   0  0  0  0  0  0  0  0  0  0  0  0
    2.2070  -11.6620   -3.3090 C   0  0  0  0  0  0  0  0  0  0  0  0
    2.4080  -12.9740   -3.7590 C   0  0  0  0  0  0  0  0  0  0  0  0
    1.6590  -14.1290   -3.1420 C   0  0  0  0  0  0  0  0  0  0  0  0
    1.0540  -13.8080   -1.9620 F   0  0  0  0  0  0  0  0  0  0  0  0
    0.6670  -14.5980   -3.9480 F   0  0  0  0  0  0  0  0  0  0  0  0
    2.4570  -15.1970   -2.8640 F   0  0  0  0  0  0  0  0  0  0  0  0
    3.3060  -13.2060   -4.8180 C   0  0  0  0  0  0  0  0  0  0  0  0
    6.5600  -12.1850   -8.1650 H   0  0  0  0  0  0  0  0  0  0  0  0
    6.0440  -14.7280  -10.0238 H   0  0  0  0  0  0  0  0  0  0  0  0
    7.7294  -16.1997  -11.1182 H   0  0  0  0  0  0  0  0  0  0  0  0
   10.0488  -16.3377  -10.2303 H   0  0  0  0  0  0  0  0  0  0  0  0
   11.9704  -15.5597   -9.8801 H   0  0  0  0  0  0  0  0  0  0  0  0
   14.8434  -15.9594   -9.7751 H   0  0  0  0  0  0  0  0  0  0  0  0
   16.5410  -15.7395   -7.7249 H   0  0  0  0  0  0  0  0  0  0  0  0
   13.4200  -14.5520   -4.3530 H   0  0  0  0  0  0  0  0  0  0  0  0
   10.6145  -13.6404   -4.5103 H   0  0  0  0  0  0  0  0  0  0  0  0
   11.0030  -15.0136   -3.4102 H   0  0  0  0  0  0  0  0  0  0  0  0
   13.5799  -12.4633   -4.0138 H   0  0  0  0  0  0  0  0  0  0  0  0
   14.3491  -10.8539   -2.2816 H   0  0  0  0  0  0  0  0  0  0  0  0
   11.0804  -12.0404    0.2819 H   0  0  0  0  0  0  0  0  0  0  0  0
   10.3095  -13.6527   -1.4467 H   0  0  0  0  0  0  0  0  0  0  0  0
    9.0042  -13.5107   -7.1329 H   0  0  0  0  0  0  0  0  0  0  0  0
    4.9700  -11.5390   -7.1270 H   0  0  0  0  0  0  0  0  0  0  0  0
    4.3357  -10.0123   -5.4000 H   0  0  0  0  0  0  0  0  0  0  0  0
    2.7406   -9.5770   -3.5395 H   0  0  0  0  0  0  0  0  0  0  0  0
    1.5014  -11.4660   -2.4882 H   0  0  0  0  0  0  0  0  0  0  0  0
    3.4642  -14.2329   -5.1791 H   0  0  0  0  0  0  0  0  0  0  0  0
  1  2  2  0
  2  3  1  0
  3  4  1  0
  4  5  2  0
  5  6  1  0
  6  7  2  0
  7  8  1  0
  8  9  1  0
  9 10  2  0
 10 11  1  0
 11 12  1  0
 12 13  2  0
 13 14  1  0
 14 15  2  0
 15 16  1  0
 16 17  1  0
 17 18  1  0
 18 19  1  0
 19 20  2  0
 20 21  1  0
 21 22  2  0
 22 23  1  0
 23 24  2  0
 23 25  1  0
 22 26  1  0
 26 27  2  0
 16 28  2  0
  8 29  2  0
  2 30  1  0
 30 31  1  0
 31 32  2  0
 32 33  1  0
 33 34  2  0
 34 35  1  0
 35 36  1  0
 36 37  1  0
 36 38  1  0
 36 39  1  0
 35 40  2  0
 29  4  1  0
 40 31  1  0
 28  9  1  0
 15 11  1  0
 27 19  1  0
  3 41  1  0
  5 42  1  0
  6 43  1  0
  7 44  1  0
 10 45  1  0
 12 46  1  0
 13 47  1  0
 17 48  1  0
 18 49  1  0
 18 50  1  0
 20 51  1  0
 21 52  1  0
 26 53  1  0
 27 54  1  0
 29 55  1  0
 30 56  1  0
 32 57  1  0
 33 58  1  0
 34 59  1  0
 40 60  1  0
M  CHG  1  25  -1
M  END
>  <meeko>  (2) 
{"is_sidechain": [false], "free_energy": -9.822, "intermolecular_energy": -14.02, "internal_energy": -0.801}

$$$$
LIB_KOMBODFBKQOZRA__M_PUB_ALL__e8__s20260927
     RDKit          3D

 60 64  0  0  0  0  0  0  0  0999 V2000
   -0.7160  -15.7820    2.7210 O   0  0  0  0  0  0  0  0  0  0  0  0
   -1.4420  -16.4680    2.0130 C   0  0  0  0  0  0  0  0  0  0  0  0
   -1.1170  -16.9190    0.7410 N   0  0  0  0  0  0  0  0  0  0  0  0
    0.1090  -16.7790    0.0590 C   0  0  0  0  0  0  0  0  0  0  0  0
    1.0210  -17.8140   -0.1390 C   0  0  0  0  0  0  0  0  0  0  0  0
    2.1990  -17.5880   -0.8550 C   0  0  0  0  0  0  0  0  0  0  0  0
    2.4790  -16.3240   -1.3760 C   0  0  0  0  0  0  0  0  0  0  0  0
    1.5880  -15.2600   -1.1780 C   0  0  0  0  0  0  0  0  0  0  0  0
    1.8330  -13.8990   -1.7190 C   0  0  0  0  0  0  0  0  0  0  0  0
    2.3580  -13.7380   -2.9520 C   0  0  0  0  0  0  0  0  0  0  0  0
    2.5930  -12.4550   -3.3990 N   0  0  0  0  0  0  0  0  0  0  0  0
    3.1020  -11.9700   -4.5720 C   0  0  0  0  0  0  0  0  0  0  0  0
    3.0950  -10.5990   -4.4260 C   0  0  0  0  0  0  0  0  0  0  0  0
    2.5990  -10.2320   -3.1980 N   0  0  0  0  0  0  0  0  0  0  0  0
    2.3110  -11.3760   -2.6100 C   0  0  0  0  0  0  0  0  0  0  0  0
    1.7600  -11.5940   -1.2840 C   0  0  0  0  0  0  0  0  0  0  0  0
    1.4800  -10.5380   -0.4540 N   0  0  0  0  0  0  0  0  0  0  0  0
    0.9040  -10.6670    0.8580 C   0  0  0  0  0  0  0  0  0  0  0  0
   -0.5420  -11.0730    0.7530 C   0  0  0  0  0  0  0  0  0  0  0  0
   -0.9750  -12.3100    1.2470 C   0  0  0  0  0  0  0  0  0  0  0  0
   -2.3210  -12.6760    1.1510 C   0  0  0  0  0  0  0  0  0  0  0  0
   -3.2640  -11.8250    0.5540 C   0  0  0  0  0  0  0  0  0  0  0  0
   -4.7260  -12.2200    0.4630 C   0  0  0  0  0  0  0  0  0  0  0  0
   -5.0920  -13.2410    1.1270 O   0  0  0  0  0  0  0  0  0  0  0  0
   -5.4770  -11.4970   -0.2660 O   0  0  0  0  0  0  0  0  0  0  0  0
   -2.8170  -10.5970    0.0430 C   0  0  0  0  0  0  0  0  0  0  0  0
   -1.4720  -10.2250    0.1360 C   0  0  0  0  0  0  0  0  0  0  0  0
    1.5380  -12.8270   -0.8820 N   0  0  0  0  0  0  0  0  0  0  0  0
    0.4000  -15.5120   -0.4670 C   0  0  0  0  0  0  0  0  0  0  0  0
   -2.7130  -16.9050    2.3670 N   0  0  0  0  0  0  0  0  0  0  0  0
   -3.4390  -16.5990    3.5360 C   0  0  0  0  0  0  0  0  0  0  0  0
   -3.0550  -17.2560    4.7120 C   0  0  0  0  0  0  0  0  0  0  0  0
   -3.7190  -17.0130    5.9160 C   0  0  0  0  0  0  0  0  0  0  0  0
   -4.7800  -16.1110    5.9570 C   0  0  0  0  0  0  0  0  0  0  0  0
   -5.1880  -15.4490    4.7900 C   0  0  0  0  0  0  0  0  0  0  0  0
   -6.3260  -14.4590    4.8180 C   0  0  0  0  0  0  0  0  0  0  0  0
   -6.6400  -14.0360    6.0760 F   0  0  0  0  0  0  0  0  0  0  0  0
   -6.0540  -13.3290    4.1080 F   0  0  0  0  0  0  0  0  0  0  0  0
   -7.4830  -14.9600    4.3020 F   0  0  0  0  0  0  0  0  0  0  0  0
   -4.5060  -15.7000    3.5850 C   0  0  0  0  0  0  0  0  0  0  0  0
   -1.8530  -17.3700    0.2190 H   0  0  0  0  0  0  0  0  0  0  0  0
    0.8123  -18.8134    0.2704 H   0  0  0  0  0  0  0  0  0  0  0  0
    2.9110  -18.4122   -1.0092 H   0  0  0  0  0  0  0  0  0  0  0  0
    3.4055  -16.1614   -1.9462 H   0  0  0  0  0  0  0  0  0  0  0  0
    2.5922  -14.6076   -3.5837 H   0  0  0  0  0  0  0  0  0  0  0  0
    3.4431  -12.5484   -5.4433 H   0  0  0  0  0  0  0  0  0  0  0  0
    3.4415   -9.8907   -5.1930 H   0  0  0  0  0  0  0  0  0  0  0  0
    1.6710   -9.6010   -0.7980 H   0  0  0  0  0  0  0  0  0  0  0  0
    1.4561  -11.4320    1.4237 H   0  0  0  0  0  0  0  0  0  0  0  0
    0.9683   -9.6983    1.3752 H   0  0  0  0  0  0  0  0  0  0  0  0
   -0.2528  -12.9967    1.7126 H   0  0  0  0  0  0  0  0  0  0  0  0
   -2.6466  -13.6479    1.5503 H   0  0  0  0  0  0  0  0  0  0  0  0
   -3.5352   -9.9167   -0.4380 H   0  0  0  0  0  0  0  0  0  0  0  0
   -1.1419   -9.2607   -0.2777 H   0  0  0  0  0  0  0  0  0  0  0  0
   -0.3197  -14.6932   -0.3199 H   0  0  0  0  0  0  0  0  0  0  0  0
   -3.1500  -17.5600    1.7370 H   0  0  0  0  0  0  0  0  0  0  0  0
   -2.2203  -17.9720    4.6867 H   0  0  0  0  0  0  0  0  0  0  0  0
   -3.4043  -17.5338    6.8324 H   0  0  0  0  0  0  0  0  0  0  0  0
   -5.2991  -15.9176    6.9073 H   0  0  0  0  0  0  0  0  0  0  0  0
   -4.8184  -15.1798    2.6675 H   0  0  0  0  0  0  0  0  0  0  0  0
  1  2  2  0
  2  3  1  0
  3  4  1  0
  4  5  2  0
  5  6  1  0
  6  7  2  0
  7  8  1  0
  8  9  1  0
  9 10  2  0
 10 11  1  0
 11 12  1  0
 12 13  2  0
 13 14  1  0
 14 15  2  0
 15 16  1  0
 16 17  1  0
 17 18  1  0
 18 19  1  0
 19 20  2  0
 20 21  1  0
 21 22  2  0
 22 23  1  0
 23 24  2  0
 23 25  1  0
 22 26  1  0
 26 27  2  0
 16 28  2  0
  8 29  2  0
  2 30  1  0
 30 31  1  0
 31 32  2  0
 32 33  1  0
 33 34  2  0
 34 35  1  0
 35 36  1  0
 36 37  1  0
 36 38  1  0
 36 39  1  0
 35 40  2  0
 29  4  1  0
 40 31  1  0
 28  9  1  0
 15 11  1  0
 27 19  1  0
  3 41  1  0
  5 42  1  0
  6 43  1  0
  7 44  1  0
 10 45  1  0
 12 46  1  0
 13 47  1  0
 17 48  1  0
 18 49  1  0
 18 50  1  0
 20 51  1  0
 21 52  1  0
 26 53  1  0
 27 54  1  0
 29 55  1  0
 30 56  1  0
 32 57  1  0
 33 58  1  0
 34 59  1  0
 40 60  1  0
M  CHG  1  25  -1
M  END
>  <meeko>  (3) 
{"is_sidechain": [false], "free_energy": -9.787, "intermolecular_energy": -12.946, "internal_energy": -1.826}

$$$$
LIB_KOMBODFBKQOZRA__M_PUB_ALL__e8__s20260927
     RDKit          3D

 60 64  0  0  0  0  0  0  0  0999 V2000
    3.4640  -14.5830   -1.1610 O   0  0  0  0  0  0  0  0  0  0  0  0
    2.4740  -14.9200   -1.7960 C   0  0  0  0  0  0  0  0  0  0  0  0
    1.6990  -16.0400   -1.5270 N   0  0  0  0  0  0  0  0  0  0  0  0
    1.8190  -16.9380   -0.4460 C   0  0  0  0  0  0  0  0  0  0  0  0
    2.6740  -18.0380   -0.4290 C   0  0  0  0  0  0  0  0  0  0  0  0
    2.7470  -18.8570    0.7000 C   0  0  0  0  0  0  0  0  0  0  0  0
    1.9620  -18.5860    1.8220 C   0  0  0  0  0  0  0  0  0  0  0  0
    1.0820  -17.4960    1.8280 C   0  0  0  0  0  0  0  0  0  0  0  0
    0.2330  -17.1580    2.9990 C   0  0  0  0  0  0  0  0  0  0  0  0
    0.5290  -17.6460    4.2220 C   0  0  0  0  0  0  0  0  0  0  0  0
   -0.3060  -17.3270    5.2720 N   0  0  0  0  0  0  0  0  0  0  0  0
   -0.2780  -17.6550    6.6000 C   0  0  0  0  0  0  0  0  0  0  0  0
   -1.3840  -17.0380    7.1440 C   0  0  0  0  0  0  0  0  0  0  0  0
   -2.0880  -16.3450    6.1880 N   0  0  0  0  0  0  0  0  0  0  0  0
   -1.4090  -16.5450    5.0770 C   0  0  0  0  0  0  0  0  0  0  0  0
   -1.6990  -16.0520    3.7410 C   0  0  0  0  0  0  0  0  0  0  0  0
   -2.8070  -15.2800    3.5010 N   0  0  0  0  0  0  0  0  0  0  0  0
   -3.1470  -14.7260    2.2170 C   0  0  0  0  0  0  0  0  0  0  0  0
   -2.3450  -13.4790    1.9600 C   0  0  0  0  0  0  0  0  0  0  0  0
   -1.5140  -13.3820    0.8360 C   0  0  0  0  0  0  0  0  0  0  0  0
   -0.7760  -12.2170    0.6020 C   0  0  0  0  0  0  0  0  0  0  0  0
   -0.8420  -11.1270    1.4830 C   0  0  0  0  0  0  0  0  0  0  0  0
   -0.0500   -9.8600    1.2190 C   0  0  0  0  0  0  0  0  0  0  0  0
   -0.4920   -8.7840    1.7340 O   0  0  0  0  0  0  0  0  0  0  0  0
    0.9980   -9.9700    0.5070 O   0  0  0  0  0  0  0  0  0  0  0  0
   -1.6600  -11.2420    2.6180 C   0  0  0  0  0  0  0  0  0  0  0  0
   -2.4000  -12.4040    2.8570 C   0  0  0  0  0  0  0  0  0  0  0  0
   -0.8850  -16.3640    2.7570 N   0  0  0  0  0  0  0  0  0  0  0  0
    1.0330  -16.6750    0.6860 C   0  0  0  0  0  0  0  0  0  0  0  0
    1.9640  -14.2360   -2.8920 N   0  0  0  0  0  0  0  0  0  0  0  0
    2.5010  -13.1000   -3.5310 C   0  0  0  0  0  0  0  0  0  0  0  0
    2.2260  -11.8550   -2.9500 C   0  0  0  0  0  0  0  0  0  0  0  0
    2.7190  -10.6780   -3.5150 C   0  0  0  0  0  0  0  0  0  0  0  0
    3.4910  -10.7310   -4.6730 C   0  0  0  0  0  0  0  0  0  0  0  0
    3.7710  -11.9640   -5.2780 C   0  0  0  0  0  0  0  0  0  0  0  0
    4.6160  -12.0420   -6.5250 C   0  0  0  0  0  0  0  0  0  0  0  0
    4.5080  -10.9370   -7.3180 F   0  0  0  0  0  0  0  0  0  0  0  0
    5.9440  -12.1670   -6.2500 F   0  0  0  0  0  0  0  0  0  0  0  0
    4.2950  -13.0970   -7.3240 F   0  0  0  0  0  0  0  0  0  0  0  0
    3.2720  -13.1440   -4.6940 C   0  0  0  0  0  0  0  0  0  0  0  0
    0.9860  -16.2700   -2.2010 H   0  0  0  0  0  0  0  0  0  0  0  0
    3.2946  -18.2625   -1.3091 H   0  0  0  0  0  0  0  0  0  0  0  0
    3.4275  -19.7212    0.7051 H   0  0  0  0  0  0  0  0  0  0  0  0
    2.0350  -19.2334    2.7083 H   0  0  0  0  0  0  0  0  0  0  0  0
    1.4133  -18.2816    4.3771 H   0  0  0  0  0  0  0  0  0  0  0  0
    0.4657  -18.2762    7.1205 H   0  0  0  0  0  0  0  0  0  0  0  0
   -1.6667  -17.0930    8.2056 H   0  0  0  0  0  0  0  0  0  0  0  0
   -3.4150  -15.0650    4.2860 H   0  0  0  0  0  0  0  0  0  0  0  0
   -2.9293  -15.4660    1.4328 H   0  0  0  0  0  0  0  0  0  0  0  0
   -4.2174  -14.4726    2.2076 H   0  0  0  0  0  0  0  0  0  0  0  0
   -1.4416  -14.2260    0.1343 H   0  0  0  0  0  0  0  0  0  0  0  0
   -0.1328  -12.1543   -0.2881 H   0  0  0  0  0  0  0  0  0  0  0  0
   -1.7197  -10.4056    3.3299 H   0  0  0  0  0  0  0  0  0  0  0  0
   -3.0300  -12.4748    3.7559 H   0  0  0  0  0  0  0  0  0  0  0  0
    0.3608  -15.8043    0.6808 H   0  0  0  0  0  0  0  0  0  0  0  0
    1.0760  -14.5600   -3.2460 H   0  0  0  0  0  0  0  0  0  0  0  0
    1.6140  -11.8047   -2.0373 H   0  0  0  0  0  0  0  0  0  0  0  0
    2.4978   -9.7081   -3.0456 H   0  0  0  0  0  0  0  0  0  0  0  0
    3.8822   -9.8024   -5.1142 H   0  0  0  0  0  0  0  0  0  0  0  0
    3.4930  -14.1151   -5.1611 H   0  0  0  0  0  0  0  0  0  0  0  0
  1  2  2  0
  2  3  1  0
  3  4  1  0
  4  5  2  0
  5  6  1  0
  6  7  2  0
  7  8  1  0
  8  9  1  0
  9 10  2  0
 10 11  1  0
 11 12  1  0
 12 13  2  0
 13 14  1  0
 14 15  2  0
 15 16  1  0
 16 17  1  0
 17 18  1  0
 18 19  1  0
 19 20  2  0
 20 21  1  0
 21 22  2  0
 22 23  1  0
 23 24  2  0
 23 25  1  0
 22 26  1  0
 26 27  2  0
 16 28  2  0
  8 29  2  0
  2 30  1  0
 30 31  1  0
 31 32  2  0
 32 33  1  0
 33 34  2  0
 34 35  1  0
 35 36  1  0
 36 37  1  0
 36 38  1  0
 36 39  1  0
 35 40  2  0
 29  4  1  0
 40 31  1  0
 28  9  1  0
 15 11  1  0
 27 19  1  0
  3 41  1  0
  5 42  1  0
  6 43  1  0
  7 44  1  0
 10 45  1  0
 12 46  1  0
 13 47  1  0
 17 48  1  0
 18 49  1  0
 18 50  1  0
 20 51  1  0
 21 52  1  0
 26 53  1  0
 27 54  1  0
 29 55  1  0
 30 56  1  0
 32 57  1  0
 33 58  1  0
 34 59  1  0
 40 60  1  0
M  CHG  1  25  -1
M  END
>  <meeko>  (4) 
{"is_sidechain": [false], "free_energy": -9.63, "intermolecular_energy": -12.871, "internal_energy": -1.679}

$$$$
LIB_KOMBODFBKQOZRA__M_PUB_ALL__e8__s20260927
     RDKit          3D

 60 64  0  0  0  0  0  0  0  0999 V2000
   12.2630  -13.8200   -7.3470 O   0  0  0  0  0  0  0  0  0  0  0  0
   13.4540  -14.1060   -7.3390 C   0  0  0  0  0  0  0  0  0  0  0  0
   14.2900  -14.0650   -8.4450 N   0  0  0  0  0  0  0  0  0  0  0  0
   13.9870  -13.6050   -9.7440 C   0  0  0  0  0  0  0  0  0  0  0  0
   14.7170  -13.9340  -10.8840 C   0  0  0  0  0  0  0  0  0  0  0  0
   14.3240  -13.4550  -12.1360 C   0  0  0  0  0  0  0  0  0  0  0  0
   13.1990  -12.6370  -12.2590 C   0  0  0  0  0  0  0  0  0  0  0  0
   12.4550  -12.2760  -11.1280 C   0  0  0  0  0  0  0  0  0  0  0  0
   11.2460  -11.4180  -11.2040 C   0  0  0  0  0  0  0  0  0  0  0  0
   10.0150  -11.9610  -11.0940 C   0  0  0  0  0  0  0  0  0  0  0  0
    8.9220  -11.1270  -11.2000 N   0  0  0  0  0  0  0  0  0  0  0  0
    7.5760  -11.3640  -11.1330 C   0  0  0  0  0  0  0  0  0  0  0  0
    6.9870  -10.1300  -11.3150 C   0  0  0  0  0  0  0  0  0  0  0  0
    7.9320   -9.1490  -11.4940 N   0  0  0  0  0  0  0  0  0  0  0  0
    9.0810   -9.7880  -11.4210 C   0  0  0  0  0  0  0  0  0  0  0  0
   10.4240   -9.2470  -11.5470 C   0  0  0  0  0  0  0  0  0  0  0  0
   10.6250   -7.9120  -11.7880 N   0  0  0  0  0  0  0  0  0  0  0  0
   11.9200   -7.2930  -11.8930 C   0  0  0  0  0  0  0  0  0  0  0  0
   11.7730   -5.8380  -12.2500 C   0  0  0  0  0  0  0  0  0  0  0  0
   12.4580   -5.2980  -13.3460 C   0  0  0  0  0  0  0  0  0  0  0  0
   12.3120   -3.9460  -13.6740 C   0  0  0  0  0  0  0  0  0  0  0  0
   11.4890   -3.1010  -12.9150 C   0  0  0  0  0  0  0  0  0  0  0  0
   11.3220   -1.6370  -13.2810 C   0  0  0  0  0  0  0  0  0  0  0  0
   12.2760   -0.8530  -12.9790 O   0  0  0  0  0  0  0  0  0  0  0  0
   10.2430   -1.3070  -13.8680 O   0  0  0  0  0  0  0  0  0  0  0  0
   10.8230   -3.6460  -11.8060 C   0  0  0  0  0  0  0  0  0  0  0  0
   10.9660   -4.9960  -11.4730 C   0  0  0  0  0  0  0  0  0  0  0  0
   11.4510  -10.0610  -11.4360 N   0  0  0  0  0  0  0  0  0  0  0  0
   12.8600  -12.7810   -9.8780 C   0  0  0  0  0  0  0  0  0  0  0  0
   14.1620  -14.5200   -6.2180 N   0  0  0  0  0  0  0  0  0  0  0  0
   13.6650  -14.7660   -4.9210 C   0  0  0  0  0  0  0  0  0  0  0  0
   13.6110  -16.1020   -4.5040 C   0  0  0  0  0  0  0  0  0  0  0  0
   13.1340  -16.4360   -3.2360 C   0  0  0  0  0  0  0  0  0  0  0  0
   12.6990  -15.4360   -2.3690 C   0  0  0  0  0  0  0  0  0  0  0  0
   12.7340  -14.0920   -2.7680 C   0  0  0  0  0  0  0  0  0  0  0  0
   12.2800  -12.9950   -1.8380 C   0  0  0  0  0  0  0  0  0  0  0  0
   11.0430  -12.5090   -2.1440 F   0  0  0  0  0  0  0  0  0  0  0  0
   12.2030  -13.4060   -0.5420 F   0  0  0  0  0  0  0  0  0  0  0  0
   13.1080  -11.9140   -1.8430 F   0  0  0  0  0  0  0  0  0  0  0  0
   13.2240  -13.7700   -4.0480 C   0  0  0  0  0  0  0  0  0  0  0  0
   15.2170  -14.4430   -8.3270 H   0  0  0  0  0  0  0  0  0  0  0  0
   15.6074  -14.5742  -10.7978 H   0  0  0  0  0  0  0  0  0  0  0  0
   14.9045  -13.7239  -13.0308 H   0  0  0  0  0  0  0  0  0  0  0  0
   12.8946  -12.2733  -13.2515 H   0  0  0  0  0  0  0  0  0  0  0  0
    9.8872  -13.0403  -10.9243 H   0  0  0  0  0  0  0  0  0  0  0  0
    7.0731  -12.3286  -10.9696 H   0  0  0  0  0  0  0  0  0  0  0  0
    5.9011   -9.9542  -11.3166 H   0  0  0  0  0  0  0  0  0  0  0  0
    9.8060   -7.3160  -11.8740 H   0  0  0  0  0  0  0  0  0  0  0  0
   12.4434   -7.3797  -10.9294 H   0  0  0  0  0  0  0  0  0  0  0  0
   12.4972   -7.7994  -12.6806 H   0  0  0  0  0  0  0  0  0  0  0  0
   13.1140   -5.9403  -13.9518 H   0  0  0  0  0  0  0  0  0  0  0  0
   12.8517   -3.5387  -14.5417 H   0  0  0  0  0  0  0  0  0  0  0  0
   10.1791   -3.0012  -11.1899 H   0  0  0  0  0  0  0  0  0  0  0  0
   10.4414   -5.4004  -10.5948 H   0  0  0  0  0  0  0  0  0  0  0  0
   12.2767  -12.5223   -8.9820 H   0  0  0  0  0  0  0  0  0  0  0  0
   15.1610  -14.6080   -6.3290 H   0  0  0  0  0  0  0  0  0  0  0  0
   13.9487  -16.8976   -5.1844 H   0  0  0  0  0  0  0  0  0  0  0  0
   13.1014  -17.4894   -2.9208 H   0  0  0  0  0  0  0  0  0  0  0  0
   12.3270  -15.7014   -1.3684 H   0  0  0  0  0  0  0  0  0  0  0  0
   13.2599  -12.7173   -4.3650 H   0  0  0  0  0  0  0  0  0  0  0  0
  1  2  2  0
  2  3  1  0
  3  4  1  0
  4  5  2  0
  5  6  1  0
  6  7  2  0
  7  8  1  0
  8  9  1  0
  9 10  2  0
 10 11  1  0
 11 12  1  0
 12 13  2  0
 13 14  1  0
 14 15  2  0
 15 16  1  0
 16 17  1  0
 17 18  1  0
 18 19  1  0
 19 20  2  0
 20 21  1  0
 21 22  2  0
 22 23  1  0
 23 24  2  0
 23 25  1  0
 22 26  1  0
 26 27  2  0
 16 28  2  0
  8 29  2  0
  2 30  1  0
 30 31  1  0
 31 32  2  0
 32 33  1  0
 33 34  2  0
 34 35  1  0
 35 36  1  0
 36 37  1  0
 36 38  1  0
 36 39  1  0
 35 40  2  0
 29  4  1  0
 40 31  1  0
 28  9  1  0
 15 11  1  0
 27 19  1  0
  3 41  1  0
  5 42  1  0
  6 43  1  0
  7 44  1  0
 10 45  1  0
 12 46  1  0
 13 47  1  0
 17 48  1  0
 18 49  1  0
 18 50  1  0
 20 51  1  0
 21 52  1  0
 26 53  1  0
 27 54  1  0
 29 55  1  0
 30 56  1  0
 32 57  1  0
 33 58  1  0
 34 59  1  0
 40 60  1  0
M  CHG  1  25  -1
M  END
>  <meeko>  (5) 
{"is_sidechain": [false], "free_energy": -9.468, "intermolecular_energy": -13.87, "internal_energy": -0.452}

$$$$
LIB_KOMBODFBKQOZRA__M_PUB_ALL__e8__s20260927
     RDKit          3D

 60 64  0  0  0  0  0  0  0  0999 V2000
    7.2130  -10.6800   -2.4630 O   0  0  0  0  0  0  0  0  0  0  0  0
    6.9930  -11.8840   -2.4650 C   0  0  0  0  0  0  0  0  0  0  0  0
    5.7330  -12.4630   -2.5240 N   0  0  0  0  0  0  0  0  0  0  0  0
    4.4900  -11.8180   -2.6920 C   0  0  0  0  0  0  0  0  0  0  0  0
    4.1110  -11.1290   -3.8420 C   0  0  0  0  0  0  0  0  0  0  0  0
    2.8450  -10.5460   -3.9300 C   0  0  0  0  0  0  0  0  0  0  0  0
    1.9470  -10.6420   -2.8650 C   0  0  0  0  0  0  0  0  0  0  0  0
    2.3060  -11.3140   -1.6900 C   0  0  0  0  0  0  0  0  0  0  0  0
    1.3860  -11.4540   -0.5330 C   0  0  0  0  0  0  0  0  0  0  0  0
    0.6980  -10.3870   -0.0740 C   0  0  0  0  0  0  0  0  0  0  0  0
   -0.1220  -10.5610    1.0200 N   0  0  0  0  0  0  0  0  0  0  0  0
   -0.9340   -9.6990    1.7060 C   0  0  0  0  0  0  0  0  0  0  0  0
   -1.4970  -10.4600    2.7090 C   0  0  0  0  0  0  0  0  0  0  0  0
   -1.0530  -11.7590    2.6570 N   0  0  0  0  0  0  0  0  0  0  0  0
   -0.2270  -11.7790    1.6310 C   0  0  0  0  0  0  0  0  0  0  0  0
    0.5430  -12.8970    1.1140 C   0  0  0  0  0  0  0  0  0  0  0  0
    0.4810  -14.1310    1.7110 N   0  0  0  0  0  0  0  0  0  0  0  0
    1.1840  -15.2950    1.2420 C   0  0  0  0  0  0  0  0  0  0  0  0
    2.6450  -14.9830    1.0620 C   0  0  0  0  0  0  0  0  0  0  0  0
    3.3750  -14.3630    2.0840 C   0  0  0  0  0  0  0  0  0  0  0  0
    4.7340  -14.0810    1.9110 C   0  0  0  0  0  0  0  0  0  0  0  0
    5.3940  -14.4020    0.7140 C   0  0  0  0  0  0  0  0  0  0  0  0
    6.8720  -14.1070    0.5340 C   0  0  0  0  0  0  0  0  0  0  0  0
    7.5980  -15.0460    0.0780 O   0  0  0  0  0  0  0  0  0  0  0  0
    7.2710  -12.9410    0.8480 O   0  0  0  0  0  0  0  0  0  0  0  0
    4.6500  -15.0040   -0.3120 C   0  0  0  0  0  0  0  0  0  0  0  0
    3.2910  -15.2870   -0.1440 C   0  0  0  0  0  0  0  0  0  0  0  0
    1.3130  -12.7090    0.0650 N   0  0  0  0  0  0  0  0  0  0  0  0
    3.5810  -11.9070   -1.6270 C   0  0  0  0  0  0  0  0  0  0  0  0
    7.9710  -12.8690   -2.4060 N   0  0  0  0  0  0  0  0  0  0  0  0
    9.3630  -12.6990   -2.2580 C   0  0  0  0  0  0  0  0  0  0  0  0
   10.1420  -12.7920   -3.4180 C   0  0  0  0  0  0  0  0  0  0  0  0
   11.5280  -12.6370   -3.3640 C   0  0  0  0  0  0  0  0  0  0  0  0
   12.1540  -12.3890   -2.1440 C   0  0  0  0  0  0  0  0  0  0  0  0
   11.3960  -12.3020   -0.9680 C   0  0  0  0  0  0  0  0  0  0  0  0
   12.0550  -12.0220    0.3600 C   0  0  0  0  0  0  0  0  0  0  0  0
   11.6090  -10.8760    0.9500 F   0  0  0  0  0  0  0  0  0  0  0  0
   11.8390  -13.0110    1.2700 F   0  0  0  0  0  0  0  0  0  0  0  0
   13.4060  -11.8820    0.2670 F   0  0  0  0  0  0  0  0  0  0  0  0
    9.9980  -12.4560   -1.0390 C   0  0  0  0  0  0  0  0  0  0  0  0
    5.6870  -13.4620   -2.3940 H   0  0  0  0  0  0  0  0  0  0  0  0
    4.8125  -11.0437   -4.6850 H   0  0  0  0  0  0  0  0  0  0  0  0
    2.5534  -10.0078   -4.8440 H   0  0  0  0  0  0  0  0  0  0  0  0
    0.9495  -10.1861   -2.9497 H   0  0  0  0  0  0  0  0  0  0  0  0
    0.7895   -9.4046   -0.5603 H   0  0  0  0  0  0  0  0  0  0  0  0
   -1.1013   -8.6311    1.5018 H   0  0  0  0  0  0  0  0  0  0  0  0
   -2.2094  -10.0764    3.4542 H   0  0  0  0  0  0  0  0  0  0  0  0
   -0.1210  -14.2350    2.5230 H   0  0  0  0  0  0  0  0  0  0  0  0
    1.0737  -16.1064    1.9764 H   0  0  0  0  0  0  0  0  0  0  0  0
    0.7613  -15.6037    0.2745 H   0  0  0  0  0  0  0  0  0  0  0  0
    2.8768  -14.0964    3.0278 H   0  0  0  0  0  0  0  0  0  0  0  0
    5.2948  -13.5999    2.7259 H   0  0  0  0  0  0  0  0  0  0  0  0
    5.1429  -15.2570   -1.2623 H   0  0  0  0  0  0  0  0  0  0  0  0
    2.7247  -15.7517   -0.9646 H   0  0  0  0  0  0  0  0  0  0  0  0
    3.8724  -12.4547   -0.7187 H   0  0  0  0  0  0  0  0  0  0  0  0
    7.6550  -13.8180   -2.5350 H   0  0  0  0  0  0  0  0  0  0  0  0
    9.6552  -12.9898   -4.3844 H   0  0  0  0  0  0  0  0  0  0  0  0
   12.1261  -12.7106   -4.2843 H   0  0  0  0  0  0  0  0  0  0  0  0
   13.2458  -12.2612   -2.1036 H   0  0  0  0  0  0  0  0  0  0  0  0
    9.3975  -12.3837   -0.1202 H   0  0  0  0  0  0  0  0  0  0  0  0
  1  2  2  0
  2  3  1  0
  3  4  1  0
  4  5  2  0
  5  6  1  0
  6  7  2  0
  7  8  1  0
  8  9  1  0
  9 10  2  0
 10 11  1  0
 11 12  1  0
 12 13  2  0
 13 14  1  0
 14 15  2  0
 15 16  1  0
 16 17  1  0
 17 18  1  0
 18 19  1  0
 19 20  2  0
 20 21  1  0
 21 22  2  0
 22 23  1  0
 23 24  2  0
 23 25  1  0
 22 26  1  0
 26 27  2  0
 16 28  2  0
  8 29  2  0
  2 30  1  0
 30 31  1  0
 31 32  2  0
 32 33  1  0
 33 34  2  0
 34 35  1  0
 35 36  1  0
 36 37  1  0
 36 38  1  0
 36 39  1  0
 35 40  2  0
 29  4  1  0
 40 31  1  0
 28  9  1  0
 15 11  1  0
 27 19  1  0
  3 41  1  0
  5 42  1  0
  6 43  1  0
  7 44  1  0
 10 45  1  0
 12 46  1  0
 13 47  1  0
 17 48  1  0
 18 49  1  0
 18 50  1  0
 20 51  1  0
 21 52  1  0
 26 53  1  0
 27 54  1  0
 29 55  1  0
 30 56  1  0
 32 57  1  0
 33 58  1  0
 34 59  1  0
 40 60  1  0
M  CHG  1  25  -1
M  END
>  <meeko>  (6) 
{"is_sidechain": [false], "free_energy": -9.402, "intermolecular_energy": -12.621, "internal_energy": -1.608}

$$$$
LIB_KOMBODFBKQOZRA__M_PUB_ALL__e8__s20260927
     RDKit          3D

 60 64  0  0  0  0  0  0  0  0999 V2000
    8.3700  -11.6600    0.3130 O   0  0  0  0  0  0  0  0  0  0  0  0
    8.6770  -12.8430    0.2430 C   0  0  0  0  0  0  0  0  0  0  0  0
    7.8340  -13.9030    0.5460 N   0  0  0  0  0  0  0  0  0  0  0  0
    6.4660  -13.8530    0.8870 C   0  0  0  0  0  0  0  0  0  0  0  0
    5.9850  -13.6340    2.1760 C   0  0  0  0  0  0  0  0  0  0  0  0
    4.6100  -13.5720    2.4140 C   0  0  0  0  0  0  0  0  0  0  0  0
    3.7020  -13.7330    1.3650 C   0  0  0  0  0  0  0  0  0  0  0  0
    4.1570  -13.9710    0.0620 C   0  0  0  0  0  0  0  0  0  0  0  0
    3.2350  -14.1390   -1.0910 C   0  0  0  0  0  0  0  0  0  0  0  0
    3.6290  -13.7990   -2.3360 C   0  0  0  0  0  0  0  0  0  0  0  0
    2.7280  -13.9460   -3.3690 N   0  0  0  0  0  0  0  0  0  0  0  0
    2.8210  -13.6990   -4.7110 C   0  0  0  0  0  0  0  0  0  0  0  0
    1.5870  -14.0420   -5.2240 C   0  0  0  0  0  0  0  0  0  0  0  0
    0.7440  -14.4890   -4.2350 N   0  0  0  0  0  0  0  0  0  0  0  0
    1.4660  -14.4140   -3.1350 C   0  0  0  0  0  0  0  0  0  0  0  0
    1.0780  -14.7550   -1.7780 C   0  0  0  0  0  0  0  0  0  0  0  0
   -0.1860  -15.2100   -1.4990 N   0  0  0  0  0  0  0  0  0  0  0  0
   -0.6380  -15.5990   -0.1900 C   0  0  0  0  0  0  0  0  0  0  0  0
   -0.9200  -14.3800    0.6470 C   0  0  0  0  0  0  0  0  0  0  0  0
   -0.2340  -14.1640    1.8490 C   0  0  0  0  0  0  0  0  0  0  0  0
   -0.4980  -13.0260    2.6180 C   0  0  0  0  0  0  0  0  0  0  0  0
   -1.4550  -12.0830    2.2120 C   0  0  0  0  0  0  0  0  0  0  0  0
   -1.7300  -10.8430    3.0430 C   0  0  0  0  0  0  0  0  0  0  0  0
   -1.2830  -10.8320    4.2330 O   0  0  0  0  0  0  0  0  0  0  0  0
   -2.3810   -9.9050    2.4830 O   0  0  0  0  0  0  0  0  0  0  0  0
   -2.1530  -12.3190    1.0180 C   0  0  0  0  0  0  0  0  0  0  0  0
   -1.8930  -13.4560    0.2460 C   0  0  0  0  0  0  0  0  0  0  0  0
    1.9570  -14.6120   -0.8100 N   0  0  0  0  0  0  0  0  0  0  0  0
    5.5460  -14.0150   -0.1600 C   0  0  0  0  0  0  0  0  0  0  0  0
    9.9220  -13.3170   -0.1510 N   0  0  0  0  0  0  0  0  0  0  0  0
   11.0750  -12.5680   -0.4640 C   0  0  0  0  0  0  0  0  0  0  0  0
   11.4760  -11.6010    0.4670 C   0  0  0  0  0  0  0  0  0  0  0  0
   12.6060  -10.8140    0.2380 C   0  0  0  0  0  0  0  0  0  0  0  0
   13.3480  -10.9830   -0.9290 C   0  0  0  0  0  0  0  0  0  0  0  0
   12.9590  -11.9370   -1.8800 C   0  0  0  0  0  0  0  0  0  0  0  0
   13.7570  -12.1430   -3.1440 C   0  0  0  0  0  0  0  0  0  0  0  0
   14.0300  -13.4540   -3.4000 F   0  0  0  0  0  0  0  0  0  0  0  0
   13.1130  -11.6790   -4.2500 F   0  0  0  0  0  0  0  0  0  0  0  0
   14.9660  -11.5170   -3.1200 F   0  0  0  0  0  0  0  0  0  0  0  0
   11.8200  -12.7270   -1.6330 C   0  0  0  0  0  0  0  0  0  0  0  0
    8.2500  -14.8210    0.5650 H   0  0  0  0  0  0  0  0  0  0  0  0
    6.6912  -13.5093    3.0101 H   0  0  0  0  0  0  0  0  0  0  0  0
    4.2397  -13.3952    3.4346 H   0  0  0  0  0  0  0  0  0  0  0  0
    2.6218  -13.6724    1.5637 H   0  0  0  0  0  0  0  0  0  0  0  0
    4.6427  -13.4145   -2.5218 H   0  0  0  0  0  0  0  0  0  0  0  0
    3.6907  -13.3112   -5.2617 H   0  0  0  0  0  0  0  0  0  0  0  0
    1.3134  -13.9674   -6.2868 H   0  0  0  0  0  0  0  0  0  0  0  0
   -0.8380  -15.3010   -2.2730 H   0  0  0  0  0  0  0  0  0  0  0  0
   -1.5578  -16.1947   -0.2855 H   0  0  0  0  0  0  0  0  0  0  0  0
    0.1471  -16.1952    0.2980 H   0  0  0  0  0  0  0  0  0  0  0  0
    0.5160  -14.8930    2.1898 H   0  0  0  0  0  0  0  0  0  0  0  0
    0.0535  -12.8674    3.5565 H   0  0  0  0  0  0  0  0  0  0  0  0
   -2.9154  -11.5997    0.6843 H   0  0  0  0  0  0  0  0  0  0  0  0
   -2.4570  -13.6257   -0.6830 H   0  0  0  0  0  0  0  0  0  0  0  0
    5.9202  -14.1807   -1.1810 H   0  0  0  0  0  0  0  0  0  0  0  0
    9.9990  -14.3150   -0.2760 H   0  0  0  0  0  0  0  0  0  0  0  0
   10.8935  -11.4602    1.3894 H   0  0  0  0  0  0  0  0  0  0  0  0
   12.9106  -10.0603    0.9791 H   0  0  0  0  0  0  0  0  0  0  0  0
   14.2416  -10.3662   -1.1048 H   0  0  0  0  0  0  0  0  0  0  0  0
   11.5128  -13.4809   -2.3728 H   0  0  0  0  0  0  0  0  0  0  0  0
  1  2  2  0
  2  3  1  0
  3  4  1  0
  4  5  2  0
  5  6  1  0
  6  7  2  0
  7  8  1  0
  8  9  1  0
  9 10  2  0
 10 11  1  0
 11 12  1  0
 12 13  2  0
 13 14  1  0
 14 15  2  0
 15 16  1  0
 16 17  1  0
 17 18  1  0
 18 19  1  0
 19 20  2  0
 20 21  1  0
 21 22  2  0
 22 23  1  0
 23 24  2  0
 23 25  1  0
 22 26  1  0
 26 27  2  0
 16 28  2  0
  8 29  2  0
  2 30  1  0
 30 31  1  0
 31 32  2  0
 32 33  1  0
 33 34  2  0
 34 35  1  0
 35 36  1  0
 36 37  1  0
 36 38  1  0
 36 39  1  0
 35 40  2  0
 29  4  1  0
 40 31  1  0
 28  9  1  0
 15 11  1  0
 27 19  1  0
  3 41  1  0
  5 42  1  0
  6 43  1  0
  7 44  1  0
 10 45  1  0
 12 46  1  0
 13 47  1  0
 17 48  1  0
 18 49  1  0
 18 50  1  0
 20 51  1  0
 21 52  1  0
 26 53  1  0
 27 54  1  0
 29 55  1  0
 30 56  1  0
 32 57  1  0
 33 58  1  0
 34 59  1  0
 40 60  1  0
M  CHG  1  25  -1
M  END
>  <meeko>  (7) 
{"is_sidechain": [false], "free_energy": -9.371, "intermolecular_energy": -13.134, "internal_energy": -1.051}

$$$$
LIB_KOMBODFBKQOZRA__M_PUB_ALL__e8__s20260927
     RDKit          3D

 60 64  0  0  0  0  0  0  0  0999 V2000
    1.7570  -12.0410   -0.4860 O   0  0  0  0  0  0  0  0  0  0  0  0
    1.3880  -11.0520   -1.1080 C   0  0  0  0  0  0  0  0  0  0  0  0
    1.9750  -10.5800   -2.2730 N   0  0  0  0  0  0  0  0  0  0  0  0
    3.0160  -11.1700   -3.0200 C   0  0  0  0  0  0  0  0  0  0  0  0
    2.9370  -11.4670   -4.3790 C   0  0  0  0  0  0  0  0  0  0  0  0
    4.0320  -12.0250   -5.0440 C   0  0  0  0  0  0  0  0  0  0  0  0
    5.2140  -12.2970   -4.3540 C   0  0  0  0  0  0  0  0  0  0  0  0
    5.3160  -12.0260   -2.9830 C   0  0  0  0  0  0  0  0  0  0  0  0
    6.5540  -12.2870   -2.2040 C   0  0  0  0  0  0  0  0  0  0  0  0
    7.7630  -12.2270   -2.8020 C   0  0  0  0  0  0  0  0  0  0  0  0
    8.8800  -12.5060   -2.0440 N   0  0  0  0  0  0  0  0  0  0  0  0
   10.2140  -12.5280   -2.3470 C   0  0  0  0  0  0  0  0  0  0  0  0
   10.8420  -12.8790   -1.1710 C   0  0  0  0  0  0  0  0  0  0  0  0
    9.9330  -13.0740   -0.1600 N   0  0  0  0  0  0  0  0  0  0  0  0
    8.7650  -12.8430   -0.7250 C   0  0  0  0  0  0  0  0  0  0  0  0
    7.4440  -12.9100   -0.1240 C   0  0  0  0  0  0  0  0  0  0  0  0
    7.2850  -13.2630    1.1920 N   0  0  0  0  0  0  0  0  0  0  0  0
    6.0170  -13.3200    1.8690 C   0  0  0  0  0  0  0  0  0  0  0  0
    5.2210  -14.5020    1.3840 C   0  0  0  0  0  0  0  0  0  0  0  0
    5.8440  -15.7330    1.1410 C   0  0  0  0  0  0  0  0  0  0  0  0
    5.0960  -16.8270    0.6960 C   0  0  0  0  0  0  0  0  0  0  0  0
    3.7140  -16.7190    0.4740 C   0  0  0  0  0  0  0  0  0  0  0  0
    2.9030  -17.9120    0.0030 C   0  0  0  0  0  0  0  0  0  0  0  0
    2.1550  -18.4790    0.8620 O   0  0  0  0  0  0  0  0  0  0  0  0
    3.0280  -18.2530   -1.2160 O   0  0  0  0  0  0  0  0  0  0  0  0
    3.1030  -15.4760    0.6990 C   0  0  0  0  0  0  0  0  0  0  0  0
    3.8460  -14.3790    1.1440 C   0  0  0  0  0  0  0  0  0  0  0  0
    6.3940  -12.6330   -0.8660 N   0  0  0  0  0  0  0  0  0  0  0  0
    4.2080  -11.4500   -2.3350 C   0  0  0  0  0  0  0  0  0  0  0  0
    0.3200  -10.2400   -0.7450 N   0  0  0  0  0  0  0  0  0  0  0  0
   -0.4830  -10.3310    0.4100 C   0  0  0  0  0  0  0  0  0  0  0  0
   -0.4270   -9.2580    1.3080 C   0  0  0  0  0  0  0  0  0  0  0  0
   -1.1900   -9.2640    2.4770 C   0  0  0  0  0  0  0  0  0  0  0  0
   -2.0170  -10.3470    2.7640 C   0  0  0  0  0  0  0  0  0  0  0  0
   -2.0830  -11.4370    1.8850 C   0  0  0  0  0  0  0  0  0  0  0  0
   -2.9830  -12.6130    2.1720 C   0  0  0  0  0  0  0  0  0  0  0  0
   -4.1650  -12.2560    2.7510 F   0  0  0  0  0  0  0  0  0  0  0  0
   -3.3180  -13.3020    1.0460 F   0  0  0  0  0  0  0  0  0  0  0  0
   -2.4220  -13.5210    3.0170 F   0  0  0  0  0  0  0  0  0  0  0  0
   -1.3120  -11.4150    0.7060 C   0  0  0  0  0  0  0  0  0  0  0  0
    1.6520   -9.6880   -2.6140 H   0  0  0  0  0  0  0  0  0  0  0  0
    2.0081  -11.2612   -4.9311 H   0  0  0  0  0  0  0  0  0  0  0  0
    3.9618  -12.2513   -6.1182 H   0  0  0  0  0  0  0  0  0  0  0  0
    6.0724  -12.7275   -4.8905 H   0  0  0  0  0  0  0  0  0  0  0  0
    7.8542  -11.9625   -3.8658 H   0  0  0  0  0  0  0  0  0  0  0  0
   10.6835  -12.3124   -3.3181 H   0  0  0  0  0  0  0  0  0  0  0  0
   11.9306  -12.9887   -1.0571 H   0  0  0  0  0  0  0  0  0  0  0  0
    8.1200  -13.4740    1.7300 H   0  0  0  0  0  0  0  0  0  0  0  0
    6.1871  -13.4161    2.9515 H   0  0  0  0  0  0  0  0  0  0  0  0
    5.4555  -12.3981    1.6573 H   0  0  0  0  0  0  0  0  0  0  0  0
    6.9271  -15.8393    1.3011 H   0  0  0  0  0  0  0  0  0  0  0  0
    5.5988  -17.7888    0.5168 H   0  0  0  0  0  0  0  0  0  0  0  0
    2.0231  -15.3633    0.5225 H   0  0  0  0  0  0  0  0  0  0  0  0
    3.3477  -13.4120    1.3070 H   0  0  0  0  0  0  0  0  0  0  0  0
    4.2781  -11.2129   -1.2631 H   0  0  0  0  0  0  0  0  0  0  0  0
    0.0550   -9.5310   -1.4110 H   0  0  0  0  0  0  0  0  0  0  0  0
    0.2260   -8.4001    1.0897 H   0  0  0  0  0  0  0  0  0  0  0  0
   -1.1379   -8.4128    3.1718 H   0  0  0  0  0  0  0  0  0  0  0  0
   -2.6206  -10.3472    3.6836 H   0  0  0  0  0  0  0  0  0  0  0  0
   -1.3638  -12.2640    0.0085 H   0  0  0  0  0  0  0  0  0  0  0  0
  1  2  2  0
  2  3  1  0
  3  4  1  0
  4  5  2  0
  5  6  1  0
  6  7  2  0
  7  8  1  0
  8  9  1  0
  9 10  2  0
 10 11  1  0
 11 12  1  0
 12 13  2  0
 13 14  1  0
 14 15  2  0
 15 16  1  0
 16 17  1  0
 17 18  1  0
 18 19  1  0
 19 20  2  0
 20 21  1  0
 21 22  2  0
 22 23  1  0
 23 24  2  0
 23 25  1  0
 22 26  1  0
 26 27  2  0
 16 28  2  0
  8 29  2  0
  2 30  1  0
 30 31  1  0
 31 32  2  0
 32 33  1  0
 33 34  2  0
 34 35  1  0
 35 36  1  0
 36 37  1  0
 36 38  1  0
 36 39  1  0
 35 40  2  0
 29  4  1  0
 40 31  1  0
 28  9  1  0
 15 11  1  0
 27 19  1  0
  3 41  1  0
  5 42  1  0
  6 43  1  0
  7 44  1  0
 10 45  1  0
 12 46  1  0
 13 47  1  0
 17 48  1  0
 18 49  1  0
 18 50  1  0
 20 51  1  0
 21 52  1  0
 26 53  1  0
 27 54  1  0
 29 55  1  0
 30 56  1  0
 32 57  1  0
 33 58  1  0
 34 59  1  0
 40 60  1  0
M  CHG  1  25  -1
M  END
>  <meeko>  (8) 
{"is_sidechain": [false], "free_energy": -9.302, "intermolecular_energy": -12.864, "internal_energy": -1.224}

$$$$
LIB_KOMBODFBKQOZRA__M_PUB_ALL__e8__s20260927
     RDKit          3D

 60 64  0  0  0  0  0  0  0  0999 V2000
    7.0820  -10.6450   -1.4870 O   0  0  0  0  0  0  0  0  0  0  0  0
    6.9190  -11.8540   -1.3860 C   0  0  0  0  0  0  0  0  0  0  0  0
    5.7030  -12.5080   -1.5260 N   0  0  0  0  0  0  0  0  0  0  0  0
    4.4600  -11.9550   -1.9000 C   0  0  0  0  0  0  0  0  0  0  0  0
    4.1660  -11.4740   -3.1740 C   0  0  0  0  0  0  0  0  0  0  0  0
    2.8950  -10.9710   -3.4610 C   0  0  0  0  0  0  0  0  0  0  0  0
    1.9070  -10.9390   -2.4750 C   0  0  0  0  0  0  0  0  0  0  0  0
    2.1800  -11.4000   -1.1800 C   0  0  0  0  0  0  0  0  0  0  0  0
    1.1630  -11.3980   -0.0980 C   0  0  0  0  0  0  0  0  0  0  0  0
    0.3090  -10.3610    0.0360 C   0  0  0  0  0  0  0  0  0  0  0  0
   -0.5970  -10.3910    1.0740 N   0  0  0  0  0  0  0  0  0  0  0  0
   -1.5730   -9.5170    1.4670 C   0  0  0  0  0  0  0  0  0  0  0  0
   -2.1480  -10.0980    2.5770 C   0  0  0  0  0  0  0  0  0  0  0  0
   -1.5520  -11.3000    2.8750 N   0  0  0  0  0  0  0  0  0  0  0  0
   -0.6240  -11.4390    1.9500 C   0  0  0  0  0  0  0  0  0  0  0  0
    0.3220  -12.5280    1.7790 C   0  0  0  0  0  0  0  0  0  0  0  0
    0.3400  -13.5890    2.6480 N   0  0  0  0  0  0  0  0  0  0  0  0
    1.2210  -14.7210    2.5290 C   0  0  0  0  0  0  0  0  0  0  0  0
    0.7030  -15.8720    3.3490 C   0  0  0  0  0  0  0  0  0  0  0  0
    1.4980  -16.4580    4.3420 C   0  0  0  0  0  0  0  0  0  0  0  0
    1.0060  -17.5240    5.1020 C   0  0  0  0  0  0  0  0  0  0  0  0
   -0.2830  -18.0350    4.8860 C   0  0  0  0  0  0  0  0  0  0  0  0
   -0.8180  -19.1830    5.7220 C   0  0  0  0  0  0  0  0  0  0  0  0
   -0.1900  -19.4620    6.7920 O   0  0  0  0  0  0  0  0  0  0  0  0
   -1.8570  -19.7770    5.2920 O   0  0  0  0  0  0  0  0  0  0  0  0
   -1.0640  -17.4550    3.8750 C   0  0  0  0  0  0  0  0  0  0  0  0
   -0.5770  -16.3900    3.1110 C   0  0  0  0  0  0  0  0  0  0  0  0
    1.1730  -12.4800    0.7770 N   0  0  0  0  0  0  0  0  0  0  0  0
    3.4620  -11.9170   -0.9160 C   0  0  0  0  0  0  0  0  0  0  0  0
    7.9270  -12.7710   -1.1140 N   0  0  0  0  0  0  0  0  0  0  0  0
    9.2830  -12.5080   -0.8290 C   0  0  0  0  0  0  0  0  0  0  0  0
    9.6060  -12.2080    0.5000 C   0  0  0  0  0  0  0  0  0  0  0  0
   10.9230  -11.9350    0.8720 C   0  0  0  0  0  0  0  0  0  0  0  0
   11.9350  -11.9540   -0.0850 C   0  0  0  0  0  0  0  0  0  0  0  0
   11.6350  -12.2420   -1.4230 C   0  0  0  0  0  0  0  0  0  0  0  0
   12.7200  -12.2810   -2.4710 C   0  0  0  0  0  0  0  0  0  0  0  0
   12.3070  -11.8270   -3.6890 F   0  0  0  0  0  0  0  0  0  0  0  0
   13.7950  -11.5150   -2.1380 F   0  0  0  0  0  0  0  0  0  0  0  0
   13.2030  -13.5340   -2.6930 F   0  0  0  0  0  0  0  0  0  0  0  0
   10.3030  -12.5210   -1.7830 C   0  0  0  0  0  0  0  0  0  0  0  0
    5.6870  -13.4890   -1.2970 H   0  0  0  0  0  0  0  0  0  0  0  0
    4.9382  -11.4904   -3.9573 H   0  0  0  0  0  0  0  0  0  0  0  0
    2.6708  -10.5974   -4.4710 H   0  0  0  0  0  0  0  0  0  0  0  0
    0.9071  -10.5491   -2.7164 H   0  0  0  0  0  0  0  0  0  0  0  0
    0.3357   -9.5139   -0.6653 H   0  0  0  0  0  0  0  0  0  0  0  0
   -1.8410   -8.5584    0.9988 H   0  0  0  0  0  0  0  0  0  0  0  0
   -2.9767   -9.6566    3.1501 H   0  0  0  0  0  0  0  0  0  0  0  0
   -0.3290  -13.5870    3.4120 H   0  0  0  0  0  0  0  0  0  0  0  0
    1.2813  -15.0250    1.4736 H   0  0  0  0  0  0  0  0  0  0  0  0
    2.2188  -14.4392    2.8965 H   0  0  0  0  0  0  0  0  0  0  0  0
    2.5140  -16.0781    4.5250 H   0  0  0  0  0  0  0  0  0  0  0  0
    1.6403  -17.9695    5.8825 H   0  0  0  0  0  0  0  0  0  0  0  0
   -2.0744  -17.8439    3.6805 H   0  0  0  0  0  0  0  0  0  0  0  0
   -1.2031  -15.9558    2.3176 H   0  0  0  0  0  0  0  0  0  0  0  0
    3.6872  -12.3017    0.0896 H   0  0  0  0  0  0  0  0  0  0  0  0
    7.6720  -13.7450   -1.1770 H   0  0  0  0  0  0  0  0  0  0  0  0
    8.8115  -12.1872    1.2605 H   0  0  0  0  0  0  0  0  0  0  0  0
   11.1619  -11.7048    1.9208 H   0  0  0  0  0  0  0  0  0  0  0  0
   12.9731  -11.7422    0.2107 H   0  0  0  0  0  0  0  0  0  0  0  0
   10.0620  -12.7526   -2.8310 H   0  0  0  0  0  0  0  0  0  0  0  0
  1  2  2  0
  2  3  1  0
  3  4  1  0
  4  5  2  0
  5  6  1  0
  6  7  2  0
  7  8  1  0
  8  9  1  0
  9 10  2  0
 10 11  1  0
 11 12  1  0
 12 13  2  0
 13 14  1  0
 14 15  2  0
 15 16  1  0
 16 17  1  0
 17 18  1  0
 18 19  1  0
 19 20  2  0
 20 21  1  0
 21 22  2  0
 22 23  1  0
 23 24  2  0
 23 25  1  0
 22 26  1  0
 26 27  2  0
 16 28  2  0
  8 29  2  0
  2 30  1  0
 30 31  1  0
 31 32  2  0
 32 33  1  0
 33 34  2  0
 34 35  1  0
 35 36  1  0
 36 37  1  0
 36 38  1  0
 36 39  1  0
 35 40  2  0
 29  4  1  0
 40 31  1  0
 28  9  1  0
 15 11  1  0
 27 19  1  0
  3 41  1  0
  5 42  1  0
  6 43  1  0
  7 44  1  0
 10 45  1  0
 12 46  1  0
 13 47  1  0
 17 48  1  0
 18 49  1  0
 18 50  1  0
 20 51  1  0
 21 52  1  0
 26 53  1  0
 27 54  1  0
 29 55  1  0
 30 56  1  0
 32 57  1  0
 33 58  1  0
 34 59  1  0
 40 60  1  0
M  CHG  1  25  -1
M  END
>  <meeko>  (9) 
{"is_sidechain": [false], "free_energy": -9.243, "intermolecular_energy": -12.974, "internal_energy": -1.031}

$$$$
