LIB_WFFUGMCEOIJHMN__M_PUB_ALL__e8__s20260927
     RDKit          3D

 79 84  0  0  0  0  0  0  0  0999 V2000
    4.5400  -13.8360   -1.8040 C   0  0  0  0  0  0  0  0  0  0  0  0
    3.9590  -14.1840   -0.4540 C   0  0  0  0  0  0  0  0  0  0  0  0
    4.6440  -13.8180    0.6450 C   0  0  0  0  0  0  0  0  0  0  0  0
    4.2300  -14.0960    2.0490 C   0  0  0  0  0  0  0  0  0  0  0  0
    2.9760  -14.9570    2.1800 C   0  0  0  0  0  0  0  0  0  0  0  0
    1.9580  -14.6780    1.0520 C   0  0  1  0  0  0  0  0  0  0  0  0
    2.6190  -14.9780   -0.3670 C   0  0  2  0  0  0  0  0  0  0  0  0
    3.0320  -16.4590   -0.5690 C   0  0  0  0  0  0  0  0  0  0  0  0
    1.6030  -14.5400   -1.4730 C   0  0  1  0  0  0  0  0  0  0  0  0
    2.0740  -14.9750   -2.7790 O   0  0  0  0  0  0  0  0  0  0  0  0
    1.6220  -14.2710   -3.8470 C   0  0  0  0  0  0  0  0  0  0  0  0
    0.8730  -14.6960   -4.7140 O   0  0  0  0  0  0  0  0  0  0  0  0
    2.1510  -12.8800   -3.8220 C   0  0  0  0  0  0  0  0  0  0  0  0
    1.8100  -11.9640   -2.8170 C   0  0  0  0  0  0  0  0  0  0  0  0
    2.3310  -10.6680   -2.8440 C   0  0  0  0  0  0  0  0  0  0  0  0
    3.1930  -10.2820   -3.8700 C   0  0  0  0  0  0  0  0  0  0  0  0
    3.5360  -11.1880   -4.8730 C   0  0  0  0  0  0  0  0  0  0  0  0
    3.0170  -12.4850   -4.8500 C   0  0  0  0  0  0  0  0  0  0  0  0
    0.2040  -15.1610   -1.2670 C   0  0  2  0  0  0  0  0  0  0  0  0
   -0.6830  -14.7460   -2.3260 O   0  0  0  0  0  0  0  0  0  0  0  0
   -0.4380  -14.7990    0.1060 C   0  0  2  0  0  0  0  0  0  0  0  0
   -1.8490  -15.4390    0.1030 C   0  0  0  0  0  0  0  0  0  0  0  0
   -0.5440  -13.3540    0.0960 O   0  0  0  0  0  0  0  0  0  0  0  0
   -0.9980  -12.6600    1.2600 C   0  0  2  0  0  0  0  0  0  0  0  0
   -2.5200  -12.6500    1.3970 C   0  0  0  0  0  0  0  0  0  0  0  0
   -2.8620  -11.4000    1.9960 O   0  0  0  0  0  0  0  0  0  0  0  0
   -1.8540  -10.5140    1.7690 C   0  0  0  0  0  0  0  0  0  0  0  0
   -1.8790   -9.3430    2.1100 O   0  0  0  0  0  0  0  0  0  0  0  0
   -0.7390  -11.1740    1.0250 C   0  0  0  0  0  0  0  0  0  0  0  0
   -0.2910  -13.1270    2.5410 C   0  0  0  0  0  0  0  0  0  0  0  0
   -0.1940  -14.6500    2.6000 C   0  0  2  0  0  0  0  0  0  0  0  0
    0.4840  -15.0740    3.8000 O   0  0  0  0  0  0  0  0  0  0  0  0
   -0.2980  -15.2840    4.8910 C   0  0  0  0  0  0  0  0  0  0  0  0
   -0.2280  -14.6730    5.9450 O   0  0  0  0  0  0  0  0  0  0  0  0
   -1.2590  -16.3770    4.6450 C   0  0  0  0  0  0  0  0  0  0  0  0
   -2.6010  -16.1730    4.3130 C   0  0  0  0  0  0  0  0  0  0  0  0
   -3.4310  -17.2740    4.1050 C   0  0  0  0  0  0  0  0  0  0  0  0
   -2.8890  -18.5430    4.2400 C   0  0  0  0  0  0  0  0  0  0  0  0
   -1.5990  -18.7750    4.5660 N   0  0  0  0  0  0  0  0  0  0  0  0
   -0.8130  -17.6880    4.7640 C   0  0  0  0  0  0  0  0  0  0  0  0
    0.4810  -15.2480    1.3030 C   0  0  2  0  0  0  0  0  0  0  0  0
    0.4820  -16.7840    1.4890 C   0  0  0  0  0  0  0  0  0  0  0  0
    5.4763  -13.2752   -1.6667 H   0  0  0  0  0  0  0  0  0  0  0  0
    4.7449  -14.7602   -2.3643 H   0  0  0  0  0  0  0  0  0  0  0  0
    3.8219  -13.2192   -2.3643 H   0  0  0  0  0  0  0  0  0  0  0  0
    5.5855  -13.2694    0.4946 H   0  0  0  0  0  0  0  0  0  0  0  0
    5.0575  -14.6148    2.5550 H   0  0  0  0  0  0  0  0  0  0  0  0
    3.9907  -13.1232    2.5033 H   0  0  0  0  0  0  0  0  0  0  0  0
    3.2679  -16.0168    2.1400 H   0  0  0  0  0  0  0  0  0  0  0  0
    2.4952  -14.7109    3.1382 H   0  0  0  0  0  0  0  0  0  0  0  0
    1.7318  -13.6015    1.0572 H   0  0  0  0  0  0  0  0  0  0  0  0
    3.1659  -16.9393    0.4115 H   0  0  0  0  0  0  0  0  0  0  0  0
    2.2464  -16.9854   -1.1309 H   0  0  0  0  0  0  0  0  0  0  0  0
    3.9766  -16.5029   -1.1309 H   0  0  0  0  0  0  0  0  0  0  0  0
    1.5278  -13.4444   -1.4090 H   0  0  0  0  0  0  0  0  0  0  0  0
    1.1312  -12.2662   -2.0059 H   0  0  0  0  0  0  0  0  0  0  0  0
    2.0609   -9.9510   -2.0548 H   0  0  0  0  0  0  0  0  0  0  0  0
    3.6029   -9.2614   -3.8881 H   0  0  0  0  0  0  0  0  0  0  0  0
    4.2151  -10.8816   -5.6823 H   0  0  0  0  0  0  0  0  0  0  0  0
    3.2893  -13.1984   -5.6418 H   0  0  0  0  0  0  0  0  0  0  0  0
    0.3472  -16.2515   -1.2830 H   0  0  0  0  0  0  0  0  0  0  0  0
   -1.4490  -14.3040   -1.9060 H   0  0  0  0  0  0  0  0  0  0  0  0
   -2.1847  -15.5913    1.1394 H   0  0  0  0  0  0  0  0  0  0  0  0
   -2.5530  -14.7721   -0.4163 H   0  0  0  0  0  0  0  0  0  0  0  0
   -1.8110  -16.4080   -0.4163 H   0  0  0  0  0  0  0  0  0  0  0  0
   -2.9918  -12.7395    0.4073 H   0  0  0  0  0  0  0  0  0  0  0  0
   -2.8712  -13.4946    2.0080 H   0  0  0  0  0  0  0  0  0  0  0  0
   -0.7809  -10.9305   -0.0469 H   0  0  0  0  0  0  0  0  0  0  0  0
    0.2569  -10.8501    1.3617 H   0  0  0  0  0  0  0  0  0  0  0  0
    0.7235  -12.7025    2.5650 H   0  0  0  0  0  0  0  0  0  0  0  0
   -0.8782  -12.7836    3.4055 H   0  0  0  0  0  0  0  0  0  0  0  0
   -1.2186  -15.0489    2.6338 H   0  0  0  0  0  0  0  0  0  0  0  0
   -2.9994  -15.1522    4.2165 H   0  0  0  0  0  0  0  0  0  0  0  0
   -4.4901  -17.1390    3.8402 H   0  0  0  0  0  0  0  0  0  0  0  0
   -3.5462  -19.4090    4.0723 H   0  0  0  0  0  0  0  0  0  0  0  0
    0.2402  -17.8536    5.0349 H   0  0  0  0  0  0  0  0  0  0  0  0
    0.4822  -17.0233    2.5626 H   0  0  0  0  0  0  0  0  0  0  0  0
   -0.4159  -17.2109    1.0183 H   0  0  0  0  0  0  0  0  0  0  0  0
    1.3804  -17.2098    1.0183 H   0  0  0  0  0  0  0  0  0  0  0  0
  1  2  1  0
  2  3  2  0
  3  4  1  0
  4  5  1  0
  5  6  1  0
  6  7  1  0
  7  8  1  1
  7  9  1  0
  9 10  1  0
 10 11  1  0
 11 12  2  0
 11 13  1  0
 13 14  2  0
 14 15  1  0
 15 16  2  0
 16 17  1  0
 17 18  2  0
  9 19  1  0
 19 20  1  0
 19 21  1  0
 21 22  1  1
 21 23  1  0
 24 23  1  6
 24 25  1  0
 25 26  1  0
 26 27  1  0
 27 28  2  0
 27 29  1  0
 24 30  1  0
 30 31  1  0
 31 32  1  0
 32 33  1  0
 33 34  2  0
 33 35  1  0
 35 36  2  0
 36 37  1  0
 37 38  2  0
 38 39  1  0
 39 40  2  0
 31 41  1  0
 41 42  1  1
  7  2  1  0
 18 13  1  0
 41 21  1  0
 41  6  1  0
 29 24  1  0
 40 35  1  0
  1 43  1  0
  1 44  1  0
  1 45  1  0
  3 46  1  0
  4 47  1  0
  4 48  1  0
  5 49  1  0
  5 50  1  0
  6 51  1  6
  8 52  1  0
  8 53  1  0
  8 54  1  0
  9 55  1  6
 14 56  1  0
 15 57  1  0
 16 58  1  0
 17 59  1  0
 18 60  1  0
 19 61  1  1
 20 62  1  0
 22 63  1  0
 22 64  1  0
 22 65  1  0
 25 66  1  0
 25 67  1  0
 29 68  1  0
 29 69  1  0
 30 70  1  0
 30 71  1  0
 31 72  1  1
 36 73  1  0
 37 74  1  0
 38 75  1  0
 40 76  1  0
 42 77  1  0
 42 78  1  0
 42 79  1  0
M  END
>  <meeko>  (1) 
{"is_sidechain": [false], "free_energy": -8.895, "intermolecular_energy": -12.275, "internal_energy": -1.358}

$$$$
LIB_WFFUGMCEOIJHMN__M_PUB_ALL__e8__s20260927
     RDKit          3D

 79 84  0  0  0  0  0  0  0  0999 V2000
    8.1830  -12.0670   -3.3750 C   0  0  0  0  0  0  0  0  0  0  0  0
    6.7120  -11.9900   -3.0410 C   0  0  0  0  0  0  0  0  0  0  0  0
    5.8330  -11.9360   -4.0590 C   0  0  0  0  0  0  0  0  0  0  0  0
    4.3530  -11.8380   -3.9120 C   0  0  0  0  0  0  0  0  0  0  0  0
    3.8690  -11.6850   -2.4720 C   0  0  0  0  0  0  0  0  0  0  0  0
    4.7540  -12.4650   -1.4740 C   0  0  1  0  0  0  0  0  0  0  0  0
    6.2560  -11.9380   -1.5500 C   0  0  2  0  0  0  0  0  0  0  0  0
    6.4250  -10.4520   -1.1440 C   0  0  0  0  0  0  0  0  0  0  0  0
    7.1340  -12.8560   -0.6350 C   0  0  1  0  0  0  0  0  0  0  0  0
    8.4720  -12.2990   -0.5130 O   0  0  0  0  0  0  0  0  0  0  0  0
    9.5000  -13.1820   -0.5860 C   0  0  0  0  0  0  0  0  0  0  0  0
    9.3930  -14.3990   -0.5950 O   0  0  0  0  0  0  0  0  0  0  0  0
   10.8020  -12.4660   -0.6710 C   0  0  0  0  0  0  0  0  0  0  0  0
   11.3210  -11.7190    0.3950 C   0  0  0  0  0  0  0  0  0  0  0  0
   12.5470  -11.0620    0.2600 C   0  0  0  0  0  0  0  0  0  0  0  0
   13.2590  -11.1480   -0.9360 C   0  0  0  0  0  0  0  0  0  0  0  0
   12.7490  -11.8910   -2.0010 C   0  0  0  0  0  0  0  0  0  0  0  0
   11.5240  -12.5490   -1.8700 C   0  0  0  0  0  0  0  0  0  0  0  0
    6.5630  -12.9800    0.7950 C   0  0  2  0  0  0  0  0  0  0  0  0
    7.4220  -13.8120    1.6010 O   0  0  0  0  0  0  0  0  0  0  0  0
    5.1150  -13.5530    0.8360 C   0  0  2  0  0  0  0  0  0  0  0  0
    4.7420  -13.6740    2.3350 C   0  0  0  0  0  0  0  0  0  0  0  0
    5.2190  -14.8680    0.2390 O   0  0  0  0  0  0  0  0  0  0  0  0
    4.0440  -15.6490    0.0120 C   0  0  2  0  0  0  0  0  0  0  0  0
    3.5640  -16.3870    1.2610 C   0  0  0  0  0  0  0  0  0  0  0  0
    3.0070  -17.6220    0.8110 O   0  0  0  0  0  0  0  0  0  0  0  0
    3.5310  -17.9190   -0.4100 C   0  0  0  0  0  0  0  0  0  0  0  0
    3.2910  -18.9430   -1.0290 O   0  0  0  0  0  0  0  0  0  0  0  0
    4.4530  -16.8330   -0.8600 C   0  0  0  0  0  0  0  0  0  0  0  0
    2.9240  -14.8490   -0.6700 C   0  0  0  0  0  0  0  0  0  0  0  0
    2.7630  -13.4670   -0.0390 C   0  0  2  0  0  0  0  0  0  0  0  0
    1.7190  -12.7220   -0.6970 O   0  0  0  0  0  0  0  0  0  0  0  0
    0.4710  -12.8400   -0.1710 C   0  0  0  0  0  0  0  0  0  0  0  0
   -0.2400  -13.8280   -0.2420 O   0  0  0  0  0  0  0  0  0  0  0  0
    0.0660  -11.5900    0.5030 C   0  0  0  0  0  0  0  0  0  0  0  0
    0.4230  -10.3150    0.0580 C   0  0  0  0  0  0  0  0  0  0  0  0
   -0.0060   -9.1950    0.7710 C   0  0  0  0  0  0  0  0  0  0  0  0
   -0.7760   -9.3920    1.9060 C   0  0  0  0  0  0  0  0  0  0  0  0
   -1.1330  -10.6100    2.3670 N   0  0  0  0  0  0  0  0  0  0  0  0
   -0.7020  -11.6830    1.6570 C   0  0  0  0  0  0  0  0  0  0  0  0
    4.1260  -12.6690   -0.0130 C   0  0  2  0  0  0  0  0  0  0  0  0
    3.8190  -11.3170    0.6740 C   0  0  0  0  0  0  0  0  0  0  0  0
    8.7691  -12.0977   -2.4447 H   0  0  0  0  0  0  0  0  0  0  0  0
    8.3786  -12.9766   -3.9618 H   0  0  0  0  0  0  0  0  0  0  0  0
    8.4725  -11.1828   -3.9618 H   0  0  0  0  0  0  0  0  0  0  0  0
    6.2393  -11.9666   -5.0808 H   0  0  0  0  0  0  0  0  0  0  0  0
    4.0078  -10.9649   -4.4852 H   0  0  0  0  0  0  0  0  0  0  0  0
    3.9381  -12.7869   -4.2826 H   0  0  0  0  0  0  0  0  0  0  0  0
    3.8872  -10.6185   -2.2034 H   0  0  0  0  0  0  0  0  0  0  0  0
    2.8500  -12.0949   -2.4124 H   0  0  0  0  0  0  0  0  0  0  0  0
    4.7865  -13.5160   -1.7970 H   0  0  0  0  0  0  0  0  0  0  0  0
    6.4343  -10.3704   -0.0471 H   0  0  0  0  0  0  0  0  0  0  0  0
    7.3727  -10.0669   -1.5484 H   0  0  0  0  0  0  0  0  0  0  0  0
    5.5879   -9.8639   -1.5484 H   0  0  0  0  0  0  0  0  0  0  0  0
    7.1457  -13.8483   -1.1095 H   0  0  0  0  0  0  0  0  0  0  0  0
   10.7622  -11.6496    1.3400 H   0  0  0  0  0  0  0  0  0  0  0  0
   12.9511  -10.4760    1.0986 H   0  0  0  0  0  0  0  0  0  0  0  0
   14.2236  -10.6295   -1.0398 H   0  0  0  0  0  0  0  0  0  0  0  0
   13.3116  -11.9586   -2.9438 H   0  0  0  0  0  0  0  0  0  0  0  0
   11.1241  -13.1347   -2.7109 H   0  0  0  0  0  0  0  0  0  0  0  0
    6.5207  -11.9573    1.1978 H   0  0  0  0  0  0  0  0  0  0  0  0
    7.8300  -13.2360    2.2800 H   0  0  0  0  0  0  0  0  0  0  0  0
    5.6081  -13.3930    2.9522 H   0  0  0  0  0  0  0  0  0  0  0  0
    3.8994  -13.0031    2.5585 H   0  0  0  0  0  0  0  0  0  0  0  0
    4.4537  -14.7117    2.5585 H   0  0  0  0  0  0  0  0  0  0  0  0
    4.4090  -16.5757    1.9395 H   0  0  0  0  0  0  0  0  0  0  0  0
    2.8216  -15.7931    1.8142 H   0  0  0  0  0  0  0  0  0  0  0  0
    5.5033  -17.1086   -0.6844 H   0  0  0  0  0  0  0  0  0  0  0  0
    4.3802  -16.6225   -1.9372 H   0  0  0  0  0  0  0  0  0  0  0  0
    3.1675  -14.7296   -1.7361 H   0  0  0  0  0  0  0  0  0  0  0  0
    1.9797  -15.3991   -0.5447 H   0  0  0  0  0  0  0  0  0  0  0  0
    2.4631  -13.6113    1.0094 H   0  0  0  0  0  0  0  0  0  0  0  0
    1.0370  -10.1949   -0.8467 H   0  0  0  0  0  0  0  0  0  0  0  0
    0.2606   -8.1804    0.4401 H   0  0  0  0  0  0  0  0  0  0  0  0
   -1.1156   -8.5063    2.4629 H   0  0  0  0  0  0  0  0  0  0  0  0
   -0.9769  -12.6857    2.0163 H   0  0  0  0  0  0  0  0  0  0  0  0
    3.8482  -11.4457    1.7661 H   0  0  0  0  0  0  0  0  0  0  0  0
    4.5711  -10.5732    0.3722 H   0  0  0  0  0  0  0  0  0  0  0  0
    2.8194  -10.9710    0.3722 H   0  0  0  0  0  0  0  0  0  0  0  0
  1  2  1  0
  2  3  2  0
  3  4  1  0
  4  5  1  0
  5  6  1  0
  6  7  1  0
  7  8  1  1
  7  9  1  0
  9 10  1  0
 10 11  1  0
 11 12  2  0
 11 13  1  0
 13 14  2  0
 14 15  1  0
 15 16  2  0
 16 17  1  0
 17 18  2  0
  9 19  1  0
 19 20  1  0
 19 21  1  0
 21 22  1  1
 21 23  1  0
 24 23  1  1
 24 25  1  0
 25 26  1  0
 26 27  1  0
 27 28  2  0
 27 29  1  0
 24 30  1  0
 30 31  1  0
 31 32  1  0
 32 33  1  0
 33 34  2  0
 33 35  1  0
 35 36  2  0
 36 37  1  0
 37 38  2  0
 38 39  1  0
 39 40  2  0
 31 41  1  0
 41 42  1  1
  7  2  1  0
 18 13  1  0
 41 21  1  0
 41  6  1  0
 29 24  1  0
 40 35  1  0
  1 43  1  0
  1 44  1  0
  1 45  1  0
  3 46  1  0
  4 47  1  0
  4 48  1  0
  5 49  1  0
  5 50  1  0
  6 51  1  6
  8 52  1  0
  8 53  1  0
  8 54  1  0
  9 55  1  6
 14 56  1  0
 15 57  1  0
 16 58  1  0
 17 59  1  0
 18 60  1  0
 19 61  1  1
 20 62  1  0
 22 63  1  0
 22 64  1  0
 22 65  1  0
 25 66  1  0
 25 67  1  0
 29 68  1  0
 29 69  1  0
 30 70  1  0
 30 71  1  0
 31 72  1  1
 36 73  1  0
 37 74  1  0
 38 75  1  0
 40 76  1  0
 42 77  1  0
 42 78  1  0
 42 79  1  0
M  END
>  <meeko>  (2) 
{"is_sidechain": [false], "free_energy": -8.85, "intermolecular_energy": -11.991, "internal_energy": -1.58}

$$$$
LIB_WFFUGMCEOIJHMN__M_PUB_ALL__e8__s20260927
     RDKit          3D

 79 84  0  0  0  0  0  0  0  0999 V2000
    2.5930  -10.9340   -3.2140 C   0  0  0  0  0  0  0  0  0  0  0  0
    3.4190  -11.6720   -4.2410 C   0  0  0  0  0  0  0  0  0  0  0  0
    3.6900  -11.0490   -5.4030 C   0  0  0  0  0  0  0  0  0  0  0  0
    4.4700  -11.6330   -6.5300 C   0  0  0  0  0  0  0  0  0  0  0  0
    4.8740  -13.0930   -6.3300 C   0  0  0  0  0  0  0  0  0  0  0  0
    5.1820  -13.4140   -4.8500 C   0  0  1  0  0  0  0  0  0  0  0  0
    3.8970  -13.1280   -3.9520 C   0  0  2  0  0  0  0  0  0  0  0  0
    2.6750  -14.0150   -4.2990 C   0  0  0  0  0  0  0  0  0  0  0  0
    4.3060  -13.3250   -2.4540 C   0  0  1  0  0  0  0  0  0  0  0  0
    3.1240  -13.2720   -1.6070 O   0  0  0  0  0  0  0  0  0  0  0  0
    3.2280  -12.5300   -0.4750 C   0  0  0  0  0  0  0  0  0  0  0  0
    4.2730  -12.1560    0.0370 O   0  0  0  0  0  0  0  0  0  0  0  0
    1.8810  -12.2100    0.0700 C   0  0  0  0  0  0  0  0  0  0  0  0
    1.5370  -10.9280    0.5190 C   0  0  0  0  0  0  0  0  0  0  0  0
    0.2590  -10.6810    1.0270 C   0  0  0  0  0  0  0  0  0  0  0  0
   -0.6800  -11.7120    1.0870 C   0  0  0  0  0  0  0  0  0  0  0  0
   -0.3440  -12.9900    0.6420 C   0  0  0  0  0  0  0  0  0  0  0  0
    0.9330  -13.2400    0.1340 C   0  0  0  0  0  0  0  0  0  0  0  0
    4.9810  -14.6920   -2.2020 C   0  0  2  0  0  0  0  0  0  0  0  0
    5.3110  -14.8310   -0.8060 O   0  0  0  0  0  0  0  0  0  0  0  0
    6.2660  -14.9130   -3.0540 C   0  0  2  0  0  0  0  0  0  0  0  0
    6.8390  -16.2860   -2.6200 C   0  0  0  0  0  0  0  0  0  0  0  0
    7.1630  -13.8480   -2.6570 O   0  0  0  0  0  0  0  0  0  0  0  0
    8.4150  -13.6780   -3.3240 C   0  0  2  0  0  0  0  0  0  0  0  0
    9.5020  -14.6210   -2.8100 C   0  0  0  0  0  0  0  0  0  0  0  0
   10.7330  -13.9020   -2.8960 O   0  0  0  0  0  0  0  0  0  0  0  0
   10.4620  -12.5680   -2.9030 C   0  0  0  0  0  0  0  0  0  0  0  0
   11.3130  -11.6940   -2.9120 O   0  0  0  0  0  0  0  0  0  0  0  0
    8.9860  -12.3360   -2.8700 C   0  0  0  0  0  0  0  0  0  0  0  0
    8.2790  -13.7070   -4.8540 C   0  0  0  0  0  0  0  0  0  0  0  0
    7.3670  -14.8440   -5.3100 C   0  0  2  0  0  0  0  0  0  0  0  0
    7.2370  -14.8520   -6.7460 O   0  0  0  0  0  0  0  0  0  0  0  0
    8.3950  -14.8860   -7.4560 C   0  0  0  0  0  0  0  0  0  0  0  0
    9.3700  -15.5710   -7.1930 O   0  0  0  0  0  0  0  0  0  0  0  0
    8.3330  -13.9620   -8.6060 C   0  0  0  0  0  0  0  0  0  0  0  0
    7.1500  -13.3940   -9.0850 C   0  0  0  0  0  0  0  0  0  0  0  0
    7.1970  -12.5360  -10.1830 C   0  0  0  0  0  0  0  0  0  0  0  0
    8.4280  -12.2790  -10.7660 C   0  0  0  0  0  0  0  0  0  0  0  0
    9.5890  -12.8150  -10.3330 N   0  0  0  0  0  0  0  0  0  0  0  0
    9.5160  -13.6470   -9.2640 C   0  0  0  0  0  0  0  0  0  0  0  0
    5.9590  -14.7920   -4.5940 C   0  0  2  0  0  0  0  0  0  0  0  0
    5.1630  -16.0080   -5.1250 C   0  0  0  0  0  0  0  0  0  0  0  0
    2.9183  -11.2247   -2.2042 H   0  0  0  0  0  0  0  0  0  0  0  0
    2.7280   -9.8502   -3.3450 H   0  0  0  0  0  0  0  0  0  0  0  0
    1.5312  -11.1897   -3.3450 H   0  0  0  0  0  0  0  0  0  0  0  0
    3.3046  -10.0267   -5.5307 H   0  0  0  0  0  0  0  0  0  0  0  0
    3.8583  -11.5674   -7.4418 H   0  0  0  0  0  0  0  0  0  0  0  0
    5.4040  -11.0558   -6.5969 H   0  0  0  0  0  0  0  0  0  0  0  0
    4.0503  -13.7385   -6.6688 H   0  0  0  0  0  0  0  0  0  0  0  0
    5.7890  -13.2740   -6.9131 H   0  0  0  0  0  0  0  0  0  0  0  0
    5.9547  -12.7126   -4.5022 H   0  0  0  0  0  0  0  0  0  0  0  0
    2.1978  -14.3614   -3.3704 H   0  0  0  0  0  0  0  0  0  0  0  0
    1.9522  -13.4298   -4.8865 H   0  0  0  0  0  0  0  0  0  0  0  0
    3.0074  -14.8835   -4.8865 H   0  0  0  0  0  0  0  0  0  0  0  0
    5.0164  -12.5191   -2.2177 H   0  0  0  0  0  0  0  0  0  0  0  0
    2.2751  -10.1138    0.4714 H   0  0  0  0  0  0  0  0  0  0  0  0
   -0.0072   -9.6737    1.3798 H   0  0  0  0  0  0  0  0  0  0  0  0
   -1.6863  -11.5161    1.4858 H   0  0  0  0  0  0  0  0  0  0  0  0
   -1.0848  -13.8017    0.6910 H   0  0  0  0  0  0  0  0  0  0  0  0
    1.1954  -14.2489   -0.2170 H   0  0  0  0  0  0  0  0  0  0  0  0
    4.2513  -15.4562   -2.5077 H   0  0  0  0  0  0  0  0  0  0  0  0
    5.2290  -15.7810   -0.5820 H   0  0  0  0  0  0  0  0  0  0  0  0
    6.8627  -16.3428   -1.5217 H   0  0  0  0  0  0  0  0  0  0  0  0
    6.2016  -17.0908   -3.0151 H   0  0  0  0  0  0  0  0  0  0  0  0
    7.8594  -16.3989   -3.0151 H   0  0  0  0  0  0  0  0  0  0  0  0
    9.2984  -14.9034   -1.7665 H   0  0  0  0  0  0  0  0  0  0  0  0
    9.5390  -15.5474   -3.4020 H   0  0  0  0  0  0  0  0  0  0  0  0
    8.6480  -12.0865   -1.8534 H   0  0  0  0  0  0  0  0  0  0  0  0
    8.6661  -11.4938   -3.5012 H   0  0  0  0  0  0  0  0  0  0  0  0
    7.8559  -12.7503   -5.1941 H   0  0  0  0  0  0  0  0  0  0  0  0
    9.2770  -13.8680   -5.2877 H   0  0  0  0  0  0  0  0  0  0  0  0
    7.8383  -15.7916   -5.0101 H   0  0  0  0  0  0  0  0  0  0  0  0
    6.1894  -13.6218   -8.5999 H   0  0  0  0  0  0  0  0  0  0  0  0
    6.2796  -12.0743  -10.5770 H   0  0  0  0  0  0  0  0  0  0  0  0
    8.4608  -11.5997  -11.6306 H   0  0  0  0  0  0  0  0  0  0  0  0
   10.4487  -14.0993   -8.8960 H   0  0  0  0  0  0  0  0  0  0  0  0
    4.7795  -16.5939   -4.2767 H   0  0  0  0  0  0  0  0  0  0  0  0
    4.3204  -15.6554   -5.7379 H   0  0  0  0  0  0  0  0  0  0  0  0
    5.8233  -16.6392   -5.7379 H   0  0  0  0  0  0  0  0  0  0  0  0
  1  2  1  0
  2  3  2  0
  3  4  1  0
  4  5  1  0
  5  6  1  0
  6  7  1  0
  7  8  1  6
  7  9  1  0
  9 10  1  0
 10 11  1  0
 11 12  2  0
 11 13  1  0
 13 14  2  0
 14 15  1  0
 15 16  2  0
 16 17  1  0
 17 18  2  0
  9 19  1  0
 19 20  1  0
 19 21  1  0
 21 22  1  6
 21 23  1  0
 24 23  1  1
 24 25  1  0
 25 26  1  0
 26 27  1  0
 27 28  2  0
 27 29  1  0
 24 30  1  0
 30 31  1  0
 31 32  1  0
 32 33  1  0
 33 34  2  0
 33 35  1  0
 35 36  2  0
 36 37  1  0
 37 38  2  0
 38 39  1  0
 39 40  2  0
 31 41  1  0
 41 42  1  6
  7  2  1  0
 18 13  1  0
 41 21  1  0
 41  6  1  0
 29 24  1  0
 40 35  1  0
  1 43  1  0
  1 44  1  0
  1 45  1  0
  3 46  1  0
  4 47  1  0
  4 48  1  0
  5 49  1  0
  5 50  1  0
  6 51  1  1
  8 52  1  0
  8 53  1  0
  8 54  1  0
  9 55  1  1
 14 56  1  0
 15 57  1  0
 16 58  1  0
 17 59  1  0
 18 60  1  0
 19 61  1  6
 20 62  1  0
 22 63  1  0
 22 64  1  0
 22 65  1  0
 25 66  1  0
 25 67  1  0
 29 68  1  0
 29 69  1  0
 30 70  1  0
 30 71  1  0
 31 72  1  1
 36 73  1  0
 37 74  1  0
 38 75  1  0
 40 76  1  0
 42 77  1  0
 42 78  1  0
 42 79  1  0
M  END
>  <meeko>  (3) 
{"is_sidechain": [false], "free_energy": -8.628, "intermolecular_energy": -11.654, "internal_energy": -1.61}

$$$$
LIB_WFFUGMCEOIJHMN__M_PUB_ALL__e8__s20260927
     RDKit          3D

 79 84  0  0  0  0  0  0  0  0999 V2000
    5.5440  -12.5670   -2.0690 C   0  0  0  0  0  0  0  0  0  0  0  0
    4.9350  -13.0680   -0.7810 C   0  0  0  0  0  0  0  0  0  0  0  0
    5.4350  -12.6050    0.3800 C   0  0  0  0  0  0  0  0  0  0  0  0
    4.9700  -13.0060    1.7370 C   0  0  0  0  0  0  0  0  0  0  0  0
    3.9150  -14.1090    1.7440 C   0  0  0  0  0  0  0  0  0  0  0  0
    2.9600  -14.0090    0.5330 C   0  0  1  0  0  0  0  0  0  0  0  0
    3.7870  -14.1230   -0.8240 C   0  0  2  0  0  0  0  0  0  0  0  0
    4.5120  -15.4800   -1.0090 C   0  0  0  0  0  0  0  0  0  0  0  0
    2.7990  -13.8670   -2.0110 C   0  0  1  0  0  0  0  0  0  0  0  0
    3.4580  -14.1550   -3.2750 O   0  0  0  0  0  0  0  0  0  0  0  0
    3.2400  -13.2730   -4.2830 C   0  0  0  0  0  0  0  0  0  0  0  0
    2.3090  -12.4830   -4.3480 O   0  0  0  0  0  0  0  0  0  0  0  0
    4.3060  -13.3780   -5.3150 C   0  0  0  0  0  0  0  0  0  0  0  0
    4.4830  -12.4120   -6.3150 C   0  0  0  0  0  0  0  0  0  0  0  0
    5.4970  -12.5620   -7.2640 C   0  0  0  0  0  0  0  0  0  0  0  0
    6.3390  -13.6740   -7.2190 C   0  0  0  0  0  0  0  0  0  0  0  0
    6.1690  -14.6380   -6.2260 C   0  0  0  0  0  0  0  0  0  0  0  0
    5.1560  -14.4920   -5.2760 C   0  0  0  0  0  0  0  0  0  0  0  0
    1.5460  -14.7670   -1.9390 C   0  0  2  0  0  0  0  0  0  0  0  0
    0.6850  -14.5100   -3.0670 O   0  0  0  0  0  0  0  0  0  0  0  0
    0.7290  -14.5880   -0.6250 C   0  0  2  0  0  0  0  0  0  0  0  0
   -0.5140  -15.5030   -0.7610 C   0  0  0  0  0  0  0  0  0  0  0  0
    0.3280  -13.1960   -0.6240 O   0  0  0  0  0  0  0  0  0  0  0  0
   -0.3560  -12.6460    0.5040 C   0  0  2  0  0  0  0  0  0  0  0  0
   -1.8530  -12.9530    0.5050 C   0  0  0  0  0  0  0  0  0  0  0  0
   -2.4960  -11.8190    1.0880 O   0  0  0  0  0  0  0  0  0  0  0  0
   -1.6770  -10.7390    0.9640 C   0  0  0  0  0  0  0  0  0  0  0  0
   -1.9720   -9.6090    1.3170 O   0  0  0  0  0  0  0  0  0  0  0  0
   -0.3910  -11.1320    0.3130 C   0  0  0  0  0  0  0  0  0  0  0  0
    0.3220  -12.9990    1.8360 C   0  0  0  0  0  0  0  0  0  0  0  0
    0.7260  -14.4710    1.8840 C   0  0  2  0  0  0  0  0  0  0  0  0
    1.3730  -14.7850    3.1330 O   0  0  0  0  0  0  0  0  0  0  0  0
    0.5650  -14.8840    4.2220 C   0  0  0  0  0  0  0  0  0  0  0  0
    0.6580  -14.2180    5.2400 O   0  0  0  0  0  0  0  0  0  0  0  0
   -0.4580  -15.9300    4.0220 C   0  0  0  0  0  0  0  0  0  0  0  0
   -1.8210  -15.6650    3.8660 C   0  0  0  0  0  0  0  0  0  0  0  0
   -2.7090  -16.7250    3.6880 C   0  0  0  0  0  0  0  0  0  0  0  0
   -2.2020  -18.0150    3.6760 C   0  0  0  0  0  0  0  0  0  0  0  0
   -0.8930  -18.3060    3.8310 N   0  0  0  0  0  0  0  0  0  0  0  0
   -0.0490  -17.2580    4.0030 C   0  0  0  0  0  0  0  0  0  0  0  0
    1.6170  -14.8770    0.6440 C   0  0  2  0  0  0  0  0  0  0  0  0
    1.9200  -16.3850    0.8090 C   0  0  0  0  0  0  0  0  0  0  0  0
    6.3749  -11.8835   -1.8402 H   0  0  0  0  0  0  0  0  0  0  0  0
    5.9209  -13.4199   -2.6525 H   0  0  0  0  0  0  0  0  0  0  0  0
    4.7797  -12.0327   -2.6525 H   0  0  0  0  0  0  0  0  0  0  0  0
    6.2527  -11.8716    0.3218 H   0  0  0  0  0  0  0  0  0  0  0  0
    5.8410  -13.3600    2.3080 H   0  0  0  0  0  0  0  0  0  0  0  0
    4.4969  -12.1177    2.1809 H   0  0  0  0  0  0  0  0  0  0  0  0
    4.4221  -15.0848    1.7160 H   0  0  0  0  0  0  0  0  0  0  0  0
    3.3144  -13.9969    2.6587 H   0  0  0  0  0  0  0  0  0  0  0  0
    2.5158  -13.0027    0.5314 H   0  0  0  0  0  0  0  0  0  0  0  0
    4.7419  -15.9103   -0.0231 H   0  0  0  0  0  0  0  0  0  0  0  0
    3.8622  -16.1697   -1.5676 H   0  0  0  0  0  0  0  0  0  0  0  0
    5.4466  -15.3233   -1.5676 H   0  0  0  0  0  0  0  0  0  0  0  0
    2.4942  -12.8125   -1.9392 H   0  0  0  0  0  0  0  0  0  0  0  0
    3.8219  -11.5337   -6.3526 H   0  0  0  0  0  0  0  0  0  0  0  0
    5.6320  -11.8024   -8.0481 H   0  0  0  0  0  0  0  0  0  0  0  0
    7.1370  -13.7900   -7.9671 H   0  0  0  0  0  0  0  0  0  0  0  0
    6.8333  -15.5141   -6.1910 H   0  0  0  0  0  0  0  0  0  0  0  0
    5.0245  -15.2542   -4.4939 H   0  0  0  0  0  0  0  0  0  0  0  0
    1.9132  -15.8037   -1.9565 H   0  0  0  0  0  0  0  0  0  0  0  0
    1.0890  -13.7780   -3.5780 H   0  0  0  0  0  0  0  0  0  0  0  0
   -0.8815  -15.7735    0.2399 H   0  0  0  0  0  0  0  0  0  0  0  0
   -1.3039  -14.9692   -1.3097 H   0  0  0  0  0  0  0  0  0  0  0  0
   -0.2391  -16.4159   -1.3097 H   0  0  0  0  0  0  0  0  0  0  0  0
   -2.2108  -13.1062   -0.5239 H   0  0  0  0  0  0  0  0  0  0  0  0
   -2.0718  -13.8706    1.0708 H   0  0  0  0  0  0  0  0  0  0  0  0
   -0.3921  -10.8685   -0.7550 H   0  0  0  0  0  0  0  0  0  0  0  0
    0.4844  -10.6215    0.7408 H   0  0  0  0  0  0  0  0  0  0  0  0
    1.2215  -12.3771    1.9554 H   0  0  0  0  0  0  0  0  0  0  0  0
   -0.3943  -12.8104    2.6492 H   0  0  0  0  0  0  0  0  0  0  0  0
   -0.1933  -15.0718    1.8221 H   0  0  0  0  0  0  0  0  0  0  0  0
   -2.1902  -14.6290    3.8835 H   0  0  0  0  0  0  0  0  0  0  0  0
   -3.7861  -16.5420    3.5602 H   0  0  0  0  0  0  0  0  0  0  0  0
   -2.9057  -18.8482    3.5321 H   0  0  0  0  0  0  0  0  0  0  0  0
    1.0219  -17.4719    4.1352 H   0  0  0  0  0  0  0  0  0  0  0  0
    1.9700  -16.6340    1.8793 H   0  0  0  0  0  0  0  0  0  0  0  0
    1.1222  -16.9736    0.3325 H   0  0  0  0  0  0  0  0  0  0  0  0
    2.8833  -16.6197    0.3325 H   0  0  0  0  0  0  0  0  0  0  0  0
  1  2  1  0
  2  3  2  0
  3  4  1  0
  4  5  1  0
  5  6  1  0
  6  7  1  0
  7  8  1  6
  7  9  1  0
  9 10  1  0
 10 11  1  0
 11 12  2  0
 11 13  1  0
 13 14  2  0
 14 15  1  0
 15 16  2  0
 16 17  1  0
 17 18  2  0
  9 19  1  0
 19 20  1  0
 19 21  1  0
 21 22  1  6
 21 23  1  0
 24 23  1  6
 24 25  1  0
 25 26  1  0
 26 27  1  0
 27 28  2  0
 27 29  1  0
 24 30  1  0
 30 31  1  0
 31 32  1  0
 32 33  1  0
 33 34  2  0
 33 35  1  0
 35 36  2  0
 36 37  1  0
 37 38  2  0
 38 39  1  0
 39 40  2  0
 31 41  1  0
 41 42  1  1
  7  2  1  0
 18 13  1  0
 41 21  1  0
 41  6  1  0
 29 24  1  0
 40 35  1  0
  1 43  1  0
  1 44  1  0
  1 45  1  0
  3 46  1  0
  4 47  1  0
  4 48  1  0
  5 49  1  0
  5 50  1  0
  6 51  1  6
  8 52  1  0
  8 53  1  0
  8 54  1  0
  9 55  1  6
 14 56  1  0
 15 57  1  0
 16 58  1  0
 17 59  1  0
 18 60  1  0
 19 61  1  6
 20 62  1  0
 22 63  1  0
 22 64  1  0
 22 65  1  0
 25 66  1  0
 25 67  1  0
 29 68  1  0
 29 69  1  0
 30 70  1  0
 30 71  1  0
 31 72  1  6
 36 73  1  0
 37 74  1  0
 38 75  1  0
 40 76  1  0
 42 77  1  0
 42 78  1  0
 42 79  1  0
M  END
>  <meeko>  (4) 
{"is_sidechain": [false], "free_energy": -8.51, "intermolecular_energy": -11.425, "internal_energy": -1.676}

$$$$
LIB_WFFUGMCEOIJHMN__M_PUB_ALL__e8__s20260927
     RDKit          3D

 79 84  0  0  0  0  0  0  0  0999 V2000
   -0.9010  -12.5540    3.8170 C   0  0  0  0  0  0  0  0  0  0  0  0
   -0.5060  -12.1370    2.4200 C   0  0  0  0  0  0  0  0  0  0  0  0
   -0.7270  -10.8600    2.0530 C   0  0  0  0  0  0  0  0  0  0  0  0
   -0.4190  -10.2850    0.7130 C   0  0  0  0  0  0  0  0  0  0  0  0
    0.0860  -11.3000   -0.3100 C   0  0  0  0  0  0  0  0  0  0  0  0
    0.9520  -12.4020    0.3420 C   0  0  1  0  0  0  0  0  0  0  0  0
    0.1030  -13.1860    1.4390 C   0  0  2  0  0  0  0  0  0  0  0  0
   -1.1250  -13.9400    0.8660 C   0  0  0  0  0  0  0  0  0  0  0  0
    1.0630  -14.1830    2.1680 C   0  0  1  0  0  0  0  0  0  0  0  0
    0.2980  -15.0620    3.0380 O   0  0  0  0  0  0  0  0  0  0  0  0
    0.7700  -15.2180    4.3010 C   0  0  0  0  0  0  0  0  0  0  0  0
    1.8690  -14.8590    4.6990 O   0  0  0  0  0  0  0  0  0  0  0  0
   -0.2440  -15.8820    5.1640 C   0  0  0  0  0  0  0  0  0  0  0  0
   -1.5560  -16.1220    4.7330 C   0  0  0  0  0  0  0  0  0  0  0  0
   -2.4720  -16.7440    5.5850 C   0  0  0  0  0  0  0  0  0  0  0  0
   -2.0830  -17.1290    6.8680 C   0  0  0  0  0  0  0  0  0  0  0  0
   -0.7790  -16.8940    7.3030 C   0  0  0  0  0  0  0  0  0  0  0  0
    0.1390  -16.2710    6.4540 C   0  0  0  0  0  0  0  0  0  0  0  0
    1.8350  -15.0860    1.1800 C   0  0  2  0  0  0  0  0  0  0  0  0
    2.6830  -16.0010    1.9030 O   0  0  0  0  0  0  0  0  0  0  0  0
    2.7010  -14.2880    0.1590 C   0  0  2  0  0  0  0  0  0  0  0  0
    3.4490  -15.3460   -0.6900 C   0  0  0  0  0  0  0  0  0  0  0  0
    3.6400  -13.5430    0.9710 O   0  0  0  0  0  0  0  0  0  0  0  0
    4.5320  -12.6070    0.3620 C   0  0  2  0  0  0  0  0  0  0  0  0
    5.7670  -13.2650   -0.2490 C   0  0  0  0  0  0  0  0  0  0  0  0
    6.8420  -12.3390   -0.0800 O   0  0  0  0  0  0  0  0  0  0  0  0
    6.5380  -11.4980    0.9450 C   0  0  0  0  0  0  0  0  0  0  0  0
    7.2860  -10.6310    1.3670 O   0  0  0  0  0  0  0  0  0  0  0  0
    5.1810  -11.8070    1.4890 C   0  0  0  0  0  0  0  0  0  0  0  0
    3.8180  -11.6620   -0.6170 C   0  0  0  0  0  0  0  0  0  0  0  0
    2.8440  -12.4220   -1.5150 C   0  0  2  0  0  0  0  0  0  0  0  0
    2.1720  -11.5230   -2.4190 O   0  0  0  0  0  0  0  0  0  0  0  0
    2.9490  -10.9170   -3.3550 C   0  0  0  0  0  0  0  0  0  0  0  0
    2.9320   -9.7290   -3.6330 O   0  0  0  0  0  0  0  0  0  0  0  0
    3.8310  -11.8980   -4.0190 C   0  0  0  0  0  0  0  0  0  0  0  0
    5.2260  -11.8460   -3.9720 C   0  0  0  0  0  0  0  0  0  0  0  0
    5.9700  -12.8180   -4.6380 C   0  0  0  0  0  0  0  0  0  0  0  0
    5.2920  -13.8080   -5.3320 C   0  0  0  0  0  0  0  0  0  0  0  0
    3.9460  -13.8830   -5.4030 N   0  0  0  0  0  0  0  0  0  0  0  0
    3.2440  -12.9250   -4.7480 C   0  0  0  0  0  0  0  0  0  0  0  0
    1.8200  -13.2850   -0.6760 C   0  0  2  0  0  0  0  0  0  0  0  0
    0.9280  -14.0150   -1.7080 C   0  0  0  0  0  0  0  0  0  0  0  0
   -0.3373  -11.9589    4.5505 H   0  0  0  0  0  0  0  0  0  0  0  0
   -1.9788  -12.3858    3.9589 H   0  0  0  0  0  0  0  0  0  0  0  0
   -0.6746  -13.6211    3.9589 H   0  0  0  0  0  0  0  0  0  0  0  0
   -1.1703  -10.1877    2.8023 H   0  0  0  0  0  0  0  0  0  0  0  0
   -1.3366   -9.8254    0.3171 H   0  0  0  0  0  0  0  0  0  0  0  0
    0.3947   -9.5601    0.8628 H   0  0  0  0  0  0  0  0  0  0  0  0
   -0.7794  -11.7717   -0.7985 H   0  0  0  0  0  0  0  0  0  0  0  0
    0.7124  -10.7638   -1.0381 H   0  0  0  0  0  0  0  0  0  0  0  0
    1.7710  -11.9120    0.8890 H   0  0  0  0  0  0  0  0  0  0  0  0
   -1.7419  -14.3188    1.6942 H   0  0  0  0  0  0  0  0  0  0  0  0
   -1.7220  -13.2526    0.2487 H   0  0  0  0  0  0  0  0  0  0  0  0
   -0.7821  -14.7834    0.2487 H   0  0  0  0  0  0  0  0  0  0  0  0
    1.7775  -13.5674    2.7341 H   0  0  0  0  0  0  0  0  0  0  0  0
   -1.8652  -15.8199    3.7215 H   0  0  0  0  0  0  0  0  0  0  0  0
   -3.5010  -16.9303    5.2437 H   0  0  0  0  0  0  0  0  0  0  0  0
   -2.8056  -17.6185    7.5375 H   0  0  0  0  0  0  0  0  0  0  0  0
   -0.4733  -17.1992    8.3146 H   0  0  0  0  0  0  0  0  0  0  0  0
    1.1666  -16.0852    6.7999 H   0  0  0  0  0  0  0  0  0  0  0  0
    1.0728  -15.6325    0.6052 H   0  0  0  0  0  0  0  0  0  0  0  0
    2.8370  -16.7740    1.3230 H   0  0  0  0  0  0  0  0  0  0  0  0
    3.9542  -16.0605   -0.0235 H   0  0  0  0  0  0  0  0  0  0  0  0
    2.7286  -15.8829   -1.3247 H   0  0  0  0  0  0  0  0  0  0  0  0
    4.1954  -14.8459   -1.3247 H   0  0  0  0  0  0  0  0  0  0  0  0
    5.9920  -14.2082    0.2704 H   0  0  0  0  0  0  0  0  0  0  0  0
    5.6083  -13.5026   -1.3112 H   0  0  0  0  0  0  0  0  0  0  0  0
    5.2510  -12.4058    2.4091 H   0  0  0  0  0  0  0  0  0  0  0  0
    4.6106  -10.9082    1.7662 H   0  0  0  0  0  0  0  0  0  0  0  0
    3.2609  -10.9067   -0.0433 H   0  0  0  0  0  0  0  0  0  0  0  0
    4.5774  -11.1860   -1.2548 H   0  0  0  0  0  0  0  0  0  0  0  0
    3.4302  -13.1296   -2.1197 H   0  0  0  0  0  0  0  0  0  0  0  0
    5.7329  -11.0448   -3.4142 H   0  0  0  0  0  0  0  0  0  0  0  0
    7.0696  -12.8001   -4.6136 H   0  0  0  0  0  0  0  0  0  0  0  0
    5.8834  -14.5749   -5.8537 H   0  0  0  0  0  0  0  0  0  0  0  0
    2.1457  -12.9633   -4.7967 H   0  0  0  0  0  0  0  0  0  0  0  0
    0.1812  -14.6261   -1.1799 H   0  0  0  0  0  0  0  0  0  0  0  0
    0.4155  -13.2739   -2.3389 H   0  0  0  0  0  0  0  0  0  0  0  0
    1.5531  -14.6640   -2.3389 H   0  0  0  0  0  0  0  0  0  0  0  0
  1  2  1  0
  2  3  2  0
  3  4  1  0
  4  5  1  0
  5  6  1  0
  6  7  1  0
  7  8  1  6
  7  9  1  0
  9 10  1  0
 10 11  1  0
 11 12  2  0
 11 13  1  0
 13 14  2  0
 14 15  1  0
 15 16  2  0
 16 17  1  0
 17 18  2  0
  9 19  1  0
 19 20  1  0
 19 21  1  0
 21 22  1  6
 21 23  1  0
 24 23  1  1
 24 25  1  0
 25 26  1  0
 26 27  1  0
 27 28  2  0
 27 29  1  0
 24 30  1  0
 30 31  1  0
 31 32  1  0
 32 33  1  0
 33 34  2  0
 33 35  1  0
 35 36  2  0
 36 37  1  0
 37 38  2  0
 38 39  1  0
 39 40  2  0
 31 41  1  0
 41 42  1  6
  7  2  1  0
 18 13  1  0
 41 21  1  0
 41  6  1  0
 29 24  1  0
 40 35  1  0
  1 43  1  0
  1 44  1  0
  1 45  1  0
  3 46  1  0
  4 47  1  0
  4 48  1  0
  5 49  1  0
  5 50  1  0
  6 51  1  1
  8 52  1  0
  8 53  1  0
  8 54  1  0
  9 55  1  1
 14 56  1  0
 15 57  1  0
 16 58  1  0
 17 59  1  0
 18 60  1  0
 19 61  1  6
 20 62  1  0
 22 63  1  0
 22 64  1  0
 22 65  1  0
 25 66  1  0
 25 67  1  0
 29 68  1  0
 29 69  1  0
 30 70  1  0
 30 71  1  0
 31 72  1  6
 36 73  1  0
 37 74  1  0
 38 75  1  0
 40 76  1  0
 42 77  1  0
 42 78  1  0
 42 79  1  0
M  END
>  <meeko>  (5) 
{"is_sidechain": [false], "free_energy": -8.463, "intermolecular_energy": -11.691, "internal_energy": -1.346}

$$$$
LIB_WFFUGMCEOIJHMN__M_PUB_ALL__e8__s20260927
     RDKit          3D

 79 84  0  0  0  0  0  0  0  0999 V2000
    9.5850  -12.2870    0.0110 C   0  0  0  0  0  0  0  0  0  0  0  0
    8.2650  -13.0030    0.1730 C   0  0  0  0  0  0  0  0  0  0  0  0
    7.5830  -12.8240    1.3200 C   0  0  0  0  0  0  0  0  0  0  0  0
    6.2810  -13.4660    1.6560 C   0  0  0  0  0  0  0  0  0  0  0  0
    5.7880  -14.4740    0.6210 C   0  0  0  0  0  0  0  0  0  0  0  0
    6.1660  -14.0620   -0.8200 C   0  0  1  0  0  0  0  0  0  0  0  0
    7.7500  -13.9470   -0.9560 C   0  0  2  0  0  0  0  0  0  0  0  0
    8.5020  -15.2820   -0.7200 C   0  0  0  0  0  0  0  0  0  0  0  0
    8.0700  -13.3860   -2.3820 C   0  0  1  0  0  0  0  0  0  0  0  0
    9.5020  -13.4490   -2.6290 O   0  0  0  0  0  0  0  0  0  0  0  0
   10.0470  -12.3890   -3.2780 C   0  0  0  0  0  0  0  0  0  0  0  0
    9.4540  -11.3720   -3.6030 O   0  0  0  0  0  0  0  0  0  0  0  0
   11.4950  -12.6190   -3.5360 C   0  0  0  0  0  0  0  0  0  0  0  0
   11.9590  -13.6910   -4.3110 C   0  0  0  0  0  0  0  0  0  0  0  0
   13.3300  -13.8640   -4.5190 C   0  0  0  0  0  0  0  0  0  0  0  0
   14.2410  -12.9710   -3.9550 C   0  0  0  0  0  0  0  0  0  0  0  0
   13.7850  -11.9020   -3.1840 C   0  0  0  0  0  0  0  0  0  0  0  0
   12.4160  -11.7260   -2.9740 C   0  0  0  0  0  0  0  0  0  0  0  0
    7.3810  -14.1970   -3.5020 C   0  0  2  0  0  0  0  0  0  0  0  0
    7.7300  -13.6560   -4.7920 O   0  0  0  0  0  0  0  0  0  0  0  0
    5.8290  -14.2400   -3.3700 C   0  0  2  0  0  0  0  0  0  0  0  0
    5.3140  -15.0230   -4.6040 C   0  0  0  0  0  0  0  0  0  0  0  0
    5.4110  -12.8560   -3.4460 O   0  0  0  0  0  0  0  0  0  0  0  0
    4.0390  -12.5080   -3.2510 C   0  0  2  0  0  0  0  0  0  0  0  0
    3.1860  -12.7080   -4.5030 C   0  0  0  0  0  0  0  0  0  0  0  0
    2.1950  -11.6790   -4.4830 O   0  0  0  0  0  0  0  0  0  0  0  0
    2.6430  -10.6540   -3.7100 C   0  0  0  0  0  0  0  0  0  0  0  0
    2.0430   -9.6040   -3.5450 O   0  0  0  0  0  0  0  0  0  0  0  0
    3.9760  -10.9880   -3.1220 C   0  0  0  0  0  0  0  0  0  0  0  0
    3.4320  -13.1720   -2.0070 C   0  0  0  0  0  0  0  0  0  0  0  0
    3.8230  -14.6460   -1.9150 C   0  0  2  0  0  0  0  0  0  0  0  0
    3.2580  -15.2540   -0.7360 O   0  0  0  0  0  0  0  0  0  0  0  0
    2.2190  -16.1060   -0.9370 C   0  0  0  0  0  0  0  0  0  0  0  0
    2.3100  -17.2620   -1.3150 O   0  0  0  0  0  0  0  0  0  0  0  0
    0.9330  -15.4420   -0.6460 C   0  0  0  0  0  0  0  0  0  0  0  0
    0.7760  -14.4340    0.3090 C   0  0  0  0  0  0  0  0  0  0  0  0
   -0.4840  -13.8730    0.5130 C   0  0  0  0  0  0  0  0  0  0  0  0
   -1.5460  -14.3440   -0.2430 C   0  0  0  0  0  0  0  0  0  0  0  0
   -1.4300  -15.3210   -1.1690 N   0  0  0  0  0  0  0  0  0  0  0  0
   -0.1950  -15.8510   -1.3480 C   0  0  0  0  0  0  0  0  0  0  0  0
    5.3890  -14.8440   -1.9840 C   0  0  2  0  0  0  0  0  0  0  0  0
    5.6320  -16.3700   -1.9120 C   0  0  0  0  0  0  0  0  0  0  0  0
   10.0032  -12.0601    1.0028 H   0  0  0  0  0  0  0  0  0  0  0  0
   10.2848  -12.9292   -0.5439 H   0  0  0  0  0  0  0  0  0  0  0  0
    9.4283  -11.3502   -0.5439 H   0  0  0  0  0  0  0  0  0  0  0  0
    8.0224  -12.1494    2.0695 H   0  0  0  0  0  0  0  0  0  0  0  0
    6.3930  -13.9877    2.6179 H   0  0  0  0  0  0  0  0  0  0  0  0
    5.5334  -12.6598    1.6893 H   0  0  0  0  0  0  0  0  0  0  0  0
    6.2373  -15.4541    0.8388 H   0  0  0  0  0  0  0  0  0  0  0  0
    4.6906  -14.5143    0.6843 H   0  0  0  0  0  0  0  0  0  0  0  0
    5.7736  -13.0501   -0.9993 H   0  0  0  0  0  0  0  0  0  0  0  0
    8.6024  -15.4602    0.3608 H   0  0  0  0  0  0  0  0  0  0  0  0
    7.9361  -16.1073   -1.1767 H   0  0  0  0  0  0  0  0  0  0  0  0
    9.5011  -15.2257   -1.1767 H   0  0  0  0  0  0  0  0  0  0  0  0
    7.6969  -12.3514   -2.4000 H   0  0  0  0  0  0  0  0  0  0  0  0
   11.2427  -14.3972   -4.7562 H   0  0  0  0  0  0  0  0  0  0  0  0
   13.6912  -14.7056   -5.1283 H   0  0  0  0  0  0  0  0  0  0  0  0
   15.3199  -13.1100   -4.1184 H   0  0  0  0  0  0  0  0  0  0  0  0
   14.5042  -11.1973   -2.7412 H   0  0  0  0  0  0  0  0  0  0  0  0
   12.0593  -10.8825   -2.3647 H   0  0  0  0  0  0  0  0  0  0  0  0
    7.7456  -15.2299   -3.4013 H   0  0  0  0  0  0  0  0  0  0  0  0
    7.8850  -12.6960   -4.6710 H   0  0  0  0  0  0  0  0  0  0  0  0
    4.7383  -15.8983   -4.2687 H   0  0  0  0  0  0  0  0  0  0  0  0
    4.6687  -14.3697   -5.2096 H   0  0  0  0  0  0  0  0  0  0  0  0
    6.1694  -15.3568   -5.2096 H   0  0  0  0  0  0  0  0  0  0  0  0
    3.8083  -12.6197   -5.4057 H   0  0  0  0  0  0  0  0  0  0  0  0
    2.7247  -13.7065   -4.5166 H   0  0  0  0  0  0  0  0  0  0  0  0
    4.7887  -10.5094   -3.6882 H   0  0  0  0  0  0  0  0  0  0  0  0
    4.0926  -10.6363   -2.0863 H   0  0  0  0  0  0  0  0  0  0  0  0
    3.7940  -12.6490   -1.1095 H   0  0  0  0  0  0  0  0  0  0  0  0
    2.3363  -13.1084   -2.0805 H   0  0  0  0  0  0  0  0  0  0  0  0
    3.4012  -15.1592   -2.7918 H   0  0  0  0  0  0  0  0  0  0  0  0
    1.6394  -14.0860    0.8950 H   0  0  0  0  0  0  0  0  0  0  0  0
   -0.6318  -13.0756    1.2562 H   0  0  0  0  0  0  0  0  0  0  0  0
   -2.5381  -13.8977   -0.0801 H   0  0  0  0  0  0  0  0  0  0  0  0
   -0.0787  -16.6521   -2.0928 H   0  0  0  0  0  0  0  0  0  0  0  0
    5.6820  -16.6840   -0.8590 H   0  0  0  0  0  0  0  0  0  0  0  0
    4.8064  -16.8968   -2.4129 H   0  0  0  0  0  0  0  0  0  0  0  0
    6.5804  -16.6143   -2.4129 H   0  0  0  0  0  0  0  0  0  0  0  0
  1  2  1  0
  2  3  2  0
  3  4  1  0
  4  5  1  0
  5  6  1  0
  6  7  1  0
  7  8  1  1
  7  9  1  0
  9 10  1  0
 10 11  1  0
 11 12  2  0
 11 13  1  0
 13 14  2  0
 14 15  1  0
 15 16  2  0
 16 17  1  0
 17 18  2  0
  9 19  1  0
 19 20  1  0
 19 21  1  0
 21 22  1  6
 21 23  1  0
 24 23  1  6
 24 25  1  0
 25 26  1  0
 26 27  1  0
 27 28  2  0
 27 29  1  0
 24 30  1  0
 30 31  1  0
 31 32  1  0
 32 33  1  0
 33 34  2  0
 33 35  1  0
 35 36  2  0
 36 37  1  0
 37 38  2  0
 38 39  1  0
 39 40  2  0
 31 41  1  0
 41 42  1  6
  7  2  1  0
 18 13  1  0
 41 21  1  0
 41  6  1  0
 29 24  1  0
 40 35  1  0
  1 43  1  0
  1 44  1  0
  1 45  1  0
  3 46  1  0
  4 47  1  0
  4 48  1  0
  5 49  1  0
  5 50  1  0
  6 51  1  1
  8 52  1  0
  8 53  1  0
  8 54  1  0
  9 55  1  1
 14 56  1  0
 15 57  1  0
 16 58  1  0
 17 59  1  0
 18 60  1  0
 19 61  1  6
 20 62  1  0
 22 63  1  0
 22 64  1  0
 22 65  1  0
 25 66  1  0
 25 67  1  0
 29 68  1  0
 29 69  1  0
 30 70  1  0
 30 71  1  0
 31 72  1  6
 36 73  1  0
 37 74  1  0
 38 75  1  0
 40 76  1  0
 42 77  1  0
 42 78  1  0
 42 79  1  0
M  END
>  <meeko>  (6) 
{"is_sidechain": [false], "free_energy": -8.297, "intermolecular_energy": -11.319, "internal_energy": -1.489}

$$$$
LIB_WFFUGMCEOIJHMN__M_PUB_ALL__e8__s20260927
     RDKit          3D

 79 84  0  0  0  0  0  0  0  0999 V2000
    9.1610  -12.2190    0.7540 C   0  0  0  0  0  0  0  0  0  0  0  0
    7.6740  -12.0050    0.9150 C   0  0  0  0  0  0  0  0  0  0  0  0
    7.2470  -10.7910    1.3090 C   0  0  0  0  0  0  0  0  0  0  0  0
    5.8240  -10.4120    1.5360 C   0  0  0  0  0  0  0  0  0  0  0  0
    4.8320  -11.5650    1.3960 C   0  0  0  0  0  0  0  0  0  0  0  0
    5.2610  -12.5720    0.3050 C   0  0  1  0  0  0  0  0  0  0  0  0
    6.6880  -13.1870    0.6620 C   0  0  2  0  0  0  0  0  0  0  0  0
    6.7120  -14.0020    1.9800 C   0  0  0  0  0  0  0  0  0  0  0  0
    7.1390  -14.0810   -0.5400 C   0  0  1  0  0  0  0  0  0  0  0  0
    8.3390  -14.8220   -0.1840 O   0  0  0  0  0  0  0  0  0  0  0  0
    9.0690  -15.3180   -1.2150 C   0  0  0  0  0  0  0  0  0  0  0  0
    9.1400  -16.4960   -1.5350 O   0  0  0  0  0  0  0  0  0  0  0  0
    9.7750  -14.2230   -1.9340 C   0  0  0  0  0  0  0  0  0  0  0  0
    9.1320  -13.3990   -2.8670 C   0  0  0  0  0  0  0  0  0  0  0  0
    9.8430  -12.3880   -3.5180 C   0  0  0  0  0  0  0  0  0  0  0  0
   11.1970  -12.1960   -3.2400 C   0  0  0  0  0  0  0  0  0  0  0  0
   11.8430  -13.0120   -2.3120 C   0  0  0  0  0  0  0  0  0  0  0  0
   11.1350  -14.0240   -1.6600 C   0  0  0  0  0  0  0  0  0  0  0  0
    6.0670  -15.1210   -0.9360 C   0  0  2  0  0  0  0  0  0  0  0  0
    6.5430  -15.9330   -2.0280 O   0  0  0  0  0  0  0  0  0  0  0  0
    4.7030  -14.4820   -1.3340 C   0  0  2  0  0  0  0  0  0  0  0  0
    3.7880  -15.6560   -1.7660 C   0  0  0  0  0  0  0  0  0  0  0  0
    5.0060  -13.6400   -2.4730 O   0  0  0  0  0  0  0  0  0  0  0  0
    3.9920  -12.8060   -3.0400 C   0  0  2  0  0  0  0  0  0  0  0  0
    3.0640  -13.5550   -3.9940 C   0  0  0  0  0  0  0  0  0  0  0  0
    2.7010  -12.6260   -5.0150 O   0  0  0  0  0  0  0  0  0  0  0  0
    3.6440  -11.6460   -5.0710 C   0  0  0  0  0  0  0  0  0  0  0  0
    3.6420  -10.7360   -5.8840 O   0  0  0  0  0  0  0  0  0  0  0  0
    4.6850  -11.8630   -4.0200 C   0  0  0  0  0  0  0  0  0  0  0  0
    3.2270  -12.0010   -1.9780 C   0  0  0  0  0  0  0  0  0  0  0  0
    2.8600  -12.8700   -0.7770 C   0  0  2  0  0  0  0  0  0  0  0  0
    2.1550  -12.1000    0.2170 O   0  0  0  0  0  0  0  0  0  0  0  0
    0.8540  -12.4320    0.4250 C   0  0  0  0  0  0  0  0  0  0  0  0
    0.3240  -13.4790    0.0890 O   0  0  0  0  0  0  0  0  0  0  0  0
    0.1380  -11.3410    1.1160 C   0  0  0  0  0  0  0  0  0  0  0  0
   -0.8760  -11.5490    2.0560 C   0  0  0  0  0  0  0  0  0  0  0  0
   -1.4950  -10.4500    2.6490 C   0  0  0  0  0  0  0  0  0  0  0  0
   -1.0810   -9.1800    2.2790 C   0  0  0  0  0  0  0  0  0  0  0  0
   -0.1100   -8.9440    1.3710 N   0  0  0  0  0  0  0  0  0  0  0  0
    0.4760  -10.0300    0.8070 C   0  0  0  0  0  0  0  0  0  0  0  0
    4.1230  -13.5970   -0.1680 C   0  0  2  0  0  0  0  0  0  0  0  0
    3.5990  -14.4560    1.0070 C   0  0  0  0  0  0  0  0  0  0  0  0
    9.6312  -12.2867    1.7461 H   0  0  0  0  0  0  0  0  0  0  0  0
    9.3392  -13.1520    0.1993 H   0  0  0  0  0  0  0  0  0  0  0  0
    9.5951  -11.3741    0.1993 H   0  0  0  0  0  0  0  0  0  0  0  0
    8.0098  -10.0164    1.4769 H   0  0  0  0  0  0  0  0  0  0  0  0
    5.7352  -10.0038    2.5536 H   0  0  0  0  0  0  0  0  0  0  0  0
    5.5664   -9.6808    0.7556 H   0  0  0  0  0  0  0  0  0  0  0  0
    4.7635  -12.0928    2.3587 H   0  0  0  0  0  0  0  0  0  0  0  0
    3.8600  -11.1417    1.1028 H   0  0  0  0  0  0  0  0  0  0  0  0
    5.3981  -12.0184   -0.6356 H   0  0  0  0  0  0  0  0  0  0  0  0
    6.6917  -13.3132    2.8374 H   0  0  0  0  0  0  0  0  0  0  0  0
    5.8329  -14.6620    2.0190 H   0  0  0  0  0  0  0  0  0  0  0  0
    7.6284  -14.6092    2.0190 H   0  0  0  0  0  0  0  0  0  0  0  0
    7.3144  -13.3988   -1.3849 H   0  0  0  0  0  0  0  0  0  0  0  0
    8.0647  -13.5485   -3.0874 H   0  0  0  0  0  0  0  0  0  0  0  0
    9.3353  -11.7429   -4.2502 H   0  0  0  0  0  0  0  0  0  0  0  0
   11.7555  -11.3997   -3.7537 H   0  0  0  0  0  0  0  0  0  0  0  0
   12.9101  -12.8587   -2.0935 H   0  0  0  0  0  0  0  0  0  0  0  0
   11.6466  -14.6672   -0.9288 H   0  0  0  0  0  0  0  0  0  0  0  0
    5.8914  -15.7360   -0.0411 H   0  0  0  0  0  0  0  0  0  0  0  0
    6.2240  -15.5220   -2.8570 H   0  0  0  0  0  0  0  0  0  0  0  0
    3.3938  -16.1617   -0.8722 H   0  0  0  0  0  0  0  0  0  0  0  0
    2.9520  -15.2676   -2.3662 H   0  0  0  0  0  0  0  0  0  0  0  0
    4.3688  -16.3719   -2.3662 H   0  0  0  0  0  0  0  0  0  0  0  0
    3.5858  -14.4181   -4.4330 H   0  0  0  0  0  0  0  0  0  0  0  0
    2.1764  -13.9375   -3.4688 H   0  0  0  0  0  0  0  0  0  0  0  0
    5.5861  -12.3281   -4.4462 H   0  0  0  0  0  0  0  0  0  0  0  0
    5.0303  -10.9291   -3.5524 H   0  0  0  0  0  0  0  0  0  0  0  0
    3.8587  -11.1676   -1.6369 H   0  0  0  0  0  0  0  0  0  0  0  0
    2.2973  -11.6263   -2.4310 H   0  0  0  0  0  0  0  0  0  0  0  0
    2.1825  -13.6606   -1.1320 H   0  0  0  0  0  0  0  0  0  0  0  0
   -1.1824  -12.5706    2.3250 H   0  0  0  0  0  0  0  0  0  0  0  0
   -2.2933  -10.5873    3.3932 H   0  0  0  0  0  0  0  0  0  0  0  0
   -1.5710   -8.3160    2.7516 H   0  0  0  0  0  0  0  0  0  0  0  0
    1.2661   -9.8619    0.0603 H   0  0  0  0  0  0  0  0  0  0  0  0
    3.8850  -13.9871    1.9601 H   0  0  0  0  0  0  0  0  0  0  0  0
    2.5029  -14.5281    0.9482 H   0  0  0  0  0  0  0  0  0  0  0  0
    4.0364  -15.4636    0.9482 H   0  0  0  0  0  0  0  0  0  0  0  0
  1  2  1  0
  2  3  2  0
  3  4  1  0
  4  5  1  0
  5  6  1  0
  6  7  1  0
  7  8  1  1
  7  9  1  0
  9 10  1  0
 10 11  1  0
 11 12  2  0
 11 13  1  0
 13 14  2  0
 14 15  1  0
 15 16  2  0
 16 17  1  0
 17 18  2  0
  9 19  1  0
 19 20  1  0
 19 21  1  0
 21 22  1  6
 21 23  1  0
 24 23  1  1
 24 25  1  0
 25 26  1  0
 26 27  1  0
 27 28  2  0
 27 29  1  0
 24 30  1  0
 30 31  1  0
 31 32  1  0
 32 33  1  0
 33 34  2  0
 33 35  1  0
 35 36  2  0
 36 37  1  0
 37 38  2  0
 38 39  1  0
 39 40  2  0
 31 41  1  0
 41 42  1  1
  7  2  1  0
 18 13  1  0
 41 21  1  0
 41  6  1  0
 29 24  1  0
 40 35  1  0
  1 43  1  0
  1 44  1  0
  1 45  1  0
  3 46  1  0
  4 47  1  0
  4 48  1  0
  5 49  1  0
  5 50  1  0
  6 51  1  6
  8 52  1  0
  8 53  1  0
  8 54  1  0
  9 55  1  6
 14 56  1  0
 15 57  1  0
 16 58  1  0
 17 59  1  0
 18 60  1  0
 19 61  1  1
 20 62  1  0
 22 63  1  0
 22 64  1  0
 22 65  1  0
 25 66  1  0
 25 67  1  0
 29 68  1  0
 29 69  1  0
 30 70  1  0
 30 71  1  0
 31 72  1  6
 36 73  1  0
 37 74  1  0
 38 75  1  0
 40 76  1  0
 42 77  1  0
 42 78  1  0
 42 79  1  0
M  END
>  <meeko>  (7) 
{"is_sidechain": [false], "free_energy": -8.235, "intermolecular_energy": -11.514, "internal_energy": -1.207}

$$$$
LIB_WFFUGMCEOIJHMN__M_PUB_ALL__e8__s20260927
     RDKit          3D

 79 84  0  0  0  0  0  0  0  0999 V2000
    5.3230  -13.0800   -7.0810 C   0  0  0  0  0  0  0  0  0  0  0  0
    6.6450  -13.7080   -7.4570 C   0  0  0  0  0  0  0  0  0  0  0  0
    7.2690  -13.2600   -8.5620 C   0  0  0  0  0  0  0  0  0  0  0  0
    8.5630  -13.7770   -9.0880 C   0  0  0  0  0  0  0  0  0  0  0  0
    9.1200  -14.9790   -8.3280 C   0  0  0  0  0  0  0  0  0  0  0  0
    8.8040  -14.9090   -6.8170 C   0  0  1  0  0  0  0  0  0  0  0  0
    7.2270  -14.8680   -6.5910 C   0  0  2  0  0  0  0  0  0  0  0  0
    6.4850  -16.1340   -7.0890 C   0  0  0  0  0  0  0  0  0  0  0  0
    6.9660  -14.6480   -5.0640 C   0  0  1  0  0  0  0  0  0  0  0  0
    5.5490  -14.8020   -4.7760 O   0  0  0  0  0  0  0  0  0  0  0  0
    5.0060  -13.8960   -3.9230 C   0  0  0  0  0  0  0  0  0  0  0  0
    5.6140  -12.9990   -3.3570 O   0  0  0  0  0  0  0  0  0  0  0  0
    3.5440  -14.1260   -3.7710 C   0  0  0  0  0  0  0  0  0  0  0  0
    2.9920  -14.7250   -2.6310 C   0  0  0  0  0  0  0  0  0  0  0  0
    1.6110  -14.9230   -2.5410 C   0  0  0  0  0  0  0  0  0  0  0  0
    0.7790  -14.5240   -3.5870 C   0  0  0  0  0  0  0  0  0  0  0  0
    1.3210  -13.9270   -4.7230 C   0  0  0  0  0  0  0  0  0  0  0  0
    2.7010  -13.7270   -4.8170 C   0  0  0  0  0  0  0  0  0  0  0  0
    7.7190  -15.6720   -4.1840 C   0  0  2  0  0  0  0  0  0  0  0  0
    7.4230  -15.4410   -2.7920 O   0  0  0  0  0  0  0  0  0  0  0  0
    9.2630  -15.6450   -4.3880 C   0  0  2  0  0  0  0  0  0  0  0  0
    9.8480  -16.6700   -3.3840 C   0  0  0  0  0  0  0  0  0  0  0  0
    9.6630  -14.3020   -4.0210 O   0  0  0  0  0  0  0  0  0  0  0  0
   11.0190  -13.8840   -4.1910 C   0  0  2  0  0  0  0  0  0  0  0  0
   11.9330  -14.3380   -3.0540 C   0  0  0  0  0  0  0  0  0  0  0  0
   12.9060  -13.3060   -2.8840 O   0  0  0  0  0  0  0  0  0  0  0  0
   12.4070  -12.1450   -3.3880 C   0  0  0  0  0  0  0  0  0  0  0  0
   12.9820  -11.0700   -3.3380 O   0  0  0  0  0  0  0  0  0  0  0  0
   11.0530  -12.3730   -3.9780 C   0  0  0  0  0  0  0  0  0  0  0  0
   11.5770  -14.2380   -5.5780 C   0  0  0  0  0  0  0  0  0  0  0  0
   11.2040  -15.6630   -5.9810 C   0  0  2  0  0  0  0  0  0  0  0  0
   11.7220  -15.9780   -7.2900 O   0  0  0  0  0  0  0  0  0  0  0  0
   13.0750  -15.9810   -7.4170 C   0  0  0  0  0  0  0  0  0  0  0  0
   13.8530  -16.6180   -6.7270 O   0  0  0  0  0  0  0  0  0  0  0  0
   13.5010  -15.0870   -8.5130 C   0  0  0  0  0  0  0  0  0  0  0  0
   12.6510  -14.1810   -9.1520 C   0  0  0  0  0  0  0  0  0  0  0  0
   13.1490  -13.3830  -10.1820 C   0  0  0  0  0  0  0  0  0  0  0  0
   14.4810  -13.5230  -10.5380 C   0  0  0  0  0  0  0  0  0  0  0  0
   15.3270  -14.3930   -9.9460 N   0  0  0  0  0  0  0  0  0  0  0  0
   14.8190  -15.1580   -8.9480 C   0  0  0  0  0  0  0  0  0  0  0  0
    9.6470  -15.9120   -5.8920 C   0  0  2  0  0  0  0  0  0  0  0  0
    9.4240  -17.3890   -6.2940 C   0  0  0  0  0  0  0  0  0  0  0  0
    5.2353  -13.0383   -5.9853 H   0  0  0  0  0  0  0  0  0  0  0  0
    5.2711  -12.0610   -7.4920 H   0  0  0  0  0  0  0  0  0  0  0  0
    4.5003  -13.6835   -7.4920 H   0  0  0  0  0  0  0  0  0  0  0  0
    6.7844  -12.4465   -9.1218 H   0  0  0  0  0  0  0  0  0  0  0  0
    8.4141  -14.0726  -10.1370 H   0  0  0  0  0  0  0  0  0  0  0  0
    9.2957  -12.9651   -8.9701 H   0  0  0  0  0  0  0  0  0  0  0  0
    8.6758  -15.8966   -8.7411 H   0  0  0  0  0  0  0  0  0  0  0  0
   10.2137  -14.9769   -8.4457 H   0  0  0  0  0  0  0  0  0  0  0  0
    9.1887  -13.9528   -6.4326 H   0  0  0  0  0  0  0  0  0  0  0  0
    6.1409  -16.7211   -6.2248 H   0  0  0  0  0  0  0  0  0  0  0  0
    5.6188  -15.8356   -7.6979 H   0  0  0  0  0  0  0  0  0  0  0  0
    7.1686  -16.7439   -7.6979 H   0  0  0  0  0  0  0  0  0  0  0  0
    7.3236  -13.6341   -4.8313 H   0  0  0  0  0  0  0  0  0  0  0  0
    3.6466  -15.0401   -1.8051 H   0  0  0  0  0  0  0  0  0  0  0  0
    1.1803  -15.3937   -1.6449 H   0  0  0  0  0  0  0  0  0  0  0  0
   -0.3073  -14.6811   -3.5148 H   0  0  0  0  0  0  0  0  0  0  0  0
    0.6626  -13.6129   -5.5463 H   0  0  0  0  0  0  0  0  0  0  0  0
    3.1268  -13.2550   -5.7147 H   0  0  0  0  0  0  0  0  0  0  0  0
    7.3656  -16.6653   -4.4977 H   0  0  0  0  0  0  0  0  0  0  0  0
    6.7850  -14.7000   -2.7500 H   0  0  0  0  0  0  0  0  0  0  0  0
    9.6533  -16.3289   -2.3565 H   0  0  0  0  0  0  0  0  0  0  0  0
    9.3729  -17.6496   -3.5414 H   0  0  0  0  0  0  0  0  0  0  0  0
   10.9330  -16.7592   -3.5414 H   0  0  0  0  0  0  0  0  0  0  0  0
   11.3528  -14.4703   -2.1289 H   0  0  0  0  0  0  0  0  0  0  0  0
   12.4096  -15.3020   -3.2854 H   0  0  0  0  0  0  0  0  0  0  0  0
   10.2611  -12.0539   -3.2844 H   0  0  0  0  0  0  0  0  0  0  0  0
   10.8821  -11.8018   -4.9024 H   0  0  0  0  0  0  0  0  0  0  0  0
   11.1653  -13.5370   -6.3191 H   0  0  0  0  0  0  0  0  0  0  0  0
   12.6739  -14.1649   -5.5391 H   0  0  0  0  0  0  0  0  0  0  0  0
   11.6741  -16.3475   -5.2595 H   0  0  0  0  0  0  0  0  0  0  0  0
   11.5979  -14.0976   -8.8455 H   0  0  0  0  0  0  0  0  0  0  0  0
   12.5004  -12.6604  -10.6989 H   0  0  0  0  0  0  0  0  0  0  0  0
   14.8710  -12.8897  -11.3485 H   0  0  0  0  0  0  0  0  0  0  0  0
   15.4894  -15.8767   -8.4540 H   0  0  0  0  0  0  0  0  0  0  0  0
    9.3309  -18.0056   -5.3878 H   0  0  0  0  0  0  0  0  0  0  0  0
    8.5032  -17.4718   -6.8900 H   0  0  0  0  0  0  0  0  0  0  0  0
   10.2793  -17.7399   -6.8900 H   0  0  0  0  0  0  0  0  0  0  0  0
  1  2  1  0
  2  3  2  0
  3  4  1  0
  4  5  1  0
  5  6  1  0
  6  7  1  0
  7  8  1  6
  7  9  1  0
  9 10  1  0
 10 11  1  0
 11 12  2  0
 11 13  1  0
 13 14  2  0
 14 15  1  0
 15 16  2  0
 16 17  1  0
 17 18  2  0
  9 19  1  0
 19 20  1  0
 19 21  1  0
 21 22  1  1
 21 23  1  0
 24 23  1  1
 24 25  1  0
 25 26  1  0
 26 27  1  0
 27 28  2  0
 27 29  1  0
 24 30  1  0
 30 31  1  0
 31 32  1  0
 32 33  1  0
 33 34  2  0
 33 35  1  0
 35 36  2  0
 36 37  1  0
 37 38  2  0
 38 39  1  0
 39 40  2  0
 31 41  1  0
 41 42  1  6
  7  2  1  0
 18 13  1  0
 41 21  1  0
 41  6  1  0
 29 24  1  0
 40 35  1  0
  1 43  1  0
  1 44  1  0
  1 45  1  0
  3 46  1  0
  4 47  1  0
  4 48  1  0
  5 49  1  0
  5 50  1  0
  6 51  1  1
  8 52  1  0
  8 53  1  0
  8 54  1  0
  9 55  1  1
 14 56  1  0
 15 57  1  0
 16 58  1  0
 17 59  1  0
 18 60  1  0
 19 61  1  6
 20 62  1  0
 22 63  1  0
 22 64  1  0
 22 65  1  0
 25 66  1  0
 25 67  1  0
 29 68  1  0
 29 69  1  0
 30 70  1  0
 30 71  1  0
 31 72  1  1
 36 73  1  0
 37 74  1  0
 38 75  1  0
 40 76  1  0
 42 77  1  0
 42 78  1  0
 42 79  1  0
M  END
>  <meeko>  (8) 
{"is_sidechain": [false], "free_energy": -8.202, "intermolecular_energy": -10.947, "internal_energy": -1.729}

$$$$
LIB_WFFUGMCEOIJHMN__M_PUB_ALL__e8__s20260927
     RDKit          3D

 79 84  0  0  0  0  0  0  0  0999 V2000
    0.6100  -11.4750   -0.1290 C   0  0  0  0  0  0  0  0  0  0  0  0
    1.3630  -12.7760    0.0150 C   0  0  0  0  0  0  0  0  0  0  0  0
    2.6990  -12.7220    0.1720 C   0  0  0  0  0  0  0  0  0  0  0  0
    3.5980  -13.9020    0.3090 C   0  0  0  0  0  0  0  0  0  0  0  0
    2.9000  -15.2510    0.1440 C   0  0  0  0  0  0  0  0  0  0  0  0
    1.4590  -15.2330    0.7020 C   0  0  1  0  0  0  0  0  0  0  0  0
    0.5940  -14.1310   -0.0580 C   0  0  2  0  0  0  0  0  0  0  0  0
    0.4230  -14.4000   -1.5750 C   0  0  0  0  0  0  0  0  0  0  0  0
   -0.8040  -14.0510    0.6420 C   0  0  1  0  0  0  0  0  0  0  0  0
   -1.6990  -13.2070   -0.1340 O   0  0  0  0  0  0  0  0  0  0  0  0
   -2.7680  -12.6970    0.5280 C   0  0  0  0  0  0  0  0  0  0  0  0
   -3.9230  -13.0800    0.4150 O   0  0  0  0  0  0  0  0  0  0  0  0
   -2.3470  -11.5990    1.4400 C   0  0  0  0  0  0  0  0  0  0  0  0
   -1.8360  -11.8410    2.7220 C   0  0  0  0  0  0  0  0  0  0  0  0
   -1.4610  -10.7730    3.5410 C   0  0  0  0  0  0  0  0  0  0  0  0
   -1.5930   -9.4620    3.0830 C   0  0  0  0  0  0  0  0  0  0  0  0
   -2.1000   -9.2140    1.8080 C   0  0  0  0  0  0  0  0  0  0  0  0
   -2.4770  -10.2790    0.9870 C   0  0  0  0  0  0  0  0  0  0  0  0
   -1.4800  -15.4350    0.7650 C   0  0  2  0  0  0  0  0  0  0  0  0
   -2.7720  -15.3010    1.3910 O   0  0  0  0  0  0  0  0  0  0  0  0
   -0.6330  -16.4700    1.5630 C   0  0  2  0  0  0  0  0  0  0  0  0
   -1.4910  -17.7570    1.6470 C   0  0  0  0  0  0  0  0  0  0  0  0
   -0.4780  -15.8860    2.8800 O   0  0  0  0  0  0  0  0  0  0  0  0
    0.3470  -16.5240    3.8560 C   0  0  2  0  0  0  0  0  0  0  0  0
   -0.3560  -17.6710    4.5800 C   0  0  0  0  0  0  0  0  0  0  0  0
    0.1470  -17.6730    5.9160 O   0  0  0  0  0  0  0  0  0  0  0  0
    0.6350  -16.4350    6.2020 C   0  0  0  0  0  0  0  0  0  0  0  0
    1.0820  -16.1080    7.2890 O   0  0  0  0  0  0  0  0  0  0  0  0
    0.5180  -15.5410    5.0110 C   0  0  0  0  0  0  0  0  0  0  0  0
    1.7190  -16.9300    3.2960 C   0  0  0  0  0  0  0  0  0  0  0  0
    1.5890  -17.5830    1.9220 C   0  0  2  0  0  0  0  0  0  0  0  0
    2.8840  -17.9460    1.4020 O   0  0  0  0  0  0  0  0  0  0  0  0
    3.2870  -19.2240    1.6270 C   0  0  0  0  0  0  0  0  0  0  0  0
    2.6080  -20.1070    2.1250 O   0  0  0  0  0  0  0  0  0  0  0  0
    4.6850  -19.4180    1.1930 C   0  0  0  0  0  0  0  0  0  0  0  0
    5.2450  -18.7990    0.0730 C   0  0  0  0  0  0  0  0  0  0  0  0
    6.5760  -19.0520   -0.2560 C   0  0  0  0  0  0  0  0  0  0  0  0
    7.3000  -19.9190    0.5460 C   0  0  0  0  0  0  0  0  0  0  0  0
    6.7880  -20.5390    1.6310 N   0  0  0  0  0  0  0  0  0  0  0  0
    5.4910  -20.2770    1.9300 C   0  0  0  0  0  0  0  0  0  0  0  0
    0.7860  -16.6730    0.9110 C   0  0  2  0  0  0  0  0  0  0  0  0
    0.7080  -17.4680   -0.4140 C   0  0  0  0  0  0  0  0  0  0  0  0
    0.3776  -11.0735    0.8684 H   0  0  0  0  0  0  0  0  0  0  0  0
    1.2293  -10.7520   -0.6801 H   0  0  0  0  0  0  0  0  0  0  0  0
   -0.3254  -11.6518   -0.6801 H   0  0  0  0  0  0  0  0  0  0  0  0
    3.1646  -11.7258    0.2015 H   0  0  0  0  0  0  0  0  0  0  0  0
    4.3844  -13.8259   -0.4564 H   0  0  0  0  0  0  0  0  0  0  0  0
    3.9937  -13.8772    1.3351 H   0  0  0  0  0  0  0  0  0  0  0  0
    2.8626  -15.5023   -0.9263 H   0  0  0  0  0  0  0  0  0  0  0  0
    3.4729  -15.9999    0.7105 H   0  0  0  0  0  0  0  0  0  0  0  0
    1.5036  -14.9088    1.7522 H   0  0  0  0  0  0  0  0  0  0  0  0
   -0.1619  -15.3201   -1.7206 H   0  0  0  0  0  0  0  0  0  0  0  0
   -0.1032  -13.5535   -2.0405 H   0  0  0  0  0  0  0  0  0  0  0  0
    1.4128  -14.5172   -2.0405 H   0  0  0  0  0  0  0  0  0  0  0  0
   -0.6257  -13.6420    1.6474 H   0  0  0  0  0  0  0  0  0  0  0  0
   -1.7298  -12.8741    3.0844 H   0  0  0  0  0  0  0  0  0  0  0  0
   -1.0614  -10.9660    4.5475 H   0  0  0  0  0  0  0  0  0  0  0  0
   -1.2966   -8.6224    3.7289 H   0  0  0  0  0  0  0  0  0  0  0  0
   -2.2030   -8.1794    1.4488 H   0  0  0  0  0  0  0  0  0  0  0  0
   -2.8772  -10.0813   -0.0183 H   0  0  0  0  0  0  0  0  0  0  0  0
   -1.5810  -15.8185   -0.2610 H   0  0  0  0  0  0  0  0  0  0  0  0
   -2.8470  -14.3760    1.7060 H   0  0  0  0  0  0  0  0  0  0  0  0
   -1.6629  -18.0148    2.7024 H   0  0  0  0  0  0  0  0  0  0  0  0
   -2.4570  -17.5868    1.1491 H   0  0  0  0  0  0  0  0  0  0  0  0
   -0.9624  -18.5832    1.1491 H   0  0  0  0  0  0  0  0  0  0  0  0
   -1.4440  -17.5087    4.5834 H   0  0  0  0  0  0  0  0  0  0  0  0
   -0.1666  -18.6330    4.0812 H   0  0  0  0  0  0  0  0  0  0  0  0
   -0.3559  -14.8788    5.0986 H   0  0  0  0  0  0  0  0  0  0  0  0
    1.3825  -14.8725    4.8855 H   0  0  0  0  0  0  0  0  0  0  0  0
    2.3492  -16.0328    3.2076 H   0  0  0  0  0  0  0  0  0  0  0  0
    2.1718  -17.6589    3.9842 H   0  0  0  0  0  0  0  0  0  0  0  0
    1.0054  -18.5072    2.0458 H   0  0  0  0  0  0  0  0  0  0  0  0
    4.6410  -18.1177   -0.5442 H   0  0  0  0  0  0  0  0  0  0  0  0
    7.0402  -18.5745   -1.1315 H   0  0  0  0  0  0  0  0  0  0  0  0
    8.3506  -20.1133    0.2844 H   0  0  0  0  0  0  0  0  0  0  0  0
    5.0515  -20.7738    2.8075 H   0  0  0  0  0  0  0  0  0  0  0  0
    0.6028  -18.5403   -0.1926 H   0  0  0  0  0  0  0  0  0  0  0  0
   -0.1610  -17.1267   -0.9957 H   0  0  0  0  0  0  0  0  0  0  0  0
    1.6267  -17.3021   -0.9957 H   0  0  0  0  0  0  0  0  0  0  0  0
  1  2  1  0
  2  3  2  0
  3  4  1  0
  4  5  1  0
  5  6  1  0
  6  7  1  0
  7  8  1  6
  7  9  1  0
  9 10  1  0
 10 11  1  0
 11 12  2  0
 11 13  1  0
 13 14  2  0
 14 15  1  0
 15 16  2  0
 16 17  1  0
 17 18  2  0
  9 19  1  0
 19 20  1  0
 19 21  1  0
 21 22  1  1
 21 23  1  0
 24 23  1  6
 24 25  1  0
 25 26  1  0
 26 27  1  0
 27 28  2  0
 27 29  1  0
 24 30  1  0
 30 31  1  0
 31 32  1  0
 32 33  1  0
 33 34  2  0
 33 35  1  0
 35 36  2  0
 36 37  1  0
 37 38  2  0
 38 39  1  0
 39 40  2  0
 31 41  1  0
 41 42  1  6
  7  2  1  0
 18 13  1  0
 41 21  1  0
 41  6  1  0
 29 24  1  0
 40 35  1  0
  1 43  1  0
  1 44  1  0
  1 45  1  0
  3 46  1  0
  4 47  1  0
  4 48  1  0
  5 49  1  0
  5 50  1  0
  6 51  1  1
  8 52  1  0
  8 53  1  0
  8 54  1  0
  9 55  1  1
 14 56  1  0
 15 57  1  0
 16 58  1  0
 17 59  1  0
 18 60  1  0
 19 61  1  6
 20 62  1  0
 22 63  1  0
 22 64  1  0
 22 65  1  0
 25 66  1  0
 25 67  1  0
 29 68  1  0
 29 69  1  0
 30 70  1  0
 30 71  1  0
 31 72  1  1
 36 73  1  0
 37 74  1  0
 38 75  1  0
 40 76  1  0
 42 77  1  0
 42 78  1  0
 42 79  1  0
M  END
>  <meeko>  (9) 
{"is_sidechain": [false], "free_energy": -8.173, "intermolecular_energy": -11.354, "internal_energy": -1.282}

$$$$
