LIB_TZQNHHGKGQGOOH__M_PUB_ALL__e8__s20260927
     RDKit          3D

 58 61  0  0  0  0  0  0  0  0999 V2000
    7.4880   -9.8940  -11.3730 N   0  0  0  0  0  0  0  0  0  0  0  0
    7.4530  -10.9830  -10.9770 C   0  0  0  0  0  0  0  0  0  0  0  0
    7.3970  -12.3190  -10.4570 C   0  0  0  0  0  0  0  0  0  0  0  0
    7.7510  -13.4070  -11.2590 C   0  0  0  0  0  0  0  0  0  0  0  0
    7.6800  -14.7060  -10.7480 C   0  0  0  0  0  0  0  0  0  0  0  0
    7.2640  -14.9220   -9.4320 C   0  0  0  0  0  0  0  0  0  0  0  0
    6.9260  -13.8330   -8.6180 C   0  0  0  0  0  0  0  0  0  0  0  0
    6.4660  -14.0110   -7.2110 C   0  0  0  0  0  0  0  0  0  0  0  0
    6.3160  -15.1550   -6.7860 O   0  0  0  0  0  0  0  0  0  0  0  0
    6.1770  -12.8400   -6.5290 N   0  0  0  0  0  0  0  0  0  0  0  0
    5.8250  -12.7330   -5.1660 C   0  0  0  0  0  0  0  0  0  0  0  0
    6.5870  -13.3030   -4.1410 C   0  0  0  0  0  0  0  0  0  0  0  0
    6.1780  -13.2850   -2.8010 C   0  0  0  0  0  0  0  0  0  0  0  0
    6.8820  -13.9400   -1.7970 N   0  0  0  0  0  0  0  0  0  0  0  0
    8.0370  -14.7410   -2.1910 C   0  0  0  0  0  0  0  0  0  0  0  0
    9.2540  -13.8220   -2.1790 C   0  0  0  0  0  0  0  0  0  0  0  0
    9.4090  -13.1410   -0.8100 C   0  0  0  0  0  0  0  0  0  0  0  0
   10.5170  -12.0890   -0.9170 N   0  0  0  0  0  0  0  0  0  0  0  0
   11.2140  -11.6880    0.3870 C   0  0  0  0  0  0  0  0  0  0  0  0
   12.6880  -11.9300    0.1240 C   0  0  0  0  0  0  0  0  0  0  0  0
   12.8270  -11.6900   -1.3660 C   0  0  0  0  0  0  0  0  0  0  0  0
   11.6040  -12.3830   -1.9320 C   0  0  0  0  0  0  0  0  0  0  0  0
    8.1260  -12.5470   -0.2060 C   0  0  0  0  0  0  0  0  0  0  0  0
    6.9080  -13.4430   -0.4260 C   0  0  0  0  0  0  0  0  0  0  0  0
    4.9940  -12.5990   -2.5060 C   0  0  0  0  0  0  0  0  0  0  0  0
    4.2430  -11.9510   -3.5030 C   0  0  0  0  0  0  0  0  0  0  0  0
    2.9720  -11.2250   -3.1390 C   0  0  0  0  0  0  0  0  0  0  0  0
    2.7550  -11.2220   -1.7960 F   0  0  0  0  0  0  0  0  0  0  0  0
    2.9730   -9.9210   -3.5260 F   0  0  0  0  0  0  0  0  0  0  0  0
    1.8620  -11.7830   -3.6990 F   0  0  0  0  0  0  0  0  0  0  0  0
    4.6660  -12.0330   -4.8370 C   0  0  0  0  0  0  0  0  0  0  0  0
    6.9830  -12.5320   -9.1380 C   0  0  0  0  0  0  0  0  0  0  0  0
    8.0859  -13.2411  -12.2936 H   0  0  0  0  0  0  0  0  0  0  0  0
    7.9526  -15.5610  -11.3841 H   0  0  0  0  0  0  0  0  0  0  0  0
    7.2019  -15.9461   -9.0353 H   0  0  0  0  0  0  0  0  0  0  0  0
    6.1190  -11.9860   -7.0720 H   0  0  0  0  0  0  0  0  0  0  0  0
    7.5431  -13.7833   -4.3964 H   0  0  0  0  0  0  0  0  0  0  0  0
    8.1824  -15.5669   -1.4792 H   0  0  0  0  0  0  0  0  0  0  0  0
    7.8868  -15.1740   -3.1910 H   0  0  0  0  0  0  0  0  0  0  0  0
   10.1559  -14.4149   -2.3912 H   0  0  0  0  0  0  0  0  0  0  0  0
    9.1175  -13.0455   -2.9461 H   0  0  0  0  0  0  0  0  0  0  0  0
    9.6757  -13.9338   -0.0956 H   0  0  0  0  0  0  0  0  0  0  0  0
   10.0600  -11.2300   -1.2510 H   0  0  0  0  0  0  0  0  0  0  0  0
   11.0294  -10.6280    0.6158 H   0  0  0  0  0  0  0  0  0  0  0  0
   10.8450  -12.2613    1.2502 H   0  0  0  0  0  0  0  0  0  0  0  0
   13.3100  -11.2252    0.6953 H   0  0  0  0  0  0  0  0  0  0  0  0
   13.0177  -12.9344    0.4282 H   0  0  0  0  0  0  0  0  0  0  0  0
   12.8158  -10.6146   -1.5971 H   0  0  0  0  0  0  0  0  0  0  0  0
   13.7731  -12.0667   -1.7819 H   0  0  0  0  0  0  0  0  0  0  0  0
   11.3414  -11.9708   -2.9174 H   0  0  0  0  0  0  0  0  0  0  0  0
   11.7602  -13.4608   -2.0866 H   0  0  0  0  0  0  0  0  0  0  0  0
    8.2745  -12.4124    0.8756 H   0  0  0  0  0  0  0  0  0  0  0  0
    7.9317  -11.5884   -0.7093 H   0  0  0  0  0  0  0  0  0  0  0  0
    6.9555  -14.2955    0.2675 H   0  0  0  0  0  0  0  0  0  0  0  0
    5.9960  -12.8560   -0.2424 H   0  0  0  0  0  0  0  0  0  0  0  0
    4.6409  -12.5658   -1.4647 H   0  0  0  0  0  0  0  0  0  0  0  0
    4.0800  -11.5422   -5.6280 H   0  0  0  0  0  0  0  0  0  0  0  0
    6.7013  -11.6763   -8.5067 H   0  0  0  0  0  0  0  0  0  0  0  0
  1  2  3  0
  2  3  1  0
  3  4  2  0
  4  5  1  0
  5  6  2  0
  6  7  1  0
  7  8  1  0
  8  9  2  0
  8 10  1  0
 10 11  1  0
 11 12  2  0
 12 13  1  0
 13 14  1  0
 14 15  1  0
 15 16  1  0
 16 17  1  0
 17 18  1  0
 18 19  1  0
 19 20  1  0
 20 21  1  0
 21 22  1  0
 17 23  1  0
 23 24  1  0
 13 25  2  0
 25 26  1  0
 26 27  1  0
 27 28  1  0
 27 29  1  0
 27 30  1  0
 26 31  2  0
  7 32  2  0
 32  3  1  0
 31 11  1  0
 24 14  1  0
 22 18  1  0
  4 33  1  0
  5 34  1  0
  6 35  1  0
 10 36  1  0
 12 37  1  0
 15 38  1  0
 15 39  1  0
 16 40  1  0
 16 41  1  0
 17 42  1  0
 18 43  1  0
 19 44  1  0
 19 45  1  0
 20 46  1  0
 20 47  1  0
 21 48  1  0
 21 49  1  0
 22 50  1  0
 22 51  1  0
 23 52  1  0
 23 53  1  0
 24 54  1  0
 24 55  1  0
 25 56  1  0
 31 57  1  0
 32 58  1  0
M  CHG  1  18   1
M  END
>  <meeko>  (1) 
{"is_sidechain": [false], "free_energy": -8.711, "intermolecular_energy": -11.257, "internal_energy": -0.997}

$$$$
LIB_TZQNHHGKGQGOOH__M_PUB_ALL__e8__s20260927
     RDKit          3D

 58 61  0  0  0  0  0  0  0  0999 V2000
   16.8240  -15.8920   -8.4810 N   0  0  0  0  0  0  0  0  0  0  0  0
   15.7470  -15.5430   -8.2300 C   0  0  0  0  0  0  0  0  0  0  0  0
   14.4230  -15.1140   -7.8860 C   0  0  0  0  0  0  0  0  0  0  0  0
   13.5080  -14.7680   -8.8850 C   0  0  0  0  0  0  0  0  0  0  0  0
   12.2240  -14.3390   -8.5400 C   0  0  0  0  0  0  0  0  0  0  0  0
   11.8460  -14.2600   -7.1970 C   0  0  0  0  0  0  0  0  0  0  0  0
   12.7530  -14.6230   -6.1930 C   0  0  0  0  0  0  0  0  0  0  0  0
   12.4030  -14.5460   -4.7460 C   0  0  0  0  0  0  0  0  0  0  0  0
   12.8900  -15.3770   -3.9820 O   0  0  0  0  0  0  0  0  0  0  0  0
   11.4830  -13.5660   -4.4100 N   0  0  0  0  0  0  0  0  0  0  0  0
   11.0670  -13.2240   -3.1040 C   0  0  0  0  0  0  0  0  0  0  0  0
    9.7990  -13.5420   -2.6070 C   0  0  0  0  0  0  0  0  0  0  0  0
    9.3540  -13.1100   -1.3510 C   0  0  0  0  0  0  0  0  0  0  0  0
    8.0590  -13.3360   -0.8990 N   0  0  0  0  0  0  0  0  0  0  0  0
    7.3860  -12.2470   -0.1980 C   0  0  0  0  0  0  0  0  0  0  0  0
    6.6660  -11.4070   -1.2480 C   0  0  0  0  0  0  0  0  0  0  0  0
    5.7230  -12.2800   -2.0910 C   0  0  0  0  0  0  0  0  0  0  0  0
    5.1830  -11.4300   -3.2460 N   0  0  0  0  0  0  0  0  0  0  0  0
    5.4010  -11.9740   -4.6600 C   0  0  0  0  0  0  0  0  0  0  0  0
    4.0130  -12.0260   -5.2690 C   0  0  0  0  0  0  0  0  0  0  0  0
    3.2810  -10.8920   -4.5820 C   0  0  0  0  0  0  0  0  0  0  0  0
    3.7240  -11.0310   -3.1400 C   0  0  0  0  0  0  0  0  0  0  0  0
    6.3080  -13.6080   -2.5950 C   0  0  0  0  0  0  0  0  0  0  0  0
    7.1760  -14.3010   -1.5450 C   0  0  0  0  0  0  0  0  0  0  0  0
   10.2660  -12.3980   -0.5630 C   0  0  0  0  0  0  0  0  0  0  0  0
   11.5740  -12.1260   -1.0020 C   0  0  0  0  0  0  0  0  0  0  0  0
   12.5230  -11.3530   -0.1200 C   0  0  0  0  0  0  0  0  0  0  0  0
   13.4080  -12.1710    0.5120 F   0  0  0  0  0  0  0  0  0  0  0  0
   13.2680  -10.4450   -0.8070 F   0  0  0  0  0  0  0  0  0  0  0  0
   11.8870  -10.6540    0.8610 F   0  0  0  0  0  0  0  0  0  0  0  0
   11.9620  -12.5390   -2.2850 C   0  0  0  0  0  0  0  0  0  0  0  0
   14.0460  -15.0390   -6.5410 C   0  0  0  0  0  0  0  0  0  0  0  0
   13.7994  -14.8336   -9.9437 H   0  0  0  0  0  0  0  0  0  0  0  0
   11.5082  -14.0625   -9.3281 H   0  0  0  0  0  0  0  0  0  0  0  0
   10.8373  -13.9131   -6.9285 H   0  0  0  0  0  0  0  0  0  0  0  0
   10.9880  -13.1100   -5.1680 H   0  0  0  0  0  0  0  0  0  0  0  0
    9.1261  -14.1541   -3.2254 H   0  0  0  0  0  0  0  0  0  0  0  0
    6.6597  -12.6542    0.5208 H   0  0  0  0  0  0  0  0  0  0  0  0
    8.1114  -11.6357    0.3588 H   0  0  0  0  0  0  0  0  0  0  0  0
    6.0794  -10.6247   -0.7441 H   0  0  0  0  0  0  0  0  0  0  0  0
    7.4162  -10.9539   -1.9128 H   0  0  0  0  0  0  0  0  0  0  0  0
    4.9147  -12.6051   -1.4195 H   0  0  0  0  0  0  0  0  0  0  0  0
    5.7080  -10.5460   -3.2160 H   0  0  0  0  0  0  0  0  0  0  0  0
    6.0535  -11.3029   -5.2378 H   0  0  0  0  0  0  0  0  0  0  0  0
    5.8919  -12.9584   -4.6568 H   0  0  0  0  0  0  0  0  0  0  0  0
    4.0547  -11.8650   -6.3564 H   0  0  0  0  0  0  0  0  0  0  0  0
    3.5207  -12.9997   -5.1293 H   0  0  0  0  0  0  0  0  0  0  0  0
    3.5809   -9.9182   -4.9965 H   0  0  0  0  0  0  0  0  0  0  0  0
    2.1893  -10.9386   -4.7085 H   0  0  0  0  0  0  0  0  0  0  0  0
    3.6168  -10.0767   -2.6035 H   0  0  0  0  0  0  0  0  0  0  0  0
    3.1230  -11.7620   -2.5792 H   0  0  0  0  0  0  0  0  0  0  0  0
    5.4791  -14.2785   -2.8658 H   0  0  0  0  0  0  0  0  0  0  0  0
    6.9468  -13.3842   -3.4621 H   0  0  0  0  0  0  0  0  0  0  0  0
    6.5275  -14.7636   -0.7864 H   0  0  0  0  0  0  0  0  0  0  0  0
    7.7878  -15.0704   -2.0386 H   0  0  0  0  0  0  0  0  0  0  0  0
    9.9503  -12.0409    0.4284 H   0  0  0  0  0  0  0  0  0  0  0  0
   12.9778  -12.3210   -2.6463 H   0  0  0  0  0  0  0  0  0  0  0  0
   14.7661  -15.3072   -5.7539 H   0  0  0  0  0  0  0  0  0  0  0  0
  1  2  3  0
  2  3  1  0
  3  4  2  0
  4  5  1  0
  5  6  2  0
  6  7  1  0
  7  8  1  0
  8  9  2  0
  8 10  1  0
 10 11  1  0
 11 12  2  0
 12 13  1  0
 13 14  1  0
 14 15  1  0
 15 16  1  0
 16 17  1  0
 17 18  1  0
 18 19  1  0
 19 20  1  0
 20 21  1  0
 21 22  1  0
 17 23  1  0
 23 24  1  0
 13 25  2  0
 25 26  1  0
 26 27  1  0
 27 28  1  0
 27 29  1  0
 27 30  1  0
 26 31  2  0
  7 32  2  0
 32  3  1  0
 31 11  1  0
 24 14  1  0
 22 18  1  0
  4 33  1  0
  5 34  1  0
  6 35  1  0
 10 36  1  0
 12 37  1  0
 15 38  1  0
 15 39  1  0
 16 40  1  0
 16 41  1  0
 17 42  1  0
 18 43  1  0
 19 44  1  0
 19 45  1  0
 20 46  1  0
 20 47  1  0
 21 48  1  0
 21 49  1  0
 22 50  1  0
 22 51  1  0
 23 52  1  0
 23 53  1  0
 24 54  1  0
 24 55  1  0
 25 56  1  0
 31 57  1  0
 32 58  1  0
M  CHG  1  18   1
M  END
>  <meeko>  (2) 
{"is_sidechain": [false], "free_energy": -8.529, "intermolecular_energy": -10.838, "internal_energy": -1.182}

$$$$
LIB_TZQNHHGKGQGOOH__M_PUB_ALL__e8__s20260927
     RDKit          3D

 58 61  0  0  0  0  0  0  0  0999 V2000
   -2.2420  -18.5790    2.4800 N   0  0  0  0  0  0  0  0  0  0  0  0
   -2.7100  -18.0980    3.4260 C   0  0  0  0  0  0  0  0  0  0  0  0
   -3.3190  -17.5110    4.5840 C   0  0  0  0  0  0  0  0  0  0  0  0
   -2.5300  -17.0150    5.6260 C   0  0  0  0  0  0  0  0  0  0  0  0
   -3.1330  -16.4560    6.7560 C   0  0  0  0  0  0  0  0  0  0  0  0
   -4.5250  -16.3850    6.8470 C   0  0  0  0  0  0  0  0  0  0  0  0
   -5.3200  -16.8640    5.7980 C   0  0  0  0  0  0  0  0  0  0  0  0
   -6.8090  -16.8200    5.8510 C   0  0  0  0  0  0  0  0  0  0  0  0
   -7.4120  -16.2810    4.9250 O   0  0  0  0  0  0  0  0  0  0  0  0
   -7.3770  -17.3410    7.0030 N   0  0  0  0  0  0  0  0  0  0  0  0
   -8.7570  -17.5080    7.2510 C   0  0  0  0  0  0  0  0  0  0  0  0
   -9.4050  -18.7400    7.1200 C   0  0  0  0  0  0  0  0  0  0  0  0
  -10.7910  -18.8800    7.2640 C   0  0  0  0  0  0  0  0  0  0  0  0
  -11.4490  -20.0830    7.0320 N   0  0  0  0  0  0  0  0  0  0  0  0
  -10.6640  -21.1930    6.5010 C   0  0  0  0  0  0  0  0  0  0  0  0
  -10.0940  -21.9570    7.6920 C   0  0  0  0  0  0  0  0  0  0  0  0
  -11.2150  -22.3910    8.6490 C   0  0  0  0  0  0  0  0  0  0  0  0
  -10.5740  -22.9720    9.9130 N   0  0  0  0  0  0  0  0  0  0  0  0
  -10.3360  -22.0020   11.0730 C   0  0  0  0  0  0  0  0  0  0  0  0
  -11.0440  -22.6360   12.2550 C   0  0  0  0  0  0  0  0  0  0  0  0
  -10.9480  -24.1210   11.9700 C   0  0  0  0  0  0  0  0  0  0  0  0
  -11.2540  -24.1990   10.4880 C   0  0  0  0  0  0  0  0  0  0  0  0
  -12.2590  -21.3160    8.9920 C   0  0  0  0  0  0  0  0  0  0  0  0
  -12.6410  -20.4650    7.7810 C   0  0  0  0  0  0  0  0  0  0  0  0
  -11.5120  -17.7360    7.6250 C   0  0  0  0  0  0  0  0  0  0  0  0
  -10.8810  -16.4970    7.8390 C   0  0  0  0  0  0  0  0  0  0  0  0
  -11.6980  -15.2890    8.2240 C   0  0  0  0  0  0  0  0  0  0  0  0
  -10.9930  -14.4290    9.0070 F   0  0  0  0  0  0  0  0  0  0  0  0
  -12.1200  -14.5670    7.1510 F   0  0  0  0  0  0  0  0  0  0  0  0
  -12.8200  -15.6080    8.9280 F   0  0  0  0  0  0  0  0  0  0  0  0
   -9.4970  -16.3930    7.6390 C   0  0  0  0  0  0  0  0  0  0  0  0
   -4.7130  -17.4370    4.6710 C   0  0  0  0  0  0  0  0  0  0  0  0
   -1.4333  -17.0648    5.5564 H   0  0  0  0  0  0  0  0  0  0  0  0
   -2.5095  -16.0707    7.5763 H   0  0  0  0  0  0  0  0  0  0  0  0
   -4.9966  -15.9531    7.7420 H   0  0  0  0  0  0  0  0  0  0  0  0
   -6.7580  -17.5360    7.7810 H   0  0  0  0  0  0  0  0  0  0  0  0
   -8.8034  -19.6331    6.8953 H   0  0  0  0  0  0  0  0  0  0  0  0
  -11.3061  -21.8551    5.9016 H   0  0  0  0  0  0  0  0  0  0  0  0
   -9.8557  -20.8231    5.8530 H   0  0  0  0  0  0  0  0  0  0  0  0
   -9.5649  -22.8500    7.3278 H   0  0  0  0  0  0  0  0  0  0  0  0
   -9.4020  -21.2971    8.2358 H   0  0  0  0  0  0  0  0  0  0  0  0
  -11.8052  -23.1492    8.1135 H   0  0  0  0  0  0  0  0  0  0  0  0
   -9.6350  -23.2890    9.6330 H   0  0  0  0  0  0  0  0  0  0  0  0
   -9.2601  -21.8964   11.2761 H   0  0  0  0  0  0  0  0  0  0  0  0
  -10.7122  -20.9916   10.8550 H   0  0  0  0  0  0  0  0  0  0  0  0
  -10.5378  -22.3832   13.1983 H   0  0  0  0  0  0  0  0  0  0  0  0
  -12.0812  -22.2881   12.3701 H   0  0  0  0  0  0  0  0  0  0  0  0
   -9.9390  -24.5016   12.1868 H   0  0  0  0  0  0  0  0  0  0  0  0
  -11.6269  -24.7276   12.5873 H   0  0  0  0  0  0  0  0  0  0  0  0
  -10.8386  -25.1186   10.0500 H   0  0  0  0  0  0  0  0  0  0  0  0
  -12.3333  -24.2250   10.2774 H   0  0  0  0  0  0  0  0  0  0  0  0
  -13.1634  -21.8117    9.3745 H   0  0  0  0  0  0  0  0  0  0  0  0
  -11.8159  -20.6473    9.7447 H   0  0  0  0  0  0  0  0  0  0  0  0
  -13.3097  -21.0442    7.1273 H   0  0  0  0  0  0  0  0  0  0  0  0
  -13.1499  -19.5546    8.1307 H   0  0  0  0  0  0  0  0  0  0  0  0
  -12.6031  -17.8077    7.7448 H   0  0  0  0  0  0  0  0  0  0  0  0
   -8.9932  -15.4267    7.7891 H   0  0  0  0  0  0  0  0  0  0  0  0
   -5.3351  -17.8294    3.8530 H   0  0  0  0  0  0  0  0  0  0  0  0
  1  2  3  0
  2  3  1  0
  3  4  2  0
  4  5  1  0
  5  6  2  0
  6  7  1  0
  7  8  1  0
  8  9  2  0
  8 10  1  0
 10 11  1  0
 11 12  2  0
 12 13  1  0
 13 14  1  0
 14 15  1  0
 15 16  1  0
 16 17  1  0
 17 18  1  0
 18 19  1  0
 19 20  1  0
 20 21  1  0
 21 22  1  0
 17 23  1  0
 23 24  1  0
 13 25  2  0
 25 26  1  0
 26 27  1  0
 27 28  1  0
 27 29  1  0
 27 30  1  0
 26 31  2  0
  7 32  2  0
 32  3  1  0
 31 11  1  0
 24 14  1  0
 22 18  1  0
  4 33  1  0
  5 34  1  0
  6 35  1  0
 10 36  1  0
 12 37  1  0
 15 38  1  0
 15 39  1  0
 16 40  1  0
 16 41  1  0
 17 42  1  0
 18 43  1  0
 19 44  1  0
 19 45  1  0
 20 46  1  0
 20 47  1  0
 21 48  1  0
 21 49  1  0
 22 50  1  0
 22 51  1  0
 23 52  1  0
 23 53  1  0
 24 54  1  0
 24 55  1  0
 25 56  1  0
 31 57  1  0
 32 58  1  0
M  CHG  1  18   1
M  END
>  <meeko>  (3) 
{"is_sidechain": [false], "free_energy": -8.529, "intermolecular_energy": -10.956, "internal_energy": -1.063}

$$$$
LIB_TZQNHHGKGQGOOH__M_PUB_ALL__e8__s20260927
     RDKit          3D

 58 61  0  0  0  0  0  0  0  0999 V2000
   19.4000  -10.5220   15.7490 N   0  0  0  0  0  0  0  0  0  0  0  0
   18.8030  -10.0000   14.9020 C   0  0  0  0  0  0  0  0  0  0  0  0
   18.0380   -9.3700   13.8660 C   0  0  0  0  0  0  0  0  0  0  0  0
   18.6250   -8.4130   13.0330 C   0  0  0  0  0  0  0  0  0  0  0  0
   17.8670   -7.7960   12.0340 C   0  0  0  0  0  0  0  0  0  0  0  0
   16.5240   -8.1360   11.8590 C   0  0  0  0  0  0  0  0  0  0  0  0
   15.9360   -9.1080   12.6790 C   0  0  0  0  0  0  0  0  0  0  0  0
   14.5040   -9.4980   12.5400 C   0  0  0  0  0  0  0  0  0  0  0  0
   13.9420   -9.2840   11.4670 O   0  0  0  0  0  0  0  0  0  0  0  0
   13.9150  -10.0110   13.6850 N   0  0  0  0  0  0  0  0  0  0  0  0
   12.6120  -10.5440   13.7850 C   0  0  0  0  0  0  0  0  0  0  0  0
   11.6360  -10.0050   14.6300 C   0  0  0  0  0  0  0  0  0  0  0  0
   10.3800  -10.6000   14.8050 C   0  0  0  0  0  0  0  0  0  0  0  0
    9.4490  -10.1240   15.7210 N   0  0  0  0  0  0  0  0  0  0  0  0
    9.4540   -8.6930   16.0100 C   0  0  0  0  0  0  0  0  0  0  0  0
    8.5200   -8.0240   15.0060 C   0  0  0  0  0  0  0  0  0  0  0  0
    7.1230   -8.6630   15.0510 C   0  0  0  0  0  0  0  0  0  0  0  0
    6.2940   -8.0930   13.8950 N   0  0  0  0  0  0  0  0  0  0  0  0
    4.8120   -8.4750   13.8570 C   0  0  0  0  0  0  0  0  0  0  0  0
    4.0750   -7.1500   13.8210 C   0  0  0  0  0  0  0  0  0  0  0  0
    5.0350   -6.2290   13.0970 C   0  0  0  0  0  0  0  0  0  0  0  0
    6.3730   -6.5900   13.7110 C   0  0  0  0  0  0  0  0  0  0  0  0
    7.0870  -10.1990   15.0650 C   0  0  0  0  0  0  0  0  0  0  0  0
    8.1780  -10.8020   15.9490 C   0  0  0  0  0  0  0  0  0  0  0  0
   10.1000  -11.7340   14.0330 C   0  0  0  0  0  0  0  0  0  0  0  0
   11.0310  -12.2580   13.1190 C   0  0  0  0  0  0  0  0  0  0  0  0
   10.6870  -13.4840   12.3100 C   0  0  0  0  0  0  0  0  0  0  0  0
   10.3370  -14.5330   13.1020 F   0  0  0  0  0  0  0  0  0  0  0  0
    9.6440  -13.2860   11.4590 F   0  0  0  0  0  0  0  0  0  0  0  0
   11.7220  -13.9220   11.5400 F   0  0  0  0  0  0  0  0  0  0  0  0
   12.2930  -11.6570   13.0090 C   0  0  0  0  0  0  0  0  0  0  0  0
   16.6940   -9.7150   13.6900 C   0  0  0  0  0  0  0  0  0  0  0  0
   19.6839   -8.1455   13.1639 H   0  0  0  0  0  0  0  0  0  0  0  0
   18.3301   -7.0397   11.3831 H   0  0  0  0  0  0  0  0  0  0  0  0
   15.9282   -7.6411   11.0779 H   0  0  0  0  0  0  0  0  0  0  0  0
   14.4240   -9.9130   14.5560 H   0  0  0  0  0  0  0  0  0  0  0  0
   11.8636   -9.0787   15.1779 H   0  0  0  0  0  0  0  0  0  0  0  0
    9.0954   -8.5146   17.0345 H   0  0  0  0  0  0  0  0  0  0  0  0
   10.4714   -8.2828   15.9286 H   0  0  0  0  0  0  0  0  0  0  0  0
    8.4355   -6.9545   15.2491 H   0  0  0  0  0  0  0  0  0  0  0  0
    8.9355   -8.1552   13.9960 H   0  0  0  0  0  0  0  0  0  0  0  0
    6.6892   -8.3962   16.0260 H   0  0  0  0  0  0  0  0  0  0  0  0
    6.6950   -8.4920   13.0360 H   0  0  0  0  0  0  0  0  0  0  0  0
    4.5871   -9.0687   12.9587 H   0  0  0  0  0  0  0  0  0  0  0  0
    4.5184   -9.0918   14.7192 H   0  0  0  0  0  0  0  0  0  0  0  0
    3.1277   -7.2422   13.2695 H   0  0  0  0  0  0  0  0  0  0  0  0
    3.8040   -6.7839   14.8223 H   0  0  0  0  0  0  0  0  0  0  0  0
    5.0304   -6.4234   12.0143 H   0  0  0  0  0  0  0  0  0  0  0  0
    4.7803   -5.1641   13.2023 H   0  0  0  0  0  0  0  0  0  0  0  0
    7.1990   -6.3209   13.0362 H   0  0  0  0  0  0  0  0  0  0  0  0
    6.5661   -6.0561   14.6531 H   0  0  0  0  0  0  0  0  0  0  0  0
    6.1067  -10.5254   15.4424 H   0  0  0  0  0  0  0  0  0  0  0  0
    7.2605  -10.5467   14.0359 H   0  0  0  0  0  0  0  0  0  0  0  0
    7.8918  -10.6902   17.0052 H   0  0  0  0  0  0  0  0  0  0  0  0
    8.2917  -11.8672   15.6992 H   0  0  0  0  0  0  0  0  0  0  0  0
    9.1240  -12.2290   14.1447 H   0  0  0  0  0  0  0  0  0  0  0  0
   13.0347  -12.0658   12.3070 H   0  0  0  0  0  0  0  0  0  0  0  0
   16.2302  -10.4653   14.3472 H   0  0  0  0  0  0  0  0  0  0  0  0
  1  2  3  0
  2  3  1  0
  3  4  2  0
  4  5  1  0
  5  6  2  0
  6  7  1  0
  7  8  1  0
  8  9  2  0
  8 10  1  0
 10 11  1  0
 11 12  2  0
 12 13  1  0
 13 14  1  0
 14 15  1  0
 15 16  1  0
 16 17  1  0
 17 18  1  0
 18 19  1  0
 19 20  1  0
 20 21  1  0
 21 22  1  0
 17 23  1  0
 23 24  1  0
 13 25  2  0
 25 26  1  0
 26 27  1  0
 27 28  1  0
 27 29  1  0
 27 30  1  0
 26 31  2  0
  7 32  2  0
 32  3  1  0
 31 11  1  0
 24 14  1  0
 22 18  1  0
  4 33  1  0
  5 34  1  0
  6 35  1  0
 10 36  1  0
 12 37  1  0
 15 38  1  0
 15 39  1  0
 16 40  1  0
 16 41  1  0
 17 42  1  0
 18 43  1  0
 19 44  1  0
 19 45  1  0
 20 46  1  0
 20 47  1  0
 21 48  1  0
 21 49  1  0
 22 50  1  0
 22 51  1  0
 23 52  1  0
 23 53  1  0
 24 54  1  0
 24 55  1  0
 25 56  1  0
 31 57  1  0
 32 58  1  0
M  CHG  1  18   1
M  END
>  <meeko>  (4) 
{"is_sidechain": [false], "free_energy": -8.469, "intermolecular_energy": -10.814, "internal_energy": -1.128}

$$$$
LIB_TZQNHHGKGQGOOH__M_PUB_ALL__e8__s20260927
     RDKit          3D

 58 61  0  0  0  0  0  0  0  0999 V2000
   14.5910  -15.4620   -6.2320 N   0  0  0  0  0  0  0  0  0  0  0  0
   14.1540  -14.6870   -5.4890 C   0  0  0  0  0  0  0  0  0  0  0  0
   13.5830  -13.7450   -4.5690 C   0  0  0  0  0  0  0  0  0  0  0  0
   14.3570  -12.7030   -4.0500 C   0  0  0  0  0  0  0  0  0  0  0  0
   13.7970  -11.7990   -3.1450 C   0  0  0  0  0  0  0  0  0  0  0  0
   12.4600  -11.9270   -2.7600 C   0  0  0  0  0  0  0  0  0  0  0  0
   11.6750  -12.9580   -3.2910 C   0  0  0  0  0  0  0  0  0  0  0  0
   10.2470  -13.1440   -2.9040 C   0  0  0  0  0  0  0  0  0  0  0  0
    9.8270  -14.2890   -2.7520 O   0  0  0  0  0  0  0  0  0  0  0  0
    9.4990  -11.9800   -2.8230 N   0  0  0  0  0  0  0  0  0  0  0  0
    8.1620  -11.8770   -2.3810 C   0  0  0  0  0  0  0  0  0  0  0  0
    7.0700  -11.9440   -3.2520 C   0  0  0  0  0  0  0  0  0  0  0  0
    5.7520  -11.7360   -2.8230 C   0  0  0  0  0  0  0  0  0  0  0  0
    4.6770  -11.6990   -3.7040 N   0  0  0  0  0  0  0  0  0  0  0  0
    4.6780  -12.6480   -4.8130 C   0  0  0  0  0  0  0  0  0  0  0  0
    3.9860  -13.9170   -4.3260 C   0  0  0  0  0  0  0  0  0  0  0  0
    2.5840  -13.5990   -3.7810 C   0  0  0  0  0  0  0  0  0  0  0  0
    2.0210  -14.8650   -3.1290 N   0  0  0  0  0  0  0  0  0  0  0  0
    2.9350  -15.5960   -2.1420 C   0  0  0  0  0  0  0  0  0  0  0  0
    2.1240  -15.6890   -0.8640 C   0  0  0  0  0  0  0  0  0  0  0  0
    0.6930  -15.7520   -1.3560 C   0  0  0  0  0  0  0  0  0  0  0  0
    0.6700  -14.7110   -2.4570 C   0  0  0  0  0  0  0  0  0  0  0  0
    2.4900  -12.3890   -2.8370 C   0  0  0  0  0  0  0  0  0  0  0  0
    3.3620  -11.2210   -3.2940 C   0  0  0  0  0  0  0  0  0  0  0  0
    5.5540  -11.5290   -1.4530 C   0  0  0  0  0  0  0  0  0  0  0  0
    6.6230  -11.5320   -0.5390 C   0  0  0  0  0  0  0  0  0  0  0  0
    6.3620  -11.3020    0.9290 C   0  0  0  0  0  0  0  0  0  0  0  0
    7.1030  -12.1340    1.7110 F   0  0  0  0  0  0  0  0  0  0  0  0
    6.6600  -10.0370    1.3310 F   0  0  0  0  0  0  0  0  0  0  0  0
    5.0630  -11.5130    1.2780 F   0  0  0  0  0  0  0  0  0  0  0  0
    7.9300  -11.6990   -1.0180 C   0  0  0  0  0  0  0  0  0  0  0  0
   12.2440  -13.8730   -4.1880 C   0  0  0  0  0  0  0  0  0  0  0  0
   15.4084  -12.5951   -4.3549 H   0  0  0  0  0  0  0  0  0  0  0  0
   14.4103  -10.9836   -2.7339 H   0  0  0  0  0  0  0  0  0  0  0  0
   12.0243  -11.2184   -2.0403 H   0  0  0  0  0  0  0  0  0  0  0  0
    9.9090  -11.1340   -3.2010 H   0  0  0  0  0  0  0  0  0  0  0  0
    7.2522  -12.1683   -4.3134 H   0  0  0  0  0  0  0  0  0  0  0  0
    4.1314  -12.2264   -5.6695 H   0  0  0  0  0  0  0  0  0  0  0  0
    5.7062  -12.8657   -5.1378 H   0  0  0  0  0  0  0  0  0  0  0  0
    3.8954  -14.6230   -5.1647 H   0  0  0  0  0  0  0  0  0  0  0  0
    4.5871  -14.3584   -3.5174 H   0  0  0  0  0  0  0  0  0  0  0  0
    1.9760  -13.2886   -4.6435 H   0  0  0  0  0  0  0  0  0  0  0  0
    1.8670  -15.5330   -3.8960 H   0  0  0  0  0  0  0  0  0  0  0  0
    3.1863  -16.5995   -2.5160 H   0  0  0  0  0  0  0  0  0  0  0  0
    3.8901  -15.0714   -1.9919 H   0  0  0  0  0  0  0  0  0  0  0  0
    2.3852  -16.5952   -0.2978 H   0  0  0  0  0  0  0  0  0  0  0  0
    2.3048  -14.8467   -0.1800 H   0  0  0  0  0  0  0  0  0  0  0  0
    0.4531  -16.7506   -1.7499 H   0  0  0  0  0  0  0  0  0  0  0  0
   -0.0480  -15.5653   -0.5648 H   0  0  0  0  0  0  0  0  0  0  0  0
   -0.1459  -14.9099   -3.1674 H   0  0  0  0  0  0  0  0  0  0  0  0
    0.4977  -13.6933   -2.0766 H   0  0  0  0  0  0  0  0  0  0  0  0
    1.4433  -12.0532   -2.7972 H   0  0  0  0  0  0  0  0  0  0  0  0
    2.8505  -12.7081   -1.8479 H   0  0  0  0  0  0  0  0  0  0  0  0
    2.8778  -10.7180   -4.1441 H   0  0  0  0  0  0  0  0  0  0  0  0
    3.4829  -10.5170   -2.4575 H   0  0  0  0  0  0  0  0  0  0  0  0
    4.5331  -11.3591   -1.0804 H   0  0  0  0  0  0  0  0  0  0  0  0
    8.7761  -11.6895   -0.3152 H   0  0  0  0  0  0  0  0  0  0  0  0
   11.6348  -14.6944   -4.5934 H   0  0  0  0  0  0  0  0  0  0  0  0
  1  2  3  0
  2  3  1  0
  3  4  2  0
  4  5  1  0
  5  6  2  0
  6  7  1  0
  7  8  1  0
  8  9  2  0
  8 10  1  0
 10 11  1  0
 11 12  2  0
 12 13  1  0
 13 14  1  0
 14 15  1  0
 15 16  1  0
 16 17  1  0
 17 18  1  0
 18 19  1  0
 19 20  1  0
 20 21  1  0
 21 22  1  0
 17 23  1  0
 23 24  1  0
 13 25  2  0
 25 26  1  0
 26 27  1  0
 27 28  1  0
 27 29  1  0
 27 30  1  0
 26 31  2  0
  7 32  2  0
 32  3  1  0
 31 11  1  0
 24 14  1  0
 22 18  1  0
  4 33  1  0
  5 34  1  0
  6 35  1  0
 10 36  1  0
 12 37  1  0
 15 38  1  0
 15 39  1  0
 16 40  1  0
 16 41  1  0
 17 42  1  0
 18 43  1  0
 19 44  1  0
 19 45  1  0
 20 46  1  0
 20 47  1  0
 21 48  1  0
 21 49  1  0
 22 50  1  0
 22 51  1  0
 23 52  1  0
 23 53  1  0
 24 54  1  0
 24 55  1  0
 25 56  1  0
 31 57  1  0
 32 58  1  0
M  CHG  1  18   1
M  END
>  <meeko>  (5) 
{"is_sidechain": [false], "free_energy": -8.434, "intermolecular_energy": -10.558, "internal_energy": -1.339}

$$$$
LIB_TZQNHHGKGQGOOH__M_PUB_ALL__e8__s20260927
     RDKit          3D

 58 61  0  0  0  0  0  0  0  0999 V2000
   14.4510  -15.4740   -6.2330 N   0  0  0  0  0  0  0  0  0  0  0  0
   14.1160  -14.6600   -5.4790 C   0  0  0  0  0  0  0  0  0  0  0  0
   13.6690  -13.6660   -4.5460 C   0  0  0  0  0  0  0  0  0  0  0  0
   14.5700  -12.7410   -4.0100 C   0  0  0  0  0  0  0  0  0  0  0  0
   14.1280  -11.7850   -3.0920 C   0  0  0  0  0  0  0  0  0  0  0  0
   12.7850  -11.7450   -2.7100 C   0  0  0  0  0  0  0  0  0  0  0  0
   11.8750  -12.6580   -3.2580 C   0  0  0  0  0  0  0  0  0  0  0  0
   10.4340  -12.6630   -2.8750 C   0  0  0  0  0  0  0  0  0  0  0  0
    9.7190  -11.7480   -3.2780 O   0  0  0  0  0  0  0  0  0  0  0  0
   10.0510  -13.6870   -2.0230 N   0  0  0  0  0  0  0  0  0  0  0  0
    8.7340  -13.9700   -1.5990 C   0  0  0  0  0  0  0  0  0  0  0  0
    7.8370  -14.7190   -2.3660 C   0  0  0  0  0  0  0  0  0  0  0  0
    6.5010  -14.9090   -1.9900 C   0  0  0  0  0  0  0  0  0  0  0  0
    5.5820  -15.5650   -2.8010 N   0  0  0  0  0  0  0  0  0  0  0  0
    4.2040  -15.6550   -2.3280 C   0  0  0  0  0  0  0  0  0  0  0  0
    3.4690  -14.4160   -2.8290 C   0  0  0  0  0  0  0  0  0  0  0  0
    3.5960  -14.2880   -4.3550 C   0  0  0  0  0  0  0  0  0  0  0  0
    3.0160  -12.9330   -4.7750 N   0  0  0  0  0  0  0  0  0  0  0  0
    2.2290  -12.1620   -3.7120 C   0  0  0  0  0  0  0  0  0  0  0  0
    2.9090  -10.8080   -3.6390 C   0  0  0  0  0  0  0  0  0  0  0  0
    3.4370  -10.6000   -5.0430 C   0  0  0  0  0  0  0  0  0  0  0  0
    4.0010  -11.9620   -5.3950 C   0  0  0  0  0  0  0  0  0  0  0  0
    5.0040  -14.5000   -4.9330 C   0  0  0  0  0  0  0  0  0  0  0  0
    5.7510  -15.6430   -4.2480 C   0  0  0  0  0  0  0  0  0  0  0  0
    6.1040  -14.3740   -0.7580 C   0  0  0  0  0  0  0  0  0  0  0  0
    7.0010  -13.6790    0.0730 C   0  0  0  0  0  0  0  0  0  0  0  0
    6.5300  -13.1180    1.3910 C   0  0  0  0  0  0  0  0  0  0  0  0
    5.2230  -12.7420    1.3440 F   0  0  0  0  0  0  0  0  0  0  0  0
    6.6320  -14.0080    2.4160 F   0  0  0  0  0  0  0  0  0  0  0  0
    7.2270  -12.0140    1.7800 F   0  0  0  0  0  0  0  0  0  0  0  0
    8.3180  -13.4750   -0.3640 C   0  0  0  0  0  0  0  0  0  0  0  0
   12.3230  -13.6260   -4.1680 C   0  0  0  0  0  0  0  0  0  0  0  0
   15.6276  -12.7659   -4.3113 H   0  0  0  0  0  0  0  0  0  0  0  0
   14.8401  -11.0613   -2.6686 H   0  0  0  0  0  0  0  0  0  0  0  0
   12.4424  -10.9973   -1.9796 H   0  0  0  0  0  0  0  0  0  0  0  0
   10.7860  -14.2290   -1.5840 H   0  0  0  0  0  0  0  0  0  0  0  0
    8.1938  -15.1767   -3.3005 H   0  0  0  0  0  0  0  0  0  0  0  0
    3.7276  -16.5623   -2.7278 H   0  0  0  0  0  0  0  0  0  0  0  0
    4.1726  -15.7081   -1.2297 H   0  0  0  0  0  0  0  0  0  0  0  0
    2.4051  -14.4943   -2.5607 H   0  0  0  0  0  0  0  0  0  0  0  0
    3.9165  -13.5266   -2.3614 H   0  0  0  0  0  0  0  0  0  0  0  0
    3.0233  -15.1221   -4.7865 H   0  0  0  0  0  0  0  0  0  0  0  0
    2.3330  -13.1370   -5.5180 H   0  0  0  0  0  0  0  0  0  0  0  0
    1.1764  -12.0522   -4.0118 H   0  0  0  0  0  0  0  0  0  0  0  0
    2.2233  -12.6787   -2.7409 H   0  0  0  0  0  0  0  0  0  0  0  0
    2.1895  -10.0209   -3.3691 H   0  0  0  0  0  0  0  0  0  0  0  0
    3.6986  -10.7664   -2.8743 H   0  0  0  0  0  0  0  0  0  0  0  0
    2.6283  -10.3159   -5.7324 H   0  0  0  0  0  0  0  0  0  0  0  0
    4.1781   -9.7902   -5.1140 H   0  0  0  0  0  0  0  0  0  0  0  0
    4.0495  -12.0960   -6.4857 H   0  0  0  0  0  0  0  0  0  0  0  0
    5.0278  -12.1050   -5.0272 H   0  0  0  0  0  0  0  0  0  0  0  0
    4.9145  -14.7294   -6.0051 H   0  0  0  0  0  0  0  0  0  0  0  0
    5.5775  -13.5767   -4.7638 H   0  0  0  0  0  0  0  0  0  0  0  0
    5.3535  -16.6033   -4.6082 H   0  0  0  0  0  0  0  0  0  0  0  0
    6.8217  -15.5640   -4.4873 H   0  0  0  0  0  0  0  0  0  0  0  0
    5.0614  -14.5009   -0.4311 H   0  0  0  0  0  0  0  0  0  0  0  0
    9.0259  -12.9219    0.2707 H   0  0  0  0  0  0  0  0  0  0  0  0
   11.6140  -14.3559   -4.5858 H   0  0  0  0  0  0  0  0  0  0  0  0
  1  2  3  0
  2  3  1  0
  3  4  2  0
  4  5  1  0
  5  6  2  0
  6  7  1  0
  7  8  1  0
  8  9  2  0
  8 10  1  0
 10 11  1  0
 11 12  2  0
 12 13  1  0
 13 14  1  0
 14 15  1  0
 15 16  1  0
 16 17  1  0
 17 18  1  0
 18 19  1  0
 19 20  1  0
 20 21  1  0
 21 22  1  0
 17 23  1  0
 23 24  1  0
 13 25  2  0
 25 26  1  0
 26 27  1  0
 27 28  1  0
 27 29  1  0
 27 30  1  0
 26 31  2  0
  7 32  2  0
 32  3  1  0
 31 11  1  0
 24 14  1  0
 22 18  1  0
  4 33  1  0
  5 34  1  0
  6 35  1  0
 10 36  1  0
 12 37  1  0
 15 38  1  0
 15 39  1  0
 16 40  1  0
 16 41  1  0
 17 42  1  0
 18 43  1  0
 19 44  1  0
 19 45  1  0
 20 46  1  0
 20 47  1  0
 21 48  1  0
 21 49  1  0
 22 50  1  0
 22 51  1  0
 23 52  1  0
 23 53  1  0
 24 54  1  0
 24 55  1  0
 25 56  1  0
 31 57  1  0
 32 58  1  0
M  CHG  1  18   1
M  END
>  <meeko>  (6) 
{"is_sidechain": [false], "free_energy": -8.358, "intermolecular_energy": -10.47, "internal_energy": -1.328}

$$$$
LIB_TZQNHHGKGQGOOH__M_PUB_ALL__e8__s20260927
     RDKit          3D

 58 61  0  0  0  0  0  0  0  0999 V2000
    5.0380  -12.8200   -6.9310 N   0  0  0  0  0  0  0  0  0  0  0  0
    4.4580  -12.4430   -6.0000 C   0  0  0  0  0  0  0  0  0  0  0  0
    3.7430  -12.0090   -4.8350 C   0  0  0  0  0  0  0  0  0  0  0  0
    3.3400  -10.6760   -4.7070 C   0  0  0  0  0  0  0  0  0  0  0  0
    2.6560  -10.2590   -3.5630 C   0  0  0  0  0  0  0  0  0  0  0  0
    2.3660  -11.1710   -2.5450 C   0  0  0  0  0  0  0  0  0  0  0  0
    2.7520  -12.5110   -2.6760 C   0  0  0  0  0  0  0  0  0  0  0  0
    2.4760  -13.5210   -1.6150 C   0  0  0  0  0  0  0  0  0  0  0  0
    2.7560  -13.2370   -0.4510 O   0  0  0  0  0  0  0  0  0  0  0  0
    1.9860  -14.7360   -2.0650 N   0  0  0  0  0  0  0  0  0  0  0  0
    1.5530  -15.8110   -1.2590 C   0  0  0  0  0  0  0  0  0  0  0  0
    0.2340  -15.9380   -0.8120 C   0  0  0  0  0  0  0  0  0  0  0  0
   -0.1670  -16.9480    0.0730 C   0  0  0  0  0  0  0  0  0  0  0  0
   -1.4520  -17.0130    0.5990 N   0  0  0  0  0  0  0  0  0  0  0  0
   -1.5880  -17.3420    2.0150 C   0  0  0  0  0  0  0  0  0  0  0  0
   -1.5440  -16.0300    2.7920 C   0  0  0  0  0  0  0  0  0  0  0  0
   -2.6140  -15.0540    2.2750 C   0  0  0  0  0  0  0  0  0  0  0  0
   -2.3940  -13.6960    2.9490 N   0  0  0  0  0  0  0  0  0  0  0  0
   -0.9440  -13.2930    3.2300 C   0  0  0  0  0  0  0  0  0  0  0  0
   -0.7830  -11.9460    2.5520 C   0  0  0  0  0  0  0  0  0  0  0  0
   -2.1700  -11.3430    2.6270 C   0  0  0  0  0  0  0  0  0  0  0  0
   -3.0650  -12.5140    2.2760 C   0  0  0  0  0  0  0  0  0  0  0  0
   -2.7130  -14.9150    0.7480 C   0  0  0  0  0  0  0  0  0  0  0  0
   -2.5570  -16.2530    0.0270 C   0  0  0  0  0  0  0  0  0  0  0  0
    0.8000  -17.8900    0.4430 C   0  0  0  0  0  0  0  0  0  0  0  0
    2.1170  -17.8350   -0.0480 C   0  0  0  0  0  0  0  0  0  0  0  0
    3.1270  -18.8710    0.3800 C   0  0  0  0  0  0  0  0  0  0  0  0
    3.8500  -19.3400   -0.6730 F   0  0  0  0  0  0  0  0  0  0  0  0
    4.0300  -18.3940    1.2780 F   0  0  0  0  0  0  0  0  0  0  0  0
    2.5560  -19.9620    0.9620 F   0  0  0  0  0  0  0  0  0  0  0  0
    2.4860  -16.7810   -0.8960 C   0  0  0  0  0  0  0  0  0  0  0  0
    3.4510  -12.9240   -3.8190 C   0  0  0  0  0  0  0  0  0  0  0  0
    3.5619   -9.9554   -5.5079 H   0  0  0  0  0  0  0  0  0  0  0  0
    2.3445   -9.2088   -3.4631 H   0  0  0  0  0  0  0  0  0  0  0  0
    1.8350  -10.8369   -1.6414 H   0  0  0  0  0  0  0  0  0  0  0  0
    2.0260  -14.9150   -3.0620 H   0  0  0  0  0  0  0  0  0  0  0  0
   -0.5172  -15.2179   -1.1685 H   0  0  0  0  0  0  0  0  0  0  0  0
   -2.5460  -17.8526    2.1925 H   0  0  0  0  0  0  0  0  0  0  0  0
   -0.7787  -18.0133    2.3382 H   0  0  0  0  0  0  0  0  0  0  0  0
   -1.7272  -16.2351    3.8571 H   0  0  0  0  0  0  0  0  0  0  0  0
   -0.5532  -15.5721    2.6556 H   0  0  0  0  0  0  0  0  0  0  0  0
   -3.5886  -15.4844    2.5487 H   0  0  0  0  0  0  0  0  0  0  0  0
   -2.8360  -13.7670    3.8760 H   0  0  0  0  0  0  0  0  0  0  0  0
   -0.7678  -13.2065    4.3123 H   0  0  0  0  0  0  0  0  0  0  0  0
   -0.2245  -14.0366    2.8566 H   0  0  0  0  0  0  0  0  0  0  0  0
   -0.0533  -11.3211    3.0878 H   0  0  0  0  0  0  0  0  0  0  0  0
   -0.4071  -12.0278    1.5215 H   0  0  0  0  0  0  0  0  0  0  0  0
   -2.3853  -10.9692    3.6389 H   0  0  0  0  0  0  0  0  0  0  0  0
   -2.3049  -10.4773    1.9619 H   0  0  0  0  0  0  0  0  0  0  0  0
   -4.0807  -12.3631    2.6704 H   0  0  0  0  0  0  0  0  0  0  0  0
   -3.1802  -12.6513    1.1907 H   0  0  0  0  0  0  0  0  0  0  0  0
   -3.6960  -14.4908    0.4955 H   0  0  0  0  0  0  0  0  0  0  0  0
   -1.8929  -14.2602    0.4183 H   0  0  0  0  0  0  0  0  0  0  0  0
   -3.4869  -16.8314    0.1311 H   0  0  0  0  0  0  0  0  0  0  0  0
   -2.3469  -16.0631   -1.0359 H   0  0  0  0  0  0  0  0  0  0  0  0
    0.5220  -18.6964    1.1376 H   0  0  0  0  0  0  0  0  0  0  0  0
    3.5163  -16.7193   -1.2765 H   0  0  0  0  0  0  0  0  0  0  0  0
    3.7709  -13.9719   -3.9168 H   0  0  0  0  0  0  0  0  0  0  0  0
  1  2  3  0
  2  3  1  0
  3  4  2  0
  4  5  1  0
  5  6  2  0
  6  7  1  0
  7  8  1  0
  8  9  2  0
  8 10  1  0
 10 11  1  0
 11 12  2  0
 12 13  1  0
 13 14  1  0
 14 15  1  0
 15 16  1  0
 16 17  1  0
 17 18  1  0
 18 19  1  0
 19 20  1  0
 20 21  1  0
 21 22  1  0
 17 23  1  0
 23 24  1  0
 13 25  2  0
 25 26  1  0
 26 27  1  0
 27 28  1  0
 27 29  1  0
 27 30  1  0
 26 31  2  0
  7 32  2  0
 32  3  1  0
 31 11  1  0
 24 14  1  0
 22 18  1  0
  4 33  1  0
  5 34  1  0
  6 35  1  0
 10 36  1  0
 12 37  1  0
 15 38  1  0
 15 39  1  0
 16 40  1  0
 16 41  1  0
 17 42  1  0
 18 43  1  0
 19 44  1  0
 19 45  1  0
 20 46  1  0
 20 47  1  0
 21 48  1  0
 21 49  1  0
 22 50  1  0
 22 51  1  0
 23 52  1  0
 23 53  1  0
 24 54  1  0
 24 55  1  0
 25 56  1  0
 31 57  1  0
 32 58  1  0
M  CHG  1  18   1
M  END
>  <meeko>  (7) 
{"is_sidechain": [false], "free_energy": -8.311, "intermolecular_energy": -10.29, "internal_energy": -1.448}

$$$$
LIB_TZQNHHGKGQGOOH__M_PUB_ALL__e8__s20260927
     RDKit          3D

 58 61  0  0  0  0  0  0  0  0999 V2000
   19.5270   -6.4850    9.5660 N   0  0  0  0  0  0  0  0  0  0  0  0
   18.6370   -6.3100   10.2890 C   0  0  0  0  0  0  0  0  0  0  0  0
   17.5220   -6.1220   11.1710 C   0  0  0  0  0  0  0  0  0  0  0  0
   17.4910   -5.0390   12.0540 C   0  0  0  0  0  0  0  0  0  0  0  0
   16.4060   -4.8720   12.9190 C   0  0  0  0  0  0  0  0  0  0  0  0
   15.3460   -5.7810   12.9010 C   0  0  0  0  0  0  0  0  0  0  0  0
   15.3640   -6.8580   12.0050 C   0  0  0  0  0  0  0  0  0  0  0  0
   14.2620   -7.8610   11.9530 C   0  0  0  0  0  0  0  0  0  0  0  0
   13.4530   -7.7940   11.0300 O   0  0  0  0  0  0  0  0  0  0  0  0
   14.2160   -8.7470   13.0180 N   0  0  0  0  0  0  0  0  0  0  0  0
   13.3400   -9.8460   13.1520 C   0  0  0  0  0  0  0  0  0  0  0  0
   12.2360   -9.8330   14.0100 C   0  0  0  0  0  0  0  0  0  0  0  0
   11.4320  -10.9610   14.2180 C   0  0  0  0  0  0  0  0  0  0  0  0
   10.3980  -10.9800   15.1470 N   0  0  0  0  0  0  0  0  0  0  0  0
   10.5250  -10.1200   16.3200 C   0  0  0  0  0  0  0  0  0  0  0  0
    9.9170   -8.7680   15.9590 C   0  0  0  0  0  0  0  0  0  0  0  0
    8.4720   -8.9350   15.4640 C   0  0  0  0  0  0  0  0  0  0  0  0
    7.9840   -7.5830   14.9330 N   0  0  0  0  0  0  0  0  0  0  0  0
    8.8210   -6.9360   13.8260 C   0  0  0  0  0  0  0  0  0  0  0  0
    7.8400   -6.6920   12.6960 C   0  0  0  0  0  0  0  0  0  0  0  0
    6.5240   -6.4670   13.4120 C   0  0  0  0  0  0  0  0  0  0  0  0
    6.5370   -7.5380   14.4830 C   0  0  0  0  0  0  0  0  0  0  0  0
    8.2370  -10.0580   14.4430 C   0  0  0  0  0  0  0  0  0  0  0  0
    9.0310  -11.3220   14.7700 C   0  0  0  0  0  0  0  0  0  0  0  0
   11.7320  -12.1040   13.4670 C   0  0  0  0  0  0  0  0  0  0  0  0
   12.7890  -12.1270   12.5400 C   0  0  0  0  0  0  0  0  0  0  0  0
   13.0780  -13.3810   11.7540 C   0  0  0  0  0  0  0  0  0  0  0  0
   11.9360  -14.0160   11.3740 F   0  0  0  0  0  0  0  0  0  0  0  0
   13.7790  -13.1450   10.6120 F   0  0  0  0  0  0  0  0  0  0  0  0
   13.8020  -14.2960   12.4580 F   0  0  0  0  0  0  0  0  0  0  0  0
   13.5960  -10.9890   12.3970 C   0  0  0  0  0  0  0  0  0  0  0  0
   16.4600   -7.0320   11.1480 C   0  0  0  0  0  0  0  0  0  0  0  0
   18.3212   -4.3175   12.0681 H   0  0  0  0  0  0  0  0  0  0  0  0
   16.3869   -4.0216   13.6164 H   0  0  0  0  0  0  0  0  0  0  0  0
   14.4979   -5.6516   13.5895 H   0  0  0  0  0  0  0  0  0  0  0  0
   14.7970   -8.5400   13.8220 H   0  0  0  0  0  0  0  0  0  0  0  0
   11.9896   -8.9020   14.5416 H   0  0  0  0  0  0  0  0  0  0  0  0
    9.9843  -10.5609   17.1704 H   0  0  0  0  0  0  0  0  0  0  0  0
   11.5806  -10.0079   16.6084 H   0  0  0  0  0  0  0  0  0  0  0  0
    9.9210   -8.1215   16.8489 H   0  0  0  0  0  0  0  0  0  0  0  0
   10.5155   -8.3154   15.1546 H   0  0  0  0  0  0  0  0  0  0  0  0
    7.8812   -9.2623   16.3322 H   0  0  0  0  0  0  0  0  0  0  0  0
    8.0420   -6.9300   15.7270 H   0  0  0  0  0  0  0  0  0  0  0  0
    9.2569   -5.9876   14.1731 H   0  0  0  0  0  0  0  0  0  0  0  0
    9.6640   -7.5710   13.5160 H   0  0  0  0  0  0  0  0  0  0  0  0
    8.1262   -5.8051   12.1116 H   0  0  0  0  0  0  0  0  0  0  0  0
    7.7996   -7.5234   11.9769 H   0  0  0  0  0  0  0  0  0  0  0  0
    6.4820   -5.4620   13.8572 H   0  0  0  0  0  0  0  0  0  0  0  0
    5.6503   -6.5274   12.7464 H   0  0  0  0  0  0  0  0  0  0  0  0
    5.8753   -7.2648   15.3182 H   0  0  0  0  0  0  0  0  0  0  0  0
    6.1754   -8.5101   14.1165 H   0  0  0  0  0  0  0  0  0  0  0  0
    7.1656  -10.3071   14.4330 H   0  0  0  0  0  0  0  0  0  0  0  0
    8.5769   -9.6943   13.4621 H   0  0  0  0  0  0  0  0  0  0  0  0
    8.5458  -11.8491   15.6047 H   0  0  0  0  0  0  0  0  0  0  0  0
    9.0571  -11.9675   13.8797 H   0  0  0  0  0  0  0  0  0  0  0  0
   11.1235  -13.0097   13.6062 H   0  0  0  0  0  0  0  0  0  0  0  0
   14.4349  -10.9987   11.6856 H   0  0  0  0  0  0  0  0  0  0  0  0
   16.4847   -7.8865   10.4557 H   0  0  0  0  0  0  0  0  0  0  0  0
  1  2  3  0
  2  3  1  0
  3  4  2  0
  4  5  1  0
  5  6  2  0
  6  7  1  0
  7  8  1  0
  8  9  2  0
  8 10  1  0
 10 11  1  0
 11 12  2  0
 12 13  1  0
 13 14  1  0
 14 15  1  0
 15 16  1  0
 16 17  1  0
 17 18  1  0
 18 19  1  0
 19 20  1  0
 20 21  1  0
 21 22  1  0
 17 23  1  0
 23 24  1  0
 13 25  2  0
 25 26  1  0
 26 27  1  0
 27 28  1  0
 27 29  1  0
 27 30  1  0
 26 31  2  0
  7 32  2  0
 32  3  1  0
 31 11  1  0
 24 14  1  0
 22 18  1  0
  4 33  1  0
  5 34  1  0
  6 35  1  0
 10 36  1  0
 12 37  1  0
 15 38  1  0
 15 39  1  0
 16 40  1  0
 16 41  1  0
 17 42  1  0
 18 43  1  0
 19 44  1  0
 19 45  1  0
 20 46  1  0
 20 47  1  0
 21 48  1  0
 21 49  1  0
 22 50  1  0
 22 51  1  0
 23 52  1  0
 23 53  1  0
 24 54  1  0
 24 55  1  0
 25 56  1  0
 31 57  1  0
 32 58  1  0
M  CHG  1  18   1
M  END
>  <meeko>  (8) 
{"is_sidechain": [false], "free_energy": -8.282, "intermolecular_energy": -10.613, "internal_energy": -1.088}

$$$$
LIB_TZQNHHGKGQGOOH__M_PUB_ALL__e8__s20260927
     RDKit          3D

 58 61  0  0  0  0  0  0  0  0999 V2000
    5.1510  -12.9660   -7.2000 N   0  0  0  0  0  0  0  0  0  0  0  0
    4.5340  -12.5800   -6.2970 C   0  0  0  0  0  0  0  0  0  0  0  0
    3.7670  -12.1350   -5.1710 C   0  0  0  0  0  0  0  0  0  0  0  0
    3.5990  -10.7690   -4.9220 C   0  0  0  0  0  0  0  0  0  0  0  0
    2.8610  -10.3450   -3.8140 C   0  0  0  0  0  0  0  0  0  0  0  0
    2.2810  -11.2820   -2.9550 C   0  0  0  0  0  0  0  0  0  0  0  0
    2.4310  -12.6510   -3.2100 C   0  0  0  0  0  0  0  0  0  0  0  0
    1.8410  -13.6900   -2.3180 C   0  0  0  0  0  0  0  0  0  0  0  0
    1.0820  -14.5220   -2.8120 O   0  0  0  0  0  0  0  0  0  0  0  0
    2.1580  -13.5670   -0.9750 N   0  0  0  0  0  0  0  0  0  0  0  0
    1.8130  -14.4750    0.0500 C   0  0  0  0  0  0  0  0  0  0  0  0
    0.7310  -14.2670    0.9120 C   0  0  0  0  0  0  0  0  0  0  0  0
    0.4550  -15.1150    1.9920 C   0  0  0  0  0  0  0  0  0  0  0  0
   -0.5560  -14.8530    2.9090 N   0  0  0  0  0  0  0  0  0  0  0  0
   -0.3210  -13.8020    3.8940 C   0  0  0  0  0  0  0  0  0  0  0  0
   -0.8010  -12.4890    3.2820 C   0  0  0  0  0  0  0  0  0  0  0  0
   -2.2660  -12.6020    2.8300 C   0  0  0  0  0  0  0  0  0  0  0  0
   -2.6290  -11.3340    2.0500 N   0  0  0  0  0  0  0  0  0  0  0  0
   -1.4860  -10.3620    1.7460 C   0  0  0  0  0  0  0  0  0  0  0  0
   -1.5200  -10.1880    0.2400 C   0  0  0  0  0  0  0  0  0  0  0  0
   -2.9830  -10.3740   -0.1060 C   0  0  0  0  0  0  0  0  0  0  0  0
   -3.3830  -11.5570    0.7530 C   0  0  0  0  0  0  0  0  0  0  0  0
   -2.6300  -13.8710    2.0430 C   0  0  0  0  0  0  0  0  0  0  0  0
   -1.9580  -15.1220    2.6070 C   0  0  0  0  0  0  0  0  0  0  0  0
    1.2720  -16.2430    2.1400 C   0  0  0  0  0  0  0  0  0  0  0  0
    2.3220  -16.5220    1.2470 C   0  0  0  0  0  0  0  0  0  0  0  0
    3.1780  -17.7470    1.4460 C   0  0  0  0  0  0  0  0  0  0  0  0
    4.4940  -17.4900    1.2140 F   0  0  0  0  0  0  0  0  0  0  0  0
    3.1070  -18.2470    2.7100 F   0  0  0  0  0  0  0  0  0  0  0  0
    2.8410  -18.7730    0.6160 F   0  0  0  0  0  0  0  0  0  0  0  0
    2.5900  -15.6210    0.2060 C   0  0  0  0  0  0  0  0  0  0  0  0
    3.1840  -13.0740   -4.3140 C   0  0  0  0  0  0  0  0  0  0  0  0
    4.0484  -10.0277   -5.5992 H   0  0  0  0  0  0  0  0  0  0  0  0
    2.7362   -9.2700   -3.6173 H   0  0  0  0  0  0  0  0  0  0  0  0
    1.7071  -10.9448   -2.0793 H   0  0  0  0  0  0  0  0  0  0  0  0
    2.5980  -12.7050   -0.6750 H   0  0  0  0  0  0  0  0  0  0  0  0
    0.0718  -13.4044    0.7348 H   0  0  0  0  0  0  0  0  0  0  0  0
   -0.8842  -14.0162    4.8143 H   0  0  0  0  0  0  0  0  0  0  0  0
    0.7465  -13.7431    4.1527 H   0  0  0  0  0  0  0  0  0  0  0  0
   -0.7155  -11.6888    4.0319 H   0  0  0  0  0  0  0  0  0  0  0  0
   -0.1777  -12.2595    2.4052 H   0  0  0  0  0  0  0  0  0  0  0  0
   -2.8691  -12.6968    3.7450 H   0  0  0  0  0  0  0  0  0  0  0  0
   -3.2750  -10.8080    2.6520 H   0  0  0  0  0  0  0  0  0  0  0  0
   -1.6506   -9.3991    2.2517 H   0  0  0  0  0  0  0  0  0  0  0  0
   -0.5146  -10.7376    2.1001 H   0  0  0  0  0  0  0  0  0  0  0  0
   -1.1727   -9.1847   -0.0476 H   0  0  0  0  0  0  0  0  0  0  0  0
   -0.8624  -10.8948   -0.2873 H   0  0  0  0  0  0  0  0  0  0  0  0
   -3.5685   -9.4797    0.1537 H   0  0  0  0  0  0  0  0  0  0  0  0
   -3.1596  -10.5357   -1.1796 H   0  0  0  0  0  0  0  0  0  0  0  0
   -4.4690  -11.5651    0.9275 H   0  0  0  0  0  0  0  0  0  0  0  0
   -3.1454  -12.5231    0.2836 H   0  0  0  0  0  0  0  0  0  0  0  0
   -3.7207  -14.0089    2.0808 H   0  0  0  0  0  0  0  0  0  0  0  0
   -2.2749  -13.7374    1.0105 H   0  0  0  0  0  0  0  0  0  0  0  0
   -2.4753  -15.4273    3.5285 H   0  0  0  0  0  0  0  0  0  0  0  0
   -2.0142  -15.9260    1.8584 H   0  0  0  0  0  0  0  0  0  0  0  0
    1.0871  -16.9303    2.9787 H   0  0  0  0  0  0  0  0  0  0  0  0
    3.4177  -15.8201   -0.4907 H   0  0  0  0  0  0  0  0  0  0  0  0
    3.3169  -14.1487   -4.5071 H   0  0  0  0  0  0  0  0  0  0  0  0
  1  2  3  0
  2  3  1  0
  3  4  2  0
  4  5  1  0
  5  6  2  0
  6  7  1  0
  7  8  1  0
  8  9  2  0
  8 10  1  0
 10 11  1  0
 11 12  2  0
 12 13  1  0
 13 14  1  0
 14 15  1  0
 15 16  1  0
 16 17  1  0
 17 18  1  0
 18 19  1  0
 19 20  1  0
 20 21  1  0
 21 22  1  0
 17 23  1  0
 23 24  1  0
 13 25  2  0
 25 26  1  0
 26 27  1  0
 27 28  1  0
 27 29  1  0
 27 30  1  0
 26 31  2  0
  7 32  2  0
 32  3  1  0
 31 11  1  0
 24 14  1  0
 22 18  1  0
  4 33  1  0
  5 34  1  0
  6 35  1  0
 10 36  1  0
 12 37  1  0
 15 38  1  0
 15 39  1  0
 16 40  1  0
 16 41  1  0
 17 42  1  0
 18 43  1  0
 19 44  1  0
 19 45  1  0
 20 46  1  0
 20 47  1  0
 21 48  1  0
 21 49  1  0
 22 50  1  0
 22 51  1  0
 23 52  1  0
 23 53  1  0
 24 54  1  0
 24 55  1  0
 25 56  1  0
 31 57  1  0
 32 58  1  0
M  CHG  1  18   1
M  END
>  <meeko>  (9) 
{"is_sidechain": [false], "free_energy": -8.14, "intermolecular_energy": -10.236, "internal_energy": -1.28}

$$$$
