LIB_IVCDTDIZAJTORZ__M_PUB_ALL__e8__s20260927
     RDKit          3D

 62 65  0  0  0  0  0  0  0  0999 V2000
    6.8990  -11.2230   -0.3870 O   0  0  0  0  0  0  0  0  0  0  0  0
    7.0450  -12.4380   -0.4550 C   0  0  0  0  0  0  0  0  0  0  0  0
    8.2590  -13.1040   -0.4260 N   0  0  0  0  0  0  0  0  0  0  0  0
    9.5430  -12.5520   -0.2270 C   0  0  0  0  0  0  0  0  0  0  0  0
    9.9570  -11.9400    0.9570 C   0  0  0  0  0  0  0  0  0  0  0  0
   11.2520  -11.4260    1.0760 C   0  0  0  0  0  0  0  0  0  0  0  0
   12.1460  -11.5190    0.0120 C   0  0  0  0  0  0  0  0  0  0  0  0
   11.7530  -12.1240   -1.1870 C   0  0  0  0  0  0  0  0  0  0  0  0
   12.7190  -12.2530   -2.3390 C   0  0  0  0  0  0  0  0  0  0  0  0
   13.0900  -13.5440   -2.5550 F   0  0  0  0  0  0  0  0  0  0  0  0
   13.8700  -11.5510   -2.1580 F   0  0  0  0  0  0  0  0  0  0  0  0
   12.1940  -11.8130   -3.5170 F   0  0  0  0  0  0  0  0  0  0  0  0
   10.4500  -12.6450   -1.2910 C   0  0  0  0  0  0  0  0  0  0  0  0
    5.9960  -13.3460   -0.5570 N   0  0  0  0  0  0  0  0  0  0  0  0
    4.6340  -13.0480   -0.7760 C   0  0  0  0  0  0  0  0  0  0  0  0
    3.5930  -13.5810   -0.0040 C   0  0  0  0  0  0  0  0  0  0  0  0
    2.2380  -13.2890   -0.2440 C   0  0  0  0  0  0  0  0  0  0  0  0
    1.2120  -13.8670    0.4980 N   0  0  0  0  0  0  0  0  0  0  0  0
    1.4000  -14.1760    1.9210 C   0  0  0  0  0  0  0  0  0  0  0  0
    0.1470  -13.7400    2.6870 C   0  0  0  0  0  0  0  0  0  0  0  0
   -1.0850  -13.6000    1.7710 C   0  0  0  0  0  0  0  0  0  0  0  0
   -1.0560  -12.2450    1.0690 N   0  0  0  0  0  0  0  0  0  0  0  0
   -2.3640  -11.7610    0.4890 C   0  0  0  0  0  0  0  0  0  0  0  0
   -2.1440  -10.2720    0.3410 C   0  0  0  0  0  0  0  0  0  0  0  0
   -1.4220   -9.9180    1.6230 C   0  0  0  0  0  0  0  0  0  0  0  0
   -0.4860  -11.0890    1.8710 C   0  0  0  0  0  0  0  0  0  0  0  0
   -1.0700  -14.7400    0.7410 C   0  0  0  0  0  0  0  0  0  0  0  0
    0.1660  -14.6690   -0.1640 C   0  0  0  0  0  0  0  0  0  0  0  0
    1.9690  -12.4220   -1.3120 C   0  0  0  0  0  0  0  0  0  0  0  0
    2.9910  -11.8500   -2.0940 C   0  0  0  0  0  0  0  0  0  0  0  0
    2.6340  -10.9140   -3.2200 C   0  0  0  0  0  0  0  0  0  0  0  0
    1.7640   -9.9440   -2.8290 F   0  0  0  0  0  0  0  0  0  0  0  0
    2.0280  -11.5660   -4.2520 F   0  0  0  0  0  0  0  0  0  0  0  0
    3.7060  -10.2740   -3.7580 F   0  0  0  0  0  0  0  0  0  0  0  0
    4.3250  -12.1640   -1.8080 C   0  0  0  0  0  0  0  0  0  0  0  0
    8.2350  -14.0900   -0.6360 H   0  0  0  0  0  0  0  0  0  0  0  0
    9.2589  -11.8613    1.8035 H   0  0  0  0  0  0  0  0  0  0  0  0
   11.5662  -10.9459    2.0145 H   0  0  0  0  0  0  0  0  0  0  0  0
   13.1642  -11.1156    0.1146 H   0  0  0  0  0  0  0  0  0  0  0  0
   10.1375  -13.1345   -2.2252 H   0  0  0  0  0  0  0  0  0  0  0  0
    6.2190  -14.3080   -0.3460 H   0  0  0  0  0  0  0  0  0  0  0  0
    3.8464  -14.2572    0.8258 H   0  0  0  0  0  0  0  0  0  0  0  0
    1.5539  -15.2578    2.0479 H   0  0  0  0  0  0  0  0  0  0  0  0
    2.2808  -13.6424    2.3076 H   0  0  0  0  0  0  0  0  0  0  0  0
   -0.0722  -14.4901    3.4612 H   0  0  0  0  0  0  0  0  0  0  0  0
    0.3506  -12.7527    3.1272 H   0  0  0  0  0  0  0  0  0  0  0  0
   -2.0069  -13.6612    2.3679 H   0  0  0  0  0  0  0  0  0  0  0  0
   -0.4120  -12.3980    0.2650 H   0  0  0  0  0  0  0  0  0  0  0  0
   -2.5609  -12.2299   -0.4864 H   0  0  0  0  0  0  0  0  0  0  0  0
   -3.2330  -12.0093    1.1160 H   0  0  0  0  0  0  0  0  0  0  0  0
   -1.5239  -10.0474   -0.5394 H   0  0  0  0  0  0  0  0  0  0  0  0
   -3.0741   -9.7043    0.1907 H   0  0  0  0  0  0  0  0  0  0  0  0
   -0.8528   -8.9844    1.5031 H   0  0  0  0  0  0  0  0  0  0  0  0
   -2.1155   -9.7533    2.4608 H   0  0  0  0  0  0  0  0  0  0  0  0
    0.5305  -10.8475    1.5270 H   0  0  0  0  0  0  0  0  0  0  0  0
   -0.4142  -11.3328    2.9412 H   0  0  0  0  0  0  0  0  0  0  0  0
   -1.0670  -15.7022    1.2740 H   0  0  0  0  0  0  0  0  0  0  0  0
   -1.9647  -14.6431    0.1085 H   0  0  0  0  0  0  0  0  0  0  0  0
    0.5445  -15.6852   -0.3488 H   0  0  0  0  0  0  0  0  0  0  0  0
   -0.1058  -14.2004   -1.1213 H   0  0  0  0  0  0  0  0  0  0  0  0
    0.9222  -12.1797   -1.5477 H   0  0  0  0  0  0  0  0  0  0  0  0
    5.1332  -11.7107   -2.4008 H   0  0  0  0  0  0  0  0  0  0  0  0
  1  2  2  0
  2  3  1  0
  3  4  1  0
  4  5  2  0
  5  6  1  0
  6  7  2  0
  7  8  1  0
  8  9  1  0
  9 10  1  0
  9 11  1  0
  9 12  1  0
  8 13  2  0
  2 14  1  0
 14 15  1  0
 15 16  2  0
 16 17  1  0
 17 18  1  0
 18 19  1  0
 19 20  1  0
 20 21  1  0
 21 22  1  0
 22 23  1  0
 23 24  1  0
 24 25  1  0
 25 26  1  0
 21 27  1  0
 27 28  1  0
 17 29  2  0
 29 30  1  0
 30 31  1  0
 31 32  1  0
 31 33  1  0
 31 34  1  0
 30 35  2  0
 13  4  1  0
 35 15  1  0
 28 18  1  0
 26 22  1  0
  3 36  1  0
  5 37  1  0
  6 38  1  0
  7 39  1  0
 13 40  1  0
 14 41  1  0
 16 42  1  0
 19 43  1  0
 19 44  1  0
 20 45  1  0
 20 46  1  0
 21 47  1  0
 22 48  1  0
 23 49  1  0
 23 50  1  0
 24 51  1  0
 24 52  1  0
 25 53  1  0
 25 54  1  0
 26 55  1  0
 26 56  1  0
 27 57  1  0
 27 58  1  0
 28 59  1  0
 28 60  1  0
 29 61  1  0
 35 62  1  0
M  CHG  1  22   1
M  END
>  <meeko>  (1) 
{"is_sidechain": [false], "free_energy": -8.616, "intermolecular_energy": -11.638, "internal_energy": -1.155}

$$$$
LIB_IVCDTDIZAJTORZ__M_PUB_ALL__e8__s20260927
     RDKit          3D

 62 65  0  0  0  0  0  0  0  0999 V2000
    2.4240  -12.6220   -0.6790 O   0  0  0  0  0  0  0  0  0  0  0  0
    2.5210  -12.8760    0.5160 C   0  0  0  0  0  0  0  0  0  0  0  0
    1.4630  -13.1420    1.3690 N   0  0  0  0  0  0  0  0  0  0  0  0
    0.0960  -13.2660    1.0390 C   0  0  0  0  0  0  0  0  0  0  0  0
   -0.5650  -14.4850    0.8840 C   0  0  0  0  0  0  0  0  0  0  0  0
   -1.9250  -14.5200    0.5650 C   0  0  0  0  0  0  0  0  0  0  0  0
   -2.6390  -13.3350    0.3970 C   0  0  0  0  0  0  0  0  0  0  0  0
   -1.9980  -12.1000    0.5420 C   0  0  0  0  0  0  0  0  0  0  0  0
   -2.7640  -10.8100    0.3870 C   0  0  0  0  0  0  0  0  0  0  0  0
   -2.7120  -10.0430    1.5100 F   0  0  0  0  0  0  0  0  0  0  0  0
   -4.0840  -10.9960    0.1150 F   0  0  0  0  0  0  0  0  0  0  0  0
   -2.2800  -10.0290   -0.6200 F   0  0  0  0  0  0  0  0  0  0  0  0
   -0.6300  -12.0780    0.8730 C   0  0  0  0  0  0  0  0  0  0  0  0
    3.7290  -12.9510    1.2020 N   0  0  0  0  0  0  0  0  0  0  0  0
    5.0040  -12.5860    0.7190 C   0  0  0  0  0  0  0  0  0  0  0  0
    5.7900  -13.4180   -0.0890 C   0  0  0  0  0  0  0  0  0  0  0  0
    7.0670  -13.0490   -0.5500 C   0  0  0  0  0  0  0  0  0  0  0  0
    7.8580  -13.9080   -1.3080 N   0  0  0  0  0  0  0  0  0  0  0  0
    7.9050  -13.7880   -2.7700 C   0  0  0  0  0  0  0  0  0  0  0  0
    9.3630  -13.9100   -3.2260 C   0  0  0  0  0  0  0  0  0  0  0  0
   10.2530  -14.6020   -2.1750 C   0  0  0  0  0  0  0  0  0  0  0  0
   10.6800  -13.5910   -1.1130 N   0  0  0  0  0  0  0  0  0  0  0  0
   11.7460  -14.0450   -0.1440 C   0  0  0  0  0  0  0  0  0  0  0  0
   12.2890  -12.7440    0.4040 C   0  0  0  0  0  0  0  0  0  0  0  0
   12.3600  -11.8720   -0.8300 C   0  0  0  0  0  0  0  0  0  0  0  0
   11.1140  -12.2290   -1.6240 C   0  0  0  0  0  0  0  0  0  0  0  0
    9.4630  -15.7530   -1.5350 C   0  0  0  0  0  0  0  0  0  0  0  0
    8.2200  -15.2440   -0.7950 C   0  0  0  0  0  0  0  0  0  0  0  0
    7.5280  -11.7840   -0.1590 C   0  0  0  0  0  0  0  0  0  0  0  0
    6.7540  -10.9140    0.6330 C   0  0  0  0  0  0  0  0  0  0  0  0
    7.3040   -9.5600    1.0070 C   0  0  0  0  0  0  0  0  0  0  0  0
    8.6260   -9.6090    1.3240 F   0  0  0  0  0  0  0  0  0  0  0  0
    6.6760   -9.0400    2.0990 F   0  0  0  0  0  0  0  0  0  0  0  0
    7.1790   -8.6300    0.0230 F   0  0  0  0  0  0  0  0  0  0  0  0
    5.4850  -11.3230    1.0580 C   0  0  0  0  0  0  0  0  0  0  0  0
    1.6820  -13.1900    2.3530 H   0  0  0  0  0  0  0  0  0  0  0  0
   -0.0109  -15.4263    1.0140 H   0  0  0  0  0  0  0  0  0  0  0  0
   -2.4345  -15.4876    0.4459 H   0  0  0  0  0  0  0  0  0  0  0  0
   -3.7102  -13.3709    0.1495 H   0  0  0  0  0  0  0  0  0  0  0  0
   -0.1214  -11.1114    1.0038 H   0  0  0  0  0  0  0  0  0  0  0  0
    3.7020  -13.4130    2.1000 H   0  0  0  0  0  0  0  0  0  0  0  0
    5.3914  -14.4024   -0.3754 H   0  0  0  0  0  0  0  0  0  0  0  0
    7.3059  -14.5896   -3.2267 H   0  0  0  0  0  0  0  0  0  0  0  0
    7.4954  -12.8152   -3.0797 H   0  0  0  0  0  0  0  0  0  0  0  0
    9.3940  -14.4965   -4.1561 H   0  0  0  0  0  0  0  0  0  0  0  0
    9.7528  -12.8925   -3.3770 H   0  0  0  0  0  0  0  0  0  0  0  0
   11.1576  -15.0046   -2.6542 H   0  0  0  0  0  0  0  0  0  0  0  0
    9.8140  -13.4400   -0.5550 H   0  0  0  0  0  0  0  0  0  0  0  0
   11.3138  -14.6614    0.6580 H   0  0  0  0  0  0  0  0  0  0  0  0
   12.5183  -14.6718   -0.6137 H   0  0  0  0  0  0  0  0  0  0  0  0
   11.6096  -12.3149    1.1552 H   0  0  0  0  0  0  0  0  0  0  0  0
   13.2550  -12.8545    0.9185 H   0  0  0  0  0  0  0  0  0  0  0  0
   12.3528  -10.8072   -0.5540 H   0  0  0  0  0  0  0  0  0  0  0  0
   13.2829  -12.0376   -1.4052 H   0  0  0  0  0  0  0  0  0  0  0  0
   10.3228  -11.4845   -1.4520 H   0  0  0  0  0  0  0  0  0  0  0  0
   11.3116  -12.2445   -2.7060 H   0  0  0  0  0  0  0  0  0  0  0  0
    9.1472  -16.4510   -2.3243 H   0  0  0  0  0  0  0  0  0  0  0  0
   10.1162  -16.2534   -0.8050 H   0  0  0  0  0  0  0  0  0  0  0  0
    7.3840  -15.9396   -0.9600 H   0  0  0  0  0  0  0  0  0  0  0  0
    8.4340  -15.1789    0.2820 H   0  0  0  0  0  0  0  0  0  0  0  0
    8.5284  -11.4600   -0.4819 H   0  0  0  0  0  0  0  0  0  0  0  0
    4.8647  -10.6446    1.6622 H   0  0  0  0  0  0  0  0  0  0  0  0
  1  2  2  0
  2  3  1  0
  3  4  1  0
  4  5  2  0
  5  6  1  0
  6  7  2  0
  7  8  1  0
  8  9  1  0
  9 10  1  0
  9 11  1  0
  9 12  1  0
  8 13  2  0
  2 14  1  0
 14 15  1  0
 15 16  2  0
 16 17  1  0
 17 18  1  0
 18 19  1  0
 19 20  1  0
 20 21  1  0
 21 22  1  0
 22 23  1  0
 23 24  1  0
 24 25  1  0
 25 26  1  0
 21 27  1  0
 27 28  1  0
 17 29  2  0
 29 30  1  0
 30 31  1  0
 31 32  1  0
 31 33  1  0
 31 34  1  0
 30 35  2  0
 13  4  1  0
 35 15  1  0
 28 18  1  0
 26 22  1  0
  3 36  1  0
  5 37  1  0
  6 38  1  0
  7 39  1  0
 13 40  1  0
 14 41  1  0
 16 42  1  0
 19 43  1  0
 19 44  1  0
 20 45  1  0
 20 46  1  0
 21 47  1  0
 22 48  1  0
 23 49  1  0
 23 50  1  0
 24 51  1  0
 24 52  1  0
 25 53  1  0
 25 54  1  0
 26 55  1  0
 26 56  1  0
 27 57  1  0
 27 58  1  0
 28 59  1  0
 28 60  1  0
 29 61  1  0
 35 62  1  0
M  CHG  1  22   1
M  END
>  <meeko>  (2) 
{"is_sidechain": [false], "free_energy": -8.436, "intermolecular_energy": -11.052, "internal_energy": -1.498}

$$$$
LIB_IVCDTDIZAJTORZ__M_PUB_ALL__e8__s20260927
     RDKit          3D

 62 65  0  0  0  0  0  0  0  0999 V2000
    8.8580  -11.3830   -3.3660 O   0  0  0  0  0  0  0  0  0  0  0  0
    9.0410  -12.5940   -3.3510 C   0  0  0  0  0  0  0  0  0  0  0  0
   10.2660  -13.2190   -3.1810 N   0  0  0  0  0  0  0  0  0  0  0  0
   11.5130  -12.6160   -2.9060 C   0  0  0  0  0  0  0  0  0  0  0  0
   12.5770  -12.5730   -3.8070 C   0  0  0  0  0  0  0  0  0  0  0  0
   13.7780  -11.9480   -3.4580 C   0  0  0  0  0  0  0  0  0  0  0  0
   13.9270  -11.3600   -2.2040 C   0  0  0  0  0  0  0  0  0  0  0  0
   12.8760  -11.3940   -1.2810 C   0  0  0  0  0  0  0  0  0  0  0  0
   13.0140  -10.7390    0.0710 C   0  0  0  0  0  0  0  0  0  0  0  0
   14.3030  -10.7260    0.5060 F   0  0  0  0  0  0  0  0  0  0  0  0
   12.2900  -11.3560    1.0440 F   0  0  0  0  0  0  0  0  0  0  0  0
   12.6070   -9.4390    0.0690 F   0  0  0  0  0  0  0  0  0  0  0  0
   11.6690  -12.0180   -1.6480 C   0  0  0  0  0  0  0  0  0  0  0  0
    8.0300  -13.5390   -3.4880 N   0  0  0  0  0  0  0  0  0  0  0  0
    6.6850  -13.2970   -3.8390 C   0  0  0  0  0  0  0  0  0  0  0  0
    5.6120  -13.4760   -2.9550 C   0  0  0  0  0  0  0  0  0  0  0  0
    4.2740  -13.2480   -3.3230 C   0  0  0  0  0  0  0  0  0  0  0  0
    3.2150  -13.4800   -2.4490 N   0  0  0  0  0  0  0  0  0  0  0  0
    1.9320  -13.9930   -2.9460 C   0  0  0  0  0  0  0  0  0  0  0  0
    1.4430  -15.0920   -1.9970 C   0  0  0  0  0  0  0  0  0  0  0  0
    2.0990  -15.0040   -0.6050 C   0  0  0  0  0  0  0  0  0  0  0  0
    3.4760  -15.6620   -0.6400 N   0  0  0  0  0  0  0  0  0  0  0  0
    4.1560  -15.8670    0.6930 C   0  0  0  0  0  0  0  0  0  0  0  0
    5.1830  -16.9360    0.3940 C   0  0  0  0  0  0  0  0  0  0  0  0
    4.4160  -17.8880   -0.4990 C   0  0  0  0  0  0  0  0  0  0  0  0
    3.5650  -16.9860   -1.3770 C   0  0  0  0  0  0  0  0  0  0  0  0
    2.2190  -13.5260   -0.2050 C   0  0  0  0  0  0  0  0  0  0  0  0
    3.1230  -12.7500   -1.1700 C   0  0  0  0  0  0  0  0  0  0  0  0
    4.0550  -12.8220   -4.6410 C   0  0  0  0  0  0  0  0  0  0  0  0
    5.1110  -12.6110   -5.5480 C   0  0  0  0  0  0  0  0  0  0  0  0
    4.8070  -12.1400   -6.9480 C   0  0  0  0  0  0  0  0  0  0  0  0
    5.9340  -11.8400   -7.6470 F   0  0  0  0  0  0  0  0  0  0  0  0
    4.0520  -11.0060   -6.9500 F   0  0  0  0  0  0  0  0  0  0  0  0
    4.1230  -13.0480   -7.6930 F   0  0  0  0  0  0  0  0  0  0  0  0
    6.4270  -12.8420   -5.1300 C   0  0  0  0  0  0  0  0  0  0  0  0
   10.2870  -14.2160   -3.3350 H   0  0  0  0  0  0  0  0  0  0  0  0
   12.4703  -13.0344   -4.7998 H   0  0  0  0  0  0  0  0  0  0  0  0
   14.6096  -11.9205   -4.1775 H   0  0  0  0  0  0  0  0  0  0  0  0
   14.8740  -10.8673   -1.9385 H   0  0  0  0  0  0  0  0  0  0  0  0
   10.8323  -12.0367   -0.9341 H   0  0  0  0  0  0  0  0  0  0  0  0
    8.2600  -14.4810   -3.2040 H   0  0  0  0  0  0  0  0  0  0  0  0
    5.8259  -13.8093   -1.9288 H   0  0  0  0  0  0  0  0  0  0  0  0
    1.1948  -13.1773   -2.9792 H   0  0  0  0  0  0  0  0  0  0  0  0
    2.0583  -14.4012   -3.9596 H   0  0  0  0  0  0  0  0  0  0  0  0
    0.3533  -14.9981   -1.8801 H   0  0  0  0  0  0  0  0  0  0  0  0
    1.7203  -16.0614   -2.4367 H   0  0  0  0  0  0  0  0  0  0  0  0
    1.4813  -15.5321    0.1363 H   0  0  0  0  0  0  0  0  0  0  0  0
    4.0590  -14.9830   -1.1710 H   0  0  0  0  0  0  0  0  0  0  0  0
    4.6392  -14.9404    1.0363 H   0  0  0  0  0  0  0  0  0  0  0  0
    3.4584  -16.1502    1.4950 H   0  0  0  0  0  0  0  0  0  0  0  0
    6.0540  -16.5149   -0.1294 H   0  0  0  0  0  0  0  0  0  0  0  0
    5.5922  -17.4149    1.2958 H   0  0  0  0  0  0  0  0  0  0  0  0
    5.1058  -18.4876   -1.1111 H   0  0  0  0  0  0  0  0  0  0  0  0
    3.8100  -18.6036    0.0761 H   0  0  0  0  0  0  0  0  0  0  0  0
    4.0405  -16.8472   -2.3592 H   0  0  0  0  0  0  0  0  0  0  0  0
    2.5696  -17.4176   -1.5588 H   0  0  0  0  0  0  0  0  0  0  0  0
    1.2170  -13.0721   -0.2120 H   0  0  0  0  0  0  0  0  0  0  0  0
    2.6663  -13.4772    0.7988 H   0  0  0  0  0  0  0  0  0  0  0  0
    2.6985  -11.7508   -1.3474 H   0  0  0  0  0  0  0  0  0  0  0  0
    4.1268  -12.6483   -0.7318 H   0  0  0  0  0  0  0  0  0  0  0  0
    3.0226  -12.6467   -4.9778 H   0  0  0  0  0  0  0  0  0  0  0  0
    7.2612  -12.6633   -5.8244 H   0  0  0  0  0  0  0  0  0  0  0  0
  1  2  2  0
  2  3  1  0
  3  4  1  0
  4  5  2  0
  5  6  1  0
  6  7  2  0
  7  8  1  0
  8  9  1  0
  9 10  1  0
  9 11  1  0
  9 12  1  0
  8 13  2  0
  2 14  1  0
 14 15  1  0
 15 16  2  0
 16 17  1  0
 17 18  1  0
 18 19  1  0
 19 20  1  0
 20 21  1  0
 21 22  1  0
 22 23  1  0
 23 24  1  0
 24 25  1  0
 25 26  1  0
 21 27  1  0
 27 28  1  0
 17 29  2  0
 29 30  1  0
 30 31  1  0
 31 32  1  0
 31 33  1  0
 31 34  1  0
 30 35  2  0
 13  4  1  0
 35 15  1  0
 28 18  1  0
 26 22  1  0
  3 36  1  0
  5 37  1  0
  6 38  1  0
  7 39  1  0
 13 40  1  0
 14 41  1  0
 16 42  1  0
 19 43  1  0
 19 44  1  0
 20 45  1  0
 20 46  1  0
 21 47  1  0
 22 48  1  0
 23 49  1  0
 23 50  1  0
 24 51  1  0
 24 52  1  0
 25 53  1  0
 25 54  1  0
 26 55  1  0
 26 56  1  0
 27 57  1  0
 27 58  1  0
 28 59  1  0
 28 60  1  0
 29 61  1  0
 35 62  1  0
M  CHG  1  22   1
M  END
>  <meeko>  (3) 
{"is_sidechain": [false], "free_energy": -8.375, "intermolecular_energy": -11.095, "internal_energy": -1.372}

$$$$
LIB_IVCDTDIZAJTORZ__M_PUB_ALL__e8__s20260927
     RDKit          3D

 62 65  0  0  0  0  0  0  0  0999 V2000
    1.3160  -12.2720   -1.0340 O   0  0  0  0  0  0  0  0  0  0  0  0
    1.4980  -11.1260   -1.4280 C   0  0  0  0  0  0  0  0  0  0  0  0
    0.7220  -10.0280   -1.0910 N   0  0  0  0  0  0  0  0  0  0  0  0
   -0.3540   -9.9770   -0.1790 C   0  0  0  0  0  0  0  0  0  0  0  0
   -0.2650   -9.4440    1.1080 C   0  0  0  0  0  0  0  0  0  0  0  0
   -1.3830   -9.4230    1.9470 C   0  0  0  0  0  0  0  0  0  0  0  0
   -2.6010   -9.9350    1.5080 C   0  0  0  0  0  0  0  0  0  0  0  0
   -2.7150  -10.4790    0.2240 C   0  0  0  0  0  0  0  0  0  0  0  0
   -4.0350  -11.0150   -0.2740 C   0  0  0  0  0  0  0  0  0  0  0  0
   -3.8890  -11.7950   -1.3780 F   0  0  0  0  0  0  0  0  0  0  0  0
   -4.9190  -10.0380   -0.6120 F   0  0  0  0  0  0  0  0  0  0  0  0
   -4.6690  -11.7900    0.6500 F   0  0  0  0  0  0  0  0  0  0  0  0
   -1.5850  -10.4860   -0.6140 C   0  0  0  0  0  0  0  0  0  0  0  0
    2.5350  -10.7460   -2.2730 N   0  0  0  0  0  0  0  0  0  0  0  0
    3.4290  -11.5980   -2.9560 C   0  0  0  0  0  0  0  0  0  0  0  0
    4.1590  -12.6150   -2.3260 C   0  0  0  0  0  0  0  0  0  0  0  0
    5.0600  -13.4460   -3.0150 C   0  0  0  0  0  0  0  0  0  0  0  0
    5.8180  -14.4170   -2.3650 N   0  0  0  0  0  0  0  0  0  0  0  0
    6.9250  -15.0900   -3.0560 C   0  0  0  0  0  0  0  0  0  0  0  0
    8.1230  -15.1690   -2.1040 C   0  0  0  0  0  0  0  0  0  0  0  0
    7.7110  -15.0180   -0.6260 C   0  0  0  0  0  0  0  0  0  0  0  0
    7.5480  -13.5390   -0.2830 N   0  0  0  0  0  0  0  0  0  0  0  0
    6.9280  -13.2260    1.0580 C   0  0  0  0  0  0  0  0  0  0  0  0
    7.3580  -11.7980    1.3100 C   0  0  0  0  0  0  0  0  0  0  0  0
    8.7980  -11.8010    0.8460 C   0  0  0  0  0  0  0  0  0  0  0  0
    8.8010  -12.6880   -0.3880 C   0  0  0  0  0  0  0  0  0  0  0  0
    6.3910  -15.7710   -0.3990 C   0  0  0  0  0  0  0  0  0  0  0  0
    5.2510  -15.1810   -1.2380 C   0  0  0  0  0  0  0  0  0  0  0  0
    5.1970  -13.2100   -4.3900 C   0  0  0  0  0  0  0  0  0  0  0  0
    4.4620  -12.2130   -5.0590 C   0  0  0  0  0  0  0  0  0  0  0  0
    4.6460  -12.0200   -6.5440 C   0  0  0  0  0  0  0  0  0  0  0  0
    4.0940  -13.0300   -7.2680 F   0  0  0  0  0  0  0  0  0  0  0  0
    5.9630  -11.9860   -6.8920 F   0  0  0  0  0  0  0  0  0  0  0  0
    4.1020  -10.8670   -7.0150 F   0  0  0  0  0  0  0  0  0  0  0  0
    3.5690  -11.4180   -4.3300 C   0  0  0  0  0  0  0  0  0  0  0  0
    0.9020   -9.1780   -1.6040 H   0  0  0  0  0  0  0  0  0  0  0  0
    0.6926   -9.0372    1.4650 H   0  0  0  0  0  0  0  0  0  0  0  0
   -1.3000   -8.9999    2.9590 H   0  0  0  0  0  0  0  0  0  0  0  0
   -3.4769   -9.9117    2.1731 H   0  0  0  0  0  0  0  0  0  0  0  0
   -1.6694  -10.8989   -1.6301 H   0  0  0  0  0  0  0  0  0  0  0  0
    2.7330   -9.7560   -2.3170 H   0  0  0  0  0  0  0  0  0  0  0  0
    4.0211  -12.7698   -1.2457 H   0  0  0  0  0  0  0  0  0  0  0  0
    6.6167  -16.1047   -3.3480 H   0  0  0  0  0  0  0  0  0  0  0  0
    7.2008  -14.5263   -3.9594 H   0  0  0  0  0  0  0  0  0  0  0  0
    8.6150  -16.1440   -2.2356 H   0  0  0  0  0  0  0  0  0  0  0  0
    8.8013  -14.3385   -2.3493 H   0  0  0  0  0  0  0  0  0  0  0  0
    8.4886  -15.4416    0.0266 H   0  0  0  0  0  0  0  0  0  0  0  0
    6.8870  -13.1900   -1.0060 H   0  0  0  0  0  0  0  0  0  0  0  0
    5.8318  -13.3065    1.0146 H   0  0  0  0  0  0  0  0  0  0  0  0
    7.2429  -13.9189    1.8522 H   0  0  0  0  0  0  0  0  0  0  0  0
    6.7530  -11.0915    0.7228 H   0  0  0  0  0  0  0  0  0  0  0  0
    7.2359  -11.4822    2.3566 H   0  0  0  0  0  0  0  0  0  0  0  0
    9.1266  -10.7822    0.5928 H   0  0  0  0  0  0  0  0  0  0  0  0
    9.4861  -12.1650    1.6232 H   0  0  0  0  0  0  0  0  0  0  0  0
    8.7735  -12.0753   -1.3012 H   0  0  0  0  0  0  0  0  0  0  0  0
    9.7092  -13.3062   -0.4423 H   0  0  0  0  0  0  0  0  0  0  0  0
    6.5298  -16.8260   -0.6776 H   0  0  0  0  0  0  0  0  0  0  0  0
    6.1201  -15.6766    0.6629 H   0  0  0  0  0  0  0  0  0  0  0  0
    4.6214  -15.9952   -1.6262 H   0  0  0  0  0  0  0  0  0  0  0  0
    4.6405  -14.5140   -0.6116 H   0  0  0  0  0  0  0  0  0  0  0  0
    5.9035  -13.8254   -4.9664 H   0  0  0  0  0  0  0  0  0  0  0  0
    2.9755  -10.6480   -4.8447 H   0  0  0  0  0  0  0  0  0  0  0  0
  1  2  2  0
  2  3  1  0
  3  4  1  0
  4  5  2  0
  5  6  1  0
  6  7  2  0
  7  8  1  0
  8  9  1  0
  9 10  1  0
  9 11  1  0
  9 12  1  0
  8 13  2  0
  2 14  1  0
 14 15  1  0
 15 16  2  0
 16 17  1  0
 17 18  1  0
 18 19  1  0
 19 20  1  0
 20 21  1  0
 21 22  1  0
 22 23  1  0
 23 24  1  0
 24 25  1  0
 25 26  1  0
 21 27  1  0
 27 28  1  0
 17 29  2  0
 29 30  1  0
 30 31  1  0
 31 32  1  0
 31 33  1  0
 31 34  1  0
 30 35  2  0
 13  4  1  0
 35 15  1  0
 28 18  1  0
 26 22  1  0
  3 36  1  0
  5 37  1  0
  6 38  1  0
  7 39  1  0
 13 40  1  0
 14 41  1  0
 16 42  1  0
 19 43  1  0
 19 44  1  0
 20 45  1  0
 20 46  1  0
 21 47  1  0
 22 48  1  0
 23 49  1  0
 23 50  1  0
 24 51  1  0
 24 52  1  0
 25 53  1  0
 25 54  1  0
 26 55  1  0
 26 56  1  0
 27 57  1  0
 27 58  1  0
 28 59  1  0
 28 60  1  0
 29 61  1  0
 35 62  1  0
M  CHG  1  22   1
M  END
>  <meeko>  (4) 
{"is_sidechain": [false], "free_energy": -8.294, "intermolecular_energy": -11.232, "internal_energy": -1.127}

$$$$
LIB_IVCDTDIZAJTORZ__M_PUB_ALL__e8__s20260927
     RDKit          3D

 62 65  0  0  0  0  0  0  0  0999 V2000
    3.0360  -14.2630   -1.2530 O   0  0  0  0  0  0  0  0  0  0  0  0
    2.0630  -14.5160   -1.9550 C   0  0  0  0  0  0  0  0  0  0  0  0
    1.6550  -13.7810   -3.0560 N   0  0  0  0  0  0  0  0  0  0  0  0
    2.3010  -12.6730   -3.6440 C   0  0  0  0  0  0  0  0  0  0  0  0
    2.1520  -11.3560   -3.2050 C   0  0  0  0  0  0  0  0  0  0  0  0
    2.8370  -10.3150   -3.8380 C   0  0  0  0  0  0  0  0  0  0  0  0
    3.6780  -10.5790   -4.9170 C   0  0  0  0  0  0  0  0  0  0  0  0
    3.8400  -11.8900   -5.3790 C   0  0  0  0  0  0  0  0  0  0  0  0
    4.7660  -12.1940   -6.5300 C   0  0  0  0  0  0  0  0  0  0  0  0
    6.0110  -12.5470   -6.1090 F   0  0  0  0  0  0  0  0  0  0  0  0
    4.9360  -11.1420   -7.3770 F   0  0  0  0  0  0  0  0  0  0  0  0
    4.3250  -13.2270   -7.3010 F   0  0  0  0  0  0  0  0  0  0  0  0
    3.1520  -12.9300   -4.7270 C   0  0  0  0  0  0  0  0  0  0  0  0
    1.2190  -15.6040   -1.7580 N   0  0  0  0  0  0  0  0  0  0  0  0
    1.2120  -16.4830   -0.6540 C   0  0  0  0  0  0  0  0  0  0  0  0
    0.2190  -16.4730    0.3350 C   0  0  0  0  0  0  0  0  0  0  0  0
    0.2330  -17.3440    1.4400 C   0  0  0  0  0  0  0  0  0  0  0  0
   -0.7320  -17.2860    2.4410 N   0  0  0  0  0  0  0  0  0  0  0  0
   -0.3720  -17.5290    3.8440 C   0  0  0  0  0  0  0  0  0  0  0  0
   -1.0630  -16.4770    4.7180 C   0  0  0  0  0  0  0  0  0  0  0  0
   -2.2720  -15.8290    4.0150 C   0  0  0  0  0  0  0  0  0  0  0  0
   -1.7940  -14.7230    3.0780 N   0  0  0  0  0  0  0  0  0  0  0  0
   -2.8630  -13.8230    2.5020 C   0  0  0  0  0  0  0  0  0  0  0  0
   -2.0860  -12.5990    2.0730 C   0  0  0  0  0  0  0  0  0  0  0  0
   -1.1200  -12.4030    3.2220 C   0  0  0  0  0  0  0  0  0  0  0  0
   -0.7090  -13.8110    3.6210 C   0  0  0  0  0  0  0  0  0  0  0  0
   -3.0280  -16.9110    3.2290 C   0  0  0  0  0  0  0  0  0  0  0  0
   -2.1540  -17.5250    2.1280 C   0  0  0  0  0  0  0  0  0  0  0  0
    1.3060  -18.2430    1.5090 C   0  0  0  0  0  0  0  0  0  0  0  0
    2.3090  -18.2960    0.5210 C   0  0  0  0  0  0  0  0  0  0  0  0
    3.4290  -19.2970    0.6490 C   0  0  0  0  0  0  0  0  0  0  0  0
    2.9720  -20.5560    0.8860 F   0  0  0  0  0  0  0  0  0  0  0  0
    4.2610  -19.0000    1.6860 F   0  0  0  0  0  0  0  0  0  0  0  0
    4.2170  -19.3770   -0.4560 F   0  0  0  0  0  0  0  0  0  0  0  0
    2.2440  -17.4150   -0.5650 C   0  0  0  0  0  0  0  0  0  0  0  0
    0.7570  -14.0220   -3.4480 H   0  0  0  0  0  0  0  0  0  0  0  0
    1.4903  -11.1359   -2.3543 H   0  0  0  0  0  0  0  0  0  0  0  0
    2.7114   -9.2817   -3.4824 H   0  0  0  0  0  0  0  0  0  0  0  0
    4.2163   -9.7544   -5.4072 H   0  0  0  0  0  0  0  0  0  0  0  0
    3.2849  -13.9652   -5.0744 H   0  0  0  0  0  0  0  0  0  0  0  0
    0.6230  -15.8510   -2.5350 H   0  0  0  0  0  0  0  0  0  0  0  0
   -0.6074  -15.7528    0.2434 H   0  0  0  0  0  0  0  0  0  0  0  0
   -0.7041  -18.5343    4.1425 H   0  0  0  0  0  0  0  0  0  0  0  0
    0.7189  -17.4613    3.9681 H   0  0  0  0  0  0  0  0  0  0  0  0
   -1.4099  -16.9597    5.6436 H   0  0  0  0  0  0  0  0  0  0  0  0
   -0.3316  -15.6823    4.9266 H   0  0  0  0  0  0  0  0  0  0  0  0
   -2.9465  -15.3832    4.7608 H   0  0  0  0  0  0  0  0  0  0  0  0
   -1.3780  -15.2410    2.2770 H   0  0  0  0  0  0  0  0  0  0  0  0
   -3.3579  -14.2980    1.6421 H   0  0  0  0  0  0  0  0  0  0  0  0
   -3.6680  -13.5958    3.2164 H   0  0  0  0  0  0  0  0  0  0  0  0
   -1.5499  -12.7793    1.1296 H   0  0  0  0  0  0  0  0  0  0  0  0
   -2.7215  -11.7220    1.8807 H   0  0  0  0  0  0  0  0  0  0  0  0
   -0.2451  -11.8199    2.8987 H   0  0  0  0  0  0  0  0  0  0  0  0
   -1.5719  -11.8476    4.0571 H   0  0  0  0  0  0  0  0  0  0  0  0
    0.2647  -14.0668    3.1778 H   0  0  0  0  0  0  0  0  0  0  0  0
   -0.6024  -13.9100    4.7113 H   0  0  0  0  0  0  0  0  0  0  0  0
   -3.3376  -17.7058    3.9236 H   0  0  0  0  0  0  0  0  0  0  0  0
   -3.9018  -16.4424    2.7528 H   0  0  0  0  0  0  0  0  0  0  0  0
   -2.3406  -18.6076    2.0722 H   0  0  0  0  0  0  0  0  0  0  0  0
   -2.4006  -17.0612    1.1615 H   0  0  0  0  0  0  0  0  0  0  0  0
    1.3672  -18.9315    2.3647 H   0  0  0  0  0  0  0  0  0  0  0  0
    3.0114  -17.4587   -1.3519 H   0  0  0  0  0  0  0  0  0  0  0  0
  1  2  2  0
  2  3  1  0
  3  4  1  0
  4  5  2  0
  5  6  1  0
  6  7  2  0
  7  8  1  0
  8  9  1  0
  9 10  1  0
  9 11  1  0
  9 12  1  0
  8 13  2  0
  2 14  1  0
 14 15  1  0
 15 16  2  0
 16 17  1  0
 17 18  1  0
 18 19  1  0
 19 20  1  0
 20 21  1  0
 21 22  1  0
 22 23  1  0
 23 24  1  0
 24 25  1  0
 25 26  1  0
 21 27  1  0
 27 28  1  0
 17 29  2  0
 29 30  1  0
 30 31  1  0
 31 32  1  0
 31 33  1  0
 31 34  1  0
 30 35  2  0
 13  4  1  0
 35 15  1  0
 28 18  1  0
 26 22  1  0
  3 36  1  0
  5 37  1  0
  6 38  1  0
  7 39  1  0
 13 40  1  0
 14 41  1  0
 16 42  1  0
 19 43  1  0
 19 44  1  0
 20 45  1  0
 20 46  1  0
 21 47  1  0
 22 48  1  0
 23 49  1  0
 23 50  1  0
 24 51  1  0
 24 52  1  0
 25 53  1  0
 25 54  1  0
 26 55  1  0
 26 56  1  0
 27 57  1  0
 27 58  1  0
 28 59  1  0
 28 60  1  0
 29 61  1  0
 35 62  1  0
M  CHG  1  22   1
M  END
>  <meeko>  (5) 
{"is_sidechain": [false], "free_energy": -8.245, "intermolecular_energy": -10.82, "internal_energy": -1.472}

$$$$
LIB_IVCDTDIZAJTORZ__M_PUB_ALL__e8__s20260927
     RDKit          3D

 62 65  0  0  0  0  0  0  0  0999 V2000
    7.2260  -13.8430   -2.8470 O   0  0  0  0  0  0  0  0  0  0  0  0
    7.3660  -12.7860   -3.4520 C   0  0  0  0  0  0  0  0  0  0  0  0
    6.3530  -12.0810   -4.0810 N   0  0  0  0  0  0  0  0  0  0  0  0
    4.9710  -12.3700   -4.0830 C   0  0  0  0  0  0  0  0  0  0  0  0
    4.3180  -13.0660   -5.1010 C   0  0  0  0  0  0  0  0  0  0  0  0
    2.9450  -13.3190   -5.0220 C   0  0  0  0  0  0  0  0  0  0  0  0
    2.2110  -12.8780   -3.9230 C   0  0  0  0  0  0  0  0  0  0  0  0
    2.8420  -12.1740   -2.8910 C   0  0  0  0  0  0  0  0  0  0  0  0
    2.0650  -11.7130   -1.6830 C   0  0  0  0  0  0  0  0  0  0  0  0
    1.0910  -12.5960   -1.3310 F   0  0  0  0  0  0  0  0  0  0  0  0
    1.4450  -10.5160   -1.8660 F   0  0  0  0  0  0  0  0  0  0  0  0
    2.8490  -11.5630   -0.5790 F   0  0  0  0  0  0  0  0  0  0  0  0
    4.2260  -11.9340   -2.9790 C   0  0  0  0  0  0  0  0  0  0  0  0
    8.5780  -12.1170   -3.5870 N   0  0  0  0  0  0  0  0  0  0  0  0
    9.8560  -12.5960   -3.2270 C   0  0  0  0  0  0  0  0  0  0  0  0
   10.6390  -13.4070   -4.0590 C   0  0  0  0  0  0  0  0  0  0  0  0
   11.9040  -13.8920   -3.6800 C   0  0  0  0  0  0  0  0  0  0  0  0
   12.6470  -14.7400   -4.4970 N   0  0  0  0  0  0  0  0  0  0  0  0
   12.5740  -16.1960   -4.3280 C   0  0  0  0  0  0  0  0  0  0  0  0
   12.4690  -16.8470   -5.7110 C   0  0  0  0  0  0  0  0  0  0  0  0
   12.9660  -15.9190   -6.8370 C   0  0  0  0  0  0  0  0  0  0  0  0
   11.8610  -14.9390   -7.2250 N   0  0  0  0  0  0  0  0  0  0  0  0
   12.0810  -14.1460   -8.4920 C   0  0  0  0  0  0  0  0  0  0  0  0
   10.6860  -13.6930   -8.8600 C   0  0  0  0  0  0  0  0  0  0  0  0
    9.8550  -14.9260   -8.5790 C   0  0  0  0  0  0  0  0  0  0  0  0
   10.4590  -15.5150   -7.3150 C   0  0  0  0  0  0  0  0  0  0  0  0
   14.2080  -15.1620   -6.3450 C   0  0  0  0  0  0  0  0  0  0  0  0
   13.8850  -14.2650   -5.1440 C   0  0  0  0  0  0  0  0  0  0  0  0
   12.3580  -13.5170   -2.4080 C   0  0  0  0  0  0  0  0  0  0  0  0
   11.6080  -12.6840   -1.5560 C   0  0  0  0  0  0  0  0  0  0  0  0
   12.1610  -12.3080   -0.2040 C   0  0  0  0  0  0  0  0  0  0  0  0
   12.5420  -13.3960    0.5180 F   0  0  0  0  0  0  0  0  0  0  0  0
   11.2390  -11.6560    0.5580 F   0  0  0  0  0  0  0  0  0  0  0  0
   13.2440  -11.4900   -0.2680 F   0  0  0  0  0  0  0  0  0  0  0  0
   10.3580  -12.2190   -1.9830 C   0  0  0  0  0  0  0  0  0  0  0  0
    6.6380  -11.3060   -4.6610 H   0  0  0  0  0  0  0  0  0  0  0  0
    4.8882  -13.4187   -5.9731 H   0  0  0  0  0  0  0  0  0  0  0  0
    2.4422  -13.8687   -5.8313 H   0  0  0  0  0  0  0  0  0  0  0  0
    1.1319  -13.0838   -3.8662 H   0  0  0  0  0  0  0  0  0  0  0  0
    4.7326  -11.3938   -2.1656 H   0  0  0  0  0  0  0  0  0  0  0  0
    8.5220  -11.1500   -3.8730 H   0  0  0  0  0  0  0  0  0  0  0  0
   10.2478  -13.6761   -5.0512 H   0  0  0  0  0  0  0  0  0  0  0  0
   13.4799  -16.5552   -3.8177 H   0  0  0  0  0  0  0  0  0  0  0  0
   11.6942  -16.4591   -3.7224 H   0  0  0  0  0  0  0  0  0  0  0  0
   13.0753  -17.7648   -5.7163 H   0  0  0  0  0  0  0  0  0  0  0  0
   11.4072  -17.0640   -5.8996 H   0  0  0  0  0  0  0  0  0  0  0  0
   13.2302  -16.5125   -7.7247 H   0  0  0  0  0  0  0  0  0  0  0  0
   11.8540  -14.2540   -6.4420 H   0  0  0  0  0  0  0  0  0  0  0  0
   12.7405  -13.2848   -8.3093 H   0  0  0  0  0  0  0  0  0  0  0  0
   12.5702  -14.7281   -9.2868 H   0  0  0  0  0  0  0  0  0  0  0  0
   10.3652  -12.8467   -8.2348 H   0  0  0  0  0  0  0  0  0  0  0  0
   10.6011  -13.3345   -9.8965 H   0  0  0  0  0  0  0  0  0  0  0  0
    8.8013  -14.6554   -8.4163 H   0  0  0  0  0  0  0  0  0  0  0  0
    9.8670  -15.6374   -9.4179 H   0  0  0  0  0  0  0  0  0  0  0  0
    9.8670  -15.2236   -6.4348 H   0  0  0  0  0  0  0  0  0  0  0  0
   10.4720  -16.6145   -7.3445 H   0  0  0  0  0  0  0  0  0  0  0  0
   14.9764  -15.8914   -6.0490 H   0  0  0  0  0  0  0  0  0  0  0  0
   14.5675  -14.5224   -7.1646 H   0  0  0  0  0  0  0  0  0  0  0  0
   14.7146  -14.3045   -4.4227 H   0  0  0  0  0  0  0  0  0  0  0  0
   13.7468  -13.2286   -5.4859 H   0  0  0  0  0  0  0  0  0  0  0  0
   13.3350  -13.8867   -2.0632 H   0  0  0  0  0  0  0  0  0  0  0  0
    9.7701  -11.5535   -1.3338 H   0  0  0  0  0  0  0  0  0  0  0  0
  1  2  2  0
  2  3  1  0
  3  4  1  0
  4  5  2  0
  5  6  1  0
  6  7  2  0
  7  8  1  0
  8  9  1  0
  9 10  1  0
  9 11  1  0
  9 12  1  0
  8 13  2  0
  2 14  1  0
 14 15  1  0
 15 16  2  0
 16 17  1  0
 17 18  1  0
 18 19  1  0
 19 20  1  0
 20 21  1  0
 21 22  1  0
 22 23  1  0
 23 24  1  0
 24 25  1  0
 25 26  1  0
 21 27  1  0
 27 28  1  0
 17 29  2  0
 29 30  1  0
 30 31  1  0
 31 32  1  0
 31 33  1  0
 31 34  1  0
 30 35  2  0
 13  4  1  0
 35 15  1  0
 28 18  1  0
 26 22  1  0
  3 36  1  0
  5 37  1  0
  6 38  1  0
  7 39  1  0
 13 40  1  0
 14 41  1  0
 16 42  1  0
 19 43  1  0
 19 44  1  0
 20 45  1  0
 20 46  1  0
 21 47  1  0
 22 48  1  0
 23 49  1  0
 23 50  1  0
 24 51  1  0
 24 52  1  0
 25 53  1  0
 25 54  1  0
 26 55  1  0
 26 56  1  0
 27 57  1  0
 27 58  1  0
 28 59  1  0
 28 60  1  0
 29 61  1  0
 35 62  1  0
M  CHG  1  22   1
M  END
>  <meeko>  (6) 
{"is_sidechain": [false], "free_energy": -8.218, "intermolecular_energy": -10.666, "internal_energy": -1.589}

$$$$
LIB_IVCDTDIZAJTORZ__M_PUB_ALL__e8__s20260927
     RDKit          3D

 62 65  0  0  0  0  0  0  0  0999 V2000
    7.2240  -11.3460   -0.8290 O   0  0  0  0  0  0  0  0  0  0  0  0
    7.3940  -12.5480   -0.9960 C   0  0  0  0  0  0  0  0  0  0  0  0
    8.6180  -13.1960   -0.9850 N   0  0  0  0  0  0  0  0  0  0  0  0
    9.8850  -12.6440   -0.6960 C   0  0  0  0  0  0  0  0  0  0  0  0
   10.2520  -12.1360    0.5510 C   0  0  0  0  0  0  0  0  0  0  0  0
   11.5330  -11.6140    0.7560 C   0  0  0  0  0  0  0  0  0  0  0  0
   12.4600  -11.5940   -0.2840 C   0  0  0  0  0  0  0  0  0  0  0  0
   12.1140  -12.0930   -1.5450 C   0  0  0  0  0  0  0  0  0  0  0  0
   13.1150  -12.1010   -2.6730 C   0  0  0  0  0  0  0  0  0  0  0  0
   13.5390  -13.3570   -2.9760 F   0  0  0  0  0  0  0  0  0  0  0  0
   14.2350  -11.3760   -2.4050 F   0  0  0  0  0  0  0  0  0  0  0  0
   12.6070  -11.5900   -3.8300 F   0  0  0  0  0  0  0  0  0  0  0  0
   10.8250  -12.6240   -1.7360 C   0  0  0  0  0  0  0  0  0  0  0  0
    6.3650  -13.4600   -1.2110 N   0  0  0  0  0  0  0  0  0  0  0  0
    5.0060  -13.1650   -1.4490 C   0  0  0  0  0  0  0  0  0  0  0  0
    3.9570  -13.6790   -0.6740 C   0  0  0  0  0  0  0  0  0  0  0  0
    2.6050  -13.3910   -0.9330 C   0  0  0  0  0  0  0  0  0  0  0  0
    1.5720  -13.9520   -0.1870 N   0  0  0  0  0  0  0  0  0  0  0  0
    0.2960  -14.3060   -0.8220 C   0  0  0  0  0  0  0  0  0  0  0  0
   -0.1400  -15.6830   -0.3130 C   0  0  0  0  0  0  0  0  0  0  0  0
    0.5400  -16.0630    1.0170 C   0  0  0  0  0  0  0  0  0  0  0  0
    1.9370  -16.6170    0.7440 N   0  0  0  0  0  0  0  0  0  0  0  0
    2.6470  -17.2530    1.9150 C   0  0  0  0  0  0  0  0  0  0  0  0
    3.7010  -18.1110    1.2520 C   0  0  0  0  0  0  0  0  0  0  0  0
    2.9480  -18.7150    0.0870 C   0  0  0  0  0  0  0  0  0  0  0  0
    2.0530  -17.5930   -0.4130 C   0  0  0  0  0  0  0  0  0  0  0  0
    0.6220  -14.8130    1.9070 C   0  0  0  0  0  0  0  0  0  0  0  0
    1.4830  -13.7170    1.2670 C   0  0  0  0  0  0  0  0  0  0  0  0
    2.3460  -12.5470   -2.0220 C   0  0  0  0  0  0  0  0  0  0  0  0
    3.3770  -11.9940   -2.8070 C   0  0  0  0  0  0  0  0  0  0  0  0
    3.0300  -11.0820   -3.9570 C   0  0  0  0  0  0  0  0  0  0  0  0
    2.4830   -9.9090   -3.5380 F   0  0  0  0  0  0  0  0  0  0  0  0
    2.1150  -11.6450   -4.7950 F   0  0  0  0  0  0  0  0  0  0  0  0
    4.0980  -10.7520   -4.7310 F   0  0  0  0  0  0  0  0  0  0  0  0
    4.7080  -12.3030   -2.5020 C   0  0  0  0  0  0  0  0  0  0  0  0
    8.6180  -14.1610   -1.2800 H   0  0  0  0  0  0  0  0  0  0  0  0
    9.5280  -12.1463    1.3790 H   0  0  0  0  0  0  0  0  0  0  0  0
   11.8103  -11.2170    1.7437 H   0  0  0  0  0  0  0  0  0  0  0  0
   13.4667  -11.1848   -0.1135 H   0  0  0  0  0  0  0  0  0  0  0  0
   10.5496  -13.0312   -2.7201 H   0  0  0  0  0  0  0  0  0  0  0  0
    6.5990  -14.4330   -1.0760 H   0  0  0  0  0  0  0  0  0  0  0  0
    4.2020  -14.3361    0.1735 H   0  0  0  0  0  0  0  0  0  0  0  0
   -0.4668  -13.5570   -0.5629 H   0  0  0  0  0  0  0  0  0  0  0  0
    0.4154  -14.3309   -1.9152 H   0  0  0  0  0  0  0  0  0  0  0  0
   -1.2296  -15.6747   -0.1624 H   0  0  0  0  0  0  0  0  0  0  0  0
    0.1585  -16.4275   -1.0657 H   0  0  0  0  0  0  0  0  0  0  0  0
   -0.0461  -16.8388    1.5315 H   0  0  0  0  0  0  0  0  0  0  0  0
    2.4890  -15.7740    0.4820 H   0  0  0  0  0  0  0  0  0  0  0  0
    3.1073  -16.4897    2.5597 H   0  0  0  0  0  0  0  0  0  0  0  0
    1.9735  -17.8247    2.5704 H   0  0  0  0  0  0  0  0  0  0  0  0
    4.5484  -17.5017    0.9044 H   0  0  0  0  0  0  0  0  0  0  0  0
    4.1420  -18.8612    1.9248 H   0  0  0  0  0  0  0  0  0  0  0  0
    3.6447  -19.0366   -0.7011 H   0  0  0  0  0  0  0  0  0  0  0  0
    2.3751  -19.6078    0.3780 H   0  0  0  0  0  0  0  0  0  0  0  0
    2.5057  -17.1010   -1.2865 H   0  0  0  0  0  0  0  0  0  0  0  0
    1.0685  -17.9680   -0.7295 H   0  0  0  0  0  0  0  0  0  0  0  0
   -0.3935  -14.4213    2.0661 H   0  0  0  0  0  0  0  0  0  0  0  0
    1.0871  -15.1012    2.8613 H   0  0  0  0  0  0  0  0  0  0  0  0
    1.0246  -12.7345    1.4528 H   0  0  0  0  0  0  0  0  0  0  0  0
    2.4915  -13.7382    1.7056 H   0  0  0  0  0  0  0  0  0  0  0  0
    1.3018  -12.3083   -2.2722 H   0  0  0  0  0  0  0  0  0  0  0  0
    5.5222  -11.8631   -3.0966 H   0  0  0  0  0  0  0  0  0  0  0  0
  1  2  2  0
  2  3  1  0
  3  4  1  0
  4  5  2  0
  5  6  1  0
  6  7  2  0
  7  8  1  0
  8  9  1  0
  9 10  1  0
  9 11  1  0
  9 12  1  0
  8 13  2  0
  2 14  1  0
 14 15  1  0
 15 16  2  0
 16 17  1  0
 17 18  1  0
 18 19  1  0
 19 20  1  0
 20 21  1  0
 21 22  1  0
 22 23  1  0
 23 24  1  0
 24 25  1  0
 25 26  1  0
 21 27  1  0
 27 28  1  0
 17 29  2  0
 29 30  1  0
 30 31  1  0
 31 32  1  0
 31 33  1  0
 31 34  1  0
 30 35  2  0
 13  4  1  0
 35 15  1  0
 28 18  1  0
 26 22  1  0
  3 36  1  0
  5 37  1  0
  6 38  1  0
  7 39  1  0
 13 40  1  0
 14 41  1  0
 16 42  1  0
 19 43  1  0
 19 44  1  0
 20 45  1  0
 20 46  1  0
 21 47  1  0
 22 48  1  0
 23 49  1  0
 23 50  1  0
 24 51  1  0
 24 52  1  0
 25 53  1  0
 25 54  1  0
 26 55  1  0
 26 56  1  0
 27 57  1  0
 27 58  1  0
 28 59  1  0
 28 60  1  0
 29 61  1  0
 35 62  1  0
M  CHG  1  22   1
M  END
>  <meeko>  (7) 
{"is_sidechain": [false], "free_energy": -8.168, "intermolecular_energy": -10.923, "internal_energy": -1.265}

$$$$
LIB_IVCDTDIZAJTORZ__M_PUB_ALL__e8__s20260927
     RDKit          3D

 62 65  0  0  0  0  0  0  0  0999 V2000
    1.4620  -12.8320   -3.0520 O   0  0  0  0  0  0  0  0  0  0  0  0
    2.4120  -12.4220   -2.3950 C   0  0  0  0  0  0  0  0  0  0  0  0
    3.7220  -12.3430   -2.8390 N   0  0  0  0  0  0  0  0  0  0  0  0
    4.2140  -12.6200   -4.1320 C   0  0  0  0  0  0  0  0  0  0  0  0
    4.1050  -11.7470   -5.2160 C   0  0  0  0  0  0  0  0  0  0  0  0
    4.6290  -12.0950   -6.4640 C   0  0  0  0  0  0  0  0  0  0  0  0
    5.2670  -13.3210   -6.6420 C   0  0  0  0  0  0  0  0  0  0  0  0
    5.3850  -14.2150   -5.5730 C   0  0  0  0  0  0  0  0  0  0  0  0
    6.0960  -15.5350   -5.7450 C   0  0  0  0  0  0  0  0  0  0  0  0
    6.5590  -15.7070   -7.0120 F   0  0  0  0  0  0  0  0  0  0  0  0
    5.3060  -16.6110   -5.4790 F   0  0  0  0  0  0  0  0  0  0  0  0
    7.1820  -15.6570   -4.9300 F   0  0  0  0  0  0  0  0  0  0  0  0
    4.8620  -13.8490   -4.3190 C   0  0  0  0  0  0  0  0  0  0  0  0
    2.3140  -11.9540   -1.0890 N   0  0  0  0  0  0  0  0  0  0  0  0
    1.1860  -12.0270   -0.2440 C   0  0  0  0  0  0  0  0  0  0  0  0
    0.5160  -13.2230    0.0480 C   0  0  0  0  0  0  0  0  0  0  0  0
   -0.6180  -13.2790    0.8790 C   0  0  0  0  0  0  0  0  0  0  0  0
   -1.3040  -14.4670    1.1170 N   0  0  0  0  0  0  0  0  0  0  0  0
   -2.3430  -14.9310    0.1900 C   0  0  0  0  0  0  0  0  0  0  0  0
   -2.1580  -16.4340   -0.0440 C   0  0  0  0  0  0  0  0  0  0  0  0
   -1.3360  -17.1070    1.0730 C   0  0  0  0  0  0  0  0  0  0  0  0
    0.1540  -16.8940    0.8190 N   0  0  0  0  0  0  0  0  0  0  0  0
    1.1030  -17.7250    1.6500 C   0  0  0  0  0  0  0  0  0  0  0  0
    2.3880  -17.6770    0.8540 C   0  0  0  0  0  0  0  0  0  0  0  0
    1.8990  -17.8340   -0.5690 C   0  0  0  0  0  0  0  0  0  0  0  0
    0.6110  -17.0290   -0.6230 C   0  0  0  0  0  0  0  0  0  0  0  0
   -1.7430  -16.4990    2.4240 C   0  0  0  0  0  0  0  0  0  0  0  0
   -1.4310  -14.9990    2.4870 C   0  0  0  0  0  0  0  0  0  0  0  0
   -1.0570  -12.0610    1.4150 C   0  0  0  0  0  0  0  0  0  0  0  0
   -0.3950  -10.8440    1.1610 C   0  0  0  0  0  0  0  0  0  0  0  0
   -0.9110   -9.5700    1.7810 C   0  0  0  0  0  0  0  0  0  0  0  0
   -0.0020   -8.5610    1.7210 F   0  0  0  0  0  0  0  0  0  0  0  0
   -1.2070   -9.7300    3.1020 F   0  0  0  0  0  0  0  0  0  0  0  0
   -2.0450   -9.1010    1.1960 F   0  0  0  0  0  0  0  0  0  0  0  0
    0.7360  -10.8420    0.3370 C   0  0  0  0  0  0  0  0  0  0  0  0
    4.4190  -12.1230   -2.1430 H   0  0  0  0  0  0  0  0  0  0  0  0
    3.6025  -10.7771   -5.0867 H   0  0  0  0  0  0  0  0  0  0  0  0
    4.5374  -11.3978   -7.3098 H   0  0  0  0  0  0  0  0  0  0  0  0
    5.6792  -13.5865   -7.6267 H   0  0  0  0  0  0  0  0  0  0  0  0
    4.9635  -14.5403   -3.4694 H   0  0  0  0  0  0  0  0  0  0  0  0
    3.0960  -11.4120   -0.7510 H   0  0  0  0  0  0  0  0  0  0  0  0
    0.8930  -14.1582   -0.3915 H   0  0  0  0  0  0  0  0  0  0  0  0
   -3.3364  -14.7436    0.6237 H   0  0  0  0  0  0  0  0  0  0  0  0
   -2.2616  -14.3906   -0.7646 H   0  0  0  0  0  0  0  0  0  0  0  0
   -3.1491  -16.9091   -0.0881 H   0  0  0  0  0  0  0  0  0  0  0  0
   -1.6073  -16.5607   -0.9878 H   0  0  0  0  0  0  0  0  0  0  0  0
   -1.5342  -18.1889    1.0860 H   0  0  0  0  0  0  0  0  0  0  0  0
    0.3110  -15.9010    1.0910 H   0  0  0  0  0  0  0  0  0  0  0  0
    1.2408  -17.2862    2.6492 H   0  0  0  0  0  0  0  0  0  0  0  0
    0.7411  -18.7488    1.8255 H   0  0  0  0  0  0  0  0  0  0  0  0
    2.9056  -16.7163    0.9926 H   0  0  0  0  0  0  0  0  0  0  0  0
    3.1178  -18.4436    1.1535 H   0  0  0  0  0  0  0  0  0  0  0  0
    2.6371  -17.4338   -1.2796 H   0  0  0  0  0  0  0  0  0  0  0  0
    1.7439  -18.8880   -0.8428 H   0  0  0  0  0  0  0  0  0  0  0  0
    0.7959  -16.0374   -1.0618 H   0  0  0  0  0  0  0  0  0  0  0  0
   -0.1502  -17.5197   -1.2473 H   0  0  0  0  0  0  0  0  0  0  0  0
   -2.8235  -16.6449    2.5697 H   0  0  0  0  0  0  0  0  0  0  0  0
   -1.1674  -17.0028    3.2145 H   0  0  0  0  0  0  0  0  0  0  0  0
   -2.2457  -14.4763    3.0096 H   0  0  0  0  0  0  0  0  0  0  0  0
   -0.4878  -14.8424    3.0309 H   0  0  0  0  0  0  0  0  0  0  0  0
   -1.9503  -12.0551    2.0569 H   0  0  0  0  0  0  0  0  0  0  0  0
    1.2727   -9.9009    0.1467 H   0  0  0  0  0  0  0  0  0  0  0  0
  1  2  2  0
  2  3  1  0
  3  4  1  0
  4  5  2  0
  5  6  1  0
  6  7  2  0
  7  8  1  0
  8  9  1  0
  9 10  1  0
  9 11  1  0
  9 12  1  0
  8 13  2  0
  2 14  1  0
 14 15  1  0
 15 16  2  0
 16 17  1  0
 17 18  1  0
 18 19  1  0
 19 20  1  0
 20 21  1  0
 21 22  1  0
 22 23  1  0
 23 24  1  0
 24 25  1  0
 25 26  1  0
 21 27  1  0
 27 28  1  0
 17 29  2  0
 29 30  1  0
 30 31  1  0
 31 32  1  0
 31 33  1  0
 31 34  1  0
 30 35  2  0
 13  4  1  0
 35 15  1  0
 28 18  1  0
 26 22  1  0
  3 36  1  0
  5 37  1  0
  6 38  1  0
  7 39  1  0
 13 40  1  0
 14 41  1  0
 16 42  1  0
 19 43  1  0
 19 44  1  0
 20 45  1  0
 20 46  1  0
 21 47  1  0
 22 48  1  0
 23 49  1  0
 23 50  1  0
 24 51  1  0
 24 52  1  0
 25 53  1  0
 25 54  1  0
 26 55  1  0
 26 56  1  0
 27 57  1  0
 27 58  1  0
 28 59  1  0
 28 60  1  0
 29 61  1  0
 35 62  1  0
M  CHG  1  22   1
M  END
>  <meeko>  (8) 
{"is_sidechain": [false], "free_energy": -8.159, "intermolecular_energy": -10.674, "internal_energy": -1.503}

$$$$
LIB_IVCDTDIZAJTORZ__M_PUB_ALL__e8__s20260927
     RDKit          3D

 62 65  0  0  0  0  0  0  0  0999 V2000
    7.8540  -11.7280   -0.2480 O   0  0  0  0  0  0  0  0  0  0  0  0
    8.2290  -12.8890   -0.1330 C   0  0  0  0  0  0  0  0  0  0  0  0
    9.5470  -13.3140   -0.1730 N   0  0  0  0  0  0  0  0  0  0  0  0
   10.7100  -12.5190   -0.2590 C   0  0  0  0  0  0  0  0  0  0  0  0
   11.1360  -11.6440    0.7410 C   0  0  0  0  0  0  0  0  0  0  0  0
   12.3080  -10.8980    0.5800 C   0  0  0  0  0  0  0  0  0  0  0  0
   13.0640  -11.0180   -0.5840 C   0  0  0  0  0  0  0  0  0  0  0  0
   12.6550  -11.8850   -1.6030 C   0  0  0  0  0  0  0  0  0  0  0  0
   13.4770  -12.0440   -2.8570 C   0  0  0  0  0  0  0  0  0  0  0  0
   12.8500  -11.5350   -3.9520 F   0  0  0  0  0  0  0  0  0  0  0  0
   13.7640  -13.3410   -3.1530 F   0  0  0  0  0  0  0  0  0  0  0  0
   14.6780  -11.4040   -2.7840 F   0  0  0  0  0  0  0  0  0  0  0  0
   11.4790  -12.6380   -1.4250 C   0  0  0  0  0  0  0  0  0  0  0  0
    7.3770  -13.9680    0.0740 N   0  0  0  0  0  0  0  0  0  0  0  0
    5.9670  -13.9610    0.0110 C   0  0  0  0  0  0  0  0  0  0  0  0
    5.1500  -14.6610    0.9080 C   0  0  0  0  0  0  0  0  0  0  0  0
    3.7460  -14.6580    0.8240 C   0  0  0  0  0  0  0  0  0  0  0  0
    2.9500  -15.4020    1.6910 N   0  0  0  0  0  0  0  0  0  0  0  0
    2.5200  -14.8420    2.9790 C   0  0  0  0  0  0  0  0  0  0  0  0
    1.0380  -15.1690    3.1860 C   0  0  0  0  0  0  0  0  0  0  0  0
    0.5690  -16.3540    2.3190 C   0  0  0  0  0  0  0  0  0  0  0  0
    0.2540  -15.8680    0.9060 N   0  0  0  0  0  0  0  0  0  0  0  0
   -0.4460  -16.8520   -0.0020 C   0  0  0  0  0  0  0  0  0  0  0  0
   -1.0480  -15.9650   -1.0690 C   0  0  0  0  0  0  0  0  0  0  0  0
   -1.5700  -14.7930   -0.2670 C   0  0  0  0  0  0  0  0  0  0  0  0
   -0.5170  -14.5640    0.8050 C   0  0  0  0  0  0  0  0  0  0  0  0
    1.6780  -17.4160    2.2870 C   0  0  0  0  0  0  0  0  0  0  0  0
    2.9610  -16.8760    1.6420 C   0  0  0  0  0  0  0  0  0  0  0  0
    3.1870  -13.9070   -0.2190 C   0  0  0  0  0  0  0  0  0  0  0  0
    3.9770  -13.1730   -1.1250 C   0  0  0  0  0  0  0  0  0  0  0  0
    3.3120  -12.3730   -2.2170 C   0  0  0  0  0  0  0  0  0  0  0  0
    3.2770  -13.0440   -3.4000 F   0  0  0  0  0  0  0  0  0  0  0  0
    3.9700  -11.2070   -2.4670 F   0  0  0  0  0  0  0  0  0  0  0  0
    2.0280  -12.0280   -1.9340 F   0  0  0  0  0  0  0  0  0  0  0  0
    5.3700  -13.1990   -0.9920 C   0  0  0  0  0  0  0  0  0  0  0  0
    9.6950  -14.3120   -0.2100 H   0  0  0  0  0  0  0  0  0  0  0  0
   10.5454  -11.5402    1.6632 H   0  0  0  0  0  0  0  0  0  0  0  0
   12.6345  -10.2131    1.3764 H   0  0  0  0  0  0  0  0  0  0  0  0
   13.9855  -10.4291   -0.7023 H   0  0  0  0  0  0  0  0  0  0  0  0
   11.1576  -13.3324   -2.2153 H   0  0  0  0  0  0  0  0  0  0  0  0
    7.8090  -14.8180    0.4070 H   0  0  0  0  0  0  0  0  0  0  0  0
    5.6274  -15.2384    1.7134 H   0  0  0  0  0  0  0  0  0  0  0  0
    3.1139  -15.2849    3.7921 H   0  0  0  0  0  0  0  0  0  0  0  0
    2.6674  -13.7519    2.9818 H   0  0  0  0  0  0  0  0  0  0  0  0
    0.8767  -15.4207    4.2446 H   0  0  0  0  0  0  0  0  0  0  0  0
    0.4555  -14.2849    2.8875 H   0  0  0  0  0  0  0  0  0  0  0  0
   -0.3440  -16.7944    2.7461 H   0  0  0  0  0  0  0  0  0  0  0  0
    1.1920  -15.6940    0.4910 H   0  0  0  0  0  0  0  0  0  0  0  0
    0.2693  -17.5648   -0.4382 H   0  0  0  0  0  0  0  0  0  0  0  0
   -1.1928  -17.4675    0.5209 H   0  0  0  0  0  0  0  0  0  0  0  0
   -0.2860  -15.6424   -1.7938 H   0  0  0  0  0  0  0  0  0  0  0  0
   -1.8230  -16.4653   -1.6682 H   0  0  0  0  0  0  0  0  0  0  0  0
   -1.6758  -13.9026   -0.9041 H   0  0  0  0  0  0  0  0  0  0  0  0
   -2.5647  -14.9890    0.1598 H   0  0  0  0  0  0  0  0  0  0  0  0
    0.1544  -13.7426    0.5143 H   0  0  0  0  0  0  0  0  0  0  0  0
   -0.9704  -14.2839    1.7673 H   0  0  0  0  0  0  0  0  0  0  0  0
    1.9015  -17.7295    3.3174 H   0  0  0  0  0  0  0  0  0  0  0  0
    1.3226  -18.2655    1.6854 H   0  0  0  0  0  0  0  0  0  0  0  0
    3.8356  -17.2551    2.1910 H   0  0  0  0  0  0  0  0  0  0  0  0
    3.0145  -17.2088    0.5949 H   0  0  0  0  0  0  0  0  0  0  0  0
    2.0932  -13.8903   -0.3340 H   0  0  0  0  0  0  0  0  0  0  0  0
    5.9967  -12.6153   -1.6823 H   0  0  0  0  0  0  0  0  0  0  0  0
  1  2  2  0
  2  3  1  0
  3  4  1  0
  4  5  2  0
  5  6  1  0
  6  7  2  0
  7  8  1  0
  8  9  1  0
  9 10  1  0
  9 11  1  0
  9 12  1  0
  8 13  2  0
  2 14  1  0
 14 15  1  0
 15 16  2  0
 16 17  1  0
 17 18  1  0
 18 19  1  0
 19 20  1  0
 20 21  1  0
 21 22  1  0
 22 23  1  0
 23 24  1  0
 24 25  1  0
 25 26  1  0
 21 27  1  0
 27 28  1  0
 17 29  2  0
 29 30  1  0
 30 31  1  0
 31 32  1  0
 31 33  1  0
 31 34  1  0
 30 35  2  0
 13  4  1  0
 35 15  1  0
 28 18  1  0
 26 22  1  0
  3 36  1  0
  5 37  1  0
  6 38  1  0
  7 39  1  0
 13 40  1  0
 14 41  1  0
 16 42  1  0
 19 43  1  0
 19 44  1  0
 20 45  1  0
 20 46  1  0
 21 47  1  0
 22 48  1  0
 23 49  1  0
 23 50  1  0
 24 51  1  0
 24 52  1  0
 25 53  1  0
 25 54  1  0
 26 55  1  0
 26 56  1  0
 27 57  1  0
 27 58  1  0
 28 59  1  0
 28 60  1  0
 29 61  1  0
 35 62  1  0
M  CHG  1  22   1
M  END
>  <meeko>  (9) 
{"is_sidechain": [false], "free_energy": -8.151, "intermolecular_energy": -11.04, "internal_energy": -1.125}

$$$$
