LIB_LQLWPOGAHZKADH__M_PUB_ALL__e8__s20260927
     RDKit          3D

 84 88  0  0  0  0  0  0  0  0999 V2000
    0.4010  -10.1520    0.9050 C   0  0  0  0  0  0  0  0  0  0  0  0
    1.4800  -10.9710    0.4510 O   0  0  0  0  0  0  0  0  0  0  0  0
    1.3270  -12.2920    0.7390 C   0  0  0  0  0  0  0  0  0  0  0  0
    2.2280  -13.0590    1.0500 O   0  0  0  0  0  0  0  0  0  0  0  0
   -0.1260  -12.6930    0.5750 C   0  0  0  0  0  0  0  0  0  0  0  0
   -0.4500  -14.0930    1.1740 C   0  0  1  0  0  0  0  0  0  0  0  0
   -1.2360  -14.0210    2.5470 C   0  0  0  0  0  0  0  0  0  0  0  0
   -0.5470  -13.0490    3.5410 C   0  0  0  0  0  0  0  0  0  0  0  0
   -2.6820  -13.4830    2.3860 C   0  0  0  0  0  0  0  0  0  0  0  0
   -1.2710  -15.4650    3.1910 C   0  0  2  0  0  0  0  0  0  0  0  0
   -0.0090  -15.6650    3.8910 O   0  0  0  0  0  0  0  0  0  0  0  0
   -0.0650  -16.3530    5.0640 C   0  0  0  0  0  0  0  0  0  0  0  0
   -1.0970  -15.7650    5.9750 C   0  0  0  0  0  0  0  0  0  0  0  0
    0.6080  -17.3410    5.3180 O   0  0  0  0  0  0  0  0  0  0  0  0
   -1.4840  -16.6230    2.1690 C   0  0  2  0  0  0  0  0  0  0  0  0
   -2.4270  -17.7190    2.7300 C   0  0  0  0  0  0  0  0  0  0  0  0
   -3.5620  -17.3030    3.6380 C   0  0  0  0  0  0  0  0  0  0  0  0
   -2.2790  -18.9160    2.4600 O   0  0  0  0  0  0  0  0  0  0  0  0
   -0.1710  -17.2920    1.7300 C   0  0  0  0  0  0  0  0  0  0  0  0
    0.4750  -17.1330    0.5520 C   0  0  0  0  0  0  0  0  0  0  0  0
   -0.0260  -16.1100   -0.4890 C   0  0  2  0  0  0  0  0  0  0  0  0
    1.1440  -15.3810   -1.2080 C   0  0  2  0  0  0  0  0  0  0  0  0
    0.6420  -14.8000   -2.4340 O   0  0  0  0  0  0  0  0  0  0  0  0
    1.4540  -13.9090   -3.0680 C   0  0  0  0  0  0  0  0  0  0  0  0
    1.3840  -14.1130   -4.5500 C   0  0  0  0  0  0  0  0  0  0  0  0
    2.1230  -13.0500   -2.5160 O   0  0  0  0  0  0  0  0  0  0  0  0
    2.2760  -16.3280   -1.6180 C   0  0  0  0  0  0  0  0  0  0  0  0
    2.8370  -17.2040   -0.4780 C   0  0  2  0  0  0  0  0  0  0  0  0
    3.8730  -18.1600   -1.1320 C   0  0  0  0  0  0  0  0  0  0  0  0
    1.6620  -18.0210    0.1240 C   0  0  1  0  0  0  0  0  0  0  0  0
    2.2150  -18.9570    1.2010 C   0  0  0  0  0  0  0  0  0  0  0  0
    3.0130  -18.2280    2.2470 C   0  0  0  0  0  0  0  0  0  0  0  0
    3.0120  -18.5800    3.4230 O   0  0  0  0  0  0  0  0  0  0  0  0
    3.8370  -17.2530    1.8090 O   0  0  0  0  0  0  0  0  0  0  0  0
    3.4870  -16.4010    0.6880 C   0  0  1  0  0  0  0  0  0  0  0  0
    4.7020  -15.6070    0.2860 C   0  0  0  0  0  0  0  0  0  0  0  0
    6.0470  -15.7890    0.7280 C   0  0  0  0  0  0  0  0  0  0  0  0
    6.8040  -14.8270    0.1040 C   0  0  0  0  0  0  0  0  0  0  0  0
    6.0210  -14.0520   -0.6860 O   0  0  0  0  0  0  0  0  0  0  0  0
    4.7510  -14.5170   -0.5620 C   0  0  0  0  0  0  0  0  0  0  0  0
   -1.0960  -15.1110    0.1290 C   0  0  2  0  0  0  0  0  0  0  0  0
   -1.9400  -14.4170   -0.9650 C   0  0  0  0  0  0  0  0  0  0  0  0
   -2.0460  -16.0500    0.8860 C   0  0  0  0  0  0  0  0  0  0  0  0
   -3.1710  -16.3280    0.4740 O   0  0  0  0  0  0  0  0  0  0  0  0
    0.3866  -10.1411    2.0049 H   0  0  0  0  0  0  0  0  0  0  0  0
    0.5358   -9.1268    0.5299 H   0  0  0  0  0  0  0  0  0  0  0  0
   -0.5502  -10.5576    0.5299 H   0  0  0  0  0  0  0  0  0  0  0  0
   -0.7540  -11.9437    1.0792 H   0  0  0  0  0  0  0  0  0  0  0  0
   -0.3295  -12.7456   -0.5047 H   0  0  0  0  0  0  0  0  0  0  0  0
    0.5308  -14.5270    1.4185 H   0  0  0  0  0  0  0  0  0  0  0  0
   -0.7684  -13.3613    4.5722 H   0  0  0  0  0  0  0  0  0  0  0  0
    0.5407  -13.0677    3.3777 H   0  0  0  0  0  0  0  0  0  0  0  0
   -0.9248  -12.0289    3.3777 H   0  0  0  0  0  0  0  0  0  0  0  0
   -3.1247  -13.3183    3.3794 H   0  0  0  0  0  0  0  0  0  0  0  0
   -2.6602  -12.5328    1.8322 H   0  0  0  0  0  0  0  0  0  0  0  0
   -3.2865  -14.2164    1.8322 H   0  0  0  0  0  0  0  0  0  0  0  0
   -2.1401  -15.5032    3.8642 H   0  0  0  0  0  0  0  0  0  0  0  0
   -0.8014  -15.9334    7.0211 H   0  0  0  0  0  0  0  0  0  0  0  0
   -1.1794  -14.6844    5.7867 H   0  0  0  0  0  0  0  0  0  0  0  0
   -2.0686  -16.2451    5.7867 H   0  0  0  0  0  0  0  0  0  0  0  0
   -3.2524  -17.4165    4.6874 H   0  0  0  0  0  0  0  0  0  0  0  0
   -3.8206  -16.2516    3.4436 H   0  0  0  0  0  0  0  0  0  0  0  0
   -4.4388  -17.9382    3.4436 H   0  0  0  0  0  0  0  0  0  0  0  0
    0.2950  -17.9761    2.4545 H   0  0  0  0  0  0  0  0  0  0  0  0
   -0.5519  -16.6761   -1.2719 H   0  0  0  0  0  0  0  0  0  0  0  0
    1.5355  -14.6366   -0.4991 H   0  0  0  0  0  0  0  0  0  0  0  0
    1.0338  -15.1337   -4.7635 H   0  0  0  0  0  0  0  0  0  0  0  0
    0.6839  -13.3861   -4.9875 H   0  0  0  0  0  0  0  0  0  0  0  0
    2.3829  -13.9691   -4.9875 H   0  0  0  0  0  0  0  0  0  0  0  0
    1.8949  -16.9950   -2.4053 H   0  0  0  0  0  0  0  0  0  0  0  0
    3.1064  -15.6887   -1.9523 H   0  0  0  0  0  0  0  0  0  0  0  0
    4.4382  -18.6816   -0.3455 H   0  0  0  0  0  0  0  0  0  0  0  0
    3.3480  -18.8976   -1.7567 H   0  0  0  0  0  0  0  0  0  0  0  0
    4.5662  -17.5775   -1.7567 H   0  0  0  0  0  0  0  0  0  0  0  0
    1.2079  -18.6590   -0.6485 H   0  0  0  0  0  0  0  0  0  0  0  0
    1.3724  -19.4658    1.6920 H   0  0  0  0  0  0  0  0  0  0  0  0
    2.8887  -19.6723    0.7066 H   0  0  0  0  0  0  0  0  0  0  0  0
    2.7054  -15.6878    0.9888 H   0  0  0  0  0  0  0  0  0  0  0  0
    6.4080  -16.5526    1.4327 H   0  0  0  0  0  0  0  0  0  0  0  0
    7.8900  -14.7034    0.2277 H   0  0  0  0  0  0  0  0  0  0  0  0
    3.8768  -14.0832   -1.0696 H   0  0  0  0  0  0  0  0  0  0  0  0
   -2.7069  -13.7864   -0.4915 H   0  0  0  0  0  0  0  0  0  0  0  0
   -1.2863  -13.7917   -1.5909 H   0  0  0  0  0  0  0  0  0  0  0  0
   -2.4272  -15.1792   -1.5909 H   0  0  0  0  0  0  0  0  0  0  0  0
  1  2  1  0
  2  3  1  0
  3  4  2  0
  3  5  1  0
  5  6  1  0
  6  7  1  0
  7  8  1  0
  7  9  1  0
  7 10  1  0
 10 11  1  0
 11 12  1  0
 12 13  1  0
 12 14  2  0
 10 15  1  0
 15 16  1  1
 16 17  1  0
 16 18  2  0
 15 19  1  0
 19 20  2  0
 20 21  1  0
 21 22  1  0
 22 23  1  0
 23 24  1  0
 24 25  1  0
 24 26  2  0
 22 27  1  0
 27 28  1  0
 28 29  1  6
 28 30  1  0
 30 31  1  0
 31 32  1  0
 32 33  2  0
 32 34  1  0
 34 35  1  0
 35 36  1  0
 36 37  1  0
 37 38  2  0
 38 39  1  0
 39 40  1  0
 21 41  1  0
 41 42  1  6
 41 43  1  0
 43 44  2  0
 41  6  1  0
 43 15  1  0
 30 20  1  0
 40 36  2  0
 35 28  1  0
  1 45  1  0
  1 46  1  0
  1 47  1  0
  5 48  1  0
  5 49  1  0
  6 50  1  1
  8 51  1  0
  8 52  1  0
  8 53  1  0
  9 54  1  0
  9 55  1  0
  9 56  1  0
 10 57  1  1
 13 58  1  0
 13 59  1  0
 13 60  1  0
 17 61  1  0
 17 62  1  0
 17 63  1  0
 19 64  1  0
 21 65  1  6
 22 66  1  1
 25 67  1  0
 25 68  1  0
 25 69  1  0
 27 70  1  0
 27 71  1  0
 29 72  1  0
 29 73  1  0
 29 74  1  0
 30 75  1  6
 31 76  1  0
 31 77  1  0
 35 78  1  1
 37 79  1  0
 38 80  1  0
 40 81  1  0
 42 82  1  0
 42 83  1  0
 42 84  1  0
M  END
>  <meeko>  (1) 
{"is_sidechain": [false], "free_energy": -7.477, "intermolecular_energy": -11.41, "internal_energy": -2.682}

$$$$
LIB_LQLWPOGAHZKADH__M_PUB_ALL__e8__s20260927
     RDKit          3D

 84 88  0  0  0  0  0  0  0  0999 V2000
    6.7870  -12.3720    1.3670 C   0  0  0  0  0  0  0  0  0  0  0  0
    6.1050  -13.1810    0.4080 O   0  0  0  0  0  0  0  0  0  0  0  0
    6.8870  -14.1390   -0.1590 C   0  0  0  0  0  0  0  0  0  0  0  0
    8.0310  -14.4130    0.1790 O   0  0  0  0  0  0  0  0  0  0  0  0
    6.1500  -14.7970   -1.3090 C   0  0  0  0  0  0  0  0  0  0  0  0
    7.0680  -15.6760   -2.2070 C   0  0  1  0  0  0  0  0  0  0  0  0
    6.8510  -17.2300   -1.9980 C   0  0  0  0  0  0  0  0  0  0  0  0
    6.8870  -17.6060   -0.4920 C   0  0  0  0  0  0  0  0  0  0  0  0
    5.4700  -17.7190   -2.5070 C   0  0  0  0  0  0  0  0  0  0  0  0
    8.0040  -18.0120   -2.7450 C   0  0  2  0  0  0  0  0  0  0  0  0
    9.1660  -18.0270   -1.8660 O   0  0  0  0  0  0  0  0  0  0  0  0
    9.8930  -19.1780   -1.8350 C   0  0  0  0  0  0  0  0  0  0  0  0
    9.0130  -20.3530   -1.5460 C   0  0  0  0  0  0  0  0  0  0  0  0
   11.0930  -19.2420   -2.0560 O   0  0  0  0  0  0  0  0  0  0  0  0
    8.4070  -17.4060   -4.1230 C   0  0  2  0  0  0  0  0  0  0  0  0
    8.6910  -18.5100   -5.1750 C   0  0  0  0  0  0  0  0  0  0  0  0
    7.9470  -19.8220   -5.0690 C   0  0  0  0  0  0  0  0  0  0  0  0
    9.5050  -18.3520   -6.0930 O   0  0  0  0  0  0  0  0  0  0  0  0
    9.6360  -16.4850   -4.0440 C   0  0  0  0  0  0  0  0  0  0  0  0
    9.6500  -15.1340   -4.0860 C   0  0  0  0  0  0  0  0  0  0  0  0
    8.3310  -14.3320   -4.1100 C   0  0  2  0  0  0  0  0  0  0  0  0
    8.4140  -13.0360   -3.2560 C   0  0  2  0  0  0  0  0  0  0  0  0
    7.3550  -12.1420   -3.6710 O   0  0  0  0  0  0  0  0  0  0  0  0
    6.7270  -11.4370   -2.6890 C   0  0  0  0  0  0  0  0  0  0  0  0
    5.2430  -11.5090   -2.8720 C   0  0  0  0  0  0  0  0  0  0  0  0
    7.2870  -10.8510   -1.7760 O   0  0  0  0  0  0  0  0  0  0  0  0
    9.7240  -12.2690   -3.4610 C   0  0  0  0  0  0  0  0  0  0  0  0
   11.0050  -13.1040   -3.2570 C   0  0  2  0  0  0  0  0  0  0  0  0
   12.1940  -12.1740   -3.6280 C   0  0  0  0  0  0  0  0  0  0  0  0
   10.9510  -14.3150   -4.2260 C   0  0  1  0  0  0  0  0  0  0  0  0
   12.2530  -15.1090   -4.0950 C   0  0  0  0  0  0  0  0  0  0  0  0
   12.5460  -15.5120   -2.6760 C   0  0  0  0  0  0  0  0  0  0  0  0
   13.0950  -16.5750   -2.4070 O   0  0  0  0  0  0  0  0  0  0  0  0
   12.2980  -14.5900   -1.7230 O   0  0  0  0  0  0  0  0  0  0  0  0
   11.1790  -13.6720   -1.8160 C   0  0  1  0  0  0  0  0  0  0  0  0
   11.3280  -12.6160   -0.7520 C   0  0  0  0  0  0  0  0  0  0  0  0
   12.4740  -11.8070   -0.4830 C   0  0  0  0  0  0  0  0  0  0  0  0
   12.1490  -11.0020    0.5820 C   0  0  0  0  0  0  0  0  0  0  0  0
   10.8850  -11.2610    0.9990 O   0  0  0  0  0  0  0  0  0  0  0  0
   10.3990  -12.2460    0.2010 C   0  0  0  0  0  0  0  0  0  0  0  0
    7.0790  -15.2410   -3.7430 C   0  0  2  0  0  0  0  0  0  0  0  0
    5.7490  -14.6110   -4.2140 C   0  0  0  0  0  0  0  0  0  0  0  0
    7.3000  -16.4940   -4.6030 C   0  0  0  0  0  0  0  0  0  0  0  0
    6.6380  -16.7300   -5.6130 O   0  0  0  0  0  0  0  0  0  0  0  0
    6.5132  -12.6968    2.3817 H   0  0  0  0  0  0  0  0  0  0  0  0
    7.8733  -12.4769    1.2290 H   0  0  0  0  0  0  0  0  0  0  0  0
    6.4999  -11.3191    1.2290 H   0  0  0  0  0  0  0  0  0  0  0  0
    5.3541  -15.4334   -0.8949 H   0  0  0  0  0  0  0  0  0  0  0  0
    5.7499  -13.9916   -1.9424 H   0  0  0  0  0  0  0  0  0  0  0  0
    8.0877  -15.4715   -1.8487 H   0  0  0  0  0  0  0  0  0  0  0  0
    6.7996  -16.6934    0.1159 H   0  0  0  0  0  0  0  0  0  0  0  0
    6.0494  -18.2811   -0.2625 H   0  0  0  0  0  0  0  0  0  0  0  0
    7.8375  -18.1099   -0.2625 H   0  0  0  0  0  0  0  0  0  0  0  0
    4.8227  -17.9482   -1.6477 H   0  0  0  0  0  0  0  0  0  0  0  0
    5.0041  -16.9312   -3.1172 H   0  0  0  0  0  0  0  0  0  0  0  0
    5.6037  -18.6244   -3.1172 H   0  0  0  0  0  0  0  0  0  0  0  0
    7.6264  -19.0212   -2.9664 H   0  0  0  0  0  0  0  0  0  0  0  0
    8.9174  -20.4806   -0.4576 H   0  0  0  0  0  0  0  0  0  0  0  0
    8.0184  -20.1827   -1.9840 H   0  0  0  0  0  0  0  0  0  0  0  0
    9.4562  -21.2595   -1.9840 H   0  0  0  0  0  0  0  0  0  0  0  0
    7.8024  -20.0769   -4.0088 H   0  0  0  0  0  0  0  0  0  0  0  0
    6.9674  -19.7288   -5.5606 H   0  0  0  0  0  0  0  0  0  0  0  0
    8.5299  -20.6148   -5.5606 H   0  0  0  0  0  0  0  0  0  0  0  0
   10.6126  -16.9809   -3.9419 H   0  0  0  0  0  0  0  0  0  0  0  0
    8.1743  -13.9970   -5.1460 H   0  0  0  0  0  0  0  0  0  0  0  0
    8.3383  -13.3452   -2.2031 H   0  0  0  0  0  0  0  0  0  0  0  0
    4.7529  -11.5328   -1.8875 H   0  0  0  0  0  0  0  0  0  0  0  0
    4.8993  -10.6265   -3.4315 H   0  0  0  0  0  0  0  0  0  0  0  0
    4.9863  -12.4207   -3.4315 H   0  0  0  0  0  0  0  0  0  0  0  0
    9.7325  -11.8759   -4.4883 H   0  0  0  0  0  0  0  0  0  0  0  0
    9.7437  -11.4817   -2.6930 H   0  0  0  0  0  0  0  0  0  0  0  0
   12.6694  -11.8021   -2.7084 H   0  0  0  0  0  0  0  0  0  0  0  0
   12.9303  -12.7383   -4.2191 H   0  0  0  0  0  0  0  0  0  0  0  0
   11.8236  -11.3234   -4.2191 H   0  0  0  0  0  0  0  0  0  0  0  0
   10.8955  -13.9652   -5.2674 H   0  0  0  0  0  0  0  0  0  0  0  0
   12.1746  -16.0177   -4.7100 H   0  0  0  0  0  0  0  0  0  0  0  0
   13.0740  -14.4594   -4.4325 H   0  0  0  0  0  0  0  0  0  0  0  0
   10.2378  -14.2084   -1.6249 H   0  0  0  0  0  0  0  0  0  0  0  0
   13.4317  -11.8250   -1.0239 H   0  0  0  0  0  0  0  0  0  0  0  0
   12.8186  -10.2542    1.0321 H   0  0  0  0  0  0  0  0  0  0  0  0
    9.3978  -12.6907    0.3002 H   0  0  0  0  0  0  0  0  0  0  0  0
    5.1477  -14.3262   -3.3380 H   0  0  0  0  0  0  0  0  0  0  0  0
    5.9607  -13.7175   -4.8196 H   0  0  0  0  0  0  0  0  0  0  0  0
    5.1918  -15.3409   -4.8196 H   0  0  0  0  0  0  0  0  0  0  0  0
  1  2  1  0
  2  3  1  0
  3  4  2  0
  3  5  1  0
  5  6  1  0
  6  7  1  0
  7  8  1  0
  7  9  1  0
  7 10  1  0
 10 11  1  0
 11 12  1  0
 12 13  1  0
 12 14  2  0
 10 15  1  0
 15 16  1  6
 16 17  1  0
 16 18  2  0
 15 19  1  0
 19 20  2  0
 20 21  1  0
 21 22  1  0
 22 23  1  0
 23 24  1  0
 24 25  1  0
 24 26  2  0
 22 27  1  0
 27 28  1  0
 28 29  1  6
 28 30  1  0
 30 31  1  0
 31 32  1  0
 32 33  2  0
 32 34  1  0
 34 35  1  0
 35 36  1  0
 36 37  1  0
 37 38  2  0
 38 39  1  0
 39 40  1  0
 21 41  1  0
 41 42  1  6
 41 43  1  0
 43 44  2  0
 41  6  1  0
 43 15  1  0
 30 20  1  0
 40 36  2  0
 35 28  1  0
  1 45  1  0
  1 46  1  0
  1 47  1  0
  5 48  1  0
  5 49  1  0
  6 50  1  1
  8 51  1  0
  8 52  1  0
  8 53  1  0
  9 54  1  0
  9 55  1  0
  9 56  1  0
 10 57  1  6
 13 58  1  0
 13 59  1  0
 13 60  1  0
 17 61  1  0
 17 62  1  0
 17 63  1  0
 19 64  1  0
 21 65  1  6
 22 66  1  1
 25 67  1  0
 25 68  1  0
 25 69  1  0
 27 70  1  0
 27 71  1  0
 29 72  1  0
 29 73  1  0
 29 74  1  0
 30 75  1  6
 31 76  1  0
 31 77  1  0
 35 78  1  1
 37 79  1  0
 38 80  1  0
 40 81  1  0
 42 82  1  0
 42 83  1  0
 42 84  1  0
M  END
>  <meeko>  (2) 
{"is_sidechain": [false], "free_energy": -6.843, "intermolecular_energy": -10.473, "internal_energy": -2.653}

$$$$
LIB_LQLWPOGAHZKADH__M_PUB_ALL__e8__s20260927
     RDKit          3D

 84 88  0  0  0  0  0  0  0  0999 V2000
   11.9510  -13.0140    0.5490 C   0  0  0  0  0  0  0  0  0  0  0  0
   11.2850  -12.6580   -0.6640 O   0  0  0  0  0  0  0  0  0  0  0  0
   10.0910  -13.2870   -0.8400 C   0  0  0  0  0  0  0  0  0  0  0  0
    9.8300  -14.4270   -0.4840 O   0  0  0  0  0  0  0  0  0  0  0  0
    9.1340  -12.3790   -1.5880 C   0  0  0  0  0  0  0  0  0  0  0  0
    7.6370  -12.7410   -1.3610 C   0  0  1  0  0  0  0  0  0  0  0  0
    6.9540  -11.8950   -0.2100 C   0  0  0  0  0  0  0  0  0  0  0  0
    7.8130  -11.9050    1.0830 C   0  0  0  0  0  0  0  0  0  0  0  0
    6.7900  -10.3980   -0.5790 C   0  0  0  0  0  0  0  0  0  0  0  0
    5.5400  -12.5240    0.1150 C   0  0  2  0  0  0  0  0  0  0  0  0
    5.7540  -13.6410    1.0240 O   0  0  0  0  0  0  0  0  0  0  0  0
    5.0530  -13.6220    2.1910 C   0  0  0  0  0  0  0  0  0  0  0  0
    3.8100  -14.4480    2.0770 C   0  0  0  0  0  0  0  0  0  0  0  0
    5.4150  -13.0420    3.2040 O   0  0  0  0  0  0  0  0  0  0  0  0
    4.7510  -13.0190   -1.1350 C   0  0  2  0  0  0  0  0  0  0  0  0
    3.2370  -12.7010   -1.0230 C   0  0  0  0  0  0  0  0  0  0  0  0
    2.2580  -13.5460   -1.8060 C   0  0  0  0  0  0  0  0  0  0  0  0
    2.8080  -11.7810   -0.3160 O   0  0  0  0  0  0  0  0  0  0  0  0
    4.9100  -14.5270   -1.3940 C   0  0  0  0  0  0  0  0  0  0  0  0
    5.6700  -15.1180   -2.3440 C   0  0  0  0  0  0  0  0  0  0  0  0
    6.5940  -14.2770   -3.2500 C   0  0  2  0  0  0  0  0  0  0  0  0
    7.9460  -14.9900   -3.5350 C   0  0  2  0  0  0  0  0  0  0  0  0
    8.5490  -14.3870   -4.7040 O   0  0  0  0  0  0  0  0  0  0  0  0
    9.8900  -14.5640   -4.8630 C   0  0  0  0  0  0  0  0  0  0  0  0
   10.2120  -14.7800   -6.3090 C   0  0  0  0  0  0  0  0  0  0  0  0
   10.7160  -14.5270   -3.9650 O   0  0  0  0  0  0  0  0  0  0  0  0
    7.7800  -16.4770   -3.8600 C   0  0  0  0  0  0  0  0  0  0  0  0
    6.9800  -17.2860   -2.8180 C   0  0  2  0  0  0  0  0  0  0  0  0
    6.8320  -18.7200   -3.4000 C   0  0  0  0  0  0  0  0  0  0  0  0
    5.5850  -16.6260   -2.6630 C   0  0  1  0  0  0  0  0  0  0  0  0
    4.7480  -17.4640   -1.6940 C   0  0  0  0  0  0  0  0  0  0  0  0
    5.4370  -17.6840   -0.3760 C   0  0  0  0  0  0  0  0  0  0  0  0
    4.8110  -17.7440    0.6780 O   0  0  0  0  0  0  0  0  0  0  0  0
    6.7590  -17.9480   -0.4210 O   0  0  0  0  0  0  0  0  0  0  0  0
    7.6310  -17.3310   -1.4030 C   0  0  1  0  0  0  0  0  0  0  0  0
    8.9700  -18.0180   -1.3620 C   0  0  0  0  0  0  0  0  0  0  0  0
   10.2200  -17.5180   -1.8380 C   0  0  0  0  0  0  0  0  0  0  0  0
   11.1550  -18.4960   -1.6010 C   0  0  0  0  0  0  0  0  0  0  0  0
   10.5710  -19.5740   -1.0200 O   0  0  0  0  0  0  0  0  0  0  0  0
    9.2510  -19.2860   -0.8920 C   0  0  0  0  0  0  0  0  0  0  0  0
    6.7740  -12.7960   -2.7020 C   0  0  2  0  0  0  0  0  0  0  0  0
    7.2780  -11.8300   -3.7980 C   0  0  0  0  0  0  0  0  0  0  0  0
    5.3350  -12.3750   -2.3730 C   0  0  0  0  0  0  0  0  0  0  0  0
    4.7000  -11.5850   -3.0710 O   0  0  0  0  0  0  0  0  0  0  0  0
   11.3455  -12.6903    1.4084 H   0  0  0  0  0  0  0  0  0  0  0  0
   12.0867  -14.1050    0.5862 H   0  0  0  0  0  0  0  0  0  0  0  0
   12.9335  -12.5208    0.5862 H   0  0  0  0  0  0  0  0  0  0  0  0
    9.2982  -11.3450   -1.2506 H   0  0  0  0  0  0  0  0  0  0  0  0
    9.3398  -12.5024   -2.6615 H   0  0  0  0  0  0  0  0  0  0  0  0
    7.6520  -13.7778   -0.9939 H   0  0  0  0  0  0  0  0  0  0  0  0
    7.1521  -11.8973    1.9623 H   0  0  0  0  0  0  0  0  0  0  0  0
    8.4373  -12.8105    1.1015 H   0  0  0  0  0  0  0  0  0  0  0  0
    8.4582  -11.0143    1.1015 H   0  0  0  0  0  0  0  0  0  0  0  0
    6.7243   -9.7986    0.3410 H   0  0  0  0  0  0  0  0  0  0  0  0
    7.6575  -10.0688   -1.1699 H   0  0  0  0  0  0  0  0  0  0  0  0
    5.8719  -10.2645   -1.1699 H   0  0  0  0  0  0  0  0  0  0  0  0
    4.9213  -11.7296    0.5579 H   0  0  0  0  0  0  0  0  0  0  0  0
    3.4397  -14.6941    3.0832 H   0  0  0  0  0  0  0  0  0  0  0  0
    3.0413  -13.8804    1.5320 H   0  0  0  0  0  0  0  0  0  0  0  0
    4.0355  -15.3765    1.5320 H   0  0  0  0  0  0  0  0  0  0  0  0
    1.6139  -14.1019   -1.1087 H   0  0  0  0  0  0  0  0  0  0  0  0
    1.6370  -12.8956   -2.4395 H   0  0  0  0  0  0  0  0  0  0  0  0
    2.8107  -14.2554   -2.4395 H   0  0  0  0  0  0  0  0  0  0  0  0
    4.3427  -15.1992   -0.7334 H   0  0  0  0  0  0  0  0  0  0  0  0
    6.0936  -14.1836   -4.2251 H   0  0  0  0  0  0  0  0  0  0  0  0
    8.5559  -14.8858   -2.6255 H   0  0  0  0  0  0  0  0  0  0  0  0
   11.1227  -15.3909   -6.3946 H   0  0  0  0  0  0  0  0  0  0  0  0
    9.3746  -15.2998   -6.7975 H   0  0  0  0  0  0  0  0  0  0  0  0
   10.3753  -13.8080   -6.7975 H   0  0  0  0  0  0  0  0  0  0  0  0
    7.2621  -16.5594   -4.8270 H   0  0  0  0  0  0  0  0  0  0  0  0
    8.7933  -16.9049   -3.8699 H   0  0  0  0  0  0  0  0  0  0  0  0
    6.7572  -19.4444   -2.5756 H   0  0  0  0  0  0  0  0  0  0  0  0
    5.9236  -18.7729   -4.0181 H   0  0  0  0  0  0  0  0  0  0  0  0
    7.7104  -18.9573   -4.0181 H   0  0  0  0  0  0  0  0  0  0  0  0
    5.0543  -16.6309   -3.6265 H   0  0  0  0  0  0  0  0  0  0  0  0
    3.7956  -16.9448   -1.5113 H   0  0  0  0  0  0  0  0  0  0  0  0
    4.5906  -18.4497   -2.1563 H   0  0  0  0  0  0  0  0  0  0  0  0
    7.7916  -16.2727   -1.1497 H   0  0  0  0  0  0  0  0  0  0  0  0
   10.3996  -16.5382   -2.3047 H   0  0  0  0  0  0  0  0  0  0  0  0
   12.2242  -18.4165   -1.8471 H   0  0  0  0  0  0  0  0  0  0  0  0
    8.5028  -19.9726   -0.4692 H   0  0  0  0  0  0  0  0  0  0  0  0
    7.7378  -10.9487   -3.3269 H   0  0  0  0  0  0  0  0  0  0  0  0
    8.0238  -12.3423   -4.4236 H   0  0  0  0  0  0  0  0  0  0  0  0
    6.4312  -11.5114   -4.4236 H   0  0  0  0  0  0  0  0  0  0  0  0
  1  2  1  0
  2  3  1  0
  3  4  2  0
  3  5  1  0
  5  6  1  0
  6  7  1  0
  7  8  1  0
  7  9  1  0
  7 10  1  0
 10 11  1  0
 11 12  1  0
 12 13  1  0
 12 14  2  0
 10 15  1  0
 15 16  1  1
 16 17  1  0
 16 18  2  0
 15 19  1  0
 19 20  2  0
 20 21  1  0
 21 22  1  0
 22 23  1  0
 23 24  1  0
 24 25  1  0
 24 26  2  0
 22 27  1  0
 27 28  1  0
 28 29  1  6
 28 30  1  0
 30 31  1  0
 31 32  1  0
 32 33  2  0
 32 34  1  0
 34 35  1  0
 35 36  1  0
 36 37  1  0
 37 38  2  0
 38 39  1  0
 39 40  1  0
 21 41  1  0
 41 42  1  6
 41 43  1  0
 43 44  2  0
 41  6  1  0
 43 15  1  0
 30 20  1  0
 40 36  2  0
 35 28  1  0
  1 45  1  0
  1 46  1  0
  1 47  1  0
  5 48  1  0
  5 49  1  0
  6 50  1  1
  8 51  1  0
  8 52  1  0
  8 53  1  0
  9 54  1  0
  9 55  1  0
  9 56  1  0
 10 57  1  1
 13 58  1  0
 13 59  1  0
 13 60  1  0
 17 61  1  0
 17 62  1  0
 17 63  1  0
 19 64  1  0
 21 65  1  6
 22 66  1  1
 25 67  1  0
 25 68  1  0
 25 69  1  0
 27 70  1  0
 27 71  1  0
 29 72  1  0
 29 73  1  0
 29 74  1  0
 30 75  1  6
 31 76  1  0
 31 77  1  0
 35 78  1  1
 37 79  1  0
 38 80  1  0
 40 81  1  0
 42 82  1  0
 42 83  1  0
 42 84  1  0
M  END
>  <meeko>  (3) 
{"is_sidechain": [false], "free_energy": -6.676, "intermolecular_energy": -10.354, "internal_energy": -2.517}

$$$$
LIB_LQLWPOGAHZKADH__M_PUB_ALL__e8__s20260927
     RDKit          3D

 84 88  0  0  0  0  0  0  0  0999 V2000
   11.6820  -17.1790   -8.3880 C   0  0  0  0  0  0  0  0  0  0  0  0
   12.0190  -15.9680   -7.7100 O   0  0  0  0  0  0  0  0  0  0  0  0
   11.0350  -15.5020   -6.8940 C   0  0  0  0  0  0  0  0  0  0  0  0
   11.0210  -14.4050   -6.3540 O   0  0  0  0  0  0  0  0  0  0  0  0
    9.9680  -16.5640   -6.7100 C   0  0  0  0  0  0  0  0  0  0  0  0
    8.8310  -16.1330   -5.7390 C   0  0  1  0  0  0  0  0  0  0  0  0
    7.4970  -15.7110   -6.4810 C   0  0  0  0  0  0  0  0  0  0  0  0
    7.7830  -14.6910   -7.6160 C   0  0  0  0  0  0  0  0  0  0  0  0
    6.7890  -16.9040   -7.1730 C   0  0  0  0  0  0  0  0  0  0  0  0
    6.5200  -15.0430   -5.4320 C   0  0  2  0  0  0  0  0  0  0  0  0
    6.9160  -13.6480   -5.2880 O   0  0  0  0  0  0  0  0  0  0  0  0
    5.9110  -12.7360   -5.1860 C   0  0  0  0  0  0  0  0  0  0  0  0
    5.0060  -12.8090   -6.3760 C   0  0  0  0  0  0  0  0  0  0  0  0
    5.7490  -11.9910   -4.2310 O   0  0  0  0  0  0  0  0  0  0  0  0
    6.5130  -15.7250   -4.0310 C   0  0  2  0  0  0  0  0  0  0  0  0
    5.0840  -15.7960   -3.4330 C   0  0  0  0  0  0  0  0  0  0  0  0
    4.9060  -16.3590   -2.0410 C   0  0  0  0  0  0  0  0  0  0  0  0
    4.0890  -15.4080   -4.0570 O   0  0  0  0  0  0  0  0  0  0  0  0
    7.4290  -15.0270   -3.0120 C   0  0  0  0  0  0  0  0  0  0  0  0
    8.6410  -15.4440   -2.5800 C   0  0  0  0  0  0  0  0  0  0  0  0
    9.3090  -16.6930   -3.1940 C   0  0  2  0  0  0  0  0  0  0  0  0
   10.8450  -16.5200   -3.3570 C   0  0  2  0  0  0  0  0  0  0  0  0
   11.4450  -17.8280   -3.5010 O   0  0  0  0  0  0  0  0  0  0  0  0
   12.7390  -17.8670   -3.9230 C   0  0  0  0  0  0  0  0  0  0  0  0
   13.4930  -18.9240   -3.1780 C   0  0  0  0  0  0  0  0  0  0  0  0
   13.2150  -17.1620   -4.8000 O   0  0  0  0  0  0  0  0  0  0  0  0
   11.5060  -15.8800   -2.1330 C   0  0  0  0  0  0  0  0  0  0  0  0
   10.8820  -14.5440   -1.6790 C   0  0  2  0  0  0  0  0  0  0  0  0
   11.6170  -14.1410   -0.3700 C   0  0  0  0  0  0  0  0  0  0  0  0
    9.3760  -14.7890   -1.3920 C   0  0  1  0  0  0  0  0  0  0  0  0
    8.7590  -13.4930   -0.8610 C   0  0  0  0  0  0  0  0  0  0  0  0
    8.9930  -12.3230   -1.7760 C   0  0  0  0  0  0  0  0  0  0  0  0
    8.1600  -11.4340   -1.9140 O   0  0  0  0  0  0  0  0  0  0  0  0
   10.2180  -12.2280   -2.3340 O   0  0  0  0  0  0  0  0  0  0  0  0
   10.9710  -13.4020   -2.7350 C   0  0  1  0  0  0  0  0  0  0  0  0
   12.3780  -12.9830   -3.0710 C   0  0  0  0  0  0  0  0  0  0  0  0
   13.0610  -11.8030   -2.6460 C   0  0  0  0  0  0  0  0  0  0  0  0
   14.3120  -11.8440   -3.2100 C   0  0  0  0  0  0  0  0  0  0  0  0
   14.4520  -12.9610   -3.9650 O   0  0  0  0  0  0  0  0  0  0  0  0
   13.2780  -13.6380   -3.8900 C   0  0  0  0  0  0  0  0  0  0  0  0
    8.5880  -17.1520   -4.5350 C   0  0  2  0  0  0  0  0  0  0  0  0
    8.9140  -18.6190   -4.8950 C   0  0  0  0  0  0  0  0  0  0  0  0
    7.1010  -17.1130   -4.1560 C   0  0  0  0  0  0  0  0  0  0  0  0
    6.4410  -18.1330   -3.9550 O   0  0  0  0  0  0  0  0  0  0  0  0
   11.4635  -17.9642   -7.6493 H   0  0  0  0  0  0  0  0  0  0  0  0
   10.7962  -17.0120   -9.0185 H   0  0  0  0  0  0  0  0  0  0  0  0
   12.5267  -17.4935   -9.0185 H   0  0  0  0  0  0  0  0  0  0  0  0
    9.5235  -16.7859   -7.6914 H   0  0  0  0  0  0  0  0  0  0  0  0
   10.4575  -17.4443   -6.2679 H   0  0  0  0  0  0  0  0  0  0  0  0
    9.2041  -15.2153   -5.2609 H   0  0  0  0  0  0  0  0  0  0  0  0
    8.0552  -13.7201   -7.1764 H   0  0  0  0  0  0  0  0  0  0  0  0
    8.6130  -15.0576   -8.2379 H   0  0  0  0  0  0  0  0  0  0  0  0
    6.8834  -14.5726   -8.2379 H   0  0  0  0  0  0  0  0  0  0  0  0
    6.3853  -17.5843   -6.4086 H   0  0  0  0  0  0  0  0  0  0  0  0
    5.9673  -16.5287   -7.8007 H   0  0  0  0  0  0  0  0  0  0  0  0
    7.5120  -17.4455   -7.8007 H   0  0  0  0  0  0  0  0  0  0  0  0
    5.4965  -15.1554   -5.8190 H   0  0  0  0  0  0  0  0  0  0  0  0
    3.9625  -12.8932   -6.0384 H   0  0  0  0  0  0  0  0  0  0  0  0
    5.1230  -11.8985   -6.9820 H   0  0  0  0  0  0  0  0  0  0  0  0
    5.2674  -13.6890   -6.9820 H   0  0  0  0  0  0  0  0  0  0  0  0
    5.1507  -15.5852   -1.2985 H   0  0  0  0  0  0  0  0  0  0  0  0
    3.8626  -16.6799   -1.9059 H   0  0  0  0  0  0  0  0  0  0  0  0
    5.5753  -17.2214   -1.9059 H   0  0  0  0  0  0  0  0  0  0  0  0
    7.0570  -14.0831   -2.5869 H   0  0  0  0  0  0  0  0  0  0  0  0
    9.1759  -17.5163   -2.4767 H   0  0  0  0  0  0  0  0  0  0  0  0
   10.9990  -15.8705   -4.2313 H   0  0  0  0  0  0  0  0  0  0  0  0
   13.3779  -18.7627   -2.0960 H   0  0  0  0  0  0  0  0  0  0  0  0
   13.0964  -19.9146   -3.4453 H   0  0  0  0  0  0  0  0  0  0  0  0
   14.5587  -18.8714   -3.4453 H   0  0  0  0  0  0  0  0  0  0  0  0
   11.4361  -16.5910   -1.2966 H   0  0  0  0  0  0  0  0  0  0  0  0
   12.5412  -15.6517   -2.4267 H   0  0  0  0  0  0  0  0  0  0  0  0
   11.0246  -14.4658    0.4981 H   0  0  0  0  0  0  0  0  0  0  0  0
   12.6051  -14.6235   -0.3409 H   0  0  0  0  0  0  0  0  0  0  0  0
   11.7415  -13.0485   -0.3409 H   0  0  0  0  0  0  0  0  0  0  0  0
    9.2582  -15.5441   -0.6008 H   0  0  0  0  0  0  0  0  0  0  0  0
    7.6748  -13.6399   -0.7474 H   0  0  0  0  0  0  0  0  0  0  0  0
    9.2409  -13.2647    0.1011 H   0  0  0  0  0  0  0  0  0  0  0  0
   10.5271  -13.8408   -3.6408 H   0  0  0  0  0  0  0  0  0  0  0  0
   12.6616  -11.0133   -1.9926 H   0  0  0  0  0  0  0  0  0  0  0  0
   15.0900  -11.0792   -3.0692 H   0  0  0  0  0  0  0  0  0  0  0  0
   13.0703  -14.5835   -4.4123 H   0  0  0  0  0  0  0  0  0  0  0  0
    9.0438  -19.2029   -3.9719 H   0  0  0  0  0  0  0  0  0  0  0  0
    8.0884  -19.0440   -5.4847 H   0  0  0  0  0  0  0  0  0  0  0  0
    9.8419  -18.6543   -5.4847 H   0  0  0  0  0  0  0  0  0  0  0  0
  1  2  1  0
  2  3  1  0
  3  4  2  0
  3  5  1  0
  5  6  1  0
  6  7  1  0
  7  8  1  0
  7  9  1  0
  7 10  1  0
 10 11  1  0
 11 12  1  0
 12 13  1  0
 12 14  2  0
 10 15  1  0
 15 16  1  1
 16 17  1  0
 16 18  2  0
 15 19  1  0
 19 20  2  0
 20 21  1  0
 21 22  1  0
 22 23  1  0
 23 24  1  0
 24 25  1  0
 24 26  2  0
 22 27  1  0
 27 28  1  0
 28 29  1  1
 28 30  1  0
 30 31  1  0
 31 32  1  0
 32 33  2  0
 32 34  1  0
 34 35  1  0
 35 36  1  0
 36 37  1  0
 37 38  2  0
 38 39  1  0
 39 40  1  0
 21 41  1  0
 41 42  1  6
 41 43  1  0
 43 44  2  0
 41  6  1  0
 43 15  1  0
 30 20  1  0
 40 36  2  0
 35 28  1  0
  1 45  1  0
  1 46  1  0
  1 47  1  0
  5 48  1  0
  5 49  1  0
  6 50  1  1
  8 51  1  0
  8 52  1  0
  8 53  1  0
  9 54  1  0
  9 55  1  0
  9 56  1  0
 10 57  1  6
 13 58  1  0
 13 59  1  0
 13 60  1  0
 17 61  1  0
 17 62  1  0
 17 63  1  0
 19 64  1  0
 21 65  1  1
 22 66  1  6
 25 67  1  0
 25 68  1  0
 25 69  1  0
 27 70  1  0
 27 71  1  0
 29 72  1  0
 29 73  1  0
 29 74  1  0
 30 75  1  1
 31 76  1  0
 31 77  1  0
 35 78  1  6
 37 79  1  0
 38 80  1  0
 40 81  1  0
 42 82  1  0
 42 83  1  0
 42 84  1  0
M  END
>  <meeko>  (4) 
{"is_sidechain": [false], "free_energy": -6.525, "intermolecular_energy": -10.174, "internal_energy": -2.465}

$$$$
LIB_LQLWPOGAHZKADH__M_PUB_ALL__e8__s20260927
     RDKit          3D

 84 88  0  0  0  0  0  0  0  0999 V2000
   11.3620  -18.9830   -2.9440 C   0  0  0  0  0  0  0  0  0  0  0  0
   11.5290  -17.6820   -3.5110 O   0  0  0  0  0  0  0  0  0  0  0  0
   12.8240  -17.2680   -3.5660 C   0  0  0  0  0  0  0  0  0  0  0  0
   13.7850  -17.9780   -3.8260 O   0  0  0  0  0  0  0  0  0  0  0  0
   12.9130  -15.7970   -3.2100 C   0  0  0  0  0  0  0  0  0  0  0  0
   11.5240  -15.1040   -3.1010 C   0  0  1  0  0  0  0  0  0  0  0  0
   11.1270  -14.7200   -1.6170 C   0  0  0  0  0  0  0  0  0  0  0  0
   11.3140  -15.9230   -0.6540 C   0  0  0  0  0  0  0  0  0  0  0  0
   12.0110  -13.5880   -1.0310 C   0  0  0  0  0  0  0  0  0  0  0  0
    9.6090  -14.2800   -1.5920 C   0  0  2  0  0  0  0  0  0  0  0  0
    8.8010  -15.4910   -1.5250 O   0  0  0  0  0  0  0  0  0  0  0  0
    7.7970  -15.5040   -0.6060 C   0  0  0  0  0  0  0  0  0  0  0  0
    6.9340  -16.7140   -0.7810 C   0  0  0  0  0  0  0  0  0  0  0  0
    7.6510  -14.6630    0.2690 O   0  0  0  0  0  0  0  0  0  0  0  0
    9.1630  -13.4300   -2.8200 C   0  0  2  0  0  0  0  0  0  0  0  0
    8.1990  -12.2860   -2.4080 C   0  0  0  0  0  0  0  0  0  0  0  0
    7.2280  -11.7500   -3.4350 C   0  0  0  0  0  0  0  0  0  0  0  0
    8.2000  -11.8020   -1.2700 O   0  0  0  0  0  0  0  0  0  0  0  0
    8.4830  -14.2630   -3.9190 C   0  0  0  0  0  0  0  0  0  0  0  0
    9.0160  -14.6510   -5.1000 C   0  0  0  0  0  0  0  0  0  0  0  0
   10.4970  -14.3630   -5.4280 C   0  0  2  0  0  0  0  0  0  0  0  0
   11.1690  -15.5370   -6.1940 C   0  0  2  0  0  0  0  0  0  0  0  0
   12.3630  -15.0410   -6.8440 O   0  0  0  0  0  0  0  0  0  0  0  0
   13.4280  -15.8870   -6.8990 C   0  0  0  0  0  0  0  0  0  0  0  0
   14.6870  -15.1530   -6.5590 C   0  0  0  0  0  0  0  0  0  0  0  0
   13.3670  -17.0790   -7.1610 O   0  0  0  0  0  0  0  0  0  0  0  0
   10.2840  -16.1080   -7.3060 C   0  0  0  0  0  0  0  0  0  0  0  0
    8.8680  -16.5270   -6.8610 C   0  0  2  0  0  0  0  0  0  0  0  0
    8.1150  -16.9560   -8.1510 C   0  0  0  0  0  0  0  0  0  0  0  0
    8.1770  -15.2900   -6.2260 C   0  0  1  0  0  0  0  0  0  0  0  0
    6.7410  -15.6660   -5.8540 C   0  0  0  0  0  0  0  0  0  0  0  0
    6.6700  -16.8850   -4.9780 C   0  0  0  0  0  0  0  0  0  0  0  0
    5.8170  -17.0040   -4.1030 O   0  0  0  0  0  0  0  0  0  0  0  0
    7.5030  -17.9010   -5.2870 O   0  0  0  0  0  0  0  0  0  0  0  0
    8.8390  -17.6680   -5.8010 C   0  0  1  0  0  0  0  0  0  0  0  0
    9.4060  -18.9750   -6.2880 C   0  0  0  0  0  0  0  0  0  0  0  0
    8.7130  -20.2110   -6.4690 C   0  0  0  0  0  0  0  0  0  0  0  0
    9.6390  -21.1220   -6.9150 C   0  0  0  0  0  0  0  0  0  0  0  0
   10.8610  -20.5420   -7.0140 O   0  0  0  0  0  0  0  0  0  0  0  0
   10.7180  -19.2510   -6.6200 C   0  0  0  0  0  0  0  0  0  0  0  0
   11.3120  -13.9110   -4.1410 C   0  0  2  0  0  0  0  0  0  0  0  0
   12.6220  -13.1790   -4.5120 C   0  0  0  0  0  0  0  0  0  0  0  0
   10.3900  -12.8650   -3.5000 C   0  0  0  0  0  0  0  0  0  0  0  0
   10.6240  -11.6570   -3.5480 O   0  0  0  0  0  0  0  0  0  0  0  0
   11.3715  -18.9087   -1.8466 H   0  0  0  0  0  0  0  0  0  0  0  0
   10.4021  -19.4066   -3.2745 H   0  0  0  0  0  0  0  0  0  0  0  0
   12.1838  -19.6353   -3.2745 H   0  0  0  0  0  0  0  0  0  0  0  0
   13.4270  -15.7027   -2.2420 H   0  0  0  0  0  0  0  0  0  0  0  0
   13.4626  -15.2984   -4.0220 H   0  0  0  0  0  0  0  0  0  0  0  0
   10.8022  -15.8756   -3.4070 H   0  0  0  0  0  0  0  0  0  0  0  0
   11.2593  -15.5714    0.3869 H   0  0  0  0  0  0  0  0  0  0  0  0
   10.5201  -16.6630   -0.8332 H   0  0  0  0  0  0  0  0  0  0  0  0
   12.2951  -16.3871   -0.8332 H   0  0  0  0  0  0  0  0  0  0  0  0
   11.9788  -13.6292    0.0678 H   0  0  0  0  0  0  0  0  0  0  0  0
   13.0484  -13.7188   -1.3726 H   0  0  0  0  0  0  0  0  0  0  0  0
   11.6326  -12.6132   -1.3726 H   0  0  0  0  0  0  0  0  0  0  0  0
    9.4706  -13.6284   -0.7166 H   0  0  0  0  0  0  0  0  0  0  0  0
    6.6521  -17.1092    0.2061 H   0  0  0  0  0  0  0  0  0  0  0  0
    6.0265  -16.4396   -1.3389 H   0  0  0  0  0  0  0  0  0  0  0  0
    7.4890  -17.4826   -1.3389 H   0  0  0  0  0  0  0  0  0  0  0  0
    6.3756  -11.2795   -2.9232 H   0  0  0  0  0  0  0  0  0  0  0  0
    7.7349  -11.0039   -4.0646 H   0  0  0  0  0  0  0  0  0  0  0  0
    6.8669  -12.5765   -4.0646 H   0  0  0  0  0  0  0  0  0  0  0  0
    7.4476  -14.5786   -3.7229 H   0  0  0  0  0  0  0  0  0  0  0  0
   10.5153  -13.5066   -6.1181 H   0  0  0  0  0  0  0  0  0  0  0  0
   11.3699  -16.3246   -5.4528 H   0  0  0  0  0  0  0  0  0  0  0  0
   14.7919  -15.0918   -5.4657 H   0  0  0  0  0  0  0  0  0  0  0  0
   15.5496  -15.6897   -6.9807 H   0  0  0  0  0  0  0  0  0  0  0  0
   14.6449  -14.1379   -6.9807 H   0  0  0  0  0  0  0  0  0  0  0  0
   10.1830  -15.3421   -8.0891 H   0  0  0  0  0  0  0  0  0  0  0  0
   10.7811  -17.0254   -7.6542 H   0  0  0  0  0  0  0  0  0  0  0  0
    7.1894  -17.4834   -7.8770 H   0  0  0  0  0  0  0  0  0  0  0  0
    7.8667  -16.0638   -8.7445 H   0  0  0  0  0  0  0  0  0  0  0  0
    8.7559  -17.6245   -8.7445 H   0  0  0  0  0  0  0  0  0  0  0  0
    8.1113  -14.4729   -6.9596 H   0  0  0  0  0  0  0  0  0  0  0  0
    6.2831  -14.8209   -5.3191 H   0  0  0  0  0  0  0  0  0  0  0  0
    6.2048  -15.8950   -6.7868 H   0  0  0  0  0  0  0  0  0  0  0  0
    9.4915  -17.3005   -4.9952 H   0  0  0  0  0  0  0  0  0  0  0  0
    7.6443  -20.3971   -6.2865 H   0  0  0  0  0  0  0  0  0  0  0  0
    9.4206  -22.1725   -7.1574 H   0  0  0  0  0  0  0  0  0  0  0  0
   11.5391  -18.5206   -6.5715 H   0  0  0  0  0  0  0  0  0  0  0  0
   13.1500  -12.8840   -3.5932 H   0  0  0  0  0  0  0  0  0  0  0  0
   13.2622  -13.8501   -5.1034 H   0  0  0  0  0  0  0  0  0  0  0  0
   12.3860  -12.2820   -5.1034 H   0  0  0  0  0  0  0  0  0  0  0  0
  1  2  1  0
  2  3  1  0
  3  4  2  0
  3  5  1  0
  5  6  1  0
  6  7  1  0
  7  8  1  0
  7  9  1  0
  7 10  1  0
 10 11  1  0
 11 12  1  0
 12 13  1  0
 12 14  2  0
 10 15  1  0
 15 16  1  1
 16 17  1  0
 16 18  2  0
 15 19  1  0
 19 20  2  0
 20 21  1  0
 21 22  1  0
 22 23  1  0
 23 24  1  0
 24 25  1  0
 24 26  2  0
 22 27  1  0
 27 28  1  0
 28 29  1  6
 28 30  1  0
 30 31  1  0
 31 32  1  0
 32 33  2  0
 32 34  1  0
 34 35  1  0
 35 36  1  0
 36 37  1  0
 37 38  2  0
 38 39  1  0
 39 40  1  0
 21 41  1  0
 41 42  1  6
 41 43  1  0
 43 44  2  0
 41  6  1  0
 43 15  1  0
 30 20  1  0
 40 36  2  0
 35 28  1  0
  1 45  1  0
  1 46  1  0
  1 47  1  0
  5 48  1  0
  5 49  1  0
  6 50  1  6
  8 51  1  0
  8 52  1  0
  8 53  1  0
  9 54  1  0
  9 55  1  0
  9 56  1  0
 10 57  1  1
 13 58  1  0
 13 59  1  0
 13 60  1  0
 17 61  1  0
 17 62  1  0
 17 63  1  0
 19 64  1  0
 21 65  1  6
 22 66  1  1
 25 67  1  0
 25 68  1  0
 25 69  1  0
 27 70  1  0
 27 71  1  0
 29 72  1  0
 29 73  1  0
 29 74  1  0
 30 75  1  6
 31 76  1  0
 31 77  1  0
 35 78  1  1
 37 79  1  0
 38 80  1  0
 40 81  1  0
 42 82  1  0
 42 83  1  0
 42 84  1  0
M  END
>  <meeko>  (5) 
{"is_sidechain": [false], "free_energy": -6.471, "intermolecular_energy": -9.674, "internal_energy": -2.883}

$$$$
LIB_LQLWPOGAHZKADH__M_PUB_ALL__e8__s20260927
     RDKit          3D

 84 88  0  0  0  0  0  0  0  0999 V2000
    8.2220  -15.5140   -6.5990 C   0  0  0  0  0  0  0  0  0  0  0  0
    8.1590  -16.1740   -5.3340 O   0  0  0  0  0  0  0  0  0  0  0  0
    7.5050  -17.3670   -5.3680 C   0  0  0  0  0  0  0  0  0  0  0  0
    7.6450  -18.2290   -6.2240 O   0  0  0  0  0  0  0  0  0  0  0  0
    6.5330  -17.4580   -4.2080 C   0  0  0  0  0  0  0  0  0  0  0  0
    6.7760  -16.3780   -3.1140 C   0  0  1  0  0  0  0  0  0  0  0  0
    5.6160  -15.3040   -3.0210 C   0  0  0  0  0  0  0  0  0  0  0  0
    5.2710  -14.7250   -4.4200 C   0  0  0  0  0  0  0  0  0  0  0  0
    4.2870  -15.8980   -2.4870 C   0  0  0  0  0  0  0  0  0  0  0  0
    6.0890  -14.1220   -2.0840 C   0  0  2  0  0  0  0  0  0  0  0  0
    6.8990  -13.2190   -2.8910 O   0  0  0  0  0  0  0  0  0  0  0  0
    6.7030  -11.8850   -2.6970 C   0  0  0  0  0  0  0  0  0  0  0  0
    5.2500  -11.5420   -2.8000 C   0  0  0  0  0  0  0  0  0  0  0  0
    7.5910  -11.0890   -2.4320 O   0  0  0  0  0  0  0  0  0  0  0  0
    6.9060  -14.5740   -0.8370 C   0  0  2  0  0  0  0  0  0  0  0  0
    6.5320  -13.7520    0.4240 C   0  0  0  0  0  0  0  0  0  0  0  0
    5.1440  -13.1590    0.5180 C   0  0  0  0  0  0  0  0  0  0  0  0
    7.3300  -13.5670    1.3510 O   0  0  0  0  0  0  0  0  0  0  0  0
    8.4270  -14.4790   -1.0420 C   0  0  0  0  0  0  0  0  0  0  0  0
    9.2870  -15.4980   -1.2680 C   0  0  0  0  0  0  0  0  0  0  0  0
    8.7690  -16.9390   -1.4610 C   0  0  2  0  0  0  0  0  0  0  0  0
    9.5660  -17.7100   -2.5500 C   0  0  2  0  0  0  0  0  0  0  0  0
    9.3440  -19.1280   -2.3670 O   0  0  0  0  0  0  0  0  0  0  0  0
    9.3530  -19.9000   -3.4890 C   0  0  0  0  0  0  0  0  0  0  0  0
    8.1430  -20.7800   -3.5190 C   0  0  0  0  0  0  0  0  0  0  0  0
   10.2090  -19.8660   -4.3590 O   0  0  0  0  0  0  0  0  0  0  0  0
   11.0790  -17.5000   -2.4430 C   0  0  0  0  0  0  0  0  0  0  0  0
   11.5310  -16.0250   -2.4220 C   0  0  2  0  0  0  0  0  0  0  0  0
   13.0680  -16.0430   -2.1900 C   0  0  0  0  0  0  0  0  0  0  0  0
   10.8200  -15.3200   -1.2360 C   0  0  1  0  0  0  0  0  0  0  0  0
   11.3200  -13.8760   -1.1490 C   0  0  0  0  0  0  0  0  0  0  0  0
   11.1650  -13.1310   -2.4460 C   0  0  0  0  0  0  0  0  0  0  0  0
   10.9010  -11.9330   -2.4750 O   0  0  0  0  0  0  0  0  0  0  0  0
   11.4630  -13.8100   -3.5730 O   0  0  0  0  0  0  0  0  0  0  0  0
   11.1790  -15.2260   -3.7130 C   0  0  1  0  0  0  0  0  0  0  0  0
   11.8570  -15.7360   -4.9560 C   0  0  0  0  0  0  0  0  0  0  0  0
   11.5510  -16.9220   -5.6920 C   0  0  0  0  0  0  0  0  0  0  0  0
   12.4390  -16.9800   -6.7380 C   0  0  0  0  0  0  0  0  0  0  0  0
   13.2830  -15.9200   -6.6980 O   0  0  0  0  0  0  0  0  0  0  0  0
   12.9380  -15.1800   -5.6140 C   0  0  0  0  0  0  0  0  0  0  0  0
    7.1970  -16.9770   -1.6960 C   0  0  2  0  0  0  0  0  0  0  0  0
    6.6040  -18.3760   -1.4180 C   0  0  0  0  0  0  0  0  0  0  0  0
    6.6630  -16.0470   -0.5970 C   0  0  0  0  0  0  0  0  0  0  0  0
    6.0950  -16.4700    0.4100 O   0  0  0  0  0  0  0  0  0  0  0  0
    8.3255  -14.4301   -6.4423 H   0  0  0  0  0  0  0  0  0  0  0  0
    9.0886  -15.8871   -7.1645 H   0  0  0  0  0  0  0  0  0  0  0  0
    7.3005  -15.7164   -7.1645 H   0  0  0  0  0  0  0  0  0  0  0  0
    5.5117  -17.3360   -4.5980 H   0  0  0  0  0  0  0  0  0  0  0  0
    6.6819  -18.4398   -3.7348 H   0  0  0  0  0  0  0  0  0  0  0  0
    7.6611  -15.8241   -3.4601 H   0  0  0  0  0  0  0  0  0  0  0  0
    4.7113  -13.7857   -4.3002 H   0  0  0  0  0  0  0  0  0  0  0  0
    6.2002  -14.5299   -4.9754 H   0  0  0  0  0  0  0  0  0  0  0  0
    4.6571  -15.4493   -4.9754 H   0  0  0  0  0  0  0  0  0  0  0  0
    4.2988  -15.8927   -1.3871 H   0  0  0  0  0  0  0  0  0  0  0  0
    3.4432  -15.2914   -2.8475 H   0  0  0  0  0  0  0  0  0  0  0  0
    4.1762  -16.9313   -2.8475 H   0  0  0  0  0  0  0  0  0  0  0  0
    5.1857  -13.6385   -1.6837 H   0  0  0  0  0  0  0  0  0  0  0  0
    4.8245  -11.4416   -1.7906 H   0  0  0  0  0  0  0  0  0  0  0  0
    5.1351  -10.5920   -3.3426 H   0  0  0  0  0  0  0  0  0  0  0  0
    4.7224  -12.3403   -3.3426 H   0  0  0  0  0  0  0  0  0  0  0  0
    4.8668  -13.0406    1.5759 H   0  0  0  0  0  0  0  0  0  0  0  0
    5.1307  -12.1766    0.0232 H   0  0  0  0  0  0  0  0  0  0  0  0
    4.4250  -13.8285    0.0232 H   0  0  0  0  0  0  0  0  0  0  0  0
    8.8640  -13.4704   -1.0002 H   0  0  0  0  0  0  0  0  0  0  0  0
    8.9516  -17.4775   -0.5194 H   0  0  0  0  0  0  0  0  0  0  0  0
    9.2169  -17.3338   -3.5230 H   0  0  0  0  0  0  0  0  0  0  0  0
    7.8297  -21.0078   -2.4895 H   0  0  0  0  0  0  0  0  0  0  0  0
    7.3267  -20.2631   -4.0448 H   0  0  0  0  0  0  0  0  0  0  0  0
    8.3832  -21.7159   -4.0448 H   0  0  0  0  0  0  0  0  0  0  0  0
   11.4251  -17.9766   -1.5140 H   0  0  0  0  0  0  0  0  0  0  0  0
   11.5165  -17.9435   -3.3496 H   0  0  0  0  0  0  0  0  0  0  0  0
   13.2758  -16.0454   -1.1098 H   0  0  0  0  0  0  0  0  0  0  0  0
   13.4974  -16.9462   -2.6480 H   0  0  0  0  0  0  0  0  0  0  0  0
   13.5184  -15.1501   -2.6480 H   0  0  0  0  0  0  0  0  0  0  0  0
   11.0914  -15.8070   -0.2878 H   0  0  0  0  0  0  0  0  0  0  0  0
   10.7469  -13.3511   -0.3706 H   0  0  0  0  0  0  0  0  0  0  0  0
   12.3932  -13.9090   -0.9100 H   0  0  0  0  0  0  0  0  0  0  0  0
   10.0968  -15.3803   -3.8357 H   0  0  0  0  0  0  0  0  0  0  0  0
   10.7571  -17.6486   -5.4645 H   0  0  0  0  0  0  0  0  0  0  0  0
   12.4621  -17.7734   -7.4996 H   0  0  0  0  0  0  0  0  0  0  0  0
   13.4511  -14.2590   -5.3003 H   0  0  0  0  0  0  0  0  0  0  0  0
    6.5361  -18.5362   -0.3319 H   0  0  0  0  0  0  0  0  0  0  0  0
    5.5999  -18.4435   -1.8621 H   0  0  0  0  0  0  0  0  0  0  0  0
    7.2537  -19.1445   -1.8621 H   0  0  0  0  0  0  0  0  0  0  0  0
  1  2  1  0
  2  3  1  0
  3  4  2  0
  3  5  1  0
  5  6  1  0
  6  7  1  0
  7  8  1  0
  7  9  1  0
  7 10  1  0
 10 11  1  0
 11 12  1  0
 12 13  1  0
 12 14  2  0
 10 15  1  0
 15 16  1  1
 16 17  1  0
 16 18  2  0
 15 19  1  0
 19 20  2  0
 20 21  1  0
 21 22  1  0
 22 23  1  0
 23 24  1  0
 24 25  1  0
 24 26  2  0
 22 27  1  0
 27 28  1  0
 28 29  1  1
 28 30  1  0
 30 31  1  0
 31 32  1  0
 32 33  2  0
 32 34  1  0
 34 35  1  0
 35 36  1  0
 36 37  1  0
 37 38  2  0
 38 39  1  0
 39 40  1  0
 21 41  1  0
 41 42  1  1
 41 43  1  0
 43 44  2  0
 41  6  1  0
 43 15  1  0
 30 20  1  0
 40 36  2  0
 35 28  1  0
  1 45  1  0
  1 46  1  0
  1 47  1  0
  5 48  1  0
  5 49  1  0
  6 50  1  6
  8 51  1  0
  8 52  1  0
  8 53  1  0
  9 54  1  0
  9 55  1  0
  9 56  1  0
 10 57  1  1
 13 58  1  0
 13 59  1  0
 13 60  1  0
 17 61  1  0
 17 62  1  0
 17 63  1  0
 19 64  1  0
 21 65  1  1
 22 66  1  6
 25 67  1  0
 25 68  1  0
 25 69  1  0
 27 70  1  0
 27 71  1  0
 29 72  1  0
 29 73  1  0
 29 74  1  0
 30 75  1  1
 31 76  1  0
 31 77  1  0
 35 78  1  6
 37 79  1  0
 38 80  1  0
 40 81  1  0
 42 82  1  0
 42 83  1  0
 42 84  1  0
M  END
>  <meeko>  (6) 
{"is_sidechain": [false], "free_energy": -6.463, "intermolecular_energy": -9.563, "internal_energy": -2.983}

$$$$
LIB_LQLWPOGAHZKADH__M_PUB_ALL__e8__s20260927
     RDKit          3D

 84 88  0  0  0  0  0  0  0  0999 V2000
    6.2120  -18.5050   -0.2760 C   0  0  0  0  0  0  0  0  0  0  0  0
    6.9360  -17.2760   -0.2070 O   0  0  0  0  0  0  0  0  0  0  0  0
    6.2940  -16.2260   -0.7880 C   0  0  0  0  0  0  0  0  0  0  0  0
    5.9910  -16.1460   -1.9700 O   0  0  0  0  0  0  0  0  0  0  0  0
    6.0460  -15.1390    0.2400 C   0  0  0  0  0  0  0  0  0  0  0  0
    4.7330  -14.3410   -0.0130 C   0  0  1  0  0  0  0  0  0  0  0  0
    3.5320  -14.7980    0.9120 C   0  0  0  0  0  0  0  0  0  0  0  0
    3.3530  -16.3400    0.8830 C   0  0  0  0  0  0  0  0  0  0  0  0
    3.7520  -14.4420    2.4050 C   0  0  0  0  0  0  0  0  0  0  0  0
    2.2010  -14.1230    0.3900 C   0  0  2  0  0  0  0  0  0  0  0  0
    1.6990  -14.9330   -0.7110 O   0  0  0  0  0  0  0  0  0  0  0  0
    0.3520  -15.1290   -0.7610 C   0  0  0  0  0  0  0  0  0  0  0  0
   -0.2000  -15.3690    0.6100 C   0  0  0  0  0  0  0  0  0  0  0  0
   -0.3160  -15.0720   -1.7820 O   0  0  0  0  0  0  0  0  0  0  0  0
    2.3690  -12.6490   -0.0880 C   0  0  2  0  0  0  0  0  0  0  0  0
    1.1660  -11.7660    0.3360 C   0  0  0  0  0  0  0  0  0  0  0  0
    0.7960  -10.5810   -0.5280 C   0  0  0  0  0  0  0  0  0  0  0  0
    0.5040  -12.0000    1.3540 O   0  0  0  0  0  0  0  0  0  0  0  0
    2.5500  -12.5220   -1.6100 C   0  0  0  0  0  0  0  0  0  0  0  0
    3.6980  -12.2730   -2.2800 C   0  0  0  0  0  0  0  0  0  0  0  0
    5.0450  -12.1930   -1.5310 C   0  0  2  0  0  0  0  0  0  0  0  0
    6.2080  -12.8320   -2.3420 C   0  0  2  0  0  0  0  0  0  0  0  0
    7.4630  -12.3380   -1.8170 O   0  0  0  0  0  0  0  0  0  0  0  0
    8.4920  -13.2270   -1.7510 C   0  0  0  0  0  0  0  0  0  0  0  0
    9.3850  -12.8970   -0.5960 C   0  0  0  0  0  0  0  0  0  0  0  0
    8.6540  -14.1740   -2.5060 O   0  0  0  0  0  0  0  0  0  0  0  0
    6.1850  -12.4450   -3.8240 C   0  0  0  0  0  0  0  0  0  0  0  0
    4.8470  -12.7100   -4.5450 C   0  0  2  0  0  0  0  0  0  0  0  0
    5.0060  -12.1400   -5.9820 C   0  0  0  0  0  0  0  0  0  0  0  0
    3.7310  -11.9430   -3.7870 C   0  0  1  0  0  0  0  0  0  0  0  0
    2.4100  -12.1270   -4.5370 C   0  0  0  0  0  0  0  0  0  0  0  0
    2.0700  -13.5740   -4.7630 C   0  0  0  0  0  0  0  0  0  0  0  0
    0.9100  -13.9760   -4.7490 O   0  0  0  0  0  0  0  0  0  0  0  0
    3.0880  -14.3860   -5.1180 O   0  0  0  0  0  0  0  0  0  0  0  0
    4.4280  -14.2100   -4.5910 C   0  0  1  0  0  0  0  0  0  0  0  0
    5.3730  -15.0890   -5.3660 C   0  0  0  0  0  0  0  0  0  0  0  0
    5.5400  -16.5030   -5.2500 C   0  0  0  0  0  0  0  0  0  0  0  0
    6.5190  -16.8610   -6.1450 C   0  0  0  0  0  0  0  0  0  0  0  0
    6.9800  -15.7680   -6.8010 O   0  0  0  0  0  0  0  0  0  0  0  0
    6.2960  -14.6990   -6.3170 C   0  0  0  0  0  0  0  0  0  0  0  0
    4.9350  -12.7580   -0.0500 C   0  0  2  0  0  0  0  0  0  0  0  0
    6.0930  -12.2650    0.8460 C   0  0  0  0  0  0  0  0  0  0  0  0
    3.6570  -12.0920    0.4780 C   0  0  0  0  0  0  0  0  0  0  0  0
    3.6780  -11.1650    1.2880 O   0  0  0  0  0  0  0  0  0  0  0  0
    6.0007  -18.8637    0.7422 H   0  0  0  0  0  0  0  0  0  0  0  0
    5.2650  -18.3431   -0.8117 H   0  0  0  0  0  0  0  0  0  0  0  0
    6.8127  -19.2548   -0.8117 H   0  0  0  0  0  0  0  0  0  0  0  0
    5.9849  -15.6058    1.2342 H   0  0  0  0  0  0  0  0  0  0  0  0
    6.8802  -14.4256    0.1680 H   0  0  0  0  0  0  0  0  0  0  0  0
    4.4342  -14.6107   -1.0367 H   0  0  0  0  0  0  0  0  0  0  0  0
    3.3085  -16.7234    1.9131 H   0  0  0  0  0  0  0  0  0  0  0  0
    2.4197  -16.5910    0.3577 H   0  0  0  0  0  0  0  0  0  0  0  0
    4.2040  -16.7981    0.3577 H   0  0  0  0  0  0  0  0  0  0  0  0
    3.2791  -15.2073    3.0380 H   0  0  0  0  0  0  0  0  0  0  0  0
    4.8305  -14.4052    2.6181 H   0  0  0  0  0  0  0  0  0  0  0  0
    3.3025  -13.4609    2.6181 H   0  0  0  0  0  0  0  0  0  0  0  0
    1.5012  -14.0796    1.2376 H   0  0  0  0  0  0  0  0  0  0  0  0
    0.5357  -15.0491    1.3626 H   0  0  0  0  0  0  0  0  0  0  0  0
   -1.1287  -14.7934    0.7373 H   0  0  0  0  0  0  0  0  0  0  0  0
   -0.4125  -16.4408    0.7373 H   0  0  0  0  0  0  0  0  0  0  0  0
    0.5297   -9.7282    0.1138 H   0  0  0  0  0  0  0  0  0  0  0  0
    1.6519  -10.3088   -1.1631 H   0  0  0  0  0  0  0  0  0  0  0  0
   -0.0627  -10.8442   -1.1631 H   0  0  0  0  0  0  0  0  0  0  0  0
    1.6446  -12.6477   -2.2219 H   0  0  0  0  0  0  0  0  0  0  0  0
    5.2980  -11.1269   -1.4337 H   0  0  0  0  0  0  0  0  0  0  0  0
    6.0948  -13.9224   -2.2517 H   0  0  0  0  0  0  0  0  0  0  0  0
    8.8531  -13.0936    0.3466 H   0  0  0  0  0  0  0  0  0  0  0  0
   10.2904  -13.5199   -0.6429 H   0  0  0  0  0  0  0  0  0  0  0  0
    9.6678  -11.8350   -0.6429 H   0  0  0  0  0  0  0  0  0  0  0  0
    6.4067  -11.3702   -3.8998 H   0  0  0  0  0  0  0  0  0  0  0  0
    6.9333  -13.0806   -4.3200 H   0  0  0  0  0  0  0  0  0  0  0  0
    5.3012  -11.0818   -5.9261 H   0  0  0  0  0  0  0  0  0  0  0  0
    5.7798  -12.7087   -6.5185 H   0  0  0  0  0  0  0  0  0  0  0  0
    4.0496  -12.2260   -6.5185 H   0  0  0  0  0  0  0  0  0  0  0  0
    3.9466  -10.8643   -3.7845 H   0  0  0  0  0  0  0  0  0  0  0  0
    1.6038  -11.6633   -3.9496 H   0  0  0  0  0  0  0  0  0  0  0  0
    2.5180  -11.6522   -5.5234 H   0  0  0  0  0  0  0  0  0  0  0  0
    4.4616  -14.5293   -3.5389 H   0  0  0  0  0  0  0  0  0  0  0  0
    4.9908  -17.1754   -4.5745 H   0  0  0  0  0  0  0  0  0  0  0  0
    6.8777  -17.8883   -6.3063 H   0  0  0  0  0  0  0  0  0  0  0  0
    6.4559  -13.6596   -6.6398 H   0  0  0  0  0  0  0  0  0  0  0  0
    5.8144  -12.3836    1.9035 H   0  0  0  0  0  0  0  0  0  0  0  0
    6.9964  -12.8566    0.6362 H   0  0  0  0  0  0  0  0  0  0  0  0
    6.2927  -11.2038    0.6362 H   0  0  0  0  0  0  0  0  0  0  0  0
  1  2  1  0
  2  3  1  0
  3  4  2  0
  3  5  1  0
  5  6  1  0
  6  7  1  0
  7  8  1  0
  7  9  1  0
  7 10  1  0
 10 11  1  0
 11 12  1  0
 12 13  1  0
 12 14  2  0
 10 15  1  0
 15 16  1  1
 16 17  1  0
 16 18  2  0
 15 19  1  0
 19 20  2  0
 20 21  1  0
 21 22  1  0
 22 23  1  0
 23 24  1  0
 24 25  1  0
 24 26  2  0
 22 27  1  0
 27 28  1  0
 28 29  1  6
 28 30  1  0
 30 31  1  0
 31 32  1  0
 32 33  2  0
 32 34  1  0
 34 35  1  0
 35 36  1  0
 36 37  1  0
 37 38  2  0
 38 39  1  0
 39 40  1  0
 21 41  1  0
 41 42  1  1
 41 43  1  0
 43 44  2  0
 41  6  1  0
 43 15  1  0
 30 20  1  0
 40 36  2  0
 35 28  1  0
  1 45  1  0
  1 46  1  0
  1 47  1  0
  5 48  1  0
  5 49  1  0
  6 50  1  6
  8 51  1  0
  8 52  1  0
  8 53  1  0
  9 54  1  0
  9 55  1  0
  9 56  1  0
 10 57  1  1
 13 58  1  0
 13 59  1  0
 13 60  1  0
 17 61  1  0
 17 62  1  0
 17 63  1  0
 19 64  1  0
 21 65  1  1
 22 66  1  6
 25 67  1  0
 25 68  1  0
 25 69  1  0
 27 70  1  0
 27 71  1  0
 29 72  1  0
 29 73  1  0
 29 74  1  0
 30 75  1  1
 31 76  1  0
 31 77  1  0
 35 78  1  1
 37 79  1  0
 38 80  1  0
 40 81  1  0
 42 82  1  0
 42 83  1  0
 42 84  1  0
M  END
>  <meeko>  (7) 
{"is_sidechain": [false], "free_energy": -6.459, "intermolecular_energy": -10.512, "internal_energy": -2.027}

$$$$
LIB_LQLWPOGAHZKADH__M_PUB_ALL__e8__s20260927
     RDKit          3D

 84 88  0  0  0  0  0  0  0  0999 V2000
    8.2250  -17.6860   -0.9860 C   0  0  0  0  0  0  0  0  0  0  0  0
    8.7160  -17.0970   -2.1920 O   0  0  0  0  0  0  0  0  0  0  0  0
    9.0810  -18.0040   -3.1380 C   0  0  0  0  0  0  0  0  0  0  0  0
    8.4670  -19.0240   -3.4160 O   0  0  0  0  0  0  0  0  0  0  0  0
   10.3940  -17.5900   -3.7740 C   0  0  0  0  0  0  0  0  0  0  0  0
   10.7450  -16.0910   -3.5420 C   0  0  1  0  0  0  0  0  0  0  0  0
   12.0220  -15.8780   -2.6320 C   0  0  0  0  0  0  0  0  0  0  0  0
   11.9330  -16.7180   -1.3290 C   0  0  0  0  0  0  0  0  0  0  0  0
   13.3350  -16.3330   -3.3200 C   0  0  0  0  0  0  0  0  0  0  0  0
   12.1230  -14.3490   -2.2440 C   0  0  2  0  0  0  0  0  0  0  0  0
   11.2410  -14.1240   -1.1070 O   0  0  0  0  0  0  0  0  0  0  0  0
   11.7550  -13.4130   -0.0660 C   0  0  0  0  0  0  0  0  0  0  0  0
   10.8890  -12.2340    0.2500 C   0  0  0  0  0  0  0  0  0  0  0  0
   12.7640  -13.7230    0.5500 O   0  0  0  0  0  0  0  0  0  0  0  0
   11.7470  -13.3650   -3.3930 C   0  0  2  0  0  0  0  0  0  0  0  0
   12.6810  -12.1280   -3.4200 C   0  0  0  0  0  0  0  0  0  0  0  0
   14.1500  -12.3220   -3.1170 C   0  0  0  0  0  0  0  0  0  0  0  0
   12.2650  -10.9930   -3.6790 O   0  0  0  0  0  0  0  0  0  0  0  0
   10.2920  -12.8710   -3.3150 C   0  0  0  0  0  0  0  0  0  0  0  0
    9.2510  -13.2690   -4.0800 C   0  0  0  0  0  0  0  0  0  0  0  0
    9.4160  -14.4130   -5.1030 C   0  0  2  0  0  0  0  0  0  0  0  0
    8.1640  -15.3310   -5.1670 C   0  0  2  0  0  0  0  0  0  0  0  0
    8.1960  -16.0710   -6.4090 O   0  0  0  0  0  0  0  0  0  0  0  0
    7.6230  -17.3070   -6.4030 C   0  0  0  0  0  0  0  0  0  0  0  0
    8.5970  -18.3290   -6.9000 C   0  0  0  0  0  0  0  0  0  0  0  0
    6.4890  -17.5540   -6.0230 O   0  0  0  0  0  0  0  0  0  0  0  0
    6.8480  -14.5470   -5.1730 C   0  0  0  0  0  0  0  0  0  0  0  0
    6.6880  -13.5350   -4.0190 C   0  0  2  0  0  0  0  0  0  0  0  0
    5.3580  -12.7770   -4.2860 C   0  0  0  0  0  0  0  0  0  0  0  0
    7.8850  -12.5490   -4.0730 C   0  0  1  0  0  0  0  0  0  0  0  0
    7.6990  -11.4890   -2.9850 C   0  0  0  0  0  0  0  0  0  0  0  0
    7.5000  -12.0880   -1.6200 C   0  0  0  0  0  0  0  0  0  0  0  0
    7.9320  -11.5460   -0.6080 O   0  0  0  0  0  0  0  0  0  0  0  0
    6.7070  -13.1770   -1.5480 O   0  0  0  0  0  0  0  0  0  0  0  0
    6.6810  -14.1770   -2.5990 C   0  0  1  0  0  0  0  0  0  0  0  0
    5.5250  -15.1100   -2.3510 C   0  0  0  0  0  0  0  0  0  0  0  0
    4.3590  -14.8620   -1.5640 C   0  0  0  0  0  0  0  0  0  0  0  0
    3.5940  -16.0020   -1.6190 C   0  0  0  0  0  0  0  0  0  0  0  0
    4.2080  -16.9440   -2.3770 O   0  0  0  0  0  0  0  0  0  0  0  0
    5.3790  -16.4070   -2.8040 C   0  0  0  0  0  0  0  0  0  0  0  0
   10.7680  -15.2180   -4.8780 C   0  0  2  0  0  0  0  0  0  0  0  0
   11.1790  -16.0230   -6.1320 C   0  0  0  0  0  0  0  0  0  0  0  0
   11.8090  -14.1020   -4.7120 C   0  0  0  0  0  0  0  0  0  0  0  0
   12.6230  -13.8190   -5.5910 O   0  0  0  0  0  0  0  0  0  0  0  0
    8.6594  -17.1649   -0.1201 H   0  0  0  0  0  0  0  0  0  0  0  0
    7.1290  -17.5981   -0.9548 H   0  0  0  0  0  0  0  0  0  0  0  0
    8.5087  -18.7483   -0.9548 H   0  0  0  0  0  0  0  0  0  0  0  0
   11.1985  -18.2070   -3.3473 H   0  0  0  0  0  0  0  0  0  0  0  0
   10.2907  -17.7362   -4.8593 H   0  0  0  0  0  0  0  0  0  0  0  0
    9.9009  -15.6927   -2.9599 H   0  0  0  0  0  0  0  0  0  0  0  0
   12.0037  -16.0510   -0.4572 H   0  0  0  0  0  0  0  0  0  0  0  0
   10.9730  -17.2544   -1.3034 H   0  0  0  0  0  0  0  0  0  0  0  0
   12.7593  -17.4437   -1.3034 H   0  0  0  0  0  0  0  0  0  0  0  0
   14.0803  -16.5913   -2.5533 H   0  0  0  0  0  0  0  0  0  0  0  0
   13.1340  -17.2139   -3.9474 H   0  0  0  0  0  0  0  0  0  0  0  0
   13.7222  -15.5166   -3.9474 H   0  0  0  0  0  0  0  0  0  0  0  0
   13.1771  -14.1388   -2.0103 H   0  0  0  0  0  0  0  0  0  0  0  0
   10.8065  -12.1216    1.3411 H   0  0  0  0  0  0  0  0  0  0  0  0
   11.3359  -11.3252   -0.1794 H   0  0  0  0  0  0  0  0  0  0  0  0
    9.8882  -12.3886   -0.1794 H   0  0  0  0  0  0  0  0  0  0  0  0
   14.3002  -12.3418   -2.0275 H   0  0  0  0  0  0  0  0  0  0  0  0
   14.4915  -13.2730   -3.5516 H   0  0  0  0  0  0  0  0  0  0  0  0
   14.7267  -11.4922   -3.5516 H   0  0  0  0  0  0  0  0  0  0  0  0
   10.0747  -12.1092   -2.5518 H   0  0  0  0  0  0  0  0  0  0  0  0
    9.4969  -13.9491   -6.0971 H   0  0  0  0  0  0  0  0  0  0  0  0
    8.1979  -15.9730   -4.2744 H   0  0  0  0  0  0  0  0  0  0  0  0
    9.0732  -18.8287   -6.0435 H   0  0  0  0  0  0  0  0  0  0  0  0
    8.0666  -19.0744   -7.5109 H   0  0  0  0  0  0  0  0  0  0  0  0
    9.3670  -17.8351   -7.5109 H   0  0  0  0  0  0  0  0  0  0  0  0
    6.7835  -13.9953   -6.1224 H   0  0  0  0  0  0  0  0  0  0  0  0
    6.0466  -15.2895   -5.0449 H   0  0  0  0  0  0  0  0  0  0  0  0
    4.8894  -12.5099   -3.3273 H   0  0  0  0  0  0  0  0  0  0  0  0
    5.5663  -11.8619   -4.8598 H   0  0  0  0  0  0  0  0  0  0  0  0
    4.6769  -13.4226   -4.8598 H   0  0  0  0  0  0  0  0  0  0  0  0
    7.8958  -12.0176   -5.0360 H   0  0  0  0  0  0  0  0  0  0  0  0
    8.5928  -10.8482   -2.9613 H   0  0  0  0  0  0  0  0  0  0  0  0
    6.7937  -10.9149   -3.2314 H   0  0  0  0  0  0  0  0  0  0  0  0
    7.6045  -14.7740   -2.5715 H   0  0  0  0  0  0  0  0  0  0  0  0
    4.1197  -13.9369   -1.0191 H   0  0  0  0  0  0  0  0  0  0  0  0
    2.6225  -16.1320   -1.1196 H   0  0  0  0  0  0  0  0  0  0  0  0
    6.1148  -16.9348   -3.4284 H   0  0  0  0  0  0  0  0  0  0  0  0
   11.6591  -16.9633   -5.8230 H   0  0  0  0  0  0  0  0  0  0  0  0
   10.2853  -16.2477   -6.7327 H   0  0  0  0  0  0  0  0  0  0  0  0
   11.8851  -15.4309   -6.7327 H   0  0  0  0  0  0  0  0  0  0  0  0
  1  2  1  0
  2  3  1  0
  3  4  2  0
  3  5  1  0
  5  6  1  0
  6  7  1  0
  7  8  1  0
  7  9  1  0
  7 10  1  0
 10 11  1  0
 11 12  1  0
 12 13  1  0
 12 14  2  0
 10 15  1  0
 15 16  1  6
 16 17  1  0
 16 18  2  0
 15 19  1  0
 19 20  2  0
 20 21  1  0
 21 22  1  0
 22 23  1  0
 23 24  1  0
 24 25  1  0
 24 26  2  0
 22 27  1  0
 27 28  1  0
 28 29  1  6
 28 30  1  0
 30 31  1  0
 31 32  1  0
 32 33  2  0
 32 34  1  0
 34 35  1  0
 35 36  1  0
 36 37  1  0
 37 38  2  0
 38 39  1  0
 39 40  1  0
 21 41  1  0
 41 42  1  6
 41 43  1  0
 43 44  2  0
 41  6  1  0
 43 15  1  0
 30 20  1  0
 40 36  2  0
 35 28  1  0
  1 45  1  0
  1 46  1  0
  1 47  1  0
  5 48  1  0
  5 49  1  0
  6 50  1  1
  8 51  1  0
  8 52  1  0
  8 53  1  0
  9 54  1  0
  9 55  1  0
  9 56  1  0
 10 57  1  1
 13 58  1  0
 13 59  1  0
 13 60  1  0
 17 61  1  0
 17 62  1  0
 17 63  1  0
 19 64  1  0
 21 65  1  6
 22 66  1  1
 25 67  1  0
 25 68  1  0
 25 69  1  0
 27 70  1  0
 27 71  1  0
 29 72  1  0
 29 73  1  0
 29 74  1  0
 30 75  1  6
 31 76  1  0
 31 77  1  0
 35 78  1  6
 37 79  1  0
 38 80  1  0
 40 81  1  0
 42 82  1  0
 42 83  1  0
 42 84  1  0
M  END
>  <meeko>  (8) 
{"is_sidechain": [false], "free_energy": -6.455, "intermolecular_energy": -9.837, "internal_energy": -2.696}

$$$$
LIB_LQLWPOGAHZKADH__M_PUB_ALL__e8__s20260927
     RDKit          3D

 84 88  0  0  0  0  0  0  0  0999 V2000
    6.6360  -12.3880    0.2980 C   0  0  0  0  0  0  0  0  0  0  0  0
    5.8210  -12.7800   -0.8080 O   0  0  0  0  0  0  0  0  0  0  0  0
    5.4940  -11.7550   -1.6410 C   0  0  0  0  0  0  0  0  0  0  0  0
    6.2560  -10.8750   -2.0160 O   0  0  0  0  0  0  0  0  0  0  0  0
    4.0240  -11.8330   -2.0060 C   0  0  0  0  0  0  0  0  0  0  0  0
    3.3380  -13.1430   -1.5200 C   0  0  1  0  0  0  0  0  0  0  0  0
    2.3600  -12.9240   -0.2950 C   0  0  0  0  0  0  0  0  0  0  0  0
    3.0460  -12.1110    0.8360 C   0  0  0  0  0  0  0  0  0  0  0  0
    1.0950  -12.1100   -0.6720 C   0  0  0  0  0  0  0  0  0  0  0  0
    1.9370  -14.3360    0.2790 C   0  0  2  0  0  0  0  0  0  0  0  0
    2.9990  -14.7840    1.1700 O   0  0  0  0  0  0  0  0  0  0  0  0
    2.6210  -15.5350    2.2400 C   0  0  0  0  0  0  0  0  0  0  0  0
    1.9780  -14.6820    3.2880 C   0  0  0  0  0  0  0  0  0  0  0  0
    2.7520  -16.7490    2.3120 O   0  0  0  0  0  0  0  0  0  0  0  0
    1.6800  -15.4240   -0.8070 C   0  0  2  0  0  0  0  0  0  0  0  0
    0.4610  -16.3140   -0.4500 C   0  0  0  0  0  0  0  0  0  0  0  0
   -0.6890  -15.6980    0.3140 C   0  0  0  0  0  0  0  0  0  0  0  0
    0.4010  -17.5070   -0.7700 O   0  0  0  0  0  0  0  0  0  0  0  0
    2.8930  -16.3380   -1.0470 C   0  0  0  0  0  0  0  0  0  0  0  0
    3.7480  -16.3040   -2.0950 C   0  0  0  0  0  0  0  0  0  0  0  0
    3.6390  -15.1980   -3.1660 C   0  0  2  0  0  0  0  0  0  0  0  0
    5.0320  -14.7110   -3.6540 C   0  0  2  0  0  0  0  0  0  0  0  0
    4.8670  -14.0370   -4.9230 O   0  0  0  0  0  0  0  0  0  0  0  0
    5.9180  -13.2900   -5.3620 C   0  0  0  0  0  0  0  0  0  0  0  0
    5.8980  -13.2020   -6.8560 C   0  0  0  0  0  0  0  0  0  0  0  0
    6.7430  -12.7470   -4.6440 O   0  0  0  0  0  0  0  0  0  0  0  0
    6.0110  -15.8620   -3.9060 C   0  0  0  0  0  0  0  0  0  0  0  0
    6.1900  -16.8360   -2.7230 C   0  0  2  0  0  0  0  0  0  0  0  0
    7.1170  -17.9740   -3.2330 C   0  0  0  0  0  0  0  0  0  0  0  0
    4.7950  -17.4070   -2.3550 C   0  0  1  0  0  0  0  0  0  0  0  0
    4.9660  -18.4380   -1.2360 C   0  0  0  0  0  0  0  0  0  0  0  0
    5.7010  -17.8860   -0.0470 C   0  0  0  0  0  0  0  0  0  0  0  0
    5.4320  -18.2360    1.0980 O   0  0  0  0  0  0  0  0  0  0  0  0
    6.7600  -17.0910   -0.3060 O   0  0  0  0  0  0  0  0  0  0  0  0
    6.7770  -16.1820   -1.4360 C   0  0  1  0  0  0  0  0  0  0  0  0
    8.1730  -15.6420   -1.6030 C   0  0  0  0  0  0  0  0  0  0  0  0
    9.4020  -16.2850   -1.2620 C   0  0  0  0  0  0  0  0  0  0  0  0
   10.4100  -15.4070   -1.5790 C   0  0  0  0  0  0  0  0  0  0  0  0
    9.8930  -14.2590   -2.0830 O   0  0  0  0  0  0  0  0  0  0  0  0
    8.5430  -14.4000   -2.0810 C   0  0  0  0  0  0  0  0  0  0  0  0
    2.6930  -14.0090   -2.6960 C   0  0  2  0  0  0  0  0  0  0  0  0
    2.1980  -13.1580   -3.8870 C   0  0  0  0  0  0  0  0  0  0  0  0
    1.4650  -14.7460   -2.1420 C   0  0  0  0  0  0  0  0  0  0  0  0
    0.3930  -14.7940   -2.7440 O   0  0  0  0  0  0  0  0  0  0  0  0
    6.1217  -12.6354    1.2383 H   0  0  0  0  0  0  0  0  0  0  0  0
    7.5962  -12.9228    0.2536 H   0  0  0  0  0  0  0  0  0  0  0  0
    6.8176  -11.3040    0.2536 H   0  0  0  0  0  0  0  0  0  0  0  0
    3.5050  -10.9771   -1.5499 H   0  0  0  0  0  0  0  0  0  0  0  0
    3.9596  -11.8193   -3.1040 H   0  0  0  0  0  0  0  0  0  0  0  0
    4.1601  -13.7619   -1.1312 H   0  0  0  0  0  0  0  0  0  0  0  0
    2.7208  -12.4964    1.8136 H   0  0  0  0  0  0  0  0  0  0  0  0
    4.1380  -12.2095    0.7478 H   0  0  0  0  0  0  0  0  0  0  0  0
    2.7652  -11.0511    0.7478 H   0  0  0  0  0  0  0  0  0  0  0  0
    0.5839  -11.7811    0.2448 H   0  0  0  0  0  0  0  0  0  0  0  0
    1.3879  -11.2305   -1.2641 H   0  0  0  0  0  0  0  0  0  0  0  0
    0.4159  -12.7410   -1.2641 H   0  0  0  0  0  0  0  0  0  0  0  0
    0.9755  -14.2054    0.7971 H   0  0  0  0  0  0  0  0  0  0  0  0
    2.2576  -15.0530    4.2851 H   0  0  0  0  0  0  0  0  0  0  0  0
    2.3191  -13.6424    3.1746 H   0  0  0  0  0  0  0  0  0  0  0  0
    0.8846  -14.7236    3.1746 H   0  0  0  0  0  0  0  0  0  0  0  0
   -0.5059  -15.7961    1.3942 H   0  0  0  0  0  0  0  0  0  0  0  0
   -0.7748  -14.6332    0.0518 H   0  0  0  0  0  0  0  0  0  0  0  0
   -1.6230  -16.2166    0.0518 H   0  0  0  0  0  0  0  0  0  0  0  0
    3.0871  -17.1042   -0.2820 H   0  0  0  0  0  0  0  0  0  0  0  0
    3.1544  -15.6465   -4.0458 H   0  0  0  0  0  0  0  0  0  0  0  0
    5.4351  -14.0609   -2.8635 H   0  0  0  0  0  0  0  0  0  0  0  0
    5.6637  -12.1710   -7.1595 H   0  0  0  0  0  0  0  0  0  0  0  0
    6.8836  -13.4861   -7.2533 H   0  0  0  0  0  0  0  0  0  0  0  0
    5.1320  -13.8842   -7.2533 H   0  0  0  0  0  0  0  0  0  0  0  0
    5.6463  -16.4374   -4.7697 H   0  0  0  0  0  0  0  0  0  0  0  0
    6.9942  -15.3983   -4.0741 H   0  0  0  0  0  0  0  0  0  0  0  0
    7.5507  -18.5064   -2.3737 H   0  0  0  0  0  0  0  0  0  0  0  0
    6.5319  -18.6778   -3.8432 H   0  0  0  0  0  0  0  0  0  0  0  0
    7.9246  -17.5433   -3.8432 H   0  0  0  0  0  0  0  0  0  0  0  0
    4.3634  -17.9392   -3.2155 H   0  0  0  0  0  0  0  0  0  0  0  0
    3.9700  -18.7723   -0.9101 H   0  0  0  0  0  0  0  0  0  0  0  0
    5.5623  -19.2700   -1.6387 H   0  0  0  0  0  0  0  0  0  0  0  0
    6.1097  -15.3296   -1.2407 H   0  0  0  0  0  0  0  0  0  0  0  0
    9.5189  -17.2894   -0.8291 H   0  0  0  0  0  0  0  0  0  0  0  0
   11.4832  -15.6066   -1.4434 H   0  0  0  0  0  0  0  0  0  0  0  0
    7.8362  -13.6266   -2.4161 H   0  0  0  0  0  0  0  0  0  0  0  0
    1.6786  -12.2651   -3.5089 H   0  0  0  0  0  0  0  0  0  0  0  0
    3.0579  -12.8500   -4.5000 H   0  0  0  0  0  0  0  0  0  0  0  0
    1.5051  -13.7531   -4.5000 H   0  0  0  0  0  0  0  0  0  0  0  0
  1  2  1  0
  2  3  1  0
  3  4  2  0
  3  5  1  0
  5  6  1  0
  6  7  1  0
  7  8  1  0
  7  9  1  0
  7 10  1  0
 10 11  1  0
 11 12  1  0
 12 13  1  0
 12 14  2  0
 10 15  1  0
 15 16  1  1
 16 17  1  0
 16 18  2  0
 15 19  1  0
 19 20  2  0
 20 21  1  0
 21 22  1  0
 22 23  1  0
 23 24  1  0
 24 25  1  0
 24 26  2  0
 22 27  1  0
 27 28  1  0
 28 29  1  6
 28 30  1  0
 30 31  1  0
 31 32  1  0
 32 33  2  0
 32 34  1  0
 34 35  1  0
 35 36  1  0
 36 37  1  0
 37 38  2  0
 38 39  1  0
 39 40  1  0
 21 41  1  0
 41 42  1  6
 41 43  1  0
 43 44  2  0
 41  6  1  0
 43 15  1  0
 30 20  1  0
 40 36  2  0
 35 28  1  0
  1 45  1  0
  1 46  1  0
  1 47  1  0
  5 48  1  0
  5 49  1  0
  6 50  1  1
  8 51  1  0
  8 52  1  0
  8 53  1  0
  9 54  1  0
  9 55  1  0
  9 56  1  0
 10 57  1  1
 13 58  1  0
 13 59  1  0
 13 60  1  0
 17 61  1  0
 17 62  1  0
 17 63  1  0
 19 64  1  0
 21 65  1  6
 22 66  1  1
 25 67  1  0
 25 68  1  0
 25 69  1  0
 27 70  1  0
 27 71  1  0
 29 72  1  0
 29 73  1  0
 29 74  1  0
 30 75  1  6
 31 76  1  0
 31 77  1  0
 35 78  1  1
 37 79  1  0
 38 80  1  0
 40 81  1  0
 42 82  1  0
 42 83  1  0
 42 84  1  0
M  END
>  <meeko>  (9) 
{"is_sidechain": [false], "free_energy": -6.444, "intermolecular_energy": -9.858, "internal_energy": -2.658}

$$$$
