LIB_SRTLWTGAXHUNEM__M_PUB_ALL__e8__s20260927
     RDKit          3D

 79 83  0  0  0  0  0  0  0  0999 V2000
    6.6550  -12.7970   -8.9100 C   0  0  0  0  0  0  0  0  0  0  0  0
    6.3960  -13.6880   -7.7380 C   0  0  0  0  0  0  0  0  0  0  0  0
    5.5870  -13.4570   -6.6840 C   0  0  0  0  0  0  0  0  0  0  0  0
    4.7330  -12.2420   -6.4780 C   0  0  0  0  0  0  0  0  0  0  0  0
    5.5260  -14.5310   -5.6430 C   0  0  0  0  0  0  0  0  0  0  0  0
    5.9660  -15.6630   -5.7810 O   0  0  0  0  0  0  0  0  0  0  0  0
    4.9320  -14.0540   -4.5180 O   0  0  0  0  0  0  0  0  0  0  0  0
    5.6260  -14.2980   -3.2710 C   0  0  1  0  0  0  0  0  0  0  0  0
    5.8470  -12.9380   -2.5210 C   0  0  0  0  0  0  0  0  0  0  0  0
    6.8560  -12.1170   -3.3860 C   0  0  0  0  0  0  0  0  0  0  0  0
    4.5990  -12.0220   -2.5170 C   0  0  0  0  0  0  0  0  0  0  0  0
    6.3760  -13.1960   -1.0300 C   0  0  2  0  0  0  0  0  0  0  0  0
    7.9290  -13.4370   -1.0250 C   0  0  0  0  0  0  0  0  0  0  0  0
    8.6800  -12.5010   -0.0960 C   0  0  0  0  0  0  0  0  0  0  0  0
    8.2110  -11.4870    0.4030 O   0  0  0  0  0  0  0  0  0  0  0  0
    9.9360  -12.9770    0.1240 O   0  0  0  0  0  0  0  0  0  0  0  0
   10.7740  -12.0910    0.8690 C   0  0  0  0  0  0  0  0  0  0  0  0
    5.6130  -14.3610   -0.2270 C   0  0  2  0  0  0  0  0  0  0  0  0
    6.3180  -14.6730    1.1220 C   0  0  0  0  0  0  0  0  0  0  0  0
    5.6820  -15.5630   -1.1590 C   0  0  0  0  0  0  0  0  0  0  0  0
    6.3870  -16.5490   -0.9450 O   0  0  0  0  0  0  0  0  0  0  0  0
    4.8860  -15.3860   -2.4570 C   0  0  2  0  0  0  0  0  0  0  0  0
    4.8260  -16.6160   -3.1730 O   0  0  0  0  0  0  0  0  0  0  0  0
    3.4640  -15.0540   -2.1200 C   0  0  0  0  0  0  0  0  0  0  0  0
    3.0570  -14.5520   -0.9390 C   0  0  0  0  0  0  0  0  0  0  0  0
    1.6370  -14.3580   -0.5990 C   0  0  0  0  0  0  0  0  0  0  0  0
    0.6420  -15.0230   -1.2160 C   0  0  0  0  0  0  0  0  0  0  0  0
   -0.7780  -14.8270   -0.8780 C   0  0  0  0  0  0  0  0  0  0  0  0
   -1.6270  -15.6120   -1.2780 O   0  0  0  0  0  0  0  0  0  0  0  0
   -1.0810  -13.7580   -0.1090 O   0  0  0  0  0  0  0  0  0  0  0  0
   -0.0850  -12.7300    0.0840 C   0  0  1  0  0  0  0  0  0  0  0  0
   -0.6200  -11.6860    1.0260 C   0  0  0  0  0  0  0  0  0  0  0  0
   -0.4910  -10.2700    0.9130 C   0  0  0  0  0  0  0  0  0  0  0  0
   -1.1430   -9.7270    1.9950 C   0  0  0  0  0  0  0  0  0  0  0  0
   -1.6780  -10.7070    2.7630 O   0  0  0  0  0  0  0  0  0  0  0  0
   -1.3730  -11.8870    2.1680 C   0  0  0  0  0  0  0  0  0  0  0  0
    1.2770  -13.3660    0.5110 C   0  0  1  0  0  0  0  0  0  0  0  0
    1.1420  -14.1200    1.8580 C   0  0  0  0  0  0  0  0  0  0  0  0
    2.3670  -12.2820    0.6150 C   0  0  0  0  0  0  0  0  0  0  0  0
    3.7800  -12.8300    0.8300 C   0  0  0  0  0  0  0  0  0  0  0  0
    4.0760  -14.1750    0.1300 C   0  0  2  0  0  0  0  0  0  0  0  0
    6.9455  -11.7977   -8.5537 H   0  0  0  0  0  0  0  0  0  0  0  0
    7.4675  -13.2195   -9.5194 H   0  0  0  0  0  0  0  0  0  0  0  0
    5.7426  -12.7181   -9.5194 H   0  0  0  0  0  0  0  0  0  0  0  0
    6.9305  -14.6494   -7.7349 H   0  0  0  0  0  0  0  0  0  0  0  0
    4.6061  -12.0614   -5.4004 H   0  0  0  0  0  0  0  0  0  0  0  0
    5.2180  -11.3701   -6.9412 H   0  0  0  0  0  0  0  0  0  0  0  0
    3.7484  -12.4030   -6.9412 H   0  0  0  0  0  0  0  0  0  0  0  0
    6.6318  -14.7072   -3.4470 H   0  0  0  0  0  0  0  0  0  0  0  0
    7.5383  -11.5619   -2.7254 H   0  0  0  0  0  0  0  0  0  0  0  0
    7.4370  -12.8022   -4.0208 H   0  0  0  0  0  0  0  0  0  0  0  0
    6.3033  -11.4089   -4.0208 H   0  0  0  0  0  0  0  0  0  0  0  0
    4.3056  -11.8066   -1.4790 H   0  0  0  0  0  0  0  0  0  0  0  0
    4.8338  -11.0802   -3.0346 H   0  0  0  0  0  0  0  0  0  0  0  0
    3.7709  -12.5283   -3.0346 H   0  0  0  0  0  0  0  0  0  0  0  0
    6.1398  -12.2732   -0.4799 H   0  0  0  0  0  0  0  0  0  0  0  0
    8.1204  -14.4723   -0.7065 H   0  0  0  0  0  0  0  0  0  0  0  0
    8.2916  -13.2427   -2.0452 H   0  0  0  0  0  0  0  0  0  0  0  0
   10.6175  -12.2565    1.9452 H   0  0  0  0  0  0  0  0  0  0  0  0
   11.8273  -12.2844    0.6176 H   0  0  0  0  0  0  0  0  0  0  0  0
   10.5223  -11.0501    0.6176 H   0  0  0  0  0  0  0  0  0  0  0  0
    5.6610  -14.3822    1.9549 H   0  0  0  0  0  0  0  0  0  0  0  0
    6.5326  -15.7501    1.1831 H   0  0  0  0  0  0  0  0  0  0  0  0
    7.2595  -14.1075    1.1831 H   0  0  0  0  0  0  0  0  0  0  0  0
    4.9400  -16.4060   -4.1200 H   0  0  0  0  0  0  0  0  0  0  0  0
    2.7000  -15.2328   -2.8909 H   0  0  0  0  0  0  0  0  0  0  0  0
    0.9007  -15.7433   -2.0061 H   0  0  0  0  0  0  0  0  0  0  0  0
    0.1289  -12.2065   -0.8595 H   0  0  0  0  0  0  0  0  0  0  0  0
    0.0290   -9.7194    0.1153 H   0  0  0  0  0  0  0  0  0  0  0  0
   -1.2194   -8.6503    2.2070 H   0  0  0  0  0  0  0  0  0  0  0  0
   -1.6835  -12.8730    2.5441 H   0  0  0  0  0  0  0  0  0  0  0  0
    1.2689  -13.4110    2.6894 H   0  0  0  0  0  0  0  0  0  0  0  0
    0.1465  -14.5838    1.9204 H   0  0  0  0  0  0  0  0  0  0  0  0
    1.9147  -14.9004    1.9204 H   0  0  0  0  0  0  0  0  0  0  0  0
    2.3620  -11.6975   -0.3169 H   0  0  0  0  0  0  0  0  0  0  0  0
    2.1256  -11.6756    1.5004 H   0  0  0  0  0  0  0  0  0  0  0  0
    4.4954  -12.0848    0.4522 H   0  0  0  0  0  0  0  0  0  0  0  0
    3.8734  -13.0199    1.9094 H   0  0  0  0  0  0  0  0  0  0  0  0
    3.9077  -14.9693    0.8721 H   0  0  0  0  0  0  0  0  0  0  0  0
  1  2  1  0
  2  3  2  0
  3  4  1  0
  3  5  1  0
  5  6  2  0
  5  7  1  0
  7  8  1  0
  8  9  1  0
  9 10  1  0
  9 11  1  0
  9 12  1  0
 12 13  1  0
 13 14  1  0
 14 15  2  0
 14 16  1  0
 16 17  1  0
 12 18  1  0
 18 19  1  1
 18 20  1  0
 20 21  2  0
 20 22  1  0
 22 23  1  6
 22 24  1  0
 24 25  2  0
 25 26  1  0
 26 27  2  0
 27 28  1  0
 28 29  2  0
 28 30  1  0
 30 31  1  0
 31 32  1  0
 32 33  1  0
 33 34  2  0
 34 35  1  0
 35 36  1  0
 31 37  1  0
 37 38  1  1
 37 39  1  0
 39 40  1  0
 40 41  1  0
 22  8  1  0
 41 25  1  0
 41 18  1  0
 37 26  1  0
 36 32  2  0
  1 42  1  0
  1 43  1  0
  1 44  1  0
  2 45  1  0
  4 46  1  0
  4 47  1  0
  4 48  1  0
  8 49  1  6
 10 50  1  0
 10 51  1  0
 10 52  1  0
 11 53  1  0
 11 54  1  0
 11 55  1  0
 12 56  1  1
 13 57  1  0
 13 58  1  0
 17 59  1  0
 17 60  1  0
 17 61  1  0
 19 62  1  0
 19 63  1  0
 19 64  1  0
 23 65  1  0
 24 66  1  0
 27 67  1  0
 31 68  1  6
 33 69  1  0
 34 70  1  0
 36 71  1  0
 38 72  1  0
 38 73  1  0
 38 74  1  0
 39 75  1  0
 39 76  1  0
 40 77  1  0
 40 78  1  0
 41 79  1  1
M  END
>  <meeko>  (1) 
{"is_sidechain": [false], "free_energy": -8.007, "intermolecular_energy": -11.518, "internal_energy": -1.465}

$$$$
LIB_SRTLWTGAXHUNEM__M_PUB_ALL__e8__s20260927
     RDKit          3D

 79 83  0  0  0  0  0  0  0  0999 V2000
   -0.3880  -17.1510    0.5270 C   0  0  0  0  0  0  0  0  0  0  0  0
    0.9210  -17.2930   -0.1820 C   0  0  0  0  0  0  0  0  0  0  0  0
    2.1610  -17.1700    0.3340 C   0  0  0  0  0  0  0  0  0  0  0  0
    2.4940  -16.8900    1.7690 C   0  0  0  0  0  0  0  0  0  0  0  0
    3.3010  -17.3580   -0.6170 C   0  0  0  0  0  0  0  0  0  0  0  0
    3.4480  -18.3260   -1.3480 O   0  0  0  0  0  0  0  0  0  0  0  0
    4.1310  -16.2840   -0.5650 O   0  0  0  0  0  0  0  0  0  0  0  0
    3.9810  -15.3040   -1.6200 C   0  0  1  0  0  0  0  0  0  0  0  0
    4.0040  -13.8620   -1.0010 C   0  0  0  0  0  0  0  0  0  0  0  0
    2.7050  -13.7280   -0.1450 C   0  0  0  0  0  0  0  0  0  0  0  0
    5.1160  -13.6590    0.0570 C   0  0  0  0  0  0  0  0  0  0  0  0
    4.1010  -12.7540   -2.1570 C   0  0  2  0  0  0  0  0  0  0  0  0
    2.6820  -12.4570   -2.7620 C   0  0  0  0  0  0  0  0  0  0  0  0
    2.2170  -11.0310   -2.5360 C   0  0  0  0  0  0  0  0  0  0  0  0
    2.5030  -10.0820   -3.2530 O   0  0  0  0  0  0  0  0  0  0  0  0
    1.4120  -10.9750   -1.4400 O   0  0  0  0  0  0  0  0  0  0  0  0
    0.6280   -9.7840   -1.3530 C   0  0  0  0  0  0  0  0  0  0  0  0
    5.1660  -13.0720   -3.3180 C   0  0  2  0  0  0  0  0  0  0  0  0
    5.0480  -12.0530   -4.4860 C   0  0  0  0  0  0  0  0  0  0  0  0
    4.7980  -14.4720   -3.7890 C   0  0  0  0  0  0  0  0  0  0  0  0
    4.2740  -14.7080   -4.8780 O   0  0  0  0  0  0  0  0  0  0  0  0
    5.0240  -15.5590   -2.7330 C   0  0  2  0  0  0  0  0  0  0  0  0
    4.8600  -16.8520   -3.3090 O   0  0  0  0  0  0  0  0  0  0  0  0
    6.4510  -15.5090   -2.2740 C   0  0  0  0  0  0  0  0  0  0  0  0
    7.2580  -14.4400   -2.4070 C   0  0  0  0  0  0  0  0  0  0  0  0
    8.6890  -14.4700   -2.0600 C   0  0  0  0  0  0  0  0  0  0  0  0
    9.3990  -15.6120   -1.9930 C   0  0  0  0  0  0  0  0  0  0  0  0
   10.8300  -15.6420   -1.6440 C   0  0  0  0  0  0  0  0  0  0  0  0
   11.4940  -16.6530   -1.8260 O   0  0  0  0  0  0  0  0  0  0  0  0
   11.3570  -14.5090   -1.1280 O   0  0  0  0  0  0  0  0  0  0  0  0
   10.4670  -13.4650   -0.6770 C   0  0  1  0  0  0  0  0  0  0  0  0
   11.2750  -12.2840   -0.2140 C   0  0  0  0  0  0  0  0  0  0  0  0
   12.4540  -11.7510   -0.8170 C   0  0  0  0  0  0  0  0  0  0  0  0
   12.8340  -10.6730   -0.0540 C   0  0  0  0  0  0  0  0  0  0  0  0
   11.9670  -10.4930    0.9720 O   0  0  0  0  0  0  0  0  0  0  0  0
   11.0200  -11.4570    0.8640 C   0  0  0  0  0  0  0  0  0  0  0  0
    9.4030  -13.1450   -1.7770 C   0  0  1  0  0  0  0  0  0  0  0  0
   10.0800  -12.6310   -3.0730 C   0  0  0  0  0  0  0  0  0  0  0  0
    8.3900  -12.1060   -1.2580 C   0  0  0  0  0  0  0  0  0  0  0  0
    7.1940  -11.8770   -2.1860 C   0  0  0  0  0  0  0  0  0  0  0  0
    6.7120  -13.1270   -2.9570 C   0  0  2  0  0  0  0  0  0  0  0  0
   -0.2201  -17.1692    1.6140 H   0  0  0  0  0  0  0  0  0  0  0  0
   -0.8565  -16.1968    0.2443 H   0  0  0  0  0  0  0  0  0  0  0  0
   -1.0502  -17.9826    0.2443 H   0  0  0  0  0  0  0  0  0  0  0  0
    0.8658  -17.5263   -1.2556 H   0  0  0  0  0  0  0  0  0  0  0  0
    1.8158  -17.4603    2.4208 H   0  0  0  0  0  0  0  0  0  0  0  0
    3.5333  -17.1896    1.9694 H   0  0  0  0  0  0  0  0  0  0  0  0
    2.3772  -15.8147    1.9694 H   0  0  0  0  0  0  0  0  0  0  0  0
    3.0043  -15.3989   -2.1171 H   0  0  0  0  0  0  0  0  0  0  0  0
    2.9655  -13.7549    0.9234 H   0  0  0  0  0  0  0  0  0  0  0  0
    2.2093  -12.7740   -0.3777 H   0  0  0  0  0  0  0  0  0  0  0  0
    2.0250  -14.5608   -0.3777 H   0  0  0  0  0  0  0  0  0  0  0  0
    4.6822  -13.7382    1.0647 H   0  0  0  0  0  0  0  0  0  0  0  0
    5.8892  -14.4308   -0.0710 H   0  0  0  0  0  0  0  0  0  0  0  0
    5.5666  -12.6637   -0.0710 H   0  0  0  0  0  0  0  0  0  0  0  0
    4.4888  -11.8532   -1.6588 H   0  0  0  0  0  0  0  0  0  0  0  0
    2.7187  -12.6442   -3.8453 H   0  0  0  0  0  0  0  0  0  0  0  0
    1.9662  -13.1169   -2.2500 H   0  0  0  0  0  0  0  0  0  0  0  0
    0.4615   -9.5311   -0.2955 H   0  0  0  0  0  0  0  0  0  0  0  0
    1.1596   -8.9581   -1.8483 H   0  0  0  0  0  0  0  0  0  0  0  0
   -0.3408   -9.9458   -1.8483 H   0  0  0  0  0  0  0  0  0  0  0  0
    4.9305  -11.0386   -4.0771 H   0  0  0  0  0  0  0  0  0  0  0  0
    5.9572  -12.0964   -5.1037 H   0  0  0  0  0  0  0  0  0  0  0  0
    4.1728  -12.3030   -5.1037 H   0  0  0  0  0  0  0  0  0  0  0  0
    4.9410  -17.5040   -2.5860 H   0  0  0  0  0  0  0  0  0  0  0  0
    6.8668  -16.4080   -1.7956 H   0  0  0  0  0  0  0  0  0  0  0  0
    8.8891  -16.5627   -2.2079 H   0  0  0  0  0  0  0  0  0  0  0  0
    9.8839  -13.7941    0.1958 H   0  0  0  0  0  0  0  0  0  0  0  0
   12.9600  -12.1295   -1.7174 H   0  0  0  0  0  0  0  0  0  0  0  0
   13.7163  -10.0455   -0.2484 H   0  0  0  0  0  0  0  0  0  0  0  0
   10.1624  -11.5666    1.5440 H   0  0  0  0  0  0  0  0  0  0  0  0
   10.9309  -11.9850   -2.8108 H   0  0  0  0  0  0  0  0  0  0  0  0
   10.4379  -13.4869   -3.6640 H   0  0  0  0  0  0  0  0  0  0  0  0
    9.3517  -12.0563   -3.6640 H   0  0  0  0  0  0  0  0  0  0  0  0
    8.0104  -12.4507   -0.2848 H   0  0  0  0  0  0  0  0  0  0  0  0
    8.9262  -11.1479   -1.1915 H   0  0  0  0  0  0  0  0  0  0  0  0
    6.3557  -11.5086   -1.5765 H   0  0  0  0  0  0  0  0  0  0  0  0
    7.5313  -11.1589   -2.9480 H   0  0  0  0  0  0  0  0  0  0  0  0
    7.1876  -13.0990   -3.9485 H   0  0  0  0  0  0  0  0  0  0  0  0
  1  2  1  0
  2  3  2  0
  3  4  1  0
  3  5  1  0
  5  6  2  0
  5  7  1  0
  7  8  1  0
  8  9  1  0
  9 10  1  0
  9 11  1  0
  9 12  1  0
 12 13  1  0
 13 14  1  0
 14 15  2  0
 14 16  1  0
 16 17  1  0
 12 18  1  0
 18 19  1  6
 18 20  1  0
 20 21  2  0
 20 22  1  0
 22 23  1  6
 22 24  1  0
 24 25  2  0
 25 26  1  0
 26 27  2  0
 27 28  1  0
 28 29  2  0
 28 30  1  0
 30 31  1  0
 31 32  1  0
 32 33  1  0
 33 34  2  0
 34 35  1  0
 35 36  1  0
 31 37  1  0
 37 38  1  6
 37 39  1  0
 39 40  1  0
 40 41  1  0
 22  8  1  0
 41 25  1  0
 41 18  1  0
 37 26  1  0
 36 32  2  0
  1 42  1  0
  1 43  1  0
  1 44  1  0
  2 45  1  0
  4 46  1  0
  4 47  1  0
  4 48  1  0
  8 49  1  6
 10 50  1  0
 10 51  1  0
 10 52  1  0
 11 53  1  0
 11 54  1  0
 11 55  1  0
 12 56  1  1
 13 57  1  0
 13 58  1  0
 17 59  1  0
 17 60  1  0
 17 61  1  0
 19 62  1  0
 19 63  1  0
 19 64  1  0
 23 65  1  0
 24 66  1  0
 27 67  1  0
 31 68  1  1
 33 69  1  0
 34 70  1  0
 36 71  1  0
 38 72  1  0
 38 73  1  0
 38 74  1  0
 39 75  1  0
 39 76  1  0
 40 77  1  0
 40 78  1  0
 41 79  1  6
M  END
>  <meeko>  (2) 
{"is_sidechain": [false], "free_energy": -7.914, "intermolecular_energy": -11.463, "internal_energy": -1.386}

$$$$
LIB_SRTLWTGAXHUNEM__M_PUB_ALL__e8__s20260927
     RDKit          3D

 79 83  0  0  0  0  0  0  0  0999 V2000
   -1.5290   -8.7410    4.1350 C   0  0  0  0  0  0  0  0  0  0  0  0
   -1.9480   -9.7370    3.1020 C   0  0  0  0  0  0  0  0  0  0  0  0
   -1.4520   -9.8990    1.8580 C   0  0  0  0  0  0  0  0  0  0  0  0
   -0.3270   -9.1170    1.2490 C   0  0  0  0  0  0  0  0  0  0  0  0
   -2.0730  -10.9800    1.0280 C   0  0  0  0  0  0  0  0  0  0  0  0
   -2.5240  -10.8240   -0.0960 O   0  0  0  0  0  0  0  0  0  0  0  0
   -2.0380  -12.1590    1.7010 O   0  0  0  0  0  0  0  0  0  0  0  0
   -1.5270  -13.3010    0.9710 C   0  0  1  0  0  0  0  0  0  0  0  0
   -0.0630  -13.6110    1.4440 C   0  0  0  0  0  0  0  0  0  0  0  0
    0.8160  -12.4090    0.9720 C   0  0  0  0  0  0  0  0  0  0  0  0
    0.1160  -13.5630    2.9810 C   0  0  0  0  0  0  0  0  0  0  0  0
    0.4350  -15.0140    0.8500 C   0  0  2  0  0  0  0  0  0  0  0  0
    0.9600  -14.8400   -0.6210 C   0  0  0  0  0  0  0  0  0  0  0  0
    2.4420  -15.1340   -0.7700 C   0  0  0  0  0  0  0  0  0  0  0  0
    3.3270  -14.6060   -0.1130 O   0  0  0  0  0  0  0  0  0  0  0  0
    2.6300  -16.0940   -1.7160 O   0  0  0  0  0  0  0  0  0  0  0  0
    3.3190  -17.2520   -1.2430 C   0  0  0  0  0  0  0  0  0  0  0  0
   -0.6340  -16.2110    0.9400 C   0  0  2  0  0  0  0  0  0  0  0  0
   -0.1420  -17.4670    0.1670 C   0  0  0  0  0  0  0  0  0  0  0  0
   -1.8880  -15.6400    0.2940 C   0  0  0  0  0  0  0  0  0  0  0  0
   -2.3100  -15.9990   -0.8060 O   0  0  0  0  0  0  0  0  0  0  0  0
   -2.5170  -14.4840    1.0790 C   0  0  2  0  0  0  0  0  0  0  0  0
   -3.7880  -14.1460    0.5300 O   0  0  0  0  0  0  0  0  0  0  0  0
   -2.7990  -14.9380    2.4800 C   0  0  0  0  0  0  0  0  0  0  0  0
   -2.2040  -15.9880    3.0750 C   0  0  0  0  0  0  0  0  0  0  0  0
   -2.5980  -16.4810    4.4060 C   0  0  0  0  0  0  0  0  0  0  0  0
   -3.8040  -16.2310    4.9490 C   0  0  0  0  0  0  0  0  0  0  0  0
   -4.1970  -16.7220    6.2810 C   0  0  0  0  0  0  0  0  0  0  0  0
   -5.3670  -16.6870    6.6370 O   0  0  0  0  0  0  0  0  0  0  0  0
   -3.2130  -17.2110    7.0670 O   0  0  0  0  0  0  0  0  0  0  0  0
   -1.8370  -16.9600    6.7030 C   0  0  1  0  0  0  0  0  0  0  0  0
   -0.9270  -17.6560    7.6780 C   0  0  0  0  0  0  0  0  0  0  0  0
    0.4680  -17.4310    7.8730 C   0  0  0  0  0  0  0  0  0  0  0  0
    0.8700  -18.2890    8.8690 C   0  0  0  0  0  0  0  0  0  0  0  0
   -0.1800  -19.0210    9.3130 O   0  0  0  0  0  0  0  0  0  0  0  0
   -1.2660  -18.6260    8.6030 C   0  0  0  0  0  0  0  0  0  0  0  0
   -1.5970  -17.3240    5.2020 C   0  0  1  0  0  0  0  0  0  0  0  0
   -1.8630  -18.8280    4.9440 C   0  0  0  0  0  0  0  0  0  0  0  0
   -0.1590  -16.9590    4.7850 C   0  0  0  0  0  0  0  0  0  0  0  0
    0.1120  -17.0890    3.2840 C   0  0  0  0  0  0  0  0  0  0  0  0
   -1.0830  -16.7410    2.3680 C   0  0  2  0  0  0  0  0  0  0  0  0
   -1.7041   -9.1573    5.1380 H   0  0  0  0  0  0  0  0  0  0  0  0
   -0.4594   -8.5147    4.0136 H   0  0  0  0  0  0  0  0  0  0  0  0
   -2.1152   -7.8181    4.0136 H   0  0  0  0  0  0  0  0  0  0  0  0
   -2.7594  -10.4210    3.3914 H   0  0  0  0  0  0  0  0  0  0  0  0
    0.2940   -8.6853    2.0478 H   0  0  0  0  0  0  0  0  0  0  0  0
    0.2878   -9.7835    0.6262 H   0  0  0  0  0  0  0  0  0  0  0  0
   -0.7375   -8.3085    0.6262 H   0  0  0  0  0  0  0  0  0  0  0  0
   -1.4530  -13.0868   -0.1054 H   0  0  0  0  0  0  0  0  0  0  0  0
    1.2073  -11.8739    1.8498 H   0  0  0  0  0  0  0  0  0  0  0  0
    1.6548  -12.7835    0.3669 H   0  0  0  0  0  0  0  0  0  0  0  0
    0.2049  -11.7232    0.3669 H   0  0  0  0  0  0  0  0  0  0  0  0
   -0.8361  -13.8183    3.4692 H   0  0  0  0  0  0  0  0  0  0  0  0
    0.8883  -14.2858    3.2830 H   0  0  0  0  0  0  0  0  0  0  0  0
    0.4230  -12.5508    3.2830 H   0  0  0  0  0  0  0  0  0  0  0  0
    1.2614  -15.3248    1.5061 H   0  0  0  0  0  0  0  0  0  0  0  0
    0.4009  -15.5259   -1.2744 H   0  0  0  0  0  0  0  0  0  0  0  0
    0.8081  -13.7863   -0.8979 H   0  0  0  0  0  0  0  0  0  0  0  0
    3.3203  -17.2541   -0.1430 H   0  0  0  0  0  0  0  0  0  0  0  0
    2.8119  -18.1562   -1.6108 H   0  0  0  0  0  0  0  0  0  0  0  0
    4.3556  -17.2377   -1.6108 H   0  0  0  0  0  0  0  0  0  0  0  0
    0.1621  -18.2433    0.8845 H   0  0  0  0  0  0  0  0  0  0  0  0
   -0.9563  -17.8507   -0.4652 H   0  0  0  0  0  0  0  0  0  0  0  0
    0.7163  -17.1956   -0.4652 H   0  0  0  0  0  0  0  0  0  0  0  0
   -4.2750  -14.9820    0.3930 H   0  0  0  0  0  0  0  0  0  0  0  0
   -3.5434  -14.3740    3.0612 H   0  0  0  0  0  0  0  0  0  0  0  0
   -4.5271  -15.6345    4.3734 H   0  0  0  0  0  0  0  0  0  0  0  0
   -1.5984  -15.8888    6.7774 H   0  0  0  0  0  0  0  0  0  0  0  0
    1.0993  -16.7110    7.3317 H   0  0  0  0  0  0  0  0  0  0  0  0
    1.8983  -18.3698    9.2512 H   0  0  0  0  0  0  0  0  0  0  0  0
   -2.2815  -19.0244    8.7443 H   0  0  0  0  0  0  0  0  0  0  0  0
   -1.9560  -19.3541    5.9055 H   0  0  0  0  0  0  0  0  0  0  0  0
   -2.7953  -18.9426    4.3716 H   0  0  0  0  0  0  0  0  0  0  0  0
   -1.0265  -19.2554    4.3716 H   0  0  0  0  0  0  0  0  0  0  0  0
    0.0318  -15.9169    5.0809 H   0  0  0  0  0  0  0  0  0  0  0  0
    0.5072  -17.6744    5.2893 H   0  0  0  0  0  0  0  0  0  0  0  0
    0.9439  -16.4162    3.0287 H   0  0  0  0  0  0  0  0  0  0  0  0
    0.3355  -18.1510    3.1046 H   0  0  0  0  0  0  0  0  0  0  0  0
   -1.5865  -17.6873    2.1210 H   0  0  0  0  0  0  0  0  0  0  0  0
  1  2  1  0
  2  3  2  0
  3  4  1  0
  3  5  1  0
  5  6  2  0
  5  7  1  0
  7  8  1  0
  8  9  1  0
  9 10  1  0
  9 11  1  0
  9 12  1  0
 12 13  1  0
 13 14  1  0
 14 15  2  0
 14 16  1  0
 16 17  1  0
 12 18  1  0
 18 19  1  6
 18 20  1  0
 20 21  2  0
 20 22  1  0
 22 23  1  6
 22 24  1  0
 24 25  2  0
 25 26  1  0
 26 27  2  0
 27 28  1  0
 28 29  2  0
 28 30  1  0
 30 31  1  0
 31 32  1  0
 32 33  1  0
 33 34  2  0
 34 35  1  0
 35 36  1  0
 31 37  1  0
 37 38  1  1
 37 39  1  0
 39 40  1  0
 40 41  1  0
 22  8  1  0
 41 25  1  0
 41 18  1  0
 37 26  1  0
 36 32  2  0
  1 42  1  0
  1 43  1  0
  1 44  1  0
  2 45  1  0
  4 46  1  0
  4 47  1  0
  4 48  1  0
  8 49  1  6
 10 50  1  0
 10 51  1  0
 10 52  1  0
 11 53  1  0
 11 54  1  0
 11 55  1  0
 12 56  1  1
 13 57  1  0
 13 58  1  0
 17 59  1  0
 17 60  1  0
 17 61  1  0
 19 62  1  0
 19 63  1  0
 19 64  1  0
 23 65  1  0
 24 66  1  0
 27 67  1  0
 31 68  1  6
 33 69  1  0
 34 70  1  0
 36 71  1  0
 38 72  1  0
 38 73  1  0
 38 74  1  0
 39 75  1  0
 39 76  1  0
 40 77  1  0
 40 78  1  0
 41 79  1  6
M  END
>  <meeko>  (3) 
{"is_sidechain": [false], "free_energy": -7.831, "intermolecular_energy": -11.627, "internal_energy": -1.103}

$$$$
LIB_SRTLWTGAXHUNEM__M_PUB_ALL__e8__s20260927
     RDKit          3D

 79 83  0  0  0  0  0  0  0  0999 V2000
   13.6060  -11.6950   -2.8990 C   0  0  0  0  0  0  0  0  0  0  0  0
   12.3230  -12.1430   -2.2740 C   0  0  0  0  0  0  0  0  0  0  0  0
   11.9300  -11.9970   -0.9930 C   0  0  0  0  0  0  0  0  0  0  0  0
   12.7020  -11.3110    0.0930 C   0  0  0  0  0  0  0  0  0  0  0  0
   10.5860  -12.5550   -0.6400 C   0  0  0  0  0  0  0  0  0  0  0  0
   10.2780  -12.9920    0.4580 O   0  0  0  0  0  0  0  0  0  0  0  0
    9.7570  -12.4800   -1.7140 O   0  0  0  0  0  0  0  0  0  0  0  0
    8.5090  -13.2080   -1.6140 C   0  0  1  0  0  0  0  0  0  0  0  0
    7.3540  -12.3550   -2.2480 C   0  0  0  0  0  0  0  0  0  0  0  0
    7.1660  -11.1110   -1.3220 C   0  0  0  0  0  0  0  0  0  0  0  0
    7.7350  -11.7020   -3.5990 C   0  0  0  0  0  0  0  0  0  0  0  0
    6.0180  -13.2310   -2.3880 C   0  0  2  0  0  0  0  0  0  0  0  0
    5.2300  -13.2650   -1.0290 C   0  0  0  0  0  0  0  0  0  0  0  0
    3.9530  -12.4460   -1.0540 C   0  0  0  0  0  0  0  0  0  0  0  0
    3.2580  -12.2080   -0.0760 O   0  0  0  0  0  0  0  0  0  0  0  0
    3.7200  -11.9900   -2.3140 O   0  0  0  0  0  0  0  0  0  0  0  0
    2.4170  -11.4370   -2.5030 C   0  0  0  0  0  0  0  0  0  0  0  0
    6.2350  -14.7160   -2.9640 C   0  0  2  0  0  0  0  0  0  0  0  0
    4.9260  -15.5510   -2.8770 C   0  0  0  0  0  0  0  0  0  0  0  0
    7.3110  -15.3110   -2.0670 C   0  0  0  0  0  0  0  0  0  0  0  0
    7.0920  -16.1910   -1.2340 O   0  0  0  0  0  0  0  0  0  0  0  0
    8.6760  -14.6280   -2.2020 C   0  0  2  0  0  0  0  0  0  0  0  0
    9.6710  -15.3660   -1.4980 O   0  0  0  0  0  0  0  0  0  0  0  0
    9.1020  -14.6630   -3.6400 C   0  0  0  0  0  0  0  0  0  0  0  0
    8.2640  -14.8360   -4.6790 C   0  0  0  0  0  0  0  0  0  0  0  0
    8.7330  -14.9920   -6.0660 C   0  0  0  0  0  0  0  0  0  0  0  0
    9.9810  -15.3920   -6.3740 C   0  0  0  0  0  0  0  0  0  0  0  0
   10.4510  -15.5450   -7.7610 C   0  0  0  0  0  0  0  0  0  0  0  0
   11.4950  -16.1340   -8.0030 O   0  0  0  0  0  0  0  0  0  0  0  0
    9.6740  -15.0150   -8.7320 O   0  0  0  0  0  0  0  0  0  0  0  0
    8.6220  -14.0960   -8.3620 C   0  0  1  0  0  0  0  0  0  0  0  0
    7.8520  -13.6980   -9.5910 C   0  0  0  0  0  0  0  0  0  0  0  0
    7.4530  -14.5360  -10.6740 C   0  0  0  0  0  0  0  0  0  0  0  0
    6.7680  -13.7390  -11.5600 C   0  0  0  0  0  0  0  0  0  0  0  0
    6.7030  -12.4670  -11.0950 O   0  0  0  0  0  0  0  0  0  0  0  0
    7.3450  -12.4490   -9.9000 C   0  0  0  0  0  0  0  0  0  0  0  0
    7.7560  -14.6990   -7.2090 C   0  0  1  0  0  0  0  0  0  0  0  0
    7.0690  -16.0130   -7.6560 C   0  0  0  0  0  0  0  0  0  0  0  0
    6.6990  -13.6780   -6.7420 C   0  0  0  0  0  0  0  0  0  0  0  0
    5.9350  -14.0960   -5.4830 C   0  0  0  0  0  0  0  0  0  0  0  0
    6.7580  -14.9010   -4.4520 C   0  0  2  0  0  0  0  0  0  0  0  0
   14.3296  -11.4423   -2.1100 H   0  0  0  0  0  0  0  0  0  0  0  0
   14.0120  -12.5045   -3.5233 H   0  0  0  0  0  0  0  0  0  0  0  0
   13.4199  -10.8087   -3.5233 H   0  0  0  0  0  0  0  0  0  0  0  0
   11.6135  -12.6541   -2.9414 H   0  0  0  0  0  0  0  0  0  0  0  0
   12.3291  -11.6424    1.0734 H   0  0  0  0  0  0  0  0  0  0  0  0
   13.7684  -11.5649    0.0014 H   0  0  0  0  0  0  0  0  0  0  0  0
   12.5752  -10.2222    0.0014 H   0  0  0  0  0  0  0  0  0  0  0  0
    8.2212  -13.3650   -0.5640 H   0  0  0  0  0  0  0  0  0  0  0  0
    7.2137  -11.4269   -0.2694 H   0  0  0  0  0  0  0  0  0  0  0  0
    7.9640  -10.3809   -1.5223 H   0  0  0  0  0  0  0  0  0  0  0  0
    6.1879  -10.6493   -1.5223 H   0  0  0  0  0  0  0  0  0  0  0  0
    8.2813  -10.7656   -3.4125 H   0  0  0  0  0  0  0  0  0  0  0  0
    8.3729  -12.3908   -4.1722 H   0  0  0  0  0  0  0  0  0  0  0  0
    6.8214  -11.4856   -4.1722 H   0  0  0  0  0  0  0  0  0  0  0  0
    5.4172  -12.7170   -3.1527 H   0  0  0  0  0  0  0  0  0  0  0  0
    4.9703  -14.3096   -0.8023 H   0  0  0  0  0  0  0  0  0  0  0  0
    5.8843  -12.8243   -0.2624 H   0  0  0  0  0  0  0  0  0  0  0  0
    1.9561  -11.2414   -1.5236 H   0  0  0  0  0  0  0  0  0  0  0  0
    2.4965  -10.4951   -3.0655 H   0  0  0  0  0  0  0  0  0  0  0  0
    1.7947  -12.1486   -3.0655 H   0  0  0  0  0  0  0  0  0  0  0  0
    4.6663  -15.7167   -1.8210 H   0  0  0  0  0  0  0  0  0  0  0  0
    4.1099  -15.0063   -3.3742 H   0  0  0  0  0  0  0  0  0  0  0  0
    5.0759  -16.5207   -3.3742 H   0  0  0  0  0  0  0  0  0  0  0  0
   10.5310  -14.9430   -1.6830 H   0  0  0  0  0  0  0  0  0  0  0  0
   10.1725  -14.5388   -3.8604 H   0  0  0  0  0  0  0  0  0  0  0  0
   10.6798  -15.6141   -5.5541 H   0  0  0  0  0  0  0  0  0  0  0  0
    9.0377  -13.1649   -7.9493 H   0  0  0  0  0  0  0  0  0  0  0  0
    7.6545  -15.6122  -10.7798 H   0  0  0  0  0  0  0  0  0  0  0  0
    6.3345  -14.0838  -12.5104 H   0  0  0  0  0  0  0  0  0  0  0  0
    7.4485  -11.5592   -9.2617 H   0  0  0  0  0  0  0  0  0  0  0  0
    6.7677  -16.5894   -6.7689 H   0  0  0  0  0  0  0  0  0  0  0  0
    6.1798  -15.7753   -8.2583 H   0  0  0  0  0  0  0  0  0  0  0  0
    7.7716  -16.6076   -8.2583 H   0  0  0  0  0  0  0  0  0  0  0  0
    7.2078  -12.7247   -6.5361 H   0  0  0  0  0  0  0  0  0  0  0  0
    5.9570  -13.5996   -7.5502 H   0  0  0  0  0  0  0  0  0  0  0  0
    5.5683  -13.1842   -4.9888 H   0  0  0  0  0  0  0  0  0  0  0  0
    5.1305  -14.7654   -5.8217 H   0  0  0  0  0  0  0  0  0  0  0  0
    6.5605  -15.9664   -4.6415 H   0  0  0  0  0  0  0  0  0  0  0  0
  1  2  1  0
  2  3  2  0
  3  4  1  0
  3  5  1  0
  5  6  2  0
  5  7  1  0
  7  8  1  0
  8  9  1  0
  9 10  1  0
  9 11  1  0
  9 12  1  0
 12 13  1  0
 13 14  1  0
 14 15  2  0
 14 16  1  0
 16 17  1  0
 12 18  1  0
 18 19  1  6
 18 20  1  0
 20 21  2  0
 20 22  1  0
 22 23  1  1
 22 24  1  0
 24 25  2  0
 25 26  1  0
 26 27  2  0
 27 28  1  0
 28 29  2  0
 28 30  1  0
 30 31  1  0
 31 32  1  0
 32 33  1  0
 33 34  2  0
 34 35  1  0
 35 36  1  0
 31 37  1  0
 37 38  1  6
 37 39  1  0
 39 40  1  0
 40 41  1  0
 22  8  1  0
 41 25  1  0
 41 18  1  0
 37 26  1  0
 36 32  2  0
  1 42  1  0
  1 43  1  0
  1 44  1  0
  2 45  1  0
  4 46  1  0
  4 47  1  0
  4 48  1  0
  8 49  1  1
 10 50  1  0
 10 51  1  0
 10 52  1  0
 11 53  1  0
 11 54  1  0
 11 55  1  0
 12 56  1  6
 13 57  1  0
 13 58  1  0
 17 59  1  0
 17 60  1  0
 17 61  1  0
 19 62  1  0
 19 63  1  0
 19 64  1  0
 23 65  1  0
 24 66  1  0
 27 67  1  0
 31 68  1  1
 33 69  1  0
 34 70  1  0
 36 71  1  0
 38 72  1  0
 38 73  1  0
 38 74  1  0
 39 75  1  0
 39 76  1  0
 40 77  1  0
 40 78  1  0
 41 79  1  6
M  END
>  <meeko>  (4) 
{"is_sidechain": [false], "free_energy": -7.673, "intermolecular_energy": -11.191, "internal_energy": -1.311}

$$$$
LIB_SRTLWTGAXHUNEM__M_PUB_ALL__e8__s20260927
     RDKit          3D

 79 83  0  0  0  0  0  0  0  0999 V2000
   -1.9930  -17.0380    8.4230 C   0  0  0  0  0  0  0  0  0  0  0  0
   -1.4250  -17.4510    7.1030 C   0  0  0  0  0  0  0  0  0  0  0  0
   -0.1260  -17.5810    6.7630 C   0  0  0  0  0  0  0  0  0  0  0  0
    1.0470  -17.3630    7.6700 C   0  0  0  0  0  0  0  0  0  0  0  0
    0.1550  -18.0060    5.3550 C   0  0  0  0  0  0  0  0  0  0  0  0
   -0.2360  -19.0470    4.8500 O   0  0  0  0  0  0  0  0  0  0  0  0
    0.8860  -17.0530    4.7210 O   0  0  0  0  0  0  0  0  0  0  0  0
    0.1820  -16.2470    3.7450 C   0  0  1  0  0  0  0  0  0  0  0  0
    0.5120  -14.7320    3.9830 C   0  0  0  0  0  0  0  0  0  0  0  0
   -0.1330  -14.3510    5.3530 C   0  0  0  0  0  0  0  0  0  0  0  0
    2.0130  -14.4560    4.2400 C   0  0  0  0  0  0  0  0  0  0  0  0
   -0.0380  -13.8380    2.7700 C   0  0  2  0  0  0  0  0  0  0  0  0
   -1.5660  -13.5230    2.9600 C   0  0  0  0  0  0  0  0  0  0  0  0
   -1.8650  -12.0400    3.0740 C   0  0  0  0  0  0  0  0  0  0  0  0
   -1.2470  -11.2560    3.7810 O   0  0  0  0  0  0  0  0  0  0  0  0
   -2.8960  -11.7110    2.2480 O   0  0  0  0  0  0  0  0  0  0  0  0
   -3.9630  -12.6600    2.2410 C   0  0  0  0  0  0  0  0  0  0  0  0
    0.2480  -14.4300    1.3030 C   0  0  2  0  0  0  0  0  0  0  0  0
   -0.4880  -13.6070    0.2090 C   0  0  0  0  0  0  0  0  0  0  0  0
   -0.2940  -15.8510    1.3610 C   0  0  0  0  0  0  0  0  0  0  0  0
   -1.3140  -16.2140    0.7760 O   0  0  0  0  0  0  0  0  0  0  0  0
    0.4760  -16.7680    2.3180 C   0  0  2  0  0  0  0  0  0  0  0  0
    0.0490  -18.1180    2.1610 O   0  0  0  0  0  0  0  0  0  0  0  0
    1.9270  -16.7660    1.9390 C   0  0  0  0  0  0  0  0  0  0  0  0
    2.5230  -15.8050    1.2080 C   0  0  0  0  0  0  0  0  0  0  0  0
    3.9190  -15.9000    0.7490 C   0  0  0  0  0  0  0  0  0  0  0  0
    4.5730  -17.0720    0.6390 C   0  0  0  0  0  0  0  0  0  0  0  0
    5.9690  -17.1680    0.1820 C   0  0  0  0  0  0  0  0  0  0  0  0
    6.4480  -18.2480   -0.1350 O   0  0  0  0  0  0  0  0  0  0  0  0
    6.6740  -16.0160    0.1250 O   0  0  0  0  0  0  0  0  0  0  0  0
    6.1460  -14.8400    0.7780 C   0  0  1  0  0  0  0  0  0  0  0  0
    7.0600  -13.6730    0.5210 C   0  0  0  0  0  0  0  0  0  0  0  0
    7.2390  -12.5170    1.3380 C   0  0  0  0  0  0  0  0  0  0  0  0
    8.1750  -11.7310    0.7090 C   0  0  0  0  0  0  0  0  0  0  0  0
    8.5970  -12.3240   -0.4340 O   0  0  0  0  0  0  0  0  0  0  0  0
    7.9330  -13.5020   -0.5370 C   0  0  0  0  0  0  0  0  0  0  0  0
    4.6550  -14.6130    0.3660 C   0  0  1  0  0  0  0  0  0  0  0  0
    4.5290  -14.3760   -1.1600 C   0  0  0  0  0  0  0  0  0  0  0  0
    4.0600  -13.4210    1.1410 C   0  0  0  0  0  0  0  0  0  0  0  0
    2.5500  -13.2440    0.9580 C   0  0  0  0  0  0  0  0  0  0  0  0
    1.7490  -14.5570    0.8000 C   0  0  2  0  0  0  0  0  0  0  0  0
   -1.3918  -17.4752    9.2338 H   0  0  0  0  0  0  0  0  0  0  0  0
   -1.9744  -15.9411    8.5032 H   0  0  0  0  0  0  0  0  0  0  0  0
   -3.0307  -17.3939    8.5032 H   0  0  0  0  0  0  0  0  0  0  0  0
   -2.1558  -17.6764    6.3123 H   0  0  0  0  0  0  0  0  0  0  0  0
    0.7169  -17.4243    8.7175 H   0  0  0  0  0  0  0  0  0  0  0  0
    1.8066  -18.1354    7.4791 H   0  0  0  0  0  0  0  0  0  0  0  0
    1.4784  -16.3693    7.4791 H   0  0  0  0  0  0  0  0  0  0  0  0
   -0.9079  -16.3362    3.8639 H   0  0  0  0  0  0  0  0  0  0  0  0
    0.4990  -14.7243    6.1723 H   0  0  0  0  0  0  0  0  0  0  0  0
   -0.2194  -13.2568    5.4259 H   0  0  0  0  0  0  0  0  0  0  0  0
   -1.1330  -14.8034    5.4259 H   0  0  0  0  0  0  0  0  0  0  0  0
    2.1992  -14.4218    5.3236 H   0  0  0  0  0  0  0  0  0  0  0  0
    2.6157  -15.2584    3.7895 H   0  0  0  0  0  0  0  0  0  0  0  0
    2.2909  -13.4917    3.7895 H   0  0  0  0  0  0  0  0  0  0  0  0
    0.5429  -12.9050    2.8156 H   0  0  0  0  0  0  0  0  0  0  0  0
   -2.1150  -13.9241    2.0953 H   0  0  0  0  0  0  0  0  0  0  0  0
   -1.8795  -13.9914    3.9046 H   0  0  0  0  0  0  0  0  0  0  0  0
   -4.2408  -12.9071    3.2763 H   0  0  0  0  0  0  0  0  0  0  0  0
   -4.8320  -12.2309    1.7207 H   0  0  0  0  0  0  0  0  0  0  0  0
   -3.6382  -13.5731    1.7207 H   0  0  0  0  0  0  0  0  0  0  0  0
   -1.1482  -12.8687    0.6876 H   0  0  0  0  0  0  0  0  0  0  0  0
    0.2512  -13.0862   -0.4174 H   0  0  0  0  0  0  0  0  0  0  0  0
   -1.0878  -14.2836   -0.4174 H   0  0  0  0  0  0  0  0  0  0  0  0
   -0.8110  -18.2040    2.6180 H   0  0  0  0  0  0  0  0  0  0  0  0
    2.5470  -17.6075    2.2818 H   0  0  0  0  0  0  0  0  0  0  0  0
    4.0408  -17.9980    0.9021 H   0  0  0  0  0  0  0  0  0  0  0  0
    6.1223  -14.9719    1.8698 H   0  0  0  0  0  0  0  0  0  0  0  0
    6.7274  -12.2975    2.2867 H   0  0  0  0  0  0  0  0  0  0  0  0
    8.5309  -10.7588    1.0807 H   0  0  0  0  0  0  0  0  0  0  0  0
    8.0709  -14.2254   -1.3541 H   0  0  0  0  0  0  0  0  0  0  0  0
    4.0197  -13.4180   -1.3415 H   0  0  0  0  0  0  0  0  0  0  0  0
    5.5320  -14.3492   -1.6110 H   0  0  0  0  0  0  0  0  0  0  0  0
    3.9459  -15.1925   -1.6110 H   0  0  0  0  0  0  0  0  0  0  0  0
    4.2626  -13.5701    2.2119 H   0  0  0  0  0  0  0  0  0  0  0  0
    4.5355  -12.5140    0.7395 H   0  0  0  0  0  0  0  0  0  0  0  0
    2.1604  -12.7112    1.8380 H   0  0  0  0  0  0  0  0  0  0  0  0
    2.4188  -12.6905    0.0165 H   0  0  0  0  0  0  0  0  0  0  0  0
    1.6221  -14.7304   -0.2788 H   0  0  0  0  0  0  0  0  0  0  0  0
  1  2  1  0
  2  3  2  0
  3  4  1  0
  3  5  1  0
  5  6  2  0
  5  7  1  0
  7  8  1  0
  8  9  1  0
  9 10  1  0
  9 11  1  0
  9 12  1  0
 12 13  1  0
 13 14  1  0
 14 15  2  0
 14 16  1  0
 16 17  1  0
 12 18  1  0
 18 19  1  6
 18 20  1  0
 20 21  2  0
 20 22  1  0
 22 23  1  1
 22 24  1  0
 24 25  2  0
 25 26  1  0
 26 27  2  0
 27 28  1  0
 28 29  2  0
 28 30  1  0
 30 31  1  0
 31 32  1  0
 32 33  1  0
 33 34  2  0
 34 35  1  0
 35 36  1  0
 31 37  1  0
 37 38  1  6
 37 39  1  0
 39 40  1  0
 40 41  1  0
 22  8  1  0
 41 25  1  0
 41 18  1  0
 37 26  1  0
 36 32  2  0
  1 42  1  0
  1 43  1  0
  1 44  1  0
  2 45  1  0
  4 46  1  0
  4 47  1  0
  4 48  1  0
  8 49  1  1
 10 50  1  0
 10 51  1  0
 10 52  1  0
 11 53  1  0
 11 54  1  0
 11 55  1  0
 12 56  1  6
 13 57  1  0
 13 58  1  0
 17 59  1  0
 17 60  1  0
 17 61  1  0
 19 62  1  0
 19 63  1  0
 19 64  1  0
 23 65  1  0
 24 66  1  0
 27 67  1  0
 31 68  1  1
 33 69  1  0
 34 70  1  0
 36 71  1  0
 38 72  1  0
 38 73  1  0
 38 74  1  0
 39 75  1  0
 39 76  1  0
 40 77  1  0
 40 78  1  0
 41 79  1  6
M  END
>  <meeko>  (5) 
{"is_sidechain": [false], "free_energy": -7.553, "intermolecular_energy": -10.754, "internal_energy": -1.576}

$$$$
LIB_SRTLWTGAXHUNEM__M_PUB_ALL__e8__s20260927
     RDKit          3D

 79 83  0  0  0  0  0  0  0  0999 V2000
   13.0550   -9.7830    0.1910 C   0  0  0  0  0  0  0  0  0  0  0  0
   12.8670  -11.2250   -0.1570 C   0  0  0  0  0  0  0  0  0  0  0  0
   11.8880  -12.0560    0.2550 C   0  0  0  0  0  0  0  0  0  0  0  0
   10.7370  -11.6900    1.1430 C   0  0  0  0  0  0  0  0  0  0  0  0
   11.9530  -13.4640   -0.2490 C   0  0  0  0  0  0  0  0  0  0  0  0
   12.1760  -14.4440    0.4450 O   0  0  0  0  0  0  0  0  0  0  0  0
   11.7040  -13.4910   -1.5850 O   0  0  0  0  0  0  0  0  0  0  0  0
   10.6490  -14.3800   -2.0240 C   0  0  1  0  0  0  0  0  0  0  0  0
    9.6340  -13.5830   -2.9180 C   0  0  0  0  0  0  0  0  0  0  0  0
    8.9270  -12.5590   -1.9760 C   0  0  0  0  0  0  0  0  0  0  0  0
   10.3150  -12.6580   -3.9560 C   0  0  0  0  0  0  0  0  0  0  0  0
    8.6040  -14.5860   -3.6300 C   0  0  2  0  0  0  0  0  0  0  0  0
    7.4300  -14.9610   -2.6540 C   0  0  0  0  0  0  0  0  0  0  0  0
    6.1350  -14.2330   -2.9630 C   0  0  0  0  0  0  0  0  0  0  0  0
    5.3540  -13.8120   -2.1220 O   0  0  0  0  0  0  0  0  0  0  0  0
    5.9940  -14.0920   -4.3090 O   0  0  0  0  0  0  0  0  0  0  0  0
    5.0360  -14.9770   -4.8920 C   0  0  0  0  0  0  0  0  0  0  0  0
    9.2650  -15.9050   -4.2670 C   0  0  2  0  0  0  0  0  0  0  0  0
    8.1770  -16.9030   -4.7520 C   0  0  0  0  0  0  0  0  0  0  0  0
   10.0730  -16.5060   -3.1250 C   0  0  0  0  0  0  0  0  0  0  0  0
    9.7550  -17.5400   -2.5380 O   0  0  0  0  0  0  0  0  0  0  0  0
   11.2580  -15.6400   -2.6820 C   0  0  2  0  0  0  0  0  0  0  0  0
   12.0790  -16.3570   -1.7650 O   0  0  0  0  0  0  0  0  0  0  0  0
   12.1340  -15.3650   -3.8670 C   0  0  0  0  0  0  0  0  0  0  0  0
   11.7340  -15.4570   -5.1490 C   0  0  0  0  0  0  0  0  0  0  0  0
   12.6560  -15.3030   -6.2870 C   0  0  0  0  0  0  0  0  0  0  0  0
   13.9870  -15.4780   -6.1770 C   0  0  0  0  0  0  0  0  0  0  0  0
   14.9090  -15.3210   -7.3150 C   0  0  0  0  0  0  0  0  0  0  0  0
   16.0630  -15.7190   -7.2400 O   0  0  0  0  0  0  0  0  0  0  0  0
   14.4140  -14.7320   -8.4260 O   0  0  0  0  0  0  0  0  0  0  0  0
   13.1500  -14.0370   -8.3460 C   0  0  1  0  0  0  0  0  0  0  0  0
   12.7710  -13.5290   -9.7110 C   0  0  0  0  0  0  0  0  0  0  0  0
   13.0580  -14.1340  -10.9700 C   0  0  0  0  0  0  0  0  0  0  0  0
   12.5100  -13.3190  -11.9330 C   0  0  0  0  0  0  0  0  0  0  0  0
   11.8940  -12.2590  -11.3570 O   0  0  0  0  0  0  0  0  0  0  0  0
   12.0400  -12.3960  -10.0150 C   0  0  0  0  0  0  0  0  0  0  0  0
   12.0760  -14.9400   -7.6580 C   0  0  1  0  0  0  0  0  0  0  0  0
   11.8280  -16.2320   -8.4760 C   0  0  0  0  0  0  0  0  0  0  0  0
   10.7570  -14.1630   -7.4770 C   0  0  0  0  0  0  0  0  0  0  0  0
    9.7090  -14.8930   -6.6330 C   0  0  0  0  0  0  0  0  0  0  0  0
   10.2760  -15.7540   -5.4820 C   0  0  2  0  0  0  0  0  0  0  0  0
   13.0699   -9.6687    1.2849 H   0  0  0  0  0  0  0  0  0  0  0  0
   14.0073   -9.4258   -0.2280 H   0  0  0  0  0  0  0  0  0  0  0  0
   12.2261   -9.1936   -0.2280 H   0  0  0  0  0  0  0  0  0  0  0  0
   13.6188  -11.6611   -0.8312 H   0  0  0  0  0  0  0  0  0  0  0  0
   11.0409  -11.7866    2.1958 H   0  0  0  0  0  0  0  0  0  0  0  0
   10.4349  -10.6515    0.9424 H   0  0  0  0  0  0  0  0  0  0  0  0
    9.8906  -12.3633    0.9424 H   0  0  0  0  0  0  0  0  0  0  0  0
   10.0633  -14.7577   -1.1729 H   0  0  0  0  0  0  0  0  0  0  0  0
    9.1166  -12.8335   -0.9278 H   0  0  0  0  0  0  0  0  0  0  0  0
    9.3222  -11.5506   -2.1681 H   0  0  0  0  0  0  0  0  0  0  0  0
    7.8440  -12.5712   -2.1681 H   0  0  0  0  0  0  0  0  0  0  0  0
   10.8885  -11.8790   -3.4324 H   0  0  0  0  0  0  0  0  0  0  0  0
   10.9934  -13.2514   -4.5866 H   0  0  0  0  0  0  0  0  0  0  0  0
    9.5469  -12.1864   -4.5866 H   0  0  0  0  0  0  0  0  0  0  0  0
    8.2090  -14.0267   -4.4909 H   0  0  0  0  0  0  0  0  0  0  0  0
    7.2478  -16.0433   -2.7271 H   0  0  0  0  0  0  0  0  0  0  0  0
    7.7392  -14.6594   -1.6424 H   0  0  0  0  0  0  0  0  0  0  0  0
    4.4792  -15.4913   -4.0948 H   0  0  0  0  0  0  0  0  0  0  0  0
    4.3361  -14.4008   -5.5150 H   0  0  0  0  0  0  0  0  0  0  0  0
    5.5550  -15.7203   -5.5150 H   0  0  0  0  0  0  0  0  0  0  0  0
    7.6818  -17.3573   -3.8811 H   0  0  0  0  0  0  0  0  0  0  0  0
    7.4324  -16.3672   -5.3591 H   0  0  0  0  0  0  0  0  0  0  0  0
    8.6467  -17.6910   -5.3591 H   0  0  0  0  0  0  0  0  0  0  0  0
   11.6150  -16.3650   -0.9060 H   0  0  0  0  0  0  0  0  0  0  0  0
   13.1756  -15.0675   -3.6757 H   0  0  0  0  0  0  0  0  0  0  0  0
   14.4031  -15.7497   -5.1957 H   0  0  0  0  0  0  0  0  0  0  0  0
   13.2290  -13.1482   -7.7027 H   0  0  0  0  0  0  0  0  0  0  0  0
   13.6102  -15.0703  -11.1383 H   0  0  0  0  0  0  0  0  0  0  0  0
   12.5642  -13.5019  -13.0163 H   0  0  0  0  0  0  0  0  0  0  0  0
   11.6313  -11.6987   -9.2688 H   0  0  0  0  0  0  0  0  0  0  0  0
   11.6661  -17.0756   -7.7889 H   0  0  0  0  0  0  0  0  0  0  0  0
   10.9389  -16.0996   -9.1100 H   0  0  0  0  0  0  0  0  0  0  0  0
   12.7030  -16.4382   -9.1100 H   0  0  0  0  0  0  0  0  0  0  0  0
   10.9858  -13.2040   -6.9891 H   0  0  0  0  0  0  0  0  0  0  0  0
   10.3236  -14.0382   -8.4803 H   0  0  0  0  0  0  0  0  0  0  0  0
    9.0385  -14.1386   -6.1955 H   0  0  0  0  0  0  0  0  0  0  0  0
    9.1997  -15.5905   -7.3143 H   0  0  0  0  0  0  0  0  0  0  0  0
   10.3505  -16.7855   -5.8568 H   0  0  0  0  0  0  0  0  0  0  0  0
  1  2  1  0
  2  3  2  0
  3  4  1  0
  3  5  1  0
  5  6  2  0
  5  7  1  0
  7  8  1  0
  8  9  1  0
  9 10  1  0
  9 11  1  0
  9 12  1  0
 12 13  1  0
 13 14  1  0
 14 15  2  0
 14 16  1  0
 16 17  1  0
 12 18  1  0
 18 19  1  6
 18 20  1  0
 20 21  2  0
 20 22  1  0
 22 23  1  1
 22 24  1  0
 24 25  2  0
 25 26  1  0
 26 27  2  0
 27 28  1  0
 28 29  2  0
 28 30  1  0
 30 31  1  0
 31 32  1  0
 32 33  1  0
 33 34  2  0
 34 35  1  0
 35 36  1  0
 31 37  1  0
 37 38  1  6
 37 39  1  0
 39 40  1  0
 40 41  1  0
 22  8  1  0
 41 25  1  0
 41 18  1  0
 37 26  1  0
 36 32  2  0
  1 42  1  0
  1 43  1  0
  1 44  1  0
  2 45  1  0
  4 46  1  0
  4 47  1  0
  4 48  1  0
  8 49  1  1
 10 50  1  0
 10 51  1  0
 10 52  1  0
 11 53  1  0
 11 54  1  0
 11 55  1  0
 12 56  1  6
 13 57  1  0
 13 58  1  0
 17 59  1  0
 17 60  1  0
 17 61  1  0
 19 62  1  0
 19 63  1  0
 19 64  1  0
 23 65  1  0
 24 66  1  0
 27 67  1  0
 31 68  1  1
 33 69  1  0
 34 70  1  0
 36 71  1  0
 38 72  1  0
 38 73  1  0
 38 74  1  0
 39 75  1  0
 39 76  1  0
 40 77  1  0
 40 78  1  0
 41 79  1  6
M  END
>  <meeko>  (6) 
{"is_sidechain": [false], "free_energy": -7.252, "intermolecular_energy": -10.424, "internal_energy": -1.473}

$$$$
LIB_SRTLWTGAXHUNEM__M_PUB_ALL__e8__s20260927
     RDKit          3D

 79 83  0  0  0  0  0  0  0  0999 V2000
   -0.2510  -17.4310    0.9520 C   0  0  0  0  0  0  0  0  0  0  0  0
    0.3270  -16.5230   -0.0850 C   0  0  0  0  0  0  0  0  0  0  0  0
    1.4790  -16.6740   -0.7700 C   0  0  0  0  0  0  0  0  0  0  0  0
    2.4280  -17.8290   -0.6530 C   0  0  0  0  0  0  0  0  0  0  0  0
    1.8180  -15.5950   -1.7510 C   0  0  0  0  0  0  0  0  0  0  0  0
    1.0180  -14.7980   -2.2160 O   0  0  0  0  0  0  0  0  0  0  0  0
    3.1480  -15.6200   -2.0270 O   0  0  0  0  0  0  0  0  0  0  0  0
    3.8490  -14.3570   -1.9290 C   0  0  1  0  0  0  0  0  0  0  0  0
    5.0720  -14.5120   -0.9580 C   0  0  0  0  0  0  0  0  0  0  0  0
    4.4770  -14.7500    0.4660 C   0  0  0  0  0  0  0  0  0  0  0  0
    5.8890  -15.8060   -1.1920 C   0  0  0  0  0  0  0  0  0  0  0  0
    6.0140  -13.2170   -1.0280 C   0  0  2  0  0  0  0  0  0  0  0  0
    5.4500  -12.0700   -0.1140 C   0  0  0  0  0  0  0  0  0  0  0  0
    6.4210  -11.6280    0.9650 C   0  0  0  0  0  0  0  0  0  0  0  0
    6.2630  -10.6560    1.6910 O   0  0  0  0  0  0  0  0  0  0  0  0
    7.4710  -12.4910    1.0250 O   0  0  0  0  0  0  0  0  0  0  0  0
    8.7500  -11.8610    0.9400 C   0  0  0  0  0  0  0  0  0  0  0  0
    6.3180  -12.6730   -2.5100 C   0  0  2  0  0  0  0  0  0  0  0  0
    7.0660  -11.3110   -2.4690 C   0  0  0  0  0  0  0  0  0  0  0  0
    4.9410  -12.5090   -3.1370 C   0  0  0  0  0  0  0  0  0  0  0  0
    4.4240  -11.4160   -3.3690 O   0  0  0  0  0  0  0  0  0  0  0  0
    4.1940  -13.8320   -3.3430 C   0  0  2  0  0  0  0  0  0  0  0  0
    3.0160  -13.6200   -4.1170 O   0  0  0  0  0  0  0  0  0  0  0  0
    5.0450  -14.7540   -4.1620 C   0  0  0  0  0  0  0  0  0  0  0  0
    6.3790  -14.6390   -4.3010 C   0  0  0  0  0  0  0  0  0  0  0  0
    7.1640  -15.4860   -5.2140 C   0  0  0  0  0  0  0  0  0  0  0  0
    6.6180  -16.1290   -6.2640 C   0  0  0  0  0  0  0  0  0  0  0  0
    7.4030  -16.9780   -7.1760 C   0  0  0  0  0  0  0  0  0  0  0  0
    6.9330  -17.3450   -8.2440 O   0  0  0  0  0  0  0  0  0  0  0  0
    8.6490  -17.3150   -6.7770 O   0  0  0  0  0  0  0  0  0  0  0  0
    9.0270  -17.0930   -5.4000 C   0  0  1  0  0  0  0  0  0  0  0  0
   10.4700  -17.4740   -5.2100 C   0  0  0  0  0  0  0  0  0  0  0  0
   11.0540  -18.1150   -4.0770 C   0  0  0  0  0  0  0  0  0  0  0  0
   12.3910  -18.2680   -4.3560 C   0  0  0  0  0  0  0  0  0  0  0  0
   12.6740  -17.7780   -5.5880 O   0  0  0  0  0  0  0  0  0  0  0  0
   11.5100  -17.3130   -6.1060 C   0  0  0  0  0  0  0  0  0  0  0  0
    8.6690  -15.6340   -4.9680 C   0  0  1  0  0  0  0  0  0  0  0  0
    9.4400  -14.5950   -5.8200 C   0  0  0  0  0  0  0  0  0  0  0  0
    8.9750  -15.4270   -3.4710 C   0  0  0  0  0  0  0  0  0  0  0  0
    8.4720  -14.0970   -2.9050 C   0  0  0  0  0  0  0  0  0  0  0  0
    7.1470  -13.5830   -3.5130 C   0  0  2  0  0  0  0  0  0  0  0  0
   -0.0064  -17.0467    1.9533 H   0  0  0  0  0  0  0  0  0  0  0  0
   -1.3437  -17.4750    0.8330 H   0  0  0  0  0  0  0  0  0  0  0  0
    0.1717  -18.4396    0.8330 H   0  0  0  0  0  0  0  0  0  0  0  0
   -0.2587  -15.6215   -0.3180 H   0  0  0  0  0  0  0  0  0  0  0  0
    2.6087  -18.0489    0.4095 H   0  0  0  0  0  0  0  0  0  0  0  0
    1.9918  -18.7129   -1.1414 H   0  0  0  0  0  0  0  0  0  0  0  0
    3.3797  -17.5725   -1.1414 H   0  0  0  0  0  0  0  0  0  0  0  0
    3.2115  -13.5796   -1.4826 H   0  0  0  0  0  0  0  0  0  0  0  0
    5.2154  -14.4546    1.2260 H   0  0  0  0  0  0  0  0  0  0  0  0
    3.5647  -14.1476    0.5876 H   0  0  0  0  0  0  0  0  0  0  0  0
    4.2318  -15.8154    0.5876 H   0  0  0  0  0  0  0  0  0  0  0  0
    6.1662  -16.2450   -0.2222 H   0  0  0  0  0  0  0  0  0  0  0  0
    5.2812  -16.5257   -1.7600 H   0  0  0  0  0  0  0  0  0  0  0  0
    6.8001  -15.5667   -1.7600 H   0  0  0  0  0  0  0  0  0  0  0  0
    6.9896  -13.5524   -0.6462 H   0  0  0  0  0  0  0  0  0  0  0  0
    5.2146  -11.2025   -0.7481 H   0  0  0  0  0  0  0  0  0  0  0  0
    4.5587  -12.4674    0.3936 H   0  0  0  0  0  0  0  0  0  0  0  0
    9.1337  -11.6720    1.9534 H   0  0  0  0  0  0  0  0  0  0  0  0
    9.4475  -12.5186    0.4006 H   0  0  0  0  0  0  0  0  0  0  0  0
    8.6538  -10.9072    0.4006 H   0  0  0  0  0  0  0  0  0  0  0  0
    7.2293  -11.0137   -1.4226 H   0  0  0  0  0  0  0  0  0  0  0  0
    8.0363  -11.4101   -2.9777 H   0  0  0  0  0  0  0  0  0  0  0  0
    6.4618  -10.5454   -2.9777 H   0  0  0  0  0  0  0  0  0  0  0  0
    3.2850  -13.6160   -5.0560 H   0  0  0  0  0  0  0  0  0  0  0  0
    4.5451  -15.5821   -4.6859 H   0  0  0  0  0  0  0  0  0  0  0  0
    5.5395  -16.0151   -6.4482 H   0  0  0  0  0  0  0  0  0  0  0  0
    8.4506  -17.7407   -4.7231 H   0  0  0  0  0  0  0  0  0  0  0  0
   10.5349  -18.4263   -3.1585 H   0  0  0  0  0  0  0  0  0  0  0  0
   13.1266  -18.7232   -3.6765 H   0  0  0  0  0  0  0  0  0  0  0  0
   11.4073  -16.8670   -7.1063 H   0  0  0  0  0  0  0  0  0  0  0  0
    9.9624  -13.8910   -5.1555 H   0  0  0  0  0  0  0  0  0  0  0  0
   10.1738  -15.1133   -6.4547 H   0  0  0  0  0  0  0  0  0  0  0  0
    8.7313  -14.0429   -6.4547 H   0  0  0  0  0  0  0  0  0  0  0  0
    8.5012  -16.2433   -2.9061 H   0  0  0  0  0  0  0  0  0  0  0  0
   10.0704  -15.4186   -3.3709 H   0  0  0  0  0  0  0  0  0  0  0  0
    8.3238  -14.2221   -1.8222 H   0  0  0  0  0  0  0  0  0  0  0  0
    9.2361  -13.3479   -3.1598 H   0  0  0  0  0  0  0  0  0  0  0  0
    7.4115  -12.8736   -4.3110 H   0  0  0  0  0  0  0  0  0  0  0  0
  1  2  1  0
  2  3  2  0
  3  4  1  0
  3  5  1  0
  5  6  2  0
  5  7  1  0
  7  8  1  0
  8  9  1  0
  9 10  1  0
  9 11  1  0
  9 12  1  0
 12 13  1  0
 13 14  1  0
 14 15  2  0
 14 16  1  0
 16 17  1  0
 12 18  1  0
 18 19  1  1
 18 20  1  0
 20 21  2  0
 20 22  1  0
 22 23  1  6
 22 24  1  0
 24 25  2  0
 25 26  1  0
 26 27  2  0
 27 28  1  0
 28 29  2  0
 28 30  1  0
 30 31  1  0
 31 32  1  0
 32 33  1  0
 33 34  2  0
 34 35  1  0
 35 36  1  0
 31 37  1  0
 37 38  1  6
 37 39  1  0
 39 40  1  0
 40 41  1  0
 22  8  1  0
 41 25  1  0
 41 18  1  0
 37 26  1  0
 36 32  2  0
  1 42  1  0
  1 43  1  0
  1 44  1  0
  2 45  1  0
  4 46  1  0
  4 47  1  0
  4 48  1  0
  8 49  1  1
 10 50  1  0
 10 51  1  0
 10 52  1  0
 11 53  1  0
 11 54  1  0
 11 55  1  0
 12 56  1  1
 13 57  1  0
 13 58  1  0
 17 59  1  0
 17 60  1  0
 17 61  1  0
 19 62  1  0
 19 63  1  0
 19 64  1  0
 23 65  1  0
 24 66  1  0
 27 67  1  0
 31 68  1  1
 33 69  1  0
 34 70  1  0
 36 71  1  0
 38 72  1  0
 38 73  1  0
 38 74  1  0
 39 75  1  0
 39 76  1  0
 40 77  1  0
 40 78  1  0
 41 79  1  6
M  END
>  <meeko>  (7) 
{"is_sidechain": [false], "free_energy": -7.249, "intermolecular_energy": -10.248, "internal_energy": -1.644}

$$$$
LIB_SRTLWTGAXHUNEM__M_PUB_ALL__e8__s20260927
     RDKit          3D

 79 83  0  0  0  0  0  0  0  0999 V2000
    6.7380  -12.8880  -11.0490 C   0  0  0  0  0  0  0  0  0  0  0  0
    6.7760  -14.0710  -10.1360 C   0  0  0  0  0  0  0  0  0  0  0  0
    7.8550  -14.7710   -9.7300 C   0  0  0  0  0  0  0  0  0  0  0  0
    9.2800  -14.4820  -10.0950 C   0  0  0  0  0  0  0  0  0  0  0  0
    7.5950  -15.9250   -8.8130 C   0  0  0  0  0  0  0  0  0  0  0  0
    7.3820  -17.0720   -9.1770 O   0  0  0  0  0  0  0  0  0  0  0  0
    7.6550  -15.5130   -7.5200 O   0  0  0  0  0  0  0  0  0  0  0  0
    8.1800  -16.4660   -6.5650 C   0  0  1  0  0  0  0  0  0  0  0  0
    9.3550  -15.8070   -5.7600 C   0  0  0  0  0  0  0  0  0  0  0  0
   10.5170  -15.5830   -6.7800 C   0  0  0  0  0  0  0  0  0  0  0  0
    9.0510  -14.3640   -5.2880 C   0  0  0  0  0  0  0  0  0  0  0  0
    9.7840  -16.7370   -4.5260 C   0  0  2  0  0  0  0  0  0  0  0  0
   10.7620  -17.8720   -5.0000 C   0  0  0  0  0  0  0  0  0  0  0  0
   12.1620  -17.7360   -4.4310 C   0  0  0  0  0  0  0  0  0  0  0  0
   13.0580  -18.5560   -4.5790 O   0  0  0  0  0  0  0  0  0  0  0  0
   12.2780  -16.5560   -3.7640 O   0  0  0  0  0  0  0  0  0  0  0  0
   13.3660  -15.7410   -4.2040 C   0  0  0  0  0  0  0  0  0  0  0  0
    8.5640  -17.3480   -3.6760 C   0  0  2  0  0  0  0  0  0  0  0  0
    9.0670  -18.3860   -2.6350 C   0  0  0  0  0  0  0  0  0  0  0  0
    7.6810  -18.0180   -4.7190 C   0  0  0  0  0  0  0  0  0  0  0  0
    7.5720  -19.2390   -4.8340 O   0  0  0  0  0  0  0  0  0  0  0  0
    7.0310  -17.0380   -5.7010 C   0  0  2  0  0  0  0  0  0  0  0  0
    6.0660  -17.7100   -6.5050 O   0  0  0  0  0  0  0  0  0  0  0  0
    6.2580  -16.0100   -4.9300 C   0  0  0  0  0  0  0  0  0  0  0  0
    6.4640  -15.7170   -3.6330 C   0  0  0  0  0  0  0  0  0  0  0  0
    5.6020  -14.7940   -2.8760 C   0  0  0  0  0  0  0  0  0  0  0  0
    4.3410  -14.5000   -3.2490 C   0  0  0  0  0  0  0  0  0  0  0  0
    3.4800  -13.5750   -2.4930 C   0  0  0  0  0  0  0  0  0  0  0  0
    2.2790  -13.5190   -2.7180 O   0  0  0  0  0  0  0  0  0  0  0  0
    4.0800  -12.8130   -1.5520 O   0  0  0  0  0  0  0  0  0  0  0  0
    5.5210  -12.7210   -1.5400 C   0  0  1  0  0  0  0  0  0  0  0  0
    5.9600  -11.8830   -0.3700 C   0  0  0  0  0  0  0  0  0  0  0  0
    6.9620  -10.8680   -0.3580 C   0  0  0  0  0  0  0  0  0  0  0  0
    7.0080  -10.3740    0.9240 C   0  0  0  0  0  0  0  0  0  0  0  0
    6.0970  -11.0040    1.7040 O   0  0  0  0  0  0  0  0  0  0  0  0
    5.4560  -11.9040    0.9170 C   0  0  0  0  0  0  0  0  0  0  0  0
    6.1570  -14.1480   -1.6020 C   0  0  1  0  0  0  0  0  0  0  0  0
    5.7490  -14.9940   -0.3700 C   0  0  0  0  0  0  0  0  0  0  0  0
    7.6920  -14.0490   -1.6950 C   0  0  0  0  0  0  0  0  0  0  0  0
    8.3930  -15.3830   -1.9640 C   0  0  0  0  0  0  0  0  0  0  0  0
    7.6140  -16.3630   -2.8700 C   0  0  2  0  0  0  0  0  0  0  0  0
    6.7083  -11.9647  -10.4518 H   0  0  0  0  0  0  0  0  0  0  0  0
    7.6365  -12.8855  -11.6835 H   0  0  0  0  0  0  0  0  0  0  0  0
    5.8412  -12.9432  -11.6835 H   0  0  0  0  0  0  0  0  0  0  0  0
    5.8051  -14.4124   -9.7477 H   0  0  0  0  0  0  0  0  0  0  0  0
    9.8760  -14.3611   -9.1784 H   0  0  0  0  0  0  0  0  0  0  0  0
    9.6833  -15.3166  -10.6872 H   0  0  0  0  0  0  0  0  0  0  0  0
    9.3263  -13.5562  -10.6872 H   0  0  0  0  0  0  0  0  0  0  0  0
    8.6189  -17.3381   -7.0718 H   0  0  0  0  0  0  0  0  0  0  0  0
   11.4546  -15.4023   -6.2338 H   0  0  0  0  0  0  0  0  0  0  0  0
   10.6273  -16.4764   -7.4122 H   0  0  0  0  0  0  0  0  0  0  0  0
   10.2873  -14.7126   -7.4122 H   0  0  0  0  0  0  0  0  0  0  0  0
    9.0442  -14.3316   -4.1885 H   0  0  0  0  0  0  0  0  0  0  0  0
    9.8253  -13.6825   -5.6701 H   0  0  0  0  0  0  0  0  0  0  0  0
    8.0676  -14.0528   -5.6701 H   0  0  0  0  0  0  0  0  0  0  0  0
   10.3041  -16.0646   -3.8279 H   0  0  0  0  0  0  0  0  0  0  0  0
   10.3499  -18.8419   -4.6846 H   0  0  0  0  0  0  0  0  0  0  0  0
   10.8464  -17.7927   -6.0939 H   0  0  0  0  0  0  0  0  0  0  0  0
   13.9008  -15.3404   -3.3302 H   0  0  0  0  0  0  0  0  0  0  0  0
   14.0559  -16.3464   -4.8103 H   0  0  0  0  0  0  0  0  0  0  0  0
   12.9789  -14.9088   -4.8103 H   0  0  0  0  0  0  0  0  0  0  0  0
    8.8827  -18.0057   -1.6194 H   0  0  0  0  0  0  0  0  0  0  0  0
    8.5290  -19.3353   -2.7743 H   0  0  0  0  0  0  0  0  0  0  0  0
   10.1455  -18.5519   -2.7743 H   0  0  0  0  0  0  0  0  0  0  0  0
    6.5110  -17.9740   -7.3330 H   0  0  0  0  0  0  0  0  0  0  0  0
    5.4687  -15.4577   -5.4610 H   0  0  0  0  0  0  0  0  0  0  0  0
    3.9374  -14.9712   -4.1573 H   0  0  0  0  0  0  0  0  0  0  0  0
    5.8897  -12.2045   -2.4385 H   0  0  0  0  0  0  0  0  0  0  0  0
    7.5783  -10.5435   -1.2094 H   0  0  0  0  0  0  0  0  0  0  0  0
    7.6877   -9.5803    1.2676 H   0  0  0  0  0  0  0  0  0  0  0  0
    4.6435  -12.5627    1.2576 H   0  0  0  0  0  0  0  0  0  0  0  0
    6.0107  -14.4514    0.5504 H   0  0  0  0  0  0  0  0  0  0  0  0
    4.6643  -15.1755   -0.3928 H   0  0  0  0  0  0  0  0  0  0  0  0
    6.2823  -15.9558   -0.3928 H   0  0  0  0  0  0  0  0  0  0  0  0
    7.9439  -13.3564   -2.5116 H   0  0  0  0  0  0  0  0  0  0  0  0
    8.0456  -13.6990   -0.7140 H   0  0  0  0  0  0  0  0  0  0  0  0
    9.3590  -15.1693   -2.4448 H   0  0  0  0  0  0  0  0  0  0  0  0
    8.4896  -15.8802   -0.9875 H   0  0  0  0  0  0  0  0  0  0  0  0
    7.0681  -17.0507   -2.2074 H   0  0  0  0  0  0  0  0  0  0  0  0
  1  2  1  0
  2  3  2  0
  3  4  1  0
  3  5  1  0
  5  6  2  0
  5  7  1  0
  7  8  1  0
  8  9  1  0
  9 10  1  0
  9 11  1  0
  9 12  1  0
 12 13  1  0
 13 14  1  0
 14 15  2  0
 14 16  1  0
 16 17  1  0
 12 18  1  0
 18 19  1  1
 18 20  1  0
 20 21  2  0
 20 22  1  0
 22 23  1  6
 22 24  1  0
 24 25  2  0
 25 26  1  0
 26 27  2  0
 27 28  1  0
 28 29  2  0
 28 30  1  0
 30 31  1  0
 31 32  1  0
 32 33  1  0
 33 34  2  0
 34 35  1  0
 35 36  1  0
 31 37  1  0
 37 38  1  1
 37 39  1  0
 39 40  1  0
 40 41  1  0
 22  8  1  0
 41 25  1  0
 41 18  1  0
 37 26  1  0
 36 32  2  0
  1 42  1  0
  1 43  1  0
  1 44  1  0
  2 45  1  0
  4 46  1  0
  4 47  1  0
  4 48  1  0
  8 49  1  6
 10 50  1  0
 10 51  1  0
 10 52  1  0
 11 53  1  0
 11 54  1  0
 11 55  1  0
 12 56  1  1
 13 57  1  0
 13 58  1  0
 17 59  1  0
 17 60  1  0
 17 61  1  0
 19 62  1  0
 19 63  1  0
 19 64  1  0
 23 65  1  0
 24 66  1  0
 27 67  1  0
 31 68  1  6
 33 69  1  0
 34 70  1  0
 36 71  1  0
 38 72  1  0
 38 73  1  0
 38 74  1  0
 39 75  1  0
 39 76  1  0
 40 77  1  0
 40 78  1  0
 41 79  1  1
M  END
>  <meeko>  (8) 
{"is_sidechain": [false], "free_energy": -7.2, "intermolecular_energy": -10.296, "internal_energy": -1.526}

$$$$
LIB_SRTLWTGAXHUNEM__M_PUB_ALL__e8__s20260927
     RDKit          3D

 79 83  0  0  0  0  0  0  0  0999 V2000
    4.7010  -12.8510   -7.1240 C   0  0  0  0  0  0  0  0  0  0  0  0
    4.7410  -12.1150   -5.8240 C   0  0  0  0  0  0  0  0  0  0  0  0
    3.7210  -11.8750   -4.9740 C   0  0  0  0  0  0  0  0  0  0  0  0
    2.3050  -12.3360   -5.1460 C   0  0  0  0  0  0  0  0  0  0  0  0
    4.0510  -11.0980   -3.7380 C   0  0  0  0  0  0  0  0  0  0  0  0
    3.3090  -10.2880   -3.2040 O   0  0  0  0  0  0  0  0  0  0  0  0
    5.2850  -11.4450   -3.2880 O   0  0  0  0  0  0  0  0  0  0  0  0
    5.3660  -11.8860   -1.9110 C   0  0  1  0  0  0  0  0  0  0  0  0
    5.1850  -13.4430   -1.8490 C   0  0  0  0  0  0  0  0  0  0  0  0
    3.7100  -13.7320   -2.2740 C   0  0  0  0  0  0  0  0  0  0  0  0
    5.9920  -14.2050   -2.9280 C   0  0  0  0  0  0  0  0  0  0  0  0
    5.5260  -13.9920   -0.3810 C   0  0  2  0  0  0  0  0  0  0  0  0
    4.2910  -13.8230    0.5760 C   0  0  0  0  0  0  0  0  0  0  0  0
    3.7550  -15.1400    1.1060 C   0  0  0  0  0  0  0  0  0  0  0  0
    4.3210  -16.2190    0.9940 O   0  0  0  0  0  0  0  0  0  0  0  0
    2.5740  -14.9340    1.7500 O   0  0  0  0  0  0  0  0  0  0  0  0
    1.7500  -13.9330    1.1510 C   0  0  0  0  0  0  0  0  0  0  0  0
    6.8560  -13.3810    0.2830 C   0  0  2  0  0  0  0  0  0  0  0  0
    6.9950  -13.8160    1.7690 C   0  0  0  0  0  0  0  0  0  0  0  0
    6.6660  -11.8750    0.1810 C   0  0  0  0  0  0  0  0  0  0  0  0
    6.4360  -11.1510    1.1500 O   0  0  0  0  0  0  0  0  0  0  0  0
    6.6620  -11.3480   -1.2580 C   0  0  2  0  0  0  0  0  0  0  0  0
    6.6910   -9.9240   -1.2650 O   0  0  0  0  0  0  0  0  0  0  0  0
    7.9280  -11.7730   -1.9400 C   0  0  0  0  0  0  0  0  0  0  0  0
    8.7040  -12.7970   -1.5380 C   0  0  0  0  0  0  0  0  0  0  0  0
   10.0040  -13.1050   -2.1570 C   0  0  0  0  0  0  0  0  0  0  0  0
   10.7160  -12.1960   -2.8500 C   0  0  0  0  0  0  0  0  0  0  0  0
   12.0160  -12.5050   -3.4700 C   0  0  0  0  0  0  0  0  0  0  0  0
   12.7400  -11.6070   -3.8780 O   0  0  0  0  0  0  0  0  0  0  0  0
   12.3580  -13.8100   -3.5540 O   0  0  0  0  0  0  0  0  0  0  0  0
   11.3470  -14.8150   -3.3220 C   0  0  1  0  0  0  0  0  0  0  0  0
   11.9740  -16.1810   -3.3970 C   0  0  0  0  0  0  0  0  0  0  0  0
   13.2950  -16.5510   -3.0080 C   0  0  0  0  0  0  0  0  0  0  0  0
   13.4150  -17.8980   -3.2500 C   0  0  0  0  0  0  0  0  0  0  0  0
   12.2570  -18.3920   -3.7510 O   0  0  0  0  0  0  0  0  0  0  0  0
   11.3840  -17.3560   -3.8250 C   0  0  0  0  0  0  0  0  0  0  0  0
   10.5790  -14.5160   -1.9940 C   0  0  1  0  0  0  0  0  0  0  0  0
   11.5360  -14.5500   -0.7760 C   0  0  0  0  0  0  0  0  0  0  0  0
    9.4320  -15.5260   -1.7980 C   0  0  0  0  0  0  0  0  0  0  0  0
    8.4960  -15.1960   -0.6320 C   0  0  0  0  0  0  0  0  0  0  0  0
    8.2650  -13.6890   -0.3830 C   0  0  2  0  0  0  0  0  0  0  0  0
    4.6422  -13.9324   -6.9314 H   0  0  0  0  0  0  0  0  0  0  0  0
    3.8188  -12.5324   -7.6987 H   0  0  0  0  0  0  0  0  0  0  0  0
    5.6125  -12.6299   -7.6987 H   0  0  0  0  0  0  0  0  0  0  0  0
    5.7227  -11.7204   -5.5231 H   0  0  0  0  0  0  0  0  0  0  0  0
    1.8455  -12.4856   -4.1578 H   0  0  0  0  0  0  0  0  0  0  0  0
    1.7372  -11.5763   -5.7032 H   0  0  0  0  0  0  0  0  0  0  0  0
    2.2933  -13.2844   -5.7032 H   0  0  0  0  0  0  0  0  0  0  0  0
    4.5464  -11.4671   -1.3087 H   0  0  0  0  0  0  0  0  0  0  0  0
    3.0868  -13.8541   -1.3758 H   0  0  0  0  0  0  0  0  0  0  0  0
    3.3295  -12.8913   -2.8727 H   0  0  0  0  0  0  0  0  0  0  0  0
    3.6749  -14.6541   -2.8727 H   0  0  0  0  0  0  0  0  0  0  0  0
    6.7088  -14.8818   -2.4400 H   0  0  0  0  0  0  0  0  0  0  0  0
    5.3037  -14.7904   -3.5554 H   0  0  0  0  0  0  0  0  0  0  0  0
    6.5370  -13.4843   -3.5554 H   0  0  0  0  0  0  0  0  0  0  0  0
    5.7462  -15.0609   -0.5186 H   0  0  0  0  0  0  0  0  0  0  0  0
    4.5947  -13.2008    1.4308 H   0  0  0  0  0  0  0  0  0  0  0  0
    3.4860  -13.3575   -0.0116 H   0  0  0  0  0  0  0  0  0  0  0  0
    1.2620  -13.3402    1.9387 H   0  0  0  0  0  0  0  0  0  0  0  0
    2.3701  -13.2731    0.5265 H   0  0  0  0  0  0  0  0  0  0  0  0
    0.9832  -14.4147    0.5265 H   0  0  0  0  0  0  0  0  0  0  0  0
    6.7260  -12.9743    2.4241 H   0  0  0  0  0  0  0  0  0  0  0  0
    6.3231  -14.6641    1.9672 H   0  0  0  0  0  0  0  0  0  0  0  0
    8.0342  -14.1174    1.9672 H   0  0  0  0  0  0  0  0  0  0  0  0
    7.5820   -9.6510   -0.9690 H   0  0  0  0  0  0  0  0  0  0  0  0
    8.2444  -11.2093   -2.8300 H   0  0  0  0  0  0  0  0  0  0  0  0
   10.3095  -11.1795   -2.9577 H   0  0  0  0  0  0  0  0  0  0  0  0
   10.5780  -14.7897   -4.1081 H   0  0  0  0  0  0  0  0  0  0  0  0
   14.0681  -15.8867   -2.5944 H   0  0  0  0  0  0  0  0  0  0  0  0
   14.3223  -18.4913   -3.0635 H   0  0  0  0  0  0  0  0  0  0  0  0
   10.3456  -17.4397   -4.1783 H   0  0  0  0  0  0  0  0  0  0  0  0
   10.9477  -14.5291    0.1532 H   0  0  0  0  0  0  0  0  0  0  0  0
   12.1380  -15.4701   -0.8082 H   0  0  0  0  0  0  0  0  0  0  0  0
   12.2018  -13.6749   -0.8082 H   0  0  0  0  0  0  0  0  0  0  0  0
    8.8354  -15.5537   -2.7218 H   0  0  0  0  0  0  0  0  0  0  0  0
    9.9000  -16.4933   -1.5630 H   0  0  0  0  0  0  0  0  0  0  0  0
    7.5203  -15.6611   -0.8362 H   0  0  0  0  0  0  0  0  0  0  0  0
    8.9858  -15.5844    0.2732 H   0  0  0  0  0  0  0  0  0  0  0  0
    8.9709  -13.3806    0.4022 H   0  0  0  0  0  0  0  0  0  0  0  0
  1  2  1  0
  2  3  2  0
  3  4  1  0
  3  5  1  0
  5  6  2  0
  5  7  1  0
  7  8  1  0
  8  9  1  0
  9 10  1  0
  9 11  1  0
  9 12  1  0
 12 13  1  0
 13 14  1  0
 14 15  2  0
 14 16  1  0
 16 17  1  0
 12 18  1  0
 18 19  1  1
 18 20  1  0
 20 21  2  0
 20 22  1  0
 22 23  1  1
 22 24  1  0
 24 25  2  0
 25 26  1  0
 26 27  2  0
 27 28  1  0
 28 29  2  0
 28 30  1  0
 30 31  1  0
 31 32  1  0
 32 33  1  0
 33 34  2  0
 34 35  1  0
 35 36  1  0
 31 37  1  0
 37 38  1  1
 37 39  1  0
 39 40  1  0
 40 41  1  0
 22  8  1  0
 41 25  1  0
 41 18  1  0
 37 26  1  0
 36 32  2  0
  1 42  1  0
  1 43  1  0
  1 44  1  0
  2 45  1  0
  4 46  1  0
  4 47  1  0
  4 48  1  0
  8 49  1  1
 10 50  1  0
 10 51  1  0
 10 52  1  0
 11 53  1  0
 11 54  1  0
 11 55  1  0
 12 56  1  6
 13 57  1  0
 13 58  1  0
 17 59  1  0
 17 60  1  0
 17 61  1  0
 19 62  1  0
 19 63  1  0
 19 64  1  0
 23 65  1  0
 24 66  1  0
 27 67  1  0
 31 68  1  6
 33 69  1  0
 34 70  1  0
 36 71  1  0
 38 72  1  0
 38 73  1  0
 38 74  1  0
 39 75  1  0
 39 76  1  0
 40 77  1  0
 40 78  1  0
 41 79  1  1
M  END
>  <meeko>  (9) 
{"is_sidechain": [false], "free_energy": -7.166, "intermolecular_energy": -10.832, "internal_energy": -0.941}

$$$$
