LIB_FJVVJMGKCIJNGX__M_PUB_ALL__e8__s20260927
     RDKit          3D

 70 74  0  0  0  0  0  0  0  0999 V2000
    7.0160  -10.5500  -10.3430 C   0  0  0  0  0  0  0  0  0  0  0  0
    7.1360  -11.9280  -10.7010 O   0  0  0  0  0  0  0  0  0  0  0  0
    7.1120  -12.7840   -9.6260 C   0  0  0  0  0  0  0  0  0  0  0  0
    6.2160  -12.6230   -8.5630 C   0  0  0  0  0  0  0  0  0  0  0  0
    6.1880  -13.5410   -7.5070 C   0  0  0  0  0  0  0  0  0  0  0  0
    5.2250  -13.4240   -6.3620 C   0  0  0  0  0  0  0  0  0  0  0  0
    4.1930  -12.7850   -6.5730 O   0  0  0  0  0  0  0  0  0  0  0  0
    5.4670  -14.0890   -5.2320 N   0  0  0  0  0  0  0  0  0  0  0  0
    5.8450  -13.2240   -3.9460 S   0  0  0  0  0  0  0  0  0  0  0  0
    6.6290  -12.0090   -4.1570 O   0  0  0  0  0  0  0  0  0  0  0  0
    6.2970  -14.0270   -2.8070 O   0  0  0  0  0  0  0  0  0  0  0  0
    4.2490  -12.5480   -3.3510 C   0  0  0  0  0  0  0  0  0  0  0  0
    4.0140  -11.1760   -3.5230 C   0  0  0  0  0  0  0  0  0  0  0  0
    2.8140  -10.6120   -3.0950 C   0  0  0  0  0  0  0  0  0  0  0  0
    1.8460  -11.4140   -2.4970 C   0  0  0  0  0  0  0  0  0  0  0  0
    2.0780  -12.7810   -2.3250 C   0  0  0  0  0  0  0  0  0  0  0  0
    3.2840  -13.3720   -2.7410 C   0  0  0  0  0  0  0  0  0  0  0  0
    3.4680  -14.8500   -2.5460 C   0  0  0  0  0  0  0  0  0  0  0  0
    7.1200  -14.5840   -7.4880 C   0  0  0  0  0  0  0  0  0  0  0  0
    8.0510  -14.7200   -8.5200 C   0  0  0  0  0  0  0  0  0  0  0  0
    8.0580  -13.8240   -9.6050 C   0  0  0  0  0  0  0  0  0  0  0  0
    9.0620  -14.0030  -10.7200 C   0  0  0  0  0  0  0  0  0  0  0  0
   10.4180  -13.7450  -10.1370 C   0  0  0  0  0  0  0  0  0  0  0  0
   11.1720  -14.6250   -9.3810 C   0  0  0  0  0  0  0  0  0  0  0  0
   12.3340  -14.0030   -9.0190 N   0  0  0  0  0  0  0  0  0  0  0  0
   12.3890  -12.7430   -9.5650 C   0  0  0  0  0  0  0  0  0  0  0  0
   13.3860  -11.7670   -9.4820 C   0  0  0  0  0  0  0  0  0  0  0  0
   13.1650  -10.5480  -10.1390 C   0  0  0  0  0  0  0  0  0  0  0  0
   11.9890  -10.3090  -10.8480 C   0  0  0  0  0  0  0  0  0  0  0  0
   11.7130   -9.1020  -11.5160 N   0  0  0  0  0  0  0  0  0  0  0  0
   11.3410   -7.8990  -10.9890 C   0  0  0  0  0  0  0  0  0  0  0  0
   11.1810   -7.6020   -9.8160 O   0  0  0  0  0  0  0  0  0  0  0  0
   11.1720   -7.0300  -12.0230 O   0  0  0  0  0  0  0  0  0  0  0  0
   12.0130   -5.8760  -11.9970 C   0  0  0  0  0  0  0  0  0  0  0  0
   12.7010   -5.7160  -13.3480 C   0  0  0  0  0  0  0  0  0  0  0  0
   13.1350   -4.2570  -13.3670 C   0  0  0  0  0  0  0  0  0  0  0  0
   12.1370   -3.5140  -12.4770 C   0  0  0  0  0  0  0  0  0  0  0  0
   11.2160   -4.5800  -11.8900 C   0  0  0  0  0  0  0  0  0  0  0  0
   11.0020  -11.3080  -10.9120 C   0  0  0  0  0  0  0  0  0  0  0  0
   11.2000  -12.5480  -10.2670 C   0  0  0  0  0  0  0  0  0  0  0  0
    7.0077  -10.4552   -9.2471 H   0  0  0  0  0  0  0  0  0  0  0  0
    7.8687   -9.9890  -10.7531 H   0  0  0  0  0  0  0  0  0  0  0  0
    6.0792  -10.1448  -10.7531 H   0  0  0  0  0  0  0  0  0  0  0  0
    5.5265  -11.7659   -8.5575 H   0  0  0  0  0  0  0  0  0  0  0  0
    4.7791  -10.5436   -3.9970 H   0  0  0  0  0  0  0  0  0  0  0  0
    2.6319   -9.5355   -3.2293 H   0  0  0  0  0  0  0  0  0  0  0  0
    0.8974  -10.9710   -2.1595 H   0  0  0  0  0  0  0  0  0  0  0  0
    1.3036  -13.4057   -1.8559 H   0  0  0  0  0  0  0  0  0  0  0  0
    3.4963  -15.0772   -1.4701 H   0  0  0  0  0  0  0  0  0  0  0  0
    2.6300  -15.3885   -3.0126 H   0  0  0  0  0  0  0  0  0  0  0  0
    4.4125  -15.1666   -3.0126 H   0  0  0  0  0  0  0  0  0  0  0  0
    7.1196  -15.3019   -6.6546 H   0  0  0  0  0  0  0  0  0  0  0  0
    8.7871  -15.5367   -8.4843 H   0  0  0  0  0  0  0  0  0  0  0  0
    9.0095  -15.0287  -11.1140 H   0  0  0  0  0  0  0  0  0  0  0  0
    8.8540  -13.3108  -11.5492 H   0  0  0  0  0  0  0  0  0  0  0  0
   10.8844  -15.6531   -9.1157 H   0  0  0  0  0  0  0  0  0  0  0  0
   13.0450  -14.4070   -8.4270 H   0  0  0  0  0  0  0  0  0  0  0  0
   14.3137  -11.9491   -8.9197 H   0  0  0  0  0  0  0  0  0  0  0  0
   13.9356   -9.7643  -10.0939 H   0  0  0  0  0  0  0  0  0  0  0  0
   11.7880   -9.0960  -12.5230 H   0  0  0  0  0  0  0  0  0  0  0  0
   12.6892   -6.0262  -11.1425 H   0  0  0  0  0  0  0  0  0  0  0  0
   13.5713   -6.3843  -13.4256 H   0  0  0  0  0  0  0  0  0  0  0  0
   12.0444   -5.9744  -14.1918 H   0  0  0  0  0  0  0  0  0  0  0  0
   14.1546   -4.1554  -12.9670 H   0  0  0  0  0  0  0  0  0  0  0  0
   13.1463   -3.8511  -14.3893 H   0  0  0  0  0  0  0  0  0  0  0  0
   12.6658   -2.9817  -11.6726 H   0  0  0  0  0  0  0  0  0  0  0  0
   11.5701   -2.7645  -13.0487 H   0  0  0  0  0  0  0  0  0  0  0  0
   10.9804   -4.3543  -10.8395 H   0  0  0  0  0  0  0  0  0  0  0  0
   10.2529   -4.6370  -12.4184 H   0  0  0  0  0  0  0  0  0  0  0  0
   10.0708  -11.1225  -11.4674 H   0  0  0  0  0  0  0  0  0  0  0  0
  1  2  1  0
  2  3  1  0
  3  4  2  0
  4  5  1  0
  5  6  1  0
  6  7  2  0
  6  8  1  0
  8  9  1  0
  9 10  2  0
  9 11  2  0
  9 12  1  0
 12 13  2  0
 13 14  1  0
 14 15  2  0
 15 16  1  0
 16 17  2  0
 17 18  1  0
  5 19  2  0
 19 20  1  0
 20 21  2  0
 21 22  1  0
 22 23  1  0
 23 24  2  0
 24 25  1  0
 25 26  1  0
 26 27  2  0
 27 28  1  0
 28 29  2  0
 29 30  1  0
 30 31  1  0
 31 32  2  0
 31 33  1  0
 33 34  1  0
 34 35  1  0
 35 36  1  0
 36 37  1  0
 37 38  1  0
 29 39  1  0
 39 40  2  0
 21  3  1  0
 40 23  1  0
 17 12  1  0
 40 26  1  0
 38 34  1  0
  1 41  1  0
  1 42  1  0
  1 43  1  0
  4 44  1  0
 13 45  1  0
 14 46  1  0
 15 47  1  0
 16 48  1  0
 18 49  1  0
 18 50  1  0
 18 51  1  0
 19 52  1  0
 20 53  1  0
 22 54  1  0
 22 55  1  0
 24 56  1  0
 25 57  1  0
 27 58  1  0
 28 59  1  0
 30 60  1  0
 34 61  1  0
 35 62  1  0
 35 63  1  0
 36 64  1  0
 36 65  1  0
 37 66  1  0
 37 67  1  0
 38 68  1  0
 38 69  1  0
 39 70  1  0
M  CHG  1   8  -1
M  END
>  <meeko>  (1) 
{"is_sidechain": [false], "free_energy": -9.142, "intermolecular_energy": -14.486, "internal_energy": -1.031}

$$$$
LIB_FJVVJMGKCIJNGX__M_PUB_ALL__e8__s20260927
     RDKit          3D

 70 74  0  0  0  0  0  0  0  0999 V2000
   -0.6400  -16.2860   -1.1080 C   0  0  0  0  0  0  0  0  0  0  0  0
   -1.9880  -16.3980   -0.6470 O   0  0  0  0  0  0  0  0  0  0  0  0
   -2.1460  -16.0880    0.6830 C   0  0  0  0  0  0  0  0  0  0  0  0
   -1.8890  -17.0140    1.7010 C   0  0  0  0  0  0  0  0  0  0  0  0
   -2.0170  -16.6500    3.0460 C   0  0  0  0  0  0  0  0  0  0  0  0
   -1.7230  -17.6000    4.1700 C   0  0  0  0  0  0  0  0  0  0  0  0
   -2.1940  -18.7350    4.0690 O   0  0  0  0  0  0  0  0  0  0  0  0
   -0.9000  -17.2230    5.1490 N   0  0  0  0  0  0  0  0  0  0  0  0
    0.6270  -17.6640    5.0260 S   0  0  0  0  0  0  0  0  0  0  0  0
    0.9010  -19.0420    4.6270 O   0  0  0  0  0  0  0  0  0  0  0  0
    1.4680  -17.1920    6.1290 O   0  0  0  0  0  0  0  0  0  0  0  0
    1.2750  -16.7170    3.5960 C   0  0  0  0  0  0  0  0  0  0  0  0
    1.6950  -17.4390    2.4700 C   0  0  0  0  0  0  0  0  0  0  0  0
    2.1890  -16.7690    1.3530 C   0  0  0  0  0  0  0  0  0  0  0  0
    2.2610  -15.3790    1.3550 C   0  0  0  0  0  0  0  0  0  0  0  0
    1.8420  -14.6570    2.4760 C   0  0  0  0  0  0  0  0  0  0  0  0
    1.3480  -15.3110    3.6190 C   0  0  0  0  0  0  0  0  0  0  0  0
    0.8960  -14.4810    4.7860 C   0  0  0  0  0  0  0  0  0  0  0  0
   -2.4770  -15.3680    3.3630 C   0  0  0  0  0  0  0  0  0  0  0  0
   -2.7840  -14.4560    2.3500 C   0  0  0  0  0  0  0  0  0  0  0  0
   -2.6200  -14.8020    0.9970 C   0  0  0  0  0  0  0  0  0  0  0  0
   -2.9400  -13.7920   -0.0810 C   0  0  0  0  0  0  0  0  0  0  0  0
   -2.5810  -12.4420    0.4610 C   0  0  0  0  0  0  0  0  0  0  0  0
   -3.4540  -11.5000    0.9740 C   0  0  0  0  0  0  0  0  0  0  0  0
   -2.7380  -10.3950    1.3380 N   0  0  0  0  0  0  0  0  0  0  0  0
   -1.3970  -10.6050    1.1240 C   0  0  0  0  0  0  0  0  0  0  0  0
   -0.3030   -9.7700    1.3670 C   0  0  0  0  0  0  0  0  0  0  0  0
    0.9720  -10.2480    1.0330 C   0  0  0  0  0  0  0  0  0  0  0  0
    1.1490  -11.5120    0.4710 C   0  0  0  0  0  0  0  0  0  0  0  0
    2.4030  -12.0340    0.1090 N   0  0  0  0  0  0  0  0  0  0  0  0
    2.9740  -12.1090   -1.1290 C   0  0  0  0  0  0  0  0  0  0  0  0
    2.5240  -11.7220   -2.1950 O   0  0  0  0  0  0  0  0  0  0  0  0
    4.1890  -12.7070   -0.9880 O   0  0  0  0  0  0  0  0  0  0  0  0
    4.8210  -12.5200    0.2790 C   0  0  0  0  0  0  0  0  0  0  0  0
    5.4260  -13.8390    0.7460 C   0  0  0  0  0  0  0  0  0  0  0  0
    6.4530  -13.4220    1.7880 C   0  0  0  0  0  0  0  0  0  0  0  0
    6.9030  -12.0140    1.3890 C   0  0  0  0  0  0  0  0  0  0  0  0
    6.0490  -11.6220    0.1870 C   0  0  0  0  0  0  0  0  0  0  0  0
    0.0300  -12.3290    0.2350 C   0  0  0  0  0  0  0  0  0  0  0  0
   -1.2650  -11.8780    0.5690 C   0  0  0  0  0  0  0  0  0  0  0  0
    0.0393  -16.2296   -0.2446 H   0  0  0  0  0  0  0  0  0  0  0  0
   -0.3865  -17.1662   -1.7171 H   0  0  0  0  0  0  0  0  0  0  0  0
   -0.5352  -15.3761   -1.7171 H   0  0  0  0  0  0  0  0  0  0  0  0
   -1.5833  -18.0382    1.4409 H   0  0  0  0  0  0  0  0  0  0  0  0
    1.6343  -18.5373    2.4685 H   0  0  0  0  0  0  0  0  0  0  0  0
    2.5213  -17.3371    0.4716 H   0  0  0  0  0  0  0  0  0  0  0  0
    2.6483  -14.8479    0.4730 H   0  0  0  0  0  0  0  0  0  0  0  0
    1.8996  -13.5586    2.4641 H   0  0  0  0  0  0  0  0  0  0  0  0
    1.1711  -14.9861    5.7236 H   0  0  0  0  0  0  0  0  0  0  0  0
    1.3817  -13.4949    4.7446 H   0  0  0  0  0  0  0  0  0  0  0  0
   -0.1959  -14.3540    4.7446 H   0  0  0  0  0  0  0  0  0  0  0  0
   -2.5979  -15.0757    4.4166 H   0  0  0  0  0  0  0  0  0  0  0  0
   -3.1583  -13.4559    2.6139 H   0  0  0  0  0  0  0  0  0  0  0  0
   -2.3503  -14.0049   -0.9848 H   0  0  0  0  0  0  0  0  0  0  0  0
   -4.0047  -13.8343   -0.3541 H   0  0  0  0  0  0  0  0  0  0  0  0
   -4.5429  -11.6204    1.0725 H   0  0  0  0  0  0  0  0  0  0  0  0
   -3.1380   -9.5410    1.7030 H   0  0  0  0  0  0  0  0  0  0  0  0
   -0.4378   -8.7704    1.8060 H   0  0  0  0  0  0  0  0  0  0  0  0
    1.8509   -9.6129    1.2181 H   0  0  0  0  0  0  0  0  0  0  0  0
    2.9810  -12.4180    0.8430 H   0  0  0  0  0  0  0  0  0  0  0  0
    4.0428  -12.1033    0.9354 H   0  0  0  0  0  0  0  0  0  0  0  0
    4.6566  -14.4863    1.1921 H   0  0  0  0  0  0  0  0  0  0  0  0
    5.8687  -14.4179   -0.0779 H   0  0  0  0  0  0  0  0  0  0  0  0
    5.9991  -13.4097    2.7899 H   0  0  0  0  0  0  0  0  0  0  0  0
    7.3001  -14.1228    1.8251 H   0  0  0  0  0  0  0  0  0  0  0  0
    6.7392  -11.3112    2.2192 H   0  0  0  0  0  0  0  0  0  0  0  0
    7.9754  -11.9886    1.1456 H   0  0  0  0  0  0  0  0  0  0  0  0
    5.7603  -10.5621    0.2448 H   0  0  0  0  0  0  0  0  0  0  0  0
    6.5863  -11.7460   -0.7648 H   0  0  0  0  0  0  0  0  0  0  0  0
    0.1642  -13.3250   -0.2123 H   0  0  0  0  0  0  0  0  0  0  0  0
  1  2  1  0
  2  3  1  0
  3  4  2  0
  4  5  1  0
  5  6  1  0
  6  7  2  0
  6  8  1  0
  8  9  1  0
  9 10  2  0
  9 11  2  0
  9 12  1  0
 12 13  2  0
 13 14  1  0
 14 15  2  0
 15 16  1  0
 16 17  2  0
 17 18  1  0
  5 19  2  0
 19 20  1  0
 20 21  2  0
 21 22  1  0
 22 23  1  0
 23 24  2  0
 24 25  1  0
 25 26  1  0
 26 27  2  0
 27 28  1  0
 28 29  2  0
 29 30  1  0
 30 31  1  0
 31 32  2  0
 31 33  1  0
 33 34  1  0
 34 35  1  0
 35 36  1  0
 36 37  1  0
 37 38  1  0
 29 39  1  0
 39 40  2  0
 21  3  1  0
 40 23  1  0
 17 12  1  0
 40 26  1  0
 38 34  1  0
  1 41  1  0
  1 42  1  0
  1 43  1  0
  4 44  1  0
 13 45  1  0
 14 46  1  0
 15 47  1  0
 16 48  1  0
 18 49  1  0
 18 50  1  0
 18 51  1  0
 19 52  1  0
 20 53  1  0
 22 54  1  0
 22 55  1  0
 24 56  1  0
 25 57  1  0
 27 58  1  0
 28 59  1  0
 30 60  1  0
 34 61  1  0
 35 62  1  0
 35 63  1  0
 36 64  1  0
 36 65  1  0
 37 66  1  0
 37 67  1  0
 38 68  1  0
 38 69  1  0
 39 70  1  0
M  CHG  1   8  -1
M  END
>  <meeko>  (2) 
{"is_sidechain": [false], "free_energy": -8.961, "intermolecular_energy": -12.072, "internal_energy": -3.159}

$$$$
LIB_FJVVJMGKCIJNGX__M_PUB_ALL__e8__s20260927
     RDKit          3D

 70 74  0  0  0  0  0  0  0  0999 V2000
   -1.1120  -16.4150   -0.8230 C   0  0  0  0  0  0  0  0  0  0  0  0
   -2.4900  -16.1220   -0.5870 O   0  0  0  0  0  0  0  0  0  0  0  0
   -2.7950  -15.9240    0.7390 C   0  0  0  0  0  0  0  0  0  0  0  0
   -2.6920  -16.9470    1.6890 C   0  0  0  0  0  0  0  0  0  0  0  0
   -2.9670  -16.6980    3.0380 C   0  0  0  0  0  0  0  0  0  0  0  0
   -2.8410  -17.7550    4.0950 C   0  0  0  0  0  0  0  0  0  0  0  0
   -3.7760  -17.8500    4.8940 O   0  0  0  0  0  0  0  0  0  0  0  0
   -1.8060  -18.5950    4.0630 N   0  0  0  0  0  0  0  0  0  0  0  0
   -0.5570  -18.2460    4.9900 S   0  0  0  0  0  0  0  0  0  0  0  0
    0.6140  -19.1150    4.8990 O   0  0  0  0  0  0  0  0  0  0  0  0
   -0.9210  -17.8920    6.3640 O   0  0  0  0  0  0  0  0  0  0  0  0
    0.0910  -16.6640    4.3270 C   0  0  0  0  0  0  0  0  0  0  0  0
   -0.0550  -15.5150    5.1170 C   0  0  0  0  0  0  0  0  0  0  0  0
    0.4260  -14.2880    4.6640 C   0  0  0  0  0  0  0  0  0  0  0  0
    1.0560  -14.2060    3.4260 C   0  0  0  0  0  0  0  0  0  0  0  0
    1.2030  -15.3510    2.6370 C   0  0  0  0  0  0  0  0  0  0  0  0
    0.7190  -16.5980    3.0690 C   0  0  0  0  0  0  0  0  0  0  0  0
    0.9230  -17.7960    2.1860 C   0  0  0  0  0  0  0  0  0  0  0  0
   -3.4180  -15.4290    3.4180 C   0  0  0  0  0  0  0  0  0  0  0  0
   -3.5710  -14.4190    2.4660 C   0  0  0  0  0  0  0  0  0  0  0  0
   -3.2590  -14.6510    1.1140 C   0  0  0  0  0  0  0  0  0  0  0  0
   -3.4140  -13.5360    0.1050 C   0  0  0  0  0  0  0  0  0  0  0  0
   -2.5260  -12.4140    0.5500 C   0  0  0  0  0  0  0  0  0  0  0  0
   -2.9260  -11.2340    1.1530 C   0  0  0  0  0  0  0  0  0  0  0  0
   -1.8210  -10.4640    1.3790 N   0  0  0  0  0  0  0  0  0  0  0  0
   -0.6870  -11.1320    0.9840 C   0  0  0  0  0  0  0  0  0  0  0  0
    0.6550  -10.7460    1.0430 C   0  0  0  0  0  0  0  0  0  0  0  0
    1.6160  -11.6370    0.5470 C   0  0  0  0  0  0  0  0  0  0  0  0
    1.2520  -12.8690    0.0050 C   0  0  0  0  0  0  0  0  0  0  0  0
    2.1740  -13.7940   -0.5150 N   0  0  0  0  0  0  0  0  0  0  0  0
    3.4690  -13.5910   -0.8930 C   0  0  0  0  0  0  0  0  0  0  0  0
    4.1190  -12.5590   -0.8480 O   0  0  0  0  0  0  0  0  0  0  0  0
    3.9580  -14.7770   -1.3480 O   0  0  0  0  0  0  0  0  0  0  0  0
    3.5640  -15.9290   -0.6020 C   0  0  0  0  0  0  0  0  0  0  0  0
    3.7280  -17.1760   -1.4630 C   0  0  0  0  0  0  0  0  0  0  0  0
    3.7710  -18.3150   -0.4550 C   0  0  0  0  0  0  0  0  0  0  0  0
    4.3350  -17.7100    0.8330 C   0  0  0  0  0  0  0  0  0  0  0  0
    4.5070  -16.2190    0.5600 C   0  0  0  0  0  0  0  0  0  0  0  0
   -0.1060  -13.2300   -0.0460 C   0  0  0  0  0  0  0  0  0  0  0  0
   -1.0950  -12.3560    0.4540 C   0  0  0  0  0  0  0  0  0  0  0  0
   -0.5907  -16.5258    0.1393 H   0  0  0  0  0  0  0  0  0  0  0  0
   -1.0289  -17.3509   -1.3950 H   0  0  0  0  0  0  0  0  0  0  0  0
   -0.6553  -15.5939   -1.3950 H   0  0  0  0  0  0  0  0  0  0  0  0
   -2.3919  -17.9566    1.3717 H   0  0  0  0  0  0  0  0  0  0  0  0
   -0.5504  -15.5822    6.0968 H   0  0  0  0  0  0  0  0  0  0  0  0
    0.3080  -13.3867    5.2835 H   0  0  0  0  0  0  0  0  0  0  0  0
    1.4389  -13.2391    3.0675 H   0  0  0  0  0  0  0  0  0  0  0  0
    1.7059  -15.2746    1.6617 H   0  0  0  0  0  0  0  0  0  0  0  0
    1.0751  -18.6894    2.8095 H   0  0  0  0  0  0  0  0  0  0  0  0
    0.0362  -17.9387    1.5510 H   0  0  0  0  0  0  0  0  0  0  0  0
    1.8070  -17.6372    1.5510 H   0  0  0  0  0  0  0  0  0  0  0  0
   -3.6534  -15.2259    4.4731 H   0  0  0  0  0  0  0  0  0  0  0  0
   -3.9398  -13.4304    2.7768 H   0  0  0  0  0  0  0  0  0  0  0  0
   -3.1101  -13.8850   -0.8929 H   0  0  0  0  0  0  0  0  0  0  0  0
   -4.4615  -13.2060    0.0433 H   0  0  0  0  0  0  0  0  0  0  0  0
   -3.9610  -10.9620    1.4076 H   0  0  0  0  0  0  0  0  0  0  0  0
   -1.8360   -9.5330    1.7700 H   0  0  0  0  0  0  0  0  0  0  0  0
    0.9476   -9.7734    1.4655 H   0  0  0  0  0  0  0  0  0  0  0  0
    2.6795  -11.3588    0.5860 H   0  0  0  0  0  0  0  0  0  0  0  0
    1.8610  -14.7460   -0.6410 H   0  0  0  0  0  0  0  0  0  0  0  0
    2.5363  -15.7223   -0.2687 H   0  0  0  0  0  0  0  0  0  0  0  0
    2.8760  -17.2926   -2.1489 H   0  0  0  0  0  0  0  0  0  0  0  0
    4.6256  -17.1377   -2.0977 H   0  0  0  0  0  0  0  0  0  0  0  0
    2.7597  -18.7114   -0.2813 H   0  0  0  0  0  0  0  0  0  0  0  0
    4.3890  -19.1510   -0.8144 H   0  0  0  0  0  0  0  0  0  0  0  0
    3.6352  -17.8672    1.6670 H   0  0  0  0  0  0  0  0  0  0  0  0
    5.2892  -18.1799    1.1135 H   0  0  0  0  0  0  0  0  0  0  0  0
    4.2269  -15.6276    1.4442 H   0  0  0  0  0  0  0  0  0  0  0  0
    5.5492  -15.9553    0.3270 H   0  0  0  0  0  0  0  0  0  0  0  0
   -0.3990  -14.1984   -0.4777 H   0  0  0  0  0  0  0  0  0  0  0  0
  1  2  1  0
  2  3  1  0
  3  4  2  0
  4  5  1  0
  5  6  1  0
  6  7  2  0
  6  8  1  0
  8  9  1  0
  9 10  2  0
  9 11  2  0
  9 12  1  0
 12 13  2  0
 13 14  1  0
 14 15  2  0
 15 16  1  0
 16 17  2  0
 17 18  1  0
  5 19  2  0
 19 20  1  0
 20 21  2  0
 21 22  1  0
 22 23  1  0
 23 24  2  0
 24 25  1  0
 25 26  1  0
 26 27  2  0
 27 28  1  0
 28 29  2  0
 29 30  1  0
 30 31  1  0
 31 32  2  0
 31 33  1  0
 33 34  1  0
 34 35  1  0
 35 36  1  0
 36 37  1  0
 37 38  1  0
 29 39  1  0
 39 40  2  0
 21  3  1  0
 40 23  1  0
 17 12  1  0
 40 26  1  0
 38 34  1  0
  1 41  1  0
  1 42  1  0
  1 43  1  0
  4 44  1  0
 13 45  1  0
 14 46  1  0
 15 47  1  0
 16 48  1  0
 18 49  1  0
 18 50  1  0
 18 51  1  0
 19 52  1  0
 20 53  1  0
 22 54  1  0
 22 55  1  0
 24 56  1  0
 25 57  1  0
 27 58  1  0
 28 59  1  0
 30 60  1  0
 34 61  1  0
 35 62  1  0
 35 63  1  0
 36 64  1  0
 36 65  1  0
 37 66  1  0
 37 67  1  0
 38 68  1  0
 38 69  1  0
 39 70  1  0
M  CHG  1   8  -1
M  END
>  <meeko>  (3) 
{"is_sidechain": [false], "free_energy": -8.883, "intermolecular_energy": -11.424, "internal_energy": -3.684}

$$$$
LIB_FJVVJMGKCIJNGX__M_PUB_ALL__e8__s20260927
     RDKit          3D

 70 74  0  0  0  0  0  0  0  0999 V2000
    9.0870  -14.9030   -6.5230 C   0  0  0  0  0  0  0  0  0  0  0  0
    7.8680  -15.4860   -6.0590 O   0  0  0  0  0  0  0  0  0  0  0  0
    7.7330  -15.4720   -4.6920 C   0  0  0  0  0  0  0  0  0  0  0  0
    8.8350  -15.5410   -3.8310 C   0  0  0  0  0  0  0  0  0  0  0  0
    8.6630  -15.4780   -2.4440 C   0  0  0  0  0  0  0  0  0  0  0  0
    9.8170  -15.5180   -1.4860 C   0  0  0  0  0  0  0  0  0  0  0  0
   10.6510  -16.4090   -1.6650 O   0  0  0  0  0  0  0  0  0  0  0  0
    9.9470  -14.5530   -0.5750 N   0  0  0  0  0  0  0  0  0  0  0  0
   10.3220  -13.0970   -1.1060 S   0  0  0  0  0  0  0  0  0  0  0  0
   11.0570  -13.0070   -2.3660 O   0  0  0  0  0  0  0  0  0  0  0  0
   10.8290  -12.2010   -0.0630 O   0  0  0  0  0  0  0  0  0  0  0  0
    8.7160  -12.3310   -1.5460 C   0  0  0  0  0  0  0  0  0  0  0  0
    8.4680  -12.0650   -2.9000 C   0  0  0  0  0  0  0  0  0  0  0  0
    7.2600  -11.4890   -3.2900 C   0  0  0  0  0  0  0  0  0  0  0  0
    6.2980  -11.1820   -2.3320 C   0  0  0  0  0  0  0  0  0  0  0  0
    6.5430  -11.4480   -0.9820 C   0  0  0  0  0  0  0  0  0  0  0  0
    7.7570  -12.0200   -0.5630 C   0  0  0  0  0  0  0  0  0  0  0  0
    7.9560  -12.2990    0.8990 C   0  0  0  0  0  0  0  0  0  0  0  0
    7.3670  -15.4180   -1.9210 C   0  0  0  0  0  0  0  0  0  0  0  0
    6.2610  -15.4000   -2.7730 C   0  0  0  0  0  0  0  0  0  0  0  0
    6.4270  -15.4240   -4.1700 C   0  0  0  0  0  0  0  0  0  0  0  0
    5.2160  -15.3840   -5.0720 C   0  0  0  0  0  0  0  0  0  0  0  0
    4.9340  -13.9420   -5.3660 C   0  0  0  0  0  0  0  0  0  0  0  0
    5.4450  -13.1980   -6.4160 C   0  0  0  0  0  0  0  0  0  0  0  0
    4.9680  -11.9220   -6.3180 N   0  0  0  0  0  0  0  0  0  0  0  0
    4.1070  -11.8160   -5.2510 C   0  0  0  0  0  0  0  0  0  0  0  0
    3.3770  -10.7190   -4.7870 C   0  0  0  0  0  0  0  0  0  0  0  0
    2.5770  -10.8980   -3.6500 C   0  0  0  0  0  0  0  0  0  0  0  0
    2.5130  -12.1270   -2.9950 C   0  0  0  0  0  0  0  0  0  0  0  0
    1.7350  -12.3580   -1.8460 N   0  0  0  0  0  0  0  0  0  0  0  0
    2.0790  -12.1980   -0.5350 C   0  0  0  0  0  0  0  0  0  0  0  0
    3.1360  -11.8030   -0.0700 O   0  0  0  0  0  0  0  0  0  0  0  0
    1.0050  -12.5590    0.2210 O   0  0  0  0  0  0  0  0  0  0  0  0
    0.5350  -11.5650    1.1320 C   0  0  0  0  0  0  0  0  0  0  0  0
   -0.3500  -10.5700    0.3900 C   0  0  0  0  0  0  0  0  0  0  0  0
   -1.1590   -9.9050    1.4950 C   0  0  0  0  0  0  0  0  0  0  0  0
   -1.2630  -10.9410    2.6160 C   0  0  0  0  0  0  0  0  0  0  0  0
   -0.4270  -12.1360    2.1680 C   0  0  0  0  0  0  0  0  0  0  0  0
    3.2610  -13.2130   -3.4810 C   0  0  0  0  0  0  0  0  0  0  0  0
    4.0690  -13.0640   -4.6300 C   0  0  0  0  0  0  0  0  0  0  0  0
    9.7037  -14.6081   -5.6612 H   0  0  0  0  0  0  0  0  0  0  0  0
    9.6354  -15.6363   -7.1325 H   0  0  0  0  0  0  0  0  0  0  0  0
    8.8604  -14.0158   -7.1325 H   0  0  0  0  0  0  0  0  0  0  0  0
    9.8468  -15.6459   -4.2496 H   0  0  0  0  0  0  0  0  0  0  0  0
    9.2281  -12.3113   -3.6560 H   0  0  0  0  0  0  0  0  0  0  0  0
    7.0675  -11.2776   -4.3522 H   0  0  0  0  0  0  0  0  0  0  0  0
    5.3433  -10.7293   -2.6380 H   0  0  0  0  0  0  0  0  0  0  0  0
    5.7730  -11.2057   -0.2347 H   0  0  0  0  0  0  0  0  0  0  0  0
    7.4183  -11.5451    1.4927 H   0  0  0  0  0  0  0  0  0  0  0  0
    7.5666  -13.2997    1.1377 H   0  0  0  0  0  0  0  0  0  0  0  0
    9.0290  -12.2566    1.1377 H   0  0  0  0  0  0  0  0  0  0  0  0
    7.2183  -15.3848   -0.8316 H   0  0  0  0  0  0  0  0  0  0  0  0
    5.2474  -15.3666   -2.3469 H   0  0  0  0  0  0  0  0  0  0  0  0
    5.4232  -15.9262   -6.0064 H   0  0  0  0  0  0  0  0  0  0  0  0
    4.3512  -15.8617   -4.5883 H   0  0  0  0  0  0  0  0  0  0  0  0
    6.1219  -13.5721   -7.1982 H   0  0  0  0  0  0  0  0  0  0  0  0
    5.2190  -11.1620   -6.9350 H   0  0  0  0  0  0  0  0  0  0  0  0
    3.4283   -9.7460   -5.2975 H   0  0  0  0  0  0  0  0  0  0  0  0
    1.9879  -10.0518   -3.2669 H   0  0  0  0  0  0  0  0  0  0  0  0
    0.7920  -12.6920   -1.9780 H   0  0  0  0  0  0  0  0  0  0  0  0
    1.4395  -11.1366    1.5885 H   0  0  0  0  0  0  0  0  0  0  0  0
    0.2597   -9.8295   -0.1485 H   0  0  0  0  0  0  0  0  0  0  0  0
   -0.9841  -11.0504   -0.3697 H   0  0  0  0  0  0  0  0  0  0  0  0
   -0.6455   -9.0013    1.8550 H   0  0  0  0  0  0  0  0  0  0  0  0
   -2.1517   -9.5930    1.1385 H   0  0  0  0  0  0  0  0  0  0  0  0
   -0.8660  -10.5282    3.5551 H   0  0  0  0  0  0  0  0  0  0  0  0
   -2.3084  -11.2291    2.8007 H   0  0  0  0  0  0  0  0  0  0  0  0
    0.1259  -12.5635    3.0174 H   0  0  0  0  0  0  0  0  0  0  0  0
   -1.0458  -12.9487    1.7597 H   0  0  0  0  0  0  0  0  0  0  0  0
    3.2171  -14.1832   -2.9644 H   0  0  0  0  0  0  0  0  0  0  0  0
  1  2  1  0
  2  3  1  0
  3  4  2  0
  4  5  1  0
  5  6  1  0
  6  7  2  0
  6  8  1  0
  8  9  1  0
  9 10  2  0
  9 11  2  0
  9 12  1  0
 12 13  2  0
 13 14  1  0
 14 15  2  0
 15 16  1  0
 16 17  2  0
 17 18  1  0
  5 19  2  0
 19 20  1  0
 20 21  2  0
 21 22  1  0
 22 23  1  0
 23 24  2  0
 24 25  1  0
 25 26  1  0
 26 27  2  0
 27 28  1  0
 28 29  2  0
 29 30  1  0
 30 31  1  0
 31 32  2  0
 31 33  1  0
 33 34  1  0
 34 35  1  0
 35 36  1  0
 36 37  1  0
 37 38  1  0
 29 39  1  0
 39 40  2  0
 21  3  1  0
 40 23  1  0
 17 12  1  0
 40 26  1  0
 38 34  1  0
  1 41  1  0
  1 42  1  0
  1 43  1  0
  4 44  1  0
 13 45  1  0
 14 46  1  0
 15 47  1  0
 16 48  1  0
 18 49  1  0
 18 50  1  0
 18 51  1  0
 19 52  1  0
 20 53  1  0
 22 54  1  0
 22 55  1  0
 24 56  1  0
 25 57  1  0
 27 58  1  0
 28 59  1  0
 30 60  1  0
 34 61  1  0
 35 62  1  0
 35 63  1  0
 36 64  1  0
 36 65  1  0
 37 66  1  0
 37 67  1  0
 38 68  1  0
 38 69  1  0
 39 70  1  0
M  CHG  1   8  -1
M  END
>  <meeko>  (4) 
{"is_sidechain": [false], "free_energy": -8.822, "intermolecular_energy": -11.575, "internal_energy": -3.437}

$$$$
LIB_FJVVJMGKCIJNGX__M_PUB_ALL__e8__s20260927
     RDKit          3D

 70 74  0  0  0  0  0  0  0  0999 V2000
   -0.7220  -16.7270   -0.1430 C   0  0  0  0  0  0  0  0  0  0  0  0
   -2.0910  -16.7070    0.2690 O   0  0  0  0  0  0  0  0  0  0  0  0
   -2.2590  -16.5730    1.6260 C   0  0  0  0  0  0  0  0  0  0  0  0
   -1.8290  -17.5490    2.5330 C   0  0  0  0  0  0  0  0  0  0  0  0
   -1.9750  -17.3580    3.9110 C   0  0  0  0  0  0  0  0  0  0  0  0
   -1.5030  -18.3640    4.9190 C   0  0  0  0  0  0  0  0  0  0  0  0
   -1.9080  -19.5190    4.7770 O   0  0  0  0  0  0  0  0  0  0  0  0
   -0.6060  -18.0000    5.8360 N   0  0  0  0  0  0  0  0  0  0  0  0
    0.9340  -18.1520    5.4480 S   0  0  0  0  0  0  0  0  0  0  0  0
    1.3110  -19.2930    4.6170 O   0  0  0  0  0  0  0  0  0  0  0  0
    1.8510  -17.9080    6.5650 O   0  0  0  0  0  0  0  0  0  0  0  0
    1.2770  -16.7380    4.3330 C   0  0  0  0  0  0  0  0  0  0  0  0
    1.7920  -17.0200    3.0600 C   0  0  0  0  0  0  0  0  0  0  0  0
    2.0650  -15.9830    2.1700 C   0  0  0  0  0  0  0  0  0  0  0  0
    1.8210  -14.6650    2.5460 C   0  0  0  0  0  0  0  0  0  0  0  0
    1.3060  -14.3830    3.8150 C   0  0  0  0  0  0  0  0  0  0  0  0
    1.0310  -15.4110    4.7330 C   0  0  0  0  0  0  0  0  0  0  0  0
    0.4620  -15.0460    6.0740 C   0  0  0  0  0  0  0  0  0  0  0  0
   -2.6250  -16.2090    4.3730 C   0  0  0  0  0  0  0  0  0  0  0  0
   -3.1020  -15.2550    3.4710 C   0  0  0  0  0  0  0  0  0  0  0  0
   -2.9240  -15.4220    2.0860 C   0  0  0  0  0  0  0  0  0  0  0  0
   -3.4310  -14.3660    1.1300 C   0  0  0  0  0  0  0  0  0  0  0  0
   -2.7380  -13.0850    1.4830 C   0  0  0  0  0  0  0  0  0  0  0  0
   -3.2050  -12.1040    2.3400 C   0  0  0  0  0  0  0  0  0  0  0  0
   -2.2950  -11.0860    2.3740 N   0  0  0  0  0  0  0  0  0  0  0  0
   -1.2060  -11.3950    1.5940 C   0  0  0  0  0  0  0  0  0  0  0  0
   -0.0370  -10.6710    1.3490 C   0  0  0  0  0  0  0  0  0  0  0  0
    0.9150  -11.2330    0.4870 C   0  0  0  0  0  0  0  0  0  0  0  0
    0.7030  -12.4730   -0.1160 C   0  0  0  0  0  0  0  0  0  0  0  0
    1.6190  -13.0770   -0.9960 N   0  0  0  0  0  0  0  0  0  0  0  0
    2.9540  -13.3010   -0.8200 C   0  0  0  0  0  0  0  0  0  0  0  0
    3.6460  -13.0370    0.1510 O   0  0  0  0  0  0  0  0  0  0  0  0
    3.4250  -13.8990   -1.9480 O   0  0  0  0  0  0  0  0  0  0  0  0
    4.2010  -15.0790   -1.7370 C   0  0  0  0  0  0  0  0  0  0  0  0
    3.2770  -16.2430   -1.3970 C   0  0  0  0  0  0  0  0  0  0  0  0
    4.1200  -17.4770   -1.6890 C   0  0  0  0  0  0  0  0  0  0  0  0
    5.1060  -17.0580   -2.7810 C   0  0  0  0  0  0  0  0  0  0  0  0
    4.8710  -15.5690   -3.0160 C   0  0  0  0  0  0  0  0  0  0  0  0
   -0.4840  -13.1780    0.1460 C   0  0  0  0  0  0  0  0  0  0  0  0
   -1.4560  -12.6400    1.0170 C   0  0  0  0  0  0  0  0  0  0  0  0
   -0.0721  -16.7365    0.7444 H   0  0  0  0  0  0  0  0  0  0  0  0
   -0.5334  -17.6280   -0.7452 H   0  0  0  0  0  0  0  0  0  0  0  0
   -0.5072  -15.8319   -0.7452 H   0  0  0  0  0  0  0  0  0  0  0  0
   -1.3713  -18.4762    2.1579 H   0  0  0  0  0  0  0  0  0  0  0  0
    1.9810  -18.0621    2.7630 H   0  0  0  0  0  0  0  0  0  0  0  0
    2.4723  -16.2054    1.1727 H   0  0  0  0  0  0  0  0  0  0  0  0
    2.0335  -13.8449    1.8443 H   0  0  0  0  0  0  0  0  0  0  0  0
    1.1127  -13.3382    4.0998 H   0  0  0  0  0  0  0  0  0  0  0  0
    1.1026  -15.4569    6.8683 H   0  0  0  0  0  0  0  0  0  0  0  0
    0.4183  -13.9509    6.1680 H   0  0  0  0  0  0  0  0  0  0  0  0
   -0.5516  -15.4628    6.1680 H   0  0  0  0  0  0  0  0  0  0  0  0
   -2.7615  -16.0556    5.4537 H   0  0  0  0  0  0  0  0  0  0  0  0
   -3.6229  -14.3627    3.8484 H   0  0  0  0  0  0  0  0  0  0  0  0
   -3.1948  -14.6500    0.0939 H   0  0  0  0  0  0  0  0  0  0  0  0
   -4.5226  -14.2563    1.2099 H   0  0  0  0  0  0  0  0  0  0  0  0
   -4.1510  -12.1383    2.9002 H   0  0  0  0  0  0  0  0  0  0  0  0
   -2.4100  -10.2240    2.8890 H   0  0  0  0  0  0  0  0  0  0  0  0
    0.1314   -9.6903    1.8179 H   0  0  0  0  0  0  0  0  0  0  0  0
    1.8470  -10.6858    0.2822 H   0  0  0  0  0  0  0  0  0  0  0  0
    1.2710  -13.3950   -1.8880 H   0  0  0  0  0  0  0  0  0  0  0  0
    4.9281  -14.8143   -0.9552 H   0  0  0  0  0  0  0  0  0  0  0  0
    2.9821  -16.2121   -0.3377 H   0  0  0  0  0  0  0  0  0  0  0  0
    2.3401  -16.2232   -1.9730 H   0  0  0  0  0  0  0  0  0  0  0  0
    4.6610  -17.7941   -0.7853 H   0  0  0  0  0  0  0  0  0  0  0  0
    3.4982  -18.3263   -2.0085 H   0  0  0  0  0  0  0  0  0  0  0  0
    6.1400  -17.2334   -2.4492 H   0  0  0  0  0  0  0  0  0  0  0  0
    4.9546  -17.6387   -3.7029 H   0  0  0  0  0  0  0  0  0  0  0  0
    5.8250  -15.0463   -3.1795 H   0  0  0  0  0  0  0  0  0  0  0  0
    4.2561  -15.3794   -3.9082 H   0  0  0  0  0  0  0  0  0  0  0  0
   -0.6567  -14.1544   -0.3302 H   0  0  0  0  0  0  0  0  0  0  0  0
  1  2  1  0
  2  3  1  0
  3  4  2  0
  4  5  1  0
  5  6  1  0
  6  7  2  0
  6  8  1  0
  8  9  1  0
  9 10  2  0
  9 11  2  0
  9 12  1  0
 12 13  2  0
 13 14  1  0
 14 15  2  0
 15 16  1  0
 16 17  2  0
 17 18  1  0
  5 19  2  0
 19 20  1  0
 20 21  2  0
 21 22  1  0
 22 23  1  0
 23 24  2  0
 24 25  1  0
 25 26  1  0
 26 27  2  0
 27 28  1  0
 28 29  2  0
 29 30  1  0
 30 31  1  0
 31 32  2  0
 31 33  1  0
 33 34  1  0
 34 35  1  0
 35 36  1  0
 36 37  1  0
 37 38  1  0
 29 39  1  0
 39 40  2  0
 21  3  1  0
 40 23  1  0
 17 12  1  0
 40 26  1  0
 38 34  1  0
  1 41  1  0
  1 42  1  0
  1 43  1  0
  4 44  1  0
 13 45  1  0
 14 46  1  0
 15 47  1  0
 16 48  1  0
 18 49  1  0
 18 50  1  0
 18 51  1  0
 19 52  1  0
 20 53  1  0
 22 54  1  0
 22 55  1  0
 24 56  1  0
 25 57  1  0
 27 58  1  0
 28 59  1  0
 30 60  1  0
 34 61  1  0
 35 62  1  0
 35 63  1  0
 36 64  1  0
 36 65  1  0
 37 66  1  0
 37 67  1  0
 38 68  1  0
 38 69  1  0
 39 70  1  0
M  CHG  1   8  -1
M  END
>  <meeko>  (5) 
{"is_sidechain": [false], "free_energy": -8.759, "intermolecular_energy": -11.517, "internal_energy": -3.393}

$$$$
LIB_FJVVJMGKCIJNGX__M_PUB_ALL__e8__s20260927
     RDKit          3D

 70 74  0  0  0  0  0  0  0  0999 V2000
    1.2290  -12.3160    0.0690 C   0  0  0  0  0  0  0  0  0  0  0  0
    2.1410  -12.4080   -1.0280 O   0  0  0  0  0  0  0  0  0  0  0  0
    3.2830  -13.1160   -0.7410 C   0  0  0  0  0  0  0  0  0  0  0  0
    4.1100  -12.7920    0.3410 C   0  0  0  0  0  0  0  0  0  0  0  0
    5.2420  -13.5630    0.6310 C   0  0  0  0  0  0  0  0  0  0  0  0
    6.1390  -13.2700    1.7970 C   0  0  0  0  0  0  0  0  0  0  0  0
    5.6010  -13.2060    2.9040 O   0  0  0  0  0  0  0  0  0  0  0  0
    7.4580  -13.2020    1.6080 N   0  0  0  0  0  0  0  0  0  0  0  0
    8.0300  -11.8700    0.9450 S   0  0  0  0  0  0  0  0  0  0  0  0
    9.4650  -11.6210    1.0620 O   0  0  0  0  0  0  0  0  0  0  0  0
    7.2050  -10.6850    1.1950 O   0  0  0  0  0  0  0  0  0  0  0  0
    7.8330  -12.1220   -0.8600 C   0  0  0  0  0  0  0  0  0  0  0  0
    6.9020  -11.3190   -1.5350 C   0  0  0  0  0  0  0  0  0  0  0  0
    6.7180  -11.4650   -2.9080 C   0  0  0  0  0  0  0  0  0  0  0  0
    7.4630  -12.4080   -3.6110 C   0  0  0  0  0  0  0  0  0  0  0  0
    8.3920  -13.2080   -2.9400 C   0  0  0  0  0  0  0  0  0  0  0  0
    8.5890  -13.0860   -1.5530 C   0  0  0  0  0  0  0  0  0  0  0  0
    9.6150  -13.9610   -0.8910 C   0  0  0  0  0  0  0  0  0  0  0  0
    5.5800  -14.6210   -0.2190 C   0  0  0  0  0  0  0  0  0  0  0  0
    4.7860  -14.9170   -1.3300 C   0  0  0  0  0  0  0  0  0  0  0  0
    3.6260  -14.1710   -1.6050 C   0  0  0  0  0  0  0  0  0  0  0  0
    2.7720  -14.5230   -2.8020 C   0  0  0  0  0  0  0  0  0  0  0  0
    3.2900  -13.7260   -3.9600 C   0  0  0  0  0  0  0  0  0  0  0  0
    2.8120  -12.5040   -4.4000 C   0  0  0  0  0  0  0  0  0  0  0  0
    3.5330  -12.1230   -5.4960 N   0  0  0  0  0  0  0  0  0  0  0  0
    4.5170  -13.0460   -5.7620 C   0  0  0  0  0  0  0  0  0  0  0  0
    5.4930  -13.0600   -6.7620 C   0  0  0  0  0  0  0  0  0  0  0  0
    6.3710  -14.1530   -6.8040 C   0  0  0  0  0  0  0  0  0  0  0  0
    6.2740  -15.1970   -5.8860 C   0  0  0  0  0  0  0  0  0  0  0  0
    7.1210  -16.3190   -5.8900 N   0  0  0  0  0  0  0  0  0  0  0  0
    7.0980  -17.4060   -6.7150 C   0  0  0  0  0  0  0  0  0  0  0  0
    6.3420  -17.6350   -7.6460 O   0  0  0  0  0  0  0  0  0  0  0  0
    8.1020  -18.2400   -6.3300 O   0  0  0  0  0  0  0  0  0  0  0  0
    8.2540  -18.4050   -4.9190 C   0  0  0  0  0  0  0  0  0  0  0  0
    7.1070  -19.2500   -4.3780 C   0  0  0  0  0  0  0  0  0  0  0  0
    7.6270  -19.7600   -3.0420 C   0  0  0  0  0  0  0  0  0  0  0  0
    9.1490  -19.8230   -3.1840 C   0  0  0  0  0  0  0  0  0  0  0  0
    9.4700  -19.2530   -4.5630 C   0  0  0  0  0  0  0  0  0  0  0  0
    5.2800  -15.1580   -4.8930 C   0  0  0  0  0  0  0  0  0  0  0  0
    4.3870  -14.0670   -4.8210 C   0  0  0  0  0  0  0  0  0  0  0  0
    1.7869  -12.3723    1.0154 H   0  0  0  0  0  0  0  0  0  0  0  0
    0.6893  -11.3589    0.0179 H   0  0  0  0  0  0  0  0  0  0  0  0
    0.5090  -13.1461    0.0179 H   0  0  0  0  0  0  0  0  0  0  0  0
    3.8679  -11.9226    0.9699 H   0  0  0  0  0  0  0  0  0  0  0  0
    6.3159  -10.5724   -0.9790 H   0  0  0  0  0  0  0  0  0  0  0  0
    5.9856  -10.8365   -3.4358 H   0  0  0  0  0  0  0  0  0  0  0  0
    7.3203  -12.5235   -4.6956 H   0  0  0  0  0  0  0  0  0  0  0  0
    8.9792  -13.9457   -3.5066 H   0  0  0  0  0  0  0  0  0  0  0  0
    9.5177  -13.8780    0.2015 H   0  0  0  0  0  0  0  0  0  0  0  0
    9.4565  -15.0062   -1.1949 H   0  0  0  0  0  0  0  0  0  0  0  0
   10.6221  -13.6395   -1.1949 H   0  0  0  0  0  0  0  0  0  0  0  0
    6.4764  -15.2238   -0.0116 H   0  0  0  0  0  0  0  0  0  0  0  0
    5.0717  -15.7434   -1.9975 H   0  0  0  0  0  0  0  0  0  0  0  0
    2.8504  -15.5986   -3.0186 H   0  0  0  0  0  0  0  0  0  0  0  0
    1.7135  -14.2933   -2.6099 H   0  0  0  0  0  0  0  0  0  0  0  0
    1.9890  -11.9346   -3.9435 H   0  0  0  0  0  0  0  0  0  0  0  0
    3.3620  -11.2890   -6.0390 H   0  0  0  0  0  0  0  0  0  0  0  0
    5.5702  -12.2409   -7.4921 H   0  0  0  0  0  0  0  0  0  0  0  0
    7.1523  -14.1868   -7.5776 H   0  0  0  0  0  0  0  0  0  0  0  0
    7.8540  -16.3560   -5.1960 H   0  0  0  0  0  0  0  0  0  0  0  0
    8.3170  -17.3857   -4.5103 H   0  0  0  0  0  0  0  0  0  0  0  0
    6.2028  -18.6393   -4.2387 H   0  0  0  0  0  0  0  0  0  0  0  0
    6.8208  -20.0638   -5.0605 H   0  0  0  0  0  0  0  0  0  0  0  0
    7.3460  -19.0699   -2.2328 H   0  0  0  0  0  0  0  0  0  0  0  0
    7.2027  -20.7433   -2.7910 H   0  0  0  0  0  0  0  0  0  0  0  0
    9.6307  -19.2200   -2.4002 H   0  0  0  0  0  0  0  0  0  0  0  0
    9.5199  -20.8533   -3.0790 H   0  0  0  0  0  0  0  0  0  0  0  0
   10.3783  -18.6337   -4.5257 H   0  0  0  0  0  0  0  0  0  0  0  0
    9.6624  -20.0406   -5.3064 H   0  0  0  0  0  0  0  0  0  0  0  0
    5.1975  -15.9816   -4.1685 H   0  0  0  0  0  0  0  0  0  0  0  0
  1  2  1  0
  2  3  1  0
  3  4  2  0
  4  5  1  0
  5  6  1  0
  6  7  2  0
  6  8  1  0
  8  9  1  0
  9 10  2  0
  9 11  2  0
  9 12  1  0
 12 13  2  0
 13 14  1  0
 14 15  2  0
 15 16  1  0
 16 17  2  0
 17 18  1  0
  5 19  2  0
 19 20  1  0
 20 21  2  0
 21 22  1  0
 22 23  1  0
 23 24  2  0
 24 25  1  0
 25 26  1  0
 26 27  2  0
 27 28  1  0
 28 29  2  0
 29 30  1  0
 30 31  1  0
 31 32  2  0
 31 33  1  0
 33 34  1  0
 34 35  1  0
 35 36  1  0
 36 37  1  0
 37 38  1  0
 29 39  1  0
 39 40  2  0
 21  3  1  0
 40 23  1  0
 17 12  1  0
 40 26  1  0
 38 34  1  0
  1 41  1  0
  1 42  1  0
  1 43  1  0
  4 44  1  0
 13 45  1  0
 14 46  1  0
 15 47  1  0
 16 48  1  0
 18 49  1  0
 18 50  1  0
 18 51  1  0
 19 52  1  0
 20 53  1  0
 22 54  1  0
 22 55  1  0
 24 56  1  0
 25 57  1  0
 27 58  1  0
 28 59  1  0
 30 60  1  0
 34 61  1  0
 35 62  1  0
 35 63  1  0
 36 64  1  0
 36 65  1  0
 37 66  1  0
 37 67  1  0
 38 68  1  0
 38 69  1  0
 39 70  1  0
M  CHG  1   8  -1
M  END
>  <meeko>  (6) 
{"is_sidechain": [false], "free_energy": -8.752, "intermolecular_energy": -11.304, "internal_energy": -3.596}

$$$$
LIB_FJVVJMGKCIJNGX__M_PUB_ALL__e8__s20260927
     RDKit          3D

 70 74  0  0  0  0  0  0  0  0999 V2000
    9.1840  -14.8330   -7.3720 C   0  0  0  0  0  0  0  0  0  0  0  0
   10.1140  -15.6400   -6.6460 O   0  0  0  0  0  0  0  0  0  0  0  0
   11.0410  -14.9140   -5.9380 C   0  0  0  0  0  0  0  0  0  0  0  0
   10.6830  -14.0850   -4.8680 C   0  0  0  0  0  0  0  0  0  0  0  0
   11.6590  -13.3970   -4.1400 C   0  0  0  0  0  0  0  0  0  0  0  0
   11.3230  -12.5210   -2.9690 C   0  0  0  0  0  0  0  0  0  0  0  0
   10.3140  -11.8200   -3.0760 O   0  0  0  0  0  0  0  0  0  0  0  0
   12.0460  -12.6140   -1.8520 N   0  0  0  0  0  0  0  0  0  0  0  0
   11.2840  -13.0730   -0.5290 S   0  0  0  0  0  0  0  0  0  0  0  0
   10.1670  -12.2500   -0.0720 O   0  0  0  0  0  0  0  0  0  0  0  0
   12.1800  -13.5000    0.5500 O   0  0  0  0  0  0  0  0  0  0  0  0
   10.4420  -14.6350   -0.9900 C   0  0  0  0  0  0  0  0  0  0  0  0
    9.0410  -14.6550   -0.9610 C   0  0  0  0  0  0  0  0  0  0  0  0
    8.3500  -15.8140   -1.3090 C   0  0  0  0  0  0  0  0  0  0  0  0
    9.0550  -16.9530   -1.6910 C   0  0  0  0  0  0  0  0  0  0  0  0
   10.4520  -16.9330   -1.7210 C   0  0  0  0  0  0  0  0  0  0  0  0
   11.1720  -15.7790   -1.3660 C   0  0  0  0  0  0  0  0  0  0  0  0
   12.6720  -15.8140   -1.4370 C   0  0  0  0  0  0  0  0  0  0  0  0
   12.9960  -13.4880   -4.5390 C   0  0  0  0  0  0  0  0  0  0  0  0
   13.3540  -14.2740   -5.6370 C   0  0  0  0  0  0  0  0  0  0  0  0
   12.3830  -15.0000   -6.3500 C   0  0  0  0  0  0  0  0  0  0  0  0
   12.7980  -15.8590   -7.5220 C   0  0  0  0  0  0  0  0  0  0  0  0
   13.6120  -14.9930   -8.4350 C   0  0  0  0  0  0  0  0  0  0  0  0
   14.9770  -15.0720   -8.6480 C   0  0  0  0  0  0  0  0  0  0  0  0
   15.3380  -14.0940   -9.5300 N   0  0  0  0  0  0  0  0  0  0  0  0
   14.2290  -13.3990   -9.9490 C   0  0  0  0  0  0  0  0  0  0  0  0
   14.1170  -12.3400  -10.8540 C   0  0  0  0  0  0  0  0  0  0  0  0
   12.8410  -11.8060  -11.0840 C   0  0  0  0  0  0  0  0  0  0  0  0
   11.7170  -12.3080  -10.4290 C   0  0  0  0  0  0  0  0  0  0  0  0
   10.4180  -11.8030  -10.6160 N   0  0  0  0  0  0  0  0  0  0  0  0
    9.6040  -11.9170  -11.7050 C   0  0  0  0  0  0  0  0  0  0  0  0
    9.8220  -12.4990  -12.7570 O   0  0  0  0  0  0  0  0  0  0  0  0
    8.4470  -11.2550  -11.4290 O   0  0  0  0  0  0  0  0  0  0  0  0
    7.3550  -12.0770  -11.0150 C   0  0  0  0  0  0  0  0  0  0  0  0
    7.7320  -13.5450  -11.1740 C   0  0  0  0  0  0  0  0  0  0  0  0
    6.7500  -14.2760  -10.2690 C   0  0  0  0  0  0  0  0  0  0  0  0
    6.3860  -13.2830   -9.1630 C   0  0  0  0  0  0  0  0  0  0  0  0
    7.0900  -11.9770   -9.5170 C   0  0  0  0  0  0  0  0  0  0  0  0
   11.8590  -13.3710   -9.5220 C   0  0  0  0  0  0  0  0  0  0  0  0
   13.1310  -13.9340   -9.2760 C   0  0  0  0  0  0  0  0  0  0  0  0
    8.5476  -14.2808   -6.6649 H   0  0  0  0  0  0  0  0  0  0  0  0
    9.7330  -14.1202   -8.0049 H   0  0  0  0  0  0  0  0  0  0  0  0
    8.5557  -15.4770   -8.0049 H   0  0  0  0  0  0  0  0  0  0  0  0
    9.6227  -13.9736   -4.5970 H   0  0  0  0  0  0  0  0  0  0  0  0
    8.4855  -13.7536   -0.6628 H   0  0  0  0  0  0  0  0  0  0  0  0
    7.2504  -15.8294   -1.2821 H   0  0  0  0  0  0  0  0  0  0  0  0
    8.5120  -17.8683   -1.9691 H   0  0  0  0  0  0  0  0  0  0  0  0
   10.9983  -17.8370   -2.0281 H   0  0  0  0  0  0  0  0  0  0  0  0
   13.0872  -15.8237   -0.4184 H   0  0  0  0  0  0  0  0  0  0  0  0
   12.9927  -16.7199   -1.9723 H   0  0  0  0  0  0  0  0  0  0  0  0
   13.0346  -14.9241   -1.9723 H   0  0  0  0  0  0  0  0  0  0  0  0
   13.7706  -12.9374   -3.9850 H   0  0  0  0  0  0  0  0  0  0  0  0
   14.4079  -14.3257   -5.9477 H   0  0  0  0  0  0  0  0  0  0  0  0
   13.4009  -16.7098   -7.1718 H   0  0  0  0  0  0  0  0  0  0  0  0
   11.9175  -16.2610   -8.0447 H   0  0  0  0  0  0  0  0  0  0  0  0
   15.6577  -15.8010   -8.1842 H   0  0  0  0  0  0  0  0  0  0  0  0
   16.2850  -13.9030   -9.8240 H   0  0  0  0  0  0  0  0  0  0  0  0
   15.0017  -11.9381  -11.3695 H   0  0  0  0  0  0  0  0  0  0  0  0
   12.7244  -10.9748  -11.7950 H   0  0  0  0  0  0  0  0  0  0  0  0
   10.0060  -11.2770   -9.8590 H   0  0  0  0  0  0  0  0  0  0  0  0
    6.4961  -11.7470  -11.6179 H   0  0  0  0  0  0  0  0  0  0  0  0
    7.6157  -13.8678  -12.2191 H   0  0  0  0  0  0  0  0  0  0  0  0
    8.7811  -13.7443  -10.9099 H   0  0  0  0  0  0  0  0  0  0  0  0
    5.8520  -14.5669  -10.8337 H   0  0  0  0  0  0  0  0  0  0  0  0
    7.1866  -15.1983   -9.8582 H   0  0  0  0  0  0  0  0  0  0  0  0
    5.2969  -13.1323   -9.1288 H   0  0  0  0  0  0  0  0  0  0  0  0
    6.6971  -13.6515   -8.1744 H   0  0  0  0  0  0  0  0  0  0  0  0
    6.4444  -11.1149   -9.2935 H   0  0  0  0  0  0  0  0  0  0  0  0
    8.0142  -11.8311   -8.9386 H   0  0  0  0  0  0  0  0  0  0  0  0
   10.9752  -13.7671   -9.0006 H   0  0  0  0  0  0  0  0  0  0  0  0
  1  2  1  0
  2  3  1  0
  3  4  2  0
  4  5  1  0
  5  6  1  0
  6  7  2  0
  6  8  1  0
  8  9  1  0
  9 10  2  0
  9 11  2  0
  9 12  1  0
 12 13  2  0
 13 14  1  0
 14 15  2  0
 15 16  1  0
 16 17  2  0
 17 18  1  0
  5 19  2  0
 19 20  1  0
 20 21  2  0
 21 22  1  0
 22 23  1  0
 23 24  2  0
 24 25  1  0
 25 26  1  0
 26 27  2  0
 27 28  1  0
 28 29  2  0
 29 30  1  0
 30 31  1  0
 31 32  2  0
 31 33  1  0
 33 34  1  0
 34 35  1  0
 35 36  1  0
 36 37  1  0
 37 38  1  0
 29 39  1  0
 39 40  2  0
 21  3  1  0
 40 23  1  0
 17 12  1  0
 40 26  1  0
 38 34  1  0
  1 41  1  0
  1 42  1  0
  1 43  1  0
  4 44  1  0
 13 45  1  0
 14 46  1  0
 15 47  1  0
 16 48  1  0
 18 49  1  0
 18 50  1  0
 18 51  1  0
 19 52  1  0
 20 53  1  0
 22 54  1  0
 22 55  1  0
 24 56  1  0
 25 57  1  0
 27 58  1  0
 28 59  1  0
 30 60  1  0
 34 61  1  0
 35 62  1  0
 35 63  1  0
 36 64  1  0
 36 65  1  0
 37 66  1  0
 37 67  1  0
 38 68  1  0
 38 69  1  0
 39 70  1  0
M  CHG  1   8  -1
M  END
>  <meeko>  (7) 
{"is_sidechain": [false], "free_energy": -8.62, "intermolecular_energy": -12.932, "internal_energy": -1.759}

$$$$
LIB_FJVVJMGKCIJNGX__M_PUB_ALL__e8__s20260927
     RDKit          3D

 70 74  0  0  0  0  0  0  0  0999 V2000
    2.0390  -14.1610   -4.7560 C   0  0  0  0  0  0  0  0  0  0  0  0
    2.7180  -12.9950   -4.2840 O   0  0  0  0  0  0  0  0  0  0  0  0
    4.0790  -13.0320   -4.4730 C   0  0  0  0  0  0  0  0  0  0  0  0
    4.6880  -13.9460   -5.3420 C   0  0  0  0  0  0  0  0  0  0  0  0
    6.0720  -13.9250   -5.5450 C   0  0  0  0  0  0  0  0  0  0  0  0
    6.7630  -14.8650   -6.4880 C   0  0  0  0  0  0  0  0  0  0  0  0
    6.5690  -14.6800   -7.6910 O   0  0  0  0  0  0  0  0  0  0  0  0
    7.6180  -15.7670   -6.0050 N   0  0  0  0  0  0  0  0  0  0  0  0
    6.9980  -17.0200   -5.2380 S   0  0  0  0  0  0  0  0  0  0  0  0
    7.8640  -18.1780   -5.0290 O   0  0  0  0  0  0  0  0  0  0  0  0
    5.6440  -17.3690   -5.6750 O   0  0  0  0  0  0  0  0  0  0  0  0
    6.7270  -16.4340   -3.5230 C   0  0  0  0  0  0  0  0  0  0  0  0
    5.4390  -16.5620   -2.9840 C   0  0  0  0  0  0  0  0  0  0  0  0
    5.1800  -16.1380   -1.6820 C   0  0  0  0  0  0  0  0  0  0  0  0
    6.2040  -15.5900   -0.9150 C   0  0  0  0  0  0  0  0  0  0  0  0
    7.4890  -15.4620   -1.4510 C   0  0  0  0  0  0  0  0  0  0  0  0
    7.7730  -15.8740   -2.7640 C   0  0  0  0  0  0  0  0  0  0  0  0
    9.1770  -15.7290   -3.2780 C   0  0  0  0  0  0  0  0  0  0  0  0
    6.8530  -13.0250   -4.8120 C   0  0  0  0  0  0  0  0  0  0  0  0
    6.2560  -12.1450   -3.9060 C   0  0  0  0  0  0  0  0  0  0  0  0
    4.8620  -12.1340   -3.7260 C   0  0  0  0  0  0  0  0  0  0  0  0
    4.2370  -11.1590   -2.7550 C   0  0  0  0  0  0  0  0  0  0  0  0
    4.3100  -11.7850   -1.3950 C   0  0  0  0  0  0  0  0  0  0  0  0
    3.2520  -12.3020   -0.6670 C   0  0  0  0  0  0  0  0  0  0  0  0
    3.7280  -12.7560    0.5300 N   0  0  0  0  0  0  0  0  0  0  0  0
    5.0920  -12.5980    0.5900 C   0  0  0  0  0  0  0  0  0  0  0  0
    5.9950  -12.9350    1.6020 C   0  0  0  0  0  0  0  0  0  0  0  0
    7.3500  -12.6400    1.3960 C   0  0  0  0  0  0  0  0  0  0  0  0
    7.7880  -12.0250    0.2240 C   0  0  0  0  0  0  0  0  0  0  0  0
    9.1320  -11.6980   -0.0300 N   0  0  0  0  0  0  0  0  0  0  0  0
   10.2050  -12.5320   -0.1600 C   0  0  0  0  0  0  0  0  0  0  0  0
   10.2290  -13.7510   -0.1000 O   0  0  0  0  0  0  0  0  0  0  0  0
   11.3030  -11.7600   -0.3840 O   0  0  0  0  0  0  0  0  0  0  0  0
   12.2150  -12.2630   -1.3620 C   0  0  0  0  0  0  0  0  0  0  0  0
   11.5380  -12.2870   -2.7270 C   0  0  0  0  0  0  0  0  0  0  0  0
   12.6980  -12.3440   -3.7110 C   0  0  0  0  0  0  0  0  0  0  0  0
   13.8720  -11.6580   -3.0090 C   0  0  0  0  0  0  0  0  0  0  0  0
   13.3850  -11.3150   -1.6040 C   0  0  0  0  0  0  0  0  0  0  0  0
    6.8570  -11.6940   -0.7760 C   0  0  0  0  0  0  0  0  0  0  0  0
    5.4870  -11.9860   -0.5990 C   0  0  0  0  0  0  0  0  0  0  0  0
    1.6925  -14.7560   -3.8981 H   0  0  0  0  0  0  0  0  0  0  0  0
    1.1749  -13.8602   -5.3665 H   0  0  0  0  0  0  0  0  0  0  0  0
    2.7271  -14.7641   -5.3665 H   0  0  0  0  0  0  0  0  0  0  0  0
    4.0716  -14.6882   -5.8705 H   0  0  0  0  0  0  0  0  0  0  0  0
    4.6312  -16.9980   -3.5901 H   0  0  0  0  0  0  0  0  0  0  0  0
    4.1684  -16.2362   -1.2613 H   0  0  0  0  0  0  0  0  0  0  0  0
    6.0021  -15.2573    0.1139 H   0  0  0  0  0  0  0  0  0  0  0  0
    8.2915  -15.0313   -0.8341 H   0  0  0  0  0  0  0  0  0  0  0  0
    9.8727  -15.6572   -2.4290 H   0  0  0  0  0  0  0  0  0  0  0  0
    9.4355  -16.6052   -3.8907 H   0  0  0  0  0  0  0  0  0  0  0  0
    9.2510  -14.8184   -3.8907 H   0  0  0  0  0  0  0  0  0  0  0  0
    7.9442  -13.0102   -4.9499 H   0  0  0  0  0  0  0  0  0  0  0  0
    6.8843  -11.4525   -3.3266 H   0  0  0  0  0  0  0  0  0  0  0  0
    4.7921  -10.2093   -2.7637 H   0  0  0  0  0  0  0  0  0  0  0  0
    3.1944  -10.9439   -3.0320 H   0  0  0  0  0  0  0  0  0  0  0  0
    2.2035  -12.3407   -0.9973 H   0  0  0  0  0  0  0  0  0  0  0  0
    3.1580  -13.1430    1.2690 H   0  0  0  0  0  0  0  0  0  0  0  0
    5.6536  -13.4163    2.5303 H   0  0  0  0  0  0  0  0  0  0  0  0
    8.0824  -12.8990    2.1748 H   0  0  0  0  0  0  0  0  0  0  0  0
    9.3660  -10.7210   -0.1290 H   0  0  0  0  0  0  0  0  0  0  0  0
   12.5381  -13.2439   -0.9832 H   0  0  0  0  0  0  0  0  0  0  0  0
   10.8945  -13.1733   -2.8290 H   0  0  0  0  0  0  0  0  0  0  0  0
   10.8849  -11.4173   -2.8916 H   0  0  0  0  0  0  0  0  0  0  0  0
   12.9497  -13.3885   -3.9468 H   0  0  0  0  0  0  0  0  0  0  0  0
   12.4485  -11.8492   -4.6612 H   0  0  0  0  0  0  0  0  0  0  0  0
   14.7358  -12.3372   -2.9582 H   0  0  0  0  0  0  0  0  0  0  0  0
   14.1943  -10.7578   -3.5529 H   0  0  0  0  0  0  0  0  0  0  0  0
   14.1816  -11.4842   -0.8645 H   0  0  0  0  0  0  0  0  0  0  0  0
   13.0933  -10.2586   -1.5092 H   0  0  0  0  0  0  0  0  0  0  0  0
    7.1975  -11.2052   -1.7007 H   0  0  0  0  0  0  0  0  0  0  0  0
  1  2  1  0
  2  3  1  0
  3  4  2  0
  4  5  1  0
  5  6  1  0
  6  7  2  0
  6  8  1  0
  8  9  1  0
  9 10  2  0
  9 11  2  0
  9 12  1  0
 12 13  2  0
 13 14  1  0
 14 15  2  0
 15 16  1  0
 16 17  2  0
 17 18  1  0
  5 19  2  0
 19 20  1  0
 20 21  2  0
 21 22  1  0
 22 23  1  0
 23 24  2  0
 24 25  1  0
 25 26  1  0
 26 27  2  0
 27 28  1  0
 28 29  2  0
 29 30  1  0
 30 31  1  0
 31 32  2  0
 31 33  1  0
 33 34  1  0
 34 35  1  0
 35 36  1  0
 36 37  1  0
 37 38  1  0
 29 39  1  0
 39 40  2  0
 21  3  1  0
 40 23  1  0
 17 12  1  0
 40 26  1  0
 38 34  1  0
  1 41  1  0
  1 42  1  0
  1 43  1  0
  4 44  1  0
 13 45  1  0
 14 46  1  0
 15 47  1  0
 16 48  1  0
 18 49  1  0
 18 50  1  0
 18 51  1  0
 19 52  1  0
 20 53  1  0
 22 54  1  0
 22 55  1  0
 24 56  1  0
 25 57  1  0
 27 58  1  0
 28 59  1  0
 30 60  1  0
 34 61  1  0
 35 62  1  0
 35 63  1  0
 36 64  1  0
 36 65  1  0
 37 66  1  0
 37 67  1  0
 38 68  1  0
 38 69  1  0
 39 70  1  0
M  CHG  1   8  -1
M  END
>  <meeko>  (8) 
{"is_sidechain": [false], "free_energy": -8.606, "intermolecular_energy": -11.193, "internal_energy": -3.476}

$$$$
LIB_FJVVJMGKCIJNGX__M_PUB_ALL__e8__s20260927
     RDKit          3D

 70 74  0  0  0  0  0  0  0  0999 V2000
    9.8560  -15.0940   -6.1340 C   0  0  0  0  0  0  0  0  0  0  0  0
    9.5010  -16.3110   -5.4750 O   0  0  0  0  0  0  0  0  0  0  0  0
    9.3290  -16.1760   -4.1180 C   0  0  0  0  0  0  0  0  0  0  0  0
   10.3650  -15.7630   -3.2710 C   0  0  0  0  0  0  0  0  0  0  0  0
   10.1420  -15.5930   -1.9010 C   0  0  0  0  0  0  0  0  0  0  0  0
   11.2140  -15.1240   -0.9610 C   0  0  0  0  0  0  0  0  0  0  0  0
   12.2720  -15.7570   -0.9720 O   0  0  0  0  0  0  0  0  0  0  0  0
   11.0230  -14.0100   -0.2530 N   0  0  0  0  0  0  0  0  0  0  0  0
   11.0730  -12.6270   -1.0440 S   0  0  0  0  0  0  0  0  0  0  0  0
   11.8630  -12.5810   -2.2730 O   0  0  0  0  0  0  0  0  0  0  0  0
   11.2600  -11.4590   -0.1800 O   0  0  0  0  0  0  0  0  0  0  0  0
    9.3700  -12.3880   -1.6780 C   0  0  0  0  0  0  0  0  0  0  0  0
    9.1870  -12.3620   -3.0680 C   0  0  0  0  0  0  0  0  0  0  0  0
    7.9120  -12.1890   -3.6030 C   0  0  0  0  0  0  0  0  0  0  0  0
    6.8180  -12.0460   -2.7540 C   0  0  0  0  0  0  0  0  0  0  0  0
    6.9990  -12.0730   -1.3680 C   0  0  0  0  0  0  0  0  0  0  0  0
    8.2760  -12.2370   -0.8040 C   0  0  0  0  0  0  0  0  0  0  0  0
    8.4050  -12.2760    0.6910 C   0  0  0  0  0  0  0  0  0  0  0  0
    8.8870  -15.9120   -1.3710 C   0  0  0  0  0  0  0  0  0  0  0  0
    7.8640  -16.3730   -2.2030 C   0  0  0  0  0  0  0  0  0  0  0  0
    8.0700  -16.5090   -3.5880 C   0  0  0  0  0  0  0  0  0  0  0  0
    6.9420  -16.9920   -4.4710 C   0  0  0  0  0  0  0  0  0  0  0  0
    5.8530  -15.9660   -4.3930 C   0  0  0  0  0  0  0  0  0  0  0  0
    4.8190  -15.9280   -3.4730 C   0  0  0  0  0  0  0  0  0  0  0  0
    4.0250  -14.8530   -3.7540 N   0  0  0  0  0  0  0  0  0  0  0  0
    4.5410  -14.1450   -4.8130 C   0  0  0  0  0  0  0  0  0  0  0  0
    4.0810  -12.9760   -5.4260 C   0  0  0  0  0  0  0  0  0  0  0  0
    4.8110  -12.4750   -6.5130 C   0  0  0  0  0  0  0  0  0  0  0  0
    5.9560  -13.1210   -6.9760 C   0  0  0  0  0  0  0  0  0  0  0  0
    6.7190  -12.6680   -8.0670 N   0  0  0  0  0  0  0  0  0  0  0  0
    6.7750  -13.1640   -9.3370 C   0  0  0  0  0  0  0  0  0  0  0  0
    6.1590  -14.1060   -9.8110 O   0  0  0  0  0  0  0  0  0  0  0  0
    7.6630  -12.4080  -10.0390 O   0  0  0  0  0  0  0  0  0  0  0  0
    8.7040  -13.1340  -10.6920 C   0  0  0  0  0  0  0  0  0  0  0  0
    9.2450  -12.3140  -11.8580 C   0  0  0  0  0  0  0  0  0  0  0  0
   10.6110  -12.9260  -12.1340 C   0  0  0  0  0  0  0  0  0  0  0  0
   11.0870  -13.5000  -10.7980 C   0  0  0  0  0  0  0  0  0  0  0  0
    9.9410  -13.2910   -9.8130 C   0  0  0  0  0  0  0  0  0  0  0  0
    6.3940  -14.2970   -6.3420 C   0  0  0  0  0  0  0  0  0  0  0  0
    5.6840  -14.8200   -5.2400 C   0  0  0  0  0  0  0  0  0  0  0  0
   10.0811  -14.3225   -5.3829 H   0  0  0  0  0  0  0  0  0  0  0  0
   10.7423  -15.2628   -6.7632 H   0  0  0  0  0  0  0  0  0  0  0  0
    9.0179  -14.7598   -6.7632 H   0  0  0  0  0  0  0  0  0  0  0  0
   11.3646  -15.5703   -3.6877 H   0  0  0  0  0  0  0  0  0  0  0  0
   10.0519  -12.4784   -3.7376 H   0  0  0  0  0  0  0  0  0  0  0  0
    7.7703  -12.1655   -4.6936 H   0  0  0  0  0  0  0  0  0  0  0  0
    5.8103  -11.9116   -3.1741 H   0  0  0  0  0  0  0  0  0  0  0  0
    6.1265  -11.9640   -0.7071 H   0  0  0  0  0  0  0  0  0  0  0  0
    7.4478  -11.9866    1.1493 H   0  0  0  0  0  0  0  0  0  0  0  0
    8.6710  -13.2947    1.0096 H   0  0  0  0  0  0  0  0  0  0  0  0
    9.1908  -11.5753    1.0096 H   0  0  0  0  0  0  0  0  0  0  0  0
    8.7047  -15.7990   -0.2921 H   0  0  0  0  0  0  0  0  0  0  0  0
    6.8865  -16.6326   -1.7704 H   0  0  0  0  0  0  0  0  0  0  0  0
    7.2918  -17.0931   -5.5090 H   0  0  0  0  0  0  0  0  0  0  0  0
    6.5783  -17.9758   -4.1395 H   0  0  0  0  0  0  0  0  0  0  0  0
    4.6631  -16.6441   -2.6527 H   0  0  0  0  0  0  0  0  0  0  0  0
    3.1750  -14.6180   -3.2610 H   0  0  0  0  0  0  0  0  0  0  0  0
    3.1752  -12.4655   -5.0670 H   0  0  0  0  0  0  0  0  0  0  0  0
    4.4734  -11.5538   -7.0104 H   0  0  0  0  0  0  0  0  0  0  0  0
    7.3200  -11.8700   -7.9190 H   0  0  0  0  0  0  0  0  0  0  0  0
    8.2570  -14.1006  -10.9675 H   0  0  0  0  0  0  0  0  0  0  0  0
    8.5905  -12.4051  -12.7374 H   0  0  0  0  0  0  0  0  0  0  0  0
    9.3000  -11.2391  -11.6310 H   0  0  0  0  0  0  0  0  0  0  0  0
   10.5284  -13.7242  -12.8864 H   0  0  0  0  0  0  0  0  0  0  0  0
   11.3167  -12.1806  -12.5293 H   0  0  0  0  0  0  0  0  0  0  0  0
   11.3103  -14.5721  -10.9014 H   0  0  0  0  0  0  0  0  0  0  0  0
   12.0070  -13.0049  -10.4538 H   0  0  0  0  0  0  0  0  0  0  0  0
    9.8370  -14.1607   -9.1476 H   0  0  0  0  0  0  0  0  0  0  0  0
   10.1038  -12.4199   -9.1614 H   0  0  0  0  0  0  0  0  0  0  0  0
    7.2948  -14.8122   -6.7068 H   0  0  0  0  0  0  0  0  0  0  0  0
  1  2  1  0
  2  3  1  0
  3  4  2  0
  4  5  1  0
  5  6  1  0
  6  7  2  0
  6  8  1  0
  8  9  1  0
  9 10  2  0
  9 11  2  0
  9 12  1  0
 12 13  2  0
 13 14  1  0
 14 15  2  0
 15 16  1  0
 16 17  2  0
 17 18  1  0
  5 19  2  0
 19 20  1  0
 20 21  2  0
 21 22  1  0
 22 23  1  0
 23 24  2  0
 24 25  1  0
 25 26  1  0
 26 27  2  0
 27 28  1  0
 28 29  2  0
 29 30  1  0
 30 31  1  0
 31 32  2  0
 31 33  1  0
 33 34  1  0
 34 35  1  0
 35 36  1  0
 36 37  1  0
 37 38  1  0
 29 39  1  0
 39 40  2  0
 21  3  1  0
 40 23  1  0
 17 12  1  0
 40 26  1  0
 38 34  1  0
  1 41  1  0
  1 42  1  0
  1 43  1  0
  4 44  1  0
 13 45  1  0
 14 46  1  0
 15 47  1  0
 16 48  1  0
 18 49  1  0
 18 50  1  0
 18 51  1  0
 19 52  1  0
 20 53  1  0
 22 54  1  0
 22 55  1  0
 24 56  1  0
 25 57  1  0
 27 58  1  0
 28 59  1  0
 30 60  1  0
 34 61  1  0
 35 62  1  0
 35 63  1  0
 36 64  1  0
 36 65  1  0
 37 66  1  0
 37 67  1  0
 38 68  1  0
 38 69  1  0
 39 70  1  0
M  CHG  1   8  -1
M  END
>  <meeko>  (9) 
{"is_sidechain": [false], "free_energy": -8.464, "intermolecular_energy": -11.092, "internal_energy": -3.351}

$$$$
