LIB_ASWUBISYJRGUGG__M_PUB_ALL__e8__s20260927
     RDKit          3D

 71 75  0  0  0  0  0  0  0  0999 V2000
    3.9890  -11.5960   -2.9600 C   0  0  0  0  0  0  0  0  0  0  0  0
    5.4450  -11.9860   -2.7470 C   0  0  2  0  0  0  0  0  0  0  0  0
    6.1510  -10.8560   -2.2230 O   0  0  0  0  0  0  0  0  0  0  0  0
    6.1510  -12.5030   -4.0140 C   0  0  0  0  0  0  0  0  0  0  0  0
    7.5520  -12.1400   -4.0400 N   0  0  0  0  0  0  0  0  0  0  0  0
    8.5620  -13.0030   -3.7280 C   0  0  0  0  0  0  0  0  0  0  0  0
    8.1880  -14.2380   -3.3880 N   0  0  0  0  0  0  0  0  0  0  0  0
    9.1650  -15.1080   -3.0830 C   0  0  0  0  0  0  0  0  0  0  0  0
   10.5010  -14.7880   -3.0870 C   0  0  0  0  0  0  0  0  0  0  0  0
   10.7980  -13.4850   -3.4210 C   0  0  0  0  0  0  0  0  0  0  0  0
   12.1460  -13.0120   -3.4750 N   0  0  0  0  0  0  0  0  0  0  0  0
   12.9620  -13.1700   -4.5810 C   0  0  0  0  0  0  0  0  0  0  0  0
   14.2140  -12.7720   -4.1960 C   0  0  0  0  0  0  0  0  0  0  0  0
   14.1910  -12.3000   -2.9170 N   0  0  0  0  0  0  0  0  0  0  0  0
   12.9270  -12.3530   -2.5220 C   0  0  0  0  0  0  0  0  0  0  0  0
   12.4700  -11.7340   -1.2770 C   0  0  0  0  0  0  0  0  0  0  0  0
   13.1890  -10.6980   -0.6700 C   0  0  0  0  0  0  0  0  0  0  0  0
   12.7280  -10.1290    0.5160 C   0  0  0  0  0  0  0  0  0  0  0  0
   11.5570  -10.6030    1.1150 C   0  0  0  0  0  0  0  0  0  0  0  0
   10.8440  -11.6580    0.5430 C   0  0  0  0  0  0  0  0  0  0  0  0
    9.6760  -12.2170    1.1030 N   0  0  0  0  0  0  0  0  0  0  0  0
    8.4420  -12.3860    0.4900 C   0  0  0  0  0  0  0  0  0  0  0  0
    8.2170  -12.1810   -0.6940 O   0  0  0  0  0  0  0  0  0  0  0  0
    7.5030  -12.8280    1.4120 N   0  0  0  0  0  0  0  0  0  0  0  0
    6.1690  -13.2150    1.1690 C   0  0  0  0  0  0  0  0  0  0  0  0
    5.2450  -12.1960    0.9330 C   0  0  0  0  0  0  0  0  0  0  0  0
    3.9010  -12.4950    0.6890 C   0  0  0  0  0  0  0  0  0  0  0  0
    3.4430  -13.8190    0.6750 C   0  0  0  0  0  0  0  0  0  0  0  0
    2.1050  -14.1090    0.4440 N   0  0  0  0  0  0  0  0  0  0  0  0
    1.1440  -13.5900    1.4340 C   0  0  0  0  0  0  0  0  0  0  0  0
   -0.2210  -14.2690    1.2340 C   0  0  0  0  0  0  0  0  0  0  0  0
   -0.6910  -14.1200   -0.1170 O   0  0  0  0  0  0  0  0  0  0  0  0
    0.2380  -14.7280   -1.0310 C   0  0  0  0  0  0  0  0  0  0  0  0
    1.6230  -14.0670   -0.9470 C   0  0  0  0  0  0  0  0  0  0  0  0
    4.3650  -14.8510    0.9190 C   0  0  0  0  0  0  0  0  0  0  0  0
    3.9260  -16.2940    0.9060 C   0  0  0  0  0  0  0  0  0  0  0  0
    2.8590  -16.5420    1.7240 F   0  0  0  0  0  0  0  0  0  0  0  0
    4.8960  -17.1610    1.3270 F   0  0  0  0  0  0  0  0  0  0  0  0
    3.5670  -16.7430   -0.3320 F   0  0  0  0  0  0  0  0  0  0  0  0
    5.7210  -14.5350    1.1640 C   0  0  0  0  0  0  0  0  0  0  0  0
   11.3150  -12.2250   -0.6480 C   0  0  0  0  0  0  0  0  0  0  0  0
    9.8340  -12.5970   -3.7660 N   0  0  0  0  0  0  0  0  0  0  0  0
    3.4981  -11.4645   -1.9844 H   0  0  0  0  0  0  0  0  0  0  0  0
    3.9408  -10.6533   -3.5247 H   0  0  0  0  0  0  0  0  0  0  0  0
    3.4760  -12.3884   -3.5247 H   0  0  0  0  0  0  0  0  0  0  0  0
    5.4507  -12.8279   -2.0391 H   0  0  0  0  0  0  0  0  0  0  0  0
    6.5960  -10.4530   -2.9920 H   0  0  0  0  0  0  0  0  0  0  0  0
    6.0675  -13.5994   -4.0448 H   0  0  0  0  0  0  0  0  0  0  0  0
    5.6642  -12.0424   -4.8863 H   0  0  0  0  0  0  0  0  0  0  0  0
    7.8380  -11.1820   -4.1800 H   0  0  0  0  0  0  0  0  0  0  0  0
    8.8789  -16.1357   -2.8146 H   0  0  0  0  0  0  0  0  0  0  0  0
   11.2813  -15.5230   -2.8400 H   0  0  0  0  0  0  0  0  0  0  0  0
   12.6640  -13.5415   -5.5726 H   0  0  0  0  0  0  0  0  0  0  0  0
   15.1119  -12.8254   -4.8292 H   0  0  0  0  0  0  0  0  0  0  0  0
   14.1191  -10.3323   -1.1295 H   0  0  0  0  0  0  0  0  0  0  0  0
   13.2873   -9.3044    0.9821 H   0  0  0  0  0  0  0  0  0  0  0  0
   11.1945  -10.1406    2.0449 H   0  0  0  0  0  0  0  0  0  0  0  0
    9.7700  -12.5880    2.0360 H   0  0  0  0  0  0  0  0  0  0  0  0
    7.7860  -12.8100    2.3790 H   0  0  0  0  0  0  0  0  0  0  0  0
    5.5773  -11.1474    0.9390 H   0  0  0  0  0  0  0  0  0  0  0  0
    3.1904  -11.6758    0.5047 H   0  0  0  0  0  0  0  0  0  0  0  0
    1.5131  -13.8020    2.4483 H   0  0  0  0  0  0  0  0  0  0  0  0
    1.0342  -12.5036    1.3013 H   0  0  0  0  0  0  0  0  0  0  0  0
   -0.1240  -15.3406    1.4626 H   0  0  0  0  0  0  0  0  0  0  0  0
   -0.9470  -13.7892    1.9068 H   0  0  0  0  0  0  0  0  0  0  0  0
    0.3356  -15.7956   -0.7844 H   0  0  0  0  0  0  0  0  0  0  0  0
   -0.1464  -14.5965   -2.0532 H   0  0  0  0  0  0  0  0  0  0  0  0
    2.3274  -14.6086   -1.5954 H   0  0  0  0  0  0  0  0  0  0  0  0
    1.5498  -13.0204   -1.2776 H   0  0  0  0  0  0  0  0  0  0  0  0
    6.4374  -15.3476    1.3546 H   0  0  0  0  0  0  0  0  0  0  0  0
   10.7711  -13.0687   -1.0978 H   0  0  0  0  0  0  0  0  0  0  0  0
  1  2  1  0
  2  3  1  0
  2  4  1  0
  4  5  1  0
  5  6  1  0
  6  7  2  0
  7  8  1  0
  8  9  2  0
  9 10  1  0
 10 11  1  0
 11 12  1  0
 12 13  2  0
 13 14  1  0
 14 15  2  0
 15 16  1  0
 16 17  2  0
 17 18  1  0
 18 19  2  0
 19 20  1  0
 20 21  1  0
 21 22  1  0
 22 23  2  0
 22 24  1  0
 24 25  1  0
 25 26  2  0
 26 27  1  0
 27 28  2  0
 28 29  1  0
 29 30  1  0
 30 31  1  0
 31 32  1  0
 32 33  1  0
 33 34  1  0
 28 35  1  0
 35 36  1  0
 36 37  1  0
 36 38  1  0
 36 39  1  0
 35 40  2  0
 20 41  2  0
 10 42  2  0
 42  6  1  0
 15 11  1  0
 41 16  1  0
 40 25  1  0
 34 29  1  0
  1 43  1  0
  1 44  1  0
  1 45  1  0
  2 46  1  1
  3 47  1  0
  4 48  1  0
  4 49  1  0
  5 50  1  0
  8 51  1  0
  9 52  1  0
 12 53  1  0
 13 54  1  0
 17 55  1  0
 18 56  1  0
 19 57  1  0
 21 58  1  0
 24 59  1  0
 26 60  1  0
 27 61  1  0
 30 62  1  0
 30 63  1  0
 31 64  1  0
 31 65  1  0
 33 66  1  0
 33 67  1  0
 34 68  1  0
 34 69  1  0
 40 70  1  0
 41 71  1  0
M  END
>  <meeko>  (1) 
{"is_sidechain": [false], "free_energy": -8.288, "intermolecular_energy": -12.89, "internal_energy": -2.115}

$$$$
LIB_ASWUBISYJRGUGG__M_PUB_ALL__e8__s20260927
     RDKit          3D

 71 75  0  0  0  0  0  0  0  0999 V2000
   12.0250  -13.4370    0.1790 C   0  0  0  0  0  0  0  0  0  0  0  0
   10.9260  -12.3940    0.3200 C   0  0  2  0  0  0  0  0  0  0  0  0
   10.5440  -12.3130    1.6970 O   0  0  0  0  0  0  0  0  0  0  0  0
    9.6860  -12.6640   -0.5520 C   0  0  0  0  0  0  0  0  0  0  0  0
    8.6450  -13.3510    0.1830 N   0  0  0  0  0  0  0  0  0  0  0  0
    7.4650  -12.7700    0.5430 C   0  0  0  0  0  0  0  0  0  0  0  0
    7.5430  -11.5060    0.9650 N   0  0  0  0  0  0  0  0  0  0  0  0
    6.3920  -10.9100    1.3200 C   0  0  0  0  0  0  0  0  0  0  0  0
    5.1680  -11.5320    1.2860 C   0  0  0  0  0  0  0  0  0  0  0  0
    5.1810  -12.8440    0.8660 C   0  0  0  0  0  0  0  0  0  0  0  0
    3.9800  -13.6140    0.7720 N   0  0  0  0  0  0  0  0  0  0  0  0
    3.5060  -14.4080    1.8010 C   0  0  0  0  0  0  0  0  0  0  0  0
    2.4630  -15.1280    1.2820 C   0  0  0  0  0  0  0  0  0  0  0  0
    2.2230  -14.7560   -0.0070 N   0  0  0  0  0  0  0  0  0  0  0  0
    3.0720  -13.7760   -0.2770 C   0  0  0  0  0  0  0  0  0  0  0  0
    2.9780  -12.9740   -1.4980 C   0  0  0  0  0  0  0  0  0  0  0  0
    2.3010  -11.7500   -1.5170 C   0  0  0  0  0  0  0  0  0  0  0  0
    2.2290  -11.0100   -2.6960 C   0  0  0  0  0  0  0  0  0  0  0  0
    2.8160  -11.4950   -3.8690 C   0  0  0  0  0  0  0  0  0  0  0  0
    3.4680  -12.7290   -3.8780 C   0  0  0  0  0  0  0  0  0  0  0  0
    4.0530  -13.3040   -5.0250 N   0  0  0  0  0  0  0  0  0  0  0  0
    5.2960  -13.0190   -5.5750 C   0  0  0  0  0  0  0  0  0  0  0  0
    6.1360  -12.2940   -5.0610 O   0  0  0  0  0  0  0  0  0  0  0  0
    5.4490  -13.6790   -6.7860 N   0  0  0  0  0  0  0  0  0  0  0  0
    6.5990  -13.7310   -7.6010 C   0  0  0  0  0  0  0  0  0  0  0  0
    7.7180  -14.3840   -7.0800 C   0  0  0  0  0  0  0  0  0  0  0  0
    8.9000  -14.4750   -7.8230 C   0  0  0  0  0  0  0  0  0  0  0  0
    8.9960  -13.9160   -9.1040 C   0  0  0  0  0  0  0  0  0  0  0  0
   10.1760  -14.0000   -9.8310 N   0  0  0  0  0  0  0  0  0  0  0  0
   11.1790  -12.9520   -9.5720 C   0  0  0  0  0  0  0  0  0  0  0  0
   12.2540  -12.9800  -10.6710 C   0  0  0  0  0  0  0  0  0  0  0  0
   12.8450  -14.2850  -10.7970 O   0  0  0  0  0  0  0  0  0  0  0  0
   11.8360  -15.2500  -11.1460 C   0  0  0  0  0  0  0  0  0  0  0  0
   10.7460  -15.3380  -10.0660 C   0  0  0  0  0  0  0  0  0  0  0  0
    7.8770  -13.2520   -9.6330 C   0  0  0  0  0  0  0  0  0  0  0  0
    7.9260  -12.6420  -11.0120 C   0  0  0  0  0  0  0  0  0  0  0  0
    8.4250  -13.4890  -11.9610 F   0  0  0  0  0  0  0  0  0  0  0  0
    8.7190  -11.5300  -11.0860 F   0  0  0  0  0  0  0  0  0  0  0  0
    6.7070  -12.2340  -11.4710 F   0  0  0  0  0  0  0  0  0  0  0  0
    6.6890  -13.1670   -8.8730 C   0  0  0  0  0  0  0  0  0  0  0  0
    3.5340  -13.4670   -2.6890 C   0  0  0  0  0  0  0  0  0  0  0  0
    6.3220  -13.4570    0.4700 N   0  0  0  0  0  0  0  0  0  0  0  0
   12.3595  -13.7545    1.1777 H   0  0  0  0  0  0  0  0  0  0  0  0
   11.6367  -14.3067   -0.3713 H   0  0  0  0  0  0  0  0  0  0  0  0
   12.8732  -13.0038   -0.3713 H   0  0  0  0  0  0  0  0  0  0  0  0
   11.3409  -11.4407   -0.0393 H   0  0  0  0  0  0  0  0  0  0  0  0
    9.7640  -12.8920    1.7810 H   0  0  0  0  0  0  0  0  0  0  0  0
    9.2904  -11.7035   -0.9139 H   0  0  0  0  0  0  0  0  0  0  0  0
    9.9930  -13.3087   -1.3887 H   0  0  0  0  0  0  0  0  0  0  0  0
    8.8020  -14.2710    0.5680 H   0  0  0  0  0  0  0  0  0  0  0  0
    6.4326   -9.8638    1.6572 H   0  0  0  0  0  0  0  0  0  0  0  0
    4.2397  -11.0172    1.5747 H   0  0  0  0  0  0  0  0  0  0  0  0
    3.8903  -14.4522    2.8308 H   0  0  0  0  0  0  0  0  0  0  0  0
    1.8986  -15.8980    1.8284 H   0  0  0  0  0  0  0  0  0  0  0  0
    1.8250  -11.3711   -0.6006 H   0  0  0  0  0  0  0  0  0  0  0  0
    1.7085  -10.0409   -2.7038 H   0  0  0  0  0  0  0  0  0  0  0  0
    2.7634  -10.8991   -4.7921 H   0  0  0  0  0  0  0  0  0  0  0  0
    3.5310  -14.0500   -5.4590 H   0  0  0  0  0  0  0  0  0  0  0  0
    4.6240  -14.1190   -7.1620 H   0  0  0  0  0  0  0  0  0  0  0  0
    7.6697  -14.8310   -6.0761 H   0  0  0  0  0  0  0  0  0  0  0  0
    9.7693  -14.9947   -7.3938 H   0  0  0  0  0  0  0  0  0  0  0  0
   10.6869  -11.9682   -9.5670 H   0  0  0  0  0  0  0  0  0  0  0  0
   11.6517  -13.1338   -8.5955 H   0  0  0  0  0  0  0  0  0  0  0  0
   11.7921  -12.7027  -11.6300 H   0  0  0  0  0  0  0  0  0  0  0  0
   13.0460  -12.2674  -10.3973 H   0  0  0  0  0  0  0  0  0  0  0  0
   11.3726  -14.9544  -12.0988 H   0  0  0  0  0  0  0  0  0  0  0  0
   12.3159  -16.2358  -11.2343 H   0  0  0  0  0  0  0  0  0  0  0  0
    9.9517  -16.0208  -10.4020 H   0  0  0  0  0  0  0  0  0  0  0  0
   11.1861  -15.7175   -9.1320 H   0  0  0  0  0  0  0  0  0  0  0  0
    5.8169  -12.6450   -9.2936 H   0  0  0  0  0  0  0  0  0  0  0  0
    4.0297  -14.4490   -2.6887 H   0  0  0  0  0  0  0  0  0  0  0  0
  1  2  1  0
  2  3  1  0
  2  4  1  0
  4  5  1  0
  5  6  1  0
  6  7  2  0
  7  8  1  0
  8  9  2  0
  9 10  1  0
 10 11  1  0
 11 12  1  0
 12 13  2  0
 13 14  1  0
 14 15  2  0
 15 16  1  0
 16 17  2  0
 17 18  1  0
 18 19  2  0
 19 20  1  0
 20 21  1  0
 21 22  1  0
 22 23  2  0
 22 24  1  0
 24 25  1  0
 25 26  2  0
 26 27  1  0
 27 28  2  0
 28 29  1  0
 29 30  1  0
 30 31  1  0
 31 32  1  0
 32 33  1  0
 33 34  1  0
 28 35  1  0
 35 36  1  0
 36 37  1  0
 36 38  1  0
 36 39  1  0
 35 40  2  0
 20 41  2  0
 10 42  2  0
 42  6  1  0
 15 11  1  0
 41 16  1  0
 40 25  1  0
 34 29  1  0
  1 43  1  0
  1 44  1  0
  1 45  1  0
  2 46  1  6
  3 47  1  0
  4 48  1  0
  4 49  1  0
  5 50  1  0
  8 51  1  0
  9 52  1  0
 12 53  1  0
 13 54  1  0
 17 55  1  0
 18 56  1  0
 19 57  1  0
 21 58  1  0
 24 59  1  0
 26 60  1  0
 27 61  1  0
 30 62  1  0
 30 63  1  0
 31 64  1  0
 31 65  1  0
 33 66  1  0
 33 67  1  0
 34 68  1  0
 34 69  1  0
 40 70  1  0
 41 71  1  0
M  END
>  <meeko>  (2) 
{"is_sidechain": [false], "free_energy": -8.096, "intermolecular_energy": -13.05, "internal_energy": -1.657}

$$$$
LIB_ASWUBISYJRGUGG__M_PUB_ALL__e8__s20260927
     RDKit          3D

 71 75  0  0  0  0  0  0  0  0999 V2000
    2.0220  -15.1090   -2.3870 C   0  0  0  0  0  0  0  0  0  0  0  0
    1.2270  -15.5070   -1.1510 C   0  0  2  0  0  0  0  0  0  0  0  0
    0.1820  -14.5490   -0.9520 O   0  0  0  0  0  0  0  0  0  0  0  0
    2.0730  -15.6320    0.1290 C   0  0  0  0  0  0  0  0  0  0  0  0
    1.3280  -16.2350    1.2140 N   0  0  0  0  0  0  0  0  0  0  0  0
    0.7190  -15.5170    2.2010 C   0  0  0  0  0  0  0  0  0  0  0  0
    1.4110  -15.3790    3.3340 N   0  0  0  0  0  0  0  0  0  0  0  0
    0.8340  -14.6710    4.3190 C   0  0  0  0  0  0  0  0  0  0  0  0
   -0.4160  -14.1100    4.2240 C   0  0  0  0  0  0  0  0  0  0  0  0
   -1.0730  -14.3240    3.0330 C   0  0  0  0  0  0  0  0  0  0  0  0
   -2.3770  -13.7920    2.7890 N   0  0  0  0  0  0  0  0  0  0  0  0
   -3.5440  -14.4800    3.0740 C   0  0  0  0  0  0  0  0  0  0  0  0
   -4.5660  -13.7460    2.5340 C   0  0  0  0  0  0  0  0  0  0  0  0
   -4.0860  -12.5910    1.9900 N   0  0  0  0  0  0  0  0  0  0  0  0
   -2.7840  -12.5760    2.2340 C   0  0  0  0  0  0  0  0  0  0  0  0
   -1.9570  -11.3940    1.9880 C   0  0  0  0  0  0  0  0  0  0  0  0
   -1.9330  -10.3190    2.8840 C   0  0  0  0  0  0  0  0  0  0  0  0
   -1.1350   -9.2080    2.6210 C   0  0  0  0  0  0  0  0  0  0  0  0
   -0.3680   -9.1520    1.4530 C   0  0  0  0  0  0  0  0  0  0  0  0
   -0.4030  -10.1990    0.5300 C   0  0  0  0  0  0  0  0  0  0  0  0
    0.3110  -10.2040   -0.6860 N   0  0  0  0  0  0  0  0  0  0  0  0
    1.3030  -11.0910   -1.0810 C   0  0  0  0  0  0  0  0  0  0  0  0
    1.6250  -12.0970   -0.4650 O   0  0  0  0  0  0  0  0  0  0  0  0
    1.8700  -10.6770   -2.2780 N   0  0  0  0  0  0  0  0  0  0  0  0
    2.8310  -11.3520   -3.0580 C   0  0  0  0  0  0  0  0  0  0  0  0
    2.3690  -12.0410   -4.1810 C   0  0  0  0  0  0  0  0  0  0  0  0
    3.2570  -12.7410   -5.0030 C   0  0  0  0  0  0  0  0  0  0  0  0
    4.6300  -12.7740   -4.7260 C   0  0  0  0  0  0  0  0  0  0  0  0
    5.5050  -13.4810   -5.5400 N   0  0  0  0  0  0  0  0  0  0  0  0
    5.5800  -14.9350   -5.3110 C   0  0  0  0  0  0  0  0  0  0  0  0
    6.8110  -15.5100   -6.0310 C   0  0  0  0  0  0  0  0  0  0  0  0
    6.8080  -15.1740   -7.4300 O   0  0  0  0  0  0  0  0  0  0  0  0
    6.8320  -13.7450   -7.5930 C   0  0  0  0  0  0  0  0  0  0  0  0
    5.5990  -13.0860   -6.9560 C   0  0  0  0  0  0  0  0  0  0  0  0
    5.1030  -12.0900   -3.5940 C   0  0  0  0  0  0  0  0  0  0  0  0
    6.5740  -12.0860   -3.2560 C   0  0  0  0  0  0  0  0  0  0  0  0
    6.9010  -11.1920   -2.2770 F   0  0  0  0  0  0  0  0  0  0  0  0
    7.3730  -11.7530   -4.3140 F   0  0  0  0  0  0  0  0  0  0  0  0
    7.0380  -13.2980   -2.8330 F   0  0  0  0  0  0  0  0  0  0  0  0
    4.1950  -11.3860   -2.7710 C   0  0  0  0  0  0  0  0  0  0  0  0
   -1.2100  -11.3120    0.8020 C   0  0  0  0  0  0  0  0  0  0  0  0
   -0.5000  -15.0050    2.0110 N   0  0  0  0  0  0  0  0  0  0  0  0
    2.9663  -14.6363   -2.0791 H   0  0  0  0  0  0  0  0  0  0  0  0
    2.2391  -16.0047   -2.9875 H   0  0  0  0  0  0  0  0  0  0  0  0
    1.4350  -14.3985   -2.9875 H   0  0  0  0  0  0  0  0  0  0  0  0
    0.8224  -16.5125   -1.3389 H   0  0  0  0  0  0  0  0  0  0  0  0
    0.3380  -14.1810   -0.0620 H   0  0  0  0  0  0  0  0  0  0  0  0
    2.9536  -16.2550   -0.0866 H   0  0  0  0  0  0  0  0  0  0  0  0
    2.3690  -14.6196    0.4412 H   0  0  0  0  0  0  0  0  0  0  0  0
    1.3270  -17.2350    1.3520 H   0  0  0  0  0  0  0  0  0  0  0  0
    1.3947  -14.5326    5.2552 H   0  0  0  0  0  0  0  0  0  0  0  0
   -0.8623  -13.5287    5.0443 H   0  0  0  0  0  0  0  0  0  0  0  0
   -3.6326  -15.4280    3.6248 H   0  0  0  0  0  0  0  0  0  0  0  0
   -5.6244  -14.0455    2.5383 H   0  0  0  0  0  0  0  0  0  0  0  0
   -2.5453  -10.3515    3.7973 H   0  0  0  0  0  0  0  0  0  0  0  0
   -1.1080   -8.3715    3.3348 H   0  0  0  0  0  0  0  0  0  0  0  0
    0.2682   -8.2757    1.2598 H   0  0  0  0  0  0  0  0  0  0  0  0
    0.0230   -9.5190   -1.3670 H   0  0  0  0  0  0  0  0  0  0  0  0
    1.6150   -9.7550   -2.5970 H   0  0  0  0  0  0  0  0  0  0  0  0
    1.2956  -12.0330   -4.4214 H   0  0  0  0  0  0  0  0  0  0  0  0
    2.8707  -13.2756   -5.8833 H   0  0  0  0  0  0  0  0  0  0  0  0
    5.6626  -15.1314   -4.2318 H   0  0  0  0  0  0  0  0  0  0  0  0
    4.6711  -15.4133   -5.7049 H   0  0  0  0  0  0  0  0  0  0  0  0
    7.7203  -15.1004   -5.5669 H   0  0  0  0  0  0  0  0  0  0  0  0
    6.7842  -16.6058   -5.9391 H   0  0  0  0  0  0  0  0  0  0  0  0
    7.7383  -13.3456   -7.1144 H   0  0  0  0  0  0  0  0  0  0  0  0
    6.8267  -13.5198   -8.6697 H   0  0  0  0  0  0  0  0  0  0  0  0
    5.6912  -11.9921   -7.0258 H   0  0  0  0  0  0  0  0  0  0  0  0
    4.6935  -13.4133   -7.4879 H   0  0  0  0  0  0  0  0  0  0  0  0
    4.5723  -10.8537   -1.8854 H   0  0  0  0  0  0  0  0  0  0  0  0
   -1.2590  -12.1352    0.0741 H   0  0  0  0  0  0  0  0  0  0  0  0
  1  2  1  0
  2  3  1  0
  2  4  1  0
  4  5  1  0
  5  6  1  0
  6  7  2  0
  7  8  1  0
  8  9  2  0
  9 10  1  0
 10 11  1  0
 11 12  1  0
 12 13  2  0
 13 14  1  0
 14 15  2  0
 15 16  1  0
 16 17  2  0
 17 18  1  0
 18 19  2  0
 19 20  1  0
 20 21  1  0
 21 22  1  0
 22 23  2  0
 22 24  1  0
 24 25  1  0
 25 26  2  0
 26 27  1  0
 27 28  2  0
 28 29  1  0
 29 30  1  0
 30 31  1  0
 31 32  1  0
 32 33  1  0
 33 34  1  0
 28 35  1  0
 35 36  1  0
 36 37  1  0
 36 38  1  0
 36 39  1  0
 35 40  2  0
 20 41  2  0
 10 42  2  0
 42  6  1  0
 15 11  1  0
 41 16  1  0
 40 25  1  0
 34 29  1  0
  1 43  1  0
  1 44  1  0
  1 45  1  0
  2 46  1  6
  3 47  1  0
  4 48  1  0
  4 49  1  0
  5 50  1  0
  8 51  1  0
  9 52  1  0
 12 53  1  0
 13 54  1  0
 17 55  1  0
 18 56  1  0
 19 57  1  0
 21 58  1  0
 24 59  1  0
 26 60  1  0
 27 61  1  0
 30 62  1  0
 30 63  1  0
 31 64  1  0
 31 65  1  0
 33 66  1  0
 33 67  1  0
 34 68  1  0
 34 69  1  0
 40 70  1  0
 41 71  1  0
M  END
>  <meeko>  (3) 
{"is_sidechain": [false], "free_energy": -8.028, "intermolecular_energy": -11.95, "internal_energy": -2.652}

$$$$
LIB_ASWUBISYJRGUGG__M_PUB_ALL__e8__s20260927
     RDKit          3D

 71 75  0  0  0  0  0  0  0  0999 V2000
    5.7390  -11.8620   -2.3840 C   0  0  0  0  0  0  0  0  0  0  0  0
    6.8400  -10.9850   -1.8030 C   0  0  2  0  0  0  0  0  0  0  0  0
    7.9670  -11.0210   -2.6840 O   0  0  0  0  0  0  0  0  0  0  0  0
    7.2750  -11.3810   -0.3800 C   0  0  0  0  0  0  0  0  0  0  0  0
    8.1620  -12.5250   -0.3830 N   0  0  0  0  0  0  0  0  0  0  0  0
    9.5090  -12.4360   -0.1920 C   0  0  0  0  0  0  0  0  0  0  0  0
    9.9060  -12.1870    1.0580 N   0  0  0  0  0  0  0  0  0  0  0  0
   11.2300  -12.1010    1.2710 C   0  0  0  0  0  0  0  0  0  0  0  0
   12.1730  -12.2360    0.2810 C   0  0  0  0  0  0  0  0  0  0  0  0
   11.6780  -12.4610   -0.9830 C   0  0  0  0  0  0  0  0  0  0  0  0
   12.5420  -12.6310   -2.1090 N   0  0  0  0  0  0  0  0  0  0  0  0
   13.4880  -11.6950   -2.4880 C   0  0  0  0  0  0  0  0  0  0  0  0
   13.9770  -12.1090   -3.6980 C   0  0  0  0  0  0  0  0  0  0  0  0
   13.4250  -13.3050   -4.0500 N   0  0  0  0  0  0  0  0  0  0  0  0
   12.6390  -13.6640   -3.0460 C   0  0  0  0  0  0  0  0  0  0  0  0
   12.0360  -14.9940   -2.9620 C   0  0  0  0  0  0  0  0  0  0  0  0
   12.8040  -16.1270   -2.6740 C   0  0  0  0  0  0  0  0  0  0  0  0
   12.2000  -17.3820   -2.6010 C   0  0  0  0  0  0  0  0  0  0  0  0
   10.8280  -17.5160   -2.8340 C   0  0  0  0  0  0  0  0  0  0  0  0
   10.0500  -16.4030   -3.1550 C   0  0  0  0  0  0  0  0  0  0  0  0
    8.6700  -16.4590   -3.4390 N   0  0  0  0  0  0  0  0  0  0  0  0
    7.6310  -15.9120   -2.6990 C   0  0  0  0  0  0  0  0  0  0  0  0
    7.7740  -15.1770   -1.7320 O   0  0  0  0  0  0  0  0  0  0  0  0
    6.4070  -16.3110   -3.2190 N   0  0  0  0  0  0  0  0  0  0  0  0
    5.1210  -15.8930   -2.8190 C   0  0  0  0  0  0  0  0  0  0  0  0
    4.6510  -16.3650   -1.5930 C   0  0  0  0  0  0  0  0  0  0  0  0
    3.3830  -16.0010   -1.1270 C   0  0  0  0  0  0  0  0  0  0  0  0
    2.5510  -15.1570   -1.8740 C   0  0  0  0  0  0  0  0  0  0  0  0
    1.2890  -14.8090   -1.4110 N   0  0  0  0  0  0  0  0  0  0  0  0
    0.2880  -15.8890   -1.3690 C   0  0  0  0  0  0  0  0  0  0  0  0
   -1.1140  -15.2890   -1.1710 C   0  0  0  0  0  0  0  0  0  0  0  0
   -1.1660  -14.4470   -0.0060 O   0  0  0  0  0  0  0  0  0  0  0  0
   -0.2380  -13.3560   -0.1450 C   0  0  0  0  0  0  0  0  0  0  0  0
    1.2060  -13.8630   -0.2850 C   0  0  0  0  0  0  0  0  0  0  0  0
    3.0130  -14.6820   -3.1130 C   0  0  0  0  0  0  0  0  0  0  0  0
    2.1600  -13.7630   -3.9510 C   0  0  0  0  0  0  0  0  0  0  0  0
    1.8640  -12.5830   -3.3290 F   0  0  0  0  0  0  0  0  0  0  0  0
    0.9450  -14.2980   -4.2780 F   0  0  0  0  0  0  0  0  0  0  0  0
    2.7300  -13.4290   -5.1460 F   0  0  0  0  0  0  0  0  0  0  0  0
    4.2960  -15.0570   -3.5720 C   0  0  0  0  0  0  0  0  0  0  0  0
   10.6660  -15.1460   -3.2280 C   0  0  0  0  0  0  0  0  0  0  0  0
   10.3500  -12.5870   -1.2200 N   0  0  0  0  0  0  0  0  0  0  0  0
    5.1644  -12.3197   -1.5653 H   0  0  0  0  0  0  0  0  0  0  0  0
    5.0691  -11.2474   -3.0032 H   0  0  0  0  0  0  0  0  0  0  0  0
    6.1882  -12.6524   -3.0032 H   0  0  0  0  0  0  0  0  0  0  0  0
    6.4289   -9.9684   -1.7165 H   0  0  0  0  0  0  0  0  0  0  0  0
    8.0790  -10.1030   -2.9950 H   0  0  0  0  0  0  0  0  0  0  0  0
    7.7954  -10.5293    0.0823 H   0  0  0  0  0  0  0  0  0  0  0  0
    6.3729  -11.6519    0.1882 H   0  0  0  0  0  0  0  0  0  0  0  0
    7.8280  -13.4400   -0.6460 H   0  0  0  0  0  0  0  0  0  0  0  0
   11.5788  -11.9116    2.2969 H   0  0  0  0  0  0  0  0  0  0  0  0
   13.2518  -12.1687    0.4852 H   0  0  0  0  0  0  0  0  0  0  0  0
   13.7877  -10.7967   -1.9283 H   0  0  0  0  0  0  0  0  0  0  0  0
   14.7115  -11.5550   -4.3010 H   0  0  0  0  0  0  0  0  0  0  0  0
   13.8864  -16.0280   -2.5048 H   0  0  0  0  0  0  0  0  0  0  0  0
   12.8046  -18.2686   -2.3595 H   0  0  0  0  0  0  0  0  0  0  0  0
   10.3576  -18.5078   -2.7636 H   0  0  0  0  0  0  0  0  0  0  0  0
    8.4180  -16.8980   -4.3110 H   0  0  0  0  0  0  0  0  0  0  0  0
    6.4350  -17.0340   -3.9200 H   0  0  0  0  0  0  0  0  0  0  0  0
    5.2837  -17.0299   -0.9868 H   0  0  0  0  0  0  0  0  0  0  0  0
    3.0332  -16.3842   -0.1571 H   0  0  0  0  0  0  0  0  0  0  0  0
    0.3154  -16.4499   -2.3148 H   0  0  0  0  0  0  0  0  0  0  0  0
    0.5164  -16.5650   -0.5318 H   0  0  0  0  0  0  0  0  0  0  0  0
   -1.3754  -14.6910   -2.0565 H   0  0  0  0  0  0  0  0  0  0  0  0
   -1.8271  -16.1150   -1.0326 H   0  0  0  0  0  0  0  0  0  0  0  0
   -0.5014  -12.7739   -1.0404 H   0  0  0  0  0  0  0  0  0  0  0  0
   -0.2998  -12.7315    0.7584 H   0  0  0  0  0  0  0  0  0  0  0  0
    1.8768  -13.0114   -0.4717 H   0  0  0  0  0  0  0  0  0  0  0  0
    1.5070  -14.3713    0.6429 H   0  0  0  0  0  0  0  0  0  0  0  0
    4.6515  -14.6820   -4.5431 H   0  0  0  0  0  0  0  0  0  0  0  0
   10.0662  -14.2644   -3.4981 H   0  0  0  0  0  0  0  0  0  0  0  0
  1  2  1  0
  2  3  1  0
  2  4  1  0
  4  5  1  0
  5  6  1  0
  6  7  2  0
  7  8  1  0
  8  9  2  0
  9 10  1  0
 10 11  1  0
 11 12  1  0
 12 13  2  0
 13 14  1  0
 14 15  2  0
 15 16  1  0
 16 17  2  0
 17 18  1  0
 18 19  2  0
 19 20  1  0
 20 21  1  0
 21 22  1  0
 22 23  2  0
 22 24  1  0
 24 25  1  0
 25 26  2  0
 26 27  1  0
 27 28  2  0
 28 29  1  0
 29 30  1  0
 30 31  1  0
 31 32  1  0
 32 33  1  0
 33 34  1  0
 28 35  1  0
 35 36  1  0
 36 37  1  0
 36 38  1  0
 36 39  1  0
 35 40  2  0
 20 41  2  0
 10 42  2  0
 42  6  1  0
 15 11  1  0
 41 16  1  0
 40 25  1  0
 34 29  1  0
  1 43  1  0
  1 44  1  0
  1 45  1  0
  2 46  1  1
  3 47  1  0
  4 48  1  0
  4 49  1  0
  5 50  1  0
  8 51  1  0
  9 52  1  0
 12 53  1  0
 13 54  1  0
 17 55  1  0
 18 56  1  0
 19 57  1  0
 21 58  1  0
 24 59  1  0
 26 60  1  0
 27 61  1  0
 30 62  1  0
 30 63  1  0
 31 64  1  0
 31 65  1  0
 33 66  1  0
 33 67  1  0
 34 68  1  0
 34 69  1  0
 40 70  1  0
 41 71  1  0
M  END
>  <meeko>  (4) 
{"is_sidechain": [false], "free_energy": -7.934, "intermolecular_energy": -12.129, "internal_energy": -2.325}

$$$$
LIB_ASWUBISYJRGUGG__M_PUB_ALL__e8__s20260927
     RDKit          3D

 71 75  0  0  0  0  0  0  0  0999 V2000
    7.1510   -8.0420    2.0860 C   0  0  0  0  0  0  0  0  0  0  0  0
    6.3370   -9.1870    1.5020 C   0  0  2  0  0  0  0  0  0  0  0  0
    5.4620   -9.6920    2.5160 O   0  0  0  0  0  0  0  0  0  0  0  0
    7.1870  -10.3350    0.9260 C   0  0  0  0  0  0  0  0  0  0  0  0
    7.0100  -11.5650    1.6680 N   0  0  0  0  0  0  0  0  0  0  0  0
    6.4260  -12.6830    1.1490 C   0  0  0  0  0  0  0  0  0  0  0  0
    7.2610  -13.6120    0.6780 N   0  0  0  0  0  0  0  0  0  0  0  0
    6.7090  -14.7250    0.1680 C   0  0  0  0  0  0  0  0  0  0  0  0
    5.3540  -14.9400    0.0920 C   0  0  0  0  0  0  0  0  0  0  0  0
    4.5640  -13.9190    0.5720 C   0  0  0  0  0  0  0  0  0  0  0  0
    3.1370  -14.0070    0.5660 N   0  0  0  0  0  0  0  0  0  0  0  0
    2.4060  -14.5530    1.6060 C   0  0  0  0  0  0  0  0  0  0  0  0
    1.1120  -14.6380    1.1640 C   0  0  0  0  0  0  0  0  0  0  0  0
    0.9990  -14.0960   -0.0820 N   0  0  0  0  0  0  0  0  0  0  0  0
    2.1980  -13.6270   -0.3960 C   0  0  0  0  0  0  0  0  0  0  0  0
    2.4250  -12.7860   -1.5720 C   0  0  0  0  0  0  0  0  0  0  0  0
    1.9990  -11.4530   -1.6080 C   0  0  0  0  0  0  0  0  0  0  0  0
    2.2300  -10.6770   -2.7430 C   0  0  0  0  0  0  0  0  0  0  0  0
    2.8700  -11.2310   -3.8560 C   0  0  0  0  0  0  0  0  0  0  0  0
    3.2720  -12.5670   -3.8520 C   0  0  0  0  0  0  0  0  0  0  0  0
    3.8900  -13.2100   -4.9450 N   0  0  0  0  0  0  0  0  0  0  0  0
    5.1280  -12.9240   -5.5050 C   0  0  0  0  0  0  0  0  0  0  0  0
    5.9360  -12.1310   -5.0430 O   0  0  0  0  0  0  0  0  0  0  0  0
    5.3180  -13.6720   -6.6590 N   0  0  0  0  0  0  0  0  0  0  0  0
    6.4770  -13.7470   -7.4580 C   0  0  0  0  0  0  0  0  0  0  0  0
    7.5800  -14.4100   -6.9170 C   0  0  0  0  0  0  0  0  0  0  0  0
    8.7700  -14.5240   -7.6430 C   0  0  0  0  0  0  0  0  0  0  0  0
    8.8910  -13.9770   -8.9270 C   0  0  0  0  0  0  0  0  0  0  0  0
   10.0800  -14.0840   -9.6370 N   0  0  0  0  0  0  0  0  0  0  0  0
   11.1300  -13.1040   -9.3050 C   0  0  0  0  0  0  0  0  0  0  0  0
   12.2220  -13.1290  -10.3860 C   0  0  0  0  0  0  0  0  0  0  0  0
   12.7490  -14.4540  -10.5720 O   0  0  0  0  0  0  0  0  0  0  0  0
   11.7000  -15.3460  -10.9890 C   0  0  0  0  0  0  0  0  0  0  0  0
   10.5860  -15.4350   -9.9340 C   0  0  0  0  0  0  0  0  0  0  0  0
    7.7890  -13.3020   -9.4770 C   0  0  0  0  0  0  0  0  0  0  0  0
    7.8650  -12.7040  -10.8600 C   0  0  0  0  0  0  0  0  0  0  0  0
    8.3520  -13.5700  -11.7970 F   0  0  0  0  0  0  0  0  0  0  0  0
    8.6840  -11.6120  -10.9340 F   0  0  0  0  0  0  0  0  0  0  0  0
    6.6590  -12.2720  -11.3330 F   0  0  0  0  0  0  0  0  0  0  0  0
    6.5920  -13.1940   -8.7330 C   0  0  0  0  0  0  0  0  0  0  0  0
    3.0350  -13.3410   -2.7080 C   0  0  0  0  0  0  0  0  0  0  0  0
    5.0960  -12.8020    1.1240 N   0  0  0  0  0  0  0  0  0  0  0  0
    7.1165   -8.0905    3.1844 H   0  0  0  0  0  0  0  0  0  0  0  0
    8.1945   -8.1242    1.7479 H   0  0  0  0  0  0  0  0  0  0  0  0
    6.7305   -7.0834    1.7479 H   0  0  0  0  0  0  0  0  0  0  0  0
    5.7734   -8.7775    0.6508 H   0  0  0  0  0  0  0  0  0  0  0  0
    4.9080  -10.3580    2.0690 H   0  0  0  0  0  0  0  0  0  0  0  0
    6.8918  -10.5054   -0.1199 H   0  0  0  0  0  0  0  0  0  0  0  0
    8.2453  -10.0437    0.9980 H   0  0  0  0  0  0  0  0  0  0  0  0
    7.2120  -11.6090    2.6560 H   0  0  0  0  0  0  0  0  0  0  0  0
    7.3803  -15.5098   -0.2107 H   0  0  0  0  0  0  0  0  0  0  0  0
    4.9288  -15.8652   -0.3242 H   0  0  0  0  0  0  0  0  0  0  0  0
    2.7877  -14.8581    2.5915 H   0  0  0  0  0  0  0  0  0  0  0  0
    0.2817  -15.0808    1.7337 H   0  0  0  0  0  0  0  0  0  0  0  0
    1.4817  -11.0176   -0.7403 H   0  0  0  0  0  0  0  0  0  0  0  0
    1.9077   -9.6255   -2.7630 H   0  0  0  0  0  0  0  0  0  0  0  0
    3.0582  -10.6078   -4.7427 H   0  0  0  0  0  0  0  0  0  0  0  0
    3.3990  -14.0060   -5.3220 H   0  0  0  0  0  0  0  0  0  0  0  0
    4.5130  -14.1690   -7.0050 H   0  0  0  0  0  0  0  0  0  0  0  0
    7.5125  -14.8471   -5.9098 H   0  0  0  0  0  0  0  0  0  0  0  0
    9.6260  -15.0525   -7.1979 H   0  0  0  0  0  0  0  0  0  0  0  0
   10.6884  -12.0978   -9.2545 H   0  0  0  0  0  0  0  0  0  0  0  0
   11.5743  -13.3615   -8.3322 H   0  0  0  0  0  0  0  0  0  0  0  0
   11.7925  -12.7785  -11.3361 H   0  0  0  0  0  0  0  0  0  0  0  0
   13.0435  -12.4731  -10.0621 H   0  0  0  0  0  0  0  0  0  0  0  0
   11.2707  -14.9772  -11.9323 H   0  0  0  0  0  0  0  0  0  0  0  0
   12.1315  -16.3491  -11.1218 H   0  0  0  0  0  0  0  0  0  0  0  0
    9.7650  -16.0572  -10.3197 H   0  0  0  0  0  0  0  0  0  0  0  0
   10.9878  -15.8857   -9.0145 H   0  0  0  0  0  0  0  0  0  0  0  0
    5.7332  -12.6626   -9.1689 H   0  0  0  0  0  0  0  0  0  0  0  0
    3.3317  -14.4002   -2.7001 H   0  0  0  0  0  0  0  0  0  0  0  0
  1  2  1  0
  2  3  1  0
  2  4  1  0
  4  5  1  0
  5  6  1  0
  6  7  2  0
  7  8  1  0
  8  9  2  0
  9 10  1  0
 10 11  1  0
 11 12  1  0
 12 13  2  0
 13 14  1  0
 14 15  2  0
 15 16  1  0
 16 17  2  0
 17 18  1  0
 18 19  2  0
 19 20  1  0
 20 21  1  0
 21 22  1  0
 22 23  2  0
 22 24  1  0
 24 25  1  0
 25 26  2  0
 26 27  1  0
 27 28  2  0
 28 29  1  0
 29 30  1  0
 30 31  1  0
 31 32  1  0
 32 33  1  0
 33 34  1  0
 28 35  1  0
 35 36  1  0
 36 37  1  0
 36 38  1  0
 36 39  1  0
 35 40  2  0
 20 41  2  0
 10 42  2  0
 42  6  1  0
 15 11  1  0
 41 16  1  0
 40 25  1  0
 34 29  1  0
  1 43  1  0
  1 44  1  0
  1 45  1  0
  2 46  1  6
  3 47  1  0
  4 48  1  0
  4 49  1  0
  5 50  1  0
  8 51  1  0
  9 52  1  0
 12 53  1  0
 13 54  1  0
 17 55  1  0
 18 56  1  0
 19 57  1  0
 21 58  1  0
 24 59  1  0
 26 60  1  0
 27 61  1  0
 30 62  1  0
 30 63  1  0
 31 64  1  0
 31 65  1  0
 33 66  1  0
 33 67  1  0
 34 68  1  0
 34 69  1  0
 40 70  1  0
 41 71  1  0
M  END
>  <meeko>  (5) 
{"is_sidechain": [false], "free_energy": -7.779, "intermolecular_energy": -12.526, "internal_energy": -1.688}

$$$$
LIB_ASWUBISYJRGUGG__M_PUB_ALL__e8__s20260927
     RDKit          3D

 71 75  0  0  0  0  0  0  0  0999 V2000
   12.9400  -11.2860   -0.2020 C   0  0  0  0  0  0  0  0  0  0  0  0
   11.9920  -12.4490    0.0500 C   0  0  2  0  0  0  0  0  0  0  0  0
   12.7500  -13.5600    0.5410 O   0  0  0  0  0  0  0  0  0  0  0  0
   11.1760  -12.8770   -1.1840 C   0  0  0  0  0  0  0  0  0  0  0  0
    9.8700  -12.2530   -1.2120 N   0  0  0  0  0  0  0  0  0  0  0  0
    8.7170  -12.9290   -1.4820 C   0  0  0  0  0  0  0  0  0  0  0  0
    7.8850  -13.0960   -0.4520 N   0  0  0  0  0  0  0  0  0  0  0  0
    6.7390  -13.7540   -0.6940 C   0  0  0  0  0  0  0  0  0  0  0  0
    6.3980  -14.2670   -1.9220 C   0  0  0  0  0  0  0  0  0  0  0  0
    7.3240  -14.0760   -2.9230 C   0  0  0  0  0  0  0  0  0  0  0  0
    7.1010  -14.5470   -4.2540 N   0  0  0  0  0  0  0  0  0  0  0  0
    7.9000  -15.4960   -4.8670 C   0  0  0  0  0  0  0  0  0  0  0  0
    7.5020  -15.5470   -6.1760 C   0  0  0  0  0  0  0  0  0  0  0  0
    6.4360  -14.7220   -6.3820 N   0  0  0  0  0  0  0  0  0  0  0  0
    6.1360  -14.1990   -5.2020 C   0  0  0  0  0  0  0  0  0  0  0  0
    4.9150  -13.4230   -4.9790 C   0  0  0  0  0  0  0  0  0  0  0  0
    4.8420  -12.0650   -5.3100 C   0  0  0  0  0  0  0  0  0  0  0  0
    3.6650  -11.3530   -5.0860 C   0  0  0  0  0  0  0  0  0  0  0  0
    2.5590  -11.9860   -4.5110 C   0  0  0  0  0  0  0  0  0  0  0  0
    2.6220  -13.3310   -4.1430 C   0  0  0  0  0  0  0  0  0  0  0  0
    1.5650  -14.0320   -3.5270 N   0  0  0  0  0  0  0  0  0  0  0  0
    1.3830  -14.2700   -2.1710 C   0  0  0  0  0  0  0  0  0  0  0  0
    2.0700  -13.7890   -1.2810 O   0  0  0  0  0  0  0  0  0  0  0  0
    0.3080  -15.1250   -1.9720 N   0  0  0  0  0  0  0  0  0  0  0  0
   -0.2610  -15.5260   -0.7460 C   0  0  0  0  0  0  0  0  0  0  0  0
   -0.0250  -16.8390   -0.3340 C   0  0  0  0  0  0  0  0  0  0  0  0
   -0.5580  -17.3160    0.8670 C   0  0  0  0  0  0  0  0  0  0  0  0
   -1.3420  -16.4960    1.6890 C   0  0  0  0  0  0  0  0  0  0  0  0
   -1.8780  -16.9800    2.8750 N   0  0  0  0  0  0  0  0  0  0  0  0
   -2.9890  -17.9410    2.7460 C   0  0  0  0  0  0  0  0  0  0  0  0
   -3.6850  -18.1130    4.1060 C   0  0  0  0  0  0  0  0  0  0  0  0
   -2.7510  -18.4890    5.1320 O   0  0  0  0  0  0  0  0  0  0  0  0
   -1.7460  -17.4710    5.2810 C   0  0  0  0  0  0  0  0  0  0  0  0
   -0.9510  -17.2730    3.9810 C   0  0  0  0  0  0  0  0  0  0  0  0
   -1.5910  -15.1760    1.2790 C   0  0  0  0  0  0  0  0  0  0  0  0
   -2.4210  -14.2490    2.1330 C   0  0  0  0  0  0  0  0  0  0  0  0
   -3.7080  -14.6760    2.3000 F   0  0  0  0  0  0  0  0  0  0  0  0
   -2.5360  -12.9900    1.6130 F   0  0  0  0  0  0  0  0  0  0  0  0
   -1.9170  -14.0660    3.3880 F   0  0  0  0  0  0  0  0  0  0  0  0
   -1.0460  -14.7050    0.0630 C   0  0  0  0  0  0  0  0  0  0  0  0
    3.8100  -14.0390   -4.3710 C   0  0  0  0  0  0  0  0  0  0  0  0
    8.4720  -13.3860   -2.7130 N   0  0  0  0  0  0  0  0  0  0  0  0
   13.2770  -10.8726    0.7600 H   0  0  0  0  0  0  0  0  0  0  0  0
   13.8104  -11.6398   -0.7741 H   0  0  0  0  0  0  0  0  0  0  0  0
   12.4180  -10.5048   -0.7741 H   0  0  0  0  0  0  0  0  0  0  0  0
   11.2538  -12.1058    0.7898 H   0  0  0  0  0  0  0  0  0  0  0  0
   13.6820  -13.3350    0.3590 H   0  0  0  0  0  0  0  0  0  0  0  0
   11.7269  -12.5893   -2.0916 H   0  0  0  0  0  0  0  0  0  0  0  0
   11.0317  -13.9664   -1.1355 H   0  0  0  0  0  0  0  0  0  0  0  0
    9.7710  -11.2500   -1.1470 H   0  0  0  0  0  0  0  0  0  0  0  0
    6.0333  -13.8898    0.1388 H   0  0  0  0  0  0  0  0  0  0  0  0
    5.4485  -14.7951   -2.0941 H   0  0  0  0  0  0  0  0  0  0  0  0
    8.6965  -16.0910   -4.3963 H   0  0  0  0  0  0  0  0  0  0  0  0
    7.9754  -16.1662   -6.9521 H   0  0  0  0  0  0  0  0  0  0  0  0
    5.7151  -11.5588   -5.7477 H   0  0  0  0  0  0  0  0  0  0  0  0
    3.6061  -10.2899   -5.3624 H   0  0  0  0  0  0  0  0  0  0  0  0
    1.6307  -11.4190   -4.3471 H   0  0  0  0  0  0  0  0  0  0  0  0
    0.8280  -14.3440   -4.1410 H   0  0  0  0  0  0  0  0  0  0  0  0
   -0.0710  -15.5630   -2.7960 H   0  0  0  0  0  0  0  0  0  0  0  0
    0.5865  -17.5048   -0.9608 H   0  0  0  0  0  0  0  0  0  0  0  0
   -0.3583  -18.3538    1.1721 H   0  0  0  0  0  0  0  0  0  0  0  0
   -3.7140  -17.5652    2.0090 H   0  0  0  0  0  0  0  0  0  0  0  0
   -2.5941  -18.9122    2.4131 H   0  0  0  0  0  0  0  0  0  0  0  0
   -4.1607  -17.1618    4.3869 H   0  0  0  0  0  0  0  0  0  0  0  0
   -4.4343  -18.9127    4.0115 H   0  0  0  0  0  0  0  0  0  0  0  0
   -2.2343  -16.5227    5.5498 H   0  0  0  0  0  0  0  0  0  0  0  0
   -1.0471  -17.7875    6.0693 H   0  0  0  0  0  0  0  0  0  0  0  0
   -0.2510  -16.4334    4.1042 H   0  0  0  0  0  0  0  0  0  0  0  0
   -0.3888  -18.1906    3.7532 H   0  0  0  0  0  0  0  0  0  0  0  0
   -1.2450  -13.6699   -0.2516 H   0  0  0  0  0  0  0  0  0  0  0  0
    3.8775  -15.0945   -4.0686 H   0  0  0  0  0  0  0  0  0  0  0  0
  1  2  1  0
  2  3  1  0
  2  4  1  0
  4  5  1  0
  5  6  1  0
  6  7  2  0
  7  8  1  0
  8  9  2  0
  9 10  1  0
 10 11  1  0
 11 12  1  0
 12 13  2  0
 13 14  1  0
 14 15  2  0
 15 16  1  0
 16 17  2  0
 17 18  1  0
 18 19  2  0
 19 20  1  0
 20 21  1  0
 21 22  1  0
 22 23  2  0
 22 24  1  0
 24 25  1  0
 25 26  2  0
 26 27  1  0
 27 28  2  0
 28 29  1  0
 29 30  1  0
 30 31  1  0
 31 32  1  0
 32 33  1  0
 33 34  1  0
 28 35  1  0
 35 36  1  0
 36 37  1  0
 36 38  1  0
 36 39  1  0
 35 40  2  0
 20 41  2  0
 10 42  2  0
 42  6  1  0
 15 11  1  0
 41 16  1  0
 40 25  1  0
 34 29  1  0
  1 43  1  0
  1 44  1  0
  1 45  1  0
  2 46  1  1
  3 47  1  0
  4 48  1  0
  4 49  1  0
  5 50  1  0
  8 51  1  0
  9 52  1  0
 12 53  1  0
 13 54  1  0
 17 55  1  0
 18 56  1  0
 19 57  1  0
 21 58  1  0
 24 59  1  0
 26 60  1  0
 27 61  1  0
 30 62  1  0
 30 63  1  0
 31 64  1  0
 31 65  1  0
 33 66  1  0
 33 67  1  0
 34 68  1  0
 34 69  1  0
 40 70  1  0
 41 71  1  0
M  END
>  <meeko>  (6) 
{"is_sidechain": [false], "free_energy": -7.702, "intermolecular_energy": -12.589, "internal_energy": -1.506}

$$$$
LIB_ASWUBISYJRGUGG__M_PUB_ALL__e8__s20260927
     RDKit          3D

 71 75  0  0  0  0  0  0  0  0999 V2000
    5.8250  -14.1650   -4.1870 C   0  0  0  0  0  0  0  0  0  0  0  0
    6.8610  -14.0430   -3.0790 C   0  0  2  0  0  0  0  0  0  0  0  0
    7.8530  -13.0930   -3.4810 O   0  0  0  0  0  0  0  0  0  0  0  0
    7.5360  -15.3740   -2.6980 C   0  0  0  0  0  0  0  0  0  0  0  0
    8.4490  -15.2200   -1.5850 N   0  0  0  0  0  0  0  0  0  0  0  0
    9.7950  -15.4100   -1.6820 C   0  0  0  0  0  0  0  0  0  0  0  0
   10.2590  -16.5580   -1.1840 N   0  0  0  0  0  0  0  0  0  0  0  0
   11.5830  -16.7710   -1.2730 C   0  0  0  0  0  0  0  0  0  0  0  0
   12.4650  -15.8740   -1.8250 C   0  0  0  0  0  0  0  0  0  0  0  0
   11.9080  -14.7030   -2.2870 C   0  0  0  0  0  0  0  0  0  0  0  0
   12.7030  -13.6810   -2.8940 N   0  0  0  0  0  0  0  0  0  0  0  0
   13.2200  -13.7810   -4.1740 C   0  0  0  0  0  0  0  0  0  0  0  0
   14.0700  -12.7190   -4.3300 C   0  0  0  0  0  0  0  0  0  0  0  0
   14.0420  -11.9210   -3.2240 N   0  0  0  0  0  0  0  0  0  0  0  0
   13.1450  -12.4490   -2.4050 C   0  0  0  0  0  0  0  0  0  0  0  0
   12.6810  -11.7560   -1.2020 C   0  0  0  0  0  0  0  0  0  0  0  0
   13.4250  -10.7210   -0.6240 C   0  0  0  0  0  0  0  0  0  0  0  0
   12.9570  -10.0810    0.5220 C   0  0  0  0  0  0  0  0  0  0  0  0
   11.7530  -10.4810    1.1110 C   0  0  0  0  0  0  0  0  0  0  0  0
   11.0130  -11.5330    0.5680 C   0  0  0  0  0  0  0  0  0  0  0  0
    9.8100  -12.0200    1.1200 N   0  0  0  0  0  0  0  0  0  0  0  0
    8.6000  -12.2180    0.4700 C   0  0  0  0  0  0  0  0  0  0  0  0
    8.4300  -12.1100   -0.7360 O   0  0  0  0  0  0  0  0  0  0  0  0
    7.6130  -12.5620    1.3840 N   0  0  0  0  0  0  0  0  0  0  0  0
    6.2820  -12.9420    1.1160 C   0  0  0  0  0  0  0  0  0  0  0  0
    5.6780  -13.8230    2.0150 C   0  0  0  0  0  0  0  0  0  0  0  0
    4.3630  -14.2530    1.8170 C   0  0  0  0  0  0  0  0  0  0  0  0
    3.6150  -13.8170    0.7160 C   0  0  0  0  0  0  0  0  0  0  0  0
    2.3130  -14.2570    0.5190 N   0  0  0  0  0  0  0  0  0  0  0  0
    2.1490  -15.6840    0.1870 C   0  0  0  0  0  0  0  0  0  0  0  0
    0.7220  -15.9350   -0.3280 C   0  0  0  0  0  0  0  0  0  0  0  0
   -0.2660  -15.4730    0.6090 O   0  0  0  0  0  0  0  0  0  0  0  0
   -0.1190  -14.0570    0.8200 C   0  0  0  0  0  0  0  0  0  0  0  0
    1.2630  -13.7160    1.3990 C   0  0  0  0  0  0  0  0  0  0  0  0
    4.2170  -12.9360   -0.1990 C   0  0  0  0  0  0  0  0  0  0  0  0
    3.4510  -12.4290   -1.3960 C   0  0  0  0  0  0  0  0  0  0  0  0
    4.1880  -11.6060   -2.2000 F   0  0  0  0  0  0  0  0  0  0  0  0
    2.3470  -11.6950   -1.0630 F   0  0  0  0  0  0  0  0  0  0  0  0
    2.9810  -13.4250   -2.2030 F   0  0  0  0  0  0  0  0  0  0  0  0
    5.5470  -12.5090    0.0130 C   0  0  0  0  0  0  0  0  0  0  0  0
   11.4920  -12.1730   -0.5830 C   0  0  0  0  0  0  0  0  0  0  0  0
   10.5720  -14.4780   -2.2410 N   0  0  0  0  0  0  0  0  0  0  0  0
    4.8255  -14.2827   -3.7431 H   0  0  0  0  0  0  0  0  0  0  0  0
    5.8453  -13.2583   -4.8094 H   0  0  0  0  0  0  0  0  0  0  0  0
    6.0554  -15.0422   -4.8094 H   0  0  0  0  0  0  0  0  0  0  0  0
    6.3271  -13.7106   -2.1765 H   0  0  0  0  0  0  0  0  0  0  0  0
    8.5540  -13.1530   -2.8060 H   0  0  0  0  0  0  0  0  0  0  0  0
    6.7577  -16.1004   -2.4210 H   0  0  0  0  0  0  0  0  0  0  0  0
    8.1145  -15.7224   -3.5663 H   0  0  0  0  0  0  0  0  0  0  0  0
    8.1050  -15.0760   -0.6470 H   0  0  0  0  0  0  0  0  0  0  0  0
   11.9833  -17.7178   -0.8814 H   0  0  0  0  0  0  0  0  0  0  0  0
   13.5438  -16.0778   -1.8932 H   0  0  0  0  0  0  0  0  0  0  0  0
   12.9931  -14.5589   -4.9179 H   0  0  0  0  0  0  0  0  0  0  0  0
   14.6881  -12.5353   -5.2212 H   0  0  0  0  0  0  0  0  0  0  0  0
   14.3799  -10.4125   -1.0747 H   0  0  0  0  0  0  0  0  0  0  0  0
   13.5368   -9.2579    0.9652 H   0  0  0  0  0  0  0  0  0  0  0  0
   11.3863   -9.9626    2.0092 H   0  0  0  0  0  0  0  0  0  0  0  0
    9.8560  -12.3120    2.0850 H   0  0  0  0  0  0  0  0  0  0  0  0
    7.8550  -12.4670    2.3580 H   0  0  0  0  0  0  0  0  0  0  0  0
    6.2428  -14.1823    2.8879 H   0  0  0  0  0  0  0  0  0  0  0  0
    3.9072  -14.9465    2.5390 H   0  0  0  0  0  0  0  0  0  0  0  0
    2.8735  -15.9639   -0.5920 H   0  0  0  0  0  0  0  0  0  0  0  0
    2.3232  -16.2903    1.0881 H   0  0  0  0  0  0  0  0  0  0  0  0
    0.5872  -15.4024   -1.2810 H   0  0  0  0  0  0  0  0  0  0  0  0
    0.5896  -17.0187   -0.4625 H   0  0  0  0  0  0  0  0  0  0  0  0
   -0.2421  -13.5373   -0.1417 H   0  0  0  0  0  0  0  0  0  0  0  0
   -0.8850  -13.7333    1.5400 H   0  0  0  0  0  0  0  0  0  0  0  0
    1.3712  -12.6236    1.4697 H   0  0  0  0  0  0  0  0  0  0  0  0
    1.3600  -14.1605    2.4005 H   0  0  0  0  0  0  0  0  0  0  0  0
    6.0126  -11.8203   -0.7074 H   0  0  0  0  0  0  0  0  0  0  0  0
   10.9272  -13.0157   -1.0083 H   0  0  0  0  0  0  0  0  0  0  0  0
  1  2  1  0
  2  3  1  0
  2  4  1  0
  4  5  1  0
  5  6  1  0
  6  7  2  0
  7  8  1  0
  8  9  2  0
  9 10  1  0
 10 11  1  0
 11 12  1  0
 12 13  2  0
 13 14  1  0
 14 15  2  0
 15 16  1  0
 16 17  2  0
 17 18  1  0
 18 19  2  0
 19 20  1  0
 20 21  1  0
 21 22  1  0
 22 23  2  0
 22 24  1  0
 24 25  1  0
 25 26  2  0
 26 27  1  0
 27 28  2  0
 28 29  1  0
 29 30  1  0
 30 31  1  0
 31 32  1  0
 32 33  1  0
 33 34  1  0
 28 35  1  0
 35 36  1  0
 36 37  1  0
 36 38  1  0
 36 39  1  0
 35 40  2  0
 20 41  2  0
 10 42  2  0
 42  6  1  0
 15 11  1  0
 41 16  1  0
 40 25  1  0
 34 29  1  0
  1 43  1  0
  1 44  1  0
  1 45  1  0
  2 46  1  1
  3 47  1  0
  4 48  1  0
  4 49  1  0
  5 50  1  0
  8 51  1  0
  9 52  1  0
 12 53  1  0
 13 54  1  0
 17 55  1  0
 18 56  1  0
 19 57  1  0
 21 58  1  0
 24 59  1  0
 26 60  1  0
 27 61  1  0
 30 62  1  0
 30 63  1  0
 31 64  1  0
 31 65  1  0
 33 66  1  0
 33 67  1  0
 34 68  1  0
 34 69  1  0
 40 70  1  0
 41 71  1  0
M  END
>  <meeko>  (7) 
{"is_sidechain": [false], "free_energy": -7.696, "intermolecular_energy": -12.241, "internal_energy": -1.844}

$$$$
LIB_ASWUBISYJRGUGG__M_PUB_ALL__e8__s20260927
     RDKit          3D

 71 75  0  0  0  0  0  0  0  0999 V2000
    3.4910  -15.7110   -1.0670 C   0  0  0  0  0  0  0  0  0  0  0  0
    3.5300  -16.7050    0.0860 C   0  0  2  0  0  0  0  0  0  0  0  0
    4.8970  -16.9460    0.4360 O   0  0  0  0  0  0  0  0  0  0  0  0
    2.8220  -18.0400   -0.2090 C   0  0  0  0  0  0  0  0  0  0  0  0
    1.7470  -18.3010    0.7250 N   0  0  0  0  0  0  0  0  0  0  0  0
    0.5030  -17.7530    0.6160 C   0  0  0  0  0  0  0  0  0  0  0  0
    0.1880  -17.2560   -0.5820 N   0  0  0  0  0  0  0  0  0  0  0  0
   -1.0350  -16.7160   -0.7160 C   0  0  0  0  0  0  0  0  0  0  0  0
   -1.9500  -16.6360    0.3050 C   0  0  0  0  0  0  0  0  0  0  0  0
   -1.5340  -17.1450    1.5150 C   0  0  0  0  0  0  0  0  0  0  0  0
   -2.3840  -17.1390    2.6650 N   0  0  0  0  0  0  0  0  0  0  0  0
   -2.5850  -18.2480    3.4670 C   0  0  0  0  0  0  0  0  0  0  0  0
   -3.5910  -17.9190    4.3350 C   0  0  0  0  0  0  0  0  0  0  0  0
   -3.9700  -16.6220    4.1540 N   0  0  0  0  0  0  0  0  0  0  0  0
   -3.1740  -16.1270    3.2180 C   0  0  0  0  0  0  0  0  0  0  0  0
   -3.1350  -14.6990    2.8980 C   0  0  0  0  0  0  0  0  0  0  0  0
   -4.3010  -13.9250    2.8750 C   0  0  0  0  0  0  0  0  0  0  0  0
   -4.2320  -12.5680    2.5670 C   0  0  0  0  0  0  0  0  0  0  0  0
   -3.0010  -11.9770    2.2620 C   0  0  0  0  0  0  0  0  0  0  0  0
   -1.8320  -12.7390    2.2470 C   0  0  0  0  0  0  0  0  0  0  0  0
   -0.5600  -12.2280    1.9150 N   0  0  0  0  0  0  0  0  0  0  0  0
    0.2950  -12.6700    0.9150 C   0  0  0  0  0  0  0  0  0  0  0  0
    0.0100  -13.5120    0.0750 O   0  0  0  0  0  0  0  0  0  0  0  0
    1.5160  -12.0150    1.0010 N   0  0  0  0  0  0  0  0  0  0  0  0
    2.6080  -12.1040    0.1140 C   0  0  0  0  0  0  0  0  0  0  0  0
    3.8650  -12.3380    0.6750 C   0  0  0  0  0  0  0  0  0  0  0  0
    5.0000  -12.4350   -0.1360 C   0  0  0  0  0  0  0  0  0  0  0  0
    4.9120  -12.2990   -1.5270 C   0  0  0  0  0  0  0  0  0  0  0  0
    6.0440  -12.3840   -2.3260 N   0  0  0  0  0  0  0  0  0  0  0  0
    7.0440  -11.3140   -2.1580 C   0  0  0  0  0  0  0  0  0  0  0  0
    8.0470  -11.3540   -3.3220 C   0  0  0  0  0  0  0  0  0  0  0  0
    8.6510  -12.6540   -3.4520 O   0  0  0  0  0  0  0  0  0  0  0  0
    7.6390  -13.6430   -3.7110 C   0  0  0  0  0  0  0  0  0  0  0  0
    6.6210  -13.7180   -2.5620 C   0  0  0  0  0  0  0  0  0  0  0  0
    3.6520  -12.0560   -2.1000 C   0  0  0  0  0  0  0  0  0  0  0  0
    3.5000  -11.9110   -3.5940 C   0  0  0  0  0  0  0  0  0  0  0  0
    2.2180  -11.6490   -3.9850 F   0  0  0  0  0  0  0  0  0  0  0  0
    3.8540  -13.0350   -4.2870 F   0  0  0  0  0  0  0  0  0  0  0  0
    4.2690  -10.9150   -4.1250 F   0  0  0  0  0  0  0  0  0  0  0  0
    2.5120  -11.9610   -1.2690 C   0  0  0  0  0  0  0  0  0  0  0  0
   -1.9110  -14.1040    2.5560 C   0  0  0  0  0  0  0  0  0  0  0  0
   -0.3200  -17.7260    1.6680 N   0  0  0  0  0  0  0  0  0  0  0  0
    3.4508  -14.6870   -0.6671 H   0  0  0  0  0  0  0  0  0  0  0  0
    4.3945  -15.8288   -1.6834 H   0  0  0  0  0  0  0  0  0  0  0  0
    2.5995  -15.8992   -1.6834 H   0  0  0  0  0  0  0  0  0  0  0  0
    2.9741  -16.2518    0.9200 H   0  0  0  0  0  0  0  0  0  0  0  0
    4.9500  -17.9030    0.6170 H   0  0  0  0  0  0  0  0  0  0  0  0
    2.4073  -18.0048   -1.2272 H   0  0  0  0  0  0  0  0  0  0  0  0
    3.5627  -18.8471   -0.1092 H   0  0  0  0  0  0  0  0  0  0  0  0
    1.9120  -18.8170    1.5770 H   0  0  0  0  0  0  0  0  0  0  0  0
   -1.3197  -16.3150   -1.6999 H   0  0  0  0  0  0  0  0  0  0  0  0
   -2.9480  -16.1950    0.1656 H   0  0  0  0  0  0  0  0  0  0  0  0
   -2.0439  -19.2044    3.4171 H   0  0  0  0  0  0  0  0  0  0  0  0
   -4.0314  -18.6043    5.0742 H   0  0  0  0  0  0  0  0  0  0  0  0
   -5.2728  -14.3886    3.1003 H   0  0  0  0  0  0  0  0  0  0  0  0
   -5.1482  -11.9593    2.5636 H   0  0  0  0  0  0  0  0  0  0  0  0
   -2.9543  -10.9023    2.0320 H   0  0  0  0  0  0  0  0  0  0  0  0
   -0.2680  -11.4100    2.4280 H   0  0  0  0  0  0  0  0  0  0  0  0
    1.6660  -11.4600    1.8290 H   0  0  0  0  0  0  0  0  0  0  0  0
    3.9634  -12.4471    1.7652 H   0  0  0  0  0  0  0  0  0  0  0  0
    5.9801  -12.6216    0.3272 H   0  0  0  0  0  0  0  0  0  0  0  0
    6.5366  -10.3381   -2.1461 H   0  0  0  0  0  0  0  0  0  0  0  0
    7.5809  -11.4632   -1.2096 H   0  0  0  0  0  0  0  0  0  0  0  0
    7.5206  -11.1092   -4.2563 H   0  0  0  0  0  0  0  0  0  0  0  0
    8.8425  -10.6221   -3.1181 H   0  0  0  0  0  0  0  0  0  0  0  0
    7.1115  -13.3805   -4.6399 H   0  0  0  0  0  0  0  0  0  0  0  0
    8.1289  -14.6235   -3.8040 H   0  0  0  0  0  0  0  0  0  0  0  0
    5.8189  -14.4219   -2.8288 H   0  0  0  0  0  0  0  0  0  0  0  0
    7.1260  -14.0646   -1.6483 H   0  0  0  0  0  0  0  0  0  0  0  0
    1.5287  -11.7702   -1.7236 H   0  0  0  0  0  0  0  0  0  0  0  0
   -0.9990  -14.7185    2.5300 H   0  0  0  0  0  0  0  0  0  0  0  0
  1  2  1  0
  2  3  1  0
  2  4  1  0
  4  5  1  0
  5  6  1  0
  6  7  2  0
  7  8  1  0
  8  9  2  0
  9 10  1  0
 10 11  1  0
 11 12  1  0
 12 13  2  0
 13 14  1  0
 14 15  2  0
 15 16  1  0
 16 17  2  0
 17 18  1  0
 18 19  2  0
 19 20  1  0
 20 21  1  0
 21 22  1  0
 22 23  2  0
 22 24  1  0
 24 25  1  0
 25 26  2  0
 26 27  1  0
 27 28  2  0
 28 29  1  0
 29 30  1  0
 30 31  1  0
 31 32  1  0
 32 33  1  0
 33 34  1  0
 28 35  1  0
 35 36  1  0
 36 37  1  0
 36 38  1  0
 36 39  1  0
 35 40  2  0
 20 41  2  0
 10 42  2  0
 42  6  1  0
 15 11  1  0
 41 16  1  0
 40 25  1  0
 34 29  1  0
  1 43  1  0
  1 44  1  0
  1 45  1  0
  2 46  1  1
  3 47  1  0
  4 48  1  0
  4 49  1  0
  5 50  1  0
  8 51  1  0
  9 52  1  0
 12 53  1  0
 13 54  1  0
 17 55  1  0
 18 56  1  0
 19 57  1  0
 21 58  1  0
 24 59  1  0
 26 60  1  0
 27 61  1  0
 30 62  1  0
 30 63  1  0
 31 64  1  0
 31 65  1  0
 33 66  1  0
 33 67  1  0
 34 68  1  0
 34 69  1  0
 40 70  1  0
 41 71  1  0
M  END
>  <meeko>  (8) 
{"is_sidechain": [false], "free_energy": -7.628, "intermolecular_energy": -12.121, "internal_energy": -1.858}

$$$$
LIB_ASWUBISYJRGUGG__M_PUB_ALL__e8__s20260927
     RDKit          3D

 71 75  0  0  0  0  0  0  0  0999 V2000
    6.6840  -13.7210  -10.4580 C   0  0  0  0  0  0  0  0  0  0  0  0
    7.8300  -12.9230   -9.8520 C   0  0  2  0  0  0  0  0  0  0  0  0
    7.2880  -11.7880   -9.1680 O   0  0  0  0  0  0  0  0  0  0  0  0
    8.8870  -12.4630  -10.8730 C   0  0  0  0  0  0  0  0  0  0  0  0
   10.0700  -13.2980  -10.8430 N   0  0  0  0  0  0  0  0  0  0  0  0
   11.3410  -12.8080  -10.8900 C   0  0  0  0  0  0  0  0  0  0  0  0
   11.6340  -11.8610   -9.9960 N   0  0  0  0  0  0  0  0  0  0  0  0
   12.8830  -11.3660  -10.0190 C   0  0  0  0  0  0  0  0  0  0  0  0
   13.8470  -11.7680  -10.9110 C   0  0  0  0  0  0  0  0  0  0  0  0
   13.4540  -12.7270  -11.8170 C   0  0  0  0  0  0  0  0  0  0  0  0
   14.3530  -13.2480  -12.7990 N   0  0  0  0  0  0  0  0  0  0  0  0
   14.7140  -12.5540  -13.9400 C   0  0  0  0  0  0  0  0  0  0  0  0
   15.4210  -13.4330  -14.7180 C   0  0  0  0  0  0  0  0  0  0  0  0
   15.5770  -14.6220  -14.0690 N   0  0  0  0  0  0  0  0  0  0  0  0
   15.0210  -14.4730  -12.8760 C   0  0  0  0  0  0  0  0  0  0  0  0
   15.1730  -15.4660  -11.8120 C   0  0  0  0  0  0  0  0  0  0  0  0
   15.2490  -16.8340  -12.0970 C   0  0  0  0  0  0  0  0  0  0  0  0
   15.3940  -17.7560  -11.0620 C   0  0  0  0  0  0  0  0  0  0  0  0
   15.4460  -17.3210   -9.7340 C   0  0  0  0  0  0  0  0  0  0  0  0
   15.3390  -15.9640   -9.4270 C   0  0  0  0  0  0  0  0  0  0  0  0
   15.3470  -15.4480   -8.1140 N   0  0  0  0  0  0  0  0  0  0  0  0
   14.2630  -15.2900   -7.2610 C   0  0  0  0  0  0  0  0  0  0  0  0
   13.1330  -15.6990   -7.4860 O   0  0  0  0  0  0  0  0  0  0  0  0
   14.6490  -14.6080   -6.1150 N   0  0  0  0  0  0  0  0  0  0  0  0
   13.8740  -14.3410   -4.9680 C   0  0  0  0  0  0  0  0  0  0  0  0
   13.4340  -13.0280   -4.7890 C   0  0  0  0  0  0  0  0  0  0  0  0
   12.6660  -12.6790   -3.6740 C   0  0  0  0  0  0  0  0  0  0  0  0
   12.3160  -13.6300   -2.7070 C   0  0  0  0  0  0  0  0  0  0  0  0
   11.5630  -13.2740   -1.5970 N   0  0  0  0  0  0  0  0  0  0  0  0
   12.2210  -12.3920   -0.6160 C   0  0  0  0  0  0  0  0  0  0  0  0
   11.4070  -12.3710    0.6890 C   0  0  0  0  0  0  0  0  0  0  0  0
   10.0380  -12.0000    0.4500 O   0  0  0  0  0  0  0  0  0  0  0  0
    9.4190  -12.9490   -0.4370 C   0  0  0  0  0  0  0  0  0  0  0  0
   10.1310  -12.9930   -1.7980 C   0  0  0  0  0  0  0  0  0  0  0  0
   12.7600  -14.9530   -2.8750 C   0  0  0  0  0  0  0  0  0  0  0  0
   12.4030  -16.0170   -1.8670 C   0  0  0  0  0  0  0  0  0  0  0  0
   12.8180  -15.7230   -0.6000 F   0  0  0  0  0  0  0  0  0  0  0  0
   12.9610  -17.2340   -2.1430 F   0  0  0  0  0  0  0  0  0  0  0  0
   11.0620  -16.2580   -1.7810 F   0  0  0  0  0  0  0  0  0  0  0  0
   13.5360  -15.2930   -4.0060 C   0  0  0  0  0  0  0  0  0  0  0  0
   15.1920  -15.0440  -10.4740 C   0  0  0  0  0  0  0  0  0  0  0  0
   12.2110  -13.2670  -11.7940 N   0  0  0  0  0  0  0  0  0  0  0  0
    6.0692  -14.1491   -9.6526 H   0  0  0  0  0  0  0  0  0  0  0  0
    6.0641  -13.0582  -11.0797 H   0  0  0  0  0  0  0  0  0  0  0  0
    7.0906  -14.5323  -11.0797 H   0  0  0  0  0  0  0  0  0  0  0  0
    8.3578  -13.5958   -9.1601 H   0  0  0  0  0  0  0  0  0  0  0  0
    8.0330  -11.1650   -9.0740 H   0  0  0  0  0  0  0  0  0  0  0  0
    8.4486  -12.5043  -11.8810 H   0  0  0  0  0  0  0  0  0  0  0  0
    9.1881  -11.4378  -10.6117 H   0  0  0  0  0  0  0  0  0  0  0  0
    9.9970  -14.3030  -10.9040 H   0  0  0  0  0  0  0  0  0  0  0  0
   13.1487  -10.5946   -9.2812 H   0  0  0  0  0  0  0  0  0  0  0  0
   14.8650  -11.3515  -10.9020 H   0  0  0  0  0  0  0  0  0  0  0  0
   14.4801  -11.5053  -14.1758 H   0  0  0  0  0  0  0  0  0  0  0  0
   15.8078  -13.2109  -15.7235 H   0  0  0  0  0  0  0  0  0  0  0  0
   15.1942  -17.1820  -13.1391 H   0  0  0  0  0  0  0  0  0  0  0  0
   15.4678  -18.8295  -11.2905 H   0  0  0  0  0  0  0  0  0  0  0  0
   15.5723  -18.0549   -8.9244 H   0  0  0  0  0  0  0  0  0  0  0  0
   16.2540  -15.2250   -7.7350 H   0  0  0  0  0  0  0  0  0  0  0  0
   15.5700  -14.2000   -6.1280 H   0  0  0  0  0  0  0  0  0  0  0  0
   13.6942  -12.2604   -5.5327 H   0  0  0  0  0  0  0  0  0  0  0  0
   12.3304  -11.6383   -3.5540 H   0  0  0  0  0  0  0  0  0  0  0  0
   13.2343  -12.7667   -0.4091 H   0  0  0  0  0  0  0  0  0  0  0  0
   12.2809  -11.3725   -1.0248 H   0  0  0  0  0  0  0  0  0  0  0  0
   11.4320  -13.3730    1.1421 H   0  0  0  0  0  0  0  0  0  0  0  0
   11.8542  -11.6255    1.3629 H   0  0  0  0  0  0  0  0  0  0  0  0
    9.4619  -13.9479    0.0216 H   0  0  0  0  0  0  0  0  0  0  0  0
    8.3765  -12.6391   -0.6020 H   0  0  0  0  0  0  0  0  0  0  0  0
    9.6860  -13.7847   -2.4186 H   0  0  0  0  0  0  0  0  0  0  0  0
   10.0162  -12.0221   -2.3022 H   0  0  0  0  0  0  0  0  0  0  0  0
   13.8808  -16.3301   -4.1304 H   0  0  0  0  0  0  0  0  0  0  0  0
   15.0898  -13.9734  -10.2430 H   0  0  0  0  0  0  0  0  0  0  0  0
  1  2  1  0
  2  3  1  0
  2  4  1  0
  4  5  1  0
  5  6  1  0
  6  7  2  0
  7  8  1  0
  8  9  2  0
  9 10  1  0
 10 11  1  0
 11 12  1  0
 12 13  2  0
 13 14  1  0
 14 15  2  0
 15 16  1  0
 16 17  2  0
 17 18  1  0
 18 19  2  0
 19 20  1  0
 20 21  1  0
 21 22  1  0
 22 23  2  0
 22 24  1  0
 24 25  1  0
 25 26  2  0
 26 27  1  0
 27 28  2  0
 28 29  1  0
 29 30  1  0
 30 31  1  0
 31 32  1  0
 32 33  1  0
 33 34  1  0
 28 35  1  0
 35 36  1  0
 36 37  1  0
 36 38  1  0
 36 39  1  0
 35 40  2  0
 20 41  2  0
 10 42  2  0
 42  6  1  0
 15 11  1  0
 41 16  1  0
 40 25  1  0
 34 29  1  0
  1 43  1  0
  1 44  1  0
  1 45  1  0
  2 46  1  1
  3 47  1  0
  4 48  1  0
  4 49  1  0
  5 50  1  0
  8 51  1  0
  9 52  1  0
 12 53  1  0
 13 54  1  0
 17 55  1  0
 18 56  1  0
 19 57  1  0
 21 58  1  0
 24 59  1  0
 26 60  1  0
 27 61  1  0
 30 62  1  0
 30 63  1  0
 31 64  1  0
 31 65  1  0
 33 66  1  0
 33 67  1  0
 34 68  1  0
 34 69  1  0
 40 70  1  0
 41 71  1  0
M  END
>  <meeko>  (9) 
{"is_sidechain": [false], "free_energy": -7.626, "intermolecular_energy": -12.538, "internal_energy": -1.439}

$$$$
