LIB_YGTYIGUWQYTZMS__M_PUB_ALL__e8__s20260927
     RDKit          3D

 85 90  0  0  0  0  0  0  0  0999 V2000
    6.0690  -18.1960   -2.4610 C   0  0  0  0  0  0  0  0  0  0  0  0
    6.3310  -17.7470   -3.8760 C   0  0  0  0  0  0  0  0  0  0  0  0
    7.3640  -18.3700   -4.6000 C   0  0  0  0  0  0  0  0  0  0  0  0
    7.6730  -17.9700   -5.9000 C   0  0  0  0  0  0  0  0  0  0  0  0
    6.9140  -16.9670   -6.5020 C   0  0  0  0  0  0  0  0  0  0  0  0
    7.2860  -16.3900   -7.8200 C   0  0  0  0  0  0  0  0  0  0  0  0
    7.4190  -17.1590   -8.7770 O   0  0  0  0  0  0  0  0  0  0  0  0
    7.4820  -15.0260   -7.8370 N   0  0  0  0  0  0  0  0  0  0  0  0
    7.6190  -14.2060   -8.9750 C   0  0  0  0  0  0  0  0  0  0  0  0
    6.4910  -13.9940   -9.7700 C   0  0  0  0  0  0  0  0  0  0  0  0
    6.5710  -13.1970  -10.9160 C   0  0  0  0  0  0  0  0  0  0  0  0
    7.7830  -12.6140  -11.2830 C   0  0  0  0  0  0  0  0  0  0  0  0
    8.9280  -12.8280  -10.5070 C   0  0  0  0  0  0  0  0  0  0  0  0
   10.2600  -12.2390  -10.9010 C   0  0  0  0  0  0  0  0  0  0  0  0
   10.8820  -12.9070  -11.9050 F   0  0  0  0  0  0  0  0  0  0  0  0
   10.1220  -10.9490  -11.3520 F   0  0  0  0  0  0  0  0  0  0  0  0
   11.1340  -12.1670   -9.8660 F   0  0  0  0  0  0  0  0  0  0  0  0
    8.8350  -13.6390   -9.3610 C   0  0  0  0  0  0  0  0  0  0  0  0
    5.8530  -16.3810   -5.8060 C   0  0  0  0  0  0  0  0  0  0  0  0
    5.5890  -16.7040   -4.4690 C   0  0  0  0  0  0  0  0  0  0  0  0
    4.6270  -15.9940   -3.7210 N   0  0  0  0  0  0  0  0  0  0  0  0
    4.3310  -14.6740   -3.7860 C   0  0  0  0  0  0  0  0  0  0  0  0
    4.5730  -13.8250   -4.7660 N   0  0  0  0  0  0  0  0  0  0  0  0
    3.9490  -12.6620   -4.4130 C   0  0  0  0  0  0  0  0  0  0  0  0
    3.7740  -11.4870   -5.1590 C   0  0  0  0  0  0  0  0  0  0  0  0
    3.1030  -10.4090   -4.5690 C   0  0  0  0  0  0  0  0  0  0  0  0
    2.6210  -10.4960   -3.2640 C   0  0  0  0  0  0  0  0  0  0  0  0
    2.7970  -11.6550   -2.5000 C   0  0  0  0  0  0  0  0  0  0  0  0
    3.4780  -12.7230   -3.1040 C   0  0  0  0  0  0  0  0  0  0  0  0
    3.8570  -13.9830   -2.6640 N   0  0  0  0  0  0  0  0  0  0  0  0
    4.1740  -14.3740   -1.3220 C   0  0  0  0  0  0  0  0  0  0  0  0
    5.1650  -13.6460   -0.6800 C   0  0  0  0  0  0  0  0  0  0  0  0
    5.8860  -14.3150    0.2820 C   0  0  0  0  0  0  0  0  0  0  0  0
    7.1290  -13.9110    0.7140 N   0  0  0  0  0  0  0  0  0  0  0  0
    7.4770  -12.6070    1.2460 C   0  0  0  0  0  0  0  0  0  0  0  0
    8.3490  -11.8560    0.2320 C   0  0  0  0  0  0  0  0  0  0  0  0
    9.1440  -12.7730   -0.7000 C   0  0  0  0  0  0  0  0  0  0  0  0
   10.5570  -12.2640   -0.9300 N   0  0  0  0  0  0  0  0  0  0  0  0
   11.0700  -12.3660   -2.3650 C   0  0  0  0  0  0  0  0  0  0  0  0
   11.5210  -13.8060   -2.7330 C   0  0  0  0  0  0  0  0  0  0  0  0
   12.4850  -14.3810   -1.7100 N   0  0  0  0  0  0  0  0  0  0  0  0
   12.9070  -15.7900   -2.0440 C   0  0  0  0  0  0  0  0  0  0  0  0
   12.0030  -14.2620   -0.2790 C   0  0  0  0  0  0  0  0  0  0  0  0
   11.5890  -12.8130    0.0530 C   0  0  0  0  0  0  0  0  0  0  0  0
    5.5330  -15.5310    0.7040 N   0  0  0  0  0  0  0  0  0  0  0  0
    4.4560  -16.0940    0.1410 C   0  0  0  0  0  0  0  0  0  0  0  0
    3.7950  -15.6010   -0.9100 N   0  0  0  0  0  0  0  0  0  0  0  0
    6.4959  -17.4644   -1.7592 H   0  0  0  0  0  0  0  0  0  0  0  0
    4.9842  -18.2730   -2.2956 H   0  0  0  0  0  0  0  0  0  0  0  0
    6.5357  -19.1783   -2.2956 H   0  0  0  0  0  0  0  0  0  0  0  0
    7.9368  -19.1851   -4.1336 H   0  0  0  0  0  0  0  0  0  0  0  0
    8.5055  -18.4402   -6.4439 H   0  0  0  0  0  0  0  0  0  0  0  0
    7.5760  -14.5560   -6.9400 H   0  0  0  0  0  0  0  0  0  0  0  0
    5.5326  -14.4573   -9.4928 H   0  0  0  0  0  0  0  0  0  0  0  0
    5.6741  -13.0293  -11.5304 H   0  0  0  0  0  0  0  0  0  0  0  0
    7.8395  -11.9850  -12.1836 H   0  0  0  0  0  0  0  0  0  0  0  0
    9.7357  -13.8295   -8.7590 H   0  0  0  0  0  0  0  0  0  0  0  0
    5.2112  -15.6500   -6.3196 H   0  0  0  0  0  0  0  0  0  0  0  0
    4.3060  -16.5100   -2.8990 H   0  0  0  0  0  0  0  0  0  0  0  0
    4.1566  -11.4139   -6.1877 H   0  0  0  0  0  0  0  0  0  0  0  0
    2.9544   -9.4821   -5.1424 H   0  0  0  0  0  0  0  0  0  0  0  0
    2.0919   -9.6367   -2.8262 H   0  0  0  0  0  0  0  0  0  0  0  0
    2.4177  -11.7259   -1.4699 H   0  0  0  0  0  0  0  0  0  0  0  0
    5.3633  -12.5924   -0.9263 H   0  0  0  0  0  0  0  0  0  0  0  0
    7.6000  -14.7120    1.1490 H   0  0  0  0  0  0  0  0  0  0  0  0
    6.5588  -12.0320    1.4366 H   0  0  0  0  0  0  0  0  0  0  0  0
    8.0339  -12.7319    2.1864 H   0  0  0  0  0  0  0  0  0  0  0  0
    7.6955  -11.2195   -0.3827 H   0  0  0  0  0  0  0  0  0  0  0  0
    9.0822  -11.2742    0.8099 H   0  0  0  0  0  0  0  0  0  0  0  0
    9.1964  -13.7760   -0.2515 H   0  0  0  0  0  0  0  0  0  0  0  0
    8.6295  -12.7982   -1.6719 H   0  0  0  0  0  0  0  0  0  0  0  0
   10.4960  -11.2420   -0.7320 H   0  0  0  0  0  0  0  0  0  0  0  0
   10.2648  -12.0623   -3.0502 H   0  0  0  0  0  0  0  0  0  0  0  0
   11.9464  -11.7074   -2.4549 H   0  0  0  0  0  0  0  0  0  0  0  0
   10.6331  -14.4531   -2.7867 H   0  0  0  0  0  0  0  0  0  0  0  0
   12.0411  -13.7613   -3.7013 H   0  0  0  0  0  0  0  0  0  0  0  0
   13.3780  -13.8300   -1.7650 H   0  0  0  0  0  0  0  0  0  0  0  0
   13.0755  -16.3525   -1.1139 H   0  0  0  0  0  0  0  0  0  0  0  0
   12.1163  -16.2802   -2.6309 H   0  0  0  0  0  0  0  0  0  0  0  0
   13.8370  -15.7648   -2.6309 H   0  0  0  0  0  0  0  0  0  0  0  0
   11.1363  -14.9242   -0.1363 H   0  0  0  0  0  0  0  0  0  0  0  0
   12.8267  -14.5505    0.3906 H   0  0  0  0  0  0  0  0  0  0  0  0
   11.1594  -12.7912    1.0654 H   0  0  0  0  0  0  0  0  0  0  0  0
   12.4877  -12.1825   -0.0164 H   0  0  0  0  0  0  0  0  0  0  0  0
    4.0876  -17.0341    0.5774 H   0  0  0  0  0  0  0  0  0  0  0  0
  1  2  1  0
  2  3  2  0
  3  4  1  0
  4  5  2  0
  5  6  1  0
  6  7  2  0
  6  8  1  0
  8  9  1  0
  9 10  2  0
 10 11  1  0
 11 12  2  0
 12 13  1  0
 13 14  1  0
 14 15  1  0
 14 16  1  0
 14 17  1  0
 13 18  2  0
  5 19  1  0
 19 20  2  0
 20 21  1  0
 21 22  1  0
 22 23  2  0
 23 24  1  0
 24 25  2  0
 25 26  1  0
 26 27  2  0
 27 28  1  0
 28 29  2  0
 29 30  1  0
 30 31  1  0
 31 32  2  0
 32 33  1  0
 33 34  1  0
 34 35  1  0
 35 36  1  0
 36 37  1  0
 37 38  1  0
 38 39  1  0
 39 40  1  0
 40 41  1  0
 41 42  1  0
 41 43  1  0
 43 44  1  0
 33 45  2  0
 45 46  1  0
 46 47  2  0
 20  2  1  0
 30 22  1  0
 47 31  1  0
 18  9  1  0
 29 24  1  0
 44 38  1  0
  1 48  1  0
  1 49  1  0
  1 50  1  0
  3 51  1  0
  4 52  1  0
  8 53  1  0
 10 54  1  0
 11 55  1  0
 12 56  1  0
 18 57  1  0
 19 58  1  0
 21 59  1  0
 25 60  1  0
 26 61  1  0
 27 62  1  0
 28 63  1  0
 32 64  1  0
 34 65  1  0
 35 66  1  0
 35 67  1  0
 36 68  1  0
 36 69  1  0
 37 70  1  0
 37 71  1  0
 38 72  1  0
 39 73  1  0
 39 74  1  0
 40 75  1  0
 40 76  1  0
 41 77  1  0
 42 78  1  0
 42 79  1  0
 42 80  1  0
 43 81  1  0
 43 82  1  0
 44 83  1  0
 44 84  1  0
 46 85  1  0
M  CHG  2  38   1  41   1
M  END
>  <meeko>  (1) 
{"is_sidechain": [false], "free_energy": -9.458, "intermolecular_energy": -15.54, "internal_energy": -2.393}

$$$$
LIB_YGTYIGUWQYTZMS__M_PUB_ALL__e8__s20260927
     RDKit          3D

 85 90  0  0  0  0  0  0  0  0999 V2000
   10.8040  -18.5120   -0.6380 C   0  0  0  0  0  0  0  0  0  0  0  0
    9.7350  -17.8210   -1.4450 C   0  0  0  0  0  0  0  0  0  0  0  0
    8.5580  -18.5290   -1.7520 C   0  0  0  0  0  0  0  0  0  0  0  0
    7.5530  -17.9490   -2.5250 C   0  0  0  0  0  0  0  0  0  0  0  0
    7.7010  -16.6330   -2.9600 C   0  0  0  0  0  0  0  0  0  0  0  0
    6.7430  -16.0110   -3.9110 C   0  0  0  0  0  0  0  0  0  0  0  0
    5.8100  -16.7010   -4.3330 O   0  0  0  0  0  0  0  0  0  0  0  0
    7.0160  -14.7060   -4.2600 N   0  0  0  0  0  0  0  0  0  0  0  0
    6.1660  -13.8210   -4.9540 C   0  0  0  0  0  0  0  0  0  0  0  0
    6.3300  -13.7030   -6.3360 C   0  0  0  0  0  0  0  0  0  0  0  0
    5.5210  -12.8330   -7.0730 C   0  0  0  0  0  0  0  0  0  0  0  0
    4.5480  -12.0660   -6.4340 C   0  0  0  0  0  0  0  0  0  0  0  0
    4.3800  -12.1600   -5.0480 C   0  0  0  0  0  0  0  0  0  0  0  0
    3.3600  -11.3150   -4.3260 C   0  0  0  0  0  0  0  0  0  0  0  0
    2.2510  -11.9980   -3.9450 F   0  0  0  0  0  0  0  0  0  0  0  0
    3.8780  -10.7860   -3.1690 F   0  0  0  0  0  0  0  0  0  0  0  0
    2.9430  -10.2490   -5.0540 F   0  0  0  0  0  0  0  0  0  0  0  0
    5.2060  -13.0330   -4.3170 C   0  0  0  0  0  0  0  0  0  0  0  0
    8.8440  -15.9070   -2.6140 C   0  0  0  0  0  0  0  0  0  0  0  0
    9.9050  -16.5030   -1.9190 C   0  0  0  0  0  0  0  0  0  0  0  0
   11.1210  -15.8200   -1.7160 N   0  0  0  0  0  0  0  0  0  0  0  0
   11.3010  -14.5580   -1.2590 C   0  0  0  0  0  0  0  0  0  0  0  0
   10.6480  -13.9320   -0.2990 N   0  0  0  0  0  0  0  0  0  0  0  0
   11.3020  -12.7450   -0.1180 C   0  0  0  0  0  0  0  0  0  0  0  0
   11.1080  -11.7670    0.8680 C   0  0  0  0  0  0  0  0  0  0  0  0
   11.9020  -10.6140    0.8390 C   0  0  0  0  0  0  0  0  0  0  0  0
   12.8660  -10.4360   -0.1530 C   0  0  0  0  0  0  0  0  0  0  0  0
   13.0640  -11.3950   -1.1520 C   0  0  0  0  0  0  0  0  0  0  0  0
   12.2550  -12.5410   -1.1120 C   0  0  0  0  0  0  0  0  0  0  0  0
   12.1450  -13.6600   -1.9250 N   0  0  0  0  0  0  0  0  0  0  0  0
   12.4060  -13.7390   -3.3320 C   0  0  0  0  0  0  0  0  0  0  0  0
   11.3660  -13.3840   -4.1770 C   0  0  0  0  0  0  0  0  0  0  0  0
   11.3490  -13.9920   -5.4120 C   0  0  0  0  0  0  0  0  0  0  0  0
   10.2210  -14.0850   -6.1960 N   0  0  0  0  0  0  0  0  0  0  0  0
    9.6380  -15.3030   -6.7270 C   0  0  0  0  0  0  0  0  0  0  0  0
    9.6720  -15.2610   -8.2600 C   0  0  0  0  0  0  0  0  0  0  0  0
    8.9340  -14.0630   -8.8630 C   0  0  0  0  0  0  0  0  0  0  0  0
    8.8890  -14.1270  -10.3800 N   0  0  0  0  0  0  0  0  0  0  0  0
   10.1070  -13.5510  -11.1000 C   0  0  0  0  0  0  0  0  0  0  0  0
   10.0820  -11.9990  -11.1590 C   0  0  0  0  0  0  0  0  0  0  0  0
    8.7630  -11.4690  -11.6930 N   0  0  0  0  0  0  0  0  0  0  0  0
    8.7190   -9.9620  -11.7260 C   0  0  0  0  0  0  0  0  0  0  0  0
    7.5450  -12.0520  -11.0070 C   0  0  0  0  0  0  0  0  0  0  0  0
    7.5960  -13.5940  -10.9930 C   0  0  0  0  0  0  0  0  0  0  0  0
   12.3720  -14.7340   -5.8420 N   0  0  0  0  0  0  0  0  0  0  0  0
   13.4160  -14.8880   -5.0170 C   0  0  0  0  0  0  0  0  0  0  0  0
   13.4530  -14.4830   -3.7440 N   0  0  0  0  0  0  0  0  0  0  0  0
   10.5977  -18.3787    0.4342 H   0  0  0  0  0  0  0  0  0  0  0  0
   10.8097  -19.5851   -0.8796 H   0  0  0  0  0  0  0  0  0  0  0  0
   11.7848  -18.0766   -0.8796 H   0  0  0  0  0  0  0  0  0  0  0  0
    8.4291  -19.5549   -1.3766 H   0  0  0  0  0  0  0  0  0  0  0  0
    6.6530  -18.5238   -2.7888 H   0  0  0  0  0  0  0  0  0  0  0  0
    7.9380  -14.3430   -4.0320 H   0  0  0  0  0  0  0  0  0  0  0  0
    7.1005  -14.2983   -6.8478 H   0  0  0  0  0  0  0  0  0  0  0  0
    5.6529  -12.7533   -8.1622 H   0  0  0  0  0  0  0  0  0  0  0  0
    3.9117  -11.3863   -7.0198 H   0  0  0  0  0  0  0  0  0  0  0  0
    5.0934  -13.0958   -3.2246 H   0  0  0  0  0  0  0  0  0  0  0  0
    8.9123  -14.8452   -2.8931 H   0  0  0  0  0  0  0  0  0  0  0  0
   11.9100  -16.2660   -2.1900 H   0  0  0  0  0  0  0  0  0  0  0  0
   10.3462  -11.9031    1.6498 H   0  0  0  0  0  0  0  0  0  0  0  0
   11.7638   -9.8395    1.6077 H   0  0  0  0  0  0  0  0  0  0  0  0
   13.4820   -9.5247   -0.1498 H   0  0  0  0  0  0  0  0  0  0  0  0
   13.8225  -11.2565   -1.9365 H   0  0  0  0  0  0  0  0  0  0  0  0
   10.5970  -12.6568   -3.8773 H   0  0  0  0  0  0  0  0  0  0  0  0
    9.5570  -13.3630   -5.8990 H   0  0  0  0  0  0  0  0  0  0  0  0
   10.2136  -16.1703   -6.3712 H   0  0  0  0  0  0  0  0  0  0  0  0
    8.5958  -15.3893   -6.3859 H   0  0  0  0  0  0  0  0  0  0  0  0
   10.7229  -15.2187   -8.5823 H   0  0  0  0  0  0  0  0  0  0  0  0
    9.1577  -16.1658   -8.6162 H   0  0  0  0  0  0  0  0  0  0  0  0
    7.9039  -14.0497   -8.4774 H   0  0  0  0  0  0  0  0  0  0  0  0
    9.4776  -13.1503   -8.5775 H   0  0  0  0  0  0  0  0  0  0  0  0
    8.9020  -15.1480  -10.5930 H   0  0  0  0  0  0  0  0  0  0  0  0
   11.0153  -13.8695  -10.5675 H   0  0  0  0  0  0  0  0  0  0  0  0
   10.0931  -13.9258  -12.1341 H   0  0  0  0  0  0  0  0  0  0  0  0
   10.2390  -11.6029  -10.1449 H   0  0  0  0  0  0  0  0  0  0  0  0
   10.8798  -11.6730  -11.8426 H   0  0  0  0  0  0  0  0  0  0  0  0
    8.6910  -11.7470  -12.7030 H   0  0  0  0  0  0  0  0  0  0  0  0
    8.7076   -9.5729  -10.6972 H   0  0  0  0  0  0  0  0  0  0  0  0
    9.6064   -9.5807  -12.2524 H   0  0  0  0  0  0  0  0  0  0  0  0
    7.8109   -9.6331  -12.2524 H   0  0  0  0  0  0  0  0  0  0  0  0
    7.5070  -11.6850   -9.9707 H   0  0  0  0  0  0  0  0  0  0  0  0
    6.6491  -11.7385  -11.5630 H   0  0  0  0  0  0  0  0  0  0  0  0
    6.7452  -13.9705  -10.4062 H   0  0  0  0  0  0  0  0  0  0  0  0
    7.5507  -13.9410  -12.0358 H   0  0  0  0  0  0  0  0  0  0  0  0
   14.3112  -15.3858   -5.4179 H   0  0  0  0  0  0  0  0  0  0  0  0
  1  2  1  0
  2  3  2  0
  3  4  1  0
  4  5  2  0
  5  6  1  0
  6  7  2  0
  6  8  1  0
  8  9  1  0
  9 10  2  0
 10 11  1  0
 11 12  2  0
 12 13  1  0
 13 14  1  0
 14 15  1  0
 14 16  1  0
 14 17  1  0
 13 18  2  0
  5 19  1  0
 19 20  2  0
 20 21  1  0
 21 22  1  0
 22 23  2  0
 23 24  1  0
 24 25  2  0
 25 26  1  0
 26 27  2  0
 27 28  1  0
 28 29  2  0
 29 30  1  0
 30 31  1  0
 31 32  2  0
 32 33  1  0
 33 34  1  0
 34 35  1  0
 35 36  1  0
 36 37  1  0
 37 38  1  0
 38 39  1  0
 39 40  1  0
 40 41  1  0
 41 42  1  0
 41 43  1  0
 43 44  1  0
 33 45  2  0
 45 46  1  0
 46 47  2  0
 20  2  1  0
 30 22  1  0
 47 31  1  0
 18  9  1  0
 29 24  1  0
 44 38  1  0
  1 48  1  0
  1 49  1  0
  1 50  1  0
  3 51  1  0
  4 52  1  0
  8 53  1  0
 10 54  1  0
 11 55  1  0
 12 56  1  0
 18 57  1  0
 19 58  1  0
 21 59  1  0
 25 60  1  0
 26 61  1  0
 27 62  1  0
 28 63  1  0
 32 64  1  0
 34 65  1  0
 35 66  1  0
 35 67  1  0
 36 68  1  0
 36 69  1  0
 37 70  1  0
 37 71  1  0
 38 72  1  0
 39 73  1  0
 39 74  1  0
 40 75  1  0
 40 76  1  0
 41 77  1  0
 42 78  1  0
 42 79  1  0
 42 80  1  0
 43 81  1  0
 43 82  1  0
 44 83  1  0
 44 84  1  0
 46 85  1  0
M  CHG  2  38   1  41   1
M  END
>  <meeko>  (2) 
{"is_sidechain": [false], "free_energy": -9.389, "intermolecular_energy": -14.74, "internal_energy": -3.079}

$$$$
LIB_YGTYIGUWQYTZMS__M_PUB_ALL__e8__s20260927
     RDKit          3D

 85 90  0  0  0  0  0  0  0  0999 V2000
   13.5560  -14.7130  -13.3410 C   0  0  0  0  0  0  0  0  0  0  0  0
   13.7910  -14.7580  -11.8530 C   0  0  0  0  0  0  0  0  0  0  0  0
   15.1010  -14.9700  -11.3840 C   0  0  0  0  0  0  0  0  0  0  0  0
   15.3690  -15.0550  -10.0180 C   0  0  0  0  0  0  0  0  0  0  0  0
   14.3280  -14.8810   -9.1070 C   0  0  0  0  0  0  0  0  0  0  0  0
   14.5160  -15.1120   -7.6510 C   0  0  0  0  0  0  0  0  0  0  0  0
   15.6570  -15.3420   -7.2400 O   0  0  0  0  0  0  0  0  0  0  0  0
   13.3670  -15.0770   -6.8920 N   0  0  0  0  0  0  0  0  0  0  0  0
   13.2840  -15.0410   -5.4850 C   0  0  0  0  0  0  0  0  0  0  0  0
   13.3300  -16.2530   -4.7940 C   0  0  0  0  0  0  0  0  0  0  0  0
   13.2420  -16.2770   -3.3990 C   0  0  0  0  0  0  0  0  0  0  0  0
   13.0990  -15.0900   -2.6830 C   0  0  0  0  0  0  0  0  0  0  0  0
   13.0350  -13.8660   -3.3590 C   0  0  0  0  0  0  0  0  0  0  0  0
   12.8430  -12.5700   -2.6120 C   0  0  0  0  0  0  0  0  0  0  0  0
   11.7780  -11.8430   -3.0350 F   0  0  0  0  0  0  0  0  0  0  0  0
   12.6250  -12.7910   -1.2740 F   0  0  0  0  0  0  0  0  0  0  0  0
   13.9290  -11.7590   -2.6700 F   0  0  0  0  0  0  0  0  0  0  0  0
   13.1160  -13.8570   -4.7630 C   0  0  0  0  0  0  0  0  0  0  0  0
   13.0340  -14.6180   -9.5670 C   0  0  0  0  0  0  0  0  0  0  0  0
   12.7300  -14.6230  -10.9340 C   0  0  0  0  0  0  0  0  0  0  0  0
   11.3980  -14.5210  -11.3870 N   0  0  0  0  0  0  0  0  0  0  0  0
   10.5660  -13.4570  -11.2920 C   0  0  0  0  0  0  0  0  0  0  0  0
   10.8180  -12.1910  -11.5610 N   0  0  0  0  0  0  0  0  0  0  0  0
    9.6200  -11.5420  -11.4540 C   0  0  0  0  0  0  0  0  0  0  0  0
    9.2990  -10.2140  -11.7700 C   0  0  0  0  0  0  0  0  0  0  0  0
    7.9880   -9.7700  -11.5590 C   0  0  0  0  0  0  0  0  0  0  0  0
    7.0180  -10.6280  -11.0400 C   0  0  0  0  0  0  0  0  0  0  0  0
    7.3230  -11.9520  -10.7080 C   0  0  0  0  0  0  0  0  0  0  0  0
    8.6440  -12.3780  -10.9180 C   0  0  0  0  0  0  0  0  0  0  0  0
    9.3080  -13.5750  -10.6880 N   0  0  0  0  0  0  0  0  0  0  0  0
    9.0240  -14.5420   -9.6700 C   0  0  0  0  0  0  0  0  0  0  0  0
    8.9980  -14.0790   -8.3630 C   0  0  0  0  0  0  0  0  0  0  0  0
    9.3310  -14.9900   -7.3870 C   0  0  0  0  0  0  0  0  0  0  0  0
    9.7520  -14.6300   -6.1270 N   0  0  0  0  0  0  0  0  0  0  0  0
    9.6140  -15.4150   -4.9140 C   0  0  0  0  0  0  0  0  0  0  0  0
    9.4980  -14.4760   -3.7060 C   0  0  0  0  0  0  0  0  0  0  0  0
    8.0710  -13.9970   -3.4290 C   0  0  0  0  0  0  0  0  0  0  0  0
    7.7780  -12.6640   -4.0980 N   0  0  0  0  0  0  0  0  0  0  0  0
    7.7190  -11.4570   -3.1630 C   0  0  0  0  0  0  0  0  0  0  0  0
    6.3760  -11.3710   -2.3890 C   0  0  0  0  0  0  0  0  0  0  0  0
    5.1760  -11.4720   -3.3140 N   0  0  0  0  0  0  0  0  0  0  0  0
    3.8670  -11.4180   -2.5670 C   0  0  0  0  0  0  0  0  0  0  0  0
    5.2330  -12.6490   -4.2650 C   0  0  0  0  0  0  0  0  0  0  0  0
    6.5710  -12.6830   -5.0330 C   0  0  0  0  0  0  0  0  0  0  0  0
    9.4870  -16.2870   -7.6620 N   0  0  0  0  0  0  0  0  0  0  0  0
    9.3290  -16.6740   -8.9340 C   0  0  0  0  0  0  0  0  0  0  0  0
    9.1730  -15.8480   -9.9730 N   0  0  0  0  0  0  0  0  0  0  0  0
   12.4932  -14.5095  -13.5384 H   0  0  0  0  0  0  0  0  0  0  0  0
   14.1706  -13.9162  -13.7853 H   0  0  0  0  0  0  0  0  0  0  0  0
   13.8327  -15.6805  -13.7853 H   0  0  0  0  0  0  0  0  0  0  0  0
   15.9254  -15.0701  -12.1053 H   0  0  0  0  0  0  0  0  0  0  0  0
   16.3904  -15.2571   -9.6632 H   0  0  0  0  0  0  0  0  0  0  0  0
   12.4780  -15.1190   -7.3840 H   0  0  0  0  0  0  0  0  0  0  0  0
   13.4362  -17.1956   -5.3509 H   0  0  0  0  0  0  0  0  0  0  0  0
   13.2858  -17.2372   -2.8641 H   0  0  0  0  0  0  0  0  0  0  0  0
   13.0363  -15.1150   -1.5851 H   0  0  0  0  0  0  0  0  0  0  0  0
   13.0458  -12.9007   -5.3021 H   0  0  0  0  0  0  0  0  0  0  0  0
   12.2376  -14.4025   -8.8394 H   0  0  0  0  0  0  0  0  0  0  0  0
   10.9790  -15.4310  -11.5910 H   0  0  0  0  0  0  0  0  0  0  0  0
   10.0626   -9.5341  -12.1759 H   0  0  0  0  0  0  0  0  0  0  0  0
    7.7196   -8.7321  -11.8054 H   0  0  0  0  0  0  0  0  0  0  0  0
    5.9938  -10.2561  -10.8890 H   0  0  0  0  0  0  0  0  0  0  0  0
    6.5599  -12.6309  -10.2996 H   0  0  0  0  0  0  0  0  0  0  0  0
    8.7263  -13.0411   -8.1200 H   0  0  0  0  0  0  0  0  0  0  0  0
   10.6190  -14.0910   -6.2140 H   0  0  0  0  0  0  0  0  0  0  0  0
    8.7102  -16.0383   -4.9817 H   0  0  0  0  0  0  0  0  0  0  0  0
   10.4968  -16.0600   -4.7929 H   0  0  0  0  0  0  0  0  0  0  0  0
    9.8634  -15.0094   -2.8161 H   0  0  0  0  0  0  0  0  0  0  0  0
   10.0961  -13.5822   -3.9371 H   0  0  0  0  0  0  0  0  0  0  0  0
    7.3639  -14.7486   -3.8099 H   0  0  0  0  0  0  0  0  0  0  0  0
    7.9624  -13.8631   -2.3426 H   0  0  0  0  0  0  0  0  0  0  0  0
    8.6060  -12.4980   -4.7090 H   0  0  0  0  0  0  0  0  0  0  0  0
    8.5411  -11.5331   -2.4361 H   0  0  0  0  0  0  0  0  0  0  0  0
    7.8082  -10.5508   -3.7802 H   0  0  0  0  0  0  0  0  0  0  0  0
    6.3329  -12.1944   -1.6609 H   0  0  0  0  0  0  0  0  0  0  0  0
    6.3360  -10.3926   -1.8879 H   0  0  0  0  0  0  0  0  0  0  0  0
    5.1600  -10.6110   -3.9140 H   0  0  0  0  0  0  0  0  0  0  0  0
    4.0620  -11.4260   -1.4845 H   0  0  0  0  0  0  0  0  0  0  0  0
    3.3291  -10.4969   -2.8358 H   0  0  0  0  0  0  0  0  0  0  0  0
    3.2551  -12.2917   -2.8358 H   0  0  0  0  0  0  0  0  0  0  0  0
    5.1260  -13.5804   -3.6897 H   0  0  0  0  0  0  0  0  0  0  0  0
    4.4158  -12.5469   -4.9942 H   0  0  0  0  0  0  0  0  0  0  0  0
    6.6076  -13.6004   -5.6389 H   0  0  0  0  0  0  0  0  0  0  0  0
    6.6198  -11.7825   -5.6629 H   0  0  0  0  0  0  0  0  0  0  0  0
    9.3275  -17.7546   -9.1396 H   0  0  0  0  0  0  0  0  0  0  0  0
  1  2  1  0
  2  3  2  0
  3  4  1  0
  4  5  2  0
  5  6  1  0
  6  7  2  0
  6  8  1  0
  8  9  1  0
  9 10  2  0
 10 11  1  0
 11 12  2  0
 12 13  1  0
 13 14  1  0
 14 15  1  0
 14 16  1  0
 14 17  1  0
 13 18  2  0
  5 19  1  0
 19 20  2  0
 20 21  1  0
 21 22  1  0
 22 23  2  0
 23 24  1  0
 24 25  2  0
 25 26  1  0
 26 27  2  0
 27 28  1  0
 28 29  2  0
 29 30  1  0
 30 31  1  0
 31 32  2  0
 32 33  1  0
 33 34  1  0
 34 35  1  0
 35 36  1  0
 36 37  1  0
 37 38  1  0
 38 39  1  0
 39 40  1  0
 40 41  1  0
 41 42  1  0
 41 43  1  0
 43 44  1  0
 33 45  2  0
 45 46  1  0
 46 47  2  0
 20  2  1  0
 30 22  1  0
 47 31  1  0
 18  9  1  0
 29 24  1  0
 44 38  1  0
  1 48  1  0
  1 49  1  0
  1 50  1  0
  3 51  1  0
  4 52  1  0
  8 53  1  0
 10 54  1  0
 11 55  1  0
 12 56  1  0
 18 57  1  0
 19 58  1  0
 21 59  1  0
 25 60  1  0
 26 61  1  0
 27 62  1  0
 28 63  1  0
 32 64  1  0
 34 65  1  0
 35 66  1  0
 35 67  1  0
 36 68  1  0
 36 69  1  0
 37 70  1  0
 37 71  1  0
 38 72  1  0
 39 73  1  0
 39 74  1  0
 40 75  1  0
 40 76  1  0
 41 77  1  0
 42 78  1  0
 42 79  1  0
 42 80  1  0
 43 81  1  0
 43 82  1  0
 44 83  1  0
 44 84  1  0
 46 85  1  0
M  CHG  2  38   1  41   1
M  END
>  <meeko>  (3) 
{"is_sidechain": [false], "free_energy": -9.323, "intermolecular_energy": -13.859, "internal_energy": -3.852}

$$$$
LIB_YGTYIGUWQYTZMS__M_PUB_ALL__e8__s20260927
     RDKit          3D

 85 90  0  0  0  0  0  0  0  0999 V2000
   13.0740  -14.7430  -13.6440 C   0  0  0  0  0  0  0  0  0  0  0  0
   13.4370  -14.7310  -12.1820 C   0  0  0  0  0  0  0  0  0  0  0  0
   14.7800  -14.9480  -11.8200 C   0  0  0  0  0  0  0  0  0  0  0  0
   15.1660  -14.9820  -10.4800 C   0  0  0  0  0  0  0  0  0  0  0  0
   14.2110  -14.7530   -9.4900 C   0  0  0  0  0  0  0  0  0  0  0  0
   14.5230  -14.9270   -8.0470 C   0  0  0  0  0  0  0  0  0  0  0  0
   15.6890  -15.1820   -7.7290 O   0  0  0  0  0  0  0  0  0  0  0  0
   13.4490  -14.8170   -7.1910 N   0  0  0  0  0  0  0  0  0  0  0  0
   13.4960  -14.7170   -5.7850 C   0  0  0  0  0  0  0  0  0  0  0  0
   13.4590  -15.8990   -5.0420 C   0  0  0  0  0  0  0  0  0  0  0  0
   13.4930  -15.8590   -3.6450 C   0  0  0  0  0  0  0  0  0  0  0  0
   13.5530  -14.6370   -2.9790 C   0  0  0  0  0  0  0  0  0  0  0  0
   13.5750  -13.4410   -3.7050 C   0  0  0  0  0  0  0  0  0  0  0  0
   13.6030  -12.1040   -3.0090 C   0  0  0  0  0  0  0  0  0  0  0  0
   13.2100  -12.1500   -1.7110 F   0  0  0  0  0  0  0  0  0  0  0  0
   14.8720  -11.5780   -2.9880 F   0  0  0  0  0  0  0  0  0  0  0  0
   12.8370  -11.1690   -3.6260 F   0  0  0  0  0  0  0  0  0  0  0  0
   13.5320  -13.4950   -5.1110 C   0  0  0  0  0  0  0  0  0  0  0  0
   12.8860  -14.4850   -9.8460 C   0  0  0  0  0  0  0  0  0  0  0  0
   12.4630  -14.5400  -11.1800 C   0  0  0  0  0  0  0  0  0  0  0  0
   11.0990  -14.4320  -11.5190 N   0  0  0  0  0  0  0  0  0  0  0  0
   10.2920  -13.3520  -11.3910 C   0  0  0  0  0  0  0  0  0  0  0  0
   10.5800  -12.0820  -11.6020 N   0  0  0  0  0  0  0  0  0  0  0  0
    9.3960  -11.4080  -11.4840 C   0  0  0  0  0  0  0  0  0  0  0  0
    9.1130  -10.0610  -11.7480 C   0  0  0  0  0  0  0  0  0  0  0  0
    7.8110   -9.5920  -11.5360 C   0  0  0  0  0  0  0  0  0  0  0  0
    6.8130  -10.4450  -11.0680 C   0  0  0  0  0  0  0  0  0  0  0  0
    7.0800  -11.7900  -10.7870 C   0  0  0  0  0  0  0  0  0  0  0  0
    8.3920  -12.2400  -10.9980 C   0  0  0  0  0  0  0  0  0  0  0  0
    9.0230  -13.4620  -10.8090 N   0  0  0  0  0  0  0  0  0  0  0  0
    8.7000  -14.4640   -9.8370 C   0  0  0  0  0  0  0  0  0  0  0  0
    8.8560  -14.1100   -8.5050 C   0  0  0  0  0  0  0  0  0  0  0  0
    9.1460  -15.1330   -7.6320 C   0  0  0  0  0  0  0  0  0  0  0  0
    9.7240  -14.9370   -6.3990 N   0  0  0  0  0  0  0  0  0  0  0  0
    9.1760  -14.1610   -5.3020 C   0  0  0  0  0  0  0  0  0  0  0  0
   10.0860  -14.2950   -4.0740 C   0  0  0  0  0  0  0  0  0  0  0  0
    9.7940  -13.2730   -2.9730 C   0  0  0  0  0  0  0  0  0  0  0  0
   10.1500  -13.8040   -1.5950 N   0  0  0  0  0  0  0  0  0  0  0  0
    9.3840  -15.0490   -1.1500 C   0  0  0  0  0  0  0  0  0  0  0  0
    7.9480  -14.7180   -0.6580 C   0  0  0  0  0  0  0  0  0  0  0  0
    7.9410  -13.6080    0.3770 N   0  0  0  0  0  0  0  0  0  0  0  0
    6.5480  -13.2600    0.8390 C   0  0  0  0  0  0  0  0  0  0  0  0
    8.7190  -12.3760   -0.0380 C   0  0  0  0  0  0  0  0  0  0  0  0
   10.1470  -12.7450   -0.4940 C   0  0  0  0  0  0  0  0  0  0  0  0
    9.0950  -16.4130   -8.0100 N   0  0  0  0  0  0  0  0  0  0  0  0
    8.7710  -16.6700   -9.2840 C   0  0  0  0  0  0  0  0  0  0  0  0
    8.6390  -15.7490  -10.2430 N   0  0  0  0  0  0  0  0  0  0  0  0
   11.9797  -14.7792  -13.7498 H   0  0  0  0  0  0  0  0  0  0  0  0
   13.4589  -13.8316  -14.1249 H   0  0  0  0  0  0  0  0  0  0  0  0
   13.5183  -15.6269  -14.1249 H   0  0  0  0  0  0  0  0  0  0  0  0
   15.5363  -15.0929  -12.6055 H   0  0  0  0  0  0  0  0  0  0  0  0
   16.2118  -15.1871  -10.2074 H   0  0  0  0  0  0  0  0  0  0  0  0
   12.5180  -14.8470   -7.6000 H   0  0  0  0  0  0  0  0  0  0  0  0
   13.4027  -16.8680   -5.5595 H   0  0  0  0  0  0  0  0  0  0  0  0
   13.4723  -16.7962   -3.0694 H   0  0  0  0  0  0  0  0  0  0  0  0
   13.5832  -14.6122   -1.8797 H   0  0  0  0  0  0  0  0  0  0  0  0
   13.5267  -12.5586   -5.6883 H   0  0  0  0  0  0  0  0  0  0  0  0
   12.1600  -14.2253   -9.0615 H   0  0  0  0  0  0  0  0  0  0  0  0
   10.6510  -15.3420  -11.6540 H   0  0  0  0  0  0  0  0  0  0  0  0
    9.8992   -9.3848  -12.1149 H   0  0  0  0  0  0  0  0  0  0  0  0
    7.5729   -8.5379  -11.7412 H   0  0  0  0  0  0  0  0  0  0  0  0
    5.7961  -10.0538  -10.9166 H   0  0  0  0  0  0  0  0  0  0  0  0
    6.2947  -12.4653  -10.4166 H   0  0  0  0  0  0  0  0  0  0  0  0
    8.7535  -13.0688   -8.1654 H   0  0  0  0  0  0  0  0  0  0  0  0
   10.2300  -15.7890   -6.1350 H   0  0  0  0  0  0  0  0  0  0  0  0
    9.1125  -13.1033   -5.5973 H   0  0  0  0  0  0  0  0  0  0  0  0
    8.1712  -14.5346   -5.0555 H   0  0  0  0  0  0  0  0  0  0  0  0
    9.9555  -15.3034   -3.6543 H   0  0  0  0  0  0  0  0  0  0  0  0
   11.1149  -14.1108   -4.4167 H   0  0  0  0  0  0  0  0  0  0  0  0
   10.3830  -12.3644   -3.1666 H   0  0  0  0  0  0  0  0  0  0  0  0
    8.7153  -13.0581   -2.9862 H   0  0  0  0  0  0  0  0  0  0  0  0
   11.1420  -14.1110   -1.6880 H   0  0  0  0  0  0  0  0  0  0  0  0
    9.3146  -15.7435   -2.0002 H   0  0  0  0  0  0  0  0  0  0  0  0
    9.9320  -15.4960   -0.3074 H   0  0  0  0  0  0  0  0  0  0  0  0
    7.3415  -14.4031   -1.5200 H   0  0  0  0  0  0  0  0  0  0  0  0
    7.5341  -15.6222   -0.1879 H   0  0  0  0  0  0  0  0  0  0  0  0
    8.4110  -13.9730    1.2420 H   0  0  0  0  0  0  0  0  0  0  0  0
    6.5176  -13.2524    1.9386 H   0  0  0  0  0  0  0  0  0  0  0  0
    6.2730  -12.2655    0.4577 H   0  0  0  0  0  0  0  0  0  0  0  0
    5.8376  -14.0083    0.4577 H   0  0  0  0  0  0  0  0  0  0  0  0
    8.1933  -11.8826   -0.8688 H   0  0  0  0  0  0  0  0  0  0  0  0
    8.7931  -11.7025    0.8286 H   0  0  0  0  0  0  0  0  0  0  0  0
   10.6420  -11.8390   -0.8736 H   0  0  0  0  0  0  0  0  0  0  0  0
   10.6798  -13.1611    0.3738 H   0  0  0  0  0  0  0  0  0  0  0  0
    8.6004  -17.7205   -9.5623 H   0  0  0  0  0  0  0  0  0  0  0  0
  1  2  1  0
  2  3  2  0
  3  4  1  0
  4  5  2  0
  5  6  1  0
  6  7  2  0
  6  8  1  0
  8  9  1  0
  9 10  2  0
 10 11  1  0
 11 12  2  0
 12 13  1  0
 13 14  1  0
 14 15  1  0
 14 16  1  0
 14 17  1  0
 13 18  2  0
  5 19  1  0
 19 20  2  0
 20 21  1  0
 21 22  1  0
 22 23  2  0
 23 24  1  0
 24 25  2  0
 25 26  1  0
 26 27  2  0
 27 28  1  0
 28 29  2  0
 29 30  1  0
 30 31  1  0
 31 32  2  0
 32 33  1  0
 33 34  1  0
 34 35  1  0
 35 36  1  0
 36 37  1  0
 37 38  1  0
 38 39  1  0
 39 40  1  0
 40 41  1  0
 41 42  1  0
 41 43  1  0
 43 44  1  0
 33 45  2  0
 45 46  1  0
 46 47  2  0
 20  2  1  0
 30 22  1  0
 47 31  1  0
 18  9  1  0
 29 24  1  0
 44 38  1  0
  1 48  1  0
  1 49  1  0
  1 50  1  0
  3 51  1  0
  4 52  1  0
  8 53  1  0
 10 54  1  0
 11 55  1  0
 12 56  1  0
 18 57  1  0
 19 58  1  0
 21 59  1  0
 25 60  1  0
 26 61  1  0
 27 62  1  0
 28 63  1  0
 32 64  1  0
 34 65  1  0
 35 66  1  0
 35 67  1  0
 36 68  1  0
 36 69  1  0
 37 70  1  0
 37 71  1  0
 38 72  1  0
 39 73  1  0
 39 74  1  0
 40 75  1  0
 40 76  1  0
 41 77  1  0
 42 78  1  0
 42 79  1  0
 42 80  1  0
 43 81  1  0
 43 82  1  0
 44 83  1  0
 44 84  1  0
 46 85  1  0
M  CHG  2  38   1  41   1
M  END
>  <meeko>  (4) 
{"is_sidechain": [false], "free_energy": -9.298, "intermolecular_energy": -14.011, "internal_energy": -3.659}

$$$$
LIB_YGTYIGUWQYTZMS__M_PUB_ALL__e8__s20260927
     RDKit          3D

 85 90  0  0  0  0  0  0  0  0999 V2000
    9.9120  -19.3680   -7.0960 C   0  0  0  0  0  0  0  0  0  0  0  0
   10.2460  -18.0690   -6.4080 C   0  0  0  0  0  0  0  0  0  0  0  0
   10.3060  -18.0480   -5.0020 C   0  0  0  0  0  0  0  0  0  0  0  0
   10.5760  -16.8670   -4.3120 C   0  0  0  0  0  0  0  0  0  0  0  0
   10.8340  -15.7010   -5.0330 C   0  0  0  0  0  0  0  0  0  0  0  0
   10.9760  -14.3830   -4.3620 C   0  0  0  0  0  0  0  0  0  0  0  0
   10.0900  -13.5400   -4.5390 O   0  0  0  0  0  0  0  0  0  0  0  0
   12.1240  -14.2150   -3.6200 N   0  0  0  0  0  0  0  0  0  0  0  0
   12.4010  -13.1680   -2.7170 C   0  0  0  0  0  0  0  0  0  0  0  0
   13.4480  -12.2960   -3.0250 C   0  0  0  0  0  0  0  0  0  0  0  0
   13.7730  -11.2460   -2.1610 C   0  0  0  0  0  0  0  0  0  0  0  0
   13.0610  -11.0660   -0.9750 C   0  0  0  0  0  0  0  0  0  0  0  0
   12.0200  -11.9390   -0.6420 C   0  0  0  0  0  0  0  0  0  0  0  0
   11.2580  -11.7890    0.6510 C   0  0  0  0  0  0  0  0  0  0  0  0
   11.4560  -10.5990    1.2710 F   0  0  0  0  0  0  0  0  0  0  0  0
    9.9030  -11.8720    0.4440 F   0  0  0  0  0  0  0  0  0  0  0  0
   11.5450  -12.7620    1.5520 F   0  0  0  0  0  0  0  0  0  0  0  0
   11.7090  -12.9960   -1.5160 C   0  0  0  0  0  0  0  0  0  0  0  0
   10.8270  -15.7280   -6.4300 C   0  0  0  0  0  0  0  0  0  0  0  0
   10.4660  -16.8820   -7.1370 C   0  0  0  0  0  0  0  0  0  0  0  0
   10.2990  -16.8610   -8.5370 N   0  0  0  0  0  0  0  0  0  0  0  0
    9.8610  -15.8360   -9.3070 C   0  0  0  0  0  0  0  0  0  0  0  0
   10.5700  -14.8960   -9.9030 N   0  0  0  0  0  0  0  0  0  0  0  0
    9.6840  -14.1980  -10.6760 C   0  0  0  0  0  0  0  0  0  0  0  0
    9.9330  -13.1880  -11.6170 C   0  0  0  0  0  0  0  0  0  0  0  0
    8.8480  -12.6070  -12.2830 C   0  0  0  0  0  0  0  0  0  0  0  0
    7.5420  -13.0190  -12.0160 C   0  0  0  0  0  0  0  0  0  0  0  0
    7.2750  -14.0160  -11.0720 C   0  0  0  0  0  0  0  0  0  0  0  0
    8.3730  -14.5820  -10.4090 C   0  0  0  0  0  0  0  0  0  0  0  0
    8.4960  -15.5460   -9.4170 N   0  0  0  0  0  0  0  0  0  0  0  0
    7.5530  -15.8510   -8.3830 C   0  0  0  0  0  0  0  0  0  0  0  0
    7.4650  -14.9460   -7.3360 C   0  0  0  0  0  0  0  0  0  0  0  0
    7.0780  -15.4580   -6.1190 C   0  0  0  0  0  0  0  0  0  0  0  0
    7.3260  -14.8300   -4.9190 N   0  0  0  0  0  0  0  0  0  0  0  0
    6.3640  -14.1060   -4.1080 C   0  0  0  0  0  0  0  0  0  0  0  0
    6.2640  -12.6570   -4.6020 C   0  0  0  0  0  0  0  0  0  0  0  0
    4.8300  -12.1320   -4.6920 C   0  0  0  0  0  0  0  0  0  0  0  0
    4.5370  -11.0920   -3.6240 N   0  0  0  0  0  0  0  0  0  0  0  0
    5.0390  -11.4290   -2.2200 C   0  0  0  0  0  0  0  0  0  0  0  0
    4.1190  -12.4460   -1.4910 C   0  0  0  0  0  0  0  0  0  0  0  0
    2.6620  -12.0230   -1.5210 N   0  0  0  0  0  0  0  0  0  0  0  0
    1.7580  -13.0200   -0.8400 C   0  0  0  0  0  0  0  0  0  0  0  0
    2.1570  -11.6590   -2.9020 C   0  0  0  0  0  0  0  0  0  0  0  0
    3.0830  -10.6280   -3.5810 C   0  0  0  0  0  0  0  0  0  0  0  0
    6.6330  -16.7100   -5.9940 N   0  0  0  0  0  0  0  0  0  0  0  0
    6.5960  -17.4680   -7.0980 C   0  0  0  0  0  0  0  0  0  0  0  0
    7.1050  -17.1200   -8.2840 N   0  0  0  0  0  0  0  0  0  0  0  0
    9.7129  -20.1424   -6.3406 H   0  0  0  0  0  0  0  0  0  0  0  0
    9.0198  -19.2311   -7.7247 H   0  0  0  0  0  0  0  0  0  0  0  0
   10.7595  -19.6784   -7.7247 H   0  0  0  0  0  0  0  0  0  0  0  0
   10.1373  -18.9777   -4.4388 H   0  0  0  0  0  0  0  0  0  0  0  0
   10.5855  -16.8548   -3.2121 H   0  0  0  0  0  0  0  0  0  0  0  0
   12.8730  -14.8900   -3.7560 H   0  0  0  0  0  0  0  0  0  0  0  0
   14.0206  -12.4364   -3.9536 H   0  0  0  0  0  0  0  0  0  0  0  0
   14.5932  -10.5593   -2.4174 H   0  0  0  0  0  0  0  0  0  0  0  0
   13.3186  -10.2361   -0.3005 H   0  0  0  0  0  0  0  0  0  0  0  0
   10.9067  -13.6996   -1.2491 H   0  0  0  0  0  0  0  0  0  0  0  0
   11.1113  -14.8230   -6.9869 H   0  0  0  0  0  0  0  0  0  0  0  0
   10.2960  -17.7960   -8.9500 H   0  0  0  0  0  0  0  0  0  0  0  0
   10.9613  -12.8590  -11.8274 H   0  0  0  0  0  0  0  0  0  0  0  0
    9.0270  -11.8159  -13.0260 H   0  0  0  0  0  0  0  0  0  0  0  0
    6.7069  -12.5511  -12.5579 H   0  0  0  0  0  0  0  0  0  0  0  0
    6.2464  -14.3424  -10.8587 H   0  0  0  0  0  0  0  0  0  0  0  0
    7.6920  -13.8782   -7.4710 H   0  0  0  0  0  0  0  0  0  0  0  0
    8.0260  -15.3740   -4.4040 H   0  0  0  0  0  0  0  0  0  0  0  0
    5.3792  -14.5894   -4.1888 H   0  0  0  0  0  0  0  0  0  0  0  0
    6.6917  -14.1129   -3.0580 H   0  0  0  0  0  0  0  0  0  0  0  0
    6.8254  -12.0145   -3.9077 H   0  0  0  0  0  0  0  0  0  0  0  0
    6.6765  -12.6373   -5.6215 H   0  0  0  0  0  0  0  0  0  0  0  0
    4.6800  -11.6765   -5.6820 H   0  0  0  0  0  0  0  0  0  0  0  0
    4.1471  -12.9803   -4.5369 H   0  0  0  0  0  0  0  0  0  0  0  0
    5.0900  -10.2580   -3.9200 H   0  0  0  0  0  0  0  0  0  0  0  0
    6.0482  -11.8593   -2.2994 H   0  0  0  0  0  0  0  0  0  0  0  0
    5.0427  -10.4989   -1.6327 H   0  0  0  0  0  0  0  0  0  0  0  0
    4.2139  -13.4255   -1.9825 H   0  0  0  0  0  0  0  0  0  0  0  0
    4.4355  -12.4945   -0.4386 H   0  0  0  0  0  0  0  0  0  0  0  0
    2.5670  -11.1550   -0.9370 H   0  0  0  0  0  0  0  0  0  0  0  0
    1.8528  -12.9155    0.2509 H   0  0  0  0  0  0  0  0  0  0  0  0
    0.7156  -12.8325   -1.1371 H   0  0  0  0  0  0  0  0  0  0  0  0
    2.0463  -14.0391   -1.1371 H   0  0  0  0  0  0  0  0  0  0  0  0
    2.1173  -12.5677   -3.5206 H   0  0  0  0  0  0  0  0  0  0  0  0
    1.1559  -11.2146   -2.8008 H   0  0  0  0  0  0  0  0  0  0  0  0
    2.7338  -10.4639   -4.6111 H   0  0  0  0  0  0  0  0  0  0  0  0
    3.0438   -9.7011   -2.9900 H   0  0  0  0  0  0  0  0  0  0  0  0
    6.1097  -18.4518   -7.0228 H   0  0  0  0  0  0  0  0  0  0  0  0
  1  2  1  0
  2  3  2  0
  3  4  1  0
  4  5  2  0
  5  6  1  0
  6  7  2  0
  6  8  1  0
  8  9  1  0
  9 10  2  0
 10 11  1  0
 11 12  2  0
 12 13  1  0
 13 14  1  0
 14 15  1  0
 14 16  1  0
 14 17  1  0
 13 18  2  0
  5 19  1  0
 19 20  2  0
 20 21  1  0
 21 22  1  0
 22 23  2  0
 23 24  1  0
 24 25  2  0
 25 26  1  0
 26 27  2  0
 27 28  1  0
 28 29  2  0
 29 30  1  0
 30 31  1  0
 31 32  2  0
 32 33  1  0
 33 34  1  0
 34 35  1  0
 35 36  1  0
 36 37  1  0
 37 38  1  0
 38 39  1  0
 39 40  1  0
 40 41  1  0
 41 42  1  0
 41 43  1  0
 43 44  1  0
 33 45  2  0
 45 46  1  0
 46 47  2  0
 20  2  1  0
 30 22  1  0
 47 31  1  0
 18  9  1  0
 29 24  1  0
 44 38  1  0
  1 48  1  0
  1 49  1  0
  1 50  1  0
  3 51  1  0
  4 52  1  0
  8 53  1  0
 10 54  1  0
 11 55  1  0
 12 56  1  0
 18 57  1  0
 19 58  1  0
 21 59  1  0
 25 60  1  0
 26 61  1  0
 27 62  1  0
 28 63  1  0
 32 64  1  0
 34 65  1  0
 35 66  1  0
 35 67  1  0
 36 68  1  0
 36 69  1  0
 37 70  1  0
 37 71  1  0
 38 72  1  0
 39 73  1  0
 39 74  1  0
 40 75  1  0
 40 76  1  0
 41 77  1  0
 42 78  1  0
 42 79  1  0
 42 80  1  0
 43 81  1  0
 43 82  1  0
 44 83  1  0
 44 84  1  0
 46 85  1  0
M  CHG  2  38   1  41   1
M  END
>  <meeko>  (5) 
{"is_sidechain": [false], "free_energy": -9.292, "intermolecular_energy": -14.262, "internal_energy": -3.398}

$$$$
LIB_YGTYIGUWQYTZMS__M_PUB_ALL__e8__s20260927
     RDKit          3D

 85 90  0  0  0  0  0  0  0  0999 V2000
    5.8300  -12.1790   -5.1940 C   0  0  0  0  0  0  0  0  0  0  0  0
    4.9480  -12.1790   -3.9720 C   0  0  0  0  0  0  0  0  0  0  0  0
    3.5990  -12.5530   -4.1150 C   0  0  0  0  0  0  0  0  0  0  0  0
    2.7300  -12.5370   -3.0240 C   0  0  0  0  0  0  0  0  0  0  0  0
    3.2210  -12.1880   -1.7670 C   0  0  0  0  0  0  0  0  0  0  0  0
    2.3210  -12.0030   -0.5990 C   0  0  0  0  0  0  0  0  0  0  0  0
    2.7310  -12.3450    0.5140 O   0  0  0  0  0  0  0  0  0  0  0  0
    1.0760  -11.4850   -0.8860 N   0  0  0  0  0  0  0  0  0  0  0  0
    0.1260  -11.0080    0.0400 C   0  0  0  0  0  0  0  0  0  0  0  0
    0.3310   -9.7430    0.5960 C   0  0  0  0  0  0  0  0  0  0  0  0
   -0.5750   -9.2240    1.5260 C   0  0  0  0  0  0  0  0  0  0  0  0
   -1.6870   -9.9690    1.9160 C   0  0  0  0  0  0  0  0  0  0  0  0
   -1.9000  -11.2440    1.3820 C   0  0  0  0  0  0  0  0  0  0  0  0
   -3.0750  -12.0860    1.8130 C   0  0  0  0  0  0  0  0  0  0  0  0
   -2.8030  -13.4130    1.8850 F   0  0  0  0  0  0  0  0  0  0  0  0
   -3.5080  -11.7330    3.0680 F   0  0  0  0  0  0  0  0  0  0  0  0
   -4.1550  -11.9420    1.0050 F   0  0  0  0  0  0  0  0  0  0  0  0
   -0.9770  -11.7580    0.4530 C   0  0  0  0  0  0  0  0  0  0  0  0
    4.5720  -11.8670   -1.6090 C   0  0  0  0  0  0  0  0  0  0  0  0
    5.4370  -11.7860   -2.7080 C   0  0  0  0  0  0  0  0  0  0  0  0
    6.7540  -11.3040   -2.5690 N   0  0  0  0  0  0  0  0  0  0  0  0
    7.8880  -12.0210   -2.3830 C   0  0  0  0  0  0  0  0  0  0  0  0
    8.4580  -12.8820   -3.2040 N   0  0  0  0  0  0  0  0  0  0  0  0
    9.6500  -13.2160   -2.6230 C   0  0  0  0  0  0  0  0  0  0  0  0
   10.7030  -13.9850   -3.1380 C   0  0  0  0  0  0  0  0  0  0  0  0
   11.8310  -14.2030   -2.3390 C   0  0  0  0  0  0  0  0  0  0  0  0
   11.9090  -13.6700   -1.0520 C   0  0  0  0  0  0  0  0  0  0  0  0
   10.8620  -12.9110   -0.5170 C   0  0  0  0  0  0  0  0  0  0  0  0
    9.7360  -12.7090   -1.3290 C   0  0  0  0  0  0  0  0  0  0  0  0
    8.5270  -12.0550   -1.1370 N   0  0  0  0  0  0  0  0  0  0  0  0
    7.8260  -11.8740    0.0990 C   0  0  0  0  0  0  0  0  0  0  0  0
    7.2500  -13.0040    0.6580 C   0  0  0  0  0  0  0  0  0  0  0  0
    6.1320  -12.7990    1.4340 C   0  0  0  0  0  0  0  0  0  0  0  0
    5.2150  -13.7860    1.7190 N   0  0  0  0  0  0  0  0  0  0  0  0
    5.2460  -15.1560    1.2410 C   0  0  0  0  0  0  0  0  0  0  0  0
    4.3190  -15.2960    0.0260 C   0  0  0  0  0  0  0  0  0  0  0  0
    2.9470  -15.8850    0.3600 C   0  0  0  0  0  0  0  0  0  0  0  0
    2.2870  -16.5120   -0.8570 N   0  0  0  0  0  0  0  0  0  0  0  0
    1.4770  -15.5570   -1.7330 C   0  0  0  0  0  0  0  0  0  0  0  0
    0.0810  -15.2400   -1.1300 C   0  0  0  0  0  0  0  0  0  0  0  0
   -0.6790  -16.4990   -0.7550 N   0  0  0  0  0  0  0  0  0  0  0  0
   -2.0240  -16.2000   -0.1430 C   0  0  0  0  0  0  0  0  0  0  0  0
    0.1200  -17.4690    0.0910 C   0  0  0  0  0  0  0  0  0  0  0  0
    1.4880  -17.7780   -0.5550 C   0  0  0  0  0  0  0  0  0  0  0  0
    5.7350  -11.5730    1.7820 N   0  0  0  0  0  0  0  0  0  0  0  0
    6.4540  -10.5370    1.3290 C   0  0  0  0  0  0  0  0  0  0  0  0
    7.4470  -10.6240    0.4380 N   0  0  0  0  0  0  0  0  0  0  0  0
    6.0446  -13.2161   -5.4913 H   0  0  0  0  0  0  0  0  0  0  0  0
    5.3163  -11.6605   -6.0170 H   0  0  0  0  0  0  0  0  0  0  0  0
    6.7729  -11.6605   -4.9657 H   0  0  0  0  0  0  0  0  0  0  0  0
    3.2242  -12.8626   -5.1018 H   0  0  0  0  0  0  0  0  0  0  0  0
    1.6691  -12.7969   -3.1542 H   0  0  0  0  0  0  0  0  0  0  0  0
    0.7860  -11.4760   -1.8600 H   0  0  0  0  0  0  0  0  0  0  0  0
    1.2103   -9.1518    0.3005 H   0  0  0  0  0  0  0  0  0  0  0  0
   -0.4096   -8.2233    1.9519 H   0  0  0  0  0  0  0  0  0  0  0  0
   -2.3981   -9.5533    2.6450 H   0  0  0  0  0  0  0  0  0  0  0  0
   -1.1269  -12.7684    0.0448 H   0  0  0  0  0  0  0  0  0  0  0  0
    4.9647  -11.6738   -0.5998 H   0  0  0  0  0  0  0  0  0  0  0  0
    6.7900  -10.3030   -2.3590 H   0  0  0  0  0  0  0  0  0  0  0  0
   10.6437  -14.4091   -4.1512 H   0  0  0  0  0  0  0  0  0  0  0  0
   12.6665  -14.8020   -2.7305 H   0  0  0  0  0  0  0  0  0  0  0  0
   12.8098  -13.8496   -0.4468 H   0  0  0  0  0  0  0  0  0  0  0  0
   10.9195  -12.4904    0.4978 H   0  0  0  0  0  0  0  0  0  0  0  0
    7.6637  -14.0094    0.4906 H   0  0  0  0  0  0  0  0  0  0  0  0
    4.8810  -13.6540    2.6790 H   0  0  0  0  0  0  0  0  0  0  0  0
    6.2736  -15.4196    0.9502 H   0  0  0  0  0  0  0  0  0  0  0  0
    4.9062  -15.8307    2.0406 H   0  0  0  0  0  0  0  0  0  0  0  0
    4.1705  -14.2986   -0.4135 H   0  0  0  0  0  0  0  0  0  0  0  0
    4.8065  -15.9947   -0.6698 H   0  0  0  0  0  0  0  0  0  0  0  0
    3.0703  -16.6564    1.1345 H   0  0  0  0  0  0  0  0  0  0  0  0
    2.3021  -15.0670    0.7136 H   0  0  0  0  0  0  0  0  0  0  0  0
    3.0860  -16.8180   -1.4520 H   0  0  0  0  0  0  0  0  0  0  0  0
    2.0368  -14.6163   -1.8414 H   0  0  0  0  0  0  0  0  0  0  0  0
    1.3189  -16.0464   -2.7054 H   0  0  0  0  0  0  0  0  0  0  0  0
    0.2158  -14.6252   -0.2278 H   0  0  0  0  0  0  0  0  0  0  0  0
   -0.5041  -14.7063   -1.8934 H   0  0  0  0  0  0  0  0  0  0  0  0
   -0.9130  -17.0100   -1.6430 H   0  0  0  0  0  0  0  0  0  0  0  0
   -1.9402  -16.2186    0.9536 H   0  0  0  0  0  0  0  0  0  0  0  0
   -2.3617  -15.2049   -0.4681 H   0  0  0  0  0  0  0  0  0  0  0  0
   -2.7515  -16.9583   -0.4681 H   0  0  0  0  0  0  0  0  0  0  0  0
    0.2842  -17.0272    1.0849 H   0  0  0  0  0  0  0  0  0  0  0  0
   -0.4466  -18.4083    0.1727 H   0  0  0  0  0  0  0  0  0  0  0  0
    2.0702  -18.4075    0.1340 H   0  0  0  0  0  0  0  0  0  0  0  0
    1.3005  -18.2925   -1.5090 H   0  0  0  0  0  0  0  0  0  0  0  0
    6.2085   -9.5386    1.7201 H   0  0  0  0  0  0  0  0  0  0  0  0
  1  2  1  0
  2  3  2  0
  3  4  1  0
  4  5  2  0
  5  6  1  0
  6  7  2  0
  6  8  1  0
  8  9  1  0
  9 10  2  0
 10 11  1  0
 11 12  2  0
 12 13  1  0
 13 14  1  0
 14 15  1  0
 14 16  1  0
 14 17  1  0
 13 18  2  0
  5 19  1  0
 19 20  2  0
 20 21  1  0
 21 22  1  0
 22 23  2  0
 23 24  1  0
 24 25  2  0
 25 26  1  0
 26 27  2  0
 27 28  1  0
 28 29  2  0
 29 30  1  0
 30 31  1  0
 31 32  2  0
 32 33  1  0
 33 34  1  0
 34 35  1  0
 35 36  1  0
 36 37  1  0
 37 38  1  0
 38 39  1  0
 39 40  1  0
 40 41  1  0
 41 42  1  0
 41 43  1  0
 43 44  1  0
 33 45  2  0
 45 46  1  0
 46 47  2  0
 20  2  1  0
 30 22  1  0
 47 31  1  0
 18  9  1  0
 29 24  1  0
 44 38  1  0
  1 48  1  0
  1 49  1  0
  1 50  1  0
  3 51  1  0
  4 52  1  0
  8 53  1  0
 10 54  1  0
 11 55  1  0
 12 56  1  0
 18 57  1  0
 19 58  1  0
 21 59  1  0
 25 60  1  0
 26 61  1  0
 27 62  1  0
 28 63  1  0
 32 64  1  0
 34 65  1  0
 35 66  1  0
 35 67  1  0
 36 68  1  0
 36 69  1  0
 37 70  1  0
 37 71  1  0
 38 72  1  0
 39 73  1  0
 39 74  1  0
 40 75  1  0
 40 76  1  0
 41 77  1  0
 42 78  1  0
 42 79  1  0
 42 80  1  0
 43 81  1  0
 43 82  1  0
 44 83  1  0
 44 84  1  0
 46 85  1  0
M  CHG  2  38   1  41   1
M  END
>  <meeko>  (6) 
{"is_sidechain": [false], "free_energy": -9.251, "intermolecular_energy": -13.692, "internal_energy": -3.9}

$$$$
LIB_YGTYIGUWQYTZMS__M_PUB_ALL__e8__s20260927
     RDKit          3D

 85 90  0  0  0  0  0  0  0  0999 V2000
    4.9360  -11.9920   -5.4240 C   0  0  0  0  0  0  0  0  0  0  0  0
    4.2670  -12.1100   -4.0800 C   0  0  0  0  0  0  0  0  0  0  0  0
    2.9090  -12.4770   -4.0340 C   0  0  0  0  0  0  0  0  0  0  0  0
    2.2300  -12.5680   -2.8190 C   0  0  0  0  0  0  0  0  0  0  0  0
    2.9240  -12.3340   -1.6320 C   0  0  0  0  0  0  0  0  0  0  0  0
    2.2280  -12.2630   -0.3210 C   0  0  0  0  0  0  0  0  0  0  0  0
    2.9060  -12.0440    0.6880 O   0  0  0  0  0  0  0  0  0  0  0  0
    0.8690  -12.4850   -0.3570 N   0  0  0  0  0  0  0  0  0  0  0  0
   -0.0530  -12.2600    0.6860 C   0  0  0  0  0  0  0  0  0  0  0  0
   -0.7410  -13.3610    1.2020 C   0  0  0  0  0  0  0  0  0  0  0  0
   -1.6730  -13.1950    2.2300 C   0  0  0  0  0  0  0  0  0  0  0  0
   -1.9340  -11.9260    2.7450 C   0  0  0  0  0  0  0  0  0  0  0  0
   -1.2660  -10.8090    2.2300 C   0  0  0  0  0  0  0  0  0  0  0  0
   -1.5550   -9.4200    2.7430 C   0  0  0  0  0  0  0  0  0  0  0  0
   -0.5420   -8.5400    2.5470 F   0  0  0  0  0  0  0  0  0  0  0  0
   -2.6430   -8.8710    2.1100 F   0  0  0  0  0  0  0  0  0  0  0  0
   -1.8570   -9.3960    4.0650 F   0  0  0  0  0  0  0  0  0  0  0  0
   -0.3360  -10.9890    1.1890 C   0  0  0  0  0  0  0  0  0  0  0  0
    4.2850  -12.0200   -1.6690 C   0  0  0  0  0  0  0  0  0  0  0  0
    4.9590  -11.8330   -2.8820 C   0  0  0  0  0  0  0  0  0  0  0  0
    6.2860  -11.3560   -2.9170 N   0  0  0  0  0  0  0  0  0  0  0  0
    7.4300  -12.0810   -2.9410 C   0  0  0  0  0  0  0  0  0  0  0  0
    7.8150  -12.9770   -3.8300 N   0  0  0  0  0  0  0  0  0  0  0  0
    9.0980  -13.3060   -3.4930 C   0  0  0  0  0  0  0  0  0  0  0  0
   10.0190  -14.1050   -4.1850 C   0  0  0  0  0  0  0  0  0  0  0  0
   11.2860  -14.3110   -3.6260 C   0  0  0  0  0  0  0  0  0  0  0  0
   11.6280  -13.7350   -2.4020 C   0  0  0  0  0  0  0  0  0  0  0  0
   10.7180  -12.9450   -1.6920 C   0  0  0  0  0  0  0  0  0  0  0  0
    9.4500  -12.7570   -2.2630 C   0  0  0  0  0  0  0  0  0  0  0  0
    8.3090  -12.0810   -1.8520 N   0  0  0  0  0  0  0  0  0  0  0  0
    7.8770  -11.8490   -0.5060 C   0  0  0  0  0  0  0  0  0  0  0  0
    7.6610  -12.9720    0.2790 C   0  0  0  0  0  0  0  0  0  0  0  0
    6.7240  -12.8450    1.2790 C   0  0  0  0  0  0  0  0  0  0  0  0
    6.0930  -13.9180    1.8670 N   0  0  0  0  0  0  0  0  0  0  0  0
    5.0660  -14.7500    1.2680 C   0  0  0  0  0  0  0  0  0  0  0  0
    5.6280  -16.1540    1.0120 C   0  0  0  0  0  0  0  0  0  0  0  0
    6.1240  -16.3700   -0.4190 C   0  0  0  0  0  0  0  0  0  0  0  0
    5.1470  -17.1940   -1.2410 N   0  0  0  0  0  0  0  0  0  0  0  0
    5.7790  -18.1810   -2.2210 C   0  0  0  0  0  0  0  0  0  0  0  0
    6.2920  -17.4880   -3.5140 C   0  0  0  0  0  0  0  0  0  0  0  0
    5.2300  -16.6080   -4.1490 N   0  0  0  0  0  0  0  0  0  0  0  0
    5.7280  -15.9090   -5.3890 C   0  0  0  0  0  0  0  0  0  0  0  0
    4.5750  -15.6420   -3.1830 C   0  0  0  0  0  0  0  0  0  0  0  0
    4.0570  -16.3740   -1.9270 C   0  0  0  0  0  0  0  0  0  0  0  0
    6.1920  -11.6620    1.5950 N   0  0  0  0  0  0  0  0  0  0  0  0
    6.5860  -10.5960    0.8870 C   0  0  0  0  0  0  0  0  0  0  0  0
    7.3560  -10.6420   -0.2040 N   0  0  0  0  0  0  0  0  0  0  0  0
    6.0104  -11.8025   -5.2834 H   0  0  0  0  0  0  0  0  0  0  0  0
    4.7991  -12.9281   -5.9852 H   0  0  0  0  0  0  0  0  0  0  0  0
    4.4871  -11.1592   -5.9852 H   0  0  0  0  0  0  0  0  0  0  0  0
    2.3750  -12.6954   -4.9705 H   0  0  0  0  0  0  0  0  0  0  0  0
    1.1598  -12.8213   -2.7972 H   0  0  0  0  0  0  0  0  0  0  0  0
    0.4820  -12.8880   -1.2070 H   0  0  0  0  0  0  0  0  0  0  0  0
   -0.5478  -14.3651    0.7965 H   0  0  0  0  0  0  0  0  0  0  0  0
   -2.2032  -14.0697    2.6347 H   0  0  0  0  0  0  0  0  0  0  0  0
   -2.6657  -11.8025    3.5570 H   0  0  0  0  0  0  0  0  0  0  0  0
    0.1766  -10.1132    0.7645 H   0  0  0  0  0  0  0  0  0  0  0  0
    4.8392  -11.9174   -0.7244 H   0  0  0  0  0  0  0  0  0  0  0  0
    6.3590  -10.3690   -2.6620 H   0  0  0  0  0  0  0  0  0  0  0  0
    9.7512  -14.5616   -5.1493 H   0  0  0  0  0  0  0  0  0  0  0  0
   12.0202  -14.9340   -4.1578 H   0  0  0  0  0  0  0  0  0  0  0  0
   12.6326  -13.9055   -1.9875 H   0  0  0  0  0  0  0  0  0  0  0  0
   10.9850  -12.4902   -0.7267 H   0  0  0  0  0  0  0  0  0  0  0  0
    8.2080  -13.9115    0.1116 H   0  0  0  0  0  0  0  0  0  0  0  0
    6.7660  -14.4020    2.4700 H   0  0  0  0  0  0  0  0  0  0  0  0
    4.2059  -14.8185    1.9503 H   0  0  0  0  0  0  0  0  0  0  0  0
    4.7444  -14.3051    0.3148 H   0  0  0  0  0  0  0  0  0  0  0  0
    6.4701  -16.3210    1.6997 H   0  0  0  0  0  0  0  0  0  0  0  0
    4.8034  -16.8634    1.1754 H   0  0  0  0  0  0  0  0  0  0  0  0
    6.2557  -15.3901   -0.9011 H   0  0  0  0  0  0  0  0  0  0  0  0
    7.0754  -16.9199   -0.3698 H   0  0  0  0  0  0  0  0  0  0  0  0
    4.6550  -17.7840   -0.5360 H   0  0  0  0  0  0  0  0  0  0  0  0
    6.6272  -18.6761   -1.7256 H   0  0  0  0  0  0  0  0  0  0  0  0
    5.0040  -18.9046   -2.5139 H   0  0  0  0  0  0  0  0  0  0  0  0
    7.1636  -16.8663   -3.2615 H   0  0  0  0  0  0  0  0  0  0  0  0
    6.5585  -18.2732   -4.2368 H   0  0  0  0  0  0  0  0  0  0  0  0
    4.4640  -17.2340   -4.5020 H   0  0  0  0  0  0  0  0  0  0  0  0
    6.3439  -15.0445   -5.1003 H   0  0  0  0  0  0  0  0  0  0  0  0
    6.3332  -16.6074   -5.9856 H   0  0  0  0  0  0  0  0  0  0  0  0
    4.8702  -15.5652   -5.9856 H   0  0  0  0  0  0  0  0  0  0  0  0
    5.3119  -14.8843   -2.8783 H   0  0  0  0  0  0  0  0  0  0  0  0
    3.7197  -15.1700   -3.6886 H   0  0  0  0  0  0  0  0  0  0  0  0
    3.6756  -15.6273   -1.2149 H   0  0  0  0  0  0  0  0  0  0  0  0
    3.2652  -17.0680   -2.2456 H   0  0  0  0  0  0  0  0  0  0  0  0
    6.2499   -9.6063    1.2299 H   0  0  0  0  0  0  0  0  0  0  0  0
  1  2  1  0
  2  3  2  0
  3  4  1  0
  4  5  2  0
  5  6  1  0
  6  7  2  0
  6  8  1  0
  8  9  1  0
  9 10  2  0
 10 11  1  0
 11 12  2  0
 12 13  1  0
 13 14  1  0
 14 15  1  0
 14 16  1  0
 14 17  1  0
 13 18  2  0
  5 19  1  0
 19 20  2  0
 20 21  1  0
 21 22  1  0
 22 23  2  0
 23 24  1  0
 24 25  2  0
 25 26  1  0
 26 27  2  0
 27 28  1  0
 28 29  2  0
 29 30  1  0
 30 31  1  0
 31 32  2  0
 32 33  1  0
 33 34  1  0
 34 35  1  0
 35 36  1  0
 36 37  1  0
 37 38  1  0
 38 39  1  0
 39 40  1  0
 40 41  1  0
 41 42  1  0
 41 43  1  0
 43 44  1  0
 33 45  2  0
 45 46  1  0
 46 47  2  0
 20  2  1  0
 30 22  1  0
 47 31  1  0
 18  9  1  0
 29 24  1  0
 44 38  1  0
  1 48  1  0
  1 49  1  0
  1 50  1  0
  3 51  1  0
  4 52  1  0
  8 53  1  0
 10 54  1  0
 11 55  1  0
 12 56  1  0
 18 57  1  0
 19 58  1  0
 21 59  1  0
 25 60  1  0
 26 61  1  0
 27 62  1  0
 28 63  1  0
 32 64  1  0
 34 65  1  0
 35 66  1  0
 35 67  1  0
 36 68  1  0
 36 69  1  0
 37 70  1  0
 37 71  1  0
 38 72  1  0
 39 73  1  0
 39 74  1  0
 40 75  1  0
 40 76  1  0
 41 77  1  0
 42 78  1  0
 42 79  1  0
 42 80  1  0
 43 81  1  0
 43 82  1  0
 44 83  1  0
 44 84  1  0
 46 85  1  0
M  CHG  2  38   1  41   1
M  END
>  <meeko>  (7) 
{"is_sidechain": [false], "free_energy": -9.191, "intermolecular_energy": -13.708, "internal_energy": -3.787}

$$$$
LIB_YGTYIGUWQYTZMS__M_PUB_ALL__e8__s20260927
     RDKit          3D

 85 90  0  0  0  0  0  0  0  0999 V2000
    4.5530  -12.2250   -0.6050 C   0  0  0  0  0  0  0  0  0  0  0  0
    4.8270  -12.3480   -2.0810 C   0  0  0  0  0  0  0  0  0  0  0  0
    3.9490  -11.7190   -2.9840 C   0  0  0  0  0  0  0  0  0  0  0  0
    4.1360  -11.8290   -4.3620 C   0  0  0  0  0  0  0  0  0  0  0  0
    5.2350  -12.5360   -4.8460 C   0  0  0  0  0  0  0  0  0  0  0  0
    5.4060  -12.8210   -6.2950 C   0  0  0  0  0  0  0  0  0  0  0  0
    4.7980  -12.1120   -7.1030 O   0  0  0  0  0  0  0  0  0  0  0  0
    6.2170  -13.8920   -6.5980 N   0  0  0  0  0  0  0  0  0  0  0  0
    6.7210  -14.2390   -7.8680 C   0  0  0  0  0  0  0  0  0  0  0  0
    7.0240  -15.5800   -8.1100 C   0  0  0  0  0  0  0  0  0  0  0  0
    7.5350  -15.9790   -9.3490 C   0  0  0  0  0  0  0  0  0  0  0  0
    7.7580  -15.0380  -10.3530 C   0  0  0  0  0  0  0  0  0  0  0  0
    7.4750  -13.6860  -10.1240 C   0  0  0  0  0  0  0  0  0  0  0  0
    7.7410  -12.6420  -11.1790 C   0  0  0  0  0  0  0  0  0  0  0  0
    6.6950  -11.8080  -11.4030 F   0  0  0  0  0  0  0  0  0  0  0  0
    8.7880  -11.8280  -10.8230 F   0  0  0  0  0  0  0  0  0  0  0  0
    8.0910  -13.1760  -12.3760 F   0  0  0  0  0  0  0  0  0  0  0  0
    6.9690  -13.2980   -8.8700 C   0  0  0  0  0  0  0  0  0  0  0  0
    6.1390  -13.1190   -3.9540 C   0  0  0  0  0  0  0  0  0  0  0  0
    5.9170  -13.0980   -2.5710 C   0  0  0  0  0  0  0  0  0  0  0  0
    6.7400  -13.8260   -1.6870 N   0  0  0  0  0  0  0  0  0  0  0  0
    7.9620  -13.4820   -1.2150 C   0  0  0  0  0  0  0  0  0  0  0  0
    8.3160  -12.3840   -0.5760 N   0  0  0  0  0  0  0  0  0  0  0  0
    9.6100  -12.5840   -0.1830 C   0  0  0  0  0  0  0  0  0  0  0  0
   10.4180  -11.7910    0.6450 C   0  0  0  0  0  0  0  0  0  0  0  0
   11.7330  -12.2020    0.8960 C   0  0  0  0  0  0  0  0  0  0  0  0
   12.2340  -13.3740    0.3320 C   0  0  0  0  0  0  0  0  0  0  0  0
   11.4470  -14.1710   -0.5070 C   0  0  0  0  0  0  0  0  0  0  0  0
   10.1350  -13.7400   -0.7540 C   0  0  0  0  0  0  0  0  0  0  0  0
    9.0980  -14.2370   -1.5320 N   0  0  0  0  0  0  0  0  0  0  0  0
    9.2100  -15.0010   -2.7390 C   0  0  0  0  0  0  0  0  0  0  0  0
    9.9330  -14.4270   -3.7730 C   0  0  0  0  0  0  0  0  0  0  0  0
    9.5700  -14.7950   -5.0490 C   0  0  0  0  0  0  0  0  0  0  0  0
    9.8720  -14.0520   -6.1670 N   0  0  0  0  0  0  0  0  0  0  0  0
   10.3860  -14.5570   -7.4270 C   0  0  0  0  0  0  0  0  0  0  0  0
   11.8220  -14.0590   -7.6310 C   0  0  0  0  0  0  0  0  0  0  0  0
   12.4370  -13.4140   -6.3860 C   0  0  0  0  0  0  0  0  0  0  0  0
   13.7410  -14.0820   -5.9850 N   0  0  0  0  0  0  0  0  0  0  0  0
   13.8230  -15.5840   -6.2530 C   0  0  0  0  0  0  0  0  0  0  0  0
   13.0610  -16.4190   -5.1880 C   0  0  0  0  0  0  0  0  0  0  0  0
   13.4590  -16.0400   -3.7730 N   0  0  0  0  0  0  0  0  0  0  0  0
   12.7030  -16.8250   -2.7310 C   0  0  0  0  0  0  0  0  0  0  0  0
   13.4100  -14.5510   -3.5000 C   0  0  0  0  0  0  0  0  0  0  0  0
   14.2000  -13.7610   -4.5640 C   0  0  0  0  0  0  0  0  0  0  0  0
    8.7030  -15.7850   -5.2730 N   0  0  0  0  0  0  0  0  0  0  0  0
    8.1750  -16.4000   -4.2060 C   0  0  0  0  0  0  0  0  0  0  0  0
    8.3330  -16.0060   -2.9390 N   0  0  0  0  0  0  0  0  0  0  0  0
    5.4134  -12.6113   -0.0389 H   0  0  0  0  0  0  0  0  0  0  0  0
    4.3906  -11.1676   -0.3491 H   0  0  0  0  0  0  0  0  0  0  0  0
    3.6549  -12.8063   -0.3491 H   0  0  0  0  0  0  0  0  0  0  0  0
    3.1029  -11.1320   -2.5972 H   0  0  0  0  0  0  0  0  0  0  0  0
    3.4239  -11.3628   -5.0588 H   0  0  0  0  0  0  0  0  0  0  0  0
    6.4550  -14.5290   -5.8410 H   0  0  0  0  0  0  0  0  0  0  0  0
    6.8596  -16.3281   -7.3205 H   0  0  0  0  0  0  0  0  0  0  0  0
    7.7619  -17.0397   -9.5321 H   0  0  0  0  0  0  0  0  0  0  0  0
    8.1570  -15.3582  -11.3268 H   0  0  0  0  0  0  0  0  0  0  0  0
    6.7651  -12.2348   -8.6751 H   0  0  0  0  0  0  0  0  0  0  0  0
    7.0445  -13.6049   -4.3463 H   0  0  0  0  0  0  0  0  0  0  0  0
    6.4590  -14.8050   -1.5990 H   0  0  0  0  0  0  0  0  0  0  0  0
   10.0262  -10.8639    1.0888 H   0  0  0  0  0  0  0  0  0  0  0  0
   12.3782  -11.5927    1.5460 H   0  0  0  0  0  0  0  0  0  0  0  0
   13.2682  -13.6784    0.5506 H   0  0  0  0  0  0  0  0  0  0  0  0
   11.8404  -15.0960   -0.9538 H   0  0  0  0  0  0  0  0  0  0  0  0
   10.7515  -13.7167   -3.5845 H   0  0  0  0  0  0  0  0  0  0  0  0
    9.2040  -13.2770   -6.2350 H   0  0  0  0  0  0  0  0  0  0  0  0
   10.3783  -15.6569   -7.4115 H   0  0  0  0  0  0  0  0  0  0  0  0
    9.7530  -14.1969   -8.2514 H   0  0  0  0  0  0  0  0  0  0  0  0
   12.4476  -14.9155   -7.9224 H   0  0  0  0  0  0  0  0  0  0  0  0
   11.7832  -13.2812   -8.4078 H   0  0  0  0  0  0  0  0  0  0  0  0
   12.6317  -12.3519   -6.5956 H   0  0  0  0  0  0  0  0  0  0  0  0
   11.7254  -13.5314   -5.5555 H   0  0  0  0  0  0  0  0  0  0  0  0
   14.4530  -13.6520   -6.6150 H   0  0  0  0  0  0  0  0  0  0  0  0
   13.3872  -15.7905   -7.2416 H   0  0  0  0  0  0  0  0  0  0  0  0
   14.8831  -15.8744   -6.2106 H   0  0  0  0  0  0  0  0  0  0  0  0
   11.9811  -16.2491   -5.3102 H   0  0  0  0  0  0  0  0  0  0  0  0
   13.3183  -17.4776   -5.3401 H   0  0  0  0  0  0  0  0  0  0  0  0
   14.4590  -16.3300   -3.6320 H   0  0  0  0  0  0  0  0  0  0  0  0
   13.0163  -16.4997   -1.7280 H   0  0  0  0  0  0  0  0  0  0  0  0
   11.6237  -16.6510   -2.8524 H   0  0  0  0  0  0  0  0  0  0  0  0
   12.9175  -17.8970   -2.8524 H   0  0  0  0  0  0  0  0  0  0  0  0
   12.3615  -14.2186   -3.5118 H   0  0  0  0  0  0  0  0  0  0  0  0
   13.8663  -14.3625   -2.5170 H   0  0  0  0  0  0  0  0  0  0  0  0
   14.0601  -12.6852   -4.3818 H   0  0  0  0  0  0  0  0  0  0  0  0
   15.2583  -14.0490   -4.4795 H   0  0  0  0  0  0  0  0  0  0  0  0
    7.5651  -17.2974   -4.3868 H   0  0  0  0  0  0  0  0  0  0  0  0
  1  2  1  0
  2  3  2  0
  3  4  1  0
  4  5  2  0
  5  6  1  0
  6  7  2  0
  6  8  1  0
  8  9  1  0
  9 10  2  0
 10 11  1  0
 11 12  2  0
 12 13  1  0
 13 14  1  0
 14 15  1  0
 14 16  1  0
 14 17  1  0
 13 18  2  0
  5 19  1  0
 19 20  2  0
 20 21  1  0
 21 22  1  0
 22 23  2  0
 23 24  1  0
 24 25  2  0
 25 26  1  0
 26 27  2  0
 27 28  1  0
 28 29  2  0
 29 30  1  0
 30 31  1  0
 31 32  2  0
 32 33  1  0
 33 34  1  0
 34 35  1  0
 35 36  1  0
 36 37  1  0
 37 38  1  0
 38 39  1  0
 39 40  1  0
 40 41  1  0
 41 42  1  0
 41 43  1  0
 43 44  1  0
 33 45  2  0
 45 46  1  0
 46 47  2  0
 20  2  1  0
 30 22  1  0
 47 31  1  0
 18  9  1  0
 29 24  1  0
 44 38  1  0
  1 48  1  0
  1 49  1  0
  1 50  1  0
  3 51  1  0
  4 52  1  0
  8 53  1  0
 10 54  1  0
 11 55  1  0
 12 56  1  0
 18 57  1  0
 19 58  1  0
 21 59  1  0
 25 60  1  0
 26 61  1  0
 27 62  1  0
 28 63  1  0
 32 64  1  0
 34 65  1  0
 35 66  1  0
 35 67  1  0
 36 68  1  0
 36 69  1  0
 37 70  1  0
 37 71  1  0
 38 72  1  0
 39 73  1  0
 39 74  1  0
 40 75  1  0
 40 76  1  0
 41 77  1  0
 42 78  1  0
 42 79  1  0
 42 80  1  0
 43 81  1  0
 43 82  1  0
 44 83  1  0
 44 84  1  0
 46 85  1  0
M  CHG  2  38   1  41   1
M  END
>  <meeko>  (8) 
{"is_sidechain": [false], "free_energy": -9.105, "intermolecular_energy": -13.533, "internal_energy": -3.819}

$$$$
LIB_YGTYIGUWQYTZMS__M_PUB_ALL__e8__s20260927
     RDKit          3D

 85 90  0  0  0  0  0  0  0  0999 V2000
    5.9010  -12.2190   -4.9290 C   0  0  0  0  0  0  0  0  0  0  0  0
    4.9930  -12.2390   -3.7270 C   0  0  0  0  0  0  0  0  0  0  0  0
    3.6410  -12.5860   -3.9090 C   0  0  0  0  0  0  0  0  0  0  0  0
    2.7490  -12.5870   -2.8370 C   0  0  0  0  0  0  0  0  0  0  0  0
    3.2180  -12.2800   -1.5610 C   0  0  0  0  0  0  0  0  0  0  0  0
    2.2950  -12.1130   -0.4080 C   0  0  0  0  0  0  0  0  0  0  0  0
    2.7390  -11.6010    0.6250 O   0  0  0  0  0  0  0  0  0  0  0  0
    1.0150  -12.5860   -0.5980 N   0  0  0  0  0  0  0  0  0  0  0  0
   -0.1030  -12.3580    0.2300 C   0  0  0  0  0  0  0  0  0  0  0  0
   -0.9190  -13.4460    0.5440 C   0  0  0  0  0  0  0  0  0  0  0  0
   -2.0460  -13.2760    1.3530 C   0  0  0  0  0  0  0  0  0  0  0  0
   -2.3730  -12.0150    1.8480 C   0  0  0  0  0  0  0  0  0  0  0  0
   -1.5750  -10.9090    1.5320 C   0  0  0  0  0  0  0  0  0  0  0  0
   -1.9250   -9.5270    2.0230 C   0  0  0  0  0  0  0  0  0  0  0  0
   -2.6970   -8.8160    1.1630 F   0  0  0  0  0  0  0  0  0  0  0  0
   -2.6380   -9.5790    3.1960 F   0  0  0  0  0  0  0  0  0  0  0  0
   -0.8330   -8.7700    2.2990 F   0  0  0  0  0  0  0  0  0  0  0  0
   -0.4490  -11.0920    0.7090 C   0  0  0  0  0  0  0  0  0  0  0  0
    4.5700  -11.9850   -1.3650 C   0  0  0  0  0  0  0  0  0  0  0  0
    5.4590  -11.8880   -2.4420 C   0  0  0  0  0  0  0  0  0  0  0  0
    6.7810  -11.4310   -2.2610 N   0  0  0  0  0  0  0  0  0  0  0  0
    7.8740  -12.1560   -1.9240 C   0  0  0  0  0  0  0  0  0  0  0  0
    8.4320  -13.1540   -2.5810 N   0  0  0  0  0  0  0  0  0  0  0  0
    9.5860  -13.4430   -1.9080 C   0  0  0  0  0  0  0  0  0  0  0  0
   10.6200  -14.3230   -2.2580 C   0  0  0  0  0  0  0  0  0  0  0  0
   11.7100  -14.4610   -1.3900 C   0  0  0  0  0  0  0  0  0  0  0  0
   11.7670  -13.7420   -0.1970 C   0  0  0  0  0  0  0  0  0  0  0  0
   10.7390  -12.8690    0.1750 C   0  0  0  0  0  0  0  0  0  0  0  0
    9.6510  -12.7480   -0.7040 C   0  0  0  0  0  0  0  0  0  0  0  0
    8.4670  -12.0250   -0.6620 N   0  0  0  0  0  0  0  0  0  0  0  0
    7.7330  -11.6290    0.5030 C   0  0  0  0  0  0  0  0  0  0  0  0
    7.0760  -12.6360    1.1940 C   0  0  0  0  0  0  0  0  0  0  0  0
    5.9440  -12.2630    1.8830 C   0  0  0  0  0  0  0  0  0  0  0  0
    4.9640  -13.1500    2.2670 N   0  0  0  0  0  0  0  0  0  0  0  0
    4.6260  -14.4000    1.6110 C   0  0  0  0  0  0  0  0  0  0  0  0
    3.2120  -14.8280    2.0220 C   0  0  0  0  0  0  0  0  0  0  0  0
    2.4010  -15.4580    0.8860 C   0  0  0  0  0  0  0  0  0  0  0  0
    2.1820  -16.9460    1.1010 N   0  0  0  0  0  0  0  0  0  0  0  0
    3.2510  -17.6560    1.9300 C   0  0  0  0  0  0  0  0  0  0  0  0
    4.5350  -17.9570    1.1110 C   0  0  0  0  0  0  0  0  0  0  0  0
    4.2260  -18.6610   -0.1980 N   0  0  0  0  0  0  0  0  0  0  0  0
    5.4650  -18.9310   -1.0140 C   0  0  0  0  0  0  0  0  0  0  0  0
    3.1490  -17.9830   -1.0200 C   0  0  0  0  0  0  0  0  0  0  0  0
    1.8820  -17.7260   -0.1770 C   0  0  0  0  0  0  0  0  0  0  0  0
    5.6040  -10.9810    2.0310 N   0  0  0  0  0  0  0  0  0  0  0  0
    6.3950  -10.0600    1.4650 C   0  0  0  0  0  0  0  0  0  0  0  0
    7.4130  -10.3260    0.6410 N   0  0  0  0  0  0  0  0  0  0  0  0
    6.9492  -12.1959   -4.5963 H   0  0  0  0  0  0  0  0  0  0  0  0
    5.7281  -13.1212   -5.5342 H   0  0  0  0  0  0  0  0  0  0  0  0
    5.6886  -11.3253   -5.5342 H   0  0  0  0  0  0  0  0  0  0  0  0
    3.2826  -12.8606   -4.9121 H   0  0  0  0  0  0  0  0  0  0  0  0
    1.6875  -12.8273   -2.9967 H   0  0  0  0  0  0  0  0  0  0  0  0
    0.8550  -13.1950   -1.3970 H   0  0  0  0  0  0  0  0  0  0  0  0
   -0.6734  -14.4440    0.1521 H   0  0  0  0  0  0  0  0  0  0  0  0
   -2.6779  -14.1418    1.6002 H   0  0  0  0  0  0  0  0  0  0  0  0
   -3.2590  -11.8886    2.4876 H   0  0  0  0  0  0  0  0  0  0  0  0
    0.1695  -10.2237    0.4380 H   0  0  0  0  0  0  0  0  0  0  0  0
    4.9435  -11.8256   -0.3427 H   0  0  0  0  0  0  0  0  0  0  0  0
    6.8370  -10.4150   -2.1540 H   0  0  0  0  0  0  0  0  0  0  0  0
   10.5757  -14.8943   -3.1970 H   0  0  0  0  0  0  0  0  0  0  0  0
   12.5308  -15.1446   -1.6525 H   0  0  0  0  0  0  0  0  0  0  0  0
   12.6372  -13.8634    0.4648 H   0  0  0  0  0  0  0  0  0  0  0  0
   10.7814  -12.3014    1.1163 H   0  0  0  0  0  0  0  0  0  0  0  0
    7.4389  -13.6744    1.1917 H   0  0  0  0  0  0  0  0  0  0  0  0
    4.9090  -13.1530    3.2900 H   0  0  0  0  0  0  0  0  0  0  0  0
    4.6652  -14.2637    0.5202 H   0  0  0  0  0  0  0  0  0  0  0  0
    5.3452  -15.1767    1.9100 H   0  0  0  0  0  0  0  0  0  0  0  0
    3.2952  -15.5621    2.8369 H   0  0  0  0  0  0  0  0  0  0  0  0
    2.6783  -13.9163    2.3286 H   0  0  0  0  0  0  0  0  0  0  0  0
    1.4221  -14.9594    0.8294 H   0  0  0  0  0  0  0  0  0  0  0  0
    2.9674  -15.3292   -0.0481 H   0  0  0  0  0  0  0  0  0  0  0  0
    1.3120  -16.9960    1.6730 H   0  0  0  0  0  0  0  0  0  0  0  0
    3.5188  -17.0157    2.7834 H   0  0  0  0  0  0  0  0  0  0  0  0
    2.8329  -18.6178    2.2619 H   0  0  0  0  0  0  0  0  0  0  0  0
    5.0460  -17.0080    0.8912 H   0  0  0  0  0  0  0  0  0  0  0  0
    5.1713  -18.6234    1.7118 H   0  0  0  0  0  0  0  0  0  0  0  0
    3.8600  -19.6180    0.0310 H   0  0  0  0  0  0  0  0  0  0  0  0
    6.3146  -19.1161   -0.3403 H   0  0  0  0  0  0  0  0  0  0  0  0
    5.3009  -19.8145   -1.6485 H   0  0  0  0  0  0  0  0  0  0  0  0
    5.6833  -18.0594   -1.6485 H   0  0  0  0  0  0  0  0  0  0  0  0
    3.5334  -17.0219   -1.3921 H   0  0  0  0  0  0  0  0  0  0  0  0
    2.8819  -18.6444   -1.8574 H   0  0  0  0  0  0  0  0  0  0  0  0
    1.1657  -17.1509   -0.7821 H   0  0  0  0  0  0  0  0  0  0  0  0
    1.4694  -18.7030    0.1152 H   0  0  0  0  0  0  0  0  0  0  0  0
    6.1911   -9.0041    1.6961 H   0  0  0  0  0  0  0  0  0  0  0  0
  1  2  1  0
  2  3  2  0
  3  4  1  0
  4  5  2  0
  5  6  1  0
  6  7  2  0
  6  8  1  0
  8  9  1  0
  9 10  2  0
 10 11  1  0
 11 12  2  0
 12 13  1  0
 13 14  1  0
 14 15  1  0
 14 16  1  0
 14 17  1  0
 13 18  2  0
  5 19  1  0
 19 20  2  0
 20 21  1  0
 21 22  1  0
 22 23  2  0
 23 24  1  0
 24 25  2  0
 25 26  1  0
 26 27  2  0
 27 28  1  0
 28 29  2  0
 29 30  1  0
 30 31  1  0
 31 32  2  0
 32 33  1  0
 33 34  1  0
 34 35  1  0
 35 36  1  0
 36 37  1  0
 37 38  1  0
 38 39  1  0
 39 40  1  0
 40 41  1  0
 41 42  1  0
 41 43  1  0
 43 44  1  0
 33 45  2  0
 45 46  1  0
 46 47  2  0
 20  2  1  0
 30 22  1  0
 47 31  1  0
 18  9  1  0
 29 24  1  0
 44 38  1  0
  1 48  1  0
  1 49  1  0
  1 50  1  0
  3 51  1  0
  4 52  1  0
  8 53  1  0
 10 54  1  0
 11 55  1  0
 12 56  1  0
 18 57  1  0
 19 58  1  0
 21 59  1  0
 25 60  1  0
 26 61  1  0
 27 62  1  0
 28 63  1  0
 32 64  1  0
 34 65  1  0
 35 66  1  0
 35 67  1  0
 36 68  1  0
 36 69  1  0
 37 70  1  0
 37 71  1  0
 38 72  1  0
 39 73  1  0
 39 74  1  0
 40 75  1  0
 40 76  1  0
 41 77  1  0
 42 78  1  0
 42 79  1  0
 42 80  1  0
 43 81  1  0
 43 82  1  0
 44 83  1  0
 44 84  1  0
 46 85  1  0
M  CHG  2  38   1  41   1
M  END
>  <meeko>  (9) 
{"is_sidechain": [false], "free_energy": -9.085, "intermolecular_energy": -13.672, "internal_energy": -3.648}

$$$$
