LIB_BDNDOZRIKYDPKJ__M_PUB_ALL__e8__s20260927
     RDKit          3D

 71 75  0  0  0  0  0  0  0  0999 V2000
    8.5210  -15.7400   -4.5190 C   0  0  0  0  0  0  0  0  0  0  0  0
    9.1670  -14.5100   -5.1320 C   0  0  0  0  0  0  0  0  0  0  0  0
    8.8070  -13.3840   -4.3340 O   0  0  0  0  0  0  0  0  0  0  0  0
    9.5930  -13.1030   -3.2370 C   0  0  0  0  0  0  0  0  0  0  0  0
   10.9880  -12.9980   -3.2560 C   0  0  0  0  0  0  0  0  0  0  0  0
   11.6940  -12.7120   -2.0820 C   0  0  0  0  0  0  0  0  0  0  0  0
   13.0550  -12.5900   -2.0020 O   0  0  0  0  0  0  0  0  0  0  0  0
   13.6920  -11.5740   -2.7760 C   0  0  0  0  0  0  0  0  0  0  0  0
   14.7580  -12.2360   -3.6290 C   0  0  0  0  0  0  0  0  0  0  0  0
   11.0000  -12.5310   -0.8750 C   0  0  0  0  0  0  0  0  0  0  0  0
   11.7480  -12.2250    0.4010 C   0  0  0  0  0  0  0  0  0  0  0  0
   10.9370  -12.1580    1.4940 F   0  0  0  0  0  0  0  0  0  0  0  0
   12.6920  -13.1610    0.7120 F   0  0  0  0  0  0  0  0  0  0  0  0
   12.4240  -11.0420    0.3530 F   0  0  0  0  0  0  0  0  0  0  0  0
    9.5970  -12.6370   -0.8620 C   0  0  0  0  0  0  0  0  0  0  0  0
    8.8900  -12.9190   -2.0300 C   0  0  0  0  0  0  0  0  0  0  0  0
    7.4830  -13.0430   -2.0890 N   0  0  0  0  0  0  0  0  0  0  0  0
    6.5230  -12.0520   -1.9900 C   0  0  0  0  0  0  0  0  0  0  0  0
    6.7650  -10.8560   -1.8780 O   0  0  0  0  0  0  0  0  0  0  0  0
    5.2510  -12.6060   -2.0250 N   0  0  0  0  0  0  0  0  0  0  0  0
    4.0140  -11.9270   -2.0440 C   0  0  0  0  0  0  0  0  0  0  0  0
    3.6970  -11.2130   -3.2040 C   0  0  0  0  0  0  0  0  0  0  0  0
    2.4940  -10.5120   -3.2990 C   0  0  0  0  0  0  0  0  0  0  0  0
    1.5970  -10.5220   -2.2320 C   0  0  0  0  0  0  0  0  0  0  0  0
    1.8870  -11.2310   -1.0580 C   0  0  0  0  0  0  0  0  0  0  0  0
    0.9190  -11.2110    0.0690 C   0  0  0  0  0  0  0  0  0  0  0  0
    0.0930  -10.1550    0.2280 C   0  0  0  0  0  0  0  0  0  0  0  0
   -0.7840  -10.1650    1.2910 N   0  0  0  0  0  0  0  0  0  0  0  0
   -1.7300   -9.2730    1.7170 C   0  0  0  0  0  0  0  0  0  0  0  0
   -2.2820   -9.8470    2.8430 C   0  0  0  0  0  0  0  0  0  0  0  0
   -1.7000  -11.0620    3.1210 N   0  0  0  0  0  0  0  0  0  0  0  0
   -0.8080  -11.2150    2.1650 C   0  0  0  0  0  0  0  0  0  0  0  0
    0.1060  -12.3250    1.9620 C   0  0  0  0  0  0  0  0  0  0  0  0
    0.1040  -13.3920    2.8260 N   0  0  0  0  0  0  0  0  0  0  0  0
    0.9530  -14.5430    2.6890 C   0  0  0  0  0  0  0  0  0  0  0  0
    0.1070  -15.7680    2.4550 C   0  0  0  0  0  0  0  0  0  0  0  0
   -0.7040  -16.2800    3.4710 C   0  0  0  0  0  0  0  0  0  0  0  0
   -1.4840  -17.3940    3.1990 C   0  0  0  0  0  0  0  0  0  0  0  0
   -1.5120  -18.0170    2.0030 N   0  0  0  0  0  0  0  0  0  0  0  0
   -0.7320  -17.4980    1.0310 C   0  0  0  0  0  0  0  0  0  0  0  0
    0.0810  -16.3890    1.2030 C   0  0  0  0  0  0  0  0  0  0  0  0
    0.9360  -12.2960    0.9430 N   0  0  0  0  0  0  0  0  0  0  0  0
    3.1120  -11.9170   -0.9740 C   0  0  0  0  0  0  0  0  0  0  0  0
    8.5597  -15.6664   -3.4222 H   0  0  0  0  0  0  0  0  0  0  0  0
    7.4725  -15.8047   -4.8454 H   0  0  0  0  0  0  0  0  0  0  0  0
    9.0628  -16.6399   -4.8454 H   0  0  0  0  0  0  0  0  0  0  0  0
   10.2607  -14.6274   -5.1415 H   0  0  0  0  0  0  0  0  0  0  0  0
    8.8236  -14.3719   -6.1679 H   0  0  0  0  0  0  0  0  0  0  0  0
   11.5337  -13.1412   -4.2003 H   0  0  0  0  0  0  0  0  0  0  0  0
   12.9526  -11.0771   -3.4212 H   0  0  0  0  0  0  0  0  0  0  0  0
   14.1438  -10.8176   -2.1174 H   0  0  0  0  0  0  0  0  0  0  0  0
   15.5109  -12.7036   -2.9774 H   0  0  0  0  0  0  0  0  0  0  0  0
   14.2941  -13.0052   -4.2640 H   0  0  0  0  0  0  0  0  0  0  0  0
   15.2418  -11.4792   -4.2640 H   0  0  0  0  0  0  0  0  0  0  0  0
    9.0508  -12.4955    0.0823 H   0  0  0  0  0  0  0  0  0  0  0  0
    7.1730  -13.9870   -2.2750 H   0  0  0  0  0  0  0  0  0  0  0  0
    5.2030  -13.6110   -1.9710 H   0  0  0  0  0  0  0  0  0  0  0  0
    4.4017  -11.2039   -4.0485 H   0  0  0  0  0  0  0  0  0  0  0  0
    2.2539   -9.9522   -4.2149 H   0  0  0  0  0  0  0  0  0  0  0  0
    0.6506   -9.9671   -2.3122 H   0  0  0  0  0  0  0  0  0  0  0  0
    0.1194   -9.3079   -0.4733 H   0  0  0  0  0  0  0  0  0  0  0  0
   -1.9932   -8.3075    1.2604 H   0  0  0  0  0  0  0  0  0  0  0  0
   -3.0846   -9.3917    3.4418 H   0  0  0  0  0  0  0  0  0  0  0  0
   -0.5620  -13.3590    3.5910 H   0  0  0  0  0  0  0  0  0  0  0  0
    1.6319  -14.3981    1.8357 H   0  0  0  0  0  0  0  0  0  0  0  0
    1.5419  -14.6750    3.6087 H   0  0  0  0  0  0  0  0  0  0  0  0
   -0.7234  -15.8097    4.4652 H   0  0  0  0  0  0  0  0  0  0  0  0
   -2.1167  -17.7927    4.0056 H   0  0  0  0  0  0  0  0  0  0  0  0
   -0.7424  -17.9841    0.0443 H   0  0  0  0  0  0  0  0  0  0  0  0
    0.6923  -16.0059    0.3726 H   0  0  0  0  0  0  0  0  0  0  0  0
    3.3660  -12.4561   -0.0494 H   0  0  0  0  0  0  0  0  0  0  0  0
  1  2  1  0
  2  3  1  0
  3  4  1  0
  4  5  2  0
  5  6  1  0
  6  7  1  0
  7  8  1  0
  8  9  1  0
  6 10  2  0
 10 11  1  0
 11 12  1  0
 11 13  1  0
 11 14  1  0
 10 15  1  0
 15 16  2  0
 16 17  1  0
 17 18  1  0
 18 19  2  0
 18 20  1  0
 20 21  1  0
 21 22  2  0
 22 23  1  0
 23 24  2  0
 24 25  1  0
 25 26  1  0
 26 27  2  0
 27 28  1  0
 28 29  1  0
 29 30  2  0
 30 31  1  0
 31 32  2  0
 32 33  1  0
 33 34  1  0
 34 35  1  0
 35 36  1  0
 36 37  2  0
 37 38  1  0
 38 39  2  0
 39 40  1  0
 40 41  2  0
 33 42  2  0
 25 43  2  0
 16  4  1  0
 43 21  1  0
 42 26  1  0
 32 28  1  0
 41 36  1  0
  1 44  1  0
  1 45  1  0
  1 46  1  0
  2 47  1  0
  2 48  1  0
  5 49  1  0
  8 50  1  0
  8 51  1  0
  9 52  1  0
  9 53  1  0
  9 54  1  0
 15 55  1  0
 17 56  1  0
 20 57  1  0
 22 58  1  0
 23 59  1  0
 24 60  1  0
 27 61  1  0
 29 62  1  0
 30 63  1  0
 34 64  1  0
 35 65  1  0
 35 66  1  0
 37 67  1  0
 38 68  1  0
 40 69  1  0
 41 70  1  0
 43 71  1  0
M  END
>  <meeko>  (1) 
{"is_sidechain": [false], "free_energy": -8.99, "intermolecular_energy": -14.246, "internal_energy": -1.538}

$$$$
LIB_BDNDOZRIKYDPKJ__M_PUB_ALL__e8__s20260927
     RDKit          3D

 71 75  0  0  0  0  0  0  0  0999 V2000
    6.4480  -17.7800   -4.4710 C   0  0  0  0  0  0  0  0  0  0  0  0
    5.7490  -16.5450   -5.0100 C   0  0  0  0  0  0  0  0  0  0  0  0
    6.7500  -15.5770   -5.3210 O   0  0  0  0  0  0  0  0  0  0  0  0
    6.8510  -15.1630   -6.6320 C   0  0  0  0  0  0  0  0  0  0  0  0
    7.2840  -15.9640   -7.6950 C   0  0  0  0  0  0  0  0  0  0  0  0
    7.3530  -15.4440   -8.9920 C   0  0  0  0  0  0  0  0  0  0  0  0
    7.7630  -16.1490  -10.0930 O   0  0  0  0  0  0  0  0  0  0  0  0
    8.8720  -17.0360   -9.9560 C   0  0  0  0  0  0  0  0  0  0  0  0
   10.1320  -16.1950   -9.8610 C   0  0  0  0  0  0  0  0  0  0  0  0
    6.9900  -14.1100   -9.2320 C   0  0  0  0  0  0  0  0  0  0  0  0
    7.0630  -13.5330  -10.6260 C   0  0  0  0  0  0  0  0  0  0  0  0
    8.2990  -13.6440  -11.1860 F   0  0  0  0  0  0  0  0  0  0  0  0
    6.2150  -14.1400  -11.5070 F   0  0  0  0  0  0  0  0  0  0  0  0
    6.7380  -12.2100  -10.6730 F   0  0  0  0  0  0  0  0  0  0  0  0
    6.5550  -13.3090   -8.1590 C   0  0  0  0  0  0  0  0  0  0  0  0
    6.4810  -13.8240   -6.8650 C   0  0  0  0  0  0  0  0  0  0  0  0
    6.0580  -13.0780   -5.7430 N   0  0  0  0  0  0  0  0  0  0  0  0
    4.7700  -12.8560   -5.2880 C   0  0  0  0  0  0  0  0  0  0  0  0
    3.7620  -13.3380   -5.7880 O   0  0  0  0  0  0  0  0  0  0  0  0
    4.7850  -12.0050   -4.1920 N   0  0  0  0  0  0  0  0  0  0  0  0
    3.6920  -11.6120   -3.3890 C   0  0  0  0  0  0  0  0  0  0  0  0
    2.9850  -10.4730   -3.7890 C   0  0  0  0  0  0  0  0  0  0  0  0
    1.8960  -10.0170   -3.0460 C   0  0  0  0  0  0  0  0  0  0  0  0
    1.5020  -10.7010   -1.8970 C   0  0  0  0  0  0  0  0  0  0  0  0
    2.1900  -11.8470   -1.4740 C   0  0  0  0  0  0  0  0  0  0  0  0
    1.7580  -12.5460   -0.2360 C   0  0  0  0  0  0  0  0  0  0  0  0
    2.3680  -13.6920    0.1370 C   0  0  0  0  0  0  0  0  0  0  0  0
    1.9340  -14.3200    1.2850 N   0  0  0  0  0  0  0  0  0  0  0  0
    2.3350  -15.4640    1.9200 C   0  0  0  0  0  0  0  0  0  0  0  0
    1.5120  -15.5670    3.0230 C   0  0  0  0  0  0  0  0  0  0  0  0
    0.6190  -14.5230    3.0800 N   0  0  0  0  0  0  0  0  0  0  0  0
    0.9070  -13.7980    2.0190 C   0  0  0  0  0  0  0  0  0  0  0  0
    0.2730  -12.5700    1.5740 C   0  0  0  0  0  0  0  0  0  0  0  0
   -0.7620  -12.0250    2.2920 N   0  0  0  0  0  0  0  0  0  0  0  0
   -1.4310  -10.8020    1.9440 C   0  0  0  0  0  0  0  0  0  0  0  0
   -2.6700  -11.1150    1.1450 C   0  0  0  0  0  0  0  0  0  0  0  0
   -3.0250  -10.3340    0.0420 C   0  0  0  0  0  0  0  0  0  0  0  0
   -4.1600  -10.6770   -0.6770 C   0  0  0  0  0  0  0  0  0  0  0  0
   -4.9480  -11.7300   -0.3780 N   0  0  0  0  0  0  0  0  0  0  0  0
   -4.5800  -12.4820    0.6820 C   0  0  0  0  0  0  0  0  0  0  0  0
   -3.4640  -12.2210    1.4620 C   0  0  0  0  0  0  0  0  0  0  0  0
    0.7000  -11.9870    0.4770 N   0  0  0  0  0  0  0  0  0  0  0  0
    3.2970  -12.2810   -2.2260 C   0  0  0  0  0  0  0  0  0  0  0  0
    6.4355  -17.7578   -3.3713 H   0  0  0  0  0  0  0  0  0  0  0  0
    5.9259  -18.6809   -4.8256 H   0  0  0  0  0  0  0  0  0  0  0  0
    7.4892  -17.7961   -4.8256 H   0  0  0  0  0  0  0  0  0  0  0  0
    5.1824  -16.8019   -5.9172 H   0  0  0  0  0  0  0  0  0  0  0  0
    5.0468  -16.1449   -4.2637 H   0  0  0  0  0  0  0  0  0  0  0  0
    7.5720  -17.0093   -7.5094 H   0  0  0  0  0  0  0  0  0  0  0  0
    8.7566  -17.6409   -9.0445 H   0  0  0  0  0  0  0  0  0  0  0  0
    8.9286  -17.7155  -10.8192 H   0  0  0  0  0  0  0  0  0  0  0  0
   10.3824  -16.0279   -8.8030 H   0  0  0  0  0  0  0  0  0  0  0  0
   10.9620  -16.7209  -10.3556 H   0  0  0  0  0  0  0  0  0  0  0  0
    9.9648  -15.2268  -10.3556 H   0  0  0  0  0  0  0  0  0  0  0  0
    6.2696  -12.2628   -8.3437 H   0  0  0  0  0  0  0  0  0  0  0  0
    6.8230  -12.7080   -5.1970 H   0  0  0  0  0  0  0  0  0  0  0  0
    5.6680  -11.5690   -3.9800 H   0  0  0  0  0  0  0  0  0  0  0  0
    3.2904   -9.9325   -4.6970 H   0  0  0  0  0  0  0  0  0  0  0  0
    1.3486   -9.1183   -3.3665 H   0  0  0  0  0  0  0  0  0  0  0  0
    0.6417  -10.3375   -1.3158 H   0  0  0  0  0  0  0  0  0  0  0  0
    3.1901  -14.1135   -0.4600 H   0  0  0  0  0  0  0  0  0  0  0  0
    3.1384  -16.1517    1.6172 H   0  0  0  0  0  0  0  0  0  0  0  0
    1.5638  -16.3802    3.7620 H   0  0  0  0  0  0  0  0  0  0  0  0
   -1.0440  -12.5180    3.1340 H   0  0  0  0  0  0  0  0  0  0  0  0
   -1.7128  -10.2646    2.8615 H   0  0  0  0  0  0  0  0  0  0  0  0
   -0.7568  -10.1743    1.3429 H   0  0  0  0  0  0  0  0  0  0  0  0
   -2.4167   -9.4652   -0.2499 H   0  0  0  0  0  0  0  0  0  0  0  0
   -4.4336  -10.0541   -1.5414 H   0  0  0  0  0  0  0  0  0  0  0  0
   -5.2017  -13.3517    0.9413 H   0  0  0  0  0  0  0  0  0  0  0  0
   -3.2087  -12.8704    2.3123 H   0  0  0  0  0  0  0  0  0  0  0  0
    3.8628  -13.1635   -1.8928 H   0  0  0  0  0  0  0  0  0  0  0  0
  1  2  1  0
  2  3  1  0
  3  4  1  0
  4  5  2  0
  5  6  1  0
  6  7  1  0
  7  8  1  0
  8  9  1  0
  6 10  2  0
 10 11  1  0
 11 12  1  0
 11 13  1  0
 11 14  1  0
 10 15  1  0
 15 16  2  0
 16 17  1  0
 17 18  1  0
 18 19  2  0
 18 20  1  0
 20 21  1  0
 21 22  2  0
 22 23  1  0
 23 24  2  0
 24 25  1  0
 25 26  1  0
 26 27  2  0
 27 28  1  0
 28 29  1  0
 29 30  2  0
 30 31  1  0
 31 32  2  0
 32 33  1  0
 33 34  1  0
 34 35  1  0
 35 36  1  0
 36 37  2  0
 37 38  1  0
 38 39  2  0
 39 40  1  0
 40 41  2  0
 33 42  2  0
 25 43  2  0
 16  4  1  0
 43 21  1  0
 42 26  1  0
 32 28  1  0
 41 36  1  0
  1 44  1  0
  1 45  1  0
  1 46  1  0
  2 47  1  0
  2 48  1  0
  5 49  1  0
  8 50  1  0
  8 51  1  0
  9 52  1  0
  9 53  1  0
  9 54  1  0
 15 55  1  0
 17 56  1  0
 20 57  1  0
 22 58  1  0
 23 59  1  0
 24 60  1  0
 27 61  1  0
 29 62  1  0
 30 63  1  0
 34 64  1  0
 35 65  1  0
 35 66  1  0
 37 67  1  0
 38 68  1  0
 40 69  1  0
 41 70  1  0
 43 71  1  0
M  END
>  <meeko>  (2) 
{"is_sidechain": [false], "free_energy": -8.88, "intermolecular_energy": -13.87, "internal_energy": -1.738}

$$$$
LIB_BDNDOZRIKYDPKJ__M_PUB_ALL__e8__s20260927
     RDKit          3D

 71 75  0  0  0  0  0  0  0  0999 V2000
    5.2610  -12.9270    1.5940 C   0  0  0  0  0  0  0  0  0  0  0  0
    6.7750  -12.9020    1.4730 C   0  0  0  0  0  0  0  0  0  0  0  0
    7.1210  -11.9010    0.5170 O   0  0  0  0  0  0  0  0  0  0  0  0
    8.1820  -12.1620   -0.3230 C   0  0  0  0  0  0  0  0  0  0  0  0
    9.5150  -12.2880    0.0850 C   0  0  0  0  0  0  0  0  0  0  0  0
   10.5210  -12.5510   -0.8520 C   0  0  0  0  0  0  0  0  0  0  0  0
   11.8490  -12.6910   -0.5500 O   0  0  0  0  0  0  0  0  0  0  0  0
   12.4200  -11.8140    0.4200 C   0  0  0  0  0  0  0  0  0  0  0  0
   13.1260  -10.6940   -0.3210 C   0  0  0  0  0  0  0  0  0  0  0  0
   10.1940  -12.6860   -2.2100 C   0  0  0  0  0  0  0  0  0  0  0  0
   11.2690  -12.9660   -3.2340 C   0  0  0  0  0  0  0  0  0  0  0  0
   12.2390  -12.0100   -3.2650 F   0  0  0  0  0  0  0  0  0  0  0  0
   11.9300  -14.1400   -3.0160 F   0  0  0  0  0  0  0  0  0  0  0  0
   10.7840  -13.0610   -4.5040 F   0  0  0  0  0  0  0  0  0  0  0  0
    8.8520  -12.5580   -2.6140 C   0  0  0  0  0  0  0  0  0  0  0  0
    7.8460  -12.3000   -1.6840 C   0  0  0  0  0  0  0  0  0  0  0  0
    6.4810  -12.1570   -2.0180 N   0  0  0  0  0  0  0  0  0  0  0  0
    5.5310  -13.1430   -2.2180 C   0  0  0  0  0  0  0  0  0  0  0  0
    5.7340  -14.3430   -2.0800 O   0  0  0  0  0  0  0  0  0  0  0  0
    4.3230  -12.5800   -2.6050 N   0  0  0  0  0  0  0  0  0  0  0  0
    3.0920  -13.2370   -2.8120 C   0  0  0  0  0  0  0  0  0  0  0  0
    2.6660  -13.3890   -4.1370 C   0  0  0  0  0  0  0  0  0  0  0  0
    1.4580  -14.0240   -4.4250 C   0  0  0  0  0  0  0  0  0  0  0  0
    0.6650  -14.5150   -3.3890 C   0  0  0  0  0  0  0  0  0  0  0  0
    1.0670  -14.3790   -2.0530 C   0  0  0  0  0  0  0  0  0  0  0  0
    0.1950  -14.8980   -0.9680 C   0  0  0  0  0  0  0  0  0  0  0  0
    0.4630  -16.0950   -0.4020 C   0  0  0  0  0  0  0  0  0  0  0  0
   -0.3750  -16.5500    0.5930 N   0  0  0  0  0  0  0  0  0  0  0  0
   -0.3750  -17.6890    1.3510 C   0  0  0  0  0  0  0  0  0  0  0  0
   -1.4730  -17.5680    2.1770 C   0  0  0  0  0  0  0  0  0  0  0  0
   -2.1460  -16.3910    1.9460 N   0  0  0  0  0  0  0  0  0  0  0  0
   -1.4530  -15.8090    0.9890 C   0  0  0  0  0  0  0  0  0  0  0  0
   -1.7100  -14.5340    0.3460 C   0  0  0  0  0  0  0  0  0  0  0  0
   -2.7870  -13.7720    0.7230 N   0  0  0  0  0  0  0  0  0  0  0  0
   -3.1050  -12.4880    0.1610 C   0  0  0  0  0  0  0  0  0  0  0  0
   -2.4430  -11.4050    0.9730 C   0  0  0  0  0  0  0  0  0  0  0  0
   -2.5490  -11.3910    2.3670 C   0  0  0  0  0  0  0  0  0  0  0  0
   -1.9010  -10.3890    3.0720 C   0  0  0  0  0  0  0  0  0  0  0  0
   -1.1640   -9.4190    2.4920 N   0  0  0  0  0  0  0  0  0  0  0  0
   -1.0610   -9.4580    1.1470 C   0  0  0  0  0  0  0  0  0  0  0  0
   -1.6700  -10.4180    0.3540 C   0  0  0  0  0  0  0  0  0  0  0  0
   -0.9000  -14.1180   -0.6030 N   0  0  0  0  0  0  0  0  0  0  0  0
    2.2800  -13.7210   -1.7810 C   0  0  0  0  0  0  0  0  0  0  0  0
    4.9782  -12.9317    2.6570 H   0  0  0  0  0  0  0  0  0  0  0  0
    4.8394  -12.0357    1.1063 H   0  0  0  0  0  0  0  0  0  0  0  0
    4.8691  -13.8317    1.1063 H   0  0  0  0  0  0  0  0  0  0  0  0
    7.2241  -12.6596    2.4475 H   0  0  0  0  0  0  0  0  0  0  0  0
    7.1505  -13.8849    1.1523 H   0  0  0  0  0  0  0  0  0  0  0  0
    9.7736  -12.1797    1.1487 H   0  0  0  0  0  0  0  0  0  0  0  0
   11.6277  -11.3976    1.0595 H   0  0  0  0  0  0  0  0  0  0  0  0
   13.1315  -12.3594    1.0574 H   0  0  0  0  0  0  0  0  0  0  0  0
   13.5667   -9.9948    0.4049 H   0  0  0  0  0  0  0  0  0  0  0  0
   13.9214  -11.1165   -0.9526 H   0  0  0  0  0  0  0  0  0  0  0  0
   12.4018  -10.1586   -0.9526 H   0  0  0  0  0  0  0  0  0  0  0  0
    8.5933  -12.6629   -3.6780 H   0  0  0  0  0  0  0  0  0  0  0  0
    6.1800  -11.1930   -2.0660 H   0  0  0  0  0  0  0  0  0  0  0  0
    4.3410  -11.5960   -2.8210 H   0  0  0  0  0  0  0  0  0  0  0  0
    3.2892  -13.0044   -4.9578 H   0  0  0  0  0  0  0  0  0  0  0  0
    1.1312  -14.1373   -5.4692 H   0  0  0  0  0  0  0  0  0  0  0  0
   -0.2867  -15.0147   -3.6225 H   0  0  0  0  0  0  0  0  0  0  0  0
    1.3282  -16.6914   -0.7271 H   0  0  0  0  0  0  0  0  0  0  0  0
    0.3442  -18.5204    1.3105 H   0  0  0  0  0  0  0  0  0  0  0  0
   -1.7722  -18.3171    2.9249 H   0  0  0  0  0  0  0  0  0  0  0  0
   -3.3730  -14.1430    1.4640 H   0  0  0  0  0  0  0  0  0  0  0  0
   -2.7420  -12.4420   -0.8763 H   0  0  0  0  0  0  0  0  0  0  0  0
   -4.1952  -12.3419    0.1754 H   0  0  0  0  0  0  0  0  0  0  0  0
   -3.1345  -12.1592    2.8933 H   0  0  0  0  0  0  0  0  0  0  0  0
   -1.9929  -10.3843    4.1681 H   0  0  0  0  0  0  0  0  0  0  0  0
   -0.4586   -8.6827    0.6510 H   0  0  0  0  0  0  0  0  0  0  0  0
   -1.5477  -10.4036   -0.7391 H   0  0  0  0  0  0  0  0  0  0  0  0
    2.5965  -13.5843   -0.7364 H   0  0  0  0  0  0  0  0  0  0  0  0
  1  2  1  0
  2  3  1  0
  3  4  1  0
  4  5  2  0
  5  6  1  0
  6  7  1  0
  7  8  1  0
  8  9  1  0
  6 10  2  0
 10 11  1  0
 11 12  1  0
 11 13  1  0
 11 14  1  0
 10 15  1  0
 15 16  2  0
 16 17  1  0
 17 18  1  0
 18 19  2  0
 18 20  1  0
 20 21  1  0
 21 22  2  0
 22 23  1  0
 23 24  2  0
 24 25  1  0
 25 26  1  0
 26 27  2  0
 27 28  1  0
 28 29  1  0
 29 30  2  0
 30 31  1  0
 31 32  2  0
 32 33  1  0
 33 34  1  0
 34 35  1  0
 35 36  1  0
 36 37  2  0
 37 38  1  0
 38 39  2  0
 39 40  1  0
 40 41  2  0
 33 42  2  0
 25 43  2  0
 16  4  1  0
 43 21  1  0
 42 26  1  0
 32 28  1  0
 41 36  1  0
  1 44  1  0
  1 45  1  0
  1 46  1  0
  2 47  1  0
  2 48  1  0
  5 49  1  0
  8 50  1  0
  8 51  1  0
  9 52  1  0
  9 53  1  0
  9 54  1  0
 15 55  1  0
 17 56  1  0
 20 57  1  0
 22 58  1  0
 23 59  1  0
 24 60  1  0
 27 61  1  0
 29 62  1  0
 30 63  1  0
 34 64  1  0
 35 65  1  0
 35 66  1  0
 37 67  1  0
 38 68  1  0
 40 69  1  0
 41 70  1  0
 43 71  1  0
M  END
>  <meeko>  (3) 
{"is_sidechain": [false], "free_energy": -8.524, "intermolecular_energy": -13.162, "internal_energy": -1.883}

$$$$
LIB_BDNDOZRIKYDPKJ__M_PUB_ALL__e8__s20260927
     RDKit          3D

 71 75  0  0  0  0  0  0  0  0999 V2000
    7.1390  -15.7070   -4.3920 C   0  0  0  0  0  0  0  0  0  0  0  0
    8.3370  -15.5170   -5.3060 C   0  0  0  0  0  0  0  0  0  0  0  0
    8.7020  -14.1390   -5.2680 O   0  0  0  0  0  0  0  0  0  0  0  0
    9.6260  -13.7500   -4.3220 C   0  0  0  0  0  0  0  0  0  0  0  0
   10.8890  -14.3280   -4.1510 C   0  0  0  0  0  0  0  0  0  0  0  0
   11.7540  -13.8600   -3.1550 C   0  0  0  0  0  0  0  0  0  0  0  0
   13.0050  -14.3600   -2.9130 O   0  0  0  0  0  0  0  0  0  0  0  0
   13.1230  -15.7130   -2.4750 C   0  0  0  0  0  0  0  0  0  0  0  0
   13.8090  -16.5010   -3.5750 C   0  0  0  0  0  0  0  0  0  0  0  0
   11.3530  -12.8060   -2.3190 C   0  0  0  0  0  0  0  0  0  0  0  0
   12.2740  -12.2920   -1.2380 C   0  0  0  0  0  0  0  0  0  0  0  0
   12.5840  -13.2370   -0.3060 F   0  0  0  0  0  0  0  0  0  0  0  0
   13.4750  -11.8510   -1.7140 F   0  0  0  0  0  0  0  0  0  0  0  0
   11.7540  -11.2350   -0.5520 F   0  0  0  0  0  0  0  0  0  0  0  0
   10.0820  -12.2290   -2.4960 C   0  0  0  0  0  0  0  0  0  0  0  0
    9.2190  -12.6900   -3.4890 C   0  0  0  0  0  0  0  0  0  0  0  0
    7.9290  -12.1600   -3.7210 N   0  0  0  0  0  0  0  0  0  0  0  0
    6.7980  -12.2640   -2.9320 C   0  0  0  0  0  0  0  0  0  0  0  0
    6.7580  -12.8170   -1.8400 O   0  0  0  0  0  0  0  0  0  0  0  0
    5.7150  -11.6620   -3.5580 N   0  0  0  0  0  0  0  0  0  0  0  0
    4.4140  -11.4760   -3.0430 C   0  0  0  0  0  0  0  0  0  0  0  0
    3.5880  -10.5670   -3.7140 C   0  0  0  0  0  0  0  0  0  0  0  0
    2.2900  -10.3240   -3.2640 C   0  0  0  0  0  0  0  0  0  0  0  0
    1.8060  -10.9910   -2.1400 C   0  0  0  0  0  0  0  0  0  0  0  0
    2.6100  -11.9090   -1.4500 C   0  0  0  0  0  0  0  0  0  0  0  0
    2.0740  -12.5930   -0.2450 C   0  0  0  0  0  0  0  0  0  0  0  0
    2.6410  -13.7420    0.1850 C   0  0  0  0  0  0  0  0  0  0  0  0
    2.1100  -14.3550    1.2990 N   0  0  0  0  0  0  0  0  0  0  0  0
    2.4470  -15.4970    1.9740 C   0  0  0  0  0  0  0  0  0  0  0  0
    1.5380  -15.5830    3.0080 C   0  0  0  0  0  0  0  0  0  0  0  0
    0.6540  -14.5300    2.9850 N   0  0  0  0  0  0  0  0  0  0  0  0
    1.0330  -13.8170    1.9450 C   0  0  0  0  0  0  0  0  0  0  0  0
    0.4490  -12.5870    1.4410 C   0  0  0  0  0  0  0  0  0  0  0  0
   -0.6350  -12.0260    2.0700 N   0  0  0  0  0  0  0  0  0  0  0  0
   -1.2620  -10.8000    1.6590 C   0  0  0  0  0  0  0  0  0  0  0  0
   -2.5620  -11.1070    0.9620 C   0  0  0  0  0  0  0  0  0  0  0  0
   -3.0220  -10.2990   -0.0810 C   0  0  0  0  0  0  0  0  0  0  0  0
   -4.2110  -10.6370   -0.7080 C   0  0  0  0  0  0  0  0  0  0  0  0
   -4.9580  -11.7100   -0.3730 N   0  0  0  0  0  0  0  0  0  0  0  0
   -4.4890  -12.4870    0.6260 C   0  0  0  0  0  0  0  0  0  0  0  0
   -3.3120  -12.2330    1.3140 C   0  0  0  0  0  0  0  0  0  0  0  0
    0.9680  -12.0170    0.3760 N   0  0  0  0  0  0  0  0  0  0  0  0
    3.9230  -12.1280   -1.9070 C   0  0  0  0  0  0  0  0  0  0  0  0
    7.4662  -15.6551   -3.3431 H   0  0  0  0  0  0  0  0  0  0  0  0
    6.4009  -14.9147   -4.5855 H   0  0  0  0  0  0  0  0  0  0  0  0
    6.6823  -16.6888   -4.5855 H   0  0  0  0  0  0  0  0  0  0  0  0
    9.1763  -16.1359   -4.9559 H   0  0  0  0  0  0  0  0  0  0  0  0
    8.0872  -15.8194   -6.3337 H   0  0  0  0  0  0  0  0  0  0  0  0
   11.2040  -15.1556   -4.8036 H   0  0  0  0  0  0  0  0  0  0  0  0
   13.7229  -15.7567   -1.5540 H   0  0  0  0  0  0  0  0  0  0  0  0
   12.1296  -16.1353   -2.2635 H   0  0  0  0  0  0  0  0  0  0  0  0
   14.4685  -17.2586   -3.1266 H   0  0  0  0  0  0  0  0  0  0  0  0
   13.0505  -16.9976   -4.1980 H   0  0  0  0  0  0  0  0  0  0  0  0
   14.4053  -15.8181   -4.1980 H   0  0  0  0  0  0  0  0  0  0  0  0
    9.7651  -11.4032   -1.8421 H   0  0  0  0  0  0  0  0  0  0  0  0
    7.8720  -11.5990   -4.5600 H   0  0  0  0  0  0  0  0  0  0  0  0
    5.8570  -11.3790   -4.5140 H   0  0  0  0  0  0  0  0  0  0  0  0
    3.9651  -10.0402   -4.6029 H   0  0  0  0  0  0  0  0  0  0  0  0
    1.6487   -9.6061   -3.7962 H   0  0  0  0  0  0  0  0  0  0  0  0
    0.7816  -10.7949   -1.7904 H   0  0  0  0  0  0  0  0  0  0  0  0
    3.5040  -14.1766   -0.3407 H   0  0  0  0  0  0  0  0  0  0  0  0
    3.2652  -16.1948    1.7422 H   0  0  0  0  0  0  0  0  0  0  0  0
    1.5223  -16.3903    3.7550 H   0  0  0  0  0  0  0  0  0  0  0  0
   -0.9890  -12.5090    2.8900 H   0  0  0  0  0  0  0  0  0  0  0  0
   -1.4589  -10.1752    2.5427 H   0  0  0  0  0  0  0  0  0  0  0  0
   -0.5954  -10.2618    0.9691 H   0  0  0  0  0  0  0  0  0  0  0  0
   -2.4523   -9.4130   -0.3979 H   0  0  0  0  0  0  0  0  0  0  0  0
   -4.5664   -9.9933   -1.5262 H   0  0  0  0  0  0  0  0  0  0  0  0
   -5.0745  -13.3735    0.9111 H   0  0  0  0  0  0  0  0  0  0  0  0
   -2.9759  -12.9029    2.1191 H   0  0  0  0  0  0  0  0  0  0  0  0
    4.5754  -12.8250   -1.3606 H   0  0  0  0  0  0  0  0  0  0  0  0
  1  2  1  0
  2  3  1  0
  3  4  1  0
  4  5  2  0
  5  6  1  0
  6  7  1  0
  7  8  1  0
  8  9  1  0
  6 10  2  0
 10 11  1  0
 11 12  1  0
 11 13  1  0
 11 14  1  0
 10 15  1  0
 15 16  2  0
 16 17  1  0
 17 18  1  0
 18 19  2  0
 18 20  1  0
 20 21  1  0
 21 22  2  0
 22 23  1  0
 23 24  2  0
 24 25  1  0
 25 26  1  0
 26 27  2  0
 27 28  1  0
 28 29  1  0
 29 30  2  0
 30 31  1  0
 31 32  2  0
 32 33  1  0
 33 34  1  0
 34 35  1  0
 35 36  1  0
 36 37  2  0
 37 38  1  0
 38 39  2  0
 39 40  1  0
 40 41  2  0
 33 42  2  0
 25 43  2  0
 16  4  1  0
 43 21  1  0
 42 26  1  0
 32 28  1  0
 41 36  1  0
  1 44  1  0
  1 45  1  0
  1 46  1  0
  2 47  1  0
  2 48  1  0
  5 49  1  0
  8 50  1  0
  8 51  1  0
  9 52  1  0
  9 53  1  0
  9 54  1  0
 15 55  1  0
 17 56  1  0
 20 57  1  0
 22 58  1  0
 23 59  1  0
 24 60  1  0
 27 61  1  0
 29 62  1  0
 30 63  1  0
 34 64  1  0
 35 65  1  0
 35 66  1  0
 37 67  1  0
 38 68  1  0
 40 69  1  0
 41 70  1  0
 43 71  1  0
M  END
>  <meeko>  (4) 
{"is_sidechain": [false], "free_energy": -8.4, "intermolecular_energy": -13.556, "internal_energy": -1.293}

$$$$
LIB_BDNDOZRIKYDPKJ__M_PUB_ALL__e8__s20260927
     RDKit          3D

 71 75  0  0  0  0  0  0  0  0999 V2000
   -0.3640  -15.3820   -1.7200 C   0  0  0  0  0  0  0  0  0  0  0  0
   -0.8260  -15.7480   -0.3210 C   0  0  0  0  0  0  0  0  0  0  0  0
   -0.0950  -14.9460    0.6050 O   0  0  0  0  0  0  0  0  0  0  0  0
   -0.6040  -13.7020    0.9110 C   0  0  0  0  0  0  0  0  0  0  0  0
   -1.9510  -13.3390    0.8050 C   0  0  0  0  0  0  0  0  0  0  0  0
   -2.3650  -12.0440    1.1390 C   0  0  0  0  0  0  0  0  0  0  0  0
   -3.6570  -11.5970    1.0680 O   0  0  0  0  0  0  0  0  0  0  0  0
   -4.4260  -11.9260   -0.0880 C   0  0  0  0  0  0  0  0  0  0  0  0
   -4.4710  -10.7010   -0.9830 C   0  0  0  0  0  0  0  0  0  0  0  0
   -1.4240  -11.1010    1.5810 C   0  0  0  0  0  0  0  0  0  0  0  0
   -1.8540   -9.6990    1.9410 C   0  0  0  0  0  0  0  0  0  0  0  0
   -2.6580   -9.6510    3.0400 F   0  0  0  0  0  0  0  0  0  0  0  0
   -0.8080   -8.8690    2.2270 F   0  0  0  0  0  0  0  0  0  0  0  0
   -2.5380   -9.0760    0.9390 F   0  0  0  0  0  0  0  0  0  0  0  0
   -0.0700  -11.4720    1.6850 C   0  0  0  0  0  0  0  0  0  0  0  0
    0.3460  -12.7620    1.3570 C   0  0  0  0  0  0  0  0  0  0  0  0
    1.6860  -13.2010    1.4350 N   0  0  0  0  0  0  0  0  0  0  0  0
    2.7910  -12.7340    0.7460 C   0  0  0  0  0  0  0  0  0  0  0  0
    2.7770  -11.7920   -0.0360 O   0  0  0  0  0  0  0  0  0  0  0  0
    3.9120  -13.4890    1.0600 N   0  0  0  0  0  0  0  0  0  0  0  0
    5.2420  -13.2750    0.6410 C   0  0  0  0  0  0  0  0  0  0  0  0
    6.1020  -12.6440    1.5470 C   0  0  0  0  0  0  0  0  0  0  0  0
    7.4310  -12.3930    1.2050 C   0  0  0  0  0  0  0  0  0  0  0  0
    7.9130  -12.7740   -0.0460 C   0  0  0  0  0  0  0  0  0  0  0  0
    7.0750  -13.4110   -0.9730 C   0  0  0  0  0  0  0  0  0  0  0  0
    7.6100  -13.7910   -2.3050 C   0  0  0  0  0  0  0  0  0  0  0  0
    6.8130  -13.7320   -3.3940 C   0  0  0  0  0  0  0  0  0  0  0  0
    7.3390  -14.1030   -4.6120 N   0  0  0  0  0  0  0  0  0  0  0  0
    6.8090  -14.1510   -5.8720 C   0  0  0  0  0  0  0  0  0  0  0  0
    7.8330  -14.6090   -6.6740 C   0  0  0  0  0  0  0  0  0  0  0  0
    8.9730  -14.8470   -5.9430 N   0  0  0  0  0  0  0  0  0  0  0  0
    8.6340  -14.5290   -4.7100 C   0  0  0  0  0  0  0  0  0  0  0  0
    9.4520  -14.5880   -3.5130 C   0  0  0  0  0  0  0  0  0  0  0  0
   10.7550  -15.0140   -3.5840 N   0  0  0  0  0  0  0  0  0  0  0  0
   11.6450  -15.0810   -2.4580 C   0  0  0  0  0  0  0  0  0  0  0  0
   12.2090  -13.7120   -2.1790 C   0  0  0  0  0  0  0  0  0  0  0  0
   12.9930  -13.0550   -3.1310 C   0  0  0  0  0  0  0  0  0  0  0  0
   13.4670  -11.7850   -2.8380 C   0  0  0  0  0  0  0  0  0  0  0  0
   13.2140  -11.1370   -1.6820 N   0  0  0  0  0  0  0  0  0  0  0  0
   12.4430  -11.7820   -0.7820 C   0  0  0  0  0  0  0  0  0  0  0  0
   11.9210  -13.0510   -0.9810 C   0  0  0  0  0  0  0  0  0  0  0  0
    8.9310  -14.2310   -2.3600 N   0  0  0  0  0  0  0  0  0  0  0  0
    5.7330  -13.6400   -0.6180 C   0  0  0  0  0  0  0  0  0  0  0  0
    0.4967  -14.7001   -1.6552 H   0  0  0  0  0  0  0  0  0  0  0  0
   -0.0693  -16.2943   -2.2592 H   0  0  0  0  0  0  0  0  0  0  0  0
   -1.1847  -14.8863   -2.2592 H   0  0  0  0  0  0  0  0  0  0  0  0
   -1.9031  -15.5492   -0.2189 H   0  0  0  0  0  0  0  0  0  0  0  0
   -0.6497  -16.8161   -0.1260 H   0  0  0  0  0  0  0  0  0  0  0  0
   -2.6897  -14.0760    0.4569 H   0  0  0  0  0  0  0  0  0  0  0  0
   -3.9553  -12.7633   -0.6240 H   0  0  0  0  0  0  0  0  0  0  0  0
   -5.4438  -12.2262    0.2018 H   0  0  0  0  0  0  0  0  0  0  0  0
   -4.5043   -9.7939   -0.3616 H   0  0  0  0  0  0  0  0  0  0  0  0
   -3.5731  -10.6777   -1.6180 H   0  0  0  0  0  0  0  0  0  0  0  0
   -5.3682  -10.7436   -1.6180 H   0  0  0  0  0  0  0  0  0  0  0  0
    0.6698  -10.7345    2.0296 H   0  0  0  0  0  0  0  0  0  0  0  0
    1.8310  -13.9230    2.1280 H   0  0  0  0  0  0  0  0  0  0  0  0
    3.7480  -14.3230    1.6020 H   0  0  0  0  0  0  0  0  0  0  0  0
    5.7271  -12.3436    2.5365 H   0  0  0  0  0  0  0  0  0  0  0  0
    8.0987  -11.8942    1.9229 H   0  0  0  0  0  0  0  0  0  0  0  0
    8.9620  -12.5730   -0.3092 H   0  0  0  0  0  0  0  0  0  0  0  0
    5.7690  -13.3958   -3.3103 H   0  0  0  0  0  0  0  0  0  0  0  0
    5.7874  -13.8825   -6.1790 H   0  0  0  0  0  0  0  0  0  0  0  0
    7.7486  -14.7641   -7.7597 H   0  0  0  0  0  0  0  0  0  0  0  0
   11.1030  -15.2720   -4.5020 H   0  0  0  0  0  0  0  0  0  0  0  0
   11.0930  -15.4366   -1.5755 H   0  0  0  0  0  0  0  0  0  0  0  0
   12.4671  -15.7766   -2.6823 H   0  0  0  0  0  0  0  0  0  0  0  0
   13.2292  -13.5348   -4.0922 H   0  0  0  0  0  0  0  0  0  0  0  0
   14.0854  -11.2763   -3.5922 H   0  0  0  0  0  0  0  0  0  0  0  0
   12.2152  -11.2711    0.1652 H   0  0  0  0  0  0  0  0  0  0  0  0
   11.2939  -13.5274   -0.2130 H   0  0  0  0  0  0  0  0  0  0  0  0
    5.0566  -14.1150   -1.3438 H   0  0  0  0  0  0  0  0  0  0  0  0
  1  2  1  0
  2  3  1  0
  3  4  1  0
  4  5  2  0
  5  6  1  0
  6  7  1  0
  7  8  1  0
  8  9  1  0
  6 10  2  0
 10 11  1  0
 11 12  1  0
 11 13  1  0
 11 14  1  0
 10 15  1  0
 15 16  2  0
 16 17  1  0
 17 18  1  0
 18 19  2  0
 18 20  1  0
 20 21  1  0
 21 22  2  0
 22 23  1  0
 23 24  2  0
 24 25  1  0
 25 26  1  0
 26 27  2  0
 27 28  1  0
 28 29  1  0
 29 30  2  0
 30 31  1  0
 31 32  2  0
 32 33  1  0
 33 34  1  0
 34 35  1  0
 35 36  1  0
 36 37  2  0
 37 38  1  0
 38 39  2  0
 39 40  1  0
 40 41  2  0
 33 42  2  0
 25 43  2  0
 16  4  1  0
 43 21  1  0
 42 26  1  0
 32 28  1  0
 41 36  1  0
  1 44  1  0
  1 45  1  0
  1 46  1  0
  2 47  1  0
  2 48  1  0
  5 49  1  0
  8 50  1  0
  8 51  1  0
  9 52  1  0
  9 53  1  0
  9 54  1  0
 15 55  1  0
 17 56  1  0
 20 57  1  0
 22 58  1  0
 23 59  1  0
 24 60  1  0
 27 61  1  0
 29 62  1  0
 30 63  1  0
 34 64  1  0
 35 65  1  0
 35 66  1  0
 37 67  1  0
 38 68  1  0
 40 69  1  0
 41 70  1  0
 43 71  1  0
M  END
>  <meeko>  (5) 
{"is_sidechain": [false], "free_energy": -8.307, "intermolecular_energy": -13.123, "internal_energy": -1.578}

$$$$
LIB_BDNDOZRIKYDPKJ__M_PUB_ALL__e8__s20260927
     RDKit          3D

 71 75  0  0  0  0  0  0  0  0999 V2000
    5.8930  -17.0360   -5.7130 C   0  0  0  0  0  0  0  0  0  0  0  0
    6.8980  -16.6500   -6.7850 C   0  0  0  0  0  0  0  0  0  0  0  0
    7.2210  -15.2730   -6.6050 O   0  0  0  0  0  0  0  0  0  0  0  0
    7.5740  -14.5490   -7.7230 C   0  0  0  0  0  0  0  0  0  0  0  0
    8.7650  -14.7110   -8.4390 C   0  0  0  0  0  0  0  0  0  0  0  0
    9.0300  -13.9200   -9.5640 C   0  0  0  0  0  0  0  0  0  0  0  0
   10.1640  -14.0050  -10.3260 O   0  0  0  0  0  0  0  0  0  0  0  0
   11.4260  -13.7980   -9.6920 C   0  0  0  0  0  0  0  0  0  0  0  0
   12.3280  -13.0750  -10.6740 C   0  0  0  0  0  0  0  0  0  0  0  0
    8.0970  -12.9560   -9.9760 C   0  0  0  0  0  0  0  0  0  0  0  0
    8.3700  -12.0920  -11.1840 C   0  0  0  0  0  0  0  0  0  0  0  0
    7.3750  -11.1970  -11.4390 F   0  0  0  0  0  0  0  0  0  0  0  0
    9.5050  -11.3410  -11.0670 F   0  0  0  0  0  0  0  0  0  0  0  0
    8.5380  -12.8130  -12.3290 F   0  0  0  0  0  0  0  0  0  0  0  0
    6.9010  -12.7970   -9.2510 C   0  0  0  0  0  0  0  0  0  0  0  0
    6.6320  -13.5850   -8.1330 C   0  0  0  0  0  0  0  0  0  0  0  0
    5.4550  -13.4790   -7.3580 N   0  0  0  0  0  0  0  0  0  0  0  0
    5.2740  -12.8370   -6.1460 C   0  0  0  0  0  0  0  0  0  0  0  0
    6.1370  -12.1950   -5.5610 O   0  0  0  0  0  0  0  0  0  0  0  0
    3.9790  -13.0330   -5.6850 N   0  0  0  0  0  0  0  0  0  0  0  0
    3.3760  -12.4690   -4.5400 C   0  0  0  0  0  0  0  0  0  0  0  0
    3.1200  -11.0940   -4.5670 C   0  0  0  0  0  0  0  0  0  0  0  0
    2.5300  -10.4610   -3.4720 C   0  0  0  0  0  0  0  0  0  0  0  0
    2.1890  -11.2010   -2.3410 C   0  0  0  0  0  0  0  0  0  0  0  0
    2.4310  -12.5810   -2.2880 C   0  0  0  0  0  0  0  0  0  0  0  0
    2.0710  -13.3420   -1.0630 C   0  0  0  0  0  0  0  0  0  0  0  0
    2.9520  -14.2170   -0.5310 C   0  0  0  0  0  0  0  0  0  0  0  0
    2.5800  -14.9140    0.5980 N   0  0  0  0  0  0  0  0  0  0  0  0
    3.2270  -15.8460    1.3630 C   0  0  0  0  0  0  0  0  0  0  0  0
    2.3320  -16.1730    2.3600 C   0  0  0  0  0  0  0  0  0  0  0  0
    1.1560  -15.4720    2.2270 N   0  0  0  0  0  0  0  0  0  0  0  0
    1.3480  -14.7270    1.1580 C   0  0  0  0  0  0  0  0  0  0  0  0
    0.4290  -13.7850    0.5470 C   0  0  0  0  0  0  0  0  0  0  0  0
   -0.8160  -13.5800    1.0870 N   0  0  0  0  0  0  0  0  0  0  0  0
   -1.7800  -12.6500    0.5670 C   0  0  0  0  0  0  0  0  0  0  0  0
   -1.6080  -11.3140    1.2420 C   0  0  0  0  0  0  0  0  0  0  0  0
   -2.3100  -11.0090    2.4110 C   0  0  0  0  0  0  0  0  0  0  0  0
   -2.0980   -9.7760    3.0090 C   0  0  0  0  0  0  0  0  0  0  0  0
   -1.2450   -8.8460    2.5310 N   0  0  0  0  0  0  0  0  0  0  0  0
   -0.5650   -9.1660    1.4100 C   0  0  0  0  0  0  0  0  0  0  0  0
   -0.7070  -10.3710    0.7390 C   0  0  0  0  0  0  0  0  0  0  0  0
    0.8010  -13.1310   -0.5310 N   0  0  0  0  0  0  0  0  0  0  0  0
    3.0430  -13.1980   -3.3940 C   0  0  0  0  0  0  0  0  0  0  0  0
    6.3336  -16.8668   -4.7194 H   0  0  0  0  0  0  0  0  0  0  0  0
    4.9869  -16.4219   -5.8217 H   0  0  0  0  0  0  0  0  0  0  0  0
    5.6309  -18.0988   -5.8217 H   0  0  0  0  0  0  0  0  0  0  0  0
    7.8057  -17.2633   -6.6850 H   0  0  0  0  0  0  0  0  0  0  0  0
    6.4746  -16.8173   -7.7863 H   0  0  0  0  0  0  0  0  0  0  0  0
    9.4983  -15.4647   -8.1162 H   0  0  0  0  0  0  0  0  0  0  0  0
   11.2937  -13.1874   -8.7866 H   0  0  0  0  0  0  0  0  0  0  0  0
   11.8709  -14.7609   -9.4004 H   0  0  0  0  0  0  0  0  0  0  0  0
   13.0699  -12.4803  -10.1210 H   0  0  0  0  0  0  0  0  0  0  0  0
   12.8458  -13.8110  -11.3066 H   0  0  0  0  0  0  0  0  0  0  0  0
   11.7224  -12.4094  -11.3066 H   0  0  0  0  0  0  0  0  0  0  0  0
    6.1689  -12.0409   -9.5709 H   0  0  0  0  0  0  0  0  0  0  0  0
    4.6480  -13.8990   -7.7980 H   0  0  0  0  0  0  0  0  0  0  0  0
    3.4230  -13.7020   -6.1930 H   0  0  0  0  0  0  0  0  0  0  0  0
    3.3859  -10.5070   -5.4585 H   0  0  0  0  0  0  0  0  0  0  0  0
    2.3342   -9.3790   -3.5014 H   0  0  0  0  0  0  0  0  0  0  0  0
    1.7249  -10.6967   -1.4806 H   0  0  0  0  0  0  0  0  0  0  0  0
    3.9412  -14.3692   -0.9874 H   0  0  0  0  0  0  0  0  0  0  0  0
    4.2405  -16.2471    1.2149 H   0  0  0  0  0  0  0  0  0  0  0  0
    2.5329  -16.9014    3.1595 H   0  0  0  0  0  0  0  0  0  0  0  0
   -1.0440  -14.1100    1.9230 H   0  0  0  0  0  0  0  0  0  0  0  0
   -1.6301  -12.5348   -0.5166 H   0  0  0  0  0  0  0  0  0  0  0  0
   -2.7945  -13.0290    0.7599 H   0  0  0  0  0  0  0  0  0  0  0  0
   -3.0155  -11.7313    2.8474 H   0  0  0  0  0  0  0  0  0  0  0  0
   -2.6578   -9.5423    3.9266 H   0  0  0  0  0  0  0  0  0  0  0  0
    0.1430   -8.4279    1.0051 H   0  0  0  0  0  0  0  0  0  0  0  0
   -0.1233  -10.5804   -0.1695 H   0  0  0  0  0  0  0  0  0  0  0  0
    3.2640  -14.2749   -3.3568 H   0  0  0  0  0  0  0  0  0  0  0  0
  1  2  1  0
  2  3  1  0
  3  4  1  0
  4  5  2  0
  5  6  1  0
  6  7  1  0
  7  8  1  0
  8  9  1  0
  6 10  2  0
 10 11  1  0
 11 12  1  0
 11 13  1  0
 11 14  1  0
 10 15  1  0
 15 16  2  0
 16 17  1  0
 17 18  1  0
 18 19  2  0
 18 20  1  0
 20 21  1  0
 21 22  2  0
 22 23  1  0
 23 24  2  0
 24 25  1  0
 25 26  1  0
 26 27  2  0
 27 28  1  0
 28 29  1  0
 29 30  2  0
 30 31  1  0
 31 32  2  0
 32 33  1  0
 33 34  1  0
 34 35  1  0
 35 36  1  0
 36 37  2  0
 37 38  1  0
 38 39  2  0
 39 40  1  0
 40 41  2  0
 33 42  2  0
 25 43  2  0
 16  4  1  0
 43 21  1  0
 42 26  1  0
 32 28  1  0
 41 36  1  0
  1 44  1  0
  1 45  1  0
  1 46  1  0
  2 47  1  0
  2 48  1  0
  5 49  1  0
  8 50  1  0
  8 51  1  0
  9 52  1  0
  9 53  1  0
  9 54  1  0
 15 55  1  0
 17 56  1  0
 20 57  1  0
 22 58  1  0
 23 59  1  0
 24 60  1  0
 27 61  1  0
 29 62  1  0
 30 63  1  0
 34 64  1  0
 35 65  1  0
 35 66  1  0
 37 67  1  0
 38 68  1  0
 40 69  1  0
 41 70  1  0
 43 71  1  0
M  END
>  <meeko>  (6) 
{"is_sidechain": [false], "free_energy": -8.243, "intermolecular_energy": -13.199, "internal_energy": -1.399}

$$$$
LIB_BDNDOZRIKYDPKJ__M_PUB_ALL__e8__s20260927
     RDKit          3D

 71 75  0  0  0  0  0  0  0  0999 V2000
    0.3010   -9.9400   -0.2840 C   0  0  0  0  0  0  0  0  0  0  0  0
   -0.5370  -10.0290    0.9800 C   0  0  0  0  0  0  0  0  0  0  0  0
   -0.0700  -11.1450    1.7350 O   0  0  0  0  0  0  0  0  0  0  0  0
   -0.6950  -12.3570    1.5350 C   0  0  0  0  0  0  0  0  0  0  0  0
   -2.0730  -12.5300    1.3670 C   0  0  0  0  0  0  0  0  0  0  0  0
   -2.6090  -13.8080    1.1730 C   0  0  0  0  0  0  0  0  0  0  0  0
   -3.9400  -14.0760    1.0000 O   0  0  0  0  0  0  0  0  0  0  0  0
   -4.8480  -12.9790    0.9140 C   0  0  0  0  0  0  0  0  0  0  0  0
   -5.7380  -13.0130    2.1430 C   0  0  0  0  0  0  0  0  0  0  0  0
   -1.7600  -14.9260    1.1480 C   0  0  0  0  0  0  0  0  0  0  0  0
   -2.3240  -16.3120    0.9430 C   0  0  0  0  0  0  0  0  0  0  0  0
   -3.0250  -16.4390   -0.2190 F   0  0  0  0  0  0  0  0  0  0  0  0
   -1.3650  -17.2830    0.8890 F   0  0  0  0  0  0  0  0  0  0  0  0
   -3.1660  -16.6990    1.9420 F   0  0  0  0  0  0  0  0  0  0  0  0
   -0.3750  -14.7460    1.3170 C   0  0  0  0  0  0  0  0  0  0  0  0
    0.1630  -13.4740    1.5070 C   0  0  0  0  0  0  0  0  0  0  0  0
    1.5420  -13.2200    1.6870 N   0  0  0  0  0  0  0  0  0  0  0  0
    2.4930  -12.9000    0.7340 C   0  0  0  0  0  0  0  0  0  0  0  0
    2.2580  -12.7340   -0.4560 O   0  0  0  0  0  0  0  0  0  0  0  0
    3.7480  -12.8020    1.3180 N   0  0  0  0  0  0  0  0  0  0  0  0
    4.9560  -12.4060    0.7060 C   0  0  0  0  0  0  0  0  0  0  0  0
    5.6830  -11.3880    1.3330 C   0  0  0  0  0  0  0  0  0  0  0  0
    6.8860  -10.9370    0.7880 C   0  0  0  0  0  0  0  0  0  0  0  0
    7.3730  -11.5030   -0.3890 C   0  0  0  0  0  0  0  0  0  0  0  0
    6.6670  -12.5270   -1.0370 C   0  0  0  0  0  0  0  0  0  0  0  0
    7.2020  -13.1010   -2.2980 C   0  0  0  0  0  0  0  0  0  0  0  0
    6.4410  -13.0990   -3.4150 C   0  0  0  0  0  0  0  0  0  0  0  0
    6.9640  -13.6510   -4.5640 N   0  0  0  0  0  0  0  0  0  0  0  0
    6.4650  -13.7970   -5.8290 C   0  0  0  0  0  0  0  0  0  0  0  0
    7.4650  -14.4290   -6.5380 C   0  0  0  0  0  0  0  0  0  0  0  0
    8.5610  -14.6770   -5.7440 N   0  0  0  0  0  0  0  0  0  0  0  0
    8.2190  -14.1920   -4.5680 C   0  0  0  0  0  0  0  0  0  0  0  0
    8.9970  -14.1830   -3.3430 C   0  0  0  0  0  0  0  0  0  0  0  0
   10.2600  -14.7220   -3.3190 N   0  0  0  0  0  0  0  0  0  0  0  0
   11.1110  -14.7350   -2.1610 C   0  0  0  0  0  0  0  0  0  0  0  0
   11.9190  -13.4640   -2.1170 C   0  0  0  0  0  0  0  0  0  0  0  0
   11.9140  -12.6540   -0.9780 C   0  0  0  0  0  0  0  0  0  0  0  0
   12.6940  -11.5080   -0.9750 C   0  0  0  0  0  0  0  0  0  0  0  0
   13.4690  -11.1240   -2.0110 N   0  0  0  0  0  0  0  0  0  0  0  0
   13.4730  -11.9280   -3.0960 C   0  0  0  0  0  0  0  0  0  0  0  0
   12.7280  -13.0930   -3.1950 C   0  0  0  0  0  0  0  0  0  0  0  0
    8.4800  -13.6540   -2.2560 N   0  0  0  0  0  0  0  0  0  0  0  0
    5.4480  -12.9560   -0.4820 C   0  0  0  0  0  0  0  0  0  0  0  0
    1.3613   -9.8274   -0.0138 H   0  0  0  0  0  0  0  0  0  0  0  0
    0.1691  -10.8572   -0.8767 H   0  0  0  0  0  0  0  0  0  0  0  0
   -0.0206   -9.0710   -0.8767 H   0  0  0  0  0  0  0  0  0  0  0  0
   -0.4258   -9.1063    1.5684 H   0  0  0  0  0  0  0  0  0  0  0  0
   -1.6005  -10.1536    0.7279 H   0  0  0  0  0  0  0  0  0  0  0  0
   -2.7398  -11.6554    1.3875 H   0  0  0  0  0  0  0  0  0  0  0  0
   -4.2887  -12.0323    0.8836 H   0  0  0  0  0  0  0  0  0  0  0  0
   -5.4545  -13.0542   -0.0006 H   0  0  0  0  0  0  0  0  0  0  0  0
   -5.1139  -12.9892    3.0485 H   0  0  0  0  0  0  0  0  0  0  0  0
   -6.4069  -12.1398    2.1356 H   0  0  0  0  0  0  0  0  0  0  0  0
   -6.3383  -13.9347    2.1356 H   0  0  0  0  0  0  0  0  0  0  0  0
    0.2922  -15.6204    1.2990 H   0  0  0  0  0  0  0  0  0  0  0  0
    1.8290  -13.2390    2.6550 H   0  0  0  0  0  0  0  0  0  0  0  0
    3.8170  -13.1080    2.2760 H   0  0  0  0  0  0  0  0  0  0  0  0
    5.3033  -10.9396    2.2629 H   0  0  0  0  0  0  0  0  0  0  0  0
    7.4497  -10.1351    1.2871 H   0  0  0  0  0  0  0  0  0  0  0  0
    8.3213  -11.1426   -0.8142 H   0  0  0  0  0  0  0  0  0  0  0  0
    5.4292  -12.6674   -3.4070 H   0  0  0  0  0  0  0  0  0  0  0  0
    5.4796  -13.4792   -6.2005 H   0  0  0  0  0  0  0  0  0  0  0  0
    7.3953  -14.7000   -7.6018 H   0  0  0  0  0  0  0  0  0  0  0  0
   10.6070  -15.1120   -4.1890 H   0  0  0  0  0  0  0  0  0  0  0  0
   10.4940  -14.8088   -1.2534 H   0  0  0  0  0  0  0  0  0  0  0  0
   11.7896  -15.5991   -2.2144 H   0  0  0  0  0  0  0  0  0  0  0  0
   11.3039  -12.9203   -0.1023 H   0  0  0  0  0  0  0  0  0  0  0  0
   12.6805  -10.8747   -0.0757 H   0  0  0  0  0  0  0  0  0  0  0  0
   14.1038  -11.6420   -3.9506 H   0  0  0  0  0  0  0  0  0  0  0  0
   12.7725  -13.7125   -4.1029 H   0  0  0  0  0  0  0  0  0  0  0  0
    4.8698  -13.7401   -0.9927 H   0  0  0  0  0  0  0  0  0  0  0  0
  1  2  1  0
  2  3  1  0
  3  4  1  0
  4  5  2  0
  5  6  1  0
  6  7  1  0
  7  8  1  0
  8  9  1  0
  6 10  2  0
 10 11  1  0
 11 12  1  0
 11 13  1  0
 11 14  1  0
 10 15  1  0
 15 16  2  0
 16 17  1  0
 17 18  1  0
 18 19  2  0
 18 20  1  0
 20 21  1  0
 21 22  2  0
 22 23  1  0
 23 24  2  0
 24 25  1  0
 25 26  1  0
 26 27  2  0
 27 28  1  0
 28 29  1  0
 29 30  2  0
 30 31  1  0
 31 32  2  0
 32 33  1  0
 33 34  1  0
 34 35  1  0
 35 36  1  0
 36 37  2  0
 37 38  1  0
 38 39  2  0
 39 40  1  0
 40 41  2  0
 33 42  2  0
 25 43  2  0
 16  4  1  0
 43 21  1  0
 42 26  1  0
 32 28  1  0
 41 36  1  0
  1 44  1  0
  1 45  1  0
  1 46  1  0
  2 47  1  0
  2 48  1  0
  5 49  1  0
  8 50  1  0
  8 51  1  0
  9 52  1  0
  9 53  1  0
  9 54  1  0
 15 55  1  0
 17 56  1  0
 20 57  1  0
 22 58  1  0
 23 59  1  0
 24 60  1  0
 27 61  1  0
 29 62  1  0
 30 63  1  0
 34 64  1  0
 35 65  1  0
 35 66  1  0
 37 67  1  0
 38 68  1  0
 40 69  1  0
 41 70  1  0
 43 71  1  0
M  END
>  <meeko>  (7) 
{"is_sidechain": [false], "free_energy": -8.173, "intermolecular_energy": -13.007, "internal_energy": -1.482}

$$$$
LIB_BDNDOZRIKYDPKJ__M_PUB_ALL__e8__s20260927
     RDKit          3D

 71 75  0  0  0  0  0  0  0  0999 V2000
    8.7210  -12.5420   -3.2120 C   0  0  0  0  0  0  0  0  0  0  0  0
    7.5290  -11.7660   -2.6800 C   0  0  0  0  0  0  0  0  0  0  0  0
    6.5370  -11.7340   -3.7030 O   0  0  0  0  0  0  0  0  0  0  0  0
    5.3370  -12.3630   -3.4480 C   0  0  0  0  0  0  0  0  0  0  0  0
    4.6310  -12.2820   -2.2430 C   0  0  0  0  0  0  0  0  0  0  0  0
    3.4180  -12.9640   -2.0840 C   0  0  0  0  0  0  0  0  0  0  0  0
    2.6580  -12.9450   -0.9460 O   0  0  0  0  0  0  0  0  0  0  0  0
    2.6780  -11.7710   -0.1350 C   0  0  0  0  0  0  0  0  0  0  0  0
    1.2790  -11.1850   -0.1270 C   0  0  0  0  0  0  0  0  0  0  0  0
    2.9070  -13.7360   -3.1390 C   0  0  0  0  0  0  0  0  0  0  0  0
    1.6030  -14.4810   -2.9820 C   0  0  0  0  0  0  0  0  0  0  0  0
    0.6460  -13.7550   -2.3370 F   0  0  0  0  0  0  0  0  0  0  0  0
    1.0380  -14.8390   -4.1720 F   0  0  0  0  0  0  0  0  0  0  0  0
    1.7330  -15.6460   -2.2860 F   0  0  0  0  0  0  0  0  0  0  0  0
    3.6220  -13.8140   -4.3480 C   0  0  0  0  0  0  0  0  0  0  0  0
    4.8280  -13.1330   -4.5120 C   0  0  0  0  0  0  0  0  0  0  0  0
    5.5990  -13.1680   -5.6960 N   0  0  0  0  0  0  0  0  0  0  0  0
    6.5630  -14.0860   -6.0720 C   0  0  0  0  0  0  0  0  0  0  0  0
    6.8720  -15.0780   -5.4240 O   0  0  0  0  0  0  0  0  0  0  0  0
    7.1360  -13.7170   -7.2810 N   0  0  0  0  0  0  0  0  0  0  0  0
    8.0850  -14.4330   -8.0410 C   0  0  0  0  0  0  0  0  0  0  0  0
    7.6110  -15.1310   -9.1580 C   0  0  0  0  0  0  0  0  0  0  0  0
    8.4850  -15.8660   -9.9580 C   0  0  0  0  0  0  0  0  0  0  0  0
    9.8440  -15.9080   -9.6490 C   0  0  0  0  0  0  0  0  0  0  0  0
   10.3470  -15.2160   -8.5380 C   0  0  0  0  0  0  0  0  0  0  0  0
   11.7970  -15.2920   -8.2230 C   0  0  0  0  0  0  0  0  0  0  0  0
   12.7010  -15.3710   -9.2240 C   0  0  0  0  0  0  0  0  0  0  0  0
   14.0360  -15.4510   -8.8950 N   0  0  0  0  0  0  0  0  0  0  0  0
   15.1710  -15.5360   -9.6540 C   0  0  0  0  0  0  0  0  0  0  0  0
   16.2070  -15.5890   -8.7440 C   0  0  0  0  0  0  0  0  0  0  0  0
   15.7400  -15.5420   -7.4520 N   0  0  0  0  0  0  0  0  0  0  0  0
   14.4320  -15.4580   -7.5870 C   0  0  0  0  0  0  0  0  0  0  0  0
   13.4270  -15.3820   -6.5430 C   0  0  0  0  0  0  0  0  0  0  0  0
   13.7970  -15.3900   -5.2210 N   0  0  0  0  0  0  0  0  0  0  0  0
   12.8750  -15.2920   -4.1240 C   0  0  0  0  0  0  0  0  0  0  0  0
   13.0400  -13.9580   -3.4440 C   0  0  0  0  0  0  0  0  0  0  0  0
   14.0350  -13.0660   -3.8530 C   0  0  0  0  0  0  0  0  0  0  0  0
   14.1300  -11.8390   -3.2140 C   0  0  0  0  0  0  0  0  0  0  0  0
   13.3110  -11.4470   -2.2150 N   0  0  0  0  0  0  0  0  0  0  0  0
   12.3460  -12.3160   -1.8460 C   0  0  0  0  0  0  0  0  0  0  0  0
   12.1700  -13.5640   -2.4230 C   0  0  0  0  0  0  0  0  0  0  0  0
   12.1580  -15.3080   -6.8780 N   0  0  0  0  0  0  0  0  0  0  0  0
    9.4480  -14.4940   -7.7330 C   0  0  0  0  0  0  0  0  0  0  0  0
    9.3133  -12.9276   -2.3691 H   0  0  0  0  0  0  0  0  0  0  0  0
    8.3666  -13.3830   -3.8261 H   0  0  0  0  0  0  0  0  0  0  0  0
    9.3466  -11.8776   -3.8261 H   0  0  0  0  0  0  0  0  0  0  0  0
    7.1276  -12.2642   -1.7852 H   0  0  0  0  0  0  0  0  0  0  0  0
    7.8285  -10.7443   -2.4037 H   0  0  0  0  0  0  0  0  0  0  0  0
    5.0312  -11.6787   -1.4148 H   0  0  0  0  0  0  0  0  0  0  0  0
    2.9803  -12.0304    0.8904 H   0  0  0  0  0  0  0  0  0  0  0  0
    3.3966  -11.0410   -0.5359 H   0  0  0  0  0  0  0  0  0  0  0  0
    0.9459  -11.0455    0.9120 H   0  0  0  0  0  0  0  0  0  0  0  0
    1.2853  -10.2139   -0.6436 H   0  0  0  0  0  0  0  0  0  0  0  0
    0.5913  -11.8707   -0.6436 H   0  0  0  0  0  0  0  0  0  0  0  0
    3.2245  -14.4203   -5.1752 H   0  0  0  0  0  0  0  0  0  0  0  0
    5.3570  -12.4390   -6.3520 H   0  0  0  0  0  0  0  0  0  0  0  0
    6.8910  -12.8020   -7.6270 H   0  0  0  0  0  0  0  0  0  0  0  0
    6.5400  -15.0994   -9.4067 H   0  0  0  0  0  0  0  0  0  0  0  0
    8.1025  -16.4125  -10.8326 H   0  0  0  0  0  0  0  0  0  0  0  0
   10.5287  -16.4901  -10.2834 H   0  0  0  0  0  0  0  0  0  0  0  0
   12.3787  -15.3714  -10.2757 H   0  0  0  0  0  0  0  0  0  0  0  0
   15.2423  -15.5574  -10.7515 H   0  0  0  0  0  0  0  0  0  0  0  0
   17.2701  -15.6598   -9.0174 H   0  0  0  0  0  0  0  0  0  0  0  0
   14.7920  -15.4430   -5.0260 H   0  0  0  0  0  0  0  0  0  0  0  0
   11.8459  -15.3861   -4.5010 H   0  0  0  0  0  0  0  0  0  0  0  0
   13.0777  -16.0976   -3.4029 H   0  0  0  0  0  0  0  0  0  0  0  0
   14.7282  -13.3316   -4.6647 H   0  0  0  0  0  0  0  0  0  0  0  0
   14.9185  -11.1448   -3.5401 H   0  0  0  0  0  0  0  0  0  0  0  0
   11.6594  -12.0162   -1.0406 H   0  0  0  0  0  0  0  0  0  0  0  0
   11.3628  -14.2303   -2.0847 H   0  0  0  0  0  0  0  0  0  0  0  0
    9.8240  -13.9669   -6.8437 H   0  0  0  0  0  0  0  0  0  0  0  0
  1  2  1  0
  2  3  1  0
  3  4  1  0
  4  5  2  0
  5  6  1  0
  6  7  1  0
  7  8  1  0
  8  9  1  0
  6 10  2  0
 10 11  1  0
 11 12  1  0
 11 13  1  0
 11 14  1  0
 10 15  1  0
 15 16  2  0
 16 17  1  0
 17 18  1  0
 18 19  2  0
 18 20  1  0
 20 21  1  0
 21 22  2  0
 22 23  1  0
 23 24  2  0
 24 25  1  0
 25 26  1  0
 26 27  2  0
 27 28  1  0
 28 29  1  0
 29 30  2  0
 30 31  1  0
 31 32  2  0
 32 33  1  0
 33 34  1  0
 34 35  1  0
 35 36  1  0
 36 37  2  0
 37 38  1  0
 38 39  2  0
 39 40  1  0
 40 41  2  0
 33 42  2  0
 25 43  2  0
 16  4  1  0
 43 21  1  0
 42 26  1  0
 32 28  1  0
 41 36  1  0
  1 44  1  0
  1 45  1  0
  1 46  1  0
  2 47  1  0
  2 48  1  0
  5 49  1  0
  8 50  1  0
  8 51  1  0
  9 52  1  0
  9 53  1  0
  9 54  1  0
 15 55  1  0
 17 56  1  0
 20 57  1  0
 22 58  1  0
 23 59  1  0
 24 60  1  0
 27 61  1  0
 29 62  1  0
 30 63  1  0
 34 64  1  0
 35 65  1  0
 35 66  1  0
 37 67  1  0
 38 68  1  0
 40 69  1  0
 41 70  1  0
 43 71  1  0
M  END
>  <meeko>  (8) 
{"is_sidechain": [false], "free_energy": -8.159, "intermolecular_energy": -12.577, "internal_energy": -1.889}

$$$$
LIB_BDNDOZRIKYDPKJ__M_PUB_ALL__e8__s20260927
     RDKit          3D

 71 75  0  0  0  0  0  0  0  0999 V2000
    1.3720  -14.5400   -2.0780 C   0  0  0  0  0  0  0  0  0  0  0  0
    0.3100  -15.1960   -1.2140 C   0  0  0  0  0  0  0  0  0  0  0  0
    0.4420  -14.6800    0.1090 O   0  0  0  0  0  0  0  0  0  0  0  0
   -0.2830  -13.5530    0.4290 C   0  0  0  0  0  0  0  0  0  0  0  0
   -1.6470  -13.3760    0.1680 C   0  0  0  0  0  0  0  0  0  0  0  0
   -2.2900  -12.1880    0.5310 C   0  0  0  0  0  0  0  0  0  0  0  0
   -3.6160  -11.9240    0.3190 O   0  0  0  0  0  0  0  0  0  0  0  0
   -4.5710  -12.9320    0.6490 C   0  0  0  0  0  0  0  0  0  0  0  0
   -4.7370  -12.9400    2.1570 C   0  0  0  0  0  0  0  0  0  0  0  0
   -1.5650  -11.1630    1.1600 C   0  0  0  0  0  0  0  0  0  0  0  0
   -2.2440   -9.8740    1.5550 C   0  0  0  0  0  0  0  0  0  0  0  0
   -3.0190   -9.9960    2.6690 F   0  0  0  0  0  0  0  0  0  0  0  0
   -1.3680   -8.8650    1.8390 F   0  0  0  0  0  0  0  0  0  0  0  0
   -3.0540   -9.3760    0.5780 F   0  0  0  0  0  0  0  0  0  0  0  0
   -0.1940  -11.3470    1.4200 C   0  0  0  0  0  0  0  0  0  0  0  0
    0.4500  -12.5300    1.0620 C   0  0  0  0  0  0  0  0  0  0  0  0
    1.8220  -12.7810    1.2890 N   0  0  0  0  0  0  0  0  0  0  0  0
    2.9140  -12.3290    0.5700 C   0  0  0  0  0  0  0  0  0  0  0  0
    2.8510  -11.5690   -0.3880 O   0  0  0  0  0  0  0  0  0  0  0  0
    4.0870  -12.8660    1.0830 N   0  0  0  0  0  0  0  0  0  0  0  0
    5.4110  -12.5810    0.6890 C   0  0  0  0  0  0  0  0  0  0  0  0
    6.0450  -11.5050    1.3200 C   0  0  0  0  0  0  0  0  0  0  0  0
    7.3540  -11.1560    0.9840 C   0  0  0  0  0  0  0  0  0  0  0  0
    8.0410  -11.8830    0.0130 C   0  0  0  0  0  0  0  0  0  0  0  0
    7.4310  -12.9680   -0.6340 C   0  0  0  0  0  0  0  0  0  0  0  0
    8.1810  -13.7160   -1.6760 C   0  0  0  0  0  0  0  0  0  0  0  0
    9.5300  -13.7620   -1.6320 C   0  0  0  0  0  0  0  0  0  0  0  0
   10.1940  -14.4540   -2.6210 N   0  0  0  0  0  0  0  0  0  0  0  0
   11.5220  -14.6880   -2.8540 C   0  0  0  0  0  0  0  0  0  0  0  0
   11.5540  -15.4470   -4.0050 C   0  0  0  0  0  0  0  0  0  0  0  0
   10.2870  -15.6830   -4.4850 N   0  0  0  0  0  0  0  0  0  0  0  0
    9.5010  -15.0710   -3.6240 C   0  0  0  0  0  0  0  0  0  0  0  0
    8.0520  -14.9870   -3.6380 C   0  0  0  0  0  0  0  0  0  0  0  0
    7.3310  -15.5960   -4.6360 N   0  0  0  0  0  0  0  0  0  0  0  0
    5.8970  -15.5870   -4.7170 C   0  0  0  0  0  0  0  0  0  0  0  0
    5.4330  -14.2840   -5.3140 C   0  0  0  0  0  0  0  0  0  0  0  0
    5.9570  -13.8270   -6.5260 C   0  0  0  0  0  0  0  0  0  0  0  0
    5.4800  -12.6350   -7.0480 C   0  0  0  0  0  0  0  0  0  0  0  0
    4.5300  -11.8820   -6.4550 N   0  0  0  0  0  0  0  0  0  0  0  0
    4.0250  -12.3480   -5.2920 C   0  0  0  0  0  0  0  0  0  0  0  0
    4.4360  -13.5270   -4.6910 C   0  0  0  0  0  0  0  0  0  0  0  0
    7.4370  -14.3200   -2.6870 N   0  0  0  0  0  0  0  0  0  0  0  0
    6.1060  -13.2940   -0.2940 C   0  0  0  0  0  0  0  0  0  0  0  0
    2.1307  -14.0714   -1.4339 H   0  0  0  0  0  0  0  0  0  0  0  0
    1.8494  -15.3008   -2.7131 H   0  0  0  0  0  0  0  0  0  0  0  0
    0.9054  -13.7725   -2.7131 H   0  0  0  0  0  0  0  0  0  0  0  0
   -0.6898  -14.9621   -1.6085 H   0  0  0  0  0  0  0  0  0  0  0  0
    0.4368  -16.2887   -1.2139 H   0  0  0  0  0  0  0  0  0  0  0  0
   -2.2170  -14.1767   -0.3259 H   0  0  0  0  0  0  0  0  0  0  0  0
   -5.5342  -12.7063    0.1680 H   0  0  0  0  0  0  0  0  0  0  0  0
   -4.2281  -13.9156    0.2957 H   0  0  0  0  0  0  0  0  0  0  0  0
   -3.7475  -12.8923    2.6351 H   0  0  0  0  0  0  0  0  0  0  0  0
   -5.3352  -12.0696    2.4647 H   0  0  0  0  0  0  0  0  0  0  0  0
   -5.2487  -13.8638    2.4647 H   0  0  0  0  0  0  0  0  0  0  0  0
    0.3770  -10.5461    1.9125 H   0  0  0  0  0  0  0  0  0  0  0  0
    1.9960  -13.3280    2.1210 H   0  0  0  0  0  0  0  0  0  0  0  0
    3.9780  -13.5900    1.7760 H   0  0  0  0  0  0  0  0  0  0  0  0
    5.5071  -10.9292    2.0875 H   0  0  0  0  0  0  0  0  0  0  0  0
    7.8433  -10.3078    1.4851 H   0  0  0  0  0  0  0  0  0  0  0  0
    9.0721  -11.6030   -0.2486 H   0  0  0  0  0  0  0  0  0  0  0  0
   10.0850  -13.2593   -0.8262 H   0  0  0  0  0  0  0  0  0  0  0  0
   12.3778  -14.3453   -2.2538 H   0  0  0  0  0  0  0  0  0  0  0  0
   12.4754  -15.8165   -4.4787 H   0  0  0  0  0  0  0  0  0  0  0  0
    7.8610  -16.1000   -5.3400 H   0  0  0  0  0  0  0  0  0  0  0  0
    5.5609  -16.4206   -5.3512 H   0  0  0  0  0  0  0  0  0  0  0  0
    5.4733  -15.6981   -3.7080 H   0  0  0  0  0  0  0  0  0  0  0  0
    6.7319  -14.4013   -7.0548 H   0  0  0  0  0  0  0  0  0  0  0  0
    5.9003  -12.2821   -8.0013 H   0  0  0  0  0  0  0  0  0  0  0  0
    3.2423  -11.7575   -4.7933 H   0  0  0  0  0  0  0  0  0  0  0  0
    3.9873  -13.8604   -3.7436 H   0  0  0  0  0  0  0  0  0  0  0  0
    5.6060  -14.1262   -0.8112 H   0  0  0  0  0  0  0  0  0  0  0  0
  1  2  1  0
  2  3  1  0
  3  4  1  0
  4  5  2  0
  5  6  1  0
  6  7  1  0
  7  8  1  0
  8  9  1  0
  6 10  2  0
 10 11  1  0
 11 12  1  0
 11 13  1  0
 11 14  1  0
 10 15  1  0
 15 16  2  0
 16 17  1  0
 17 18  1  0
 18 19  2  0
 18 20  1  0
 20 21  1  0
 21 22  2  0
 22 23  1  0
 23 24  2  0
 24 25  1  0
 25 26  1  0
 26 27  2  0
 27 28  1  0
 28 29  1  0
 29 30  2  0
 30 31  1  0
 31 32  2  0
 32 33  1  0
 33 34  1  0
 34 35  1  0
 35 36  1  0
 36 37  2  0
 37 38  1  0
 38 39  2  0
 39 40  1  0
 40 41  2  0
 33 42  2  0
 25 43  2  0
 16  4  1  0
 43 21  1  0
 42 26  1  0
 32 28  1  0
 41 36  1  0
  1 44  1  0
  1 45  1  0
  1 46  1  0
  2 47  1  0
  2 48  1  0
  5 49  1  0
  8 50  1  0
  8 51  1  0
  9 52  1  0
  9 53  1  0
  9 54  1  0
 15 55  1  0
 17 56  1  0
 20 57  1  0
 22 58  1  0
 23 59  1  0
 24 60  1  0
 27 61  1  0
 29 62  1  0
 30 63  1  0
 34 64  1  0
 35 65  1  0
 35 66  1  0
 37 67  1  0
 38 68  1  0
 40 69  1  0
 41 70  1  0
 43 71  1  0
M  END
>  <meeko>  (9) 
{"is_sidechain": [false], "free_energy": -8.106, "intermolecular_energy": -12.301, "internal_energy": -2.081}

$$$$
