LIB_NFCXCBLWABDYMW__M_PUB_ALL__e8__s20260927
     RDKit          3D

 77 82  0  0  0  0  0  0  0  0999 V2000
    6.4720  -13.5580   -5.2040 C   0  0  0  0  0  0  0  0  0  0  0  0
    7.3850  -14.4970   -5.9530 C   0  0  0  0  0  0  0  0  0  0  0  0
    7.0730  -14.8040   -7.2280 C   0  0  0  0  0  0  0  0  0  0  0  0
    7.8460  -15.7290   -8.1070 C   0  0  0  0  0  0  0  0  0  0  0  0
    9.0010  -16.4400   -7.4040 C   0  0  0  0  0  0  0  0  0  0  0  0
    9.6730  -15.5220   -6.3530 C   0  0  1  0  0  0  0  0  0  0  0  0
    8.6240  -15.1160   -5.2320 C   0  0  2  0  0  0  0  0  0  0  0  0
    8.0480  -16.3150   -4.4330 C   0  0  0  0  0  0  0  0  0  0  0  0
    9.3190  -14.1050   -4.2570 C   0  0  1  0  0  0  0  0  0  0  0  0
    8.4680  -13.8860   -3.0940 O   0  0  0  0  0  0  0  0  0  0  0  0
    8.3110  -12.6100   -2.6640 C   0  0  0  0  0  0  0  0  0  0  0  0
    8.5040  -11.5980   -3.3170 O   0  0  0  0  0  0  0  0  0  0  0  0
    7.8570  -12.6000   -1.2590 C   0  0  0  0  0  0  0  0  0  0  0  0
    7.4770  -11.4400   -0.5790 C   0  0  0  0  0  0  0  0  0  0  0  0
    7.0510  -11.5330    0.7450 C   0  0  0  0  0  0  0  0  0  0  0  0
    7.0190  -12.7840    1.3420 C   0  0  0  0  0  0  0  0  0  0  0  0
    7.3760  -13.9250    0.7110 N   0  0  0  0  0  0  0  0  0  0  0  0
    7.7810  -13.8080   -0.5780 C   0  0  0  0  0  0  0  0  0  0  0  0
   10.6710  -14.6320   -3.7180 C   0  0  2  0  0  0  0  0  0  0  0  0
   11.2560  -13.5760   -2.8940 O   0  0  0  0  0  0  0  0  0  0  0  0
   11.4050  -13.8390   -1.5710 C   0  0  0  0  0  0  0  0  0  0  0  0
   11.2830  -14.9300   -1.0380 O   0  0  0  0  0  0  0  0  0  0  0  0
   11.7580  -12.5990   -0.8340 C   0  0  0  0  0  0  0  0  0  0  0  0
   12.8400  -11.8380   -1.2960 C   0  0  0  0  0  0  0  0  0  0  0  0
   13.2130  -10.6700   -0.6280 C   0  0  0  0  0  0  0  0  0  0  0  0
   12.5110  -10.2620    0.5050 C   0  0  0  0  0  0  0  0  0  0  0  0
   11.4400  -11.0200    0.9770 C   0  0  0  0  0  0  0  0  0  0  0  0
   11.0620  -12.1870    0.3110 C   0  0  0  0  0  0  0  0  0  0  0  0
   11.6950  -14.9630   -4.8420 C   0  0  2  0  0  0  0  0  0  0  0  0
   13.0300  -15.3720   -4.1800 C   0  0  0  0  0  0  0  0  0  0  0  0
   11.9590  -13.7290   -5.5340 O   0  0  0  0  0  0  0  0  0  0  0  0
   11.1130  -16.0150   -5.8770 C   0  0  1  0  0  0  0  0  0  0  0  0
   11.0460  -17.4210   -5.2210 C   0  0  0  0  0  0  0  0  0  0  0  0
   12.0390  -16.2020   -7.1580 C   0  0  1  0  0  0  0  0  0  0  0  0
   11.9070  -15.1760   -8.3330 C   0  0  0  0  0  0  0  0  0  0  0  0
   13.3130  -15.0420   -8.7030 C   0  0  0  0  0  0  0  0  0  0  0  0
   14.0660  -15.6850   -7.8430 C   0  0  0  0  0  0  0  0  0  0  0  0
   13.4550  -16.3410   -6.8090 O   0  0  0  0  0  0  0  0  0  0  0  0
   15.4620  -15.4430   -8.1830 C   0  0  0  0  0  0  0  0  0  0  0  0
   16.4470  -15.8620   -7.6070 O   0  0  0  0  0  0  0  0  0  0  0  0
   15.4590  -14.6380   -9.3010 O   0  0  0  0  0  0  0  0  0  0  0  0
   14.1020  -14.3220   -9.6880 C   0  0  0  0  0  0  0  0  0  0  0  0
    6.6090  -13.6989   -4.1217 H   0  0  0  0  0  0  0  0  0  0  0  0
    6.7146  -12.5191   -5.4721 H   0  0  0  0  0  0  0  0  0  0  0  0
    5.4267  -13.7713   -5.4721 H   0  0  0  0  0  0  0  0  0  0  0  0
    6.1749  -14.3340   -7.6553 H   0  0  0  0  0  0  0  0  0  0  0  0
    7.1562  -16.4925   -8.4960 H   0  0  0  0  0  0  0  0  0  0  0  0
    8.2907  -15.1125   -8.9021 H   0  0  0  0  0  0  0  0  0  0  0  0
    8.6148  -17.3383   -6.9001 H   0  0  0  0  0  0  0  0  0  0  0  0
    9.7532  -16.7098   -8.1599 H   0  0  0  0  0  0  0  0  0  0  0  0
    9.9544  -14.5725   -6.8318 H   0  0  0  0  0  0  0  0  0  0  0  0
    8.1431  -16.1170   -3.3552 H   0  0  0  0  0  0  0  0  0  0  0  0
    6.9867  -16.4501   -4.6887 H   0  0  0  0  0  0  0  0  0  0  0  0
    8.6058  -17.2279   -4.6887 H   0  0  0  0  0  0  0  0  0  0  0  0
    9.4886  -13.1843   -4.8344 H   0  0  0  0  0  0  0  0  0  0  0  0
    7.5136  -10.4632   -1.0834 H   0  0  0  0  0  0  0  0  0  0  0  0
    6.7474  -10.6350    1.3030 H   0  0  0  0  0  0  0  0  0  0  0  0
    6.6844  -12.8519    2.3877 H   0  0  0  0  0  0  0  0  0  0  0  0
    8.0662  -14.7241   -1.1160 H   0  0  0  0  0  0  0  0  0  0  0  0
   10.4690  -15.5608   -3.1644 H   0  0  0  0  0  0  0  0  0  0  0  0
   13.3972  -12.1617   -2.1875 H   0  0  0  0  0  0  0  0  0  0  0  0
   14.0601  -10.0723   -0.9956 H   0  0  0  0  0  0  0  0  0  0  0  0
   12.8027   -9.3394    1.0283 H   0  0  0  0  0  0  0  0  0  0  0  0
   10.8925  -10.6980    1.8751 H   0  0  0  0  0  0  0  0  0  0  0  0
   10.2171  -12.7840    0.6850 H   0  0  0  0  0  0  0  0  0  0  0  0
   12.9220  -15.3389   -3.0858 H   0  0  0  0  0  0  0  0  0  0  0  0
   13.2961  -16.3929   -4.4915 H   0  0  0  0  0  0  0  0  0  0  0  0
   13.8223  -14.6754   -4.4915 H   0  0  0  0  0  0  0  0  0  0  0  0
   12.9290  -13.6640   -5.6370 H   0  0  0  0  0  0  0  0  0  0  0  0
   11.0510  -17.3154   -4.1261 H   0  0  0  0  0  0  0  0  0  0  0  0
   10.1226  -17.9290   -5.5361 H   0  0  0  0  0  0  0  0  0  0  0  0
   11.9169  -18.0145   -5.5361 H   0  0  0  0  0  0  0  0  0  0  0  0
   11.6244  -17.1375   -7.5616 H   0  0  0  0  0  0  0  0  0  0  0  0
   11.3024  -15.5765   -9.1601 H   0  0  0  0  0  0  0  0  0  0  0  0
   11.4015  -14.2339   -8.0743 H   0  0  0  0  0  0  0  0  0  0  0  0
   13.9153  -13.2394   -9.6314 H   0  0  0  0  0  0  0  0  0  0  0  0
   13.8673  -14.6030  -10.7253 H   0  0  0  0  0  0  0  0  0  0  0  0
  1  2  1  0
  2  3  2  0
  3  4  1  0
  4  5  1  0
  5  6  1  0
  6  7  1  0
  7  8  1  1
  7  9  1  0
  9 10  1  0
 10 11  1  0
 11 12  2  0
 11 13  1  0
 13 14  2  0
 14 15  1  0
 15 16  2  0
 16 17  1  0
 17 18  2  0
  9 19  1  0
 19 20  1  0
 20 21  1  0
 21 22  2  0
 21 23  1  0
 23 24  2  0
 24 25  1  0
 25 26  2  0
 26 27  1  0
 27 28  2  0
 19 29  1  0
 29 30  1  0
 29 31  1  6
 29 32  1  0
 32 33  1  1
 32 34  1  0
 34 35  1  0
 35 36  1  0
 36 37  2  0
 37 38  1  0
 37 39  1  0
 39 40  2  0
 39 41  1  0
 41 42  1  0
  7  2  1  0
 18 13  1  0
 28 23  1  0
 38 34  1  0
 32  6  1  0
 42 36  1  0
  1 43  1  0
  1 44  1  0
  1 45  1  0
  3 46  1  0
  4 47  1  0
  4 48  1  0
  5 49  1  0
  5 50  1  0
  6 51  1  6
  8 52  1  0
  8 53  1  0
  8 54  1  0
  9 55  1  6
 14 56  1  0
 15 57  1  0
 16 58  1  0
 18 59  1  0
 19 60  1  1
 24 61  1  0
 25 62  1  0
 26 63  1  0
 27 64  1  0
 28 65  1  0
 30 66  1  0
 30 67  1  0
 30 68  1  0
 31 69  1  0
 33 70  1  0
 33 71  1  0
 33 72  1  0
 34 73  1  6
 35 74  1  0
 35 75  1  0
 42 76  1  0
 42 77  1  0
M  END
>  <meeko>  (1) 
{"is_sidechain": [false], "free_energy": -8.49, "intermolecular_energy": -12.213, "internal_energy": -1.82}

$$$$
LIB_NFCXCBLWABDYMW__M_PUB_ALL__e8__s20260927
     RDKit          3D

 77 82  0  0  0  0  0  0  0  0999 V2000
    5.1200  -16.2750    0.6950 C   0  0  0  0  0  0  0  0  0  0  0  0
    3.6920  -16.7020    0.9310 C   0  0  0  0  0  0  0  0  0  0  0  0
    3.4760  -17.8240    1.6460 C   0  0  0  0  0  0  0  0  0  0  0  0
    2.1360  -18.4040    1.9560 C   0  0  0  0  0  0  0  0  0  0  0  0
    0.9720  -17.6860    1.2780 C   0  0  0  0  0  0  0  0  0  0  0  0
    1.2250  -16.1600    1.1870 C   0  0  1  0  0  0  0  0  0  0  0  0
    2.5220  -15.8740    0.3140 C   0  0  2  0  0  0  0  0  0  0  0  0
    2.4260  -16.3700   -1.1520 C   0  0  0  0  0  0  0  0  0  0  0  0
    2.7960  -14.3310    0.3420 C   0  0  1  0  0  0  0  0  0  0  0  0
    3.8370  -14.0040   -0.6240 O   0  0  0  0  0  0  0  0  0  0  0  0
    4.7990  -13.1310   -0.2380 C   0  0  0  0  0  0  0  0  0  0  0  0
    4.9790  -12.7050    0.8910 O   0  0  0  0  0  0  0  0  0  0  0  0
    5.6350  -12.7510   -1.3950 C   0  0  0  0  0  0  0  0  0  0  0  0
    5.7690  -13.5380   -2.5420 C   0  0  0  0  0  0  0  0  0  0  0  0
    6.5730  -13.0890   -3.5880 C   0  0  0  0  0  0  0  0  0  0  0  0
    7.2120  -11.8660   -3.4510 C   0  0  0  0  0  0  0  0  0  0  0  0
    7.1000  -11.0800   -2.3570 N   0  0  0  0  0  0  0  0  0  0  0  0
    6.3080  -11.5370   -1.3570 C   0  0  0  0  0  0  0  0  0  0  0  0
    1.5540  -13.4980   -0.0530 C   0  0  2  0  0  0  0  0  0  0  0  0
    1.9070  -12.0870    0.0900 O   0  0  0  0  0  0  0  0  0  0  0  0
    1.4650  -11.2410   -0.8730 C   0  0  0  0  0  0  0  0  0  0  0  0
    0.7170  -10.2910   -0.7060 O   0  0  0  0  0  0  0  0  0  0  0  0
    2.0310  -11.6180   -2.1930 C   0  0  0  0  0  0  0  0  0  0  0  0
    2.8760  -10.7040   -2.8370 C   0  0  0  0  0  0  0  0  0  0  0  0
    3.4240  -11.0130   -4.0840 C   0  0  0  0  0  0  0  0  0  0  0  0
    3.1250  -12.2310   -4.6930 C   0  0  0  0  0  0  0  0  0  0  0  0
    2.2770  -13.1410   -4.0630 C   0  0  0  0  0  0  0  0  0  0  0  0
    1.7290  -12.8370   -2.8150 C   0  0  0  0  0  0  0  0  0  0  0  0
    0.3200  -13.7610    0.8600 C   0  0  2  0  0  0  0  0  0  0  0  0
   -0.8130  -12.7990    0.4380 C   0  0  0  0  0  0  0  0  0  0  0  0
    0.7010  -13.3620    2.1900 O   0  0  0  0  0  0  0  0  0  0  0  0
   -0.0790  -15.2960    0.8820 C   0  0  1  0  0  0  0  0  0  0  0  0
   -0.7230  -15.6940   -0.4750 C   0  0  0  0  0  0  0  0  0  0  0  0
   -1.1840  -15.6340    1.9760 C   0  0  1  0  0  0  0  0  0  0  0  0
   -2.2440  -16.7390    1.6530 C   0  0  0  0  0  0  0  0  0  0  0  0
   -2.3370  -17.3820    2.9600 C   0  0  0  0  0  0  0  0  0  0  0  0
   -1.4310  -16.8870    3.7680 C   0  0  0  0  0  0  0  0  0  0  0  0
   -0.6020  -15.9080    3.2930 O   0  0  0  0  0  0  0  0  0  0  0  0
   -1.4840  -17.6220    5.0250 C   0  0  0  0  0  0  0  0  0  0  0  0
   -0.7890  -17.4580    6.0090 O   0  0  0  0  0  0  0  0  0  0  0  0
   -2.4890  -18.5550    4.8910 O   0  0  0  0  0  0  0  0  0  0  0  0
   -3.0780  -18.4710    3.5730 C   0  0  0  0  0  0  0  0  0  0  0  0
    5.6224  -16.1248    1.6620 H   0  0  0  0  0  0  0  0  0  0  0  0
    5.6466  -17.0550    0.1255 H   0  0  0  0  0  0  0  0  0  0  0  0
    5.1320  -15.3340    0.1255 H   0  0  0  0  0  0  0  0  0  0  0  0
    4.3585  -18.3551    2.0322 H   0  0  0  0  0  0  0  0  0  0  0  0
    2.1307  -19.4544    1.6295 H   0  0  0  0  0  0  0  0  0  0  0  0
    1.9870  -18.2943    3.0403 H   0  0  0  0  0  0  0  0  0  0  0  0
    0.8456  -18.0890    0.2623 H   0  0  0  0  0  0  0  0  0  0  0  0
    0.0658  -17.8515    1.8791 H   0  0  0  0  0  0  0  0  0  0  0  0
    1.4679  -15.7743    2.1881 H   0  0  0  0  0  0  0  0  0  0  0  0
    2.2170  -17.4499   -1.1608 H   0  0  0  0  0  0  0  0  0  0  0  0
    1.6147  -15.8353   -1.6676 H   0  0  0  0  0  0  0  0  0  0  0  0
    3.3782  -16.1766   -1.6676 H   0  0  0  0  0  0  0  0  0  0  0  0
    3.0866  -14.0867    1.3744 H   0  0  0  0  0  0  0  0  0  0  0  0
    5.2451  -14.5022   -2.6184 H   0  0  0  0  0  0  0  0  0  0  0  0
    6.6977  -13.6904   -4.5005 H   0  0  0  0  0  0  0  0  0  0  0  0
    7.8457  -11.5158   -4.2791 H   0  0  0  0  0  0  0  0  0  0  0  0
    6.1912  -10.9088   -0.4616 H   0  0  0  0  0  0  0  0  0  0  0  0
    1.2784  -13.7800   -1.0799 H   0  0  0  0  0  0  0  0  0  0  0  0
    3.1082   -9.7408   -2.3592 H   0  0  0  0  0  0  0  0  0  0  0  0
    4.0909  -10.2960   -4.5852 H   0  0  0  0  0  0  0  0  0  0  0  0
    3.5595  -12.4749   -5.6737 H   0  0  0  0  0  0  0  0  0  0  0  0
    2.0396  -14.0987   -4.5492 H   0  0  0  0  0  0  0  0  0  0  0  0
    1.0594  -13.5554   -2.3195 H   0  0  0  0  0  0  0  0  0  0  0  0
   -1.2978  -12.3874    1.3355 H   0  0  0  0  0  0  0  0  0  0  0  0
   -0.3926  -11.9777   -0.1610 H   0  0  0  0  0  0  0  0  0  0  0  0
   -1.5552  -13.3470   -0.1610 H   0  0  0  0  0  0  0  0  0  0  0  0
    0.1590  -12.5810    2.4170 H   0  0  0  0  0  0  0  0  0  0  0  0
   -1.6454  -16.2640   -0.2899 H   0  0  0  0  0  0  0  0  0  0  0  0
   -0.9619  -14.7858   -1.0478 H   0  0  0  0  0  0  0  0  0  0  0  0
   -0.0176  -16.3139   -1.0478 H   0  0  0  0  0  0  0  0  0  0  0  0
   -1.7558  -14.6943    1.9696 H   0  0  0  0  0  0  0  0  0  0  0  0
   -3.2055  -16.3051    1.3410 H   0  0  0  0  0  0  0  0  0  0  0  0
   -1.9795  -17.4094    0.8219 H   0  0  0  0  0  0  0  0  0  0  0  0
   -2.9381  -19.4090    3.0156 H   0  0  0  0  0  0  0  0  0  0  0  0
   -4.1650  -18.3032    3.5909 H   0  0  0  0  0  0  0  0  0  0  0  0
  1  2  1  0
  2  3  2  0
  3  4  1  0
  4  5  1  0
  5  6  1  0
  6  7  1  0
  7  8  1  6
  7  9  1  0
  9 10  1  0
 10 11  1  0
 11 12  2  0
 11 13  1  0
 13 14  2  0
 14 15  1  0
 15 16  2  0
 16 17  1  0
 17 18  2  0
  9 19  1  0
 19 20  1  0
 20 21  1  0
 21 22  2  0
 21 23  1  0
 23 24  2  0
 24 25  1  0
 25 26  2  0
 26 27  1  0
 27 28  2  0
 19 29  1  0
 29 30  1  0
 29 31  1  1
 29 32  1  0
 32 33  1  6
 32 34  1  0
 34 35  1  0
 35 36  1  0
 36 37  2  0
 37 38  1  0
 37 39  1  0
 39 40  2  0
 39 41  1  0
 41 42  1  0
  7  2  1  0
 18 13  1  0
 28 23  1  0
 38 34  1  0
 32  6  1  0
 42 36  1  0
  1 43  1  0
  1 44  1  0
  1 45  1  0
  3 46  1  0
  4 47  1  0
  4 48  1  0
  5 49  1  0
  5 50  1  0
  6 51  1  1
  8 52  1  0
  8 53  1  0
  8 54  1  0
  9 55  1  1
 14 56  1  0
 15 57  1  0
 16 58  1  0
 18 59  1  0
 19 60  1  6
 24 61  1  0
 25 62  1  0
 26 63  1  0
 27 64  1  0
 28 65  1  0
 30 66  1  0
 30 67  1  0
 30 68  1  0
 31 69  1  0
 33 70  1  0
 33 71  1  0
 33 72  1  0
 34 73  1  1
 35 74  1  0
 35 75  1  0
 42 76  1  0
 42 77  1  0
M  END
>  <meeko>  (2) 
{"is_sidechain": [false], "free_energy": -8.367, "intermolecular_energy": -11.735, "internal_energy": -2.121}

$$$$
LIB_NFCXCBLWABDYMW__M_PUB_ALL__e8__s20260927
     RDKit          3D

 77 82  0  0  0  0  0  0  0  0999 V2000
    1.0840  -10.4700   -1.6130 C   0  0  0  0  0  0  0  0  0  0  0  0
    2.2200  -11.4600   -1.6950 C   0  0  0  0  0  0  0  0  0  0  0  0
    3.3400  -11.0870   -2.3470 C   0  0  0  0  0  0  0  0  0  0  0  0
    4.5470  -11.9420   -2.5450 C   0  0  0  0  0  0  0  0  0  0  0  0
    4.3860  -13.3770   -2.0490 C   0  0  0  0  0  0  0  0  0  0  0  0
    3.5150  -13.4370   -0.7690 C   0  0  1  0  0  0  0  0  0  0  0  0
    2.0580  -12.8820   -1.0740 C   0  0  2  0  0  0  0  0  0  0  0  0
    1.2800  -13.6880   -2.1470 C   0  0  0  0  0  0  0  0  0  0  0  0
    1.2540  -12.8630    0.2700 C   0  0  1  0  0  0  0  0  0  0  0  0
   -0.1490  -12.5770   -0.0050 O   0  0  0  0  0  0  0  0  0  0  0  0
   -0.7560  -11.6300    0.7520 C   0  0  0  0  0  0  0  0  0  0  0  0
   -0.2320  -10.9530    1.6210 O   0  0  0  0  0  0  0  0  0  0  0  0
   -2.1790  -11.5150    0.3760 C   0  0  0  0  0  0  0  0  0  0  0  0
   -2.7230  -10.3940   -0.2560 C   0  0  0  0  0  0  0  0  0  0  0  0
   -4.0780  -10.3830   -0.5820 C   0  0  0  0  0  0  0  0  0  0  0  0
   -4.8410  -11.4960   -0.2660 C   0  0  0  0  0  0  0  0  0  0  0  0
   -4.3460  -12.5970    0.3410 N   0  0  0  0  0  0  0  0  0  0  0  0
   -3.0240  -12.5850    0.6420 C   0  0  0  0  0  0  0  0  0  0  0  0
    1.2870  -14.2250    1.0040 C   0  0  2  0  0  0  0  0  0  0  0  0
    0.5780  -14.0590    2.2720 O   0  0  0  0  0  0  0  0  0  0  0  0
   -0.4830  -14.8730    2.4960 C   0  0  0  0  0  0  0  0  0  0  0  0
   -1.2290  -15.3300    1.6450 O   0  0  0  0  0  0  0  0  0  0  0  0
   -0.6200  -15.1590    3.9470 C   0  0  0  0  0  0  0  0  0  0  0  0
   -1.5950  -16.0790    4.3520 C   0  0  0  0  0  0  0  0  0  0  0  0
   -1.7650  -16.3710    5.7070 C   0  0  0  0  0  0  0  0  0  0  0  0
   -0.9670  -15.7410    6.6600 C   0  0  0  0  0  0  0  0  0  0  0  0
   -0.0010  -14.8170    6.2650 C   0  0  0  0  0  0  0  0  0  0  0  0
    0.1750  -14.5230    4.9110 C   0  0  0  0  0  0  0  0  0  0  0  0
    2.7270  -14.7100    1.3400 C   0  0  2  0  0  0  0  0  0  0  0  0
    2.6250  -16.0140    2.1600 C   0  0  0  0  0  0  0  0  0  0  0  0
    3.2940  -13.7280    2.2270 O   0  0  0  0  0  0  0  0  0  0  0  0
    3.6330  -14.8060    0.0400 C   0  0  1  0  0  0  0  0  0  0  0  0
    3.1900  -16.0190   -0.8230 C   0  0  0  0  0  0  0  0  0  0  0  0
    5.1660  -15.0740    0.3720 C   0  0  1  0  0  0  0  0  0  0  0  0
    6.0360  -15.8390   -0.6810 C   0  0  0  0  0  0  0  0  0  0  0  0
    7.2840  -15.0900   -0.5610 C   0  0  0  0  0  0  0  0  0  0  0  0
    7.1100  -14.0530    0.2230 C   0  0  0  0  0  0  0  0  0  0  0  0
    5.8730  -13.8550    0.7740 O   0  0  0  0  0  0  0  0  0  0  0  0
    8.3410  -13.2740    0.2360 C   0  0  0  0  0  0  0  0  0  0  0  0
    8.5570  -12.2400    0.8380 O   0  0  0  0  0  0  0  0  0  0  0  0
    9.2340  -13.9390   -0.5750 O   0  0  0  0  0  0  0  0  0  0  0  0
    8.6150  -15.1180   -1.1420 C   0  0  0  0  0  0  0  0  0  0  0  0
    0.8505  -10.2665   -0.5575 H   0  0  0  0  0  0  0  0  0  0  0  0
    1.3768   -9.5338   -2.1109 H   0  0  0  0  0  0  0  0  0  0  0  0
    0.1967  -10.8880   -2.1109 H   0  0  0  0  0  0  0  0  0  0  0  0
    3.3660  -10.0706   -2.7667 H   0  0  0  0  0  0  0  0  0  0  0  0
    4.7755  -11.9724   -3.6206 H   0  0  0  0  0  0  0  0  0  0  0  0
    5.3548  -11.4908   -1.9501 H   0  0  0  0  0  0  0  0  0  0  0  0
    3.9066  -13.9766   -2.8368 H   0  0  0  0  0  0  0  0  0  0  0  0
    5.3831  -13.7748   -1.8089 H   0  0  0  0  0  0  0  0  0  0  0  0
    3.9276  -12.7461   -0.0190 H   0  0  0  0  0  0  0  0  0  0  0  0
    0.5979  -14.3947   -1.6517 H   0  0  0  0  0  0  0  0  0  0  0  0
    0.6990  -12.9967   -2.7751 H   0  0  0  0  0  0  0  0  0  0  0  0
    1.9914  -14.2442   -2.7751 H   0  0  0  0  0  0  0  0  0  0  0  0
    1.7255  -12.0954    0.9012 H   0  0  0  0  0  0  0  0  0  0  0  0
   -2.0877   -9.5281   -0.4941 H   0  0  0  0  0  0  0  0  0  0  0  0
   -4.5309   -9.5120   -1.0781 H   0  0  0  0  0  0  0  0  0  0  0  0
   -5.9102  -11.4823   -0.5240 H   0  0  0  0  0  0  0  0  0  0  0  0
   -2.5953  -13.4752    1.1254 H   0  0  0  0  0  0  0  0  0  0  0  0
    0.8286  -14.9709    0.3381 H   0  0  0  0  0  0  0  0  0  0  0  0
   -2.2287  -16.5730    3.6008 H   0  0  0  0  0  0  0  0  0  0  0  0
   -2.5283  -17.0978    6.0218 H   0  0  0  0  0  0  0  0  0  0  0  0
   -1.0998  -15.9735    7.7269 H   0  0  0  0  0  0  0  0  0  0  0  0
    0.6237  -14.3186    7.0209 H   0  0  0  0  0  0  0  0  0  0  0  0
    0.9370  -13.7928    4.6010 H   0  0  0  0  0  0  0  0  0  0  0  0
    2.6437  -15.7745    3.2335 H   0  0  0  0  0  0  0  0  0  0  0  0
    1.6839  -16.5283    1.9154 H   0  0  0  0  0  0  0  0  0  0  0  0
    3.4747  -16.6684    1.9154 H   0  0  0  0  0  0  0  0  0  0  0  0
    3.9790  -13.2500    1.7190 H   0  0  0  0  0  0  0  0  0  0  0  0
    2.8877  -16.8466   -0.1645 H   0  0  0  0  0  0  0  0  0  0  0  0
    2.3406  -15.7266   -1.4579 H   0  0  0  0  0  0  0  0  0  0  0  0
    4.0279  -16.3428   -1.4579 H   0  0  0  0  0  0  0  0  0  0  0  0
    5.0628  -15.7799    1.2093 H   0  0  0  0  0  0  0  0  0  0  0  0
    6.1665  -16.8977   -0.4126 H   0  0  0  0  0  0  0  0  0  0  0  0
    5.6120  -15.8786   -1.6952 H   0  0  0  0  0  0  0  0  0  0  0  0
    8.5704  -15.0539   -2.2392 H   0  0  0  0  0  0  0  0  0  0  0  0
    9.1655  -16.0460   -0.9280 H   0  0  0  0  0  0  0  0  0  0  0  0
  1  2  1  0
  2  3  2  0
  3  4  1  0
  4  5  1  0
  5  6  1  0
  6  7  1  0
  7  8  1  6
  7  9  1  0
  9 10  1  0
 10 11  1  0
 11 12  2  0
 11 13  1  0
 13 14  2  0
 14 15  1  0
 15 16  2  0
 16 17  1  0
 17 18  2  0
  9 19  1  0
 19 20  1  0
 20 21  1  0
 21 22  2  0
 21 23  1  0
 23 24  2  0
 24 25  1  0
 25 26  2  0
 26 27  1  0
 27 28  2  0
 19 29  1  0
 29 30  1  0
 29 31  1  1
 29 32  1  0
 32 33  1  6
 32 34  1  0
 34 35  1  0
 35 36  1  0
 36 37  2  0
 37 38  1  0
 37 39  1  0
 39 40  2  0
 39 41  1  0
 41 42  1  0
  7  2  1  0
 18 13  1  0
 28 23  1  0
 38 34  1  0
 32  6  1  0
 42 36  1  0
  1 43  1  0
  1 44  1  0
  1 45  1  0
  3 46  1  0
  4 47  1  0
  4 48  1  0
  5 49  1  0
  5 50  1  0
  6 51  1  1
  8 52  1  0
  8 53  1  0
  8 54  1  0
  9 55  1  1
 14 56  1  0
 15 57  1  0
 16 58  1  0
 18 59  1  0
 19 60  1  6
 24 61  1  0
 25 62  1  0
 26 63  1  0
 27 64  1  0
 28 65  1  0
 30 66  1  0
 30 67  1  0
 30 68  1  0
 31 69  1  0
 33 70  1  0
 33 71  1  0
 33 72  1  0
 34 73  1  1
 35 74  1  0
 35 75  1  0
 42 76  1  0
 42 77  1  0
M  END
>  <meeko>  (3) 
{"is_sidechain": [false], "free_energy": -8.186, "intermolecular_energy": -11.618, "internal_energy": -1.978}

$$$$
LIB_NFCXCBLWABDYMW__M_PUB_ALL__e8__s20260927
     RDKit          3D

 77 82  0  0  0  0  0  0  0  0999 V2000
    5.3320  -13.2320   -5.8060 C   0  0  0  0  0  0  0  0  0  0  0  0
    4.2960  -13.0960   -4.7180 C   0  0  0  0  0  0  0  0  0  0  0  0
    2.9970  -13.0640   -5.0790 C   0  0  0  0  0  0  0  0  0  0  0  0
    1.8450  -12.9110   -4.1430 C   0  0  0  0  0  0  0  0  0  0  0  0
    2.2470  -12.6580   -2.6930 C   0  0  0  0  0  0  0  0  0  0  0  0
    3.5350  -13.4340   -2.3200 C   0  0  1  0  0  0  0  0  0  0  0  0
    4.7440  -12.9530   -3.2300 C   0  0  2  0  0  0  0  0  0  0  0  0
    5.1020  -11.4510   -3.0750 C   0  0  0  0  0  0  0  0  0  0  0  0
    5.9910  -13.8390   -2.8910 C   0  0  1  0  0  0  0  0  0  0  0  0
    7.1740  -13.2840   -3.5370 O   0  0  0  0  0  0  0  0  0  0  0  0
    8.0230  -14.1510   -4.1420 C   0  0  0  0  0  0  0  0  0  0  0  0
    7.7210  -15.2040   -4.6790 O   0  0  0  0  0  0  0  0  0  0  0  0
    9.4070  -13.6410   -4.0690 C   0  0  0  0  0  0  0  0  0  0  0  0
   10.5120  -14.3330   -4.5720 C   0  0  0  0  0  0  0  0  0  0  0  0
   11.7800  -13.7640   -4.4670 C   0  0  0  0  0  0  0  0  0  0  0  0
   11.8970  -12.5210   -3.8620 C   0  0  0  0  0  0  0  0  0  0  0  0
   10.8490  -11.8250   -3.3690 N   0  0  0  0  0  0  0  0  0  0  0  0
    9.6260  -12.3980   -3.4900 C   0  0  0  0  0  0  0  0  0  0  0  0
    6.2990  -13.8790   -1.3750 C   0  0  2  0  0  0  0  0  0  0  0  0
    7.4210  -14.7950   -1.1780 O   0  0  0  0  0  0  0  0  0  0  0  0
    8.5380  -14.2850   -0.6030 C   0  0  0  0  0  0  0  0  0  0  0  0
    8.5870  -13.3110    0.1310 O   0  0  0  0  0  0  0  0  0  0  0  0
    9.7280  -15.0910   -0.9780 C   0  0  0  0  0  0  0  0  0  0  0  0
    9.5200  -16.3760   -1.4970 C   0  0  0  0  0  0  0  0  0  0  0  0
   10.6100  -17.1730   -1.8550 C   0  0  0  0  0  0  0  0  0  0  0  0
   11.9080  -16.6920   -1.6900 C   0  0  0  0  0  0  0  0  0  0  0  0
   12.1220  -15.4180   -1.1650 C   0  0  0  0  0  0  0  0  0  0  0  0
   11.0350  -14.6170   -0.8080 C   0  0  0  0  0  0  0  0  0  0  0  0
    5.1120  -14.4110   -0.5190 C   0  0  2  0  0  0  0  0  0  0  0  0
    5.5750  -14.5070    0.9520 C   0  0  0  0  0  0  0  0  0  0  0  0
    4.8720  -15.7650   -0.9460 O   0  0  0  0  0  0  0  0  0  0  0  0
    3.7920  -13.5620   -0.7520 C   0  0  1  0  0  0  0  0  0  0  0  0
    3.9370  -12.1680   -0.0810 C   0  0  0  0  0  0  0  0  0  0  0  0
    2.5080  -14.2130   -0.0730 C   0  0  1  0  0  0  0  0  0  0  0  0
    1.5690  -13.2990    0.7810 C   0  0  0  0  0  0  0  0  0  0  0  0
    0.2710  -13.8400    0.3870 C   0  0  0  0  0  0  0  0  0  0  0  0
    0.4260  -14.7140   -0.5790 C   0  0  0  0  0  0  0  0  0  0  0  0
    1.6930  -14.9670   -1.0300 O   0  0  0  0  0  0  0  0  0  0  0  0
   -0.8930  -15.1540   -1.0170 C   0  0  0  0  0  0  0  0  0  0  0  0
   -1.1520  -15.9490   -1.8990 O   0  0  0  0  0  0  0  0  0  0  0  0
   -1.8080  -14.4920   -0.2290 O   0  0  0  0  0  0  0  0  0  0  0  0
   -1.1300  -13.6090    0.6950 C   0  0  0  0  0  0  0  0  0  0  0  0
    6.3255  -13.3624   -5.3521 H   0  0  0  0  0  0  0  0  0  0  0  0
    5.0961  -14.1069   -6.4296 H   0  0  0  0  0  0  0  0  0  0  0  0
    5.3299  -12.3259   -6.4296 H   0  0  0  0  0  0  0  0  0  0  0  0
    2.7680  -13.1584   -6.1508 H   0  0  0  0  0  0  0  0  0  0  0  0
    1.2333  -12.0629   -4.4845 H   0  0  0  0  0  0  0  0  0  0  0  0
    1.2970  -13.8647   -4.1574 H   0  0  0  0  0  0  0  0  0  0  0  0
    2.4247  -11.5814   -2.5535 H   0  0  0  0  0  0  0  0  0  0  0  0
    1.4319  -13.0066   -2.0418 H   0  0  0  0  0  0  0  0  0  0  0  0
    3.4009  -14.4969   -2.5694 H   0  0  0  0  0  0  0  0  0  0  0  0
    5.1626  -11.1969   -2.0065 H   0  0  0  0  0  0  0  0  0  0  0  0
    6.0723  -11.2540   -3.5543 H   0  0  0  0  0  0  0  0  0  0  0  0
    4.3249  -10.8375   -3.5543 H   0  0  0  0  0  0  0  0  0  0  0  0
    5.7543  -14.8536   -3.2439 H   0  0  0  0  0  0  0  0  0  0  0  0
   10.3823  -15.3171   -5.0461 H   0  0  0  0  0  0  0  0  0  0  0  0
   12.6664  -14.2877   -4.8544 H   0  0  0  0  0  0  0  0  0  0  0  0
   12.8999  -12.0768   -3.7789 H   0  0  0  0  0  0  0  0  0  0  0  0
    8.7556  -11.8453   -3.1067 H   0  0  0  0  0  0  0  0  0  0  0  0
    6.5108  -12.8489   -1.0524 H   0  0  0  0  0  0  0  0  0  0  0  0
    8.4961  -16.7579   -1.6228 H   0  0  0  0  0  0  0  0  0  0  0  0
   10.4442  -18.1794   -2.2668 H   0  0  0  0  0  0  0  0  0  0  0  0
   12.7657  -17.3191   -1.9747 H   0  0  0  0  0  0  0  0  0  0  0  0
   13.1477  -15.0436   -1.0319 H   0  0  0  0  0  0  0  0  0  0  0  0
   11.2055  -13.6127   -0.3928 H   0  0  0  0  0  0  0  0  0  0  0  0
    4.7181  -14.3293    1.6184 H   0  0  0  0  0  0  0  0  0  0  0  0
    5.9859  -15.5094    1.1424 H   0  0  0  0  0  0  0  0  0  0  0  0
    6.3506  -13.7506    1.1424 H   0  0  0  0  0  0  0  0  0  0  0  0
    5.7250  -16.2390   -0.8750 H   0  0  0  0  0  0  0  0  0  0  0  0
    3.9249  -12.2845    1.0127 H   0  0  0  0  0  0  0  0  0  0  0  0
    4.8877  -11.7093   -0.3904 H   0  0  0  0  0  0  0  0  0  0  0  0
    3.1011  -11.5234   -0.3904 H   0  0  0  0  0  0  0  0  0  0  0  0
    2.9902  -14.8735    0.6627 H   0  0  0  0  0  0  0  0  0  0  0  0
    1.7518  -13.4183    1.8591 H   0  0  0  0  0  0  0  0  0  0  0  0
    1.6932  -12.2189    0.6141 H   0  0  0  0  0  0  0  0  0  0  0  0
   -1.4076  -12.5596    0.5170 H   0  0  0  0  0  0  0  0  0  0  0  0
   -1.3831  -13.8011    1.7481 H   0  0  0  0  0  0  0  0  0  0  0  0
  1  2  1  0
  2  3  2  0
  3  4  1  0
  4  5  1  0
  5  6  1  0
  6  7  1  0
  7  8  1  1
  7  9  1  0
  9 10  1  0
 10 11  1  0
 11 12  2  0
 11 13  1  0
 13 14  2  0
 14 15  1  0
 15 16  2  0
 16 17  1  0
 17 18  2  0
  9 19  1  0
 19 20  1  0
 20 21  1  0
 21 22  2  0
 21 23  1  0
 23 24  2  0
 24 25  1  0
 25 26  2  0
 26 27  1  0
 27 28  2  0
 19 29  1  0
 29 30  1  0
 29 31  1  6
 29 32  1  0
 32 33  1  1
 32 34  1  0
 34 35  1  0
 35 36  1  0
 36 37  2  0
 37 38  1  0
 37 39  1  0
 39 40  2  0
 39 41  1  0
 41 42  1  0
  7  2  1  0
 18 13  1  0
 28 23  1  0
 38 34  1  0
 32  6  1  0
 42 36  1  0
  1 43  1  0
  1 44  1  0
  1 45  1  0
  3 46  1  0
  4 47  1  0
  4 48  1  0
  5 49  1  0
  5 50  1  0
  6 51  1  6
  8 52  1  0
  8 53  1  0
  8 54  1  0
  9 55  1  6
 14 56  1  0
 15 57  1  0
 16 58  1  0
 18 59  1  0
 19 60  1  1
 24 61  1  0
 25 62  1  0
 26 63  1  0
 27 64  1  0
 28 65  1  0
 30 66  1  0
 30 67  1  0
 30 68  1  0
 31 69  1  0
 33 70  1  0
 33 71  1  0
 33 72  1  0
 34 73  1  1
 35 74  1  0
 35 75  1  0
 42 76  1  0
 42 77  1  0
M  END
>  <meeko>  (4) 
{"is_sidechain": [false], "free_energy": -8.125, "intermolecular_energy": -10.984, "internal_energy": -2.523}

$$$$
LIB_NFCXCBLWABDYMW__M_PUB_ALL__e8__s20260927
     RDKit          3D

 77 82  0  0  0  0  0  0  0  0999 V2000
    1.8030  -18.1840   -0.0480 C   0  0  0  0  0  0  0  0  0  0  0  0
    2.8090  -17.1250   -0.4220 C   0  0  0  0  0  0  0  0  0  0  0  0
    3.7610  -17.4430   -1.3230 C   0  0  0  0  0  0  0  0  0  0  0  0
    4.8460  -16.5320   -1.7910 C   0  0  0  0  0  0  0  0  0  0  0  0
    4.8920  -15.1900   -1.0630 C   0  0  0  0  0  0  0  0  0  0  0  0
    3.4690  -14.6900   -0.7090 C   0  0  1  0  0  0  0  0  0  0  0  0
    2.7540  -15.7230    0.2620 C   0  0  2  0  0  0  0  0  0  0  0  0
    3.4750  -15.9270    1.6210 C   0  0  0  0  0  0  0  0  0  0  0  0
    1.2860  -15.2290    0.5030 C   0  0  1  0  0  0  0  0  0  0  0  0
    0.6730  -16.0220    1.5620 O   0  0  0  0  0  0  0  0  0  0  0  0
   -0.5670  -16.5190    1.3340 C   0  0  0  0  0  0  0  0  0  0  0  0
   -1.2110  -16.4150    0.3030 O   0  0  0  0  0  0  0  0  0  0  0  0
   -1.0580  -17.2300    2.5320 C   0  0  0  0  0  0  0  0  0  0  0  0
   -0.4340  -17.1600    3.7800 C   0  0  0  0  0  0  0  0  0  0  0  0
   -0.9790  -17.8590    4.8560 C   0  0  0  0  0  0  0  0  0  0  0  0
   -2.1310  -18.6010    4.6450 C   0  0  0  0  0  0  0  0  0  0  0  0
   -2.7600  -18.6860    3.4530 N   0  0  0  0  0  0  0  0  0  0  0  0
   -2.2130  -17.9920    2.4240 C   0  0  0  0  0  0  0  0  0  0  0  0
    1.2230  -13.7550    0.9670 C   0  0  2  0  0  0  0  0  0  0  0  0
   -0.1880  -13.3890    1.0770 O   0  0  0  0  0  0  0  0  0  0  0  0
   -0.6130  -12.9280    2.2800 C   0  0  0  0  0  0  0  0  0  0  0  0
   -0.4750  -13.4910    3.3530 O   0  0  0  0  0  0  0  0  0  0  0  0
   -1.2760  -11.6080    2.1240 C   0  0  0  0  0  0  0  0  0  0  0  0
   -1.8830  -11.3130    0.8960 C   0  0  0  0  0  0  0  0  0  0  0  0
   -2.5100  -10.0800    0.7020 C   0  0  0  0  0  0  0  0  0  0  0  0
   -2.5260   -9.1380    1.7290 C   0  0  0  0  0  0  0  0  0  0  0  0
   -1.9150   -9.4210    2.9500 C   0  0  0  0  0  0  0  0  0  0  0  0
   -1.2890  -10.6530    3.1500 C   0  0  0  0  0  0  0  0  0  0  0  0
    1.8810  -12.7640   -0.0370 C   0  0  2  0  0  0  0  0  0  0  0  0
    1.6590  -11.3250    0.4810 C   0  0  0  0  0  0  0  0  0  0  0  0
    1.1310  -12.8630   -1.2620 O   0  0  0  0  0  0  0  0  0  0  0  0
    3.3930  -13.1430   -0.3320 C   0  0  1  0  0  0  0  0  0  0  0  0
    4.2710  -12.8140    0.9070 C   0  0  0  0  0  0  0  0  0  0  0  0
    4.0240  -12.2940   -1.5210 C   0  0  1  0  0  0  0  0  0  0  0  0
    5.5790  -12.1230   -1.5750 C   0  0  0  0  0  0  0  0  0  0  0  0
    5.7900  -12.2350   -3.0150 C   0  0  0  0  0  0  0  0  0  0  0  0
    4.6680  -12.5670   -3.6080 C   0  0  0  0  0  0  0  0  0  0  0  0
    3.5510  -12.7360   -2.8360 O   0  0  0  0  0  0  0  0  0  0  0  0
    4.9400  -12.7710   -5.0250 C   0  0  0  0  0  0  0  0  0  0  0  0
    4.1500  -13.0980   -5.8900 O   0  0  0  0  0  0  0  0  0  0  0  0
    6.2810  -12.5180   -5.2080 O   0  0  0  0  0  0  0  0  0  0  0  0
    6.9040  -12.1810   -3.9460 C   0  0  0  0  0  0  0  0  0  0  0  0
    1.7355  -18.2550    1.0476 H   0  0  0  0  0  0  0  0  0  0  0  0
    0.8186  -17.9162   -0.4594 H   0  0  0  0  0  0  0  0  0  0  0  0
    2.1209  -19.1534   -0.4594 H   0  0  0  0  0  0  0  0  0  0  0  0
    3.7354  -18.4574   -1.7477 H   0  0  0  0  0  0  0  0  0  0  0  0
    5.8108  -17.0389   -1.6419 H   0  0  0  0  0  0  0  0  0  0  0  0
    4.6403  -16.3117   -2.8489 H   0  0  0  0  0  0  0  0  0  0  0  0
    5.4718  -15.3057   -0.1354 H   0  0  0  0  0  0  0  0  0  0  0  0
    5.3631  -14.4513   -1.7281 H   0  0  0  0  0  0  0  0  0  0  0  0
    2.8512  -14.6858   -1.6191 H   0  0  0  0  0  0  0  0  0  0  0  0
    2.7715  -15.7279    2.4428 H   0  0  0  0  0  0  0  0  0  0  0  0
    3.8378  -16.9630    1.6917 H   0  0  0  0  0  0  0  0  0  0  0  0
    4.3268  -15.2346    1.6917 H   0  0  0  0  0  0  0  0  0  0  0  0
    0.7621  -15.3327   -0.4587 H   0  0  0  0  0  0  0  0  0  0  0  0
    0.4781  -16.5595    3.9123 H   0  0  0  0  0  0  0  0  0  0  0  0
   -0.5064  -17.8227    5.8486 H   0  0  0  0  0  0  0  0  0  0  0  0
   -2.5568  -19.1517    5.4968 H   0  0  0  0  0  0  0  0  0  0  0  0
   -2.7145  -18.0357    1.4459 H   0  0  0  0  0  0  0  0  0  0  0  0
    1.7715  -13.6828    1.9178 H   0  0  0  0  0  0  0  0  0  0  0  0
   -1.8657  -12.0539    0.0831 H   0  0  0  0  0  0  0  0  0  0  0  0
   -2.9909   -9.8526   -0.2608 H   0  0  0  0  0  0  0  0  0  0  0  0
   -3.0222   -8.1683    1.5759 H   0  0  0  0  0  0  0  0  0  0  0  0
   -1.9262   -8.6730    3.7564 H   0  0  0  0  0  0  0  0  0  0  0  0
   -0.8058  -10.8742    4.1131 H   0  0  0  0  0  0  0  0  0  0  0  0
    1.6593  -11.3271    1.5810 H   0  0  0  0  0  0  0  0  0  0  0  0
    2.4675  -10.6749    0.1154 H   0  0  0  0  0  0  0  0  0  0  0  0
    0.6922  -10.9487    0.1154 H   0  0  0  0  0  0  0  0  0  0  0  0
    1.5980  -13.5100   -1.8270 H   0  0  0  0  0  0  0  0  0  0  0  0
    3.7038  -13.0265    1.8252 H   0  0  0  0  0  0  0  0  0  0  0  0
    5.1805  -13.4323    0.8865 H   0  0  0  0  0  0  0  0  0  0  0  0
    4.5502  -11.7502    0.8865 H   0  0  0  0  0  0  0  0  0  0  0  0
    3.6458  -11.2929   -1.2665 H   0  0  0  0  0  0  0  0  0  0  0  0
    5.8966  -11.1428   -1.1898 H   0  0  0  0  0  0  0  0  0  0  0  0
    6.1479  -12.8391   -0.9638 H   0  0  0  0  0  0  0  0  0  0  0  0
    7.6801  -12.9133   -3.6788 H   0  0  0  0  0  0  0  0  0  0  0  0
    7.4157  -11.2073   -3.9582 H   0  0  0  0  0  0  0  0  0  0  0  0
  1  2  1  0
  2  3  2  0
  3  4  1  0
  4  5  1  0
  5  6  1  0
  6  7  1  0
  7  8  1  1
  7  9  1  0
  9 10  1  0
 10 11  1  0
 11 12  2  0
 11 13  1  0
 13 14  2  0
 14 15  1  0
 15 16  2  0
 16 17  1  0
 17 18  2  0
  9 19  1  0
 19 20  1  0
 20 21  1  0
 21 22  2  0
 21 23  1  0
 23 24  2  0
 24 25  1  0
 25 26  2  0
 26 27  1  0
 27 28  2  0
 19 29  1  0
 29 30  1  0
 29 31  1  6
 29 32  1  0
 32 33  1  1
 32 34  1  0
 34 35  1  0
 35 36  1  0
 36 37  2  0
 37 38  1  0
 37 39  1  0
 39 40  2  0
 39 41  1  0
 41 42  1  0
  7  2  1  0
 18 13  1  0
 28 23  1  0
 38 34  1  0
 32  6  1  0
 42 36  1  0
  1 43  1  0
  1 44  1  0
  1 45  1  0
  3 46  1  0
  4 47  1  0
  4 48  1  0
  5 49  1  0
  5 50  1  0
  6 51  1  6
  8 52  1  0
  8 53  1  0
  8 54  1  0
  9 55  1  6
 14 56  1  0
 15 57  1  0
 16 58  1  0
 18 59  1  0
 19 60  1  1
 24 61  1  0
 25 62  1  0
 26 63  1  0
 27 64  1  0
 28 65  1  0
 30 66  1  0
 30 67  1  0
 30 68  1  0
 31 69  1  0
 33 70  1  0
 33 71  1  0
 33 72  1  0
 34 73  1  1
 35 74  1  0
 35 75  1  0
 42 76  1  0
 42 77  1  0
M  END
>  <meeko>  (5) 
{"is_sidechain": [false], "free_energy": -8.089, "intermolecular_energy": -11.569, "internal_energy": -1.887}

$$$$
LIB_NFCXCBLWABDYMW__M_PUB_ALL__e8__s20260927
     RDKit          3D

 77 82  0  0  0  0  0  0  0  0999 V2000
   -0.3930  -11.6700    0.7440 C   0  0  0  0  0  0  0  0  0  0  0  0
    0.7880  -12.4330    0.1980 C   0  0  0  0  0  0  0  0  0  0  0  0
    1.8170  -11.7280   -0.3130 C   0  0  0  0  0  0  0  0  0  0  0  0
    3.0510  -12.3150   -0.9140 C   0  0  0  0  0  0  0  0  0  0  0  0
    3.0250  -13.8370   -1.0330 C   0  0  0  0  0  0  0  0  0  0  0  0
    2.2830  -14.4850    0.1630 C   0  0  1  0  0  0  0  0  0  0  0  0
    0.7730  -13.9940    0.1980 C   0  0  2  0  0  0  0  0  0  0  0  0
   -0.0510  -14.3730   -1.0600 C   0  0  0  0  0  0  0  0  0  0  0  0
    0.0980  -14.5880    1.4820 C   0  0  1  0  0  0  0  0  0  0  0  0
   -1.3390  -14.3490    1.4310 O   0  0  0  0  0  0  0  0  0  0  0  0
   -1.9200  -13.7910    2.5220 C   0  0  0  0  0  0  0  0  0  0  0  0
   -1.3780  -13.5540    3.5890 O   0  0  0  0  0  0  0  0  0  0  0  0
   -3.3390  -13.4930    2.2450 C   0  0  0  0  0  0  0  0  0  0  0  0
   -4.3540  -13.6180    3.1970 C   0  0  0  0  0  0  0  0  0  0  0  0
   -5.6650  -13.3020    2.8430 C   0  0  0  0  0  0  0  0  0  0  0  0
   -5.9130  -12.8690    1.5500 C   0  0  0  0  0  0  0  0  0  0  0  0
   -4.9540  -12.7330    0.6080 N   0  0  0  0  0  0  0  0  0  0  0  0
   -3.6870  -13.0410    0.9790 C   0  0  0  0  0  0  0  0  0  0  0  0
    0.2830  -16.1200    1.5960 C   0  0  2  0  0  0  0  0  0  0  0  0
   -0.3120  -16.5410    2.8630 O   0  0  0  0  0  0  0  0  0  0  0  0
   -1.3890  -17.3630    2.7940 C   0  0  0  0  0  0  0  0  0  0  0  0
   -1.5910  -18.2110    1.9400 O   0  0  0  0  0  0  0  0  0  0  0  0
   -2.3120  -17.1030    3.9280 C   0  0  0  0  0  0  0  0  0  0  0  0
   -3.6880  -17.2520    3.7100 C   0  0  0  0  0  0  0  0  0  0  0  0
   -4.5930  -17.0090    4.7460 C   0  0  0  0  0  0  0  0  0  0  0  0
   -4.1280  -16.6110    5.9980 C   0  0  0  0  0  0  0  0  0  0  0  0
   -2.7610  -16.4500    6.2190 C   0  0  0  0  0  0  0  0  0  0  0  0
   -1.8520  -16.6950    5.1880 C   0  0  0  0  0  0  0  0  0  0  0  0
    1.7760  -16.5610    1.6180 C   0  0  2  0  0  0  0  0  0  0  0  0
    1.8310  -18.0880    1.8440 C   0  0  0  0  0  0  0  0  0  0  0  0
    2.3620  -15.9660    2.7910 O   0  0  0  0  0  0  0  0  0  0  0  0
    2.5600  -16.0450    0.3390 C   0  0  1  0  0  0  0  0  0  0  0  0
    2.1140  -16.8480   -0.9130 C   0  0  0  0  0  0  0  0  0  0  0  0
    4.1310  -16.2780    0.4390 C   0  0  1  0  0  0  0  0  0  0  0  0
    4.9300  -16.5620   -0.8760 C   0  0  0  0  0  0  0  0  0  0  0  0
    6.1410  -15.7950   -0.6000 C   0  0  0  0  0  0  0  0  0  0  0  0
    5.9920  -15.1050    0.5050 C   0  0  0  0  0  0  0  0  0  0  0  0
    4.8080  -15.2120    1.1830 O   0  0  0  0  0  0  0  0  0  0  0  0
    7.1750  -14.2740    0.6920 C   0  0  0  0  0  0  0  0  0  0  0  0
    7.3940  -13.4920    1.5970 O   0  0  0  0  0  0  0  0  0  0  0  0
    8.0160  -14.5460   -0.3640 O   0  0  0  0  0  0  0  0  0  0  0  0
    7.4070  -15.5100   -1.2540 C   0  0  0  0  0  0  0  0  0  0  0  0
   -0.3648  -11.6882    1.8435 H   0  0  0  0  0  0  0  0  0  0  0  0
   -0.3504  -10.6283    0.3934 H   0  0  0  0  0  0  0  0  0  0  0  0
   -1.3252  -12.1371    0.3934 H   0  0  0  0  0  0  0  0  0  0  0  0
    1.7413  -10.6310   -0.2849 H   0  0  0  0  0  0  0  0  0  0  0  0
    3.1791  -11.8922   -1.9214 H   0  0  0  0  0  0  0  0  0  0  0  0
    3.8821  -12.0645   -0.2384 H   0  0  0  0  0  0  0  0  0  0  0  0
    2.5116  -14.1144   -1.9655 H   0  0  0  0  0  0  0  0  0  0  0  0
    4.0627  -14.2018   -1.0354 H   0  0  0  0  0  0  0  0  0  0  0  0
    2.7209  -14.1160    1.1022 H   0  0  0  0  0  0  0  0  0  0  0  0
   -1.0101  -14.8141   -0.7509 H   0  0  0  0  0  0  0  0  0  0  0  0
   -0.2390  -13.4709   -1.6607 H   0  0  0  0  0  0  0  0  0  0  0  0
    0.5116  -15.1028   -1.6607 H   0  0  0  0  0  0  0  0  0  0  0  0
    0.5775  -14.0958    2.3410 H   0  0  0  0  0  0  0  0  0  0  0  0
   -4.1211  -13.9622    4.2155 H   0  0  0  0  0  0  0  0  0  0  0  0
   -6.4830  -13.3942    3.5726 H   0  0  0  0  0  0  0  0  0  0  0  0
   -6.9491  -12.6221    1.2752 H   0  0  0  0  0  0  0  0  0  0  0  0
   -2.8870  -12.9260    0.2328 H   0  0  0  0  0  0  0  0  0  0  0  0
   -0.1893  -16.5775    0.7142 H   0  0  0  0  0  0  0  0  0  0  0  0
   -4.0565  -17.5611    2.7207 H   0  0  0  0  0  0  0  0  0  0  0  0
   -5.6724  -17.1318    4.5736 H   0  0  0  0  0  0  0  0  0  0  0  0
   -4.8414  -16.4234    6.8140 H   0  0  0  0  0  0  0  0  0  0  0  0
   -2.3981  -16.1296    7.2068 H   0  0  0  0  0  0  0  0  0  0  0  0
   -0.7737  -16.5678    5.3645 H   0  0  0  0  0  0  0  0  0  0  0  0
    1.8386  -18.2988    2.9236 H   0  0  0  0  0  0  0  0  0  0  0  0
    0.9492  -18.5586    1.3847 H   0  0  0  0  0  0  0  0  0  0  0  0
    2.7444  -18.4940    1.3847 H   0  0  0  0  0  0  0  0  0  0  0  0
    3.2200  -16.4120    2.9350 H   0  0  0  0  0  0  0  0  0  0  0  0
    1.6027  -17.7686   -0.5952 H   0  0  0  0  0  0  0  0  0  0  0  0
    1.4265  -16.2360   -1.5154 H   0  0  0  0  0  0  0  0  0  0  0  0
    2.9969  -17.1082   -1.5154 H   0  0  0  0  0  0  0  0  0  0  0  0
    4.1513  -17.2329    0.9848 H   0  0  0  0  0  0  0  0  0  0  0  0
    5.1440  -17.6337   -1.0015 H   0  0  0  0  0  0  0  0  0  0  0  0
    4.4085  -16.2905   -1.8057 H   0  0  0  0  0  0  0  0  0  0  0  0
    7.2487  -15.0812   -2.2545 H   0  0  0  0  0  0  0  0  0  0  0  0
    8.0253  -16.4052   -1.4161 H   0  0  0  0  0  0  0  0  0  0  0  0
  1  2  1  0
  2  3  2  0
  3  4  1  0
  4  5  1  0
  5  6  1  0
  6  7  1  0
  7  8  1  6
  7  9  1  0
  9 10  1  0
 10 11  1  0
 11 12  2  0
 11 13  1  0
 13 14  2  0
 14 15  1  0
 15 16  2  0
 16 17  1  0
 17 18  2  0
  9 19  1  0
 19 20  1  0
 20 21  1  0
 21 22  2  0
 21 23  1  0
 23 24  2  0
 24 25  1  0
 25 26  2  0
 26 27  1  0
 27 28  2  0
 19 29  1  0
 29 30  1  0
 29 31  1  1
 29 32  1  0
 32 33  1  6
 32 34  1  0
 34 35  1  0
 35 36  1  0
 36 37  2  0
 37 38  1  0
 37 39  1  0
 39 40  2  0
 39 41  1  0
 41 42  1  0
  7  2  1  0
 18 13  1  0
 28 23  1  0
 38 34  1  0
 32  6  1  0
 42 36  1  0
  1 43  1  0
  1 44  1  0
  1 45  1  0
  3 46  1  0
  4 47  1  0
  4 48  1  0
  5 49  1  0
  5 50  1  0
  6 51  1  1
  8 52  1  0
  8 53  1  0
  8 54  1  0
  9 55  1  1
 14 56  1  0
 15 57  1  0
 16 58  1  0
 18 59  1  0
 19 60  1  6
 24 61  1  0
 25 62  1  0
 26 63  1  0
 27 64  1  0
 28 65  1  0
 30 66  1  0
 30 67  1  0
 30 68  1  0
 31 69  1  0
 33 70  1  0
 33 71  1  0
 33 72  1  0
 34 73  1  1
 35 74  1  0
 35 75  1  0
 42 76  1  0
 42 77  1  0
M  END
>  <meeko>  (6) 
{"is_sidechain": [false], "free_energy": -8.072, "intermolecular_energy": -11.016, "internal_energy": -2.416}

$$$$
LIB_NFCXCBLWABDYMW__M_PUB_ALL__e8__s20260927
     RDKit          3D

 77 82  0  0  0  0  0  0  0  0999 V2000
   -1.4760  -17.9750    5.0630 C   0  0  0  0  0  0  0  0  0  0  0  0
   -2.1030  -16.9120    4.1940 C   0  0  0  0  0  0  0  0  0  0  0  0
   -3.3150  -16.4400    4.5460 C   0  0  0  0  0  0  0  0  0  0  0  0
   -4.0910  -15.4090    3.7950 C   0  0  0  0  0  0  0  0  0  0  0  0
   -3.4540  -14.9890    2.4720 C   0  0  0  0  0  0  0  0  0  0  0  0
   -1.9080  -14.9710    2.5700 C   0  0  1  0  0  0  0  0  0  0  0  0
   -1.3660  -16.4250    2.9080 C   0  0  2  0  0  0  0  0  0  0  0  0
   -1.7050  -17.4970    1.8380 C   0  0  0  0  0  0  0  0  0  0  0  0
    0.1860  -16.3330    3.1020 C   0  0  1  0  0  0  0  0  0  0  0  0
    0.7470  -17.6760    3.1890 O   0  0  0  0  0  0  0  0  0  0  0  0
    1.6120  -17.9300    4.2010 C   0  0  0  0  0  0  0  0  0  0  0  0
    1.8660  -17.1910    5.1380 O   0  0  0  0  0  0  0  0  0  0  0  0
    2.2240  -19.2620    4.0240 C   0  0  0  0  0  0  0  0  0  0  0  0
    3.0040  -19.6120    2.9180 C   0  0  0  0  0  0  0  0  0  0  0  0
    3.5500  -20.8920    2.8450 C   0  0  0  0  0  0  0  0  0  0  0  0
    3.2990  -21.7760    3.8830 C   0  0  0  0  0  0  0  0  0  0  0  0
    2.5550  -21.4680    4.9680 N   0  0  0  0  0  0  0  0  0  0  0  0
    2.0400  -20.2140    5.0170 C   0  0  0  0  0  0  0  0  0  0  0  0
    0.8950  -15.6380    1.9150 C   0  0  2  0  0  0  0  0  0  0  0  0
    2.3150  -15.5390    2.2480 O   0  0  0  0  0  0  0  0  0  0  0  0
    3.1960  -16.0230    1.3380 C   0  0  0  0  0  0  0  0  0  0  0  0
    3.0220  -16.9900    0.6150 O   0  0  0  0  0  0  0  0  0  0  0  0
    4.4300  -15.1970    1.3230 C   0  0  0  0  0  0  0  0  0  0  0  0
    4.4620  -14.0380    2.1080 C   0  0  0  0  0  0  0  0  0  0  0  0
    5.5980  -13.2260    2.1170 C   0  0  0  0  0  0  0  0  0  0  0  0
    6.7030  -13.5670    1.3380 C   0  0  0  0  0  0  0  0  0  0  0  0
    6.6750  -14.7140    0.5460 C   0  0  0  0  0  0  0  0  0  0  0  0
    5.5410  -15.5300    0.5350 C   0  0  0  0  0  0  0  0  0  0  0  0
    0.3800  -14.1930    1.6500 C   0  0  2  0  0  0  0  0  0  0  0  0
    1.2320  -13.5700    0.5230 C   0  0  0  0  0  0  0  0  0  0  0  0
    0.6730  -13.4300    2.8350 O   0  0  0  0  0  0  0  0  0  0  0  0
   -1.1870  -14.1640    1.4000 C   0  0  1  0  0  0  0  0  0  0  0  0
   -1.5100  -14.7700    0.0060 C   0  0  0  0  0  0  0  0  0  0  0  0
   -1.7800  -12.6880    1.3540 C   0  0  1  0  0  0  0  0  0  0  0  0
   -2.3710  -12.0790    2.6690 C   0  0  0  0  0  0  0  0  0  0  0  0
   -1.8940  -10.7050    2.5410 C   0  0  0  0  0  0  0  0  0  0  0  0
   -1.0880  -10.6050    1.5110 C   0  0  0  0  0  0  0  0  0  0  0  0
   -0.8430  -11.7270    0.7670 O   0  0  0  0  0  0  0  0  0  0  0  0
   -0.5520   -9.2500    1.4760 C   0  0  0  0  0  0  0  0  0  0  0  0
    0.2360   -8.7870    0.6750 O   0  0  0  0  0  0  0  0  0  0  0  0
   -1.1160   -8.5780    2.5380 O   0  0  0  0  0  0  0  0  0  0  0  0
   -1.9850   -9.4600    3.2850 C   0  0  0  0  0  0  0  0  0  0  0  0
   -1.6270  -17.7189    6.1221 H   0  0  0  0  0  0  0  0  0  0  0  0
   -1.9456  -18.9467    4.8501 H   0  0  0  0  0  0  0  0  0  0  0  0
   -0.3984  -18.0341    4.8501 H   0  0  0  0  0  0  0  0  0  0  0  0
   -3.7697  -16.8474    5.4610 H   0  0  0  0  0  0  0  0  0  0  0  0
   -5.0908  -15.8159    3.5830 H   0  0  0  0  0  0  0  0  0  0  0  0
   -4.1229  -14.5115    4.4302 H   0  0  0  0  0  0  0  0  0  0  0  0
   -3.7547  -15.6999    1.6883 H   0  0  0  0  0  0  0  0  0  0  0  0
   -3.7975  -13.9726    2.2295 H   0  0  0  0  0  0  0  0  0  0  0  0
   -1.6079  -14.3527    3.4289 H   0  0  0  0  0  0  0  0  0  0  0  0
   -2.0007  -18.4319    2.3365 H   0  0  0  0  0  0  0  0  0  0  0  0
   -2.5336  -17.1386    1.2096 H   0  0  0  0  0  0  0  0  0  0  0  0
   -0.8210  -17.6802    1.2096 H   0  0  0  0  0  0  0  0  0  0  0  0
    0.3489  -15.7476    4.0189 H   0  0  0  0  0  0  0  0  0  0  0  0
    3.1850  -18.8842    2.1133 H   0  0  0  0  0  0  0  0  0  0  0  0
    4.1653  -21.1937    1.9845 H   0  0  0  0  0  0  0  0  0  0  0  0
    3.7302  -22.7860    3.8197 H   0  0  0  0  0  0  0  0  0  0  0  0
    1.4408  -19.9350    5.8963 H   0  0  0  0  0  0  0  0  0  0  0  0
    0.6956  -16.2358    1.0134 H   0  0  0  0  0  0  0  0  0  0  0  0
    3.5892  -13.7662    2.7198 H   0  0  0  0  0  0  0  0  0  0  0  0
    5.6211  -12.3183    2.7380 H   0  0  0  0  0  0  0  0  0  0  0  0
    7.5992  -12.9293    1.3484 H   0  0  0  0  0  0  0  0  0  0  0  0
    7.5469  -14.9769   -0.0710 H   0  0  0  0  0  0  0  0  0  0  0  0
    5.5197  -16.4337   -0.0918 H   0  0  0  0  0  0  0  0  0  0  0  0
    2.0454  -12.9753    0.9643 H   0  0  0  0  0  0  0  0  0  0  0  0
    1.6589  -14.3705   -0.0991 H   0  0  0  0  0  0  0  0  0  0  0  0
    0.5987  -12.9205   -0.0991 H   0  0  0  0  0  0  0  0  0  0  0  0
   -0.1810  -13.0960    3.1740 H   0  0  0  0  0  0  0  0  0  0  0  0
   -2.0238  -15.7340    0.1354 H   0  0  0  0  0  0  0  0  0  0  0  0
   -2.1600  -14.0800   -0.5521 H   0  0  0  0  0  0  0  0  0  0  0  0
   -0.5748  -14.9249   -0.5521 H   0  0  0  0  0  0  0  0  0  0  0  0
   -2.6553  -12.8502    0.7079 H   0  0  0  0  0  0  0  0  0  0  0  0
   -3.4696  -12.1309    2.6865 H   0  0  0  0  0  0  0  0  0  0  0  0
   -2.0720  -12.5916    3.5952 H   0  0  0  0  0  0  0  0  0  0  0  0
   -1.6275   -9.5880    4.3174 H   0  0  0  0  0  0  0  0  0  0  0  0
   -3.0138   -9.0821    3.3787 H   0  0  0  0  0  0  0  0  0  0  0  0
  1  2  1  0
  2  3  2  0
  3  4  1  0
  4  5  1  0
  5  6  1  0
  6  7  1  0
  7  8  1  6
  7  9  1  0
  9 10  1  0
 10 11  1  0
 11 12  2  0
 11 13  1  0
 13 14  2  0
 14 15  1  0
 15 16  2  0
 16 17  1  0
 17 18  2  0
  9 19  1  0
 19 20  1  0
 20 21  1  0
 21 22  2  0
 21 23  1  0
 23 24  2  0
 24 25  1  0
 25 26  2  0
 26 27  1  0
 27 28  2  0
 19 29  1  0
 29 30  1  0
 29 31  1  1
 29 32  1  0
 32 33  1  6
 32 34  1  0
 34 35  1  0
 35 36  1  0
 36 37  2  0
 37 38  1  0
 37 39  1  0
 39 40  2  0
 39 41  1  0
 41 42  1  0
  7  2  1  0
 18 13  1  0
 28 23  1  0
 38 34  1  0
 32  6  1  0
 42 36  1  0
  1 43  1  0
  1 44  1  0
  1 45  1  0
  3 46  1  0
  4 47  1  0
  4 48  1  0
  5 49  1  0
  5 50  1  0
  6 51  1  1
  8 52  1  0
  8 53  1  0
  8 54  1  0
  9 55  1  1
 14 56  1  0
 15 57  1  0
 16 58  1  0
 18 59  1  0
 19 60  1  6
 24 61  1  0
 25 62  1  0
 26 63  1  0
 27 64  1  0
 28 65  1  0
 30 66  1  0
 30 67  1  0
 30 68  1  0
 31 69  1  0
 33 70  1  0
 33 71  1  0
 33 72  1  0
 34 73  1  6
 35 74  1  0
 35 75  1  0
 42 76  1  0
 42 77  1  0
M  END
>  <meeko>  (7) 
{"is_sidechain": [false], "free_energy": -8.025, "intermolecular_energy": -11.95, "internal_energy": -1.413}

$$$$
LIB_NFCXCBLWABDYMW__M_PUB_ALL__e8__s20260927
     RDKit          3D

 77 82  0  0  0  0  0  0  0  0999 V2000
    5.4980  -15.5790   -0.0210 C   0  0  0  0  0  0  0  0  0  0  0  0
    4.6530  -16.6240    0.6630 C   0  0  0  0  0  0  0  0  0  0  0  0
    5.2700  -17.7150    1.1590 C   0  0  0  0  0  0  0  0  0  0  0  0
    4.5910  -18.8550    1.8430 C   0  0  0  0  0  0  0  0  0  0  0  0
    3.0670  -18.7670    1.8400 C   0  0  0  0  0  0  0  0  0  0  0  0
    2.5850  -17.3010    1.9730 C   0  0  1  0  0  0  0  0  0  0  0  0
    3.1040  -16.4430    0.7410 C   0  0  2  0  0  0  0  0  0  0  0  0
    2.5880  -16.9290   -0.6390 C   0  0  0  0  0  0  0  0  0  0  0  0
    2.6850  -14.9510    0.9750 C   0  0  1  0  0  0  0  0  0  0  0  0
    2.9430  -14.1770   -0.2330 O   0  0  0  0  0  0  0  0  0  0  0  0
    3.4990  -12.9500   -0.0840 C   0  0  0  0  0  0  0  0  0  0  0  0
    4.0340  -12.5150    0.9230 O   0  0  0  0  0  0  0  0  0  0  0  0
    3.3750  -12.1800   -1.3380 C   0  0  0  0  0  0  0  0  0  0  0  0
    2.2320  -11.4580   -1.6910 C   0  0  0  0  0  0  0  0  0  0  0  0
    2.2140  -10.7520   -2.8930 C   0  0  0  0  0  0  0  0  0  0  0  0
    3.3420  -10.7920   -3.6980 C   0  0  0  0  0  0  0  0  0  0  0  0
    4.4640  -11.4760   -3.3840 N   0  0  0  0  0  0  0  0  0  0  0  0
    4.4580  -12.1490   -2.2070 C   0  0  0  0  0  0  0  0  0  0  0  0
    1.1760  -14.7980    1.2800 C   0  0  2  0  0  0  0  0  0  0  0  0
    0.9250  -13.3850    1.5600 O   0  0  0  0  0  0  0  0  0  0  0  0
   -0.0690  -12.7860    0.8590 C   0  0  0  0  0  0  0  0  0  0  0  0
   -0.5370  -13.1740   -0.1990 O   0  0  0  0  0  0  0  0  0  0  0  0
   -0.5410  -11.5690    1.5680 C   0  0  0  0  0  0  0  0  0  0  0  0
   -1.0710  -11.7160    2.8570 C   0  0  0  0  0  0  0  0  0  0  0  0
   -1.5360  -10.6000    3.5560 C   0  0  0  0  0  0  0  0  0  0  0  0
   -1.4770   -9.3370    2.9700 C   0  0  0  0  0  0  0  0  0  0  0  0
   -0.9600   -9.1840    1.6840 C   0  0  0  0  0  0  0  0  0  0  0  0
   -0.4930  -10.2970    0.9810 C   0  0  0  0  0  0  0  0  0  0  0  0
    0.7140  -15.6050    2.5280 C   0  0  2  0  0  0  0  0  0  0  0  0
   -0.7740  -15.2870    2.7920 C   0  0  0  0  0  0  0  0  0  0  0  0
    1.4380  -15.0720    3.6530 O   0  0  0  0  0  0  0  0  0  0  0  0
    1.0540  -17.1480    2.3890 C   0  0  1  0  0  0  0  0  0  0  0  0
    0.1100  -17.8050    1.3440 C   0  0  0  0  0  0  0  0  0  0  0  0
    0.8060  -17.9620    3.7340 C   0  0  1  0  0  0  0  0  0  0  0  0
    1.8140  -17.7760    4.9170 C   0  0  0  0  0  0  0  0  0  0  0  0
    0.8810  -17.7870    6.0410 C   0  0  0  0  0  0  0  0  0  0  0  0
   -0.3530  -17.7940    5.5970 C   0  0  0  0  0  0  0  0  0  0  0  0
   -0.5580  -17.7970    4.2440 O   0  0  0  0  0  0  0  0  0  0  0  0
   -1.2530  -17.6990    6.7400 C   0  0  0  0  0  0  0  0  0  0  0  0
   -2.4680  -17.6660    6.7240 O   0  0  0  0  0  0  0  0  0  0  0  0
   -0.4570  -17.6570    7.8630 O   0  0  0  0  0  0  0  0  0  0  0  0
    0.9400  -17.6920    7.4890 C   0  0  0  0  0  0  0  0  0  0  0  0
    5.9993  -14.9591    0.7369 H   0  0  0  0  0  0  0  0  0  0  0  0
    6.2540  -16.0725   -0.6495 H   0  0  0  0  0  0  0  0  0  0  0  0
    4.8572  -14.9431   -0.6495 H   0  0  0  0  0  0  0  0  0  0  0  0
    6.3633  -17.7698    1.0509 H   0  0  0  0  0  0  0  0  0  0  0  0
    4.8840  -19.7860    1.3356 H   0  0  0  0  0  0  0  0  0  0  0  0
    4.9077  -18.8264    2.8960 H   0  0  0  0  0  0  0  0  0  0  0  0
    2.6863  -19.1846    0.8962 H   0  0  0  0  0  0  0  0  0  0  0  0
    2.6858  -19.3361    2.7007 H   0  0  0  0  0  0  0  0  0  0  0  0
    3.0589  -16.8452    2.8549 H   0  0  0  0  0  0  0  0  0  0  0  0
    1.7945  -17.6764   -0.4913 H   0  0  0  0  0  0  0  0  0  0  0  0
    2.1860  -16.0738   -1.2021 H   0  0  0  0  0  0  0  0  0  0  0  0
    3.4176  -17.3814   -1.2021 H   0  0  0  0  0  0  0  0  0  0  0  0
    3.2705  -14.5959    1.8359 H   0  0  0  0  0  0  0  0  0  0  0  0
    1.3550  -11.4468   -1.0271 H   0  0  0  0  0  0  0  0  0  0  0  0
    1.3263  -10.1771   -3.1954 H   0  0  0  0  0  0  0  0  0  0  0  0
    3.3224  -10.2351   -4.6464 H   0  0  0  0  0  0  0  0  0  0  0  0
    5.3648  -12.7034   -1.9235 H   0  0  0  0  0  0  0  0  0  0  0  0
    0.6219  -15.1794    0.4096 H   0  0  0  0  0  0  0  0  0  0  0  0
   -1.1209  -12.7129    3.3193 H   0  0  0  0  0  0  0  0  0  0  0  0
   -1.9487  -10.7179    4.5688 H   0  0  0  0  0  0  0  0  0  0  0  0
   -1.8393   -8.4582    3.5235 H   0  0  0  0  0  0  0  0  0  0  0  0
   -0.9199   -8.1861    1.2229 H   0  0  0  0  0  0  0  0  0  0  0  0
   -0.0872  -10.1752   -0.0341 H   0  0  0  0  0  0  0  0  0  0  0  0
   -0.9539  -15.2486    3.8765 H   0  0  0  0  0  0  0  0  0  0  0  0
   -1.0263  -14.3147    2.3438 H   0  0  0  0  0  0  0  0  0  0  0  0
   -1.4017  -16.0713    2.3438 H   0  0  0  0  0  0  0  0  0  0  0  0
    1.3070  -15.6950    4.3940 H   0  0  0  0  0  0  0  0  0  0  0  0
   -0.6852  -18.3584    1.8650 H   0  0  0  0  0  0  0  0  0  0  0  0
   -0.3396  -17.0236    0.7136 H   0  0  0  0  0  0  0  0  0  0  0  0
    0.6865  -18.4980    0.7136 H   0  0  0  0  0  0  0  0  0  0  0  0
    0.9866  -18.9867    3.3772 H   0  0  0  0  0  0  0  0  0  0  0  0
    2.5345  -18.6052    4.9750 H   0  0  0  0  0  0  0  0  0  0  0  0
    2.4515  -16.8821    4.8496 H   0  0  0  0  0  0  0  0  0  0  0  0
    1.4584  -16.7749    7.8055 H   0  0  0  0  0  0  0  0  0  0  0  0
    1.4967  -18.5166    7.9581 H   0  0  0  0  0  0  0  0  0  0  0  0
  1  2  1  0
  2  3  2  0
  3  4  1  0
  4  5  1  0
  5  6  1  0
  6  7  1  0
  7  8  1  6
  7  9  1  0
  9 10  1  0
 10 11  1  0
 11 12  2  0
 11 13  1  0
 13 14  2  0
 14 15  1  0
 15 16  2  0
 16 17  1  0
 17 18  2  0
  9 19  1  0
 19 20  1  0
 20 21  1  0
 21 22  2  0
 21 23  1  0
 23 24  2  0
 24 25  1  0
 25 26  2  0
 26 27  1  0
 27 28  2  0
 19 29  1  0
 29 30  1  0
 29 31  1  1
 29 32  1  0
 32 33  1  6
 32 34  1  0
 34 35  1  0
 35 36  1  0
 36 37  2  0
 37 38  1  0
 37 39  1  0
 39 40  2  0
 39 41  1  0
 41 42  1  0
  7  2  1  0
 18 13  1  0
 28 23  1  0
 38 34  1  0
 32  6  1  0
 42 36  1  0
  1 43  1  0
  1 44  1  0
  1 45  1  0
  3 46  1  0
  4 47  1  0
  4 48  1  0
  5 49  1  0
  5 50  1  0
  6 51  1  1
  8 52  1  0
  8 53  1  0
  8 54  1  0
  9 55  1  1
 14 56  1  0
 15 57  1  0
 16 58  1  0
 18 59  1  0
 19 60  1  6
 24 61  1  0
 25 62  1  0
 26 63  1  0
 27 64  1  0
 28 65  1  0
 30 66  1  0
 30 67  1  0
 30 68  1  0
 31 69  1  0
 33 70  1  0
 33 71  1  0
 33 72  1  0
 34 73  1  6
 35 74  1  0
 35 75  1  0
 42 76  1  0
 42 77  1  0
M  END
>  <meeko>  (8) 
{"is_sidechain": [false], "free_energy": -7.944, "intermolecular_energy": -11.737, "internal_energy": -1.511}

$$$$
LIB_NFCXCBLWABDYMW__M_PUB_ALL__e8__s20260927
     RDKit          3D

 77 82  0  0  0  0  0  0  0  0999 V2000
    2.2080  -11.4410   -2.1070 C   0  0  0  0  0  0  0  0  0  0  0  0
    3.5410  -12.0990   -2.3610 C   0  0  0  0  0  0  0  0  0  0  0  0
    4.4750  -11.4000   -3.0380 C   0  0  0  0  0  0  0  0  0  0  0  0
    5.8340  -11.9010   -3.3970 C   0  0  0  0  0  0  0  0  0  0  0  0
    6.0740  -13.3670   -3.0450 C   0  0  0  0  0  0  0  0  0  0  0  0
    5.3580  -13.7560   -1.7280 C   0  0  1  0  0  0  0  0  0  0  0  0
    3.7890  -13.5640   -1.8840 C   0  0  2  0  0  0  0  0  0  0  0  0
    3.1440  -14.4450   -2.9860 C   0  0  0  0  0  0  0  0  0  0  0  0
    3.1220  -13.8650   -0.4980 C   0  0  1  0  0  0  0  0  0  0  0  0
    1.6740  -13.9210   -0.6560 O   0  0  0  0  0  0  0  0  0  0  0  0
    0.9180  -13.2530    0.2500 C   0  0  0  0  0  0  0  0  0  0  0  0
    1.2710  -12.3000    0.9250 O   0  0  0  0  0  0  0  0  0  0  0  0
   -0.4340  -13.8430    0.3160 C   0  0  0  0  0  0  0  0  0  0  0  0
   -1.4040  -13.4480    1.2420 C   0  0  0  0  0  0  0  0  0  0  0  0
   -2.6580  -14.0560    1.2190 C   0  0  0  0  0  0  0  0  0  0  0  0
   -2.8990  -15.0360    0.2680 C   0  0  0  0  0  0  0  0  0  0  0  0
   -1.9850  -15.4370   -0.6430 N   0  0  0  0  0  0  0  0  0  0  0  0
   -0.7750  -14.8260   -0.6030 C   0  0  0  0  0  0  0  0  0  0  0  0
    3.5520  -15.2330    0.0850 C   0  0  2  0  0  0  0  0  0  0  0  0
    2.9350  -15.3610    1.4040 O   0  0  0  0  0  0  0  0  0  0  0  0
    2.0200  -16.3500    1.5630 C   0  0  0  0  0  0  0  0  0  0  0  0
    1.9840  -17.4000    0.9410 O   0  0  0  0  0  0  0  0  0  0  0  0
    1.0490  -15.9910    2.6270 C   0  0  0  0  0  0  0  0  0  0  0  0
    1.3900  -14.9640    3.5170 C   0  0  0  0  0  0  0  0  0  0  0  0
    0.5110  -14.6000    4.5390 C   0  0  0  0  0  0  0  0  0  0  0  0
   -0.7080  -15.2620    4.6780 C   0  0  0  0  0  0  0  0  0  0  0  0
   -1.0500  -16.2920    3.8020 C   0  0  0  0  0  0  0  0  0  0  0  0
   -0.1750  -16.6580    2.7770 C   0  0  0  0  0  0  0  0  0  0  0  0
    5.0900  -15.3630    0.2800 C   0  0  2  0  0  0  0  0  0  0  0  0
    5.3830  -16.7170    0.9640 C   0  0  0  0  0  0  0  0  0  0  0  0
    5.4720  -14.3500    1.2290 O   0  0  0  0  0  0  0  0  0  0  0  0
    5.8770  -15.1140   -1.0750 C   0  0  1  0  0  0  0  0  0  0  0  0
    5.6750  -16.3210   -2.0330 C   0  0  0  0  0  0  0  0  0  0  0  0
    7.4520  -15.0130   -0.8680 C   0  0  1  0  0  0  0  0  0  0  0  0
    8.3740  -15.0040   -2.1330 C   0  0  0  0  0  0  0  0  0  0  0  0
    9.3670  -14.0210   -1.7080 C   0  0  0  0  0  0  0  0  0  0  0  0
    9.0020  -13.4790   -0.5700 C   0  0  0  0  0  0  0  0  0  0  0  0
    7.8310  -13.8960    0.0020 O   0  0  0  0  0  0  0  0  0  0  0  0
    9.9590  -12.4330   -0.2310 C   0  0  0  0  0  0  0  0  0  0  0  0
    9.9440  -11.7050    0.7420 O   0  0  0  0  0  0  0  0  0  0  0  0
   10.9020  -12.4250   -1.2340 O   0  0  0  0  0  0  0  0  0  0  0  0
   10.5770  -13.4160   -2.2370 C   0  0  0  0  0  0  0  0  0  0  0  0
    2.0405  -11.3583   -1.0230 H   0  0  0  0  0  0  0  0  0  0  0  0
    2.2031  -10.4370   -2.5564 H   0  0  0  0  0  0  0  0  0  0  0  0
    1.4080  -12.0477   -2.5564 H   0  0  0  0  0  0  0  0  0  0  0  0
    4.2139  -10.3782   -3.3507 H   0  0  0  0  0  0  0  0  0  0  0  0
    5.9708  -11.7799   -4.4817 H   0  0  0  0  0  0  0  0  0  0  0  0
    6.5533  -11.3128   -2.8082 H   0  0  0  0  0  0  0  0  0  0  0  0
    5.6912  -13.9982   -3.8605 H   0  0  0  0  0  0  0  0  0  0  0  0
    7.1551  -13.5181   -2.9092 H   0  0  0  0  0  0  0  0  0  0  0  0
    5.6515  -13.0508   -0.9364 H   0  0  0  0  0  0  0  0  0  0  0  0
    2.5564  -15.2477   -2.5165 H   0  0  0  0  0  0  0  0  0  0  0  0
    2.4845  -13.8255   -3.6114 H   0  0  0  0  0  0  0  0  0  0  0  0
    3.9338  -14.8866   -3.6114 H   0  0  0  0  0  0  0  0  0  0  0  0
    3.4415  -13.0606    0.1808 H   0  0  0  0  0  0  0  0  0  0  0  0
   -1.1798  -12.6651    1.9815 H   0  0  0  0  0  0  0  0  0  0  0  0
   -3.4380  -13.7653    1.9382 H   0  0  0  0  0  0  0  0  0  0  0  0
   -3.8897  -15.5138    0.2544 H   0  0  0  0  0  0  0  0  0  0  0  0
   -0.0187  -15.1272   -1.3428 H   0  0  0  0  0  0  0  0  0  0  0  0
    3.2368  -16.0111   -0.6258 H   0  0  0  0  0  0  0  0  0  0  0  0
    2.3529  -14.4430    3.4103 H   0  0  0  0  0  0  0  0  0  0  0  0
    0.7803  -13.7912    5.2342 H   0  0  0  0  0  0  0  0  0  0  0  0
   -1.4018  -14.9713    5.4806 H   0  0  0  0  0  0  0  0  0  0  0  0
   -2.0098  -16.8165    3.9186 H   0  0  0  0  0  0  0  0  0  0  0  0
   -0.4464  -17.4703    2.0867 H   0  0  0  0  0  0  0  0  0  0  0  0
    5.3554  -16.5896    2.0562 H   0  0  0  0  0  0  0  0  0  0  0  0
    4.6233  -17.4527    0.6614 H   0  0  0  0  0  0  0  0  0  0  0  0
    6.3789  -17.0728    0.6614 H   0  0  0  0  0  0  0  0  0  0  0  0
    5.3730  -14.7450    2.1180 H   0  0  0  0  0  0  0  0  0  0  0  0
    5.5218  -17.2363   -1.4424 H   0  0  0  0  0  0  0  0  0  0  0  0
    4.7943  -16.1423   -2.6673 H   0  0  0  0  0  0  0  0  0  0  0  0
    6.5659  -16.4388   -2.6673 H   0  0  0  0  0  0  0  0  0  0  0  0
    7.6479  -15.9853   -0.3924 H   0  0  0  0  0  0  0  0  0  0  0  0
    8.8264  -15.9897   -2.3168 H   0  0  0  0  0  0  0  0  0  0  0  0
    7.8640  -14.7717   -3.0795 H   0  0  0  0  0  0  0  0  0  0  0  0
   10.3909  -12.9455   -3.2137 H   0  0  0  0  0  0  0  0  0  0  0  0
   11.3860  -14.1402   -2.4133 H   0  0  0  0  0  0  0  0  0  0  0  0
  1  2  1  0
  2  3  2  0
  3  4  1  0
  4  5  1  0
  5  6  1  0
  6  7  1  0
  7  8  1  6
  7  9  1  0
  9 10  1  0
 10 11  1  0
 11 12  2  0
 11 13  1  0
 13 14  2  0
 14 15  1  0
 15 16  2  0
 16 17  1  0
 17 18  2  0
  9 19  1  0
 19 20  1  0
 20 21  1  0
 21 22  2  0
 21 23  1  0
 23 24  2  0
 24 25  1  0
 25 26  2  0
 26 27  1  0
 27 28  2  0
 19 29  1  0
 29 30  1  0
 29 31  1  1
 29 32  1  0
 32 33  1  6
 32 34  1  0
 34 35  1  0
 35 36  1  0
 36 37  2  0
 37 38  1  0
 37 39  1  0
 39 40  2  0
 39 41  1  0
 41 42  1  0
  7  2  1  0
 18 13  1  0
 28 23  1  0
 38 34  1  0
 32  6  1  0
 42 36  1  0
  1 43  1  0
  1 44  1  0
  1 45  1  0
  3 46  1  0
  4 47  1  0
  4 48  1  0
  5 49  1  0
  5 50  1  0
  6 51  1  1
  8 52  1  0
  8 53  1  0
  8 54  1  0
  9 55  1  1
 14 56  1  0
 15 57  1  0
 16 58  1  0
 18 59  1  0
 19 60  1  6
 24 61  1  0
 25 62  1  0
 26 63  1  0
 27 64  1  0
 28 65  1  0
 30 66  1  0
 30 67  1  0
 30 68  1  0
 31 69  1  0
 33 70  1  0
 33 71  1  0
 33 72  1  0
 34 73  1  1
 35 74  1  0
 35 75  1  0
 42 76  1  0
 42 77  1  0
M  END
>  <meeko>  (9) 
{"is_sidechain": [false], "free_energy": -7.818, "intermolecular_energy": -10.465, "internal_energy": -2.6}

$$$$
