LIB_MYAFDHCCQBIZLC__H_AF__e8__s20260927
     RDKit          3D

 58 62  0  0  0  0  0  0  0  0999 V2000
   -0.3720  -13.5350   -0.6590 O   0  0  0  0  0  0  0  0  0  0  0  0
   -0.0990  -12.5680    0.0400 C   0  0  0  0  0  0  0  0  0  0  0  0
    0.9030  -11.6470   -0.2370 N   0  0  0  0  0  0  0  0  0  0  0  0
    1.8660  -11.7080   -1.2670 C   0  0  0  0  0  0  0  0  0  0  0  0
    1.4340  -11.4040   -2.5630 C   0  0  0  0  0  0  0  0  0  0  0  0
    2.3270  -11.4360   -3.6340 C   0  0  0  0  0  0  0  0  0  0  0  0
    3.6620  -11.7760   -3.4170 C   0  0  0  0  0  0  0  0  0  0  0  0
    4.1220  -12.0890   -2.1300 C   0  0  0  0  0  0  0  0  0  0  0  0
    5.5530  -12.4320   -1.9260 C   0  0  0  0  0  0  0  0  0  0  0  0
    6.3130  -11.6850   -1.0970 C   0  0  0  0  0  0  0  0  0  0  0  0
    7.6330  -12.0400   -0.9220 N   0  0  0  0  0  0  0  0  0  0  0  0
    8.6410  -11.5000   -0.1740 C   0  0  0  0  0  0  0  0  0  0  0  0
    9.7360  -12.3050   -0.4130 C   0  0  0  0  0  0  0  0  0  0  0  0
    9.4260  -13.3230   -1.2850 N   0  0  0  0  0  0  0  0  0  0  0  0
    8.1530  -13.1260   -1.5670 C   0  0  0  0  0  0  0  0  0  0  0  0
    7.2970  -13.9090   -2.4400 C   0  0  0  0  0  0  0  0  0  0  0  0
    7.7920  -15.0070   -3.0970 N   0  0  0  0  0  0  0  0  0  0  0  0
    7.0280  -15.8260   -3.9960 C   0  0  0  0  0  0  0  0  0  0  0  0
    7.3680  -15.4640   -5.4210 C   0  0  0  0  0  0  0  0  0  0  0  0
    8.3260  -16.2010   -6.1350 C   0  0  0  0  0  0  0  0  0  0  0  0
    8.6580  -15.8490   -7.4440 C   0  0  0  0  0  0  0  0  0  0  0  0
    8.0440  -14.7540   -8.0500 C   0  0  0  0  0  0  0  0  0  0  0  0
    7.1010  -14.0060   -7.3460 C   0  0  0  0  0  0  0  0  0  0  0  0
    6.7680  -14.3550   -6.0370 C   0  0  0  0  0  0  0  0  0  0  0  0
    6.0400  -13.5530   -2.5920 N   0  0  0  0  0  0  0  0  0  0  0  0
    3.2100  -12.0330   -1.0600 C   0  0  0  0  0  0  0  0  0  0  0  0
   -0.7490  -12.2320    1.2200 N   0  0  0  0  0  0  0  0  0  0  0  0
   -1.8820  -12.8510    1.7870 C   0  0  0  0  0  0  0  0  0  0  0  0
   -1.6570  -13.7670    2.8240 C   0  0  0  0  0  0  0  0  0  0  0  0
   -2.7220  -14.4240    3.4410 C   0  0  0  0  0  0  0  0  0  0  0  0
   -4.0290  -14.1690    3.0330 C   0  0  0  0  0  0  0  0  0  0  0  0
   -4.2800  -13.2480    2.0060 C   0  0  0  0  0  0  0  0  0  0  0  0
   -5.6880  -12.9700    1.5420 C   0  0  0  0  0  0  0  0  0  0  0  0
   -6.0380  -11.6590    1.6540 F   0  0  0  0  0  0  0  0  0  0  0  0
   -6.6310  -13.6620    2.2440 F   0  0  0  0  0  0  0  0  0  0  0  0
   -5.8810  -13.3020    0.2370 F   0  0  0  0  0  0  0  0  0  0  0  0
   -3.1960  -12.5980    1.3870 C   0  0  0  0  0  0  0  0  0  0  0  0
    0.8950  -10.7990    0.3060 H   0  0  0  0  0  0  0  0  0  0  0  0
    0.3813  -11.1376   -2.7385 H   0  0  0  0  0  0  0  0  0  0  0  0
    1.9786  -11.1933   -4.6488 H   0  0  0  0  0  0  0  0  0  0  0  0
    4.3621  -11.7989   -4.2652 H   0  0  0  0  0  0  0  0  0  0  0  0
    5.8892  -10.8148   -0.5744 H   0  0  0  0  0  0  0  0  0  0  0  0
    8.5905  -10.6152    0.4776 H   0  0  0  0  0  0  0  0  0  0  0  0
   10.7286  -12.1525    0.0358 H   0  0  0  0  0  0  0  0  0  0  0  0
    8.7710  -15.2320   -2.9450 H   0  0  0  0  0  0  0  0  0  0  0  0
    7.2675  -16.8851   -3.8199 H   0  0  0  0  0  0  0  0  0  0  0  0
    5.9550  -15.6580   -3.8218 H   0  0  0  0  0  0  0  0  0  0  0  0
    8.8184  -17.0620   -5.6594 H   0  0  0  0  0  0  0  0  0  0  0  0
    9.4050  -16.4362   -7.9982 H   0  0  0  0  0  0  0  0  0  0  0  0
    8.3033  -14.4801   -9.0833 H   0  0  0  0  0  0  0  0  0  0  0  0
    6.6192  -13.1399   -7.8232 H   0  0  0  0  0  0  0  0  0  0  0  0
    6.0295  -13.7564   -5.4835 H   0  0  0  0  0  0  0  0  0  0  0  0
    3.5614  -12.2492   -0.0403 H   0  0  0  0  0  0  0  0  0  0  0  0
   -0.3260  -11.5000    1.7680 H   0  0  0  0  0  0  0  0  0  0  0  0
   -0.6280  -13.9703    3.1554 H   0  0  0  0  0  0  0  0  0  0  0  0
   -2.5293  -15.1438    4.2502 H   0  0  0  0  0  0  0  0  0  0  0  0
   -4.8667  -14.6916    3.5178 H   0  0  0  0  0  0  0  0  0  0  0  0
   -3.3865  -11.8798    0.5759 H   0  0  0  0  0  0  0  0  0  0  0  0
  1  2  2  0
  2  3  1  0
  3  4  1  0
  4  5  2  0
  5  6  1  0
  6  7  2  0
  7  8  1  0
  8  9  1  0
  9 10  2  0
 10 11  1  0
 11 12  1  0
 12 13  2  0
 13 14  1  0
 14 15  2  0
 15 16  1  0
 16 17  1  0
 17 18  1  0
 18 19  1  0
 19 20  2  0
 20 21  1  0
 21 22  2  0
 22 23  1  0
 23 24  2  0
 16 25  2  0
  8 26  2  0
  2 27  1  0
 27 28  1  0
 28 29  2  0
 29 30  1  0
 30 31  2  0
 31 32  1  0
 32 33  1  0
 33 34  1  0
 33 35  1  0
 33 36  1  0
 32 37  2  0
 26  4  1  0
 37 28  1  0
 25  9  1  0
 15 11  1  0
 24 19  1  0
  3 38  1  0
  5 39  1  0
  6 40  1  0
  7 41  1  0
 10 42  1  0
 12 43  1  0
 13 44  1  0
 17 45  1  0
 18 46  1  0
 18 47  1  0
 20 48  1  0
 21 49  1  0
 22 50  1  0
 23 51  1  0
 24 52  1  0
 26 53  1  0
 27 54  1  0
 29 55  1  0
 30 56  1  0
 31 57  1  0
 37 58  1  0
M  END
>  <meeko>  (1) 
{"is_sidechain": [false], "free_energy": -10.663, "intermolecular_energy": -14.403, "internal_energy": -1.082}

$$$$
LIB_MYAFDHCCQBIZLC__H_AF__e8__s20260927
     RDKit          3D

 58 62  0  0  0  0  0  0  0  0999 V2000
    1.2070  -12.9370   -0.1690 O   0  0  0  0  0  0  0  0  0  0  0  0
    1.1390  -14.1590   -0.1150 C   0  0  0  0  0  0  0  0  0  0  0  0
    2.2330  -15.0110   -0.0410 N   0  0  0  0  0  0  0  0  0  0  0  0
    3.5980  -14.6690   -0.1480 C   0  0  0  0  0  0  0  0  0  0  0  0
    4.1850  -14.0330    0.9520 C   0  0  0  0  0  0  0  0  0  0  0  0
    5.5310  -13.6690    0.9270 C   0  0  0  0  0  0  0  0  0  0  0  0
    6.3020  -13.9370   -0.2040 C   0  0  0  0  0  0  0  0  0  0  0  0
    5.7410  -14.5700   -1.3210 C   0  0  0  0  0  0  0  0  0  0  0  0
    6.5910  -14.8580   -2.5050 C   0  0  0  0  0  0  0  0  0  0  0  0
    6.0250  -15.2890   -3.6530 C   0  0  0  0  0  0  0  0  0  0  0  0
    6.8430  -15.5330   -4.7340 N   0  0  0  0  0  0  0  0  0  0  0  0
    6.5860  -15.9710   -6.0040 C   0  0  0  0  0  0  0  0  0  0  0  0
    7.8180  -16.0140   -6.6240 C   0  0  0  0  0  0  0  0  0  0  0  0
    8.8200  -15.6140   -5.7710 N   0  0  0  0  0  0  0  0  0  0  0  0
    8.1910  -15.3350   -4.6460 C   0  0  0  0  0  0  0  0  0  0  0  0
    8.7580  -14.8580   -3.3970 C   0  0  0  0  0  0  0  0  0  0  0  0
   10.1090  -14.6470   -3.2820 N   0  0  0  0  0  0  0  0  0  0  0  0
   10.7600  -14.2000   -2.0820 C   0  0  0  0  0  0  0  0  0  0  0  0
   11.5720  -12.9630   -2.3790 C   0  0  0  0  0  0  0  0  0  0  0  0
   12.3060  -12.8620   -3.5710 C   0  0  0  0  0  0  0  0  0  0  0  0
   13.0780  -11.7290   -3.8330 C   0  0  0  0  0  0  0  0  0  0  0  0
   13.1320  -10.6910   -2.9050 C   0  0  0  0  0  0  0  0  0  0  0  0
   12.4180  -10.7860   -1.7110 C   0  0  0  0  0  0  0  0  0  0  0  0
   11.6460  -11.9180   -1.4460 C   0  0  0  0  0  0  0  0  0  0  0  0
    7.9590  -14.6300   -2.3770 N   0  0  0  0  0  0  0  0  0  0  0  0
    4.3860  -14.9460   -1.2700 C   0  0  0  0  0  0  0  0  0  0  0  0
   -0.0420  -14.8890   -0.1130 N   0  0  0  0  0  0  0  0  0  0  0  0
   -1.3620  -14.3940   -0.0720 C   0  0  0  0  0  0  0  0  0  0  0  0
   -2.0980  -14.4450   -1.2630 C   0  0  0  0  0  0  0  0  0  0  0  0
   -3.4120  -13.9770   -1.3110 C   0  0  0  0  0  0  0  0  0  0  0  0
   -4.0090  -13.4580   -0.1660 C   0  0  0  0  0  0  0  0  0  0  0  0
   -3.2970  -13.4080    1.0410 C   0  0  0  0  0  0  0  0  0  0  0  0
   -3.9230  -12.8350    2.2880 C   0  0  0  0  0  0  0  0  0  0  0  0
   -3.0110  -12.2960    3.1430 F   0  0  0  0  0  0  0  0  0  0  0  0
   -4.6090  -13.7600    3.0170 F   0  0  0  0  0  0  0  0  0  0  0  0
   -4.8150  -11.8440    2.0140 F   0  0  0  0  0  0  0  0  0  0  0  0
   -1.9700  -13.8760    1.0730 C   0  0  0  0  0  0  0  0  0  0  0  0
    2.0390  -15.9710    0.1950 H   0  0  0  0  0  0  0  0  0  0  0  0
    3.5790  -13.8183    1.8445 H   0  0  0  0  0  0  0  0  0  0  0  0
    5.9837  -13.1716    1.7974 H   0  0  0  0  0  0  0  0  0  0  0  0
    7.3632  -13.6479   -0.2192 H   0  0  0  0  0  0  0  0  0  0  0  0
    4.9379  -15.4414   -3.7230 H   0  0  0  0  0  0  0  0  0  0  0  0
    5.6092  -16.2323   -6.4371 H   0  0  0  0  0  0  0  0  0  0  0  0
    7.9781  -16.3277   -7.6661 H   0  0  0  0  0  0  0  0  0  0  0  0
   10.6770  -14.8430   -4.1010 H   0  0  0  0  0  0  0  0  0  0  0  0
   10.0024  -13.9666   -1.3194 H   0  0  0  0  0  0  0  0  0  0  0  0
   11.4246  -14.9932   -1.7090 H   0  0  0  0  0  0  0  0  0  0  0  0
   12.2727  -13.6815   -4.3040 H   0  0  0  0  0  0  0  0  0  0  0  0
   13.6444  -11.6555   -4.7731 H   0  0  0  0  0  0  0  0  0  0  0  0
   13.7377   -9.7969   -3.1142 H   0  0  0  0  0  0  0  0  0  0  0  0
   12.4633   -9.9678   -0.9772 H   0  0  0  0  0  0  0  0  0  0  0  0
   11.0916  -11.9914   -0.4988 H   0  0  0  0  0  0  0  0  0  0  0  0
    3.9380  -15.4676   -2.1286 H   0  0  0  0  0  0  0  0  0  0  0  0
    0.0520  -15.8870   -0.2150 H   0  0  0  0  0  0  0  0  0  0  0  0
   -1.6348  -14.8587   -2.1709 H   0  0  0  0  0  0  0  0  0  0  0  0
   -3.9761  -14.0184   -2.2544 H   0  0  0  0  0  0  0  0  0  0  0  0
   -5.0432  -13.0856   -0.2080 H   0  0  0  0  0  0  0  0  0  0  0  0
   -1.4032  -13.8330    2.0147 H   0  0  0  0  0  0  0  0  0  0  0  0
  1  2  2  0
  2  3  1  0
  3  4  1  0
  4  5  2  0
  5  6  1  0
  6  7  2  0
  7  8  1  0
  8  9  1  0
  9 10  2  0
 10 11  1  0
 11 12  1  0
 12 13  2  0
 13 14  1  0
 14 15  2  0
 15 16  1  0
 16 17  1  0
 17 18  1  0
 18 19  1  0
 19 20  2  0
 20 21  1  0
 21 22  2  0
 22 23  1  0
 23 24  2  0
 16 25  2  0
  8 26  2  0
  2 27  1  0
 27 28  1  0
 28 29  2  0
 29 30  1  0
 30 31  2  0
 31 32  1  0
 32 33  1  0
 33 34  1  0
 33 35  1  0
 33 36  1  0
 32 37  2  0
 26  4  1  0
 37 28  1  0
 25  9  1  0
 15 11  1  0
 24 19  1  0
  3 38  1  0
  5 39  1  0
  6 40  1  0
  7 41  1  0
 10 42  1  0
 12 43  1  0
 13 44  1  0
 17 45  1  0
 18 46  1  0
 18 47  1  0
 20 48  1  0
 21 49  1  0
 22 50  1  0
 23 51  1  0
 24 52  1  0
 26 53  1  0
 27 54  1  0
 29 55  1  0
 30 56  1  0
 31 57  1  0
 37 58  1  0
M  END
>  <meeko>  (2) 
{"is_sidechain": [false], "free_energy": -10.591, "intermolecular_energy": -14.388, "internal_energy": -0.999}

$$$$
LIB_MYAFDHCCQBIZLC__H_AF__e8__s20260927
     RDKit          3D

 58 62  0  0  0  0  0  0  0  0999 V2000
    6.8910  -13.9290   -4.7220 O   0  0  0  0  0  0  0  0  0  0  0  0
    6.9450  -12.7270   -4.9510 C   0  0  0  0  0  0  0  0  0  0  0  0
    5.8660  -11.8570   -4.8790 N   0  0  0  0  0  0  0  0  0  0  0  0
    4.5090  -12.1850   -4.6720 C   0  0  0  0  0  0  0  0  0  0  0  0
    3.6470  -12.0590   -5.7670 C   0  0  0  0  0  0  0  0  0  0  0  0
    2.2930  -12.3710   -5.6440 C   0  0  0  0  0  0  0  0  0  0  0  0
    1.7890  -12.8110   -4.4200 C   0  0  0  0  0  0  0  0  0  0  0  0
    2.6280  -12.9440   -3.3060 C   0  0  0  0  0  0  0  0  0  0  0  0
    2.0660  -13.4310   -2.0190 C   0  0  0  0  0  0  0  0  0  0  0  0
    0.8800  -12.9570   -1.5790 C   0  0  0  0  0  0  0  0  0  0  0  0
    0.3840  -13.4410   -0.3890 N   0  0  0  0  0  0  0  0  0  0  0  0
   -0.7580  -13.1670    0.3120 C   0  0  0  0  0  0  0  0  0  0  0  0
   -0.6920  -13.9720    1.4310 C   0  0  0  0  0  0  0  0  0  0  0  0
    0.4550  -14.7320    1.4330 N   0  0  0  0  0  0  0  0  0  0  0  0
    1.0730  -14.3810    0.3230 C   0  0  0  0  0  0  0  0  0  0  0  0
    2.3390  -14.8720   -0.1920 C   0  0  0  0  0  0  0  0  0  0  0  0
    3.0500  -15.8190    0.5000 N   0  0  0  0  0  0  0  0  0  0  0  0
    4.3200  -16.3460    0.0820 C   0  0  0  0  0  0  0  0  0  0  0  0
    5.2990  -15.2130   -0.1070 C   0  0  0  0  0  0  0  0  0  0  0  0
    5.3540  -14.1580    0.8160 C   0  0  0  0  0  0  0  0  0  0  0  0
    6.2420  -13.0980    0.6260 C   0  0  0  0  0  0  0  0  0  0  0  0
    7.0760  -13.0770   -0.4900 C   0  0  0  0  0  0  0  0  0  0  0  0
    7.0210  -14.1130   -1.4210 C   0  0  0  0  0  0  0  0  0  0  0  0
    6.1340  -15.1740   -1.2340 C   0  0  0  0  0  0  0  0  0  0  0  0
    2.7950  -14.3980   -1.3310 N   0  0  0  0  0  0  0  0  0  0  0  0
    3.9940  -12.6420   -3.4540 C   0  0  0  0  0  0  0  0  0  0  0  0
    8.0950  -12.0390   -5.3130 N   0  0  0  0  0  0  0  0  0  0  0  0
    9.4110  -12.5400   -5.3920 C   0  0  0  0  0  0  0  0  0  0  0  0
    9.6170  -13.6670   -6.1980 C   0  0  0  0  0  0  0  0  0  0  0  0
   10.8880  -14.2270   -6.3330 C   0  0  0  0  0  0  0  0  0  0  0  0
   11.9730  -13.6630   -5.6660 C   0  0  0  0  0  0  0  0  0  0  0  0
   11.7940  -12.5270   -4.8630 C   0  0  0  0  0  0  0  0  0  0  0  0
   12.9550  -11.9120   -4.1230 C   0  0  0  0  0  0  0  0  0  0  0  0
   12.7900  -11.9200   -2.7710 F   0  0  0  0  0  0  0  0  0  0  0  0
   13.1740  -10.6080   -4.4570 F   0  0  0  0  0  0  0  0  0  0  0  0
   14.1280  -12.5570   -4.3640 F   0  0  0  0  0  0  0  0  0  0  0  0
   10.5050  -11.9780   -4.7300 C   0  0  0  0  0  0  0  0  0  0  0  0
    6.0810  -10.8730   -4.8970 H   0  0  0  0  0  0  0  0  0  0  0  0
    4.0406  -11.7108   -6.7334 H   0  0  0  0  0  0  0  0  0  0  0  0
    1.6236  -12.2702   -6.5110 H   0  0  0  0  0  0  0  0  0  0  0  0
    0.7206  -13.0563   -4.3284 H   0  0  0  0  0  0  0  0  0  0  0  0
    0.3245  -12.2035   -2.1566 H   0  0  0  0  0  0  0  0  0  0  0  0
   -1.5556  -12.4590    0.0425 H   0  0  0  0  0  0  0  0  0  0  0  0
   -1.4579  -14.0022    2.2199 H   0  0  0  0  0  0  0  0  0  0  0  0
    2.6520  -16.1460    1.3750 H   0  0  0  0  0  0  0  0  0  0  0  0
    4.7012  -17.0354    0.8497 H   0  0  0  0  0  0  0  0  0  0  0  0
    4.1973  -16.8860   -0.8684 H   0  0  0  0  0  0  0  0  0  0  0  0
    4.6930  -14.1662    1.6952 H   0  0  0  0  0  0  0  0  0  0  0  0
    6.2835  -12.2782    1.3582 H   0  0  0  0  0  0  0  0  0  0  0  0
    7.7779  -12.2428   -0.6364 H   0  0  0  0  0  0  0  0  0  0  0  0
    7.6772  -14.0942   -2.3036 H   0  0  0  0  0  0  0  0  0  0  0  0
    6.0891  -15.9854   -1.9753 H   0  0  0  0  0  0  0  0  0  0  0  0
    4.6703  -12.7676   -2.5956 H   0  0  0  0  0  0  0  0  0  0  0  0
    7.9680  -11.0860   -5.6140 H   0  0  0  0  0  0  0  0  0  0  0  0
    8.7662  -14.1162   -6.7312 H   0  0  0  0  0  0  0  0  0  0  0  0
   11.0332  -15.1144   -6.9666 H   0  0  0  0  0  0  0  0  0  0  0  0
   12.9729  -14.1097   -5.7693 H   0  0  0  0  0  0  0  0  0  0  0  0
   10.3567  -11.0923   -4.0947 H   0  0  0  0  0  0  0  0  0  0  0  0
  1  2  2  0
  2  3  1  0
  3  4  1  0
  4  5  2  0
  5  6  1  0
  6  7  2  0
  7  8  1  0
  8  9  1  0
  9 10  2  0
 10 11  1  0
 11 12  1  0
 12 13  2  0
 13 14  1  0
 14 15  2  0
 15 16  1  0
 16 17  1  0
 17 18  1  0
 18 19  1  0
 19 20  2  0
 20 21  1  0
 21 22  2  0
 22 23  1  0
 23 24  2  0
 16 25  2  0
  8 26  2  0
  2 27  1  0
 27 28  1  0
 28 29  2  0
 29 30  1  0
 30 31  2  0
 31 32  1  0
 32 33  1  0
 33 34  1  0
 33 35  1  0
 33 36  1  0
 32 37  2  0
 26  4  1  0
 37 28  1  0
 25  9  1  0
 15 11  1  0
 24 19  1  0
  3 38  1  0
  5 39  1  0
  6 40  1  0
  7 41  1  0
 10 42  1  0
 12 43  1  0
 13 44  1  0
 17 45  1  0
 18 46  1  0
 18 47  1  0
 20 48  1  0
 21 49  1  0
 22 50  1  0
 23 51  1  0
 24 52  1  0
 26 53  1  0
 27 54  1  0
 29 55  1  0
 30 56  1  0
 31 57  1  0
 37 58  1  0
M  END
>  <meeko>  (3) 
{"is_sidechain": [false], "free_energy": -10.534, "intermolecular_energy": -14.675, "internal_energy": -0.636}

$$$$
LIB_MYAFDHCCQBIZLC__H_AF__e8__s20260927
     RDKit          3D

 58 62  0  0  0  0  0  0  0  0999 V2000
    0.3290  -11.6840   -1.3080 O   0  0  0  0  0  0  0  0  0  0  0  0
    0.3170  -12.9080   -1.3210 C   0  0  0  0  0  0  0  0  0  0  0  0
    1.1170  -13.7010   -2.1340 N   0  0  0  0  0  0  0  0  0  0  0  0
    1.9760  -13.2760   -3.1700 C   0  0  0  0  0  0  0  0  0  0  0  0
    1.3870  -12.9760   -4.4040 C   0  0  0  0  0  0  0  0  0  0  0  0
    2.1680  -12.5440   -5.4770 C   0  0  0  0  0  0  0  0  0  0  0  0
    3.5480  -12.4110   -5.3230 C   0  0  0  0  0  0  0  0  0  0  0  0
    4.1650  -12.7070   -4.0990 C   0  0  0  0  0  0  0  0  0  0  0  0
    5.6340  -12.5390   -3.9600 C   0  0  0  0  0  0  0  0  0  0  0  0
    6.4600  -13.0080   -4.9210 C   0  0  0  0  0  0  0  0  0  0  0  0
    7.8160  -12.8230   -4.7650 N   0  0  0  0  0  0  0  0  0  0  0  0
    8.8890  -13.1750   -5.5370 C   0  0  0  0  0  0  0  0  0  0  0  0
    9.9920  -12.7120   -4.8490 C   0  0  0  0  0  0  0  0  0  0  0  0
    9.6250  -12.0850   -3.6810 N   0  0  0  0  0  0  0  0  0  0  0  0
    8.3090  -12.1760   -3.6690 C   0  0  0  0  0  0  0  0  0  0  0  0
    7.3860  -11.6770   -2.6650 C   0  0  0  0  0  0  0  0  0  0  0  0
    7.8540  -11.0190   -1.5550 N   0  0  0  0  0  0  0  0  0  0  0  0
    7.0190  -10.5130   -0.5020 C   0  0  0  0  0  0  0  0  0  0  0  0
    6.0910  -11.6030   -0.0250 C   0  0  0  0  0  0  0  0  0  0  0  0
    6.5950  -12.8640    0.3290 C   0  0  0  0  0  0  0  0  0  0  0  0
    5.7320  -13.8790    0.7460 C   0  0  0  0  0  0  0  0  0  0  0  0
    4.3590  -13.6490    0.8040 C   0  0  0  0  0  0  0  0  0  0  0  0
    3.8450  -12.4040    0.4420 C   0  0  0  0  0  0  0  0  0  0  0  0
    4.7050  -11.3880    0.0250 C   0  0  0  0  0  0  0  0  0  0  0  0
    6.0950  -11.8630   -2.8340 N   0  0  0  0  0  0  0  0  0  0  0  0
    3.3580  -13.1240   -3.0240 C   0  0  0  0  0  0  0  0  0  0  0  0
   -0.4930  -13.7030   -0.5220 N   0  0  0  0  0  0  0  0  0  0  0  0
   -1.3670  -13.2870    0.5050 C   0  0  0  0  0  0  0  0  0  0  0  0
   -0.7810  -12.8020    1.6820 C   0  0  0  0  0  0  0  0  0  0  0  0
   -1.5710  -12.3700    2.7480 C   0  0  0  0  0  0  0  0  0  0  0  0
   -2.9600  -12.4120    2.6480 C   0  0  0  0  0  0  0  0  0  0  0  0
   -3.5690  -12.8810    1.4750 C   0  0  0  0  0  0  0  0  0  0  0  0
   -5.0710  -12.9470    1.3550 C   0  0  0  0  0  0  0  0  0  0  0  0
   -5.6850  -11.7800    1.6930 F   0  0  0  0  0  0  0  0  0  0  0  0
   -5.6320  -13.9010    2.1520 F   0  0  0  0  0  0  0  0  0  0  0  0
   -5.4800  -13.2360    0.0900 F   0  0  0  0  0  0  0  0  0  0  0  0
   -2.7590  -13.3220    0.4110 C   0  0  0  0  0  0  0  0  0  0  0  0
    1.1530  -14.6820   -1.9090 H   0  0  0  0  0  0  0  0  0  0  0  0
    0.2993  -13.0817   -4.5290 H   0  0  0  0  0  0  0  0  0  0  0  0
    1.6961  -12.3088   -6.4424 H   0  0  0  0  0  0  0  0  0  0  0  0
    4.1593  -12.0700   -6.1715 H   0  0  0  0  0  0  0  0  0  0  0  0
    6.0596  -13.5246   -5.8058 H   0  0  0  0  0  0  0  0  0  0  0  0
    8.8755  -13.7108   -6.4976 H   0  0  0  0  0  0  0  0  0  0  0  0
   11.0310  -12.8293   -5.1907 H   0  0  0  0  0  0  0  0  0  0  0  0
    8.8600  -10.9090   -1.4760 H   0  0  0  0  0  0  0  0  0  0  0  0
    7.6486  -10.1759    0.3347 H   0  0  0  0  0  0  0  0  0  0  0  0
    6.4259   -9.6673   -0.8801 H   0  0  0  0  0  0  0  0  0  0  0  0
    7.6773  -13.0539    0.2776 H   0  0  0  0  0  0  0  0  0  0  0  0
    6.1366  -14.8619    1.0292 H   0  0  0  0  0  0  0  0  0  0  0  0
    3.6806  -14.4491    1.1352 H   0  0  0  0  0  0  0  0  0  0  0  0
    2.7608  -12.2232    0.4854 H   0  0  0  0  0  0  0  0  0  0  0  0
    4.2936  -10.4105   -0.2670 H   0  0  0  0  0  0  0  0  0  0  0  0
    3.8238  -13.3344   -2.0499 H   0  0  0  0  0  0  0  0  0  0  0  0
   -0.5070  -14.6860   -0.7400 H   0  0  0  0  0  0  0  0  0  0  0  0
    0.3150  -12.7614    1.7665 H   0  0  0  0  0  0  0  0  0  0  0  0
   -1.0970  -11.9962    3.6675 H   0  0  0  0  0  0  0  0  0  0  0  0
   -3.5809  -12.0763    3.4917 H   0  0  0  0  0  0  0  0  0  0  0  0
   -3.2305  -13.6998   -0.5082 H   0  0  0  0  0  0  0  0  0  0  0  0
  1  2  2  0
  2  3  1  0
  3  4  1  0
  4  5  2  0
  5  6  1  0
  6  7  2  0
  7  8  1  0
  8  9  1  0
  9 10  2  0
 10 11  1  0
 11 12  1  0
 12 13  2  0
 13 14  1  0
 14 15  2  0
 15 16  1  0
 16 17  1  0
 17 18  1  0
 18 19  1  0
 19 20  2  0
 20 21  1  0
 21 22  2  0
 22 23  1  0
 23 24  2  0
 16 25  2  0
  8 26  2  0
  2 27  1  0
 27 28  1  0
 28 29  2  0
 29 30  1  0
 30 31  2  0
 31 32  1  0
 32 33  1  0
 33 34  1  0
 33 35  1  0
 33 36  1  0
 32 37  2  0
 26  4  1  0
 37 28  1  0
 25  9  1  0
 15 11  1  0
 24 19  1  0
  3 38  1  0
  5 39  1  0
  6 40  1  0
  7 41  1  0
 10 42  1  0
 12 43  1  0
 13 44  1  0
 17 45  1  0
 18 46  1  0
 18 47  1  0
 20 48  1  0
 21 49  1  0
 22 50  1  0
 23 51  1  0
 24 52  1  0
 26 53  1  0
 27 54  1  0
 29 55  1  0
 30 56  1  0
 31 57  1  0
 37 58  1  0
M  END
>  <meeko>  (4) 
{"is_sidechain": [false], "free_energy": -10.531, "intermolecular_energy": -14.577, "internal_energy": -0.73}

$$$$
LIB_MYAFDHCCQBIZLC__H_AF__e8__s20260927
     RDKit          3D

 58 62  0  0  0  0  0  0  0  0999 V2000
    0.0500  -13.4800   -1.1290 O   0  0  0  0  0  0  0  0  0  0  0  0
    0.2630  -12.4260   -0.5440 C   0  0  0  0  0  0  0  0  0  0  0  0
    1.1040  -11.4200   -1.0030 N   0  0  0  0  0  0  0  0  0  0  0  0
    1.9600  -11.4620   -2.1250 C   0  0  0  0  0  0  0  0  0  0  0  0
    1.4630  -10.9450   -3.3270 C   0  0  0  0  0  0  0  0  0  0  0  0
    2.2500  -10.9430   -4.4780 C   0  0  0  0  0  0  0  0  0  0  0  0
    3.5430  -11.4630   -4.4360 C   0  0  0  0  0  0  0  0  0  0  0  0
    4.0670  -11.9900   -3.2480 C   0  0  0  0  0  0  0  0  0  0  0  0
    5.4540  -12.5210   -3.2290 C   0  0  0  0  0  0  0  0  0  0  0  0
    6.4560  -11.8090   -3.7880 C   0  0  0  0  0  0  0  0  0  0  0  0
    7.7320  -12.3270   -3.7410 N   0  0  0  0  0  0  0  0  0  0  0  0
    8.9320  -11.8650   -4.2060 C   0  0  0  0  0  0  0  0  0  0  0  0
    9.8490  -12.8330   -3.8520 C   0  0  0  0  0  0  0  0  0  0  0  0
    9.2460  -13.8710   -3.1810 N   0  0  0  0  0  0  0  0  0  0  0  0
    7.9740  -13.5280   -3.1370 C   0  0  0  0  0  0  0  0  0  0  0  0
    6.8690  -14.2560   -2.5380 C   0  0  0  0  0  0  0  0  0  0  0  0
    7.0850  -15.4620   -1.9220 N   0  0  0  0  0  0  0  0  0  0  0  0
    6.0530  -16.2630   -1.3240 C   0  0  0  0  0  0  0  0  0  0  0  0
    5.1890  -15.3950   -0.4400 C   0  0  0  0  0  0  0  0  0  0  0  0
    5.7730  -14.4880    0.4560 C   0  0  0  0  0  0  0  0  0  0  0  0
    4.9740  -13.7050    1.2910 C   0  0  0  0  0  0  0  0  0  0  0  0
    3.5860  -13.8270    1.2450 C   0  0  0  0  0  0  0  0  0  0  0  0
    2.9950  -14.7350    0.3670 C   0  0  0  0  0  0  0  0  0  0  0  0
    3.7920  -15.5190   -0.4680 C   0  0  0  0  0  0  0  0  0  0  0  0
    5.6590  -13.7430   -2.5930 N   0  0  0  0  0  0  0  0  0  0  0  0
    3.2640  -11.9660   -2.0920 C   0  0  0  0  0  0  0  0  0  0  0  0
   -0.3060  -12.0610    0.6690 N   0  0  0  0  0  0  0  0  0  0  0  0
   -1.2870  -12.7560    1.4050 C   0  0  0  0  0  0  0  0  0  0  0  0
   -0.8360  -13.6120    2.4190 C   0  0  0  0  0  0  0  0  0  0  0  0
   -1.7400  -14.3370    3.1960 C   0  0  0  0  0  0  0  0  0  0  0  0
   -3.1090  -14.2120    2.9730 C   0  0  0  0  0  0  0  0  0  0  0  0
   -3.5850  -13.3530    1.9720 C   0  0  0  0  0  0  0  0  0  0  0  0
   -5.0630  -13.2170    1.7070 C   0  0  0  0  0  0  0  0  0  0  0  0
   -5.4360  -13.7140    0.4950 F   0  0  0  0  0  0  0  0  0  0  0  0
   -5.4940  -11.9230    1.7200 F   0  0  0  0  0  0  0  0  0  0  0  0
   -5.8210  -13.8680    2.6310 F   0  0  0  0  0  0  0  0  0  0  0  0
   -2.6620  -12.6340    1.1910 C   0  0  0  0  0  0  0  0  0  0  0  0
    1.0390  -10.5320   -0.5340 H   0  0  0  0  0  0  0  0  0  0  0  0
    0.4423  -10.5366   -3.3639 H   0  0  0  0  0  0  0  0  0  0  0  0
    1.8516  -10.5320   -5.4173 H   0  0  0  0  0  0  0  0  0  0  0  0
    4.1596  -11.4595   -5.3470 H   0  0  0  0  0  0  0  0  0  0  0  0
    6.2585  -10.8396   -4.2689 H   0  0  0  0  0  0  0  0  0  0  0  0
    9.1244  -10.9257   -4.7451 H   0  0  0  0  0  0  0  0  0  0  0  0
   10.9244  -12.7812   -4.0775 H   0  0  0  0  0  0  0  0  0  0  0  0
    8.0380  -15.8110   -1.9130 H   0  0  0  0  0  0  0  0  0  0  0  0
    5.4337  -16.7123   -2.1143 H   0  0  0  0  0  0  0  0  0  0  0  0
    6.5116  -17.0594   -0.7195 H   0  0  0  0  0  0  0  0  0  0  0  0
    6.8680  -14.3929    0.5012 H   0  0  0  0  0  0  0  0  0  0  0  0
    5.4401  -12.9910    1.9860 H   0  0  0  0  0  0  0  0  0  0  0  0
    2.9572  -13.2072    1.9011 H   0  0  0  0  0  0  0  0  0  0  0  0
    1.8999  -14.8333    0.3326 H   0  0  0  0  0  0  0  0  0  0  0  0
    3.3214  -16.2395   -1.1532 H   0  0  0  0  0  0  0  0  0  0  0  0
    3.6699  -12.3510   -1.1449 H   0  0  0  0  0  0  0  0  0  0  0  0
    0.0700  -11.2350    1.1060 H   0  0  0  0  0  0  0  0  0  0  0  0
    0.2435  -13.7134    2.6044 H   0  0  0  0  0  0  0  0  0  0  0  0
   -1.3710  -15.0081    3.9856 H   0  0  0  0  0  0  0  0  0  0  0  0
   -3.8190  -14.7888    3.5839 H   0  0  0  0  0  0  0  0  0  0  0  0
   -3.0290  -11.9648    0.3989 H   0  0  0  0  0  0  0  0  0  0  0  0
  1  2  2  0
  2  3  1  0
  3  4  1  0
  4  5  2  0
  5  6  1  0
  6  7  2  0
  7  8  1  0
  8  9  1  0
  9 10  2  0
 10 11  1  0
 11 12  1  0
 12 13  2  0
 13 14  1  0
 14 15  2  0
 15 16  1  0
 16 17  1  0
 17 18  1  0
 18 19  1  0
 19 20  2  0
 20 21  1  0
 21 22  2  0
 22 23  1  0
 23 24  2  0
 16 25  2  0
  8 26  2  0
  2 27  1  0
 27 28  1  0
 28 29  2  0
 29 30  1  0
 30 31  2  0
 31 32  1  0
 32 33  1  0
 33 34  1  0
 33 35  1  0
 33 36  1  0
 32 37  2  0
 26  4  1  0
 37 28  1  0
 25  9  1  0
 15 11  1  0
 24 19  1  0
  3 38  1  0
  5 39  1  0
  6 40  1  0
  7 41  1  0
 10 42  1  0
 12 43  1  0
 13 44  1  0
 17 45  1  0
 18 46  1  0
 18 47  1  0
 20 48  1  0
 21 49  1  0
 22 50  1  0
 23 51  1  0
 24 52  1  0
 26 53  1  0
 27 54  1  0
 29 55  1  0
 30 56  1  0
 31 57  1  0
 37 58  1  0
M  END
>  <meeko>  (5) 
{"is_sidechain": [false], "free_energy": -10.485, "intermolecular_energy": -14.525, "internal_energy": -0.72}

$$$$
LIB_MYAFDHCCQBIZLC__H_AF__e8__s20260927
     RDKit          3D

 58 62  0  0  0  0  0  0  0  0999 V2000
    0.6300  -13.7880   -0.3920 O   0  0  0  0  0  0  0  0  0  0  0  0
    0.4430  -12.5910   -0.2160 C   0  0  0  0  0  0  0  0  0  0  0  0
    1.0600  -11.5780   -0.9380 N   0  0  0  0  0  0  0  0  0  0  0  0
    2.0940  -11.7080   -1.8900 C   0  0  0  0  0  0  0  0  0  0  0  0
    1.7620  -11.4720   -3.2290 C   0  0  0  0  0  0  0  0  0  0  0  0
    2.7290  -11.5740   -4.2290 C   0  0  0  0  0  0  0  0  0  0  0  0
    4.0390  -11.9170   -3.8960 C   0  0  0  0  0  0  0  0  0  0  0  0
    4.4000  -12.1620   -2.5640 C   0  0  0  0  0  0  0  0  0  0  0  0
    5.8070  -12.5090   -2.2380 C   0  0  0  0  0  0  0  0  0  0  0  0
    6.5140  -11.7320   -1.3890 C   0  0  0  0  0  0  0  0  0  0  0  0
    7.8120  -12.0920   -1.0990 N   0  0  0  0  0  0  0  0  0  0  0  0
    8.7690  -11.5280   -0.3030 C   0  0  0  0  0  0  0  0  0  0  0  0
    9.8670  -12.3530   -0.4230 C   0  0  0  0  0  0  0  0  0  0  0  0
    9.6100  -13.4080   -1.2670 N   0  0  0  0  0  0  0  0  0  0  0  0
    8.3640  -13.2120   -1.6530 C   0  0  0  0  0  0  0  0  0  0  0  0
    7.5650  -14.0260   -2.5520 C   0  0  0  0  0  0  0  0  0  0  0  0
    8.0940  -15.1590   -3.1180 N   0  0  0  0  0  0  0  0  0  0  0  0
    7.3880  -16.0110   -4.0340 C   0  0  0  0  0  0  0  0  0  0  0  0
    7.8010  -15.6850   -5.4480 C   0  0  0  0  0  0  0  0  0  0  0  0
    8.9280  -16.2940   -6.0200 C   0  0  0  0  0  0  0  0  0  0  0  0
    9.3240  -15.9720   -7.3190 C   0  0  0  0  0  0  0  0  0  0  0  0
    8.6060  -15.0330   -8.0560 C   0  0  0  0  0  0  0  0  0  0  0  0
    7.4920  -14.4100   -7.4940 C   0  0  0  0  0  0  0  0  0  0  0  0
    7.0940  -14.7300   -6.1950 C   0  0  0  0  0  0  0  0  0  0  0  0
    6.3280  -13.6660   -2.8140 N   0  0  0  0  0  0  0  0  0  0  0  0
    3.4140  -12.0360   -1.5680 C   0  0  0  0  0  0  0  0  0  0  0  0
   -0.4220  -12.0520    0.7270 N   0  0  0  0  0  0  0  0  0  0  0  0
   -1.3070  -12.7430    1.5800 C   0  0  0  0  0  0  0  0  0  0  0  0
   -2.6180  -12.9280    1.1230 C   0  0  0  0  0  0  0  0  0  0  0  0
   -3.5590  -13.6010    1.9040 C   0  0  0  0  0  0  0  0  0  0  0  0
   -3.1980  -14.1040    3.1520 C   0  0  0  0  0  0  0  0  0  0  0  0
   -1.8880  -13.9420    3.6250 C   0  0  0  0  0  0  0  0  0  0  0  0
   -1.4830  -14.4670    4.9800 C   0  0  0  0  0  0  0  0  0  0  0  0
   -1.9440  -13.7020    6.0080 F   0  0  0  0  0  0  0  0  0  0  0  0
   -0.1320  -14.5330    5.1480 F   0  0  0  0  0  0  0  0  0  0  0  0
   -1.9460  -15.7260    5.2100 F   0  0  0  0  0  0  0  0  0  0  0  0
   -0.9520  -13.2540    2.8300 C   0  0  0  0  0  0  0  0  0  0  0  0
    0.6760  -10.6530   -0.8320 H   0  0  0  0  0  0  0  0  0  0  0  0
    0.7290  -11.2036   -3.4952 H   0  0  0  0  0  0  0  0  0  0  0  0
    2.4588  -11.3842   -5.2783 H   0  0  0  0  0  0  0  0  0  0  0  0
    4.7981  -11.9962   -4.6881 H   0  0  0  0  0  0  0  0  0  0  0  0
    6.0646  -10.8339   -0.9401 H   0  0  0  0  0  0  0  0  0  0  0  0
    8.6821  -10.6137    0.3024 H   0  0  0  0  0  0  0  0  0  0  0  0
   10.8258  -12.1885    0.0905 H   0  0  0  0  0  0  0  0  0  0  0  0
    9.0550  -15.3860   -2.8830 H   0  0  0  0  0  0  0  0  0  0  0  0
    7.6278  -17.0621   -3.8155 H   0  0  0  0  0  0  0  0  0  0  0  0
    6.3055  -15.8499   -3.9229 H   0  0  0  0  0  0  0  0  0  0  0  0
    9.5037  -17.0307   -5.4405 H   0  0  0  0  0  0  0  0  0  0  0  0
   10.2046  -16.4605   -7.7616 H   0  0  0  0  0  0  0  0  0  0  0  0
    8.9176  -14.7830   -9.0809 H   0  0  0  0  0  0  0  0  0  0  0  0
    6.9268  -13.6661   -8.0747 H   0  0  0  0  0  0  0  0  0  0  0  0
    6.2195  -14.2299   -5.7533 H   0  0  0  0  0  0  0  0  0  0  0  0
    3.6875  -12.1989   -0.5151 H   0  0  0  0  0  0  0  0  0  0  0  0
   -0.3670  -11.0550    0.8630 H   0  0  0  0  0  0  0  0  0  0  0  0
   -2.9096  -12.5382    0.1366 H   0  0  0  0  0  0  0  0  0  0  0  0
   -4.5862  -13.7343    1.5338 H   0  0  0  0  0  0  0  0  0  0  0  0
   -3.9426  -14.6296    3.7679 H   0  0  0  0  0  0  0  0  0  0  0  0
    0.0751  -13.1168    3.1992 H   0  0  0  0  0  0  0  0  0  0  0  0
  1  2  2  0
  2  3  1  0
  3  4  1  0
  4  5  2  0
  5  6  1  0
  6  7  2  0
  7  8  1  0
  8  9  1  0
  9 10  2  0
 10 11  1  0
 11 12  1  0
 12 13  2  0
 13 14  1  0
 14 15  2  0
 15 16  1  0
 16 17  1  0
 17 18  1  0
 18 19  1  0
 19 20  2  0
 20 21  1  0
 21 22  2  0
 22 23  1  0
 23 24  2  0
 16 25  2  0
  8 26  2  0
  2 27  1  0
 27 28  1  0
 28 29  2  0
 29 30  1  0
 30 31  2  0
 31 32  1  0
 32 33  1  0
 33 34  1  0
 33 35  1  0
 33 36  1  0
 32 37  2  0
 26  4  1  0
 37 28  1  0
 25  9  1  0
 15 11  1  0
 24 19  1  0
  3 38  1  0
  5 39  1  0
  6 40  1  0
  7 41  1  0
 10 42  1  0
 12 43  1  0
 13 44  1  0
 17 45  1  0
 18 46  1  0
 18 47  1  0
 20 48  1  0
 21 49  1  0
 22 50  1  0
 23 51  1  0
 24 52  1  0
 26 53  1  0
 27 54  1  0
 29 55  1  0
 30 56  1  0
 31 57  1  0
 37 58  1  0
M  END
>  <meeko>  (6) 
{"is_sidechain": [false], "free_energy": -10.47, "intermolecular_energy": -14.06, "internal_energy": -1.165}

$$$$
LIB_MYAFDHCCQBIZLC__H_AF__e8__s20260927
     RDKit          3D

 58 62  0  0  0  0  0  0  0  0999 V2000
    0.3070  -11.6760   -0.9890 O   0  0  0  0  0  0  0  0  0  0  0  0
    0.2820  -12.8990   -0.9690 C   0  0  0  0  0  0  0  0  0  0  0  0
    1.1660  -13.7210   -1.6560 N   0  0  0  0  0  0  0  0  0  0  0  0
    2.1500  -13.3340   -2.5910 C   0  0  0  0  0  0  0  0  0  0  0  0
    1.7070  -12.9610   -3.8650 C   0  0  0  0  0  0  0  0  0  0  0  0
    2.6170  -12.5600   -4.8430 C   0  0  0  0  0  0  0  0  0  0  0  0
    3.9810  -12.5300   -4.5530 C   0  0  0  0  0  0  0  0  0  0  0  0
    4.4530  -12.9010   -3.2860 C   0  0  0  0  0  0  0  0  0  0  0  0
    5.9110  -12.8440   -3.0020 C   0  0  0  0  0  0  0  0  0  0  0  0
    6.3490  -12.3320   -1.8310 C   0  0  0  0  0  0  0  0  0  0  0  0
    7.7060  -12.3080   -1.5960 N   0  0  0  0  0  0  0  0  0  0  0  0
    8.4500  -11.8620   -0.5390 C   0  0  0  0  0  0  0  0  0  0  0  0
    9.7600  -12.1100   -0.8930 C   0  0  0  0  0  0  0  0  0  0  0  0
    9.8390  -12.6970   -2.1350 N   0  0  0  0  0  0  0  0  0  0  0  0
    8.5830  -12.7960   -2.5220 C   0  0  0  0  0  0  0  0  0  0  0  0
    8.0680  -13.3490   -3.7630 C   0  0  0  0  0  0  0  0  0  0  0  0
    8.9260  -13.8500   -4.7090 N   0  0  0  0  0  0  0  0  0  0  0  0
    8.5110  -14.3940   -5.9720 C   0  0  0  0  0  0  0  0  0  0  0  0
    9.6710  -14.3720   -6.9370 C   0  0  0  0  0  0  0  0  0  0  0  0
    9.4470  -14.3900   -8.3210 C   0  0  0  0  0  0  0  0  0  0  0  0
   10.5210  -14.3960   -9.2130 C   0  0  0  0  0  0  0  0  0  0  0  0
   11.8290  -14.3940   -8.7300 C   0  0  0  0  0  0  0  0  0  0  0  0
   12.0640  -14.3910   -7.3560 C   0  0  0  0  0  0  0  0  0  0  0  0
   10.9920  -14.3850   -6.4630 C   0  0  0  0  0  0  0  0  0  0  0  0
    6.7690  -13.3640   -3.9670 N   0  0  0  0  0  0  0  0  0  0  0  0
    3.5180  -13.2860   -2.3080 C   0  0  0  0  0  0  0  0  0  0  0  0
   -0.6290  -13.6640   -0.2530 N   0  0  0  0  0  0  0  0  0  0  0  0
   -1.6160  -13.2120    0.6470 C   0  0  0  0  0  0  0  0  0  0  0  0
   -1.1700  -12.5970    1.8250 C   0  0  0  0  0  0  0  0  0  0  0  0
   -2.0800  -12.1210    2.7710 C   0  0  0  0  0  0  0  0  0  0  0  0
   -3.4480  -12.2470    2.5470 C   0  0  0  0  0  0  0  0  0  0  0  0
   -3.9180  -12.8480    1.3700 C   0  0  0  0  0  0  0  0  0  0  0  0
   -5.3970  -13.0060    1.1190 C   0  0  0  0  0  0  0  0  0  0  0  0
   -6.1100  -11.8800    1.3990 F   0  0  0  0  0  0  0  0  0  0  0  0
   -5.9650  -13.9950    1.8660 F   0  0  0  0  0  0  0  0  0  0  0  0
   -5.6740  -13.3160   -0.1770 F   0  0  0  0  0  0  0  0  0  0  0  0
   -2.9900  -13.3310    0.4290 C   0  0  0  0  0  0  0  0  0  0  0  0
    1.1620  -14.6960   -1.4020 H   0  0  0  0  0  0  0  0  0  0  0  0
    0.6320  -12.9843   -4.0971 H   0  0  0  0  0  0  0  0  0  0  0  0
    2.2595  -12.2679   -5.8414 H   0  0  0  0  0  0  0  0  0  0  0  0
    4.6946  -12.2116   -5.3272 H   0  0  0  0  0  0  0  0  0  0  0  0
    5.6402  -11.9443   -1.0845 H   0  0  0  0  0  0  0  0  0  0  0  0
    8.0834  -11.4046    0.3918 H   0  0  0  0  0  0  0  0  0  0  0  0
   10.6294  -11.8695   -0.2635 H   0  0  0  0  0  0  0  0  0  0  0  0
    9.9190  -13.8090   -4.4990 H   0  0  0  0  0  0  0  0  0  0  0  0
    8.1718  -15.4308   -5.8306 H   0  0  0  0  0  0  0  0  0  0  0  0
    7.6863  -13.7894   -6.3775 H   0  0  0  0  0  0  0  0  0  0  0  0
    8.4170  -14.3995   -8.7070 H   0  0  0  0  0  0  0  0  0  0  0  0
   10.3352  -14.4023  -10.2972 H   0  0  0  0  0  0  0  0  0  0  0  0
   12.6751  -14.3948   -9.4329 H   0  0  0  0  0  0  0  0  0  0  0  0
   13.0960  -14.3934   -6.9753 H   0  0  0  0  0  0  0  0  0  0  0  0
   11.1835  -14.3905   -5.3798 H   0  0  0  0  0  0  0  0  0  0  0  0
    3.8702  -13.5545   -1.3011 H   0  0  0  0  0  0  0  0  0  0  0  0
   -0.6280  -14.6530   -0.4450 H   0  0  0  0  0  0  0  0  0  0  0  0
   -0.0905  -12.4881    2.0063 H   0  0  0  0  0  0  0  0  0  0  0  0
   -1.7156  -11.6461    3.6939 H   0  0  0  0  0  0  0  0  0  0  0  0
   -4.1627  -11.8741    3.2954 H   0  0  0  0  0  0  0  0  0  0  0  0
   -3.3526  -13.8097   -0.4926 H   0  0  0  0  0  0  0  0  0  0  0  0
  1  2  2  0
  2  3  1  0
  3  4  1  0
  4  5  2  0
  5  6  1  0
  6  7  2  0
  7  8  1  0
  8  9  1  0
  9 10  2  0
 10 11  1  0
 11 12  1  0
 12 13  2  0
 13 14  1  0
 14 15  2  0
 15 16  1  0
 16 17  1  0
 17 18  1  0
 18 19  1  0
 19 20  2  0
 20 21  1  0
 21 22  2  0
 22 23  1  0
 23 24  2  0
 16 25  2  0
  8 26  2  0
  2 27  1  0
 27 28  1  0
 28 29  2  0
 29 30  1  0
 30 31  2  0
 31 32  1  0
 32 33  1  0
 33 34  1  0
 33 35  1  0
 33 36  1  0
 32 37  2  0
 26  4  1  0
 37 28  1  0
 25  9  1  0
 15 11  1  0
 24 19  1  0
  3 38  1  0
  5 39  1  0
  6 40  1  0
  7 41  1  0
 10 42  1  0
 12 43  1  0
 13 44  1  0
 17 45  1  0
 18 46  1  0
 18 47  1  0
 20 48  1  0
 21 49  1  0
 22 50  1  0
 23 51  1  0
 24 52  1  0
 26 53  1  0
 27 54  1  0
 29 55  1  0
 30 56  1  0
 31 57  1  0
 37 58  1  0
M  END
>  <meeko>  (7) 
{"is_sidechain": [false], "free_energy": -10.465, "intermolecular_energy": -14.34, "internal_energy": -0.878}

$$$$
LIB_MYAFDHCCQBIZLC__H_AF__e8__s20260927
     RDKit          3D

 58 62  0  0  0  0  0  0  0  0999 V2000
    1.1580  -12.4220   -0.1640 O   0  0  0  0  0  0  0  0  0  0  0  0
    1.3120  -13.2810    0.6950 C   0  0  0  0  0  0  0  0  0  0  0  0
    2.5280  -13.8690    1.0200 N   0  0  0  0  0  0  0  0  0  0  0  0
    3.7650  -13.7050    0.3610 C   0  0  0  0  0  0  0  0  0  0  0  0
    4.9160  -13.6950    1.1570 C   0  0  0  0  0  0  0  0  0  0  0  0
    6.1770  -13.5440    0.5800 C   0  0  0  0  0  0  0  0  0  0  0  0
    6.2960  -13.3980   -0.8020 C   0  0  0  0  0  0  0  0  0  0  0  0
    5.1610  -13.4020   -1.6240 C   0  0  0  0  0  0  0  0  0  0  0  0
    5.3200  -13.2610   -3.0940 C   0  0  0  0  0  0  0  0  0  0  0  0
    4.3600  -12.6490   -3.8210 C   0  0  0  0  0  0  0  0  0  0  0  0
    4.5480  -12.5250   -5.1800 N   0  0  0  0  0  0  0  0  0  0  0  0
    3.7810  -11.9740   -6.1700 C   0  0  0  0  0  0  0  0  0  0  0  0
    4.5080  -12.1570   -7.3280 C   0  0  0  0  0  0  0  0  0  0  0  0
    5.6970  -12.8000   -7.0760 N   0  0  0  0  0  0  0  0  0  0  0  0
    5.6810  -13.0040   -5.7730 C   0  0  0  0  0  0  0  0  0  0  0  0
    6.6930  -13.6460   -4.9540 C   0  0  0  0  0  0  0  0  0  0  0  0
    7.8430  -14.1320   -5.5230 N   0  0  0  0  0  0  0  0  0  0  0  0
    8.8870  -14.8000   -4.7970 C   0  0  0  0  0  0  0  0  0  0  0  0
    9.9980  -13.8240   -4.4960 C   0  0  0  0  0  0  0  0  0  0  0  0
   11.0410  -13.6280   -5.4130 C   0  0  0  0  0  0  0  0  0  0  0  0
   12.0810  -12.7440   -5.1230 C   0  0  0  0  0  0  0  0  0  0  0  0
   12.0950  -12.0550   -3.9120 C   0  0  0  0  0  0  0  0  0  0  0  0
   11.0700  -12.2510   -2.9870 C   0  0  0  0  0  0  0  0  0  0  0  0
   10.0290  -13.1350   -3.2750 C   0  0  0  0  0  0  0  0  0  0  0  0
    6.4950  -13.7520   -3.6580 N   0  0  0  0  0  0  0  0  0  0  0  0
    3.8990  -13.5730   -1.0250 C   0  0  0  0  0  0  0  0  0  0  0  0
    0.2980  -13.8040    1.4860 N   0  0  0  0  0  0  0  0  0  0  0  0
   -1.0520  -13.3990    1.5370 C   0  0  0  0  0  0  0  0  0  0  0  0
   -1.4550  -12.6660    2.6610 C   0  0  0  0  0  0  0  0  0  0  0  0
   -2.7730  -12.2260    2.7920 C   0  0  0  0  0  0  0  0  0  0  0  0
   -3.7040  -12.5080    1.7960 C   0  0  0  0  0  0  0  0  0  0  0  0
   -3.3220  -13.2300    0.6560 C   0  0  0  0  0  0  0  0  0  0  0  0
   -4.3210  -13.5570   -0.4250 C   0  0  0  0  0  0  0  0  0  0  0  0
   -4.2580  -14.8550   -0.8340 F   0  0  0  0  0  0  0  0  0  0  0  0
   -4.1550  -12.8100   -1.5530 F   0  0  0  0  0  0  0  0  0  0  0  0
   -5.6050  -13.3480   -0.0280 F   0  0  0  0  0  0  0  0  0  0  0  0
   -1.9910  -13.6740    0.5410 C   0  0  0  0  0  0  0  0  0  0  0  0
    2.5520  -14.4110    1.8680 H   0  0  0  0  0  0  0  0  0  0  0  0
    4.8255  -13.8072    2.2475 H   0  0  0  0  0  0  0  0  0  0  0  0
    7.0760  -13.5401    1.2138 H   0  0  0  0  0  0  0  0  0  0  0  0
    7.2926  -13.2783   -1.2520 H   0  0  0  0  0  0  0  0  0  0  0  0
    3.4508  -12.2594   -3.3398 H   0  0  0  0  0  0  0  0  0  0  0  0
    2.7986  -11.4904   -6.0653 H   0  0  0  0  0  0  0  0  0  0  0  0
    4.1787  -11.8303   -8.3254 H   0  0  0  0  0  0  0  0  0  0  0  0
    7.9400  -14.0250   -6.5280 H   0  0  0  0  0  0  0  0  0  0  0  0
    8.4818  -15.1958   -3.8540 H   0  0  0  0  0  0  0  0  0  0  0  0
    9.2822  -15.6279   -5.4039 H   0  0  0  0  0  0  0  0  0  0  0  0
   11.0392  -14.1749   -6.3674 H   0  0  0  0  0  0  0  0  0  0  0  0
   12.8909  -12.5909   -5.8514 H   0  0  0  0  0  0  0  0  0  0  0  0
   12.9143  -11.3567   -3.6857 H   0  0  0  0  0  0  0  0  0  0  0  0
   11.0819  -11.7087   -2.0300 H   0  0  0  0  0  0  0  0  0  0  0  0
    9.2270  -13.2924   -2.5388 H   0  0  0  0  0  0  0  0  0  0  0  0
    3.0007  -13.6034   -1.6591 H   0  0  0  0  0  0  0  0  0  0  0  0
    0.5390  -14.6070    2.0450 H   0  0  0  0  0  0  0  0  0  0  0  0
   -0.7239  -12.4346    3.4496 H   0  0  0  0  0  0  0  0  0  0  0  0
   -3.0764  -11.6561    3.6826 H   0  0  0  0  0  0  0  0  0  0  0  0
   -4.7430  -12.1632    1.9036 H   0  0  0  0  0  0  0  0  0  0  0  0
   -1.6861  -14.2465   -0.3474 H   0  0  0  0  0  0  0  0  0  0  0  0
  1  2  2  0
  2  3  1  0
  3  4  1  0
  4  5  2  0
  5  6  1  0
  6  7  2  0
  7  8  1  0
  8  9  1  0
  9 10  2  0
 10 11  1  0
 11 12  1  0
 12 13  2  0
 13 14  1  0
 14 15  2  0
 15 16  1  0
 16 17  1  0
 17 18  1  0
 18 19  1  0
 19 20  2  0
 20 21  1  0
 21 22  2  0
 22 23  1  0
 23 24  2  0
 16 25  2  0
  8 26  2  0
  2 27  1  0
 27 28  1  0
 28 29  2  0
 29 30  1  0
 30 31  2  0
 31 32  1  0
 32 33  1  0
 33 34  1  0
 33 35  1  0
 33 36  1  0
 32 37  2  0
 26  4  1  0
 37 28  1  0
 25  9  1  0
 15 11  1  0
 24 19  1  0
  3 38  1  0
  5 39  1  0
  6 40  1  0
  7 41  1  0
 10 42  1  0
 12 43  1  0
 13 44  1  0
 17 45  1  0
 18 46  1  0
 18 47  1  0
 20 48  1  0
 21 49  1  0
 22 50  1  0
 23 51  1  0
 24 52  1  0
 26 53  1  0
 27 54  1  0
 29 55  1  0
 30 56  1  0
 31 57  1  0
 37 58  1  0
M  END
>  <meeko>  (8) 
{"is_sidechain": [false], "free_energy": -10.43, "intermolecular_energy": -14.23, "internal_energy": -0.94}

$$$$
LIB_MYAFDHCCQBIZLC__H_AF__e8__s20260927
     RDKit          3D

 58 62  0  0  0  0  0  0  0  0999 V2000
    0.7930  -13.5230   -1.9200 O   0  0  0  0  0  0  0  0  0  0  0  0
    0.6810  -12.3180   -1.7350 C   0  0  0  0  0  0  0  0  0  0  0  0
    1.3570  -11.3400   -2.4530 N   0  0  0  0  0  0  0  0  0  0  0  0
    2.3760  -11.5270   -3.4110 C   0  0  0  0  0  0  0  0  0  0  0  0
    2.0650  -11.2210   -4.7410 C   0  0  0  0  0  0  0  0  0  0  0  0
    3.0210  -11.3720   -5.7460 C   0  0  0  0  0  0  0  0  0  0  0  0
    4.2970  -11.8360   -5.4270 C   0  0  0  0  0  0  0  0  0  0  0  0
    4.6360  -12.1520   -4.1050 C   0  0  0  0  0  0  0  0  0  0  0  0
    6.0080  -12.6280   -3.7930 C   0  0  0  0  0  0  0  0  0  0  0  0
    7.0780  -11.9150   -4.2050 C   0  0  0  0  0  0  0  0  0  0  0  0
    8.3360  -12.3790   -3.8870 N   0  0  0  0  0  0  0  0  0  0  0  0
    9.5890  -11.9030   -4.1540 C   0  0  0  0  0  0  0  0  0  0  0  0
   10.4490  -12.8090   -3.5690 C   0  0  0  0  0  0  0  0  0  0  0  0
    9.7580  -13.8240   -2.9490 N   0  0  0  0  0  0  0  0  0  0  0  0
    8.4920  -13.5280   -3.1650 C   0  0  0  0  0  0  0  0  0  0  0  0
    7.3140  -14.2580   -2.7310 C   0  0  0  0  0  0  0  0  0  0  0  0
    7.4410  -15.4130   -2.0010 N   0  0  0  0  0  0  0  0  0  0  0  0
    6.3370  -16.2120   -1.5490 C   0  0  0  0  0  0  0  0  0  0  0  0
    5.4580  -15.3900   -0.6390 C   0  0  0  0  0  0  0  0  0  0  0  0
    4.0600  -15.4810   -0.7250 C   0  0  0  0  0  0  0  0  0  0  0  0
    3.2480  -14.7010    0.1000 C   0  0  0  0  0  0  0  0  0  0  0  0
    3.8220  -13.8160    1.0100 C   0  0  0  0  0  0  0  0  0  0  0  0
    5.2100  -13.7070    1.0950 C   0  0  0  0  0  0  0  0  0  0  0  0
    6.0240  -14.4850    0.2720 C   0  0  0  0  0  0  0  0  0  0  0  0
    6.1230  -13.7970   -3.0440 N   0  0  0  0  0  0  0  0  0  0  0  0
    3.6640  -11.9760   -3.1020 C   0  0  0  0  0  0  0  0  0  0  0  0
   -0.1440  -11.7340   -0.7840 N   0  0  0  0  0  0  0  0  0  0  0  0
   -1.0660  -12.3750    0.0690 C   0  0  0  0  0  0  0  0  0  0  0  0
   -2.2950  -12.7520   -0.4890 C   0  0  0  0  0  0  0  0  0  0  0  0
   -3.2650  -13.3920    0.2840 C   0  0  0  0  0  0  0  0  0  0  0  0
   -3.0160  -13.6680    1.6260 C   0  0  0  0  0  0  0  0  0  0  0  0
   -1.7890  -13.3110    2.2040 C   0  0  0  0  0  0  0  0  0  0  0  0
   -1.5080  -13.5900    3.6590 C   0  0  0  0  0  0  0  0  0  0  0  0
   -2.1020  -14.7300    4.1090 F   0  0  0  0  0  0  0  0  0  0  0  0
   -1.9430  -12.5990    4.4890 F   0  0  0  0  0  0  0  0  0  0  0  0
   -0.1790  -13.7300    3.9160 F   0  0  0  0  0  0  0  0  0  0  0  0
   -0.8230  -12.6600    1.4140 C   0  0  0  0  0  0  0  0  0  0  0  0
    1.0310  -10.3940   -2.3380 H   0  0  0  0  0  0  0  0  0  0  0  0
    1.0583  -10.8584   -4.9961 H   0  0  0  0  0  0  0  0  0  0  0  0
    2.7688  -11.1256   -6.7880 H   0  0  0  0  0  0  0  0  0  0  0  0
    5.0464  -11.9553   -6.2233 H   0  0  0  0  0  0  0  0  0  0  0  0
    6.9487  -10.9865   -4.7804 H   0  0  0  0  0  0  0  0  0  0  0  0
    9.8542  -10.9942   -4.7141 H   0  0  0  0  0  0  0  0  0  0  0  0
   11.5459  -12.7300   -3.5949 H   0  0  0  0  0  0  0  0  0  0  0  0
    8.3850  -15.7240   -1.7920 H   0  0  0  0  0  0  0  0  0  0  0  0
    5.7511  -16.5511   -2.4160 H   0  0  0  0  0  0  0  0  0  0  0  0
    6.7182  -17.0849   -0.9988 H   0  0  0  0  0  0  0  0  0  0  0  0
    3.6011  -16.1718   -1.4476 H   0  0  0  0  0  0  0  0  0  0  0  0
    2.1534  -14.7852    0.0315 H   0  0  0  0  0  0  0  0  0  0  0  0
    3.1810  -13.2035    1.6611 H   0  0  0  0  0  0  0  0  0  0  0  0
    5.6631  -13.0066    1.8120 H   0  0  0  0  0  0  0  0  0  0  0  0
    7.1178  -14.3885    0.3375 H   0  0  0  0  0  0  0  0  0  0  0  0
    3.9224  -12.1957   -2.0556 H   0  0  0  0  0  0  0  0  0  0  0  0
   -0.0270  -10.7440   -0.6410 H   0  0  0  0  0  0  0  0  0  0  0  0
   -2.4977  -12.5409   -1.5494 H   0  0  0  0  0  0  0  0  0  0  0  0
   -4.2265  -13.6785   -0.1670 H   0  0  0  0  0  0  0  0  0  0  0  0
   -3.7841  -14.1676    2.2347 H   0  0  0  0  0  0  0  0  0  0  0  0
    0.1386  -12.3712    1.8634 H   0  0  0  0  0  0  0  0  0  0  0  0
  1  2  2  0
  2  3  1  0
  3  4  1  0
  4  5  2  0
  5  6  1  0
  6  7  2  0
  7  8  1  0
  8  9  1  0
  9 10  2  0
 10 11  1  0
 11 12  1  0
 12 13  2  0
 13 14  1  0
 14 15  2  0
 15 16  1  0
 16 17  1  0
 17 18  1  0
 18 19  1  0
 19 20  2  0
 20 21  1  0
 21 22  2  0
 22 23  1  0
 23 24  2  0
 16 25  2  0
  8 26  2  0
  2 27  1  0
 27 28  1  0
 28 29  2  0
 29 30  1  0
 30 31  2  0
 31 32  1  0
 32 33  1  0
 33 34  1  0
 33 35  1  0
 33 36  1  0
 32 37  2  0
 26  4  1  0
 37 28  1  0
 25  9  1  0
 15 11  1  0
 24 19  1  0
  3 38  1  0
  5 39  1  0
  6 40  1  0
  7 41  1  0
 10 42  1  0
 12 43  1  0
 13 44  1  0
 17 45  1  0
 18 46  1  0
 18 47  1  0
 20 48  1  0
 21 49  1  0
 22 50  1  0
 23 51  1  0
 24 52  1  0
 26 53  1  0
 27 54  1  0
 29 55  1  0
 30 56  1  0
 31 57  1  0
 37 58  1  0
M  END
>  <meeko>  (9) 
{"is_sidechain": [false], "free_energy": -10.311, "intermolecular_energy": -13.986, "internal_energy": -1.023}

$$$$
