REF_CHEMBL554__M_PUB_ALL__e8__s20260927
     RDKit          3D

 67 71  0  0  0  0  0  0  0  0999 V2000
   16.9110  -16.8130  -10.7910 C   0  0  0  0  0  0  0  0  0  0  0  0
   15.7890  -16.2110   -9.5490 S   0  0  0  0  0  0  0  0  0  0  0  0
   15.1310  -17.3320   -8.8950 O   0  0  0  0  0  0  0  0  0  0  0  0
   16.4370  -15.1860   -8.7600 O   0  0  0  0  0  0  0  0  0  0  0  0
   14.4940  -15.4120  -10.4550 C   0  0  0  0  0  0  0  0  0  0  0  0
   14.5810  -13.9110  -10.2110 C   0  0  0  0  0  0  0  0  0  0  0  0
   13.9380  -13.5280   -8.9040 N   0  0  0  0  0  0  0  0  0  0  0  0
   12.8190  -14.4170   -8.4600 C   0  0  0  0  0  0  0  0  0  0  0  0
   12.9490  -14.7940   -7.0340 C   0  0  0  0  0  0  0  0  0  0  0  0
   13.1620  -15.9850   -6.3760 C   0  0  0  0  0  0  0  0  0  0  0  0
   13.2150  -15.6690   -4.9950 C   0  0  0  0  0  0  0  0  0  0  0  0
   13.0210  -14.3060   -4.8850 C   0  0  0  0  0  0  0  0  0  0  0  0
   12.9820  -13.3660   -3.7710 C   0  0  0  0  0  0  0  0  0  0  0  0
   13.8230  -12.2530   -3.7280 C   0  0  0  0  0  0  0  0  0  0  0  0
   13.7900  -11.3780   -2.6360 C   0  0  0  0  0  0  0  0  0  0  0  0
   12.9330  -11.5710   -1.5640 C   0  0  0  0  0  0  0  0  0  0  0  0
   12.9830  -10.7070   -0.5500 N   0  0  0  0  0  0  0  0  0  0  0  0
   12.1550  -10.9360    0.4750 C   0  0  0  0  0  0  0  0  0  0  0  0
   11.2810  -11.9410    0.5680 N   0  0  0  0  0  0  0  0  0  0  0  0
   11.2180  -12.7940   -0.4690 C   0  0  0  0  0  0  0  0  0  0  0  0
   10.2750  -13.8460   -0.4260 N   0  0  0  0  0  0  0  0  0  0  0  0
    8.9400  -13.8900   -0.8680 C   0  0  0  0  0  0  0  0  0  0  0  0
    8.2340  -15.0870   -1.0380 C   0  0  0  0  0  0  0  0  0  0  0  0
    6.9220  -15.0930   -1.5230 C   0  0  0  0  0  0  0  0  0  0  0  0
    6.2960  -13.8900   -1.8420 C   0  0  0  0  0  0  0  0  0  0  0  0
    5.0280  -13.9280   -2.3570 O   0  0  0  0  0  0  0  0  0  0  0  0
    4.9830  -14.7740   -3.5120 C   0  0  0  0  0  0  0  0  0  0  0  0
    5.0790  -13.9000   -4.7360 C   0  0  0  0  0  0  0  0  0  0  0  0
    5.8970  -14.2790   -5.8130 C   0  0  0  0  0  0  0  0  0  0  0  0
    5.9870  -13.4800   -6.9560 C   0  0  0  0  0  0  0  0  0  0  0  0
    5.2560  -12.2970   -7.0350 C   0  0  0  0  0  0  0  0  0  0  0  0
    4.4390  -11.9250   -5.9730 C   0  0  0  0  0  0  0  0  0  0  0  0
    3.7320  -10.7900   -6.0510 F   0  0  0  0  0  0  0  0  0  0  0  0
    4.3430  -12.7130   -4.8310 C   0  0  0  0  0  0  0  0  0  0  0  0
    6.9940  -12.6890   -1.7160 C   0  0  0  0  0  0  0  0  0  0  0  0
    6.2780  -11.1800   -2.1530 Cl  0  0  0  0  0  0  0  0  0  0  0  0
    8.3050  -12.6900   -1.2310 C   0  0  0  0  0  0  0  0  0  0  0  0
   12.0610  -12.6660   -1.5920 C   0  0  0  0  0  0  0  0  0  0  0  0
   12.0980  -13.5590   -2.7010 C   0  0  0  0  0  0  0  0  0  0  0  0
   12.8600  -13.7710   -6.1340 O   0  0  0  0  0  0  0  0  0  0  0  0
   17.7804  -17.2795  -10.3046 H   0  0  0  0  0  0  0  0  0  0  0  0
   16.3986  -17.5573  -11.4182 H   0  0  0  0  0  0  0  0  0  0  0  0
   17.2479  -15.9745  -11.4182 H   0  0  0  0  0  0  0  0  0  0  0  0
   14.6110  -15.6198  -11.5288 H   0  0  0  0  0  0  0  0  0  0  0  0
   13.5159  -15.7896  -10.1222 H   0  0  0  0  0  0  0  0  0  0  0  0
   15.6396  -13.6127  -10.1899 H   0  0  0  0  0  0  0  0  0  0  0  0
   14.0464  -13.3969  -11.0233 H   0  0  0  0  0  0  0  0  0  0  0  0
   13.5730  -12.5550   -8.9610 H   0  0  0  0  0  0  0  0  0  0  0  0
   14.6320  -13.5320   -8.1440 H   0  0  0  0  0  0  0  0  0  0  0  0
   11.8655  -13.8875   -8.6028 H   0  0  0  0  0  0  0  0  0  0  0  0
   12.8541  -15.3373   -9.0616 H   0  0  0  0  0  0  0  0  0  0  0  0
   13.2694  -16.9809   -6.8305 H   0  0  0  0  0  0  0  0  0  0  0  0
   13.3794  -16.3754   -4.1680 H   0  0  0  0  0  0  0  0  0  0  0  0
   14.5176  -12.0618   -4.5593 H   0  0  0  0  0  0  0  0  0  0  0  0
   14.4655  -10.5099   -2.6284 H   0  0  0  0  0  0  0  0  0  0  0  0
   12.1980  -10.2317    1.3189 H   0  0  0  0  0  0  0  0  0  0  0  0
   10.7150  -14.7520   -0.3280 H   0  0  0  0  0  0  0  0  0  0  0  0
    8.7203  -16.0408   -0.7854 H   0  0  0  0  0  0  0  0  0  0  0  0
    6.3861  -16.0449   -1.6522 H   0  0  0  0  0  0  0  0  0  0  0  0
    5.8266  -15.4796   -3.4905 H   0  0  0  0  0  0  0  0  0  0  0  0
    4.0456  -15.3494   -3.5269 H   0  0  0  0  0  0  0  0  0  0  0  0
    6.4728  -15.2145   -5.7562 H   0  0  0  0  0  0  0  0  0  0  0  0
    6.6340  -13.7848   -7.7918 H   0  0  0  0  0  0  0  0  0  0  0  0
    5.3245  -11.6619   -7.9305 H   0  0  0  0  0  0  0  0  0  0  0  0
    3.6888  -12.4036   -4.0026 H   0  0  0  0  0  0  0  0  0  0  0  0
    8.8473  -11.7381   -1.1321 H   0  0  0  0  0  0  0  0  0  0  0  0
   11.4157  -14.4216   -2.7180 H   0  0  0  0  0  0  0  0  0  0  0  0
  1  2  1  0
  2  3  2  0
  2  4  2  0
  2  5  1  0
  5  6  1  0
  6  7  1  0
  7  8  1  0
  8  9  1  0
  9 10  2  0
 10 11  1  0
 11 12  2  0
 12 13  1  0
 13 14  2  0
 14 15  1  0
 15 16  2  0
 16 17  1  0
 17 18  2  0
 18 19  1  0
 19 20  2  0
 20 21  1  0
 21 22  1  0
 22 23  2  0
 23 24  1  0
 24 25  2  0
 25 26  1  0
 26 27  1  0
 27 28  1  0
 28 29  2  0
 29 30  1  0
 30 31  2  0
 31 32  1  0
 32 33  1  0
 32 34  2  0
 25 35  1  0
 35 36  1  0
 35 37  2  0
 20 38  1  0
 38 39  2  0
 12 40  1  0
 40  9  1  0
 39 13  1  0
 38 16  1  0
 37 22  1  0
 34 28  1  0
  1 41  1  0
  1 42  1  0
  1 43  1  0
  5 44  1  0
  5 45  1  0
  6 46  1  0
  6 47  1  0
  7 48  1  0
  7 49  1  0
  8 50  1  0
  8 51  1  0
 10 52  1  0
 11 53  1  0
 14 54  1  0
 15 55  1  0
 18 56  1  0
 21 57  1  0
 23 58  1  0
 24 59  1  0
 27 60  1  0
 27 61  1  0
 29 62  1  0
 30 63  1  0
 31 64  1  0
 34 65  1  0
 37 66  1  0
 39 67  1  0
M  CHG  1   7   1
M  END
>  <meeko>  (1) 
{"is_sidechain": [false], "free_energy": -8.403, "intermolecular_energy": -13.807, "internal_energy": -2.351}

$$$$
REF_CHEMBL554__M_PUB_ALL__e8__s20260927
     RDKit          3D

 67 71  0  0  0  0  0  0  0  0999 V2000
    5.8470  -16.7930   -5.8590 C   0  0  0  0  0  0  0  0  0  0  0  0
    7.2030  -16.5480   -6.9830 S   0  0  0  0  0  0  0  0  0  0  0  0
    8.4640  -16.6790   -6.2680 O   0  0  0  0  0  0  0  0  0  0  0  0
    6.9730  -17.2980   -8.1980 O   0  0  0  0  0  0  0  0  0  0  0  0
    7.1250  -14.8330   -7.4210 C   0  0  0  0  0  0  0  0  0  0  0  0
    8.1990  -14.5470   -8.4620 C   0  0  0  0  0  0  0  0  0  0  0  0
    9.5120  -14.1920   -7.8160 N   0  0  0  0  0  0  0  0  0  0  0  0
   10.6680  -15.0620   -8.2020 C   0  0  0  0  0  0  0  0  0  0  0  0
   11.6370  -15.2120   -7.0920 C   0  0  0  0  0  0  0  0  0  0  0  0
   12.6010  -16.1460   -6.7850 C   0  0  0  0  0  0  0  0  0  0  0  0
   13.2170  -15.7000   -5.5880 C   0  0  0  0  0  0  0  0  0  0  0  0
   12.5880  -14.5240   -5.2260 C   0  0  0  0  0  0  0  0  0  0  0  0
   12.7540  -13.5720   -4.1340 C   0  0  0  0  0  0  0  0  0  0  0  0
   13.6640  -12.5180   -4.2190 C   0  0  0  0  0  0  0  0  0  0  0  0
   13.8280  -11.6320   -3.1480 C   0  0  0  0  0  0  0  0  0  0  0  0
   13.1040  -11.7560   -1.9720 C   0  0  0  0  0  0  0  0  0  0  0  0
   13.3400  -10.8870   -0.9880 N   0  0  0  0  0  0  0  0  0  0  0  0
   12.6360  -11.0490    0.1370 C   0  0  0  0  0  0  0  0  0  0  0  0
   11.7180  -11.9920    0.3590 N   0  0  0  0  0  0  0  0  0  0  0  0
   11.4670  -12.8500   -0.6460 C   0  0  0  0  0  0  0  0  0  0  0  0
   10.4710  -13.8360   -0.4640 N   0  0  0  0  0  0  0  0  0  0  0  0
    9.0870  -13.7870   -0.7140 C   0  0  0  0  0  0  0  0  0  0  0  0
    8.3070  -14.9360   -0.8960 C   0  0  0  0  0  0  0  0  0  0  0  0
    6.9410  -14.8460   -1.1880 C   0  0  0  0  0  0  0  0  0  0  0  0
    6.3370  -13.5970   -1.2990 C   0  0  0  0  0  0  0  0  0  0  0  0
    5.0100  -13.5370   -1.6290 O   0  0  0  0  0  0  0  0  0  0  0  0
    4.7940  -14.0990   -2.9300 C   0  0  0  0  0  0  0  0  0  0  0  0
    4.4320  -12.9760   -3.8690 C   0  0  0  0  0  0  0  0  0  0  0  0
    4.8040  -13.0390   -5.2220 C   0  0  0  0  0  0  0  0  0  0  0  0
    4.4670  -12.0080   -6.1030 C   0  0  0  0  0  0  0  0  0  0  0  0
    3.7500  -10.9070   -5.6400 C   0  0  0  0  0  0  0  0  0  0  0  0
    3.3740  -10.8470   -4.3040 C   0  0  0  0  0  0  0  0  0  0  0  0
    2.6790   -9.7910   -3.8600 F   0  0  0  0  0  0  0  0  0  0  0  0
    3.7040  -11.8680   -3.4180 C   0  0  0  0  0  0  0  0  0  0  0  0
    7.1040  -12.4390   -1.1580 C   0  0  0  0  0  0  0  0  0  0  0  0
    6.4080  -10.8700   -1.3430 Cl  0  0  0  0  0  0  0  0  0  0  0  0
    8.4670  -12.5360   -0.8670 C   0  0  0  0  0  0  0  0  0  0  0  0
   12.1660  -12.7900   -1.8690 C   0  0  0  0  0  0  0  0  0  0  0  0
   12.0030  -13.6940   -2.9560 C   0  0  0  0  0  0  0  0  0  0  0  0
   11.6220  -14.2250   -6.1480 O   0  0  0  0  0  0  0  0  0  0  0  0
    6.2125  -16.7270   -4.8236 H   0  0  0  0  0  0  0  0  0  0  0  0
    5.0852  -16.0180   -6.0291 H   0  0  0  0  0  0  0  0  0  0  0  0
    5.4045  -17.7856   -6.0291 H   0  0  0  0  0  0  0  0  0  0  0  0
    6.1338  -14.6020   -7.8383 H   0  0  0  0  0  0  0  0  0  0  0  0
    7.2908  -14.2101   -6.5297 H   0  0  0  0  0  0  0  0  0  0  0  0
    8.3383  -15.4414   -9.0871 H   0  0  0  0  0  0  0  0  0  0  0  0
    7.8710  -13.6915   -9.0707 H   0  0  0  0  0  0  0  0  0  0  0  0
    9.4170  -14.2240   -6.7800 H   0  0  0  0  0  0  0  0  0  0  0  0
    9.7830  -13.2270   -8.0510 H   0  0  0  0  0  0  0  0  0  0  0  0
   10.2883  -16.0562   -8.4802 H   0  0  0  0  0  0  0  0  0  0  0  0
   11.1869  -14.5867   -9.0475 H   0  0  0  0  0  0  0  0  0  0  0  0
   12.8444  -17.0554   -7.3539 H   0  0  0  0  0  0  0  0  0  0  0  0
   14.0387  -16.1956   -5.0503 H   0  0  0  0  0  0  0  0  0  0  0  0
   14.2574  -12.3822   -5.1352 H   0  0  0  0  0  0  0  0  0  0  0  0
   14.5543  -10.8113   -3.2422 H   0  0  0  0  0  0  0  0  0  0  0  0
   12.8314  -10.3398    0.9549 H   0  0  0  0  0  0  0  0  0  0  0  0
   10.8570  -14.7690   -0.4220 H   0  0  0  0  0  0  0  0  0  0  0  0
    8.7763  -15.9269   -0.8079 H   0  0  0  0  0  0  0  0  0  0  0  0
    6.3462  -15.7604   -1.3294 H   0  0  0  0  0  0  0  0  0  0  0  0
    5.7112  -14.5961   -3.2788 H   0  0  0  0  0  0  0  0  0  0  0  0
    3.9849  -14.8434   -2.8950 H   0  0  0  0  0  0  0  0  0  0  0  0
    5.3664  -13.9090   -5.5919 H   0  0  0  0  0  0  0  0  0  0  0  0
    4.7672  -12.0657   -7.1597 H   0  0  0  0  0  0  0  0  0  0  0  0
    3.4834  -10.0908   -6.3275 H   0  0  0  0  0  0  0  0  0  0  0  0
    3.3934  -11.8048   -2.3647 H   0  0  0  0  0  0  0  0  0  0  0  0
    9.0637  -11.6186   -0.7560 H   0  0  0  0  0  0  0  0  0  0  0  0
   11.2693  -14.5091   -2.8700 H   0  0  0  0  0  0  0  0  0  0  0  0
  1  2  1  0
  2  3  2  0
  2  4  2  0
  2  5  1  0
  5  6  1  0
  6  7  1  0
  7  8  1  0
  8  9  1  0
  9 10  2  0
 10 11  1  0
 11 12  2  0
 12 13  1  0
 13 14  2  0
 14 15  1  0
 15 16  2  0
 16 17  1  0
 17 18  2  0
 18 19  1  0
 19 20  2  0
 20 21  1  0
 21 22  1  0
 22 23  2  0
 23 24  1  0
 24 25  2  0
 25 26  1  0
 26 27  1  0
 27 28  1  0
 28 29  2  0
 29 30  1  0
 30 31  2  0
 31 32  1  0
 32 33  1  0
 32 34  2  0
 25 35  1  0
 35 36  1  0
 35 37  2  0
 20 38  1  0
 38 39  2  0
 12 40  1  0
 40  9  1  0
 39 13  1  0
 38 16  1  0
 37 22  1  0
 34 28  1  0
  1 41  1  0
  1 42  1  0
  1 43  1  0
  5 44  1  0
  5 45  1  0
  6 46  1  0
  6 47  1  0
  7 48  1  0
  7 49  1  0
  8 50  1  0
  8 51  1  0
 10 52  1  0
 11 53  1  0
 14 54  1  0
 15 55  1  0
 18 56  1  0
 21 57  1  0
 23 58  1  0
 24 59  1  0
 27 60  1  0
 27 61  1  0
 29 62  1  0
 30 63  1  0
 31 64  1  0
 34 65  1  0
 37 66  1  0
 39 67  1  0
M  CHG  1   7   1
M  END
>  <meeko>  (2) 
{"is_sidechain": [false], "free_energy": -8.355, "intermolecular_energy": -13.401, "internal_energy": -2.677}

$$$$
REF_CHEMBL554__M_PUB_ALL__e8__s20260927
     RDKit          3D

 67 71  0  0  0  0  0  0  0  0999 V2000
   11.4520  -13.4400  -12.1980 C   0  0  0  0  0  0  0  0  0  0  0  0
   10.8830  -12.1860  -11.0730 S   0  0  0  0  0  0  0  0  0  0  0  0
   10.1560  -11.1610  -11.8070 O   0  0  0  0  0  0  0  0  0  0  0  0
   10.2910  -12.8060   -9.9080 O   0  0  0  0  0  0  0  0  0  0  0  0
   12.3550  -11.3680  -10.5220 C   0  0  0  0  0  0  0  0  0  0  0  0
   13.3610  -12.4210  -10.0800 C   0  0  0  0  0  0  0  0  0  0  0  0
   13.0410  -12.9450   -8.7050 N   0  0  0  0  0  0  0  0  0  0  0  0
   13.1710  -14.4280   -8.5420 C   0  0  0  0  0  0  0  0  0  0  0  0
   13.1620  -14.8270   -7.1160 C   0  0  0  0  0  0  0  0  0  0  0  0
   13.2440  -16.0360   -6.4610 C   0  0  0  0  0  0  0  0  0  0  0  0
   13.2080  -15.7380   -5.0750 C   0  0  0  0  0  0  0  0  0  0  0  0
   13.0960  -14.3660   -4.9610 C   0  0  0  0  0  0  0  0  0  0  0  0
   13.0300  -13.4370   -3.8390 C   0  0  0  0  0  0  0  0  0  0  0  0
   13.8580  -12.3150   -3.7740 C   0  0  0  0  0  0  0  0  0  0  0  0
   13.8000  -11.4510   -2.6750 C   0  0  0  0  0  0  0  0  0  0  0  0
   12.9290  -11.6630   -1.6170 C   0  0  0  0  0  0  0  0  0  0  0  0
   12.9550  -10.8080   -0.5940 N   0  0  0  0  0  0  0  0  0  0  0  0
   12.1150  -11.0560    0.4160 C   0  0  0  0  0  0  0  0  0  0  0  0
   11.2520  -12.0710    0.4880 N   0  0  0  0  0  0  0  0  0  0  0  0
   11.2130  -12.9150   -0.5570 C   0  0  0  0  0  0  0  0  0  0  0  0
   10.2820  -13.9780   -0.5370 N   0  0  0  0  0  0  0  0  0  0  0  0
    8.9990  -14.0740   -1.1060 C   0  0  0  0  0  0  0  0  0  0  0  0
    8.3620  -15.2980   -1.3450 C   0  0  0  0  0  0  0  0  0  0  0  0
    7.1040  -15.3550   -1.9540 C   0  0  0  0  0  0  0  0  0  0  0  0
    6.4630  -14.1770   -2.3300 C   0  0  0  0  0  0  0  0  0  0  0  0
    5.2520  -14.2630   -2.9640 O   0  0  0  0  0  0  0  0  0  0  0  0
    5.3250  -15.1910   -4.0540 C   0  0  0  0  0  0  0  0  0  0  0  0
    5.5480  -14.4050   -5.3220 C   0  0  0  0  0  0  0  0  0  0  0  0
    6.4620  -14.8630   -6.2850 C   0  0  0  0  0  0  0  0  0  0  0  0
    6.6710  -14.1470   -7.4670 C   0  0  0  0  0  0  0  0  0  0  0  0
    5.9640  -12.9690   -7.6990 C   0  0  0  0  0  0  0  0  0  0  0  0
    5.0530  -12.5200   -6.7500 C   0  0  0  0  0  0  0  0  0  0  0  0
    4.3690  -11.3900   -6.9760 F   0  0  0  0  0  0  0  0  0  0  0  0
    4.8380  -13.2240   -5.5700 C   0  0  0  0  0  0  0  0  0  0  0  0
    7.0950  -12.9490   -2.1360 C   0  0  0  0  0  0  0  0  0  0  0  0
    6.3630  -11.4680   -2.6380 Cl  0  0  0  0  0  0  0  0  0  0  0  0
    8.3530  -12.9000   -1.5270 C   0  0  0  0  0  0  0  0  0  0  0  0
   12.0700  -12.7680   -1.6670 C   0  0  0  0  0  0  0  0  0  0  0  0
   12.1340  -13.6500   -2.7830 C   0  0  0  0  0  0  0  0  0  0  0  0
   13.0690  -13.8090   -6.2100 O   0  0  0  0  0  0  0  0  0  0  0  0
   11.8404  -14.2961  -11.6268 H   0  0  0  0  0  0  0  0  0  0  0  0
   10.6159  -13.7709  -12.8316 H   0  0  0  0  0  0  0  0  0  0  0  0
   12.2517  -13.0287  -12.8316 H   0  0  0  0  0  0  0  0  0  0  0  0
   12.7785  -10.7736  -11.3450 H   0  0  0  0  0  0  0  0  0  0  0  0
   12.1198  -10.6979   -9.6820 H   0  0  0  0  0  0  0  0  0  0  0  0
   13.3414  -13.2568  -10.7949 H   0  0  0  0  0  0  0  0  0  0  0  0
   14.3574  -11.9560  -10.0496 H   0  0  0  0  0  0  0  0  0  0  0  0
   12.0710  -12.6760   -8.4390 H   0  0  0  0  0  0  0  0  0  0  0  0
   13.6610  -12.5210   -8.0010 H   0  0  0  0  0  0  0  0  0  0  0  0
   12.3296  -14.9177   -9.0541 H   0  0  0  0  0  0  0  0  0  0  0  0
   14.1326  -14.7370   -8.9776 H   0  0  0  0  0  0  0  0  0  0  0  0
   13.3218  -17.0323   -6.9206 H   0  0  0  0  0  0  0  0  0  0  0  0
   13.2595  -16.4617   -4.2482 H   0  0  0  0  0  0  0  0  0  0  0  0
   14.5619  -12.1084   -4.5936 H   0  0  0  0  0  0  0  0  0  0  0  0
   14.4662  -10.5761   -2.6494 H   0  0  0  0  0  0  0  0  0  0  0  0
   12.1374  -10.3587    1.2664 H   0  0  0  0  0  0  0  0  0  0  0  0
   10.7190  -14.8680   -0.3350 H   0  0  0  0  0  0  0  0  0  0  0  0
    8.8605  -16.2326   -1.0481 H   0  0  0  0  0  0  0  0  0  0  0  0
    6.6224  -16.3272   -2.1354 H   0  0  0  0  0  0  0  0  0  0  0  0
    6.1609  -15.8882   -3.8952 H   0  0  0  0  0  0  0  0  0  0  0  0
    4.3937  -15.7722   -4.1238 H   0  0  0  0  0  0  0  0  0  0  0  0
    7.0190  -15.7947   -6.1072 H   0  0  0  0  0  0  0  0  0  0  0  0
    7.3922  -14.5128   -8.2127 H   0  0  0  0  0  0  0  0  0  0  0  0
    6.1255  -12.3989   -8.6258 H   0  0  0  0  0  0  0  0  0  0  0  0
    4.1110  -12.8534   -4.8324 H   0  0  0  0  0  0  0  0  0  0  0  0
    8.8440  -11.9274   -1.3754 H   0  0  0  0  0  0  0  0  0  0  0  0
   11.4629  -14.5209   -2.8170 H   0  0  0  0  0  0  0  0  0  0  0  0
  1  2  1  0
  2  3  2  0
  2  4  2  0
  2  5  1  0
  5  6  1  0
  6  7  1  0
  7  8  1  0
  8  9  1  0
  9 10  2  0
 10 11  1  0
 11 12  2  0
 12 13  1  0
 13 14  2  0
 14 15  1  0
 15 16  2  0
 16 17  1  0
 17 18  2  0
 18 19  1  0
 19 20  2  0
 20 21  1  0
 21 22  1  0
 22 23  2  0
 23 24  1  0
 24 25  2  0
 25 26  1  0
 26 27  1  0
 27 28  1  0
 28 29  2  0
 29 30  1  0
 30 31  2  0
 31 32  1  0
 32 33  1  0
 32 34  2  0
 25 35  1  0
 35 36  1  0
 35 37  2  0
 20 38  1  0
 38 39  2  0
 12 40  1  0
 40  9  1  0
 39 13  1  0
 38 16  1  0
 37 22  1  0
 34 28  1  0
  1 41  1  0
  1 42  1  0
  1 43  1  0
  5 44  1  0
  5 45  1  0
  6 46  1  0
  6 47  1  0
  7 48  1  0
  7 49  1  0
  8 50  1  0
  8 51  1  0
 10 52  1  0
 11 53  1  0
 14 54  1  0
 15 55  1  0
 18 56  1  0
 21 57  1  0
 23 58  1  0
 24 59  1  0
 27 60  1  0
 27 61  1  0
 29 62  1  0
 30 63  1  0
 31 64  1  0
 34 65  1  0
 37 66  1  0
 39 67  1  0
M  CHG  1   7   1
M  END
>  <meeko>  (3) 
{"is_sidechain": [false], "free_energy": -8.3, "intermolecular_energy": -13.55, "internal_energy": -2.438}

$$$$
REF_CHEMBL554__M_PUB_ALL__e8__s20260927
     RDKit          3D

 67 71  0  0  0  0  0  0  0  0999 V2000
    7.3660  -13.4490  -11.9630 C   0  0  0  0  0  0  0  0  0  0  0  0
    7.8570  -12.2730  -10.7230 S   0  0  0  0  0  0  0  0  0  0  0  0
    9.3090  -12.2250  -10.6390 O   0  0  0  0  0  0  0  0  0  0  0  0
    7.0960  -11.0530  -10.8760 O   0  0  0  0  0  0  0  0  0  0  0  0
    7.3540  -12.9970   -9.1860 C   0  0  0  0  0  0  0  0  0  0  0  0
    8.1250  -14.2950   -8.9830 C   0  0  0  0  0  0  0  0  0  0  0  0
    9.2660  -14.1120   -8.0180 N   0  0  0  0  0  0  0  0  0  0  0  0
   10.5800  -14.6670   -8.4720 C   0  0  0  0  0  0  0  0  0  0  0  0
   11.4730  -14.9700   -7.3300 C   0  0  0  0  0  0  0  0  0  0  0  0
   12.3010  -16.0250   -7.0180 C   0  0  0  0  0  0  0  0  0  0  0  0
   12.9120  -15.6950   -5.7820 C   0  0  0  0  0  0  0  0  0  0  0  0
   12.4170  -14.4620   -5.4040 C   0  0  0  0  0  0  0  0  0  0  0  0
   12.6490  -13.5720   -4.2730 C   0  0  0  0  0  0  0  0  0  0  0  0
   13.6060  -12.5560   -4.3300 C   0  0  0  0  0  0  0  0  0  0  0  0
   13.8330  -11.7310   -3.2230 C   0  0  0  0  0  0  0  0  0  0  0  0
   13.1280  -11.8770   -2.0380 C   0  0  0  0  0  0  0  0  0  0  0  0
   13.4240  -11.0670   -1.0210 N   0  0  0  0  0  0  0  0  0  0  0  0
   12.7380  -11.2510    0.1120 C   0  0  0  0  0  0  0  0  0  0  0  0
   11.7810  -12.1610    0.3110 N   0  0  0  0  0  0  0  0  0  0  0  0
   11.4700  -12.9570   -0.7260 C   0  0  0  0  0  0  0  0  0  0  0  0
   10.4330  -13.9050   -0.5680 N   0  0  0  0  0  0  0  0  0  0  0  0
    9.0380  -13.7490   -0.6590 C   0  0  0  0  0  0  0  0  0  0  0  0
    8.1450  -14.8240   -0.5620 C   0  0  0  0  0  0  0  0  0  0  0  0
    6.7660  -14.6360   -0.7020 C   0  0  0  0  0  0  0  0  0  0  0  0
    6.2610  -13.3610   -0.9390 C   0  0  0  0  0  0  0  0  0  0  0  0
    4.9120  -13.2120   -1.1160 O   0  0  0  0  0  0  0  0  0  0  0  0
    4.5030  -13.8080   -2.3530 C   0  0  0  0  0  0  0  0  0  0  0  0
    4.0990  -12.7020   -3.2950 C   0  0  0  0  0  0  0  0  0  0  0  0
    3.3460  -11.6140   -2.8250 C   0  0  0  0  0  0  0  0  0  0  0  0
    2.9730  -10.5790   -3.6870 C   0  0  0  0  0  0  0  0  0  0  0  0
    3.3550  -10.6210   -5.0260 C   0  0  0  0  0  0  0  0  0  0  0  0
    4.1070  -11.6930   -5.4910 C   0  0  0  0  0  0  0  0  0  0  0  0
    4.4790  -11.7300   -6.7770 F   0  0  0  0  0  0  0  0  0  0  0  0
    4.4830  -12.7280   -4.6410 C   0  0  0  0  0  0  0  0  0  0  0  0
    7.1350  -12.2820   -1.0760 C   0  0  0  0  0  0  0  0  0  0  0  0
    6.5580  -10.6930   -1.4250 Cl  0  0  0  0  0  0  0  0  0  0  0  0
    8.5130  -12.4760   -0.9350 C   0  0  0  0  0  0  0  0  0  0  0  0
   12.1450  -12.8720   -1.9610 C   0  0  0  0  0  0  0  0  0  0  0  0
   11.9190  -13.7150   -3.0860 C   0  0  0  0  0  0  0  0  0  0  0  0
   11.5380  -14.0180   -6.3530 O   0  0  0  0  0  0  0  0  0  0  0  0
    6.9861  -14.3589  -11.4754 H   0  0  0  0  0  0  0  0  0  0  0  0
    6.5753  -13.0118  -12.5904 H   0  0  0  0  0  0  0  0  0  0  0  0
    8.2329  -13.7038  -12.5904 H   0  0  0  0  0  0  0  0  0  0  0  0
    7.5728  -12.3034   -8.3608 H   0  0  0  0  0  0  0  0  0  0  0  0
    6.2733  -13.2014   -9.2035 H   0  0  0  0  0  0  0  0  0  0  0  0
    7.4405  -15.0595   -8.5868 H   0  0  0  0  0  0  0  0  0  0  0  0
    8.5392  -14.6065   -9.9532 H   0  0  0  0  0  0  0  0  0  0  0  0
    9.0310  -14.5510   -7.1030 H   0  0  0  0  0  0  0  0  0  0  0  0
    9.4230  -13.1130   -7.8260 H   0  0  0  0  0  0  0  0  0  0  0  0
   10.3991  -15.5927   -9.0380 H   0  0  0  0  0  0  0  0  0  0  0  0
   11.0725  -13.9098   -9.0997 H   0  0  0  0  0  0  0  0  0  0  0  0
   12.4570  -16.9397   -7.6088 H   0  0  0  0  0  0  0  0  0  0  0  0
   13.6416  -16.3049   -5.2291 H   0  0  0  0  0  0  0  0  0  0  0  0
   14.1856  -12.4034   -5.2524 H   0  0  0  0  0  0  0  0  0  0  0  0
   14.5952  -10.9412   -3.2951 H   0  0  0  0  0  0  0  0  0  0  0  0
   12.9846  -10.5923    0.9578 H   0  0  0  0  0  0  0  0  0  0  0  0
   10.7590  -14.8540   -0.6900 H   0  0  0  0  0  0  0  0  0  0  0  0
    8.5355  -15.8347   -0.3722 H   0  0  0  0  0  0  0  0  0  0  0  0
    6.0821  -15.4941   -0.6249 H   0  0  0  0  0  0  0  0  0  0  0  0
    5.3375  -14.3797   -2.7853 H   0  0  0  0  0  0  0  0  0  0  0  0
    3.6588  -14.4930   -2.1852 H   0  0  0  0  0  0  0  0  0  0  0  0
    3.0465  -11.5759   -1.7672 H   0  0  0  0  0  0  0  0  0  0  0  0
    2.3794   -9.7335   -3.3091 H   0  0  0  0  0  0  0  0  0  0  0  0
    3.0633   -9.8110   -5.7106 H   0  0  0  0  0  0  0  0  0  0  0  0
    5.0818  -13.5665   -5.0263 H   0  0  0  0  0  0  0  0  0  0  0  0
    9.1950  -11.6196   -1.0418 H   0  0  0  0  0  0  0  0  0  0  0  0
   11.1506  -14.4995   -3.0213 H   0  0  0  0  0  0  0  0  0  0  0  0
  1  2  1  0
  2  3  2  0
  2  4  2  0
  2  5  1  0
  5  6  1  0
  6  7  1  0
  7  8  1  0
  8  9  1  0
  9 10  2  0
 10 11  1  0
 11 12  2  0
 12 13  1  0
 13 14  2  0
 14 15  1  0
 15 16  2  0
 16 17  1  0
 17 18  2  0
 18 19  1  0
 19 20  2  0
 20 21  1  0
 21 22  1  0
 22 23  2  0
 23 24  1  0
 24 25  2  0
 25 26  1  0
 26 27  1  0
 27 28  1  0
 28 29  2  0
 29 30  1  0
 30 31  2  0
 31 32  1  0
 32 33  1  0
 32 34  2  0
 25 35  1  0
 35 36  1  0
 35 37  2  0
 20 38  1  0
 38 39  2  0
 12 40  1  0
 40  9  1  0
 39 13  1  0
 38 16  1  0
 37 22  1  0
 34 28  1  0
  1 41  1  0
  1 42  1  0
  1 43  1  0
  5 44  1  0
  5 45  1  0
  6 46  1  0
  6 47  1  0
  7 48  1  0
  7 49  1  0
  8 50  1  0
  8 51  1  0
 10 52  1  0
 11 53  1  0
 14 54  1  0
 15 55  1  0
 18 56  1  0
 21 57  1  0
 23 58  1  0
 24 59  1  0
 27 60  1  0
 27 61  1  0
 29 62  1  0
 30 63  1  0
 31 64  1  0
 34 65  1  0
 37 66  1  0
 39 67  1  0
M  CHG  1   7   1
M  END
>  <meeko>  (4) 
{"is_sidechain": [false], "free_energy": -8.058, "intermolecular_energy": -13.365, "internal_energy": -2.226}

$$$$
REF_CHEMBL554__M_PUB_ALL__e8__s20260927
     RDKit          3D

 67 71  0  0  0  0  0  0  0  0999 V2000
    8.8380  -12.7320   -0.9580 C   0  0  0  0  0  0  0  0  0  0  0  0
    9.9660  -13.0240   -2.3020 S   0  0  0  0  0  0  0  0  0  0  0  0
    9.6340  -14.2790   -2.9590 O   0  0  0  0  0  0  0  0  0  0  0  0
   10.1240  -11.8140   -3.0790 O   0  0  0  0  0  0  0  0  0  0  0  0
   11.5270  -13.3370   -1.5260 C   0  0  0  0  0  0  0  0  0  0  0  0
   12.6360  -12.8290   -2.4370 C   0  0  0  0  0  0  0  0  0  0  0  0
   12.4040  -13.2400   -3.8670 N   0  0  0  0  0  0  0  0  0  0  0  0
   12.9600  -14.5790   -4.2430 C   0  0  0  0  0  0  0  0  0  0  0  0
   13.2930  -14.6510   -5.6850 C   0  0  0  0  0  0  0  0  0  0  0  0
   14.2200  -15.3570   -6.4170 C   0  0  0  0  0  0  0  0  0  0  0  0
   14.0080  -15.0010   -7.7730 C   0  0  0  0  0  0  0  0  0  0  0  0
   12.9700  -14.0900   -7.7920 C   0  0  0  0  0  0  0  0  0  0  0  0
   12.2650  -13.3670   -8.8440 C   0  0  0  0  0  0  0  0  0  0  0  0
   12.9010  -12.3810   -9.6010 C   0  0  0  0  0  0  0  0  0  0  0  0
   12.1990  -11.6790  -10.5870 C   0  0  0  0  0  0  0  0  0  0  0  0
   10.8610  -11.9260  -10.8570 C   0  0  0  0  0  0  0  0  0  0  0  0
   10.2580  -11.1940  -11.7940 N   0  0  0  0  0  0  0  0  0  0  0  0
    8.9640  -11.4480  -12.0120 C   0  0  0  0  0  0  0  0  0  0  0  0
    8.2280  -12.3700  -11.3860 N   0  0  0  0  0  0  0  0  0  0  0  0
    8.8490  -13.1220  -10.4610 C   0  0  0  0  0  0  0  0  0  0  0  0
    8.1150  -14.1380   -9.8080 N   0  0  0  0  0  0  0  0  0  0  0  0
    7.3060  -14.0790   -8.6580 C   0  0  0  0  0  0  0  0  0  0  0  0
    6.3320  -13.0920   -8.4630 C   0  0  0  0  0  0  0  0  0  0  0  0
    5.5770  -13.0400   -7.2860 C   0  0  0  0  0  0  0  0  0  0  0  0
    5.7890  -13.9840   -6.2850 C   0  0  0  0  0  0  0  0  0  0  0  0
    5.0690  -13.8830   -5.1250 O   0  0  0  0  0  0  0  0  0  0  0  0
    3.6850  -13.6520   -5.4160 C   0  0  0  0  0  0  0  0  0  0  0  0
    3.1910  -12.5610   -4.5000 C   0  0  0  0  0  0  0  0  0  0  0  0
    3.4050  -11.2120   -4.8270 C   0  0  0  0  0  0  0  0  0  0  0  0
    2.9440  -10.1930   -3.9890 C   0  0  0  0  0  0  0  0  0  0  0  0
    2.2610  -10.5140   -2.8180 C   0  0  0  0  0  0  0  0  0  0  0  0
    2.0400  -11.8480   -2.4980 C   0  0  0  0  0  0  0  0  0  0  0  0
    1.3780  -12.1560   -1.3750 F   0  0  0  0  0  0  0  0  0  0  0  0
    2.4950  -12.8700   -3.3240 C   0  0  0  0  0  0  0  0  0  0  0  0
    6.7810  -14.9530   -6.4420 C   0  0  0  0  0  0  0  0  0  0  0  0
    7.1170  -16.1080   -5.2040 Cl  0  0  0  0  0  0  0  0  0  0  0  0
    7.5310  -15.0000   -7.6210 C   0  0  0  0  0  0  0  0  0  0  0  0
   10.2050  -12.9270  -10.1290 C   0  0  0  0  0  0  0  0  0  0  0  0
   10.9190  -13.6370   -9.1220 C   0  0  0  0  0  0  0  0  0  0  0  0
   12.5310  -13.8770   -6.5130 O   0  0  0  0  0  0  0  0  0  0  0  0
    9.3641  -12.8682   -0.0016 H   0  0  0  0  0  0  0  0  0  0  0  0
    8.4513  -11.7041   -1.0206 H   0  0  0  0  0  0  0  0  0  0  0  0
    8.0011  -13.4431   -1.0206 H   0  0  0  0  0  0  0  0  0  0  0  0
   11.5720  -12.8124   -0.5602 H   0  0  0  0  0  0  0  0  0  0  0  0
   11.6495  -14.4163   -1.3527 H   0  0  0  0  0  0  0  0  0  0  0  0
   12.6701  -11.7309   -2.3813 H   0  0  0  0  0  0  0  0  0  0  0  0
   13.5876  -13.2667   -2.1011 H   0  0  0  0  0  0  0  0  0  0  0  0
   12.8120  -12.5310   -4.5110 H   0  0  0  0  0  0  0  0  0  0  0  0
   11.3970  -13.2740   -4.0770 H   0  0  0  0  0  0  0  0  0  0  0  0
   13.8727  -14.7629   -3.6571 H   0  0  0  0  0  0  0  0  0  0  0  0
   12.1940  -15.3393   -4.0305 H   0  0  0  0  0  0  0  0  0  0  0  0
   14.9741  -16.0571   -6.0282 H   0  0  0  0  0  0  0  0  0  0  0  0
   14.5641  -15.3784   -8.6438 H   0  0  0  0  0  0  0  0  0  0  0  0
   13.9622  -12.1544   -9.4208 H   0  0  0  0  0  0  0  0  0  0  0  0
   12.7251  -10.9063  -11.1668 H   0  0  0  0  0  0  0  0  0  0  0  0
    8.4585  -10.8415  -12.7779 H   0  0  0  0  0  0  0  0  0  0  0  0
    7.9280  -14.9260  -10.4130 H   0  0  0  0  0  0  0  0  0  0  0  0
    6.1571  -12.3435   -9.2499 H   0  0  0  0  0  0  0  0  0  0  0  0
    4.8179  -12.2552   -7.1520 H   0  0  0  0  0  0  0  0  0  0  0  0
    3.5714  -13.3389   -6.4644 H   0  0  0  0  0  0  0  0  0  0  0  0
    3.1035  -14.5728   -5.2611 H   0  0  0  0  0  0  0  0  0  0  0  0
    3.9411  -10.9548   -5.7524 H   0  0  0  0  0  0  0  0  0  0  0  0
    3.1200   -9.1399   -4.2534 H   0  0  0  0  0  0  0  0  0  0  0  0
    1.8993   -9.7172   -2.1515 H   0  0  0  0  0  0  0  0  0  0  0  0
    2.3086  -13.9200   -3.0543 H   0  0  0  0  0  0  0  0  0  0  0  0
    8.3085  -15.7692   -7.7385 H   0  0  0  0  0  0  0  0  0  0  0  0
   10.3998  -14.4181   -8.5473 H   0  0  0  0  0  0  0  0  0  0  0  0
  1  2  1  0
  2  3  2  0
  2  4  2  0
  2  5  1  0
  5  6  1  0
  6  7  1  0
  7  8  1  0
  8  9  1  0
  9 10  2  0
 10 11  1  0
 11 12  2  0
 12 13  1  0
 13 14  2  0
 14 15  1  0
 15 16  2  0
 16 17  1  0
 17 18  2  0
 18 19  1  0
 19 20  2  0
 20 21  1  0
 21 22  1  0
 22 23  2  0
 23 24  1  0
 24 25  2  0
 25 26  1  0
 26 27  1  0
 27 28  1  0
 28 29  2  0
 29 30  1  0
 30 31  2  0
 31 32  1  0
 32 33  1  0
 32 34  2  0
 25 35  1  0
 35 36  1  0
 35 37  2  0
 20 38  1  0
 38 39  2  0
 12 40  1  0
 40  9  1  0
 39 13  1  0
 38 16  1  0
 37 22  1  0
 34 28  1  0
  1 41  1  0
  1 42  1  0
  1 43  1  0
  5 44  1  0
  5 45  1  0
  6 46  1  0
  6 47  1  0
  7 48  1  0
  7 49  1  0
  8 50  1  0
  8 51  1  0
 10 52  1  0
 11 53  1  0
 14 54  1  0
 15 55  1  0
 18 56  1  0
 21 57  1  0
 23 58  1  0
 24 59  1  0
 27 60  1  0
 27 61  1  0
 29 62  1  0
 30 63  1  0
 31 64  1  0
 34 65  1  0
 37 66  1  0
 39 67  1  0
M  CHG  1   7   1
M  END
>  <meeko>  (5) 
{"is_sidechain": [false], "free_energy": -8.041, "intermolecular_energy": -13.084, "internal_energy": -2.48}

$$$$
REF_CHEMBL554__M_PUB_ALL__e8__s20260927
     RDKit          3D

 67 71  0  0  0  0  0  0  0  0999 V2000
    5.6950  -16.8710   -5.6380 C   0  0  0  0  0  0  0  0  0  0  0  0
    7.1140  -17.1600   -6.6710 S   0  0  0  0  0  0  0  0  0  0  0  0
    6.6800  -17.5490   -8.0040 O   0  0  0  0  0  0  0  0  0  0  0  0
    8.0690  -16.0880   -6.5000 O   0  0  0  0  0  0  0  0  0  0  0  0
    7.8660  -18.6220   -6.0110 C   0  0  0  0  0  0  0  0  0  0  0  0
    9.0790  -18.2160   -5.1850 C   0  0  0  0  0  0  0  0  0  0  0  0
   10.2540  -17.8750   -6.0620 N   0  0  0  0  0  0  0  0  0  0  0  0
   11.5890  -17.9290   -5.3880 C   0  0  0  0  0  0  0  0  0  0  0  0
   12.3250  -16.6510   -5.5210 C   0  0  0  0  0  0  0  0  0  0  0  0
   13.0840  -16.0840   -6.5200 C   0  0  0  0  0  0  0  0  0  0  0  0
   13.4930  -14.8160   -6.0350 C   0  0  0  0  0  0  0  0  0  0  0  0
   12.9700  -14.6830   -4.7630 C   0  0  0  0  0  0  0  0  0  0  0  0
   13.0020  -13.6350   -3.7500 C   0  0  0  0  0  0  0  0  0  0  0  0
   13.8780  -12.5530   -3.8500 C   0  0  0  0  0  0  0  0  0  0  0  0
   13.9120  -11.5720   -2.8530 C   0  0  0  0  0  0  0  0  0  0  0  0
   13.0900  -11.6260   -1.7380 C   0  0  0  0  0  0  0  0  0  0  0  0
   13.2050  -10.6660   -0.8190 N   0  0  0  0  0  0  0  0  0  0  0  0
   12.4090  -10.7620    0.2510 C   0  0  0  0  0  0  0  0  0  0  0  0
   11.5090  -11.7220    0.4770 N   0  0  0  0  0  0  0  0  0  0  0  0
   11.3810  -12.6730   -0.4650 C   0  0  0  0  0  0  0  0  0  0  0  0
   10.4090  -13.6820   -0.2830 N   0  0  0  0  0  0  0  0  0  0  0  0
    9.0950  -13.7790   -0.7760 C   0  0  0  0  0  0  0  0  0  0  0  0
    8.2180  -12.6890   -0.8230 C   0  0  0  0  0  0  0  0  0  0  0  0
    6.9030  -12.8340   -1.2790 C   0  0  0  0  0  0  0  0  0  0  0  0
    6.4500  -14.0820   -1.6990 C   0  0  0  0  0  0  0  0  0  0  0  0
    5.1460  -14.2060   -2.0980 O   0  0  0  0  0  0  0  0  0  0  0  0
    5.0130  -13.8590   -3.4820 C   0  0  0  0  0  0  0  0  0  0  0  0
    4.1740  -12.6090   -3.5710 C   0  0  0  0  0  0  0  0  0  0  0  0
    4.2160  -11.8100   -4.7260 C   0  0  0  0  0  0  0  0  0  0  0  0
    3.4370  -10.6540   -4.8230 C   0  0  0  0  0  0  0  0  0  0  0  0
    2.6050  -10.2880   -3.7670 C   0  0  0  0  0  0  0  0  0  0  0  0
    2.5560  -11.0820   -2.6270 C   0  0  0  0  0  0  0  0  0  0  0  0
    1.7510  -10.7330   -1.6150 F   0  0  0  0  0  0  0  0  0  0  0  0
    3.3270  -12.2350   -2.5210 C   0  0  0  0  0  0  0  0  0  0  0  0
    7.2960  -15.1890   -1.6260 C   0  0  0  0  0  0  0  0  0  0  0  0
    6.7590  -16.7650   -2.0830 Cl  0  0  0  0  0  0  0  0  0  0  0  0
    8.6080  -15.0370   -1.1690 C   0  0  0  0  0  0  0  0  0  0  0  0
   12.1850  -12.6880   -1.6240 C   0  0  0  0  0  0  0  0  0  0  0  0
   12.1540  -13.6880   -2.6360 C   0  0  0  0  0  0  0  0  0  0  0  0
   12.2540  -15.8060   -4.4500 O   0  0  0  0  0  0  0  0  0  0  0  0
    5.9927  -16.9316   -4.5808 H   0  0  0  0  0  0  0  0  0  0  0  0
    5.2867  -15.8713   -5.8472 H   0  0  0  0  0  0  0  0  0  0  0  0
    4.9282  -17.6314   -5.8472 H   0  0  0  0  0  0  0  0  0  0  0  0
    7.1447  -19.1537   -5.3730 H   0  0  0  0  0  0  0  0  0  0  0  0
    8.1759  -19.2871   -6.8306 H   0  0  0  0  0  0  0  0  0  0  0  0
    8.8195  -17.3367   -4.5771 H   0  0  0  0  0  0  0  0  0  0  0  0
    9.3608  -19.0650   -4.5449 H   0  0  0  0  0  0  0  0  0  0  0  0
   10.1340  -16.9200   -6.4610 H   0  0  0  0  0  0  0  0  0  0  0  0
   10.3060  -18.5170   -6.8640 H   0  0  0  0  0  0  0  0  0  0  0  0
   11.4399  -18.1443   -4.3196 H   0  0  0  0  0  0  0  0  0  0  0  0
   12.1841  -18.7178   -5.8714 H   0  0  0  0  0  0  0  0  0  0  0  0
   13.3248  -16.5260   -7.4981 H   0  0  0  0  0  0  0  0  0  0  0  0
   14.1095  -14.0784   -6.5697 H   0  0  0  0  0  0  0  0  0  0  0  0
   14.5469  -12.4709   -4.7194 H   0  0  0  0  0  0  0  0  0  0  0  0
   14.6134  -10.7310   -2.9572 H   0  0  0  0  0  0  0  0  0  0  0  0
   12.5045   -9.9774    1.0160 H   0  0  0  0  0  0  0  0  0  0  0  0
   10.8190  -14.5640   -0.0030 H   0  0  0  0  0  0  0  0  0  0  0  0
    8.5693  -11.6995   -0.4952 H   0  0  0  0  0  0  0  0  0  0  0  0
    6.2293  -11.9649   -1.3056 H   0  0  0  0  0  0  0  0  0  0  0  0
    6.0060  -13.6737   -3.9174 H   0  0  0  0  0  0  0  0  0  0  0  0
    4.5356  -14.6798   -4.0374 H   0  0  0  0  0  0  0  0  0  0  0  0
    4.8692  -12.0976   -5.5630 H   0  0  0  0  0  0  0  0  0  0  0  0
    3.4805  -10.0344   -5.7309 H   0  0  0  0  0  0  0  0  0  0  0  0
    1.9915   -9.3775   -3.8349 H   0  0  0  0  0  0  0  0  0  0  0  0
    3.2712  -12.8526   -1.6125 H   0  0  0  0  0  0  0  0  0  0  0  0
    9.2688  -15.9148   -1.1162 H   0  0  0  0  0  0  0  0  0  0  0  0
   11.4458  -14.5244   -2.5412 H   0  0  0  0  0  0  0  0  0  0  0  0
  1  2  1  0
  2  3  2  0
  2  4  2  0
  2  5  1  0
  5  6  1  0
  6  7  1  0
  7  8  1  0
  8  9  1  0
  9 10  2  0
 10 11  1  0
 11 12  2  0
 12 13  1  0
 13 14  2  0
 14 15  1  0
 15 16  2  0
 16 17  1  0
 17 18  2  0
 18 19  1  0
 19 20  2  0
 20 21  1  0
 21 22  1  0
 22 23  2  0
 23 24  1  0
 24 25  2  0
 25 26  1  0
 26 27  1  0
 27 28  1  0
 28 29  2  0
 29 30  1  0
 30 31  2  0
 31 32  1  0
 32 33  1  0
 32 34  2  0
 25 35  1  0
 35 36  1  0
 35 37  2  0
 20 38  1  0
 38 39  2  0
 12 40  1  0
 40  9  1  0
 39 13  1  0
 38 16  1  0
 37 22  1  0
 34 28  1  0
  1 41  1  0
  1 42  1  0
  1 43  1  0
  5 44  1  0
  5 45  1  0
  6 46  1  0
  6 47  1  0
  7 48  1  0
  7 49  1  0
  8 50  1  0
  8 51  1  0
 10 52  1  0
 11 53  1  0
 14 54  1  0
 15 55  1  0
 18 56  1  0
 21 57  1  0
 23 58  1  0
 24 59  1  0
 27 60  1  0
 27 61  1  0
 29 62  1  0
 30 63  1  0
 31 64  1  0
 34 65  1  0
 37 66  1  0
 39 67  1  0
M  CHG  1   7   1
M  END
>  <meeko>  (6) 
{"is_sidechain": [false], "free_energy": -8.006, "intermolecular_energy": -13.18, "internal_energy": -2.325}

$$$$
REF_CHEMBL554__M_PUB_ALL__e8__s20260927
     RDKit          3D

 67 71  0  0  0  0  0  0  0  0999 V2000
    2.4380  -15.5670   -1.8720 C   0  0  0  0  0  0  0  0  0  0  0  0
    1.9300  -16.8790   -0.7830 S   0  0  0  0  0  0  0  0  0  0  0  0
    0.4830  -16.8590   -0.6320 O   0  0  0  0  0  0  0  0  0  0  0  0
    2.6070  -18.1040   -1.1450 O   0  0  0  0  0  0  0  0  0  0  0  0
    2.5430  -16.4100    0.8110 C   0  0  0  0  0  0  0  0  0  0  0  0
    2.8010  -17.6710    1.6250 C   0  0  0  0  0  0  0  0  0  0  0  0
    1.5350  -18.4570    1.8370 N   0  0  0  0  0  0  0  0  0  0  0  0
    0.7070  -18.0280    3.0080 C   0  0  0  0  0  0  0  0  0  0  0  0
   -0.5520  -17.3740    2.5810 C   0  0  0  0  0  0  0  0  0  0  0  0
   -1.7770  -17.8410    2.1620 C   0  0  0  0  0  0  0  0  0  0  0  0
   -2.5770  -16.6950    1.9240 C   0  0  0  0  0  0  0  0  0  0  0  0
   -1.7930  -15.5920    2.2020 C   0  0  0  0  0  0  0  0  0  0  0  0
   -2.0140  -14.1510    2.1800 C   0  0  0  0  0  0  0  0  0  0  0  0
   -3.2520  -13.5990    2.5120 C   0  0  0  0  0  0  0  0  0  0  0  0
   -3.4520  -12.2150    2.4570 C   0  0  0  0  0  0  0  0  0  0  0  0
   -2.4450  -11.3400    2.0790 C   0  0  0  0  0  0  0  0  0  0  0  0
   -2.7250  -10.0380    2.0260 N   0  0  0  0  0  0  0  0  0  0  0  0
   -1.7340   -9.2270    1.6390 C   0  0  0  0  0  0  0  0  0  0  0  0
   -0.4950   -9.6020    1.3120 N   0  0  0  0  0  0  0  0  0  0  0  0
   -0.2130  -10.9140    1.3920 C   0  0  0  0  0  0  0  0  0  0  0  0
    1.1000  -11.3450    1.0950 N   0  0  0  0  0  0  0  0  0  0  0  0
    1.8070  -11.3370   -0.1210 C   0  0  0  0  0  0  0  0  0  0  0  0
    1.3090  -10.7390   -1.2860 C   0  0  0  0  0  0  0  0  0  0  0  0
    2.0210  -10.7910   -2.4890 C   0  0  0  0  0  0  0  0  0  0  0  0
    3.2500  -11.4450   -2.5390 C   0  0  0  0  0  0  0  0  0  0  0  0
    3.9040  -11.5190   -3.7390 O   0  0  0  0  0  0  0  0  0  0  0  0
    3.3030  -12.5170   -4.5740 C   0  0  0  0  0  0  0  0  0  0  0  0
    4.3940  -13.1620   -5.3900 C   0  0  0  0  0  0  0  0  0  0  0  0
    5.0430  -14.3150   -4.9160 C   0  0  0  0  0  0  0  0  0  0  0  0
    6.0510  -14.9260   -5.6680 C   0  0  0  0  0  0  0  0  0  0  0  0
    6.4150  -14.3930   -6.9030 C   0  0  0  0  0  0  0  0  0  0  0  0
    5.7680  -13.2580   -7.3760 C   0  0  0  0  0  0  0  0  0  0  0  0
    6.1140  -12.7500   -8.5660 F   0  0  0  0  0  0  0  0  0  0  0  0
    4.7640  -12.6420   -6.6360 C   0  0  0  0  0  0  0  0  0  0  0  0
    3.7460  -12.0790   -1.4000 C   0  0  0  0  0  0  0  0  0  0  0  0
    5.2370  -12.9490   -1.4310 Cl  0  0  0  0  0  0  0  0  0  0  0  0
    3.0300  -12.0240   -0.2010 C   0  0  0  0  0  0  0  0  0  0  0  0
   -1.1850  -11.8650    1.7640 C   0  0  0  0  0  0  0  0  0  0  0  0
   -0.9840  -13.2730    1.8150 C   0  0  0  0  0  0  0  0  0  0  0  0
   -0.5540  -16.0080    2.6060 O   0  0  0  0  0  0  0  0  0  0  0  0
    2.7719  -14.7046   -1.2763 H   0  0  0  0  0  0  0  0  0  0  0  0
    3.2656  -15.9169   -2.5065 H   0  0  0  0  0  0  0  0  0  0  0  0
    1.5905  -15.2683   -2.5065 H   0  0  0  0  0  0  0  0  0  0  0  0
    3.4801  -15.8455    0.6959 H   0  0  0  0  0  0  0  0  0  0  0  0
    1.8051  -15.7765    1.3249 H   0  0  0  0  0  0  0  0  0  0  0  0
    3.5273  -18.3001    1.0896 H   0  0  0  0  0  0  0  0  0  0  0  0
    3.1924  -17.3736    2.6090 H   0  0  0  0  0  0  0  0  0  0  0  0
    1.7600  -19.4670    1.9560 H   0  0  0  0  0  0  0  0  0  0  0  0
    0.9250  -18.3940    1.0110 H   0  0  0  0  0  0  0  0  0  0  0  0
    0.4611  -18.9128    3.6136 H   0  0  0  0  0  0  0  0  0  0  0  0
    1.2901  -17.2999    3.5909 H   0  0  0  0  0  0  0  0  0  0  0  0
   -2.0754  -18.8923    2.0369 H   0  0  0  0  0  0  0  0  0  0  0  0
   -3.6228  -16.6858    1.5830 H   0  0  0  0  0  0  0  0  0  0  0  0
   -4.0777  -14.2574    2.8196 H   0  0  0  0  0  0  0  0  0  0  0  0
   -4.4392  -11.8085    2.7220 H   0  0  0  0  0  0  0  0  0  0  0  0
   -1.9608   -8.1520    1.5852 H   0  0  0  0  0  0  0  0  0  0  0  0
    1.6840  -11.3930    1.9190 H   0  0  0  0  0  0  0  0  0  0  0  0
    0.3402  -10.2190   -1.2541 H   0  0  0  0  0  0  0  0  0  0  0  0
    1.6115  -10.3167   -3.3931 H   0  0  0  0  0  0  0  0  0  0  0  0
    2.8057  -13.2748   -3.9508 H   0  0  0  0  0  0  0  0  0  0  0  0
    2.5518  -12.0598   -5.2348 H   0  0  0  0  0  0  0  0  0  0  0  0
    4.7550  -14.7410   -3.9436 H   0  0  0  0  0  0  0  0  0  0  0  0
    6.5556  -15.8255   -5.2856 H   0  0  0  0  0  0  0  0  0  0  0  0
    7.2086  -14.8673   -7.4990 H   0  0  0  0  0  0  0  0  0  0  0  0
    4.2609  -11.7465   -7.0298 H   0  0  0  0  0  0  0  0  0  0  0  0
    3.4296  -12.5257    0.6927 H   0  0  0  0  0  0  0  0  0  0  0  0
    0.0049  -13.6827    1.5615 H   0  0  0  0  0  0  0  0  0  0  0  0
  1  2  1  0
  2  3  2  0
  2  4  2  0
  2  5  1  0
  5  6  1  0
  6  7  1  0
  7  8  1  0
  8  9  1  0
  9 10  2  0
 10 11  1  0
 11 12  2  0
 12 13  1  0
 13 14  2  0
 14 15  1  0
 15 16  2  0
 16 17  1  0
 17 18  2  0
 18 19  1  0
 19 20  2  0
 20 21  1  0
 21 22  1  0
 22 23  2  0
 23 24  1  0
 24 25  2  0
 25 26  1  0
 26 27  1  0
 27 28  1  0
 28 29  2  0
 29 30  1  0
 30 31  2  0
 31 32  1  0
 32 33  1  0
 32 34  2  0
 25 35  1  0
 35 36  1  0
 35 37  2  0
 20 38  1  0
 38 39  2  0
 12 40  1  0
 40  9  1  0
 39 13  1  0
 38 16  1  0
 37 22  1  0
 34 28  1  0
  1 41  1  0
  1 42  1  0
  1 43  1  0
  5 44  1  0
  5 45  1  0
  6 46  1  0
  6 47  1  0
  7 48  1  0
  7 49  1  0
  8 50  1  0
  8 51  1  0
 10 52  1  0
 11 53  1  0
 14 54  1  0
 15 55  1  0
 18 56  1  0
 21 57  1  0
 23 58  1  0
 24 59  1  0
 27 60  1  0
 27 61  1  0
 29 62  1  0
 30 63  1  0
 31 64  1  0
 34 65  1  0
 37 66  1  0
 39 67  1  0
M  CHG  1   7   1
M  END
>  <meeko>  (7) 
{"is_sidechain": [false], "free_energy": -7.955, "intermolecular_energy": -12.707, "internal_energy": -2.715}

$$$$
REF_CHEMBL554__M_PUB_ALL__e8__s20260927
     RDKit          3D

 67 71  0  0  0  0  0  0  0  0999 V2000
   -1.4900  -10.8650    3.2130 C   0  0  0  0  0  0  0  0  0  0  0  0
   -1.1070  -10.0490    1.6800 S   0  0  0  0  0  0  0  0  0  0  0  0
   -0.4200   -8.7950    1.9490 O   0  0  0  0  0  0  0  0  0  0  0  0
   -0.5460  -11.0010    0.7460 O   0  0  0  0  0  0  0  0  0  0  0  0
   -2.6770   -9.5560    1.0220 C   0  0  0  0  0  0  0  0  0  0  0  0
   -2.9090  -10.2930   -0.2900 C   0  0  0  0  0  0  0  0  0  0  0  0
   -4.1010  -11.2090   -0.2040 N   0  0  0  0  0  0  0  0  0  0  0  0
   -3.7790  -12.6700   -0.1440 C   0  0  0  0  0  0  0  0  0  0  0  0
   -4.0550  -13.2390    1.1960 C   0  0  0  0  0  0  0  0  0  0  0  0
   -4.9570  -12.9430    2.1920 C   0  0  0  0  0  0  0  0  0  0  0  0
   -4.7270  -13.8860    3.2260 C   0  0  0  0  0  0  0  0  0  0  0  0
   -3.6910  -14.6980    2.8080 C   0  0  0  0  0  0  0  0  0  0  0  0
   -2.9990  -15.8470    3.3800 C   0  0  0  0  0  0  0  0  0  0  0  0
   -3.6940  -16.9900    3.7790 C   0  0  0  0  0  0  0  0  0  0  0  0
   -3.0140  -18.0710    4.3520 C   0  0  0  0  0  0  0  0  0  0  0  0
   -1.6410  -18.0590    4.5450 C   0  0  0  0  0  0  0  0  0  0  0  0
   -1.0740  -19.1180    5.1240 N   0  0  0  0  0  0  0  0  0  0  0  0
    0.2490  -19.0630    5.3110 C   0  0  0  0  0  0  0  0  0  0  0  0
    1.0490  -18.0520    4.9640 N   0  0  0  0  0  0  0  0  0  0  0  0
    0.4740  -16.9980    4.3580 C   0  0  0  0  0  0  0  0  0  0  0  0
    1.2940  -15.9270    3.9370 N   0  0  0  0  0  0  0  0  0  0  0  0
    1.5700  -15.4460    2.6440 C   0  0  0  0  0  0  0  0  0  0  0  0
    1.4300  -14.0990    2.2870 C   0  0  0  0  0  0  0  0  0  0  0  0
    1.6710  -13.6670    0.9790 C   0  0  0  0  0  0  0  0  0  0  0  0
    2.0610  -14.5840    0.0070 C   0  0  0  0  0  0  0  0  0  0  0  0
    2.2460  -14.1420   -1.2760 O   0  0  0  0  0  0  0  0  0  0  0  0
    1.6730  -12.8390   -1.4420 C   0  0  0  0  0  0  0  0  0  0  0  0
    2.2680  -12.2220   -2.6820 C   0  0  0  0  0  0  0  0  0  0  0  0
    2.3790  -10.8260   -2.7940 C   0  0  0  0  0  0  0  0  0  0  0  0
    2.9360  -10.2440   -3.9360 C   0  0  0  0  0  0  0  0  0  0  0  0
    3.3910  -11.0530   -4.9750 C   0  0  0  0  0  0  0  0  0  0  0  0
    3.2890  -12.4340   -4.8620 C   0  0  0  0  0  0  0  0  0  0  0  0
    3.7320  -13.2110   -5.8590 F   0  0  0  0  0  0  0  0  0  0  0  0
    2.7360  -13.0240   -3.7300 C   0  0  0  0  0  0  0  0  0  0  0  0
    2.1700  -15.9370    0.3320 C   0  0  0  0  0  0  0  0  0  0  0  0
    2.5960  -17.1170   -0.8540 Cl  0  0  0  0  0  0  0  0  0  0  0  0
    1.9280  -16.3620    1.6410 C   0  0  0  0  0  0  0  0  0  0  0  0
   -0.9160  -16.9350    4.1320 C   0  0  0  0  0  0  0  0  0  0  0  0
   -1.6080  -15.8330    3.5540 C   0  0  0  0  0  0  0  0  0  0  0  0
   -3.2800  -14.3020    1.5640 O   0  0  0  0  0  0  0  0  0  0  0  0
   -1.1891  -10.2240    4.0547 H   0  0  0  0  0  0  0  0  0  0  0  0
   -2.5719  -11.0563    3.2662 H   0  0  0  0  0  0  0  0  0  0  0  0
   -0.9458  -11.8195    3.2662 H   0  0  0  0  0  0  0  0  0  0  0  0
   -3.4742   -9.8109    1.7358 H   0  0  0  0  0  0  0  0  0  0  0  0
   -2.6866   -8.4698    0.8487 H   0  0  0  0  0  0  0  0  0  0  0  0
   -3.0810   -9.5562   -1.0885 H   0  0  0  0  0  0  0  0  0  0  0  0
   -2.0194  -10.9029   -0.5057 H   0  0  0  0  0  0  0  0  0  0  0  0
   -4.7290  -11.0520   -1.0190 H   0  0  0  0  0  0  0  0  0  0  0  0
   -4.6590  -11.0000    0.6350 H   0  0  0  0  0  0  0  0  0  0  0  0
   -4.3903  -13.2004   -0.8890 H   0  0  0  0  0  0  0  0  0  0  0  0
   -2.7062  -12.7929   -0.3536 H   0  0  0  0  0  0  0  0  0  0  0  0
   -5.7058  -12.1372    2.1872 H   0  0  0  0  0  0  0  0  0  0  0  0
   -5.2705  -13.9572    4.1797 H   0  0  0  0  0  0  0  0  0  0  0  0
   -4.7842  -17.0416    3.6421 H   0  0  0  0  0  0  0  0  0  0  0  0
   -3.5871  -18.9583    4.6590 H   0  0  0  0  0  0  0  0  0  0  0  0
    0.7215  -19.9304    5.7952 H   0  0  0  0  0  0  0  0  0  0  0  0
    1.4650  -15.2600    4.6780 H   0  0  0  0  0  0  0  0  0  0  0  0
    1.1248  -13.3673    3.0496 H   0  0  0  0  0  0  0  0  0  0  0  0
    1.5526  -12.6048    0.7188 H   0  0  0  0  0  0  0  0  0  0  0  0
    0.5819  -12.9227   -1.5536 H   0  0  0  0  0  0  0  0  0  0  0  0
    1.8876  -12.2129   -0.5634 H   0  0  0  0  0  0  0  0  0  0  0  0
    2.0238  -10.1843   -1.9742 H   0  0  0  0  0  0  0  0  0  0  0  0
    3.0150   -9.1496   -4.0143 H   0  0  0  0  0  0  0  0  0  0  0  0
    3.8278  -10.6017   -5.8781 H   0  0  0  0  0  0  0  0  0  0  0  0
    2.6665  -14.1195   -3.6583 H   0  0  0  0  0  0  0  0  0  0  0  0
    2.0192  -17.4296    1.8897 H   0  0  0  0  0  0  0  0  0  0  0  0
   -1.0368  -14.9484    3.2360 H   0  0  0  0  0  0  0  0  0  0  0  0
  1  2  1  0
  2  3  2  0
  2  4  2  0
  2  5  1  0
  5  6  1  0
  6  7  1  0
  7  8  1  0
  8  9  1  0
  9 10  2  0
 10 11  1  0
 11 12  2  0
 12 13  1  0
 13 14  2  0
 14 15  1  0
 15 16  2  0
 16 17  1  0
 17 18  2  0
 18 19  1  0
 19 20  2  0
 20 21  1  0
 21 22  1  0
 22 23  2  0
 23 24  1  0
 24 25  2  0
 25 26  1  0
 26 27  1  0
 27 28  1  0
 28 29  2  0
 29 30  1  0
 30 31  2  0
 31 32  1  0
 32 33  1  0
 32 34  2  0
 25 35  1  0
 35 36  1  0
 35 37  2  0
 20 38  1  0
 38 39  2  0
 12 40  1  0
 40  9  1  0
 39 13  1  0
 38 16  1  0
 37 22  1  0
 34 28  1  0
  1 41  1  0
  1 42  1  0
  1 43  1  0
  5 44  1  0
  5 45  1  0
  6 46  1  0
  6 47  1  0
  7 48  1  0
  7 49  1  0
  8 50  1  0
  8 51  1  0
 10 52  1  0
 11 53  1  0
 14 54  1  0
 15 55  1  0
 18 56  1  0
 21 57  1  0
 23 58  1  0
 24 59  1  0
 27 60  1  0
 27 61  1  0
 29 62  1  0
 30 63  1  0
 31 64  1  0
 34 65  1  0
 37 66  1  0
 39 67  1  0
M  CHG  1   7   1
M  END
>  <meeko>  (8) 
{"is_sidechain": [false], "free_energy": -7.744, "intermolecular_energy": -12.792, "internal_energy": -2.284}

$$$$
REF_CHEMBL554__M_PUB_ALL__e8__s20260927
     RDKit          3D

 67 71  0  0  0  0  0  0  0  0999 V2000
   -5.5680  -14.8900    8.6460 C   0  0  0  0  0  0  0  0  0  0  0  0
   -5.3250  -16.3630    7.6790 S   0  0  0  0  0  0  0  0  0  0  0  0
   -3.9130  -16.7150    7.6640 O   0  0  0  0  0  0  0  0  0  0  0  0
   -6.3190  -17.3510    8.0350 O   0  0  0  0  0  0  0  0  0  0  0  0
   -5.6710  -15.8730    6.0110 C   0  0  0  0  0  0  0  0  0  0  0  0
   -5.5140  -17.0870    5.1050 C   0  0  0  0  0  0  0  0  0  0  0  0
   -4.0640  -17.3930    4.8410 N   0  0  0  0  0  0  0  0  0  0  0  0
   -3.7830  -18.0660    3.5330 C   0  0  0  0  0  0  0  0  0  0  0  0
   -2.8090  -17.3010    2.7200 C   0  0  0  0  0  0  0  0  0  0  0  0
   -1.8440  -17.6540    1.8040 C   0  0  0  0  0  0  0  0  0  0  0  0
   -1.2630  -16.4410    1.3540 C   0  0  0  0  0  0  0  0  0  0  0  0
   -1.9000  -15.4160    2.0270 C   0  0  0  0  0  0  0  0  0  0  0  0
   -1.7920  -13.9620    2.0110 C   0  0  0  0  0  0  0  0  0  0  0  0
   -2.8130  -13.1510    2.5090 C   0  0  0  0  0  0  0  0  0  0  0  0
   -2.7030  -11.7570    2.4580 C   0  0  0  0  0  0  0  0  0  0  0  0
   -1.5910  -11.1250    1.9220 C   0  0  0  0  0  0  0  0  0  0  0  0
   -1.5760   -9.7920    1.8860 N   0  0  0  0  0  0  0  0  0  0  0  0
   -0.4960   -9.2200    1.3440 C   0  0  0  0  0  0  0  0  0  0  0  0
    0.5660   -9.8580    0.8480 N   0  0  0  0  0  0  0  0  0  0  0  0
    0.5550  -11.2010    0.9110 C   0  0  0  0  0  0  0  0  0  0  0  0
    1.6810  -11.9120    0.4350 N   0  0  0  0  0  0  0  0  0  0  0  0
    1.9860  -12.3710   -0.8600 C   0  0  0  0  0  0  0  0  0  0  0  0
    2.1170  -13.7290   -1.1740 C   0  0  0  0  0  0  0  0  0  0  0  0
    2.4660  -14.1450   -2.4630 C   0  0  0  0  0  0  0  0  0  0  0  0
    2.6850  -13.1980   -3.4610 C   0  0  0  0  0  0  0  0  0  0  0  0
    3.0690  -13.6310   -4.7020 O   0  0  0  0  0  0  0  0  0  0  0  0
    4.3430  -14.2810   -4.6320 C   0  0  0  0  0  0  0  0  0  0  0  0
    5.1160  -13.9290   -5.8780 C   0  0  0  0  0  0  0  0  0  0  0  0
    4.8190  -12.7530   -6.5860 C   0  0  0  0  0  0  0  0  0  0  0  0
    5.5350  -12.4140   -7.7370 C   0  0  0  0  0  0  0  0  0  0  0  0
    6.5570  -13.2450   -8.1890 C   0  0  0  0  0  0  0  0  0  0  0  0
    6.8570  -14.4050   -7.4850 C   0  0  0  0  0  0  0  0  0  0  0  0
    7.8440  -15.2020   -7.9160 F   0  0  0  0  0  0  0  0  0  0  0  0
    6.1510  -14.7530   -6.3370 C   0  0  0  0  0  0  0  0  0  0  0  0
    2.5960  -11.8390   -3.1600 C   0  0  0  0  0  0  0  0  0  0  0  0
    2.9150  -10.6300   -4.3510 Cl  0  0  0  0  0  0  0  0  0  0  0  0
    2.2480  -11.4300   -1.8700 C   0  0  0  0  0  0  0  0  0  0  0  0
   -0.5410  -11.9150    1.4370 C   0  0  0  0  0  0  0  0  0  0  0  0
   -0.6560  -13.3330    1.4840 C   0  0  0  0  0  0  0  0  0  0  0  0
   -2.8470  -15.9440    2.8620 O   0  0  0  0  0  0  0  0  0  0  0  0
   -5.5263  -15.1427    9.7158 H   0  0  0  0  0  0  0  0  0  0  0  0
   -4.7778  -14.1620    8.4101 H   0  0  0  0  0  0  0  0  0  0  0  0
   -6.5501  -14.4544    8.4101 H   0  0  0  0  0  0  0  0  0  0  0  0
   -6.7002  -15.4906    5.9431 H   0  0  0  0  0  0  0  0  0  0  0  0
   -4.9748  -15.0800    5.7004 H   0  0  0  0  0  0  0  0  0  0  0  0
   -5.9808  -17.9574    5.5892 H   0  0  0  0  0  0  0  0  0  0  0  0
   -6.0012  -16.8663    4.1438 H   0  0  0  0  0  0  0  0  0  0  0  0
   -3.6840  -17.9960    5.6000 H   0  0  0  0  0  0  0  0  0  0  0  0
   -3.5030  -16.5300    4.8500 H   0  0  0  0  0  0  0  0  0  0  0  0
   -3.3743  -19.0684    3.7286 H   0  0  0  0  0  0  0  0  0  0  0  0
   -4.7259  -18.1271    2.9698 H   0  0  0  0  0  0  0  0  0  0  0  0
   -1.5771  -18.6724    1.4851 H   0  0  0  0  0  0  0  0  0  0  0  0
   -0.4587  -16.3362    0.6110 H   0  0  0  0  0  0  0  0  0  0  0  0
   -3.7117  -13.6116    2.9452 H   0  0  0  0  0  0  0  0  0  0  0  0
   -3.5245  -11.1430    2.8556 H   0  0  0  0  0  0  0  0  0  0  0  0
   -0.4814   -8.1209    1.3031 H   0  0  0  0  0  0  0  0  0  0  0  0
    2.4810  -11.8190    1.0470 H   0  0  0  0  0  0  0  0  0  0  0  0
    1.9422  -14.4830   -0.3924 H   0  0  0  0  0  0  0  0  0  0  0  0
    2.5673  -15.2170   -2.6881 H   0  0  0  0  0  0  0  0  0  0  0  0
    4.8903  -13.9344   -3.7430 H   0  0  0  0  0  0  0  0  0  0  0  0
    4.2120  -15.3707   -4.5592 H   0  0  0  0  0  0  0  0  0  0  0  0
    4.0146  -12.0921   -6.2308 H   0  0  0  0  0  0  0  0  0  0  0  0
    5.2917  -11.4920   -8.2854 H   0  0  0  0  0  0  0  0  0  0  0  0
    7.1224  -12.9852   -9.0961 H   0  0  0  0  0  0  0  0  0  0  0  0
    6.4056  -15.6736   -5.7914 H   0  0  0  0  0  0  0  0  0  0  0  0
    2.1782  -10.3562   -1.6420 H   0  0  0  0  0  0  0  0  0  0  0  0
    0.1677  -13.9507    1.0968 H   0  0  0  0  0  0  0  0  0  0  0  0
  1  2  1  0
  2  3  2  0
  2  4  2  0
  2  5  1  0
  5  6  1  0
  6  7  1  0
  7  8  1  0
  8  9  1  0
  9 10  2  0
 10 11  1  0
 11 12  2  0
 12 13  1  0
 13 14  2  0
 14 15  1  0
 15 16  2  0
 16 17  1  0
 17 18  2  0
 18 19  1  0
 19 20  2  0
 20 21  1  0
 21 22  1  0
 22 23  2  0
 23 24  1  0
 24 25  2  0
 25 26  1  0
 26 27  1  0
 27 28  1  0
 28 29  2  0
 29 30  1  0
 30 31  2  0
 31 32  1  0
 32 33  1  0
 32 34  2  0
 25 35  1  0
 35 36  1  0
 35 37  2  0
 20 38  1  0
 38 39  2  0
 12 40  1  0
 40  9  1  0
 39 13  1  0
 38 16  1  0
 37 22  1  0
 34 28  1  0
  1 41  1  0
  1 42  1  0
  1 43  1  0
  5 44  1  0
  5 45  1  0
  6 46  1  0
  6 47  1  0
  7 48  1  0
  7 49  1  0
  8 50  1  0
  8 51  1  0
 10 52  1  0
 11 53  1  0
 14 54  1  0
 15 55  1  0
 18 56  1  0
 21 57  1  0
 23 58  1  0
 24 59  1  0
 27 60  1  0
 27 61  1  0
 29 62  1  0
 30 63  1  0
 31 64  1  0
 34 65  1  0
 37 66  1  0
 39 67  1  0
M  CHG  1   7   1
M  END
>  <meeko>  (9) 
{"is_sidechain": [false], "free_energy": -7.742, "intermolecular_energy": -13.155, "internal_energy": -1.916}

$$$$
