REF_CHEMBL623__M_PUB_ALL__e8__s20260927
     RDKit          3D

 66 69  0  0  0  0  0  0  0  0999 V2000
    2.3590  -13.8620   -4.3500 C   0  0  0  0  0  0  0  0  0  0  0  0
    1.4230  -14.0750   -3.1740 C   0  0  0  0  0  0  0  0  0  0  0  0
    2.2050  -14.3690   -1.9270 C   0  0  0  0  0  0  0  0  0  0  0  0
    2.5020  -15.5850   -1.5610 N   0  0  0  0  0  0  0  0  0  0  0  0
    3.1800  -15.4260   -0.3850 N   0  0  0  0  0  0  0  0  0  0  0  0
    3.7100  -16.5430    0.3600 C   0  0  0  0  0  0  0  0  0  0  0  0
    2.9280  -17.8370    0.1260 C   0  0  0  0  0  0  0  0  0  0  0  0
    1.7890  -18.0880    1.1160 C   0  0  0  0  0  0  0  0  0  0  0  0
    0.6820  -17.0750    1.0680 N   0  0  0  0  0  0  0  0  0  0  0  0
   -0.1120  -17.1430   -0.2250 C   0  0  0  0  0  0  0  0  0  0  0  0
   -1.0020  -15.8910   -0.3480 C   0  0  0  0  0  0  0  0  0  0  0  0
   -1.7480  -15.6000    0.8890 N   0  0  0  0  0  0  0  0  0  0  0  0
   -2.7180  -14.5940    0.8760 C   0  0  0  0  0  0  0  0  0  0  0  0
   -2.8700  -13.7320   -0.2290 C   0  0  0  0  0  0  0  0  0  0  0  0
   -3.8150  -12.6960   -0.2490 C   0  0  0  0  0  0  0  0  0  0  0  0
   -4.6410  -12.4860    0.8460 C   0  0  0  0  0  0  0  0  0  0  0  0
   -4.5190  -13.3200    1.9480 C   0  0  0  0  0  0  0  0  0  0  0  0
   -5.5350  -13.0770    3.3170 Cl  0  0  0  0  0  0  0  0  0  0  0  0
   -3.5780  -14.3570    1.9610 C   0  0  0  0  0  0  0  0  0  0  0  0
   -1.6740  -16.5790    1.9870 C   0  0  0  0  0  0  0  0  0  0  0  0
   -0.2390  -17.0810    2.2790 C   0  0  0  0  0  0  0  0  0  0  0  0
    3.3040  -14.0770   -0.0880 C   0  0  0  0  0  0  0  0  0  0  0  0
    4.0000  -13.6220    0.8100 O   0  0  0  0  0  0  0  0  0  0  0  0
    2.6380  -13.4120   -1.0800 N   0  0  0  0  0  0  0  0  0  0  0  0
    2.5820  -11.9600   -1.2010 C   0  0  0  0  0  0  0  0  0  0  0  0
    1.7810  -11.3240   -0.0600 C   0  0  0  0  0  0  0  0  0  0  0  0
    0.3890  -11.6330   -0.1680 O   0  0  0  0  0  0  0  0  0  0  0  0
   -0.4460  -11.2650    0.8480 C   0  0  0  0  0  0  0  0  0  0  0  0
   -1.2690  -10.1720    0.5510 C   0  0  0  0  0  0  0  0  0  0  0  0
   -2.1800   -9.6890    1.4910 C   0  0  0  0  0  0  0  0  0  0  0  0
   -2.2760  -10.2960    2.7380 C   0  0  0  0  0  0  0  0  0  0  0  0
   -1.4640  -11.3860    3.0420 C   0  0  0  0  0  0  0  0  0  0  0  0
   -0.5510  -11.8720    2.1000 C   0  0  0  0  0  0  0  0  0  0  0  0
    3.3685  -13.6323   -3.9782 H   0  0  0  0  0  0  0  0  0  0  0  0
    2.3927  -14.7754   -4.9620 H   0  0  0  0  0  0  0  0  0  0  0  0
    1.9941  -13.0239   -4.9620 H   0  0  0  0  0  0  0  0  0  0  0  0
    0.8232  -13.1660   -3.0194 H   0  0  0  0  0  0  0  0  0  0  0  0
    0.7661  -14.9299   -3.3921 H   0  0  0  0  0  0  0  0  0  0  0  0
    4.7548  -16.7040    0.0560 H   0  0  0  0  0  0  0  0  0  0  0  0
    3.6291  -16.2961    1.4289 H   0  0  0  0  0  0  0  0  0  0  0  0
    2.4991  -17.7990   -0.8862 H   0  0  0  0  0  0  0  0  0  0  0  0
    3.6444  -18.6602    0.2641 H   0  0  0  0  0  0  0  0  0  0  0  0
    1.3584  -19.0768    0.8995 H   0  0  0  0  0  0  0  0  0  0  0  0
    2.2301  -18.0191    2.1213 H   0  0  0  0  0  0  0  0  0  0  0  0
    1.1030  -16.1250    1.0410 H   0  0  0  0  0  0  0  0  0  0  0  0
    0.5804  -17.1859   -1.0786 H   0  0  0  0  0  0  0  0  0  0  0  0
   -0.7442  -18.0431   -0.2200 H   0  0  0  0  0  0  0  0  0  0  0  0
   -0.3635  -15.0273   -0.5854 H   0  0  0  0  0  0  0  0  0  0  0  0
   -1.7380  -16.0833   -1.1425 H   0  0  0  0  0  0  0  0  0  0  0  0
   -2.2240  -13.8772   -1.1074 H   0  0  0  0  0  0  0  0  0  0  0  0
   -3.9016  -12.0488   -1.1342 H   0  0  0  0  0  0  0  0  0  0  0  0
   -5.3804  -11.6716    0.8404 H   0  0  0  0  0  0  0  0  0  0  0  0
   -3.5103  -15.0052    2.8472 H   0  0  0  0  0  0  0  0  0  0  0  0
   -2.0693  -16.1080    2.8991 H   0  0  0  0  0  0  0  0  0  0  0  0
   -2.2634  -17.4544    1.6767 H   0  0  0  0  0  0  0  0  0  0  0  0
    0.2024  -16.4340    3.0514 H   0  0  0  0  0  0  0  0  0  0  0  0
   -0.3300  -18.1286    2.6019 H   0  0  0  0  0  0  0  0  0  0  0  0
    3.6070  -11.5614   -1.1817 H   0  0  0  0  0  0  0  0  0  0  0  0
    2.0802  -11.7151   -2.1487 H   0  0  0  0  0  0  0  0  0  0  0  0
    2.1595  -11.7056    0.8998 H   0  0  0  0  0  0  0  0  0  0  0  0
    1.9001  -10.2320   -0.1185 H   0  0  0  0  0  0  0  0  0  0  0  0
   -1.1966   -9.6886   -0.4344 H   0  0  0  0  0  0  0  0  0  0  0  0
   -2.8211   -8.8294    1.2458 H   0  0  0  0  0  0  0  0  0  0  0  0
   -2.9913   -9.9165    3.4825 H   0  0  0  0  0  0  0  0  0  0  0  0
   -1.5410  -11.8673    4.0281 H   0  0  0  0  0  0  0  0  0  0  0  0
    0.0855  -12.7345    2.3468 H   0  0  0  0  0  0  0  0  0  0  0  0
  1  2  1  0
  2  3  1  0
  3  4  2  0
  4  5  1  0
  5  6  1  0
  6  7  1  0
  7  8  1  0
  8  9  1  0
  9 10  1  0
 10 11  1  0
 11 12  1  0
 12 13  1  0
 13 14  2  0
 14 15  1  0
 15 16  2  0
 16 17  1  0
 17 18  1  0
 17 19  2  0
 12 20  1  0
 20 21  1  0
  5 22  1  0
 22 23  2  0
 22 24  1  0
 24 25  1  0
 25 26  1  0
 26 27  1  0
 27 28  1  0
 28 29  2  0
 29 30  1  0
 30 31  2  0
 31 32  1  0
 32 33  2  0
 24  3  1  0
 33 28  1  0
 21  9  1  0
 19 13  1  0
  1 34  1  0
  1 35  1  0
  1 36  1  0
  2 37  1  0
  2 38  1  0
  6 39  1  0
  6 40  1  0
  7 41  1  0
  7 42  1  0
  8 43  1  0
  8 44  1  0
  9 45  1  0
 10 46  1  0
 10 47  1  0
 11 48  1  0
 11 49  1  0
 14 50  1  0
 15 51  1  0
 16 52  1  0
 19 53  1  0
 20 54  1  0
 20 55  1  0
 21 56  1  0
 21 57  1  0
 25 58  1  0
 25 59  1  0
 26 60  1  0
 26 61  1  0
 29 62  1  0
 30 63  1  0
 31 64  1  0
 32 65  1  0
 33 66  1  0
M  CHG  1   9   1
M  END
>  <meeko>  (1) 
{"is_sidechain": [false], "free_energy": -6.421, "intermolecular_energy": -10.174, "internal_energy": -3.027}

$$$$
REF_CHEMBL623__M_PUB_ALL__e8__s20260927
     RDKit          3D

 66 69  0  0  0  0  0  0  0  0999 V2000
   -0.2490  -13.6380    4.3800 C   0  0  0  0  0  0  0  0  0  0  0  0
    0.2050  -14.4730    5.5640 C   0  0  0  0  0  0  0  0  0  0  0  0
    0.3650  -15.9110    5.1620 C   0  0  0  0  0  0  0  0  0  0  0  0
    1.4180  -16.3440    4.5260 N   0  0  0  0  0  0  0  0  0  0  0  0
    1.1680  -17.6730    4.3270 N   0  0  0  0  0  0  0  0  0  0  0  0
    2.1030  -18.5450    3.6590 C   0  0  0  0  0  0  0  0  0  0  0  0
    2.4230  -18.0920    2.2330 C   0  0  0  0  0  0  0  0  0  0  0  0
    1.2210  -18.0490    1.2870 C   0  0  0  0  0  0  0  0  0  0  0  0
    0.5350  -16.7160    1.2060 N   0  0  0  0  0  0  0  0  0  0  0  0
    1.4380  -15.6300    0.6480 C   0  0  0  0  0  0  0  0  0  0  0  0
    0.7970  -14.2510    0.8910 C   0  0  0  0  0  0  0  0  0  0  0  0
   -0.6260  -14.2100    0.5070 N   0  0  0  0  0  0  0  0  0  0  0  0
   -1.2970  -12.9850    0.5180 C   0  0  0  0  0  0  0  0  0  0  0  0
   -0.6510  -11.7940    0.9070 C   0  0  0  0  0  0  0  0  0  0  0  0
   -1.3140  -10.5600    0.9550 C   0  0  0  0  0  0  0  0  0  0  0  0
   -2.6570  -10.4780    0.6170 C   0  0  0  0  0  0  0  0  0  0  0  0
   -3.3220  -11.6320    0.2260 C   0  0  0  0  0  0  0  0  0  0  0  0
   -4.9890  -11.5520   -0.1990 Cl  0  0  0  0  0  0  0  0  0  0  0  0
   -2.6540  -12.8610    0.1730 C   0  0  0  0  0  0  0  0  0  0  0  0
   -1.1920  -15.3890   -0.1710 C   0  0  0  0  0  0  0  0  0  0  0  0
   -0.8080  -16.7350    0.4910 C   0  0  0  0  0  0  0  0  0  0  0  0
   -0.0490  -18.0160    4.8970 C   0  0  0  0  0  0  0  0  0  0  0  0
   -0.4620  -19.1620    5.0220 O   0  0  0  0  0  0  0  0  0  0  0  0
   -0.5670  -16.8560    5.4030 N   0  0  0  0  0  0  0  0  0  0  0  0
   -1.8100  -16.7730    6.1610 C   0  0  0  0  0  0  0  0  0  0  0  0
   -3.0350  -16.7130    5.2420 C   0  0  0  0  0  0  0  0  0  0  0  0
   -4.2210  -17.1160    5.9330 O   0  0  0  0  0  0  0  0  0  0  0  0
   -4.9970  -16.1570    6.5190 C   0  0  0  0  0  0  0  0  0  0  0  0
   -5.8320  -15.4700    5.6320 C   0  0  0  0  0  0  0  0  0  0  0  0
   -6.6880  -14.4680    6.0890 C   0  0  0  0  0  0  0  0  0  0  0  0
   -6.7160  -14.1440    7.4410 C   0  0  0  0  0  0  0  0  0  0  0  0
   -5.8900  -14.8250    8.3330 C   0  0  0  0  0  0  0  0  0  0  0  0
   -5.0330  -15.8310    7.8750 C   0  0  0  0  0  0  0  0  0  0  0  0
   -0.7450  -12.7258    4.7433 H   0  0  0  0  0  0  0  0  0  0  0  0
    0.6236  -13.3626    3.7695 H   0  0  0  0  0  0  0  0  0  0  0  0
   -0.9545  -14.2206    3.7695 H   0  0  0  0  0  0  0  0  0  0  0  0
    1.1692  -14.0896    5.9290 H   0  0  0  0  0  0  0  0  0  0  0  0
   -0.5537  -14.4075    6.3577 H   0  0  0  0  0  0  0  0  0  0  0  0
    3.0377  -18.5677    4.2384 H   0  0  0  0  0  0  0  0  0  0  0  0
    1.6386  -19.5400    3.5936 H   0  0  0  0  0  0  0  0  0  0  0  0
    2.8544  -17.0814    2.2839 H   0  0  0  0  0  0  0  0  0  0  0  0
    3.1154  -18.8399    1.8192 H   0  0  0  0  0  0  0  0  0  0  0  0
    1.5687  -18.3175    0.2785 H   0  0  0  0  0  0  0  0  0  0  0  0
    0.4813  -18.7555    1.6915 H   0  0  0  0  0  0  0  0  0  0  0  0
    0.3340  -16.3870    2.1710 H   0  0  0  0  0  0  0  0  0  0  0  0
    2.4158  -15.6730    1.1500 H   0  0  0  0  0  0  0  0  0  0  0  0
    1.5722  -15.7855   -0.4326 H   0  0  0  0  0  0  0  0  0  0  0  0
    0.8802  -14.0077    1.9605 H   0  0  0  0  0  0  0  0  0  0  0  0
    1.3314  -13.5210    0.2653 H   0  0  0  0  0  0  0  0  0  0  0  0
    0.4130  -11.8346    1.1832 H   0  0  0  0  0  0  0  0  0  0  0  0
   -0.7686   -9.6551    1.2612 H   0  0  0  0  0  0  0  0  0  0  0  0
   -3.1861   -9.5145    0.6582 H   0  0  0  0  0  0  0  0  0  0  0  0
   -3.2072  -13.7559   -0.1480 H   0  0  0  0  0  0  0  0  0  0  0  0
   -2.2883  -15.2997   -0.1645 H   0  0  0  0  0  0  0  0  0  0  0  0
   -0.7766  -15.4029   -1.1895 H   0  0  0  0  0  0  0  0  0  0  0  0
   -1.5860  -16.9934    1.2245 H   0  0  0  0  0  0  0  0  0  0  0  0
   -0.7250  -17.4742   -0.3193 H   0  0  0  0  0  0  0  0  0  0  0  0
   -1.8928  -17.6595    6.8070 H   0  0  0  0  0  0  0  0  0  0  0  0
   -1.7851  -15.8493    6.7578 H   0  0  0  0  0  0  0  0  0  0  0  0
   -3.1628  -15.6816    4.8815 H   0  0  0  0  0  0  0  0  0  0  0  0
   -2.8721  -17.4012    4.3995 H   0  0  0  0  0  0  0  0  0  0  0  0
   -5.8135  -15.7228    4.5616 H   0  0  0  0  0  0  0  0  0  0  0  0
   -7.3398  -13.9350    5.3811 H   0  0  0  0  0  0  0  0  0  0  0  0
   -7.3879  -13.3528    7.8051 H   0  0  0  0  0  0  0  0  0  0  0  0
   -5.9121  -14.5701    9.4028 H   0  0  0  0  0  0  0  0  0  0  0  0
   -4.3860  -16.3663    8.5855 H   0  0  0  0  0  0  0  0  0  0  0  0
  1  2  1  0
  2  3  1  0
  3  4  2  0
  4  5  1  0
  5  6  1  0
  6  7  1  0
  7  8  1  0
  8  9  1  0
  9 10  1  0
 10 11  1  0
 11 12  1  0
 12 13  1  0
 13 14  2  0
 14 15  1  0
 15 16  2  0
 16 17  1  0
 17 18  1  0
 17 19  2  0
 12 20  1  0
 20 21  1  0
  5 22  1  0
 22 23  2  0
 22 24  1  0
 24 25  1  0
 25 26  1  0
 26 27  1  0
 27 28  1  0
 28 29  2  0
 29 30  1  0
 30 31  2  0
 31 32  1  0
 32 33  2  0
 24  3  1  0
 33 28  1  0
 21  9  1  0
 19 13  1  0
  1 34  1  0
  1 35  1  0
  1 36  1  0
  2 37  1  0
  2 38  1  0
  6 39  1  0
  6 40  1  0
  7 41  1  0
  7 42  1  0
  8 43  1  0
  8 44  1  0
  9 45  1  0
 10 46  1  0
 10 47  1  0
 11 48  1  0
 11 49  1  0
 14 50  1  0
 15 51  1  0
 16 52  1  0
 19 53  1  0
 20 54  1  0
 20 55  1  0
 21 56  1  0
 21 57  1  0
 25 58  1  0
 25 59  1  0
 26 60  1  0
 26 61  1  0
 29 62  1  0
 30 63  1  0
 31 64  1  0
 32 65  1  0
 33 66  1  0
M  CHG  1   9   1
M  END
>  <meeko>  (2) 
{"is_sidechain": [false], "free_energy": -6.184, "intermolecular_energy": -11.068, "internal_energy": -1.758}

$$$$
REF_CHEMBL623__M_PUB_ALL__e8__s20260927
     RDKit          3D

 66 69  0  0  0  0  0  0  0  0999 V2000
   -1.4290  -17.6190    5.1130 C   0  0  0  0  0  0  0  0  0  0  0  0
   -2.0950  -17.9630    3.7930 C   0  0  0  0  0  0  0  0  0  0  0  0
   -1.1430  -17.7490    2.6520 C   0  0  0  0  0  0  0  0  0  0  0  0
    0.1000  -18.1400    2.6990 N   0  0  0  0  0  0  0  0  0  0  0  0
    0.6240  -17.7410    1.5010 N   0  0  0  0  0  0  0  0  0  0  0  0
    1.9960  -17.9940    1.1330 C   0  0  0  0  0  0  0  0  0  0  0  0
    2.9460  -16.8820    1.5830 C   0  0  0  0  0  0  0  0  0  0  0  0
    3.1320  -15.7480    0.5730 C   0  0  0  0  0  0  0  0  0  0  0  0
    2.0790  -14.6800    0.6280 N   0  0  0  0  0  0  0  0  0  0  0  0
    1.6730  -14.3380    2.0510 C   0  0  0  0  0  0  0  0  0  0  0  0
    0.3860  -13.4910    2.0290 C   0  0  0  0  0  0  0  0  0  0  0  0
    0.4510  -12.3830    1.0590 N   0  0  0  0  0  0  0  0  0  0  0  0
   -0.5740  -11.4340    1.0430 C   0  0  0  0  0  0  0  0  0  0  0  0
   -0.4720  -10.2260    1.7630 C   0  0  0  0  0  0  0  0  0  0  0  0
   -1.5020   -9.2760    1.7870 C   0  0  0  0  0  0  0  0  0  0  0  0
   -2.6780   -9.5070    1.0880 C   0  0  0  0  0  0  0  0  0  0  0  0
   -2.8090  -10.6840    0.3660 C   0  0  0  0  0  0  0  0  0  0  0  0
   -4.2610  -10.9910   -0.5090 Cl  0  0  0  0  0  0  0  0  0  0  0  0
   -1.7750  -11.6280    0.3400 C   0  0  0  0  0  0  0  0  0  0  0  0
    1.7320  -12.1390    0.3740 C   0  0  0  0  0  0  0  0  0  0  0  0
    2.4040  -13.4250   -0.1670 C   0  0  0  0  0  0  0  0  0  0  0  0
   -0.3590  -17.1370    0.7330 C   0  0  0  0  0  0  0  0  0  0  0  0
   -0.2320  -16.8270   -0.4450 O   0  0  0  0  0  0  0  0  0  0  0  0
   -1.4860  -17.1210    1.5070 N   0  0  0  0  0  0  0  0  0  0  0  0
   -2.7870  -16.6400    1.0580 C   0  0  0  0  0  0  0  0  0  0  0  0
   -2.8450  -15.1090    1.0200 C   0  0  0  0  0  0  0  0  0  0  0  0
   -2.7900  -14.5550    2.3370 O   0  0  0  0  0  0  0  0  0  0  0  0
   -3.9260  -14.5530    3.0960 C   0  0  0  0  0  0  0  0  0  0  0  0
   -4.7930  -13.4870    2.8340 C   0  0  0  0  0  0  0  0  0  0  0  0
   -5.9970  -13.3590    3.5270 C   0  0  0  0  0  0  0  0  0  0  0  0
   -6.3440  -14.3000    4.4910 C   0  0  0  0  0  0  0  0  0  0  0  0
   -5.4890  -15.3660    4.7570 C   0  0  0  0  0  0  0  0  0  0  0  0
   -4.2820  -15.4960    4.0610 C   0  0  0  0  0  0  0  0  0  0  0  0
   -2.0694  -17.9498    5.9440 H   0  0  0  0  0  0  0  0  0  0  0  0
   -0.4553  -18.1270    5.1758 H   0  0  0  0  0  0  0  0  0  0  0  0
   -1.2797  -16.5310    5.1758 H   0  0  0  0  0  0  0  0  0  0  0  0
   -2.4087  -19.0172    3.8098 H   0  0  0  0  0  0  0  0  0  0  0  0
   -2.9688  -17.3093    3.6545 H   0  0  0  0  0  0  0  0  0  0  0  0
    2.3158  -18.9386    1.5972 H   0  0  0  0  0  0  0  0  0  0  0  0
    2.0405  -18.0430    0.0350 H   0  0  0  0  0  0  0  0  0  0  0  0
    2.5499  -16.4496    2.5136 H   0  0  0  0  0  0  0  0  0  0  0  0
    3.9335  -17.3504    1.7073 H   0  0  0  0  0  0  0  0  0  0  0  0
    4.1079  -15.2771    0.7625 H   0  0  0  0  0  0  0  0  0  0  0  0
    3.0586  -16.2055   -0.4247 H   0  0  0  0  0  0  0  0  0  0  0  0
    1.2040  -15.0560    0.2130 H   0  0  0  0  0  0  0  0  0  0  0  0
    1.4917  -15.2658    2.6135 H   0  0  0  0  0  0  0  0  0  0  0  0
    2.4792  -13.7671    2.5349 H   0  0  0  0  0  0  0  0  0  0  0  0
   -0.4595  -14.1424    1.7631 H   0  0  0  0  0  0  0  0  0  0  0  0
    0.2610  -13.0503    3.0291 H   0  0  0  0  0  0  0  0  0  0  0  0
    0.4502  -10.0217    2.3267 H   0  0  0  0  0  0  0  0  0  0  0  0
   -1.3779   -8.3458    2.3609 H   0  0  0  0  0  0  0  0  0  0  0  0
   -3.4932   -8.7687    1.1061 H   0  0  0  0  0  0  0  0  0  0  0  0
   -1.9069  -12.5483   -0.2480 H   0  0  0  0  0  0  0  0  0  0  0  0
    1.5494  -11.4603   -0.4722 H   0  0  0  0  0  0  0  0  0  0  0  0
    2.4172  -11.7072    1.1184 H   0  0  0  0  0  0  0  0  0  0  0  0
    2.0713  -13.5779   -1.2043 H   0  0  0  0  0  0  0  0  0  0  0  0
    3.4903  -13.2720   -0.0860 H   0  0  0  0  0  0  0  0  0  0  0  0
   -2.9812  -17.0290    0.0476 H   0  0  0  0  0  0  0  0  0  0  0  0
   -3.5470  -16.9936    1.7703 H   0  0  0  0  0  0  0  0  0  0  0  0
   -1.9918  -14.7323    0.4367 H   0  0  0  0  0  0  0  0  0  0  0  0
   -3.7960  -14.8086    0.5560 H   0  0  0  0  0  0  0  0  0  0  0  0
   -4.5222  -12.7408    2.0725 H   0  0  0  0  0  0  0  0  0  0  0  0
   -6.6702  -12.5161    3.3117 H   0  0  0  0  0  0  0  0  0  0  0  0
   -7.2913  -14.2021    5.0415 H   0  0  0  0  0  0  0  0  0  0  0  0
   -5.7638  -16.1104    5.5187 H   0  0  0  0  0  0  0  0  0  0  0  0
   -3.6130  -16.3426    4.2749 H   0  0  0  0  0  0  0  0  0  0  0  0
  1  2  1  0
  2  3  1  0
  3  4  2  0
  4  5  1  0
  5  6  1  0
  6  7  1  0
  7  8  1  0
  8  9  1  0
  9 10  1  0
 10 11  1  0
 11 12  1  0
 12 13  1  0
 13 14  2  0
 14 15  1  0
 15 16  2  0
 16 17  1  0
 17 18  1  0
 17 19  2  0
 12 20  1  0
 20 21  1  0
  5 22  1  0
 22 23  2  0
 22 24  1  0
 24 25  1  0
 25 26  1  0
 26 27  1  0
 27 28  1  0
 28 29  2  0
 29 30  1  0
 30 31  2  0
 31 32  1  0
 32 33  2  0
 24  3  1  0
 33 28  1  0
 21  9  1  0
 19 13  1  0
  1 34  1  0
  1 35  1  0
  1 36  1  0
  2 37  1  0
  2 38  1  0
  6 39  1  0
  6 40  1  0
  7 41  1  0
  7 42  1  0
  8 43  1  0
  8 44  1  0
  9 45  1  0
 10 46  1  0
 10 47  1  0
 11 48  1  0
 11 49  1  0
 14 50  1  0
 15 51  1  0
 16 52  1  0
 19 53  1  0
 20 54  1  0
 20 55  1  0
 21 56  1  0
 21 57  1  0
 25 58  1  0
 25 59  1  0
 26 60  1  0
 26 61  1  0
 29 62  1  0
 30 63  1  0
 31 64  1  0
 32 65  1  0
 33 66  1  0
M  CHG  1   9   1
M  END
>  <meeko>  (3) 
{"is_sidechain": [false], "free_energy": -6.139, "intermolecular_energy": -10.555, "internal_energy": -2.2}

$$$$
REF_CHEMBL623__M_PUB_ALL__e8__s20260927
     RDKit          3D

 66 69  0  0  0  0  0  0  0  0999 V2000
   -1.1810  -16.4240   -0.0610 C   0  0  0  0  0  0  0  0  0  0  0  0
   -1.6030  -17.0050    1.2760 C   0  0  0  0  0  0  0  0  0  0  0  0
   -0.4110  -17.1790    2.1720 C   0  0  0  0  0  0  0  0  0  0  0  0
    0.5030  -18.0830    1.9490 N   0  0  0  0  0  0  0  0  0  0  0  0
    1.3810  -17.9360    2.9860 N   0  0  0  0  0  0  0  0  0  0  0  0
    2.5680  -18.7470    3.1160 C   0  0  0  0  0  0  0  0  0  0  0  0
    2.9340  -19.4750    1.8220 C   0  0  0  0  0  0  0  0  0  0  0  0
    3.8890  -18.7110    0.9020 C   0  0  0  0  0  0  0  0  0  0  0  0
    3.4390  -17.3250    0.5440 N   0  0  0  0  0  0  0  0  0  0  0  0
    4.4950  -16.2750    0.8460 C   0  0  0  0  0  0  0  0  0  0  0  0
    3.8640  -14.8720    0.7640 C   0  0  0  0  0  0  0  0  0  0  0  0
    3.0520  -14.6840   -0.4520 N   0  0  0  0  0  0  0  0  0  0  0  0
    2.5530  -13.4130   -0.7450 C   0  0  0  0  0  0  0  0  0  0  0  0
    1.6970  -12.7340    0.1460 C   0  0  0  0  0  0  0  0  0  0  0  0
    1.1590  -11.4720   -0.1420 C   0  0  0  0  0  0  0  0  0  0  0  0
    1.4610  -10.8450   -1.3430 C   0  0  0  0  0  0  0  0  0  0  0  0
    2.3040  -11.4840   -2.2400 C   0  0  0  0  0  0  0  0  0  0  0  0
    2.6910  -10.7230   -3.7360 Cl  0  0  0  0  0  0  0  0  0  0  0  0
    2.8440  -12.7420   -1.9450 C   0  0  0  0  0  0  0  0  0  0  0  0
    3.0680  -15.7540   -1.4650 C   0  0  0  0  0  0  0  0  0  0  0  0
    2.9060  -17.1750   -0.8730 C   0  0  0  0  0  0  0  0  0  0  0  0
    0.9760  -16.8940    3.8060 C   0  0  0  0  0  0  0  0  0  0  0  0
    1.6440  -16.4220    4.7170 O   0  0  0  0  0  0  0  0  0  0  0  0
   -0.2020  -16.4390    3.2820 N   0  0  0  0  0  0  0  0  0  0  0  0
   -0.9420  -15.2910    3.7930 C   0  0  0  0  0  0  0  0  0  0  0  0
   -0.4410  -13.9760    3.1870 C   0  0  0  0  0  0  0  0  0  0  0  0
   -1.2460  -13.5780    2.0740 O   0  0  0  0  0  0  0  0  0  0  0  0
   -1.6180  -12.2680    1.9680 C   0  0  0  0  0  0  0  0  0  0  0  0
   -1.2100  -11.4650    3.0380 C   0  0  0  0  0  0  0  0  0  0  0  0
   -1.5110  -10.1030    3.0630 C   0  0  0  0  0  0  0  0  0  0  0  0
   -2.2260   -9.5320    2.0150 C   0  0  0  0  0  0  0  0  0  0  0  0
   -2.6340  -10.3230    0.9440 C   0  0  0  0  0  0  0  0  0  0  0  0
   -2.3310  -11.6880    0.9180 C   0  0  0  0  0  0  0  0  0  0  0  0
   -0.5421  -15.5444    0.1067 H   0  0  0  0  0  0  0  0  0  0  0  0
   -0.6208  -17.1811   -0.6294 H   0  0  0  0  0  0  0  0  0  0  0  0
   -2.0742  -16.1254   -0.6294 H   0  0  0  0  0  0  0  0  0  0  0  0
   -2.3210  -16.3241    1.7565 H   0  0  0  0  0  0  0  0  0  0  0  0
   -2.0680  -17.9874    1.1068 H   0  0  0  0  0  0  0  0  0  0  0  0
    3.4078  -18.0971    3.4030 H   0  0  0  0  0  0  0  0  0  0  0  0
    2.3640  -19.5120    3.8796 H   0  0  0  0  0  0  0  0  0  0  0  0
    3.4085  -20.4306    2.0898 H   0  0  0  0  0  0  0  0  0  0  0  0
    1.9960  -19.5975    1.2605 H   0  0  0  0  0  0  0  0  0  0  0  0
    4.8637  -18.6354    1.4063 H   0  0  0  0  0  0  0  0  0  0  0  0
    3.9325  -19.2770   -0.0402 H   0  0  0  0  0  0  0  0  0  0  0  0
    2.6530  -17.0590    1.1690 H   0  0  0  0  0  0  0  0  0  0  0  0
    4.8953  -16.4382    1.8575 H   0  0  0  0  0  0  0  0  0  0  0  0
    5.3100  -16.3535    0.1114 H   0  0  0  0  0  0  0  0  0  0  0  0
    3.2203  -14.7236    1.6435 H   0  0  0  0  0  0  0  0  0  0  0  0
    4.6844  -14.1399    0.7324 H   0  0  0  0  0  0  0  0  0  0  0  0
    1.4417  -13.2125    1.1030 H   0  0  0  0  0  0  0  0  0  0  0  0
    0.4969  -10.9781    0.5844 H   0  0  0  0  0  0  0  0  0  0  0  0
    1.0386   -9.8573   -1.5795 H   0  0  0  0  0  0  0  0  0  0  0  0
    3.5157  -13.2189   -2.6740 H   0  0  0  0  0  0  0  0  0  0  0  0
    2.2434  -15.5760   -2.1710 H   0  0  0  0  0  0  0  0  0  0  0  0
    4.0534  -15.7198   -1.9527 H   0  0  0  0  0  0  0  0  0  0  0  0
    1.8351  -17.4262   -0.8671 H   0  0  0  0  0  0  0  0  0  0  0  0
    3.4989  -17.8508   -1.5068 H   0  0  0  0  0  0  0  0  0  0  0  0
   -2.0066  -15.4145    3.5452 H   0  0  0  0  0  0  0  0  0  0  0  0
   -0.7925  -15.2448    4.8818 H   0  0  0  0  0  0  0  0  0  0  0  0
   -0.4781  -13.1899    3.9556 H   0  0  0  0  0  0  0  0  0  0  0  0
    0.5900  -14.1263    2.8343 H   0  0  0  0  0  0  0  0  0  0  0  0
   -0.6454  -11.9124    3.8693 H   0  0  0  0  0  0  0  0  0  0  0  0
   -1.1836   -9.4817    3.9097 H   0  0  0  0  0  0  0  0  0  0  0  0
   -2.4683   -8.4591    2.0323 H   0  0  0  0  0  0  0  0  0  0  0  0
   -3.1976   -9.8718    0.1141 H   0  0  0  0  0  0  0  0  0  0  0  0
   -2.6555  -12.3060    0.0678 H   0  0  0  0  0  0  0  0  0  0  0  0
  1  2  1  0
  2  3  1  0
  3  4  2  0
  4  5  1  0
  5  6  1  0
  6  7  1  0
  7  8  1  0
  8  9  1  0
  9 10  1  0
 10 11  1  0
 11 12  1  0
 12 13  1  0
 13 14  2  0
 14 15  1  0
 15 16  2  0
 16 17  1  0
 17 18  1  0
 17 19  2  0
 12 20  1  0
 20 21  1  0
  5 22  1  0
 22 23  2  0
 22 24  1  0
 24 25  1  0
 25 26  1  0
 26 27  1  0
 27 28  1  0
 28 29  2  0
 29 30  1  0
 30 31  2  0
 31 32  1  0
 32 33  2  0
 24  3  1  0
 33 28  1  0
 21  9  1  0
 19 13  1  0
  1 34  1  0
  1 35  1  0
  1 36  1  0
  2 37  1  0
  2 38  1  0
  6 39  1  0
  6 40  1  0
  7 41  1  0
  7 42  1  0
  8 43  1  0
  8 44  1  0
  9 45  1  0
 10 46  1  0
 10 47  1  0
 11 48  1  0
 11 49  1  0
 14 50  1  0
 15 51  1  0
 16 52  1  0
 19 53  1  0
 20 54  1  0
 20 55  1  0
 21 56  1  0
 21 57  1  0
 25 58  1  0
 25 59  1  0
 26 60  1  0
 26 61  1  0
 29 62  1  0
 30 63  1  0
 31 64  1  0
 32 65  1  0
 33 66  1  0
M  CHG  1   9   1
M  END
>  <meeko>  (4) 
{"is_sidechain": [false], "free_energy": -6.016, "intermolecular_energy": -10.178, "internal_energy": -2.381}

$$$$
REF_CHEMBL623__M_PUB_ALL__e8__s20260927
     RDKit          3D

 66 69  0  0  0  0  0  0  0  0999 V2000
   -1.4280  -12.8710    2.6540 C   0  0  0  0  0  0  0  0  0  0  0  0
   -2.6480  -13.7310    2.3790 C   0  0  0  0  0  0  0  0  0  0  0  0
   -2.3650  -15.1670    2.7160 C   0  0  0  0  0  0  0  0  0  0  0  0
   -2.2020  -15.5750    3.9440 N   0  0  0  0  0  0  0  0  0  0  0  0
   -1.9410  -16.9110    3.8230 N   0  0  0  0  0  0  0  0  0  0  0  0
   -1.7100  -17.7620    4.9650 C   0  0  0  0  0  0  0  0  0  0  0  0
   -0.3630  -17.4950    5.6400 C   0  0  0  0  0  0  0  0  0  0  0  0
    0.8240  -18.2340    5.0190 C   0  0  0  0  0  0  0  0  0  0  0  0
    1.6460  -17.4130    4.0690 N   0  0  0  0  0  0  0  0  0  0  0  0
    1.5060  -17.8770    2.6290 C   0  0  0  0  0  0  0  0  0  0  0  0
    2.6010  -17.2190    1.7680 C   0  0  0  0  0  0  0  0  0  0  0  0
    2.7150  -15.7690    2.0030 N   0  0  0  0  0  0  0  0  0  0  0  0
    3.5500  -15.0110    1.1780 C   0  0  0  0  0  0  0  0  0  0  0  0
    3.9790  -15.4910   -0.0760 C   0  0  0  0  0  0  0  0  0  0  0  0
    4.8420  -14.7610   -0.9050 C   0  0  0  0  0  0  0  0  0  0  0  0
    5.3110  -13.5190   -0.4990 C   0  0  0  0  0  0  0  0  0  0  0  0
    4.9050  -13.0170    0.7280 C   0  0  0  0  0  0  0  0  0  0  0  0
    5.4750  -11.4770    1.2500 Cl  0  0  0  0  0  0  0  0  0  0  0  0
    4.0370  -13.7470    1.5500 C   0  0  0  0  0  0  0  0  0  0  0  0
    1.7140  -15.1300    2.8760 C   0  0  0  0  0  0  0  0  0  0  0  0
    1.4390  -15.9100    4.1840 C   0  0  0  0  0  0  0  0  0  0  0  0
   -1.9920  -17.2840    2.4880 C   0  0  0  0  0  0  0  0  0  0  0  0
   -1.9630  -18.4400    2.0850 O   0  0  0  0  0  0  0  0  0  0  0  0
   -2.2340  -16.1360    1.7860 N   0  0  0  0  0  0  0  0  0  0  0  0
   -2.4400  -16.0810    0.3440 C   0  0  0  0  0  0  0  0  0  0  0  0
   -1.1120  -16.0570   -0.4210 C   0  0  0  0  0  0  0  0  0  0  0  0
   -0.2860  -14.9730    0.0100 O   0  0  0  0  0  0  0  0  0  0  0  0
    0.5030  -14.3420   -0.9100 C   0  0  0  0  0  0  0  0  0  0  0  0
    0.9730  -13.0890   -0.5040 C   0  0  0  0  0  0  0  0  0  0  0  0
    1.7980  -12.3320   -1.3370 C   0  0  0  0  0  0  0  0  0  0  0  0
    2.1590  -12.8240   -2.5870 C   0  0  0  0  0  0  0  0  0  0  0  0
    1.6980  -14.0720   -2.9990 C   0  0  0  0  0  0  0  0  0  0  0  0
    0.8730  -14.8320   -2.1630 C   0  0  0  0  0  0  0  0  0  0  0  0
   -1.2869  -12.7715    3.7404 H   0  0  0  0  0  0  0  0  0  0  0  0
   -0.5390  -13.3432    2.2105 H   0  0  0  0  0  0  0  0  0  0  0  0
   -1.5739  -11.8750    2.2105 H   0  0  0  0  0  0  0  0  0  0  0  0
   -3.4885  -13.3739    2.9923 H   0  0  0  0  0  0  0  0  0  0  0  0
   -2.9010  -13.6590    1.3109 H   0  0  0  0  0  0  0  0  0  0  0  0
   -2.5112  -17.5905    5.6990 H   0  0  0  0  0  0  0  0  0  0  0  0
   -1.7008  -18.8020    4.6068 H   0  0  0  0  0  0  0  0  0  0  0  0
   -0.1607  -16.4152    5.5846 H   0  0  0  0  0  0  0  0  0  0  0  0
   -0.4543  -17.8674    6.6710 H   0  0  0  0  0  0  0  0  0  0  0  0
    1.4800  -18.5745    5.8337 H   0  0  0  0  0  0  0  0  0  0  0  0
    0.4014  -19.0610    4.4296 H   0  0  0  0  0  0  0  0  0  0  0  0
    2.6520  -17.5750    4.2750 H   0  0  0  0  0  0  0  0  0  0  0  0
    1.6126  -18.9709    2.5844 H   0  0  0  0  0  0  0  0  0  0  0  0
    0.5160  -17.5888    2.2458 H   0  0  0  0  0  0  0  0  0  0  0  0
    3.5660  -17.6908    2.0052 H   0  0  0  0  0  0  0  0  0  0  0  0
    2.3256  -17.3638    0.7129 H   0  0  0  0  0  0  0  0  0  0  0  0
    3.6235  -16.4747   -0.4166 H   0  0  0  0  0  0  0  0  0  0  0  0
    5.1479  -15.1726   -1.8781 H   0  0  0  0  0  0  0  0  0  0  0  0
    5.9937  -12.9425   -1.1405 H   0  0  0  0  0  0  0  0  0  0  0  0
    3.7278  -13.3181    2.5146 H   0  0  0  0  0  0  0  0  0  0  0  0
    2.0751  -14.1252    3.1405 H   0  0  0  0  0  0  0  0  0  0  0  0
    0.7688  -15.1025    2.3140 H   0  0  0  0  0  0  0  0  0  0  0  0
    2.1152  -15.5272    4.9626 H   0  0  0  0  0  0  0  0  0  0  0  0
    0.3776  -15.7548    4.4275 H   0  0  0  0  0  0  0  0  0  0  0  0
   -3.0142  -16.9660    0.0325 H   0  0  0  0  0  0  0  0  0  0  0  0
   -2.9847  -15.1539    0.1119 H   0  0  0  0  0  0  0  0  0  0  0  0
   -0.5805  -17.0042   -0.2468 H   0  0  0  0  0  0  0  0  0  0  0  0
   -1.3292  -15.9249   -1.4912 H   0  0  0  0  0  0  0  0  0  0  0  0
    0.6892  -12.6956    0.4833 H   0  0  0  0  0  0  0  0  0  0  0  0
    2.1621  -11.3483   -1.0058 H   0  0  0  0  0  0  0  0  0  0  0  0
    2.8066  -12.2293   -3.2480 H   0  0  0  0  0  0  0  0  0  0  0  0
    1.9841  -14.4621   -3.9869 H   0  0  0  0  0  0  0  0  0  0  0  0
    0.5152  -15.8181   -2.4942 H   0  0  0  0  0  0  0  0  0  0  0  0
  1  2  1  0
  2  3  1  0
  3  4  2  0
  4  5  1  0
  5  6  1  0
  6  7  1  0
  7  8  1  0
  8  9  1  0
  9 10  1  0
 10 11  1  0
 11 12  1  0
 12 13  1  0
 13 14  2  0
 14 15  1  0
 15 16  2  0
 16 17  1  0
 17 18  1  0
 17 19  2  0
 12 20  1  0
 20 21  1  0
  5 22  1  0
 22 23  2  0
 22 24  1  0
 24 25  1  0
 25 26  1  0
 26 27  1  0
 27 28  1  0
 28 29  2  0
 29 30  1  0
 30 31  2  0
 31 32  1  0
 32 33  2  0
 24  3  1  0
 33 28  1  0
 21  9  1  0
 19 13  1  0
  1 34  1  0
  1 35  1  0
  1 36  1  0
  2 37  1  0
  2 38  1  0
  6 39  1  0
  6 40  1  0
  7 41  1  0
  7 42  1  0
  8 43  1  0
  8 44  1  0
  9 45  1  0
 10 46  1  0
 10 47  1  0
 11 48  1  0
 11 49  1  0
 14 50  1  0
 15 51  1  0
 16 52  1  0
 19 53  1  0
 20 54  1  0
 20 55  1  0
 21 56  1  0
 21 57  1  0
 25 58  1  0
 25 59  1  0
 26 60  1  0
 26 61  1  0
 29 62  1  0
 30 63  1  0
 31 64  1  0
 32 65  1  0
 33 66  1  0
M  CHG  1   9   1
M  END
>  <meeko>  (5) 
{"is_sidechain": [false], "free_energy": -6.015, "intermolecular_energy": -9.049, "internal_energy": -3.509}

$$$$
REF_CHEMBL623__M_PUB_ALL__e8__s20260927
     RDKit          3D

 66 69  0  0  0  0  0  0  0  0999 V2000
   12.7130  -11.9500   -3.1570 C   0  0  0  0  0  0  0  0  0  0  0  0
   13.8250  -12.8690   -3.6280 C   0  0  0  0  0  0  0  0  0  0  0  0
   13.2900  -13.8920   -4.5880 C   0  0  0  0  0  0  0  0  0  0  0  0
   12.8630  -13.5740   -5.7790 N   0  0  0  0  0  0  0  0  0  0  0  0
   12.4430  -14.7600   -6.3130 N   0  0  0  0  0  0  0  0  0  0  0  0
   11.9020  -14.8600   -7.6470 C   0  0  0  0  0  0  0  0  0  0  0  0
   10.4570  -15.3620   -7.6650 C   0  0  0  0  0  0  0  0  0  0  0  0
    9.4920  -14.5140   -8.4980 C   0  0  0  0  0  0  0  0  0  0  0  0
    8.2770  -14.0380   -7.7560 N   0  0  0  0  0  0  0  0  0  0  0  0
    7.1090  -13.7450   -8.6810 C   0  0  0  0  0  0  0  0  0  0  0  0
    6.0260  -12.9650   -7.9120 C   0  0  0  0  0  0  0  0  0  0  0  0
    5.7160  -13.5660   -6.6020 N   0  0  0  0  0  0  0  0  0  0  0  0
    4.6410  -13.0660   -5.8630 C   0  0  0  0  0  0  0  0  0  0  0  0
    4.3980  -11.6810   -5.7600 C   0  0  0  0  0  0  0  0  0  0  0  0
    3.3450  -11.1570   -4.9980 C   0  0  0  0  0  0  0  0  0  0  0  0
    2.4950  -12.0090   -4.3070 C   0  0  0  0  0  0  0  0  0  0  0  0
    2.7040  -13.3780   -4.3910 C   0  0  0  0  0  0  0  0  0  0  0  0
    1.6610  -14.4530   -3.5400 Cl  0  0  0  0  0  0  0  0  0  0  0  0
    3.7540  -13.8970   -5.1580 C   0  0  0  0  0  0  0  0  0  0  0  0
    6.3380  -14.8600   -6.2710 C   0  0  0  0  0  0  0  0  0  0  0  0
    7.8500  -14.9260   -6.5970 C   0  0  0  0  0  0  0  0  0  0  0  0
   12.6690  -15.7910   -5.4140 C   0  0  0  0  0  0  0  0  0  0  0  0
   12.5470  -16.9820   -5.6720 O   0  0  0  0  0  0  0  0  0  0  0  0
   13.1860  -15.2050   -4.2920 N   0  0  0  0  0  0  0  0  0  0  0  0
   13.6420  -15.9370   -3.1160 C   0  0  0  0  0  0  0  0  0  0  0  0
   12.4940  -16.2180   -2.1400 C   0  0  0  0  0  0  0  0  0  0  0  0
   12.6640  -15.4930   -0.9190 O   0  0  0  0  0  0  0  0  0  0  0  0
   11.7830  -14.4930   -0.6210 C   0  0  0  0  0  0  0  0  0  0  0  0
   12.2920  -13.5120    0.2370 C   0  0  0  0  0  0  0  0  0  0  0  0
   11.5090  -12.4240    0.6230 C   0  0  0  0  0  0  0  0  0  0  0  0
   10.2060  -12.3080    0.1520 C   0  0  0  0  0  0  0  0  0  0  0  0
    9.6910  -13.2770   -0.7060 C   0  0  0  0  0  0  0  0  0  0  0  0
   10.4760  -14.3670   -1.0930 C   0  0  0  0  0  0  0  0  0  0  0  0
   12.6924  -11.9330   -2.0573 H   0  0  0  0  0  0  0  0  0  0  0  0
   12.8924  -10.9331   -3.5361 H   0  0  0  0  0  0  0  0  0  0  0  0
   11.7481  -12.3177   -3.5361 H   0  0  0  0  0  0  0  0  0  0  0  0
   14.6001  -12.2716   -4.1303 H   0  0  0  0  0  0  0  0  0  0  0  0
   14.2514  -13.3874   -2.7566 H   0  0  0  0  0  0  0  0  0  0  0  0
   11.9341  -13.8649   -8.1147 H   0  0  0  0  0  0  0  0  0  0  0  0
   12.5130  -15.5901   -8.1981 H   0  0  0  0  0  0  0  0  0  0  0  0
   10.4548  -16.3833   -8.0735 H   0  0  0  0  0  0  0  0  0  0  0  0
   10.0981  -15.3086   -6.6266 H   0  0  0  0  0  0  0  0  0  0  0  0
   10.0383  -13.6318   -8.8631 H   0  0  0  0  0  0  0  0  0  0  0  0
    9.1277  -15.1625   -9.3084 H   0  0  0  0  0  0  0  0  0  0  0  0
    8.4880  -13.1110   -7.3360 H   0  0  0  0  0  0  0  0  0  0  0  0
    7.4584  -13.1434   -9.5330 H   0  0  0  0  0  0  0  0  0  0  0  0
    6.6867  -14.6919   -9.0484 H   0  0  0  0  0  0  0  0  0  0  0  0
    6.3797  -11.9357   -7.7524 H   0  0  0  0  0  0  0  0  0  0  0  0
    5.1066  -12.9894   -8.5154 H   0  0  0  0  0  0  0  0  0  0  0  0
    5.0595  -10.9859   -6.2977 H   0  0  0  0  0  0  0  0  0  0  0  0
    3.1920  -10.0689   -4.9475 H   0  0  0  0  0  0  0  0  0  0  0  0
    1.6692  -11.6056   -3.7026 H   0  0  0  0  0  0  0  0  0  0  0  0
    3.8885  -14.9875   -5.2103 H   0  0  0  0  0  0  0  0  0  0  0  0
    6.2067  -15.0430   -5.1943 H   0  0  0  0  0  0  0  0  0  0  0  0
    5.8424  -15.6223   -6.8901 H   0  0  0  0  0  0  0  0  0  0  0  0
    8.4098  -14.6177   -5.7017 H   0  0  0  0  0  0  0  0  0  0  0  0
    8.0638  -15.9624   -6.8972 H   0  0  0  0  0  0  0  0  0  0  0  0
   14.0771  -16.8943   -3.4390 H   0  0  0  0  0  0  0  0  0  0  0  0
   14.3888  -15.3185   -2.5966 H   0  0  0  0  0  0  0  0  0  0  0  0
   11.5445  -15.9171   -2.6067 H   0  0  0  0  0  0  0  0  0  0  0  0
   12.4888  -17.2934   -1.9087 H   0  0  0  0  0  0  0  0  0  0  0  0
   13.3224  -13.5998    0.6118 H   0  0  0  0  0  0  0  0  0  0  0  0
   11.9214  -11.6598    1.2983 H   0  0  0  0  0  0  0  0  0  0  0  0
    9.5836  -11.4535    0.4560 H   0  0  0  0  0  0  0  0  0  0  0  0
    8.6611  -13.1840   -1.0810 H   0  0  0  0  0  0  0  0  0  0  0  0
   10.0622  -15.1275   -1.7715 H   0  0  0  0  0  0  0  0  0  0  0  0
  1  2  1  0
  2  3  1  0
  3  4  2  0
  4  5  1  0
  5  6  1  0
  6  7  1  0
  7  8  1  0
  8  9  1  0
  9 10  1  0
 10 11  1  0
 11 12  1  0
 12 13  1  0
 13 14  2  0
 14 15  1  0
 15 16  2  0
 16 17  1  0
 17 18  1  0
 17 19  2  0
 12 20  1  0
 20 21  1  0
  5 22  1  0
 22 23  2  0
 22 24  1  0
 24 25  1  0
 25 26  1  0
 26 27  1  0
 27 28  1  0
 28 29  2  0
 29 30  1  0
 30 31  2  0
 31 32  1  0
 32 33  2  0
 24  3  1  0
 33 28  1  0
 21  9  1  0
 19 13  1  0
  1 34  1  0
  1 35  1  0
  1 36  1  0
  2 37  1  0
  2 38  1  0
  6 39  1  0
  6 40  1  0
  7 41  1  0
  7 42  1  0
  8 43  1  0
  8 44  1  0
  9 45  1  0
 10 46  1  0
 10 47  1  0
 11 48  1  0
 11 49  1  0
 14 50  1  0
 15 51  1  0
 16 52  1  0
 19 53  1  0
 20 54  1  0
 20 55  1  0
 21 56  1  0
 21 57  1  0
 25 58  1  0
 25 59  1  0
 26 60  1  0
 26 61  1  0
 29 62  1  0
 30 63  1  0
 31 64  1  0
 32 65  1  0
 33 66  1  0
M  CHG  1   9   1
M  END
>  <meeko>  (6) 
{"is_sidechain": [false], "free_energy": -6.014, "intermolecular_energy": -11.005, "internal_energy": -1.552}

$$$$
REF_CHEMBL623__M_PUB_ALL__e8__s20260927
     RDKit          3D

 66 69  0  0  0  0  0  0  0  0999 V2000
   -1.9510  -16.1210    1.5990 C   0  0  0  0  0  0  0  0  0  0  0  0
   -2.8590  -17.2390    2.0790 C   0  0  0  0  0  0  0  0  0  0  0  0
   -2.4990  -17.6440    3.4790 C   0  0  0  0  0  0  0  0  0  0  0  0
   -1.5430  -18.4940    3.7350 N   0  0  0  0  0  0  0  0  0  0  0  0
   -1.5520  -18.6110    5.0970 N   0  0  0  0  0  0  0  0  0  0  0  0
   -0.6260  -19.4590    5.8070 C   0  0  0  0  0  0  0  0  0  0  0  0
    0.8300  -19.0220    5.6360 C   0  0  0  0  0  0  0  0  0  0  0  0
    1.1450  -17.6180    6.1560 C   0  0  0  0  0  0  0  0  0  0  0  0
    0.7320  -16.5030    5.2400 N   0  0  0  0  0  0  0  0  0  0  0  0
    0.7040  -15.1560    5.9400 C   0  0  0  0  0  0  0  0  0  0  0  0
   -0.0260  -14.1290    5.0530 C   0  0  0  0  0  0  0  0  0  0  0  0
    0.4370  -14.1550    3.6540 N   0  0  0  0  0  0  0  0  0  0  0  0
   -0.0160  -13.1720    2.7720 C   0  0  0  0  0  0  0  0  0  0  0  0
    0.3760  -13.1590    1.4180 C   0  0  0  0  0  0  0  0  0  0  0  0
   -0.0420  -12.1640    0.5230 C   0  0  0  0  0  0  0  0  0  0  0  0
   -0.8690  -11.1390    0.9600 C   0  0  0  0  0  0  0  0  0  0  0  0
   -1.2760  -11.1240    2.2860 C   0  0  0  0  0  0  0  0  0  0  0  0
   -2.3020   -9.8600    2.8480 Cl  0  0  0  0  0  0  0  0  0  0  0  0
   -0.8610  -12.1230    3.1740 C   0  0  0  0  0  0  0  0  0  0  0  0
    1.5920  -15.0080    3.3250 C   0  0  0  0  0  0  0  0  0  0  0  0
    1.5130  -16.4280    3.9360 C   0  0  0  0  0  0  0  0  0  0  0  0
   -2.5190  -17.7760    5.6360 C   0  0  0  0  0  0  0  0  0  0  0  0
   -2.6510  -17.5430    6.8310 O   0  0  0  0  0  0  0  0  0  0  0  0
   -3.1420  -17.1850    4.5730 N   0  0  0  0  0  0  0  0  0  0  0  0
   -4.1800  -16.1670    4.6890 C   0  0  0  0  0  0  0  0  0  0  0  0
   -5.5590  -16.7870    4.9420 C   0  0  0  0  0  0  0  0  0  0  0  0
   -5.7630  -17.0450    6.3340 O   0  0  0  0  0  0  0  0  0  0  0  0
   -5.8620  -15.9860    7.1910 C   0  0  0  0  0  0  0  0  0  0  0  0
   -5.2130  -16.1740    8.4160 C   0  0  0  0  0  0  0  0  0  0  0  0
   -5.2220  -15.1740    9.3890 C   0  0  0  0  0  0  0  0  0  0  0  0
   -5.8810  -13.9740    9.1430 C   0  0  0  0  0  0  0  0  0  0  0  0
   -6.5270  -13.7770    7.9250 C   0  0  0  0  0  0  0  0  0  0  0  0
   -6.5180  -14.7790    6.9490 C   0  0  0  0  0  0  0  0  0  0  0  0
   -1.5250  -15.5965    2.4670 H   0  0  0  0  0  0  0  0  0  0  0  0
   -1.1379  -16.5445    0.9911 H   0  0  0  0  0  0  0  0  0  0  0  0
   -2.5322  -15.4120    0.9911 H   0  0  0  0  0  0  0  0  0  0  0  0
   -3.9025  -16.8914    2.0597 H   0  0  0  0  0  0  0  0  0  0  0  0
   -2.7362  -18.1071    1.4147 H   0  0  0  0  0  0  0  0  0  0  0  0
   -0.8768  -19.4340    6.8777 H   0  0  0  0  0  0  0  0  0  0  0  0
   -0.7185  -20.4724    5.3893 H   0  0  0  0  0  0  0  0  0  0  0  0
    1.4675  -19.7376    6.1759 H   0  0  0  0  0  0  0  0  0  0  0  0
    1.0212  -19.0006    4.5530 H   0  0  0  0  0  0  0  0  0  0  0  0
    0.6249  -17.4834    7.1159 H   0  0  0  0  0  0  0  0  0  0  0  0
    2.2397  -17.5578    6.2450 H   0  0  0  0  0  0  0  0  0  0  0  0
   -0.2590  -16.6500    4.9650 H   0  0  0  0  0  0  0  0  0  0  0  0
    0.1751  -15.2528    6.8996 H   0  0  0  0  0  0  0  0  0  0  0  0
    1.7345  -14.8162    6.1209 H   0  0  0  0  0  0  0  0  0  0  0  0
   -1.1032  -14.3508    5.0714 H   0  0  0  0  0  0  0  0  0  0  0  0
    0.1902  -13.1286    5.4561 H   0  0  0  0  0  0  0  0  0  0  0  0
    1.0345  -13.9595    1.0498 H   0  0  0  0  0  0  0  0  0  0  0  0
    0.2859  -12.1959   -0.5265 H   0  0  0  0  0  0  0  0  0  0  0  0
   -1.1966  -10.3509    0.2660 H   0  0  0  0  0  0  0  0  0  0  0  0
   -1.2064  -12.0862    4.2177 H   0  0  0  0  0  0  0  0  0  0  0  0
    1.6520  -15.1039    2.2308 H   0  0  0  0  0  0  0  0  0  0  0  0
    2.4813  -14.5232    3.7541 H   0  0  0  0  0  0  0  0  0  0  0  0
    1.0284  -17.0918    3.2049 H   0  0  0  0  0  0  0  0  0  0  0  0
    2.5449  -16.7306    4.1675 H   0  0  0  0  0  0  0  0  0  0  0  0
   -3.9311  -15.4984    5.5262 H   0  0  0  0  0  0  0  0  0  0  0  0
   -4.2231  -15.6126    3.7399 H   0  0  0  0  0  0  0  0  0  0  0  0
   -6.3350  -16.0922    4.5884 H   0  0  0  0  0  0  0  0  0  0  0  0
   -5.6164  -17.7418    4.3989 H   0  0  0  0  0  0  0  0  0  0  0  0
   -4.6897  -17.1210    8.6144 H   0  0  0  0  0  0  0  0  0  0  0  0
   -4.7090  -15.3343   10.3487 H   0  0  0  0  0  0  0  0  0  0  0  0
   -5.8919  -13.1834    9.9078 H   0  0  0  0  0  0  0  0  0  0  0  0
   -7.0474  -12.8278    7.7293 H   0  0  0  0  0  0  0  0  0  0  0  0
   -7.0292  -14.6148    5.9889 H   0  0  0  0  0  0  0  0  0  0  0  0
  1  2  1  0
  2  3  1  0
  3  4  2  0
  4  5  1  0
  5  6  1  0
  6  7  1  0
  7  8  1  0
  8  9  1  0
  9 10  1  0
 10 11  1  0
 11 12  1  0
 12 13  1  0
 13 14  2  0
 14 15  1  0
 15 16  2  0
 16 17  1  0
 17 18  1  0
 17 19  2  0
 12 20  1  0
 20 21  1  0
  5 22  1  0
 22 23  2  0
 22 24  1  0
 24 25  1  0
 25 26  1  0
 26 27  1  0
 27 28  1  0
 28 29  2  0
 29 30  1  0
 30 31  2  0
 31 32  1  0
 32 33  2  0
 24  3  1  0
 33 28  1  0
 21  9  1  0
 19 13  1  0
  1 34  1  0
  1 35  1  0
  1 36  1  0
  2 37  1  0
  2 38  1  0
  6 39  1  0
  6 40  1  0
  7 41  1  0
  7 42  1  0
  8 43  1  0
  8 44  1  0
  9 45  1  0
 10 46  1  0
 10 47  1  0
 11 48  1  0
 11 49  1  0
 14 50  1  0
 15 51  1  0
 16 52  1  0
 19 53  1  0
 20 54  1  0
 20 55  1  0
 21 56  1  0
 21 57  1  0
 25 58  1  0
 25 59  1  0
 26 60  1  0
 26 61  1  0
 29 62  1  0
 30 63  1  0
 31 64  1  0
 32 65  1  0
 33 66  1  0
M  CHG  1   9   1
M  END
>  <meeko>  (7) 
{"is_sidechain": [false], "free_energy": -6.011, "intermolecular_energy": -10.665, "internal_energy": -1.887}

$$$$
REF_CHEMBL623__M_PUB_ALL__e8__s20260927
     RDKit          3D

 66 69  0  0  0  0  0  0  0  0999 V2000
    4.7570  -13.4780    1.7440 C   0  0  0  0  0  0  0  0  0  0  0  0
    3.7710  -13.5930    0.5960 C   0  0  0  0  0  0  0  0  0  0  0  0
    3.5320  -15.0350    0.2510 C   0  0  0  0  0  0  0  0  0  0  0  0
    2.8010  -15.8180    0.9950 N   0  0  0  0  0  0  0  0  0  0  0  0
    2.8560  -17.0290    0.3650 N   0  0  0  0  0  0  0  0  0  0  0  0
    2.1590  -18.1920    0.8590 C   0  0  0  0  0  0  0  0  0  0  0  0
    1.1070  -17.8490    1.9160 C   0  0  0  0  0  0  0  0  0  0  0  0
   -0.2580  -17.4450    1.3560 C   0  0  0  0  0  0  0  0  0  0  0  0
   -0.5520  -15.9740    1.4210 N   0  0  0  0  0  0  0  0  0  0  0  0
   -1.8130  -15.6000    0.6610 C   0  0  0  0  0  0  0  0  0  0  0  0
   -1.8780  -14.0690    0.4940 C   0  0  0  0  0  0  0  0  0  0  0  0
   -1.6070  -13.3490    1.7510 N   0  0  0  0  0  0  0  0  0  0  0  0
   -1.7910  -11.9650    1.7930 C   0  0  0  0  0  0  0  0  0  0  0  0
   -2.1420  -11.2330    0.6400 C   0  0  0  0  0  0  0  0  0  0  0  0
   -2.3000   -9.8400    0.6530 C   0  0  0  0  0  0  0  0  0  0  0  0
   -2.1060   -9.1290    1.8290 C   0  0  0  0  0  0  0  0  0  0  0  0
   -1.7640   -9.8190    2.9820 C   0  0  0  0  0  0  0  0  0  0  0  0
   -1.5190   -8.9560    4.4520 Cl  0  0  0  0  0  0  0  0  0  0  0  0
   -1.6130  -11.2120    2.9660 C   0  0  0  0  0  0  0  0  0  0  0  0
   -1.4660  -14.1410    2.9850 C   0  0  0  0  0  0  0  0  0  0  0  0
   -0.5640  -15.3890    2.8250 C   0  0  0  0  0  0  0  0  0  0  0  0
    3.6110  -16.9260   -0.7930 C   0  0  0  0  0  0  0  0  0  0  0  0
    3.7030  -17.7990   -1.6470 O   0  0  0  0  0  0  0  0  0  0  0  0
    4.0670  -15.6370   -0.8310 N   0  0  0  0  0  0  0  0  0  0  0  0
    4.8450  -15.0720   -1.9280 C   0  0  0  0  0  0  0  0  0  0  0  0
    4.0460  -15.0390   -3.2350 C   0  0  0  0  0  0  0  0  0  0  0  0
    2.8250  -14.3120   -3.0780 O   0  0  0  0  0  0  0  0  0  0  0  0
    2.8020  -12.9880   -3.4140 C   0  0  0  0  0  0  0  0  0  0  0  0
    2.3070  -12.1480   -2.4110 C   0  0  0  0  0  0  0  0  0  0  0  0
    2.2320  -10.7680   -2.6070 C   0  0  0  0  0  0  0  0  0  0  0  0
    2.6530  -10.2170   -3.8130 C   0  0  0  0  0  0  0  0  0  0  0  0
    3.1510  -11.0450   -4.8160 C   0  0  0  0  0  0  0  0  0  0  0  0
    3.2270  -12.4270   -4.6190 C   0  0  0  0  0  0  0  0  0  0  0  0
    4.2160  -13.5411    2.6997 H   0  0  0  0  0  0  0  0  0  0  0  0
    5.4889  -14.2969    1.6822 H   0  0  0  0  0  0  0  0  0  0  0  0
    5.2808  -12.5127    1.6822 H   0  0  0  0  0  0  0  0  0  0  0  0
    2.8181  -13.1281    0.8891 H   0  0  0  0  0  0  0  0  0  0  0  0
    4.1877  -13.0808   -0.2838 H   0  0  0  0  0  0  0  0  0  0  0  0
    1.6591  -18.6875    0.0136 H   0  0  0  0  0  0  0  0  0  0  0  0
    2.9039  -18.8473    1.3340 H   0  0  0  0  0  0  0  0  0  0  0  0
    0.9660  -18.7315    2.5573 H   0  0  0  0  0  0  0  0  0  0  0  0
    1.4896  -16.9731    2.4604 H   0  0  0  0  0  0  0  0  0  0  0  0
   -0.3021  -17.7571    0.3021 H   0  0  0  0  0  0  0  0  0  0  0  0
   -1.0114  -17.9407    1.9858 H   0  0  0  0  0  0  0  0  0  0  0  0
    0.1950  -15.4640    0.9100 H   0  0  0  0  0  0  0  0  0  0  0  0
   -1.7985  -16.0766   -0.3303 H   0  0  0  0  0  0  0  0  0  0  0  0
   -2.6944  -15.9452    1.2213 H   0  0  0  0  0  0  0  0  0  0  0  0
   -1.1315  -13.7644   -0.2543 H   0  0  0  0  0  0  0  0  0  0  0  0
   -2.8994  -13.8119    0.1767 H   0  0  0  0  0  0  0  0  0  0  0  0
   -2.2976  -11.7749   -0.3045 H   0  0  0  0  0  0  0  0  0  0  0  0
   -2.5780   -9.3100   -0.2699 H   0  0  0  0  0  0  0  0  0  0  0  0
   -2.2217   -8.0352    1.8461 H   0  0  0  0  0  0  0  0  0  0  0  0
   -1.3474  -11.7311    3.8987 H   0  0  0  0  0  0  0  0  0  0  0  0
   -1.0318  -13.4964    3.7634 H   0  0  0  0  0  0  0  0  0  0  0  0
   -2.4702  -14.5027    3.2509 H   0  0  0  0  0  0  0  0  0  0  0  0
    0.4656  -15.1067    3.0898 H   0  0  0  0  0  0  0  0  0  0  0  0
   -0.9771  -16.1644    3.4869 H   0  0  0  0  0  0  0  0  0  0  0  0
    5.1386  -14.0452   -1.6643 H   0  0  0  0  0  0  0  0  0  0  0  0
    5.7285  -15.7085   -2.0836 H   0  0  0  0  0  0  0  0  0  0  0  0
    4.6534  -14.5557   -4.0144 H   0  0  0  0  0  0  0  0  0  0  0  0
    3.8009  -16.0731   -3.5188 H   0  0  0  0  0  0  0  0  0  0  0  0
    1.9728  -12.5802   -1.4562 H   0  0  0  0  0  0  0  0  0  0  0  0
    1.8412  -10.1181   -1.8102 H   0  0  0  0  0  0  0  0  0  0  0  0
    2.5927   -9.1305   -3.9739 H   0  0  0  0  0  0  0  0  0  0  0  0
    3.4864  -10.6091   -5.7686 H   0  0  0  0  0  0  0  0  0  0  0  0
    3.6228  -13.0738   -5.4159 H   0  0  0  0  0  0  0  0  0  0  0  0
  1  2  1  0
  2  3  1  0
  3  4  2  0
  4  5  1  0
  5  6  1  0
  6  7  1  0
  7  8  1  0
  8  9  1  0
  9 10  1  0
 10 11  1  0
 11 12  1  0
 12 13  1  0
 13 14  2  0
 14 15  1  0
 15 16  2  0
 16 17  1  0
 17 18  1  0
 17 19  2  0
 12 20  1  0
 20 21  1  0
  5 22  1  0
 22 23  2  0
 22 24  1  0
 24 25  1  0
 25 26  1  0
 26 27  1  0
 27 28  1  0
 28 29  2  0
 29 30  1  0
 30 31  2  0
 31 32  1  0
 32 33  2  0
 24  3  1  0
 33 28  1  0
 21  9  1  0
 19 13  1  0
  1 34  1  0
  1 35  1  0
  1 36  1  0
  2 37  1  0
  2 38  1  0
  6 39  1  0
  6 40  1  0
  7 41  1  0
  7 42  1  0
  8 43  1  0
  8 44  1  0
  9 45  1  0
 10 46  1  0
 10 47  1  0
 11 48  1  0
 11 49  1  0
 14 50  1  0
 15 51  1  0
 16 52  1  0
 19 53  1  0
 20 54  1  0
 20 55  1  0
 21 56  1  0
 21 57  1  0
 25 58  1  0
 25 59  1  0
 26 60  1  0
 26 61  1  0
 29 62  1  0
 30 63  1  0
 31 64  1  0
 32 65  1  0
 33 66  1  0
M  CHG  1   9   1
M  END
>  <meeko>  (8) 
{"is_sidechain": [false], "free_energy": -5.986, "intermolecular_energy": -10.782, "internal_energy": -1.731}

$$$$
REF_CHEMBL623__M_PUB_ALL__e8__s20260927
     RDKit          3D

 66 69  0  0  0  0  0  0  0  0999 V2000
    9.5510  -16.1730   -1.3650 C   0  0  0  0  0  0  0  0  0  0  0  0
    8.0460  -16.1410   -1.5560 C   0  0  0  0  0  0  0  0  0  0  0  0
    7.6550  -15.0070   -2.4590 C   0  0  0  0  0  0  0  0  0  0  0  0
    7.6340  -15.1250   -3.7570 N   0  0  0  0  0  0  0  0  0  0  0  0
    7.2600  -13.8870   -4.2020 N   0  0  0  0  0  0  0  0  0  0  0  0
    7.1000  -13.5840   -5.6030 C   0  0  0  0  0  0  0  0  0  0  0  0
    5.7140  -13.9530   -6.1350 C   0  0  0  0  0  0  0  0  0  0  0  0
    4.6940  -12.8120   -6.1200 C   0  0  0  0  0  0  0  0  0  0  0  0
    3.9820  -12.6250   -4.8110 N   0  0  0  0  0  0  0  0  0  0  0  0
    3.3460  -11.2510   -4.6870 C   0  0  0  0  0  0  0  0  0  0  0  0
    2.9230  -11.0110   -3.2250 C   0  0  0  0  0  0  0  0  0  0  0  0
    2.1860  -12.1510   -2.6520 N   0  0  0  0  0  0  0  0  0  0  0  0
    1.5980  -12.0140   -1.3920 C   0  0  0  0  0  0  0  0  0  0  0  0
    1.2930  -13.1360   -0.5950 C   0  0  0  0  0  0  0  0  0  0  0  0
    0.6740  -13.0230    0.6570 C   0  0  0  0  0  0  0  0  0  0  0  0
    0.3330  -11.7730    1.1540 C   0  0  0  0  0  0  0  0  0  0  0  0
    0.6220  -10.6480    0.3960 C   0  0  0  0  0  0  0  0  0  0  0  0
    0.2080   -9.0870    0.9950 Cl  0  0  0  0  0  0  0  0  0  0  0  0
    1.2470  -10.7660   -0.8520 C   0  0  0  0  0  0  0  0  0  0  0  0
    1.8290  -13.2630   -3.5490 C   0  0  0  0  0  0  0  0  0  0  0  0
    2.9880  -13.7240   -4.4660 C   0  0  0  0  0  0  0  0  0  0  0  0
    7.0270  -13.0480   -3.1230 C   0  0  0  0  0  0  0  0  0  0  0  0
    6.5250  -11.9340   -3.2020 O   0  0  0  0  0  0  0  0  0  0  0  0
    7.3190  -13.7800   -2.0060 N   0  0  0  0  0  0  0  0  0  0  0  0
    7.1390  -13.3050   -0.6400 C   0  0  0  0  0  0  0  0  0  0  0  0
    8.2380  -12.3200   -0.2290 C   0  0  0  0  0  0  0  0  0  0  0  0
    9.4430  -13.0050    0.1220 O   0  0  0  0  0  0  0  0  0  0  0  0
   10.6390  -12.4730   -0.2690 C   0  0  0  0  0  0  0  0  0  0  0  0
   10.9720  -12.7230   -1.6050 C   0  0  0  0  0  0  0  0  0  0  0  0
   12.1600  -12.2340   -2.1480 C   0  0  0  0  0  0  0  0  0  0  0  0
   13.0280  -11.4880   -1.3570 C   0  0  0  0  0  0  0  0  0  0  0  0
   12.7040  -11.2320   -0.0270 C   0  0  0  0  0  0  0  0  0  0  0  0
   11.5120  -11.7210    0.5170 C   0  0  0  0  0  0  0  0  0  0  0  0
    9.7842  -16.1780   -0.2900 H   0  0  0  0  0  0  0  0  0  0  0  0
    9.9608  -17.0801   -1.8333 H   0  0  0  0  0  0  0  0  0  0  0  0
    9.9990  -15.2842   -1.8333 H   0  0  0  0  0  0  0  0  0  0  0  0
    7.7176  -17.0904   -2.0041 H   0  0  0  0  0  0  0  0  0  0  0  0
    7.5659  -15.9980   -0.5767 H   0  0  0  0  0  0  0  0  0  0  0  0
    7.2568  -12.5051   -5.7493 H   0  0  0  0  0  0  0  0  0  0  0  0
    7.8377  -14.1826   -6.1576 H   0  0  0  0  0  0  0  0  0  0  0  0
    5.8270  -14.2969   -7.1737 H   0  0  0  0  0  0  0  0  0  0  0  0
    5.3206  -14.7278   -5.4606 H   0  0  0  0  0  0  0  0  0  0  0  0
    5.2218  -11.8772   -6.3597 H   0  0  0  0  0  0  0  0  0  0  0  0
    3.9226  -13.0746   -6.8589 H   0  0  0  0  0  0  0  0  0  0  0  0
    4.6860  -12.6330   -4.0470 H   0  0  0  0  0  0  0  0  0  0  0  0
    4.0722  -10.4821   -4.9895 H   0  0  0  0  0  0  0  0  0  0  0  0
    2.4613  -11.1963   -5.3384 H   0  0  0  0  0  0  0  0  0  0  0  0
    3.8260  -10.8365   -2.6215 H   0  0  0  0  0  0  0  0  0  0  0  0
    2.2507  -10.1404   -3.2122 H   0  0  0  0  0  0  0  0  0  0  0  0
    1.5505  -14.1376   -0.9699 H   0  0  0  0  0  0  0  0  0  0  0  0
    0.4581  -13.9262    1.2466 H   0  0  0  0  0  0  0  0  0  0  0  0
   -0.1585  -11.6760    2.1333 H   0  0  0  0  0  0  0  0  0  0  0  0
    1.4694   -9.8544   -1.4260 H   0  0  0  0  0  0  0  0  0  0  0  0
    1.5135  -14.1178   -2.9328 H   0  0  0  0  0  0  0  0  0  0  0  0
    1.0262  -12.8985   -4.2067 H   0  0  0  0  0  0  0  0  0  0  0  0
    3.5311  -14.5333   -3.9559 H   0  0  0  0  0  0  0  0  0  0  0  0
    2.5329  -14.0489   -5.4133 H   0  0  0  0  0  0  0  0  0  0  0  0
    6.1637  -12.8019   -0.5639 H   0  0  0  0  0  0  0  0  0  0  0  0
    7.1903  -14.1737    0.0329 H   0  0  0  0  0  0  0  0  0  0  0  0
    8.4434  -11.6408   -1.0695 H   0  0  0  0  0  0  0  0  0  0  0  0
    7.8896  -11.7568    0.6493 H   0  0  0  0  0  0  0  0  0  0  0  0
   10.2887  -13.3121   -2.2344 H   0  0  0  0  0  0  0  0  0  0  0  0
   12.4102  -12.4378   -3.1996 H   0  0  0  0  0  0  0  0  0  0  0  0
   13.9668  -11.1018   -1.7806 H   0  0  0  0  0  0  0  0  0  0  0  0
   13.3894  -10.6419    0.5991 H   0  0  0  0  0  0  0  0  0  0  0  0
   11.2622  -11.5120    1.5677 H   0  0  0  0  0  0  0  0  0  0  0  0
  1  2  1  0
  2  3  1  0
  3  4  2  0
  4  5  1  0
  5  6  1  0
  6  7  1  0
  7  8  1  0
  8  9  1  0
  9 10  1  0
 10 11  1  0
 11 12  1  0
 12 13  1  0
 13 14  2  0
 14 15  1  0
 15 16  2  0
 16 17  1  0
 17 18  1  0
 17 19  2  0
 12 20  1  0
 20 21  1  0
  5 22  1  0
 22 23  2  0
 22 24  1  0
 24 25  1  0
 25 26  1  0
 26 27  1  0
 27 28  1  0
 28 29  2  0
 29 30  1  0
 30 31  2  0
 31 32  1  0
 32 33  2  0
 24  3  1  0
 33 28  1  0
 21  9  1  0
 19 13  1  0
  1 34  1  0
  1 35  1  0
  1 36  1  0
  2 37  1  0
  2 38  1  0
  6 39  1  0
  6 40  1  0
  7 41  1  0
  7 42  1  0
  8 43  1  0
  8 44  1  0
  9 45  1  0
 10 46  1  0
 10 47  1  0
 11 48  1  0
 11 49  1  0
 14 50  1  0
 15 51  1  0
 16 52  1  0
 19 53  1  0
 20 54  1  0
 20 55  1  0
 21 56  1  0
 21 57  1  0
 25 58  1  0
 25 59  1  0
 26 60  1  0
 26 61  1  0
 29 62  1  0
 30 63  1  0
 31 64  1  0
 32 65  1  0
 33 66  1  0
M  CHG  1   9   1
M  END
>  <meeko>  (9) 
{"is_sidechain": [false], "free_energy": -5.883, "intermolecular_energy": -10.401, "internal_energy": -1.949}

$$$$
