REF_CHEMBL488093__M_PUB_ALL__e8__s20260927
     RDKit          3D

 42 43  0  0  0  0  0  0  0  0999 V2000
   11.2640  -11.9020    0.9540 C   0  0  0  0  0  0  0  0  0  0  0  0
   11.6180  -12.5420   -0.3660 C   0  0  0  0  0  0  0  0  0  0  0  0
   11.0500  -13.7640   -0.5700 N   0  0  0  0  0  0  0  0  0  0  0  0
   11.3300  -14.3670   -1.7360 C   0  0  0  0  0  0  0  0  0  0  0  0
   12.1400  -13.8410   -2.7350 C   0  0  0  0  0  0  0  0  0  0  0  0
   12.3160  -14.6430   -3.9980 C   0  0  0  0  0  0  0  0  0  0  0  0
   11.2130  -14.0820   -5.3380 S   0  0  0  0  0  0  0  0  0  0  0  0
   11.9090  -15.1580   -6.9530 S   0  0  0  0  0  0  0  0  0  0  0  0
   12.7750  -13.8880   -7.9370 C   0  0  0  0  0  0  0  0  0  0  0  0
   11.8820  -13.2800   -8.9870 C   0  0  0  0  0  0  0  0  0  0  0  0
   10.5520  -13.6830   -9.0240 C   0  0  0  0  0  0  0  0  0  0  0  0
    9.6350  -13.2340   -9.8940 N   0  0  0  0  0  0  0  0  0  0  0  0
   10.0580  -12.3170  -10.8080 C   0  0  0  0  0  0  0  0  0  0  0  0
    8.9860  -11.8460  -11.7600 C   0  0  0  0  0  0  0  0  0  0  0  0
   11.3800  -11.8060  -10.9180 C   0  0  0  0  0  0  0  0  0  0  0  0
   11.7270  -10.9390  -11.8010 O   0  0  0  0  0  0  0  0  0  0  0  0
   12.3010  -12.3300   -9.9510 C   0  0  0  0  0  0  0  0  0  0  0  0
   13.7670  -11.8990  -10.0180 C   0  0  0  0  0  0  0  0  0  0  0  0
   13.9600  -10.5460   -9.6000 O   0  0  0  0  0  0  0  0  0  0  0  0
   12.7360  -12.5810   -2.4910 C   0  0  0  0  0  0  0  0  0  0  0  0
   13.7110  -11.9750   -3.4980 C   0  0  0  0  0  0  0  0  0  0  0  0
   15.0010  -11.7660   -2.9250 O   0  0  0  0  0  0  0  0  0  0  0  0
   12.4790  -11.8660   -1.2740 C   0  0  0  0  0  0  0  0  0  0  0  0
   12.9790  -10.7070   -1.0400 O   0  0  0  0  0  0  0  0  0  0  0  0
   11.6171  -12.5403    1.7774 H   0  0  0  0  0  0  0  0  0  0  0  0
   11.7444  -10.9149    1.0234 H   0  0  0  0  0  0  0  0  0  0  0  0
   10.1725  -11.7843    1.0234 H   0  0  0  0  0  0  0  0  0  0  0  0
   10.8828  -15.3559   -1.9149 H   0  0  0  0  0  0  0  0  0  0  0  0
   13.3586  -14.5466   -4.3351 H   0  0  0  0  0  0  0  0  0  0  0  0
   12.0610  -15.6884   -3.7695 H   0  0  0  0  0  0  0  0  0  0  0  0
   13.1223  -13.0918   -7.2621 H   0  0  0  0  0  0  0  0  0  0  0  0
   13.6193  -14.3728   -8.4490 H   0  0  0  0  0  0  0  0  0  0  0  0
   10.2265  -14.4276   -8.2826 H   0  0  0  0  0  0  0  0  0  0  0  0
    8.1266  -11.4684  -11.1866 H   0  0  0  0  0  0  0  0  0  0  0  0
    9.3863  -11.0409  -12.3937 H   0  0  0  0  0  0  0  0  0  0  0  0
    8.6637  -12.6854  -12.3937 H   0  0  0  0  0  0  0  0  0  0  0  0
   14.3584  -12.5576   -9.3649 H   0  0  0  0  0  0  0  0  0  0  0  0
   14.0894  -11.9736  -11.0670 H   0  0  0  0  0  0  0  0  0  0  0  0
   13.0400  -10.1830   -9.6930 H   0  0  0  0  0  0  0  0  0  0  0  0
   13.8082  -12.6577   -4.3550 H   0  0  0  0  0  0  0  0  0  0  0  0
   13.3144  -10.9988   -3.8139 H   0  0  0  0  0  0  0  0  0  0  0  0
   15.4260  -12.6480   -3.0900 H   0  0  0  0  0  0  0  0  0  0  0  0
  1  2  1  0
  2  3  2  0
  3  4  1  0
  4  5  2  0
  5  6  1  0
  6  7  1  0
  7  8  1  0
  8  9  1  0
  9 10  1  0
 10 11  2  0
 11 12  1  0
 12 13  2  0
 13 14  1  0
 13 15  1  0
 15 16  1  0
 15 17  2  0
 17 18  1  0
 18 19  1  0
  5 20  1  0
 20 21  1  0
 21 22  1  0
 20 23  2  0
 23 24  1  0
 23  2  1  0
 17 10  1  0
  1 25  1  0
  1 26  1  0
  1 27  1  0
  4 28  1  0
  6 29  1  0
  6 30  1  0
  9 31  1  0
  9 32  1  0
 11 33  1  0
 14 34  1  0
 14 35  1  0
 14 36  1  0
 18 37  1  0
 18 38  1  0
 19 39  1  0
 21 40  1  0
 21 41  1  0
 22 42  1  0
M  CHG  2  16  -1  24  -1
M  END
>  <meeko>  (1) 
{"is_sidechain": [false], "free_energy": -6.595, "intermolecular_energy": -9.679, "internal_energy": -0.82}

$$$$
REF_CHEMBL488093__M_PUB_ALL__e8__s20260927
     RDKit          3D

 42 43  0  0  0  0  0  0  0  0999 V2000
   10.8920  -11.7410    1.3440 C   0  0  0  0  0  0  0  0  0  0  0  0
   10.9620  -12.3910   -0.0160 C   0  0  0  0  0  0  0  0  0  0  0  0
   10.0050  -13.3360   -0.2390 N   0  0  0  0  0  0  0  0  0  0  0  0
   10.0230  -13.9350   -1.4390 C   0  0  0  0  0  0  0  0  0  0  0  0
   10.9300  -13.6620   -2.4570 C   0  0  0  0  0  0  0  0  0  0  0  0
   10.7790  -14.4080   -3.7560 C   0  0  0  0  0  0  0  0  0  0  0  0
    9.2160  -15.3430   -3.8440 S   0  0  0  0  0  0  0  0  0  0  0  0
    7.8780  -13.9000   -4.4570 S   0  0  0  0  0  0  0  0  0  0  0  0
    6.6330  -14.8720   -5.3730 C   0  0  0  0  0  0  0  0  0  0  0  0
    6.7670  -14.7010   -6.8640 C   0  0  0  0  0  0  0  0  0  0  0  0
    6.4860  -13.4520   -7.4050 C   0  0  0  0  0  0  0  0  0  0  0  0
    6.5610  -13.1420   -8.7080 N   0  0  0  0  0  0  0  0  0  0  0  0
    6.9380  -14.1430   -9.5530 C   0  0  0  0  0  0  0  0  0  0  0  0
    7.0070  -13.7390  -11.0050 C   0  0  0  0  0  0  0  0  0  0  0  0
    7.2500  -15.4760   -9.1710 C   0  0  0  0  0  0  0  0  0  0  0  0
    7.6010  -16.3830  -10.0100 O   0  0  0  0  0  0  0  0  0  0  0  0
    7.1510  -15.7290   -7.7620 C   0  0  0  0  0  0  0  0  0  0  0  0
    7.4010  -17.1460   -7.2460 C   0  0  0  0  0  0  0  0  0  0  0  0
    6.3520  -18.0500   -7.5970 O   0  0  0  0  0  0  0  0  0  0  0  0
   11.9280  -12.6930   -2.1940 C   0  0  0  0  0  0  0  0  0  0  0  0
   13.0160  -12.4010   -3.2240 C   0  0  0  0  0  0  0  0  0  0  0  0
   12.9980  -11.0340   -3.6370 O   0  0  0  0  0  0  0  0  0  0  0  0
   11.9710  -12.0000   -0.9390 C   0  0  0  0  0  0  0  0  0  0  0  0
   12.8430  -11.0930   -0.6860 O   0  0  0  0  0  0  0  0  0  0  0  0
   10.9751  -12.5124    2.1238 H   0  0  0  0  0  0  0  0  0  0  0  0
   11.7179  -11.0222    1.4498 H   0  0  0  0  0  0  0  0  0  0  0  0
    9.9320  -11.2146    1.4498 H   0  0  0  0  0  0  0  0  0  0  0  0
    9.2598  -14.7030   -1.6332 H   0  0  0  0  0  0  0  0  0  0  0  0
   10.8046  -13.6842   -4.5839 H   0  0  0  0  0  0  0  0  0  0  0  0
   11.6058  -15.1301   -3.8257 H   0  0  0  0  0  0  0  0  0  0  0  0
    6.7607  -15.9360   -5.1249 H   0  0  0  0  0  0  0  0  0  0  0  0
    5.6367  -14.5108   -5.0783 H   0  0  0  0  0  0  0  0  0  0  0  0
    6.1783  -12.6560   -6.7110 H   0  0  0  0  0  0  0  0  0  0  0  0
    7.1918  -12.6570  -11.0761 H   0  0  0  0  0  0  0  0  0  0  0  0
    7.8251  -14.2839  -11.4987 H   0  0  0  0  0  0  0  0  0  0  0  0
    6.0544  -13.9815  -11.4987 H   0  0  0  0  0  0  0  0  0  0  0  0
    8.3438  -17.5162   -7.6750 H   0  0  0  0  0  0  0  0  0  0  0  0
    7.4470  -17.0982   -6.1480 H   0  0  0  0  0  0  0  0  0  0  0  0
    5.6810  -17.8510   -6.8920 H   0  0  0  0  0  0  0  0  0  0  0  0
   13.9969  -12.6266   -2.7803 H   0  0  0  0  0  0  0  0  0  0  0  0
   12.8297  -13.0291   -4.1076 H   0  0  0  0  0  0  0  0  0  0  0  0
   13.8140  -10.9970   -4.2010 H   0  0  0  0  0  0  0  0  0  0  0  0
  1  2  1  0
  2  3  2  0
  3  4  1  0
  4  5  2  0
  5  6  1  0
  6  7  1  0
  7  8  1  0
  8  9  1  0
  9 10  1  0
 10 11  2  0
 11 12  1  0
 12 13  2  0
 13 14  1  0
 13 15  1  0
 15 16  1  0
 15 17  2  0
 17 18  1  0
 18 19  1  0
  5 20  1  0
 20 21  1  0
 21 22  1  0
 20 23  2  0
 23 24  1  0
 23  2  1  0
 17 10  1  0
  1 25  1  0
  1 26  1  0
  1 27  1  0
  4 28  1  0
  6 29  1  0
  6 30  1  0
  9 31  1  0
  9 32  1  0
 11 33  1  0
 14 34  1  0
 14 35  1  0
 14 36  1  0
 18 37  1  0
 18 38  1  0
 19 39  1  0
 21 40  1  0
 21 41  1  0
 22 42  1  0
M  CHG  2  16  -1  24  -1
M  END
>  <meeko>  (2) 
{"is_sidechain": [false], "free_energy": -6.333, "intermolecular_energy": -9.316, "internal_energy": -0.797}

$$$$
REF_CHEMBL488093__M_PUB_ALL__e8__s20260927
     RDKit          3D

 42 43  0  0  0  0  0  0  0  0999 V2000
   10.9390  -11.6630    1.1880 C   0  0  0  0  0  0  0  0  0  0  0  0
   11.4410  -12.4760    0.0200 C   0  0  0  0  0  0  0  0  0  0  0  0
   11.0230  -13.7740    0.0150 N   0  0  0  0  0  0  0  0  0  0  0  0
   11.4380  -14.5330   -1.0100 C   0  0  0  0  0  0  0  0  0  0  0  0
   12.2460  -14.0960   -2.0540 C   0  0  0  0  0  0  0  0  0  0  0  0
   12.5850  -15.0800   -3.1430 C   0  0  0  0  0  0  0  0  0  0  0  0
   11.1400  -16.0580   -3.6720 S   0  0  0  0  0  0  0  0  0  0  0  0
   10.9120  -15.4700   -5.6350 S   0  0  0  0  0  0  0  0  0  0  0  0
   12.1600  -14.1480   -5.8040 C   0  0  0  0  0  0  0  0  0  0  0  0
   13.2500  -14.5220   -6.7740 C   0  0  0  0  0  0  0  0  0  0  0  0
   14.4130  -15.0870   -6.2620 C   0  0  0  0  0  0  0  0  0  0  0  0
   15.4680  -15.4730   -6.9930 N   0  0  0  0  0  0  0  0  0  0  0  0
   15.3810  -15.2840   -8.3400 C   0  0  0  0  0  0  0  0  0  0  0  0
   16.5940  -15.7370   -9.1130 C   0  0  0  0  0  0  0  0  0  0  0  0
   14.2740  -14.7120   -9.0250 C   0  0  0  0  0  0  0  0  0  0  0  0
   14.2420  -14.5570  -10.3000 O   0  0  0  0  0  0  0  0  0  0  0  0
   13.1830  -14.3290   -8.1770 C   0  0  0  0  0  0  0  0  0  0  0  0
   11.9670  -13.6430   -8.8000 C   0  0  0  0  0  0  0  0  0  0  0  0
   12.3120  -12.4480   -9.5020 O   0  0  0  0  0  0  0  0  0  0  0  0
   12.6860  -12.7520   -2.0150 C   0  0  0  0  0  0  0  0  0  0  0  0
   13.6490  -12.2200   -3.0740 C   0  0  0  0  0  0  0  0  0  0  0  0
   13.1720  -11.0090   -3.6600 O   0  0  0  0  0  0  0  0  0  0  0  0
   12.2780  -11.8710   -0.9580 C   0  0  0  0  0  0  0  0  0  0  0  0
   12.6330  -10.6390   -0.9160 O   0  0  0  0  0  0  0  0  0  0  0  0
   11.2388  -12.1485    2.1285 H   0  0  0  0  0  0  0  0  0  0  0  0
   11.3704  -10.6521    1.1435 H   0  0  0  0  0  0  0  0  0  0  0  0
    9.8420  -11.5958    1.1435 H   0  0  0  0  0  0  0  0  0  0  0  0
   11.1137  -15.5840   -1.0261 H   0  0  0  0  0  0  0  0  0  0  0  0
   12.9735  -14.5265   -4.0106 H   0  0  0  0  0  0  0  0  0  0  0  0
   13.3338  -15.7788   -2.7418 H   0  0  0  0  0  0  0  0  0  0  0  0
   11.6633  -13.2344   -6.1628 H   0  0  0  0  0  0  0  0  0  0  0  0
   12.6220  -13.9887   -4.8185 H   0  0  0  0  0  0  0  0  0  0  0  0
   14.4716  -15.2280   -5.1727 H   0  0  0  0  0  0  0  0  0  0  0  0
   17.3869  -16.0331   -8.4105 H   0  0  0  0  0  0  0  0  0  0  0  0
   16.3257  -16.5955   -9.7462 H   0  0  0  0  0  0  0  0  0  0  0  0
   16.9542  -14.9128   -9.7462 H   0  0  0  0  0  0  0  0  0  0  0  0
   11.4910  -14.3409   -9.5046 H   0  0  0  0  0  0  0  0  0  0  0  0
   11.2854  -13.3650   -7.9826 H   0  0  0  0  0  0  0  0  0  0  0  0
   11.8760  -11.7580   -8.9360 H   0  0  0  0  0  0  0  0  0  0  0  0
   14.6251  -12.0286   -2.6044 H   0  0  0  0  0  0  0  0  0  0  0  0
   13.7357  -12.9751   -3.8692 H   0  0  0  0  0  0  0  0  0  0  0  0
   12.5250  -10.7070   -2.9700 H   0  0  0  0  0  0  0  0  0  0  0  0
  1  2  1  0
  2  3  2  0
  3  4  1  0
  4  5  2  0
  5  6  1  0
  6  7  1  0
  7  8  1  0
  8  9  1  0
  9 10  1  0
 10 11  2  0
 11 12  1  0
 12 13  2  0
 13 14  1  0
 13 15  1  0
 15 16  1  0
 15 17  2  0
 17 18  1  0
 18 19  1  0
  5 20  1  0
 20 21  1  0
 21 22  1  0
 20 23  2  0
 23 24  1  0
 23  2  1  0
 17 10  1  0
  1 25  1  0
  1 26  1  0
  1 27  1  0
  4 28  1  0
  6 29  1  0
  6 30  1  0
  9 31  1  0
  9 32  1  0
 11 33  1  0
 14 34  1  0
 14 35  1  0
 14 36  1  0
 18 37  1  0
 18 38  1  0
 19 39  1  0
 21 40  1  0
 21 41  1  0
 22 42  1  0
M  CHG  2  16  -1  24  -1
M  END
>  <meeko>  (3) 
{"is_sidechain": [false], "free_energy": -6.265, "intermolecular_energy": -8.9, "internal_energy": -1.116}

$$$$
REF_CHEMBL488093__M_PUB_ALL__e8__s20260927
     RDKit          3D

 42 43  0  0  0  0  0  0  0  0999 V2000
   11.0470  -11.7800    0.9640 C   0  0  0  0  0  0  0  0  0  0  0  0
   11.3990  -12.6310   -0.2320 C   0  0  0  0  0  0  0  0  0  0  0  0
   10.8530  -13.8800   -0.2160 N   0  0  0  0  0  0  0  0  0  0  0  0
   11.1320  -14.6690   -1.2640 C   0  0  0  0  0  0  0  0  0  0  0  0
   11.9220  -14.3090   -2.3500 C   0  0  0  0  0  0  0  0  0  0  0  0
   12.1000  -15.3130   -3.4580 C   0  0  0  0  0  0  0  0  0  0  0  0
   10.5100  -15.9730   -4.0610 S   0  0  0  0  0  0  0  0  0  0  0  0
    9.5200  -14.2600   -4.6410 S   0  0  0  0  0  0  0  0  0  0  0  0
    7.8280  -14.5450   -4.0160 C   0  0  0  0  0  0  0  0  0  0  0  0
    7.6260  -13.9550   -2.6440 C   0  0  0  0  0  0  0  0  0  0  0  0
    7.5570  -14.8270   -1.5630 C   0  0  0  0  0  0  0  0  0  0  0  0
    7.3820  -14.4580   -0.2860 N   0  0  0  0  0  0  0  0  0  0  0  0
    7.2600  -13.1220   -0.0480 C   0  0  0  0  0  0  0  0  0  0  0  0
    7.0680  -12.7630    1.4050 C   0  0  0  0  0  0  0  0  0  0  0  0
    7.2970  -12.0980   -1.0340 C   0  0  0  0  0  0  0  0  0  0  0  0
    7.1770  -10.8490   -0.7550 O   0  0  0  0  0  0  0  0  0  0  0  0
    7.4900  -12.5700   -2.3740 C   0  0  0  0  0  0  0  0  0  0  0  0
    7.4800  -11.5610   -3.5230 C   0  0  0  0  0  0  0  0  0  0  0  0
    8.7050  -10.8320   -3.6220 O   0  0  0  0  0  0  0  0  0  0  0  0
   12.4970  -13.0160   -2.3320 C   0  0  0  0  0  0  0  0  0  0  0  0
   13.4500  -12.5760   -3.4420 C   0  0  0  0  0  0  0  0  0  0  0  0
   14.7070  -12.1480   -2.9190 O   0  0  0  0  0  0  0  0  0  0  0  0
   12.2390  -12.1070   -1.2530 C   0  0  0  0  0  0  0  0  0  0  0  0
   12.7190  -10.9170   -1.2280 O   0  0  0  0  0  0  0  0  0  0  0  0
   11.2756  -12.3326    1.8872 H   0  0  0  0  0  0  0  0  0  0  0  0
   11.6344  -10.8503    0.9382 H   0  0  0  0  0  0  0  0  0  0  0  0
    9.9745  -11.5369    0.9382 H   0  0  0  0  0  0  0  0  0  0  0  0
   10.7016  -15.6813   -1.2644 H   0  0  0  0  0  0  0  0  0  0  0  0
   12.6207  -14.8260   -4.2957 H   0  0  0  0  0  0  0  0  0  0  0  0
   12.6821  -16.1556   -3.0565 H   0  0  0  0  0  0  0  0  0  0  0  0
    7.1105  -14.0833   -4.7103 H   0  0  0  0  0  0  0  0  0  0  0  0
    7.6705  -15.6314   -3.9452 H   0  0  0  0  0  0  0  0  0  0  0  0
    7.6535  -15.9027   -1.7718 H   0  0  0  0  0  0  0  0  0  0  0  0
    7.4923  -13.5564    2.0379 H   0  0  0  0  0  0  0  0  0  0  0  0
    7.5779  -11.8119    1.6182 H   0  0  0  0  0  0  0  0  0  0  0  0
    5.9939  -12.6590    1.6182 H   0  0  0  0  0  0  0  0  0  0  0  0
    7.3144  -12.1022   -4.4662 H   0  0  0  0  0  0  0  0  0  0  0  0
    6.6755  -10.8373   -3.3252 H   0  0  0  0  0  0  0  0  0  0  0  0
    9.1500  -11.0860   -2.7710 H   0  0  0  0  0  0  0  0  0  0  0  0
   13.6173  -13.4222   -4.1246 H   0  0  0  0  0  0  0  0  0  0  0  0
   12.9918  -11.7276   -3.9713 H   0  0  0  0  0  0  0  0  0  0  0  0
   14.4850  -11.2260   -2.6240 H   0  0  0  0  0  0  0  0  0  0  0  0
  1  2  1  0
  2  3  2  0
  3  4  1  0
  4  5  2  0
  5  6  1  0
  6  7  1  0
  7  8  1  0
  8  9  1  0
  9 10  1  0
 10 11  2  0
 11 12  1  0
 12 13  2  0
 13 14  1  0
 13 15  1  0
 15 16  1  0
 15 17  2  0
 17 18  1  0
 18 19  1  0
  5 20  1  0
 20 21  1  0
 21 22  1  0
 20 23  2  0
 23 24  1  0
 23  2  1  0
 17 10  1  0
  1 25  1  0
  1 26  1  0
  1 27  1  0
  4 28  1  0
  6 29  1  0
  6 30  1  0
  9 31  1  0
  9 32  1  0
 11 33  1  0
 14 34  1  0
 14 35  1  0
 14 36  1  0
 18 37  1  0
 18 38  1  0
 19 39  1  0
 21 40  1  0
 21 41  1  0
 22 42  1  0
M  CHG  2  16  -1  24  -1
M  END
>  <meeko>  (4) 
{"is_sidechain": [false], "free_energy": -6.26, "intermolecular_energy": -8.518, "internal_energy": -1.488}

$$$$
REF_CHEMBL488093__M_PUB_ALL__e8__s20260927
     RDKit          3D

 42 43  0  0  0  0  0  0  0  0999 V2000
   -2.9380  -16.4200    0.4280 C   0  0  0  0  0  0  0  0  0  0  0  0
   -1.5650  -16.2450   -0.1740 C   0  0  0  0  0  0  0  0  0  0  0  0
   -1.4920  -15.2930   -1.1460 N   0  0  0  0  0  0  0  0  0  0  0  0
   -0.2870  -15.0970   -1.7040 C   0  0  0  0  0  0  0  0  0  0  0  0
    0.8730  -15.7820   -1.3630 C   0  0  0  0  0  0  0  0  0  0  0  0
    2.1490  -15.4070   -2.0710 C   0  0  0  0  0  0  0  0  0  0  0  0
    3.1980  -14.2980   -1.0720 S   0  0  0  0  0  0  0  0  0  0  0  0
    2.2190  -12.4930   -1.2540 S   0  0  0  0  0  0  0  0  0  0  0  0
    2.1150  -11.9180    0.4770 C   0  0  0  0  0  0  0  0  0  0  0  0
    0.7000  -11.9320    0.9920 C   0  0  0  0  0  0  0  0  0  0  0  0
    0.1580  -13.1540    1.3770 C   0  0  0  0  0  0  0  0  0  0  0  0
   -1.0810  -13.3300    1.8560 N   0  0  0  0  0  0  0  0  0  0  0  0
   -1.8590  -12.2160    1.9620 C   0  0  0  0  0  0  0  0  0  0  0  0
   -3.2430  -12.4710    2.5070 C   0  0  0  0  0  0  0  0  0  0  0  0
   -1.4690  -10.8960    1.6040 C   0  0  0  0  0  0  0  0  0  0  0  0
   -2.2440   -9.8780    1.7250 O   0  0  0  0  0  0  0  0  0  0  0  0
   -0.1290  -10.7880    1.1050 C   0  0  0  0  0  0  0  0  0  0  0  0
    0.3740   -9.4250    0.6280 C   0  0  0  0  0  0  0  0  0  0  0  0
    0.4730   -8.4750    1.6910 O   0  0  0  0  0  0  0  0  0  0  0  0
    0.7680  -16.7830   -0.3680 C   0  0  0  0  0  0  0  0  0  0  0  0
    1.9750  -17.6430   -0.0010 C   0  0  0  0  0  0  0  0  0  0  0  0
    2.2610  -18.6090   -1.0110 O   0  0  0  0  0  0  0  0  0  0  0  0
   -0.4820  -17.0460    0.2850 C   0  0  0  0  0  0  0  0  0  0  0  0
   -0.6000  -17.9230    1.2150 O   0  0  0  0  0  0  0  0  0  0  0  0
   -2.8612  -16.4102    1.5253 H   0  0  0  0  0  0  0  0  0  0  0  0
   -3.5903  -15.5977    0.0987 H   0  0  0  0  0  0  0  0  0  0  0  0
   -3.3631  -17.3796    0.0987 H   0  0  0  0  0  0  0  0  0  0  0  0
   -0.2119  -14.3343   -2.4931 H   0  0  0  0  0  0  0  0  0  0  0  0
    2.7141  -16.3248   -2.2907 H   0  0  0  0  0  0  0  0  0  0  0  0
    1.8766  -14.8714   -2.9924 H   0  0  0  0  0  0  0  0  0  0  0  0
    2.7291  -12.5776    1.1078 H   0  0  0  0  0  0  0  0  0  0  0  0
    2.4794  -10.8807    0.5130 H   0  0  0  0  0  0  0  0  0  0  0  0
    0.7960  -14.0449    1.2807 H   0  0  0  0  0  0  0  0  0  0  0  0
   -3.2109  -12.4651    3.6065 H   0  0  0  0  0  0  0  0  0  0  0  0
   -3.9262  -11.6836    2.1559 H   0  0  0  0  0  0  0  0  0  0  0  0
   -3.6007  -13.4502    2.1559 H   0  0  0  0  0  0  0  0  0  0  0  0
    1.3689   -9.5544    0.1769 H   0  0  0  0  0  0  0  0  0  0  0  0
   -0.3533   -9.0368   -0.1003 H   0  0  0  0  0  0  0  0  0  0  0  0
    1.4260   -8.2020    1.6170 H   0  0  0  0  0  0  0  0  0  0  0  0
    2.8516  -16.9910    0.1272 H   0  0  0  0  0  0  0  0  0  0  0  0
    1.7433  -18.1795    0.9309 H   0  0  0  0  0  0  0  0  0  0  0  0
    2.3830  -18.0230   -1.8040 H   0  0  0  0  0  0  0  0  0  0  0  0
  1  2  1  0
  2  3  2  0
  3  4  1  0
  4  5  2  0
  5  6  1  0
  6  7  1  0
  7  8  1  0
  8  9  1  0
  9 10  1  0
 10 11  2  0
 11 12  1  0
 12 13  2  0
 13 14  1  0
 13 15  1  0
 15 16  1  0
 15 17  2  0
 17 18  1  0
 18 19  1  0
  5 20  1  0
 20 21  1  0
 21 22  1  0
 20 23  2  0
 23 24  1  0
 23  2  1  0
 17 10  1  0
  1 25  1  0
  1 26  1  0
  1 27  1  0
  4 28  1  0
  6 29  1  0
  6 30  1  0
  9 31  1  0
  9 32  1  0
 11 33  1  0
 14 34  1  0
 14 35  1  0
 14 36  1  0
 18 37  1  0
 18 38  1  0
 19 39  1  0
 21 40  1  0
 21 41  1  0
 22 42  1  0
M  CHG  2  16  -1  24  -1
M  END
>  <meeko>  (5) 
{"is_sidechain": [false], "free_energy": -6.163, "intermolecular_energy": -8.663, "internal_energy": -1.201}

$$$$
REF_CHEMBL488093__M_PUB_ALL__e8__s20260927
     RDKit          3D

 42 43  0  0  0  0  0  0  0  0999 V2000
    8.1720  -12.3620  -11.2810 C   0  0  0  0  0  0  0  0  0  0  0  0
    8.7470  -13.2170  -10.1780 C   0  0  0  0  0  0  0  0  0  0  0  0
   10.0490  -12.9470   -9.8760 N   0  0  0  0  0  0  0  0  0  0  0  0
   10.6000  -13.6770   -8.8950 C   0  0  0  0  0  0  0  0  0  0  0  0
    9.9480  -14.6700   -8.1740 C   0  0  0  0  0  0  0  0  0  0  0  0
   10.7130  -15.3670   -7.0790 C   0  0  0  0  0  0  0  0  0  0  0  0
   10.3180  -14.7070   -5.4250 S   0  0  0  0  0  0  0  0  0  0  0  0
   11.4350  -15.9240   -4.1930 S   0  0  0  0  0  0  0  0  0  0  0  0
   12.8060  -14.8300   -3.6850 C   0  0  0  0  0  0  0  0  0  0  0  0
   12.4310  -13.9620   -2.5120 C   0  0  0  0  0  0  0  0  0  0  0  0
   11.5860  -14.4980   -1.5470 C   0  0  0  0  0  0  0  0  0  0  0  0
   11.1650  -13.8550   -0.4490 N   0  0  0  0  0  0  0  0  0  0  0  0
   11.6030  -12.5750   -0.2850 C   0  0  0  0  0  0  0  0  0  0  0  0
   11.0990  -11.9000    0.9670 C   0  0  0  0  0  0  0  0  0  0  0  0
   12.4580  -11.8720   -1.1770 C   0  0  0  0  0  0  0  0  0  0  0  0
   12.8420  -10.6630   -0.9740 O   0  0  0  0  0  0  0  0  0  0  0  0
   12.8690  -12.6270   -2.3250 C   0  0  0  0  0  0  0  0  0  0  0  0
   13.7370  -11.9470   -3.3840 C   0  0  0  0  0  0  0  0  0  0  0  0
   15.0450  -11.6340   -2.9030 O   0  0  0  0  0  0  0  0  0  0  0  0
    8.6050  -14.9490   -8.5210 C   0  0  0  0  0  0  0  0  0  0  0  0
    7.8470  -16.0860   -7.8400 C   0  0  0  0  0  0  0  0  0  0  0  0
    7.2460  -16.9650   -8.7910 O   0  0  0  0  0  0  0  0  0  0  0  0
    7.9390  -14.2050   -9.5520 C   0  0  0  0  0  0  0  0  0  0  0  0
    6.7120  -14.4130   -9.8650 O   0  0  0  0  0  0  0  0  0  0  0  0
    7.6094  -11.5254  -10.8410 H   0  0  0  0  0  0  0  0  0  0  0  0
    8.9891  -11.9675  -11.9029 H   0  0  0  0  0  0  0  0  0  0  0  0
    7.4985  -12.9700  -11.9029 H   0  0  0  0  0  0  0  0  0  0  0  0
   11.6508  -13.4736   -8.6412 H   0  0  0  0  0  0  0  0  0  0  0  0
   10.4635  -16.4381   -7.1006 H   0  0  0  0  0  0  0  0  0  0  0  0
   11.7849  -15.1987   -7.2597 H   0  0  0  0  0  0  0  0  0  0  0  0
   13.6704  -15.4503   -3.4057 H   0  0  0  0  0  0  0  0  0  0  0  0
   13.0462  -14.1708   -4.5322 H   0  0  0  0  0  0  0  0  0  0  0  0
   11.2357  -15.5300   -1.6962 H   0  0  0  0  0  0  0  0  0  0  0  0
   11.4913  -12.4255    1.8502 H   0  0  0  0  0  0  0  0  0  0  0  0
   11.4388  -10.8539    0.9817 H   0  0  0  0  0  0  0  0  0  0  0  0
    9.9995  -11.9286    0.9817 H   0  0  0  0  0  0  0  0  0  0  0  0
   13.8312  -12.6209   -4.2483 H   0  0  0  0  0  0  0  0  0  0  0  0
   13.2476  -11.0010   -3.6591 H   0  0  0  0  0  0  0  0  0  0  0  0
   15.2720  -12.4640   -2.4070 H   0  0  0  0  0  0  0  0  0  0  0  0
    8.5494  -16.6603   -7.2181 H   0  0  0  0  0  0  0  0  0  0  0  0
    7.0468  -15.6455   -7.2272 H   0  0  0  0  0  0  0  0  0  0  0  0
    7.9540  -17.6540   -8.8840 H   0  0  0  0  0  0  0  0  0  0  0  0
  1  2  1  0
  2  3  2  0
  3  4  1  0
  4  5  2  0
  5  6  1  0
  6  7  1  0
  7  8  1  0
  8  9  1  0
  9 10  1  0
 10 11  2  0
 11 12  1  0
 12 13  2  0
 13 14  1  0
 13 15  1  0
 15 16  1  0
 15 17  2  0
 17 18  1  0
 18 19  1  0
  5 20  1  0
 20 21  1  0
 21 22  1  0
 20 23  2  0
 23 24  1  0
 23  2  1  0
 17 10  1  0
  1 25  1  0
  1 26  1  0
  1 27  1  0
  4 28  1  0
  6 29  1  0
  6 30  1  0
  9 31  1  0
  9 32  1  0
 11 33  1  0
 14 34  1  0
 14 35  1  0
 14 36  1  0
 18 37  1  0
 18 38  1  0
 19 39  1  0
 21 40  1  0
 21 41  1  0
 22 42  1  0
M  CHG  2  16  -1  24  -1
M  END
>  <meeko>  (6) 
{"is_sidechain": [false], "free_energy": -6.106, "intermolecular_energy": -8.979, "internal_energy": -0.803}

$$$$
REF_CHEMBL488093__M_PUB_ALL__e8__s20260927
     RDKit          3D

 42 43  0  0  0  0  0  0  0  0999 V2000
   13.1870  -10.5150    0.0920 C   0  0  0  0  0  0  0  0  0  0  0  0
   12.7750  -11.5860   -0.8880 C   0  0  0  0  0  0  0  0  0  0  0  0
   12.9570  -11.2520   -2.1970 N   0  0  0  0  0  0  0  0  0  0  0  0
   12.6120  -12.1770   -3.1040 C   0  0  0  0  0  0  0  0  0  0  0  0
   12.0950  -13.4340   -2.8100 C   0  0  0  0  0  0  0  0  0  0  0  0
   11.7960  -14.3620   -3.9580 C   0  0  0  0  0  0  0  0  0  0  0  0
   10.0820  -14.1950   -4.5580 S   0  0  0  0  0  0  0  0  0  0  0  0
   10.0840  -15.4120   -6.2220 S   0  0  0  0  0  0  0  0  0  0  0  0
   10.8200  -14.3380   -7.5020 C   0  0  0  0  0  0  0  0  0  0  0  0
    9.8590  -14.0600   -8.6280 C   0  0  0  0  0  0  0  0  0  0  0  0
    8.6070  -14.6640   -8.5810 C   0  0  0  0  0  0  0  0  0  0  0  0
    7.6450  -14.5150   -9.5020 N   0  0  0  0  0  0  0  0  0  0  0  0
    7.9340  -13.7110  -10.5640 C   0  0  0  0  0  0  0  0  0  0  0  0
    6.8160  -13.5770  -11.5680 C   0  0  0  0  0  0  0  0  0  0  0  0
    9.1630  -13.0280  -10.7740 C   0  0  0  0  0  0  0  0  0  0  0  0
    9.3850  -12.2790  -11.7950 O   0  0  0  0  0  0  0  0  0  0  0  0
   10.1410  -13.2330   -9.7440 C   0  0  0  0  0  0  0  0  0  0  0  0
   11.5230  -12.5990   -9.9000 C   0  0  0  0  0  0  0  0  0  0  0  0
   11.4580  -11.1880  -10.1110 O   0  0  0  0  0  0  0  0  0  0  0  0
   11.8930  -13.7490   -1.4450 C   0  0  0  0  0  0  0  0  0  0  0  0
   11.2460  -15.0710   -1.0410 C   0  0  0  0  0  0  0  0  0  0  0  0
   12.1880  -15.9560   -0.4350 O   0  0  0  0  0  0  0  0  0  0  0  0
   12.2470  -12.8170   -0.4120 C   0  0  0  0  0  0  0  0  0  0  0  0
   12.1070  -13.0890    0.8340 O   0  0  0  0  0  0  0  0  0  0  0  0
   13.0453  -10.8834    1.1188 H   0  0  0  0  0  0  0  0  0  0  0  0
   14.2463  -10.2629   -0.0642 H   0  0  0  0  0  0  0  0  0  0  0  0
   12.5698   -9.6180   -0.0642 H   0  0  0  0  0  0  0  0  0  0  0  0
   12.7488  -11.9213   -4.1651 H   0  0  0  0  0  0  0  0  0  0  0  0
   12.4839  -14.1335   -4.7854 H   0  0  0  0  0  0  0  0  0  0  0  0
   11.9267  -15.3934   -3.5986 H   0  0  0  0  0  0  0  0  0  0  0  0
   11.1109  -13.3831   -7.0398 H   0  0  0  0  0  0  0  0  0  0  0  0
   11.6926  -14.8598   -7.9218 H   0  0  0  0  0  0  0  0  0  0  0  0
    8.3896  -15.3145   -7.7210 H   0  0  0  0  0  0  0  0  0  0  0  0
    5.8590  -13.4623  -11.0379 H   0  0  0  0  0  0  0  0  0  0  0  0
    6.9938  -12.6937  -12.1991 H   0  0  0  0  0  0  0  0  0  0  0  0
    6.7800  -14.4773  -12.1991 H   0  0  0  0  0  0  0  0  0  0  0  0
   12.1047  -12.7924   -8.9867 H   0  0  0  0  0  0  0  0  0  0  0  0
   11.9978  -13.0473  -10.7852 H   0  0  0  0  0  0  0  0  0  0  0  0
   12.0280  -11.0870  -10.9200 H   0  0  0  0  0  0  0  0  0  0  0  0
   10.4362  -14.8675   -0.3249 H   0  0  0  0  0  0  0  0  0  0  0  0
   10.8566  -15.5541   -1.9493 H   0  0  0  0  0  0  0  0  0  0  0  0
   11.5820  -16.6470   -0.0580 H   0  0  0  0  0  0  0  0  0  0  0  0
  1  2  1  0
  2  3  2  0
  3  4  1  0
  4  5  2  0
  5  6  1  0
  6  7  1  0
  7  8  1  0
  8  9  1  0
  9 10  1  0
 10 11  2  0
 11 12  1  0
 12 13  2  0
 13 14  1  0
 13 15  1  0
 15 16  1  0
 15 17  2  0
 17 18  1  0
 18 19  1  0
  5 20  1  0
 20 21  1  0
 21 22  1  0
 20 23  2  0
 23 24  1  0
 23  2  1  0
 17 10  1  0
  1 25  1  0
  1 26  1  0
  1 27  1  0
  4 28  1  0
  6 29  1  0
  6 30  1  0
  9 31  1  0
  9 32  1  0
 11 33  1  0
 14 34  1  0
 14 35  1  0
 14 36  1  0
 18 37  1  0
 18 38  1  0
 19 39  1  0
 21 40  1  0
 21 41  1  0
 22 42  1  0
M  CHG  2  16  -1  24  -1
M  END
>  <meeko>  (7) 
{"is_sidechain": [false], "free_energy": -6.101, "intermolecular_energy": -8.982, "internal_energy": -0.792}

$$$$
REF_CHEMBL488093__M_PUB_ALL__e8__s20260927
     RDKit          3D

 42 43  0  0  0  0  0  0  0  0999 V2000
    7.1980   -9.5190    0.9240 C   0  0  0  0  0  0  0  0  0  0  0  0
    6.8570  -10.7470    0.1160 C   0  0  0  0  0  0  0  0  0  0  0  0
    6.9290  -10.5720   -1.2330 N   0  0  0  0  0  0  0  0  0  0  0  0
    6.6420  -11.6410   -1.9920 C   0  0  0  0  0  0  0  0  0  0  0  0
    6.2880  -12.8950   -1.5070 C   0  0  0  0  0  0  0  0  0  0  0  0
    6.0340  -13.9930   -2.5060 C   0  0  0  0  0  0  0  0  0  0  0  0
    7.4730  -14.2990   -3.5840 S   0  0  0  0  0  0  0  0  0  0  0  0
    8.6050  -15.5880   -2.4420 S   0  0  0  0  0  0  0  0  0  0  0  0
    9.2240  -14.5040   -1.1090 C   0  0  0  0  0  0  0  0  0  0  0  0
   10.4390  -13.7220   -1.5360 C   0  0  0  0  0  0  0  0  0  0  0  0
   11.0710  -14.0910   -2.7180 C   0  0  0  0  0  0  0  0  0  0  0  0
   12.1570  -13.4950   -3.2300 N   0  0  0  0  0  0  0  0  0  0  0  0
   12.6720  -12.4510   -2.5210 C   0  0  0  0  0  0  0  0  0  0  0  0
   13.8920  -11.8170   -3.1430 C   0  0  0  0  0  0  0  0  0  0  0  0
   12.1600  -11.9510   -1.2920 C   0  0  0  0  0  0  0  0  0  0  0  0
   12.6850  -10.9620   -0.6630 O   0  0  0  0  0  0  0  0  0  0  0  0
   10.9960  -12.6380   -0.8120 C   0  0  0  0  0  0  0  0  0  0  0  0
   10.3990  -12.2270    0.5350 C   0  0  0  0  0  0  0  0  0  0  0  0
   11.2000  -12.6460    1.6410 O   0  0  0  0  0  0  0  0  0  0  0  0
    6.1970  -13.0460   -0.1030 C   0  0  0  0  0  0  0  0  0  0  0  0
    5.7270  -14.3640    0.5070 C   0  0  0  0  0  0  0  0  0  0  0  0
    6.6930  -14.9030    1.4090 O   0  0  0  0  0  0  0  0  0  0  0  0
    6.4980  -11.9540    0.7780 C   0  0  0  0  0  0  0  0  0  0  0  0
    6.4580  -12.0720    2.0550 O   0  0  0  0  0  0  0  0  0  0  0  0
    7.1323   -9.7557    1.9962 H   0  0  0  0  0  0  0  0  0  0  0  0
    8.2205   -9.1934    0.6824 H   0  0  0  0  0  0  0  0  0  0  0  0
    6.4897   -8.7128    0.6824 H   0  0  0  0  0  0  0  0  0  0  0  0
    6.6907  -11.5151   -3.0837 H   0  0  0  0  0  0  0  0  0  0  0  0
    5.7978  -14.9188   -1.9609 H   0  0  0  0  0  0  0  0  0  0  0  0
    5.1969  -13.6771   -3.1458 H   0  0  0  0  0  0  0  0  0  0  0  0
    8.4286  -13.7985   -0.8269 H   0  0  0  0  0  0  0  0  0  0  0  0
    9.5110  -15.1406   -0.2591 H   0  0  0  0  0  0  0  0  0  0  0  0
   10.6467  -14.9382   -3.2767 H   0  0  0  0  0  0  0  0  0  0  0  0
   14.5677  -11.4658   -2.3492 H   0  0  0  0  0  0  0  0  0  0  0  0
   14.4129  -12.5585   -3.7666 H   0  0  0  0  0  0  0  0  0  0  0  0
   13.5846  -10.9646   -3.7666 H   0  0  0  0  0  0  0  0  0  0  0  0
   10.3084  -11.1310    0.5606 H   0  0  0  0  0  0  0  0  0  0  0  0
    9.4187  -12.7171    0.6287 H   0  0  0  0  0  0  0  0  0  0  0  0
   11.9200  -11.9620    1.6270 H   0  0  0  0  0  0  0  0  0  0  0  0
    4.7881  -14.1893    1.0529 H   0  0  0  0  0  0  0  0  0  0  0  0
    5.5800  -15.0863   -0.3095 H   0  0  0  0  0  0  0  0  0  0  0  0
    6.2400  -15.7390    1.6930 H   0  0  0  0  0  0  0  0  0  0  0  0
  1  2  1  0
  2  3  2  0
  3  4  1  0
  4  5  2  0
  5  6  1  0
  6  7  1  0
  7  8  1  0
  8  9  1  0
  9 10  1  0
 10 11  2  0
 11 12  1  0
 12 13  2  0
 13 14  1  0
 13 15  1  0
 15 16  1  0
 15 17  2  0
 17 18  1  0
 18 19  1  0
  5 20  1  0
 20 21  1  0
 21 22  1  0
 20 23  2  0
 23 24  1  0
 23  2  1  0
 17 10  1  0
  1 25  1  0
  1 26  1  0
  1 27  1  0
  4 28  1  0
  6 29  1  0
  6 30  1  0
  9 31  1  0
  9 32  1  0
 11 33  1  0
 14 34  1  0
 14 35  1  0
 14 36  1  0
 18 37  1  0
 18 38  1  0
 19 39  1  0
 21 40  1  0
 21 41  1  0
 22 42  1  0
M  CHG  2  16  -1  24  -1
M  END
>  <meeko>  (8) 
{"is_sidechain": [false], "free_energy": -6.095, "intermolecular_energy": -8.524, "internal_energy": -1.24}

$$$$
REF_CHEMBL488093__M_PUB_ALL__e8__s20260927
     RDKit          3D

 42 43  0  0  0  0  0  0  0  0999 V2000
   13.8430  -11.7880   -3.0600 C   0  0  0  0  0  0  0  0  0  0  0  0
   12.5830  -12.0270   -2.2650 C   0  0  0  0  0  0  0  0  0  0  0  0
   11.5860  -12.6440   -2.9600 N   0  0  0  0  0  0  0  0  0  0  0  0
   10.4500  -12.8850   -2.2890 C   0  0  0  0  0  0  0  0  0  0  0  0
   10.2220  -12.5610   -0.9570 C   0  0  0  0  0  0  0  0  0  0  0  0
    8.8950  -12.9390   -0.3540 C   0  0  0  0  0  0  0  0  0  0  0  0
    7.7660  -13.6900   -1.5750 S   0  0  0  0  0  0  0  0  0  0  0  0
    5.9500  -12.8670   -1.0520 S   0  0  0  0  0  0  0  0  0  0  0  0
    4.7830  -13.7420   -2.1520 C   0  0  0  0  0  0  0  0  0  0  0  0
    4.9090  -13.2900   -3.5830 C   0  0  0  0  0  0  0  0  0  0  0  0
    5.7840  -13.9830   -4.4120 C   0  0  0  0  0  0  0  0  0  0  0  0
    6.0050  -13.7050   -5.7050 N   0  0  0  0  0  0  0  0  0  0  0  0
    5.3140  -12.6540   -6.2300 C   0  0  0  0  0  0  0  0  0  0  0  0
    5.5990  -12.3870   -7.6870 C   0  0  0  0  0  0  0  0  0  0  0  0
    4.3920  -11.8340   -5.5240 C   0  0  0  0  0  0  0  0  0  0  0  0
    3.7650  -10.8530   -6.0680 O   0  0  0  0  0  0  0  0  0  0  0  0
    4.2060  -12.1970   -4.1490 C   0  0  0  0  0  0  0  0  0  0  0  0
    3.2860  -11.3420   -3.2760 C   0  0  0  0  0  0  0  0  0  0  0  0
    3.4130   -9.9450   -3.5500 O   0  0  0  0  0  0  0  0  0  0  0  0
   11.2640  -11.9000   -0.2630 C   0  0  0  0  0  0  0  0  0  0  0  0
   11.0600  -11.4280    1.1750 C   0  0  0  0  0  0  0  0  0  0  0  0
   11.2550  -10.0200    1.3010 O   0  0  0  0  0  0  0  0  0  0  0  0
   12.5140  -11.6150   -0.9050 C   0  0  0  0  0  0  0  0  0  0  0  0
   13.4880  -11.0490   -0.2900 O   0  0  0  0  0  0  0  0  0  0  0  0
   14.6860  -11.6281   -2.3717 H   0  0  0  0  0  0  0  0  0  0  0  0
   14.0481  -12.6632   -3.6939 H   0  0  0  0  0  0  0  0  0  0  0  0
   13.7134  -10.8984   -3.6939 H   0  0  0  0  0  0  0  0  0  0  0  0
    9.6336  -13.3785   -2.8367 H   0  0  0  0  0  0  0  0  0  0  0  0
    9.0684  -13.6608    0.4578 H   0  0  0  0  0  0  0  0  0  0  0  0
    8.4217  -12.0190    0.0196 H   0  0  0  0  0  0  0  0  0  0  0  0
    4.9886  -14.8214   -2.1012 H   0  0  0  0  0  0  0  0  0  0  0  0
    3.7615  -13.5149   -1.8129 H   0  0  0  0  0  0  0  0  0  0  0  0
    6.3384  -14.8254   -3.9727 H   0  0  0  0  0  0  0  0  0  0  0  0
    6.3993  -11.6372   -7.7727 H   0  0  0  0  0  0  0  0  0  0  0  0
    5.9168  -13.3200   -8.1754 H   0  0  0  0  0  0  0  0  0  0  0  0
    4.6887  -12.0091   -8.1754 H   0  0  0  0  0  0  0  0  0  0  0  0
    2.2444  -11.6441   -3.4600 H   0  0  0  0  0  0  0  0  0  0  0  0
    3.5754  -11.5042   -2.2272 H   0  0  0  0  0  0  0  0  0  0  0  0
    4.3680   -9.7910   -3.3230 H   0  0  0  0  0  0  0  0  0  0  0  0
   10.0354  -11.6755    1.4895 H   0  0  0  0  0  0  0  0  0  0  0  0
   11.8008  -11.9350    1.8107 H   0  0  0  0  0  0  0  0  0  0  0  0
   11.3830   -9.7610    0.3520 H   0  0  0  0  0  0  0  0  0  0  0  0
  1  2  1  0
  2  3  2  0
  3  4  1  0
  4  5  2  0
  5  6  1  0
  6  7  1  0
  7  8  1  0
  8  9  1  0
  9 10  1  0
 10 11  2  0
 11 12  1  0
 12 13  2  0
 13 14  1  0
 13 15  1  0
 15 16  1  0
 15 17  2  0
 17 18  1  0
 18 19  1  0
  5 20  1  0
 20 21  1  0
 21 22  1  0
 20 23  2  0
 23 24  1  0
 23  2  1  0
 17 10  1  0
  1 25  1  0
  1 26  1  0
  1 27  1  0
  4 28  1  0
  6 29  1  0
  6 30  1  0
  9 31  1  0
  9 32  1  0
 11 33  1  0
 14 34  1  0
 14 35  1  0
 14 36  1  0
 18 37  1  0
 18 38  1  0
 19 39  1  0
 21 40  1  0
 21 41  1  0
 22 42  1  0
M  CHG  2  16  -1  24  -1
M  END
>  <meeko>  (9) 
{"is_sidechain": [false], "free_energy": -5.989, "intermolecular_energy": -8.919, "internal_energy": -0.691}

$$$$
