REF_CHEMBL1365675__M_PUB_ALL__e8__s20260927
     RDKit          3D

 47 48  0  0  0  0  0  0  0  0999 V2000
   10.0910  -13.7060  -11.0270 C   0  0  0  0  0  0  0  0  0  0  0  0
   10.2310  -12.2180  -11.1760 C   0  0  0  0  0  0  0  0  0  0  0  0
   11.4490  -11.5900  -10.9260 C   0  0  0  0  0  0  0  0  0  0  0  0
   11.5680  -10.2010  -11.0330 C   0  0  0  0  0  0  0  0  0  0  0  0
   10.4720   -9.3960  -11.3910 C   0  0  0  0  0  0  0  0  0  0  0  0
   10.5450   -8.0220  -11.5030 N   0  0  0  0  0  0  0  0  0  0  0  0
   11.6080   -7.3620  -11.9560 C   0  0  0  0  0  0  0  0  0  0  0  0
   11.7810   -6.0240  -12.0730 N   0  0  0  0  0  0  0  0  0  0  0  0
   13.0930   -5.4120  -11.7760 C   0  0  0  0  0  0  0  0  0  0  0  0
   10.7400   -5.2540  -12.4630 C   0  0  0  0  0  0  0  0  0  0  0  0
   10.6340   -3.9270  -12.4310 N   0  0  0  0  0  0  0  0  0  0  0  0
    9.5370   -3.2220  -12.8820 C   0  0  0  0  0  0  0  0  0  0  0  0
    8.2110   -3.6100  -12.6220 C   0  0  0  0  0  0  0  0  0  0  0  0
    7.1270   -2.8680  -13.1020 C   0  0  0  0  0  0  0  0  0  0  0  0
    7.3360   -1.7160  -13.8560 C   0  0  0  0  0  0  0  0  0  0  0  0
    6.1730   -0.9370  -14.4050 C   0  0  0  0  0  0  0  0  0  0  0  0
    8.6460   -1.3330  -14.1520 C   0  0  0  0  0  0  0  0  0  0  0  0
    9.7480   -2.0680  -13.6730 C   0  0  0  0  0  0  0  0  0  0  0  0
   11.1250   -1.5720  -14.0320 C   0  0  0  0  0  0  0  0  0  0  0  0
    9.2290  -10.0330  -11.6180 C   0  0  0  0  0  0  0  0  0  0  0  0
    7.9820   -9.2680  -11.9860 C   0  0  0  0  0  0  0  0  0  0  0  0
    9.1240  -11.4320  -11.5030 C   0  0  0  0  0  0  0  0  0  0  0  0
   10.0665  -13.9668   -9.9587 H   0  0  0  0  0  0  0  0  0  0  0  0
    9.1578  -14.0363  -11.5066 H   0  0  0  0  0  0  0  0  0  0  0  0
   10.9462  -14.2046  -11.5066 H   0  0  0  0  0  0  0  0  0  0  0  0
   12.3247  -12.1920  -10.6420 H   0  0  0  0  0  0  0  0  0  0  0  0
   12.5405   -9.7275  -10.8327 H   0  0  0  0  0  0  0  0  0  0  0  0
    9.7020   -7.5150  -11.2680 H   0  0  0  0  0  0  0  0  0  0  0  0
   12.4564   -7.9841  -12.2772 H   0  0  0  0  0  0  0  0  0  0  0  0
   13.2296   -5.3483  -10.6864 H   0  0  0  0  0  0  0  0  0  0  0  0
   13.8926   -6.0301  -12.2103 H   0  0  0  0  0  0  0  0  0  0  0  0
   13.1333   -4.4022  -12.2103 H   0  0  0  0  0  0  0  0  0  0  0  0
    9.8671   -5.7942  -12.8582 H   0  0  0  0  0  0  0  0  0  0  0  0
   11.3680   -3.3760  -12.0050 H   0  0  0  0  0  0  0  0  0  0  0  0
    8.0220   -4.5166  -12.0283 H   0  0  0  0  0  0  0  0  0  0  0  0
    6.1007   -3.1971  -12.8821 H   0  0  0  0  0  0  0  0  0  0  0  0
    5.5748   -0.5363  -13.5734 H   0  0  0  0  0  0  0  0  0  0  0  0
    6.5465   -0.1062  -15.0216 H   0  0  0  0  0  0  0  0  0  0  0  0
    5.5469   -1.5986  -15.0216 H   0  0  0  0  0  0  0  0  0  0  0  0
    8.8205   -0.4405  -14.7709 H   0  0  0  0  0  0  0  0  0  0  0  0
   11.6925   -1.3676  -13.1121 H   0  0  0  0  0  0  0  0  0  0  0  0
   11.6482   -2.3382  -14.6230 H   0  0  0  0  0  0  0  0  0  0  0  0
   11.0394   -0.6482  -14.6230 H   0  0  0  0  0  0  0  0  0  0  0  0
    7.4633   -8.9498  -11.0697 H   0  0  0  0  0  0  0  0  0  0  0  0
    8.2564   -8.3826  -12.5783 H   0  0  0  0  0  0  0  0  0  0  0  0
    7.3171   -9.9138  -12.5783 H   0  0  0  0  0  0  0  0  0  0  0  0
    8.1509  -11.9156  -11.6741 H   0  0  0  0  0  0  0  0  0  0  0  0
  1  2  1  0
  2  3  2  0
  3  4  1  0
  4  5  2  0
  5  6  1  0
  6  7  2  0
  7  8  1  0
  8  9  1  0
  8 10  1  0
 10 11  2  0
 11 12  1  0
 12 13  2  0
 13 14  1  0
 14 15  2  0
 15 16  1  0
 15 17  1  0
 17 18  2  0
 18 19  1  0
  5 20  1  0
 20 21  1  0
 20 22  2  0
 22  2  1  0
 18 12  1  0
  1 23  1  0
  1 24  1  0
  1 25  1  0
  3 26  1  0
  4 27  1  0
  6 28  1  0
  7 29  1  0
  9 30  1  0
  9 31  1  0
  9 32  1  0
 10 33  1  0
 11 34  1  0
 13 35  1  0
 14 36  1  0
 16 37  1  0
 16 38  1  0
 16 39  1  0
 17 40  1  0
 19 41  1  0
 19 42  1  0
 19 43  1  0
 21 44  1  0
 21 45  1  0
 21 46  1  0
 22 47  1  0
M  CHG  2   6   1  11   1
M  END
>  <meeko>  (1) 
{"is_sidechain": [false], "free_energy": -6.982, "intermolecular_energy": -8.614, "internal_energy": -0.426}

$$$$
REF_CHEMBL1365675__M_PUB_ALL__e8__s20260927
     RDKit          3D

 47 48  0  0  0  0  0  0  0  0999 V2000
    5.3440  -12.1880   -7.1900 C   0  0  0  0  0  0  0  0  0  0  0  0
    4.4590  -12.3860   -5.9920 C   0  0  0  0  0  0  0  0  0  0  0  0
    4.0870  -13.6660   -5.5880 C   0  0  0  0  0  0  0  0  0  0  0  0
    3.2370  -13.8460   -4.4920 C   0  0  0  0  0  0  0  0  0  0  0  0
    2.7320  -12.7510   -3.7680 C   0  0  0  0  0  0  0  0  0  0  0  0
    1.8860  -12.8840   -2.6850 N   0  0  0  0  0  0  0  0  0  0  0  0
    1.6330  -14.0360   -2.0680 C   0  0  0  0  0  0  0  0  0  0  0  0
    0.8030  -14.2660   -1.0240 N   0  0  0  0  0  0  0  0  0  0  0  0
    0.2290  -15.6110   -0.8090 C   0  0  0  0  0  0  0  0  0  0  0  0
    0.5030  -13.2520   -0.1800 C   0  0  0  0  0  0  0  0  0  0  0  0
   -0.6940  -12.8710    0.2630 N   0  0  0  0  0  0  0  0  0  0  0  0
   -0.9020  -11.8360    1.1520 C   0  0  0  0  0  0  0  0  0  0  0  0
   -0.7660  -10.4810    0.8030 C   0  0  0  0  0  0  0  0  0  0  0  0
   -0.9820   -9.4620    1.7370 C   0  0  0  0  0  0  0  0  0  0  0  0
   -1.3410   -9.7680    3.0470 C   0  0  0  0  0  0  0  0  0  0  0  0
   -1.5380   -8.6770    4.0620 C   0  0  0  0  0  0  0  0  0  0  0  0
   -1.4490  -11.1090    3.4200 C   0  0  0  0  0  0  0  0  0  0  0  0
   -1.2390  -12.1460    2.4910 C   0  0  0  0  0  0  0  0  0  0  0  0
   -1.3890  -13.5630    2.9820 C   0  0  0  0  0  0  0  0  0  0  0  0
    3.0890  -11.4520   -4.1970 C   0  0  0  0  0  0  0  0  0  0  0  0
    2.5890  -10.2050   -3.5100 C   0  0  0  0  0  0  0  0  0  0  0  0
    3.9430  -11.2860   -5.3040 C   0  0  0  0  0  0  0  0  0  0  0  0
    6.3669  -11.9591   -6.8564 H   0  0  0  0  0  0  0  0  0  0  0  0
    5.3526  -13.1064   -7.7953 H   0  0  0  0  0  0  0  0  0  0  0  0
    4.9604  -11.3535   -7.7953 H   0  0  0  0  0  0  0  0  0  0  0  0
    4.4647  -14.5423   -6.1353 H   0  0  0  0  0  0  0  0  0  0  0  0
    2.9574  -14.8660   -4.1897 H   0  0  0  0  0  0  0  0  0  0  0  0
    1.4890  -12.0250   -2.3270 H   0  0  0  0  0  0  0  0  0  0  0  0
    2.1678  -14.9150   -2.4571 H   0  0  0  0  0  0  0  0  0  0  0  0
    0.1458  -15.8059    0.2704 H   0  0  0  0  0  0  0  0  0  0  0  0
   -0.7691  -15.6615   -1.2687 H   0  0  0  0  0  0  0  0  0  0  0  0
    0.8831  -16.3666   -1.2687 H   0  0  0  0  0  0  0  0  0  0  0  0
    1.3584  -12.6664    0.1880 H   0  0  0  0  0  0  0  0  0  0  0  0
   -1.5280  -13.3170   -0.0980 H   0  0  0  0  0  0  0  0  0  0  0  0
   -0.4837  -10.2162   -0.2267 H   0  0  0  0  0  0  0  0  0  0  0  0
   -0.8673   -8.4108    1.4340 H   0  0  0  0  0  0  0  0  0  0  0  0
   -1.4616   -9.1000    5.0745 H   0  0  0  0  0  0  0  0  0  0  0  0
   -0.7644   -7.9067    3.9271 H   0  0  0  0  0  0  0  0  0  0  0  0
   -2.5321   -8.2259    3.9271 H   0  0  0  0  0  0  0  0  0  0  0  0
   -1.7032  -11.3604    4.4603 H   0  0  0  0  0  0  0  0  0  0  0  0
   -1.3899  -13.5717    4.0820 H   0  0  0  0  0  0  0  0  0  0  0  0
   -2.3364  -13.9812    2.6112 H   0  0  0  0  0  0  0  0  0  0  0  0
   -0.5501  -14.1703    2.6112 H   0  0  0  0  0  0  0  0  0  0  0  0
    2.6432  -10.3402   -2.4197 H   0  0  0  0  0  0  0  0  0  0  0  0
    3.2133   -9.3486   -3.8048 H   0  0  0  0  0  0  0  0  0  0  0  0
    1.5460  -10.0171   -3.8048 H   0  0  0  0  0  0  0  0  0  0  0  0
    4.2087  -10.2706   -5.6331 H   0  0  0  0  0  0  0  0  0  0  0  0
  1  2  1  0
  2  3  2  0
  3  4  1  0
  4  5  2  0
  5  6  1  0
  6  7  2  0
  7  8  1  0
  8  9  1  0
  8 10  1  0
 10 11  2  0
 11 12  1  0
 12 13  2  0
 13 14  1  0
 14 15  2  0
 15 16  1  0
 15 17  1  0
 17 18  2  0
 18 19  1  0
  5 20  1  0
 20 21  1  0
 20 22  2  0
 22  2  1  0
 18 12  1  0
  1 23  1  0
  1 24  1  0
  1 25  1  0
  3 26  1  0
  4 27  1  0
  6 28  1  0
  7 29  1  0
  9 30  1  0
  9 31  1  0
  9 32  1  0
 10 33  1  0
 11 34  1  0
 13 35  1  0
 14 36  1  0
 16 37  1  0
 16 38  1  0
 16 39  1  0
 17 40  1  0
 19 41  1  0
 19 42  1  0
 19 43  1  0
 21 44  1  0
 21 45  1  0
 21 46  1  0
 22 47  1  0
M  CHG  2   6   1  11   1
M  END
>  <meeko>  (2) 
{"is_sidechain": [false], "free_energy": -6.93, "intermolecular_energy": -8.539, "internal_energy": -0.437}

$$$$
REF_CHEMBL1365675__M_PUB_ALL__e8__s20260927
     RDKit          3D

 47 48  0  0  0  0  0  0  0  0999 V2000
   14.1400  -11.8650   -3.1800 C   0  0  0  0  0  0  0  0  0  0  0  0
   12.7840  -12.1140   -2.5830 C   0  0  0  0  0  0  0  0  0  0  0  0
   11.6920  -12.4030   -3.3970 C   0  0  0  0  0  0  0  0  0  0  0  0
   10.4230  -12.6010   -2.8410 C   0  0  0  0  0  0  0  0  0  0  0  0
   10.2090  -12.5140   -1.4540 C   0  0  0  0  0  0  0  0  0  0  0  0
    8.9740  -12.6970   -0.8650 N   0  0  0  0  0  0  0  0  0  0  0  0
    7.9010  -11.9560   -1.1280 C   0  0  0  0  0  0  0  0  0  0  0  0
    6.6650  -12.0410   -0.5820 N   0  0  0  0  0  0  0  0  0  0  0  0
    6.4240  -11.5700    0.7980 C   0  0  0  0  0  0  0  0  0  0  0  0
    5.6530  -12.5640   -1.3130 C   0  0  0  0  0  0  0  0  0  0  0  0
    4.5190  -11.9790   -1.6930 N   0  0  0  0  0  0  0  0  0  0  0  0
    3.5510  -12.5850   -2.4680 C   0  0  0  0  0  0  0  0  0  0  0  0
    3.1400  -13.9170   -2.2860 C   0  0  0  0  0  0  0  0  0  0  0  0
    2.1590  -14.4950   -3.0980 C   0  0  0  0  0  0  0  0  0  0  0  0
    1.5580  -13.7570   -4.1150 C   0  0  0  0  0  0  0  0  0  0  0  0
    0.5300  -14.3870   -5.0130 C   0  0  0  0  0  0  0  0  0  0  0  0
    1.9770  -12.4430   -4.3310 C   0  0  0  0  0  0  0  0  0  0  0  0
    2.9610  -11.8470   -3.5210 C   0  0  0  0  0  0  0  0  0  0  0  0
    3.3410  -10.4190   -3.8210 C   0  0  0  0  0  0  0  0  0  0  0  0
   11.3140  -12.1930   -0.6320 C   0  0  0  0  0  0  0  0  0  0  0  0
   11.1960  -12.0530    0.8650 C   0  0  0  0  0  0  0  0  0  0  0  0
   12.5840  -11.9930   -1.2060 C   0  0  0  0  0  0  0  0  0  0  0  0
   14.8763  -11.7298   -2.3740 H   0  0  0  0  0  0  0  0  0  0  0  0
   14.4305  -12.7248   -3.8016 H   0  0  0  0  0  0  0  0  0  0  0  0
   14.1061  -10.9581   -3.8016 H   0  0  0  0  0  0  0  0  0  0  0  0
   11.8278  -12.4763   -4.4861 H   0  0  0  0  0  0  0  0  0  0  0  0
    9.5749  -12.8296   -3.5032 H   0  0  0  0  0  0  0  0  0  0  0  0
    8.8970  -13.4860   -0.2370 H   0  0  0  0  0  0  0  0  0  0  0  0
    8.0354  -11.1722   -1.8880 H   0  0  0  0  0  0  0  0  0  0  0  0
    6.8053  -12.3152    1.5116 H   0  0  0  0  0  0  0  0  0  0  0  0
    6.9432  -10.6130    0.9547 H   0  0  0  0  0  0  0  0  0  0  0  0
    5.3441  -11.4312    0.9547 H   0  0  0  0  0  0  0  0  0  0  0  0
    5.7845  -13.6076   -1.6348 H   0  0  0  0  0  0  0  0  0  0  0  0
    4.3000  -11.0480   -1.3620 H   0  0  0  0  0  0  0  0  0  0  0  0
    3.6000  -14.5177   -1.4875 H   0  0  0  0  0  0  0  0  0  0  0  0
    1.8597  -15.5404   -2.9323 H   0  0  0  0  0  0  0  0  0  0  0  0
   -0.2489  -14.8643   -4.4003 H   0  0  0  0  0  0  0  0  0  0  0  0
    0.0741  -13.6130   -5.6479 H   0  0  0  0  0  0  0  0  0  0  0  0
    1.0127  -15.1446   -5.6479 H   0  0  0  0  0  0  0  0  0  0  0  0
    1.5290  -11.8621   -5.1507 H   0  0  0  0  0  0  0  0  0  0  0  0
    3.4865   -9.8724   -2.8776 H   0  0  0  0  0  0  0  0  0  0  0  0
    4.2748  -10.4024   -4.4021 H   0  0  0  0  0  0  0  0  0  0  0  0
    2.5389   -9.9405   -4.4021 H   0  0  0  0  0  0  0  0  0  0  0  0
   11.8307  -12.8061    1.3549 H   0  0  0  0  0  0  0  0  0  0  0  0
   11.5223  -11.0466    1.1660 H   0  0  0  0  0  0  0  0  0  0  0  0
   10.1488  -12.2042    1.1660 H   0  0  0  0  0  0  0  0  0  0  0  0
   13.4348  -11.7366   -0.5577 H   0  0  0  0  0  0  0  0  0  0  0  0
  1  2  1  0
  2  3  2  0
  3  4  1  0
  4  5  2  0
  5  6  1  0
  6  7  2  0
  7  8  1  0
  8  9  1  0
  8 10  1  0
 10 11  2  0
 11 12  1  0
 12 13  2  0
 13 14  1  0
 14 15  2  0
 15 16  1  0
 15 17  1  0
 17 18  2  0
 18 19  1  0
  5 20  1  0
 20 21  1  0
 20 22  2  0
 22  2  1  0
 18 12  1  0
  1 23  1  0
  1 24  1  0
  1 25  1  0
  3 26  1  0
  4 27  1  0
  6 28  1  0
  7 29  1  0
  9 30  1  0
  9 31  1  0
  9 32  1  0
 10 33  1  0
 11 34  1  0
 13 35  1  0
 14 36  1  0
 16 37  1  0
 16 38  1  0
 16 39  1  0
 17 40  1  0
 19 41  1  0
 19 42  1  0
 19 43  1  0
 21 44  1  0
 21 45  1  0
 21 46  1  0
 22 47  1  0
M  CHG  2   6   1  11   1
M  END
>  <meeko>  (3) 
{"is_sidechain": [false], "free_energy": -6.919, "intermolecular_energy": -8.582, "internal_energy": -0.381}

$$$$
REF_CHEMBL1365675__M_PUB_ALL__e8__s20260927
     RDKit          3D

 47 48  0  0  0  0  0  0  0  0999 V2000
    0.4940  -14.3910   -5.1330 C   0  0  0  0  0  0  0  0  0  0  0  0
    1.5430  -13.8540   -4.2000 C   0  0  0  0  0  0  0  0  0  0  0  0
    2.0570  -14.6460   -3.1770 C   0  0  0  0  0  0  0  0  0  0  0  0
    3.0080  -14.1330   -2.2890 C   0  0  0  0  0  0  0  0  0  0  0  0
    3.4730  -12.8110   -2.3970 C   0  0  0  0  0  0  0  0  0  0  0  0
    4.4060  -12.2630   -1.5400 N   0  0  0  0  0  0  0  0  0  0  0  0
    5.6910  -12.6100   -1.5090 C   0  0  0  0  0  0  0  0  0  0  0  0
    6.6660  -12.1520   -0.6900 N   0  0  0  0  0  0  0  0  0  0  0  0
    6.3650  -11.8270    0.7200 C   0  0  0  0  0  0  0  0  0  0  0  0
    7.9190  -11.9950   -1.1750 C   0  0  0  0  0  0  0  0  0  0  0  0
    9.0020  -12.7280   -0.9240 N   0  0  0  0  0  0  0  0  0  0  0  0
   10.2410  -12.5090   -1.4930 C   0  0  0  0  0  0  0  0  0  0  0  0
   10.4870  -12.6280   -2.8710 C   0  0  0  0  0  0  0  0  0  0  0  0
   11.7590  -12.4020   -3.4070 C   0  0  0  0  0  0  0  0  0  0  0  0
   12.8230  -12.0490   -2.5790 C   0  0  0  0  0  0  0  0  0  0  0  0
   14.1990  -11.8410   -3.1470 C   0  0  0  0  0  0  0  0  0  0  0  0
   12.6030  -11.9580   -1.2040 C   0  0  0  0  0  0  0  0  0  0  0  0
   11.3280  -12.1790   -0.6500 C   0  0  0  0  0  0  0  0  0  0  0  0
   11.1840  -12.0460    0.8450 C   0  0  0  0  0  0  0  0  0  0  0  0
    2.9290  -11.9990   -3.4190 C   0  0  0  0  0  0  0  0  0  0  0  0
    3.3370  -10.5600   -3.6140 C   0  0  0  0  0  0  0  0  0  0  0  0
    1.9690  -12.5280   -4.3030 C   0  0  0  0  0  0  0  0  0  0  0  0
   -0.3349  -14.8153   -4.5475 H   0  0  0  0  0  0  0  0  0  0  0  0
    0.1154  -13.5758   -5.7672 H   0  0  0  0  0  0  0  0  0  0  0  0
    0.9339  -15.1748   -5.7672 H   0  0  0  0  0  0  0  0  0  0  0  0
    1.7121  -15.6846   -3.0661 H   0  0  0  0  0  0  0  0  0  0  0  0
    3.4004  -14.7779   -1.4890 H   0  0  0  0  0  0  0  0  0  0  0  0
    4.0740  -11.5150   -0.9450 H   0  0  0  0  0  0  0  0  0  0  0  0
    6.0002  -13.3672   -2.2445 H   0  0  0  0  0  0  0  0  0  0  0  0
    6.9626  -12.4723    1.3806 H   0  0  0  0  0  0  0  0  0  0  0  0
    6.6131  -10.7731    0.9144 H   0  0  0  0  0  0  0  0  0  0  0  0
    5.2952  -11.9937    0.9144 H   0  0  0  0  0  0  0  0  0  0  0  0
    8.0619  -11.1519   -1.8669 H   0  0  0  0  0  0  0  0  0  0  0  0
    8.9580  -13.4680   -0.2340 H   0  0  0  0  0  0  0  0  0  0  0  0
    9.6614  -12.9049   -3.5430 H   0  0  0  0  0  0  0  0  0  0  0  0
   11.9208  -12.5037   -4.4903 H   0  0  0  0  0  0  0  0  0  0  0  0
   14.9222  -11.7317   -2.3254 H   0  0  0  0  0  0  0  0  0  0  0  0
   14.4752  -12.7076   -3.7657 H   0  0  0  0  0  0  0  0  0  0  0  0
   14.2067  -10.9315   -3.7657 H   0  0  0  0  0  0  0  0  0  0  0  0
   13.4432  -11.7084   -0.5394 H   0  0  0  0  0  0  0  0  0  0  0  0
   11.9044  -12.7113    1.3434 H   0  0  0  0  0  0  0  0  0  0  0  0
   11.3807  -11.0050    1.1411 H   0  0  0  0  0  0  0  0  0  0  0  0
   10.1619  -12.3246    1.1411 H   0  0  0  0  0  0  0  0  0  0  0  0
    3.4728  -10.0812   -2.6330 H   0  0  0  0  0  0  0  0  0  0  0  0
    4.2820  -10.5197   -4.1756 H   0  0  0  0  0  0  0  0  0  0  0  0
    2.5538  -10.0297   -4.1756 H   0  0  0  0  0  0  0  0  0  0  0  0
    1.5468  -11.8849   -5.0892 H   0  0  0  0  0  0  0  0  0  0  0  0
  1  2  1  0
  2  3  2  0
  3  4  1  0
  4  5  2  0
  5  6  1  0
  6  7  2  0
  7  8  1  0
  8  9  1  0
  8 10  1  0
 10 11  2  0
 11 12  1  0
 12 13  2  0
 13 14  1  0
 14 15  2  0
 15 16  1  0
 15 17  1  0
 17 18  2  0
 18 19  1  0
  5 20  1  0
 20 21  1  0
 20 22  2  0
 22  2  1  0
 18 12  1  0
  1 23  1  0
  1 24  1  0
  1 25  1  0
  3 26  1  0
  4 27  1  0
  6 28  1  0
  7 29  1  0
  9 30  1  0
  9 31  1  0
  9 32  1  0
 10 33  1  0
 11 34  1  0
 13 35  1  0
 14 36  1  0
 16 37  1  0
 16 38  1  0
 16 39  1  0
 17 40  1  0
 19 41  1  0
 19 42  1  0
 19 43  1  0
 21 44  1  0
 21 45  1  0
 21 46  1  0
 22 47  1  0
M  CHG  2   6   1  11   1
M  END
>  <meeko>  (4) 
{"is_sidechain": [false], "free_energy": -6.887, "intermolecular_energy": -8.546, "internal_energy": -0.377}

$$$$
REF_CHEMBL1365675__M_PUB_ALL__e8__s20260927
     RDKit          3D

 47 48  0  0  0  0  0  0  0  0999 V2000
   -0.9740  -10.1560    2.0510 C   0  0  0  0  0  0  0  0  0  0  0  0
   -1.6560  -11.4690    2.3070 C   0  0  0  0  0  0  0  0  0  0  0  0
   -0.9510  -12.5420    2.8470 C   0  0  0  0  0  0  0  0  0  0  0  0
   -1.5790  -13.7750    3.0540 C   0  0  0  0  0  0  0  0  0  0  0  0
   -2.9320  -13.9710    2.7250 C   0  0  0  0  0  0  0  0  0  0  0  0
   -3.5900  -15.1710    2.9080 N   0  0  0  0  0  0  0  0  0  0  0  0
   -3.8120  -15.7320    4.0950 C   0  0  0  0  0  0  0  0  0  0  0  0
   -4.4170  -16.9110    4.3680 N   0  0  0  0  0  0  0  0  0  0  0  0
   -3.8000  -18.1840    3.9390 C   0  0  0  0  0  0  0  0  0  0  0  0
   -5.5930  -16.9130    5.0360 C   0  0  0  0  0  0  0  0  0  0  0  0
   -6.4150  -15.8900    5.2680 N   0  0  0  0  0  0  0  0  0  0  0  0
   -7.6170  -15.9930    5.9380 C   0  0  0  0  0  0  0  0  0  0  0  0
   -8.7640  -16.5810    5.3770 C   0  0  0  0  0  0  0  0  0  0  0  0
   -9.9650  -16.6600    6.0900 C   0  0  0  0  0  0  0  0  0  0  0  0
  -10.0540  -16.1540    7.3850 C   0  0  0  0  0  0  0  0  0  0  0  0
  -11.3530  -16.2050    8.1390 C   0  0  0  0  0  0  0  0  0  0  0  0
   -8.9340  -15.5380    7.9450 C   0  0  0  0  0  0  0  0  0  0  0  0
   -7.7170  -15.4540    7.2420 C   0  0  0  0  0  0  0  0  0  0  0  0
   -6.5580  -14.7810    7.9330 C   0  0  0  0  0  0  0  0  0  0  0  0
   -3.6390  -12.8890    2.1510 C   0  0  0  0  0  0  0  0  0  0  0  0
   -5.0860  -12.9930    1.7400 C   0  0  0  0  0  0  0  0  0  0  0  0
   -2.9920  -11.6560    1.9460 C   0  0  0  0  0  0  0  0  0  0  0  0
   -0.7260   -9.6785    3.0104 H   0  0  0  0  0  0  0  0  0  0  0  0
   -0.0512  -10.3278    1.4775 H   0  0  0  0  0  0  0  0  0  0  0  0
   -1.6452   -9.4998    1.4775 H   0  0  0  0  0  0  0  0  0  0  0  0
    0.1092  -12.4189    3.1132 H   0  0  0  0  0  0  0  0  0  0  0  0
   -1.0026  -14.6080    3.4828 H   0  0  0  0  0  0  0  0  0  0  0  0
   -3.9620  -15.6030    2.0720 H   0  0  0  0  0  0  0  0  0  0  0  0
   -3.4574  -15.1629    4.9670 H   0  0  0  0  0  0  0  0  0  0  0  0
   -3.5157  -18.7706    4.8251 H   0  0  0  0  0  0  0  0  0  0  0  0
   -4.5208  -18.7561    3.3364 H   0  0  0  0  0  0  0  0  0  0  0  0
   -2.9044  -17.9726    3.3364 H   0  0  0  0  0  0  0  0  0  0  0  0
   -5.9124  -17.8849    5.4402 H   0  0  0  0  0  0  0  0  0  0  0  0
   -6.1410  -14.9550    4.9930 H   0  0  0  0  0  0  0  0  0  0  0  0
   -8.7162  -16.9875    4.3560 H   0  0  0  0  0  0  0  0  0  0  0  0
  -10.8462  -17.1254    5.6244 H   0  0  0  0  0  0  0  0  0  0  0  0
  -11.1500  -16.1970    9.2201 H   0  0  0  0  0  0  0  0  0  0  0  0
  -11.9651  -15.3302    7.8744 H   0  0  0  0  0  0  0  0  0  0  0  0
  -11.8947  -17.1251    7.8744 H   0  0  0  0  0  0  0  0  0  0  0  0
   -9.0034  -15.1095    8.9558 H   0  0  0  0  0  0  0  0  0  0  0  0
   -6.6872  -14.8560    9.0228 H   0  0  0  0  0  0  0  0  0  0  0  0
   -5.6197  -15.2747    7.6401 H   0  0  0  0  0  0  0  0  0  0  0  0
   -6.5217  -13.7213    7.6401 H   0  0  0  0  0  0  0  0  0  0  0  0
   -5.7198  -13.0386    2.6379 H   0  0  0  0  0  0  0  0  0  0  0  0
   -5.3613  -12.1123    1.1411 H   0  0  0  0  0  0  0  0  0  0  0  0
   -5.2325  -13.9040    1.1411 H   0  0  0  0  0  0  0  0  0  0  0  0
   -3.5496  -10.8233    1.4925 H   0  0  0  0  0  0  0  0  0  0  0  0
  1  2  1  0
  2  3  2  0
  3  4  1  0
  4  5  2  0
  5  6  1  0
  6  7  2  0
  7  8  1  0
  8  9  1  0
  8 10  1  0
 10 11  2  0
 11 12  1  0
 12 13  2  0
 13 14  1  0
 14 15  2  0
 15 16  1  0
 15 17  1  0
 17 18  2  0
 18 19  1  0
  5 20  1  0
 20 21  1  0
 20 22  2  0
 22  2  1  0
 18 12  1  0
  1 23  1  0
  1 24  1  0
  1 25  1  0
  3 26  1  0
  4 27  1  0
  6 28  1  0
  7 29  1  0
  9 30  1  0
  9 31  1  0
  9 32  1  0
 10 33  1  0
 11 34  1  0
 13 35  1  0
 14 36  1  0
 16 37  1  0
 16 38  1  0
 16 39  1  0
 17 40  1  0
 19 41  1  0
 19 42  1  0
 19 43  1  0
 21 44  1  0
 21 45  1  0
 21 46  1  0
 22 47  1  0
M  CHG  2   6   1  11   1
M  END
>  <meeko>  (5) 
{"is_sidechain": [false], "free_energy": -6.716, "intermolecular_energy": -8.241, "internal_energy": -0.472}

$$$$
REF_CHEMBL1365675__M_PUB_ALL__e8__s20260927
     RDKit          3D

 47 48  0  0  0  0  0  0  0  0999 V2000
   -1.6250   -8.7870    3.8910 C   0  0  0  0  0  0  0  0  0  0  0  0
   -1.3300   -9.8870    2.9120 C   0  0  0  0  0  0  0  0  0  0  0  0
   -0.8820   -9.5930    1.6260 C   0  0  0  0  0  0  0  0  0  0  0  0
   -0.6400  -10.6170    0.7050 C   0  0  0  0  0  0  0  0  0  0  0  0
   -0.8410  -11.9680    1.0410 C   0  0  0  0  0  0  0  0  0  0  0  0
   -0.6200  -13.0080    0.1620 N   0  0  0  0  0  0  0  0  0  0  0  0
    0.5660  -13.5780   -0.0440 C   0  0  0  0  0  0  0  0  0  0  0  0
    0.8820  -14.5770   -0.9010 N   0  0  0  0  0  0  0  0  0  0  0  0
    0.4840  -15.9690   -0.6030 C   0  0  0  0  0  0  0  0  0  0  0  0
    1.5660  -14.2880   -2.0310 C   0  0  0  0  0  0  0  0  0  0  0  0
    2.2250  -13.1720   -2.3380 N   0  0  0  0  0  0  0  0  0  0  0  0
    2.9240  -12.9770   -3.5120 C   0  0  0  0  0  0  0  0  0  0  0  0
    3.5080  -14.0250   -4.2430 C   0  0  0  0  0  0  0  0  0  0  0  0
    4.2130  -13.7830   -5.4270 C   0  0  0  0  0  0  0  0  0  0  0  0
    4.3540  -12.4860   -5.9140 C   0  0  0  0  0  0  0  0  0  0  0  0
    5.1420  -12.2190   -7.1660 C   0  0  0  0  0  0  0  0  0  0  0  0
    3.8070  -11.4290   -5.1830 C   0  0  0  0  0  0  0  0  0  0  0  0
    3.0920  -11.6570   -3.9920 C   0  0  0  0  0  0  0  0  0  0  0  0
    2.5280  -10.4560   -3.2770 C   0  0  0  0  0  0  0  0  0  0  0  0
   -1.3230  -12.2630    2.3380 C   0  0  0  0  0  0  0  0  0  0  0  0
   -1.5950  -13.6730    2.7990 C   0  0  0  0  0  0  0  0  0  0  0  0
   -1.5650  -11.2210    3.2530 C   0  0  0  0  0  0  0  0  0  0  0  0
   -1.5219   -9.1714    4.9165 H   0  0  0  0  0  0  0  0  0  0  0  0
   -0.9171   -7.9593    3.7368 H   0  0  0  0  0  0  0  0  0  0  0  0
   -2.6521   -8.4246    3.7368 H   0  0  0  0  0  0  0  0  0  0  0  0
   -0.7171   -8.5458    1.3324 H   0  0  0  0  0  0  0  0  0  0  0  0
   -0.2848  -10.3605   -0.3040 H   0  0  0  0  0  0  0  0  0  0  0  0
   -1.4400  -13.3760   -0.3030 H   0  0  0  0  0  0  0  0  0  0  0  0
    1.3968  -13.1859    0.5610 H   0  0  0  0  0  0  0  0  0  0  0  0
    0.4428  -16.1133    0.4867 H   0  0  0  0  0  0  0  0  0  0  0  0
   -0.5070  -16.1679   -1.0370 H   0  0  0  0  0  0  0  0  0  0  0  0
    1.2201  -16.6617   -1.0370 H   0  0  0  0  0  0  0  0  0  0  0  0
    1.5800  -15.0776   -2.7967 H   0  0  0  0  0  0  0  0  0  0  0  0
    2.1840  -12.3780   -1.7110 H   0  0  0  0  0  0  0  0  0  0  0  0
    3.4089  -15.0575   -3.8768 H   0  0  0  0  0  0  0  0  0  0  0  0
    4.6595  -14.6241   -5.9777 H   0  0  0  0  0  0  0  0  0  0  0  0
    6.1523  -11.8767   -6.8974 H   0  0  0  0  0  0  0  0  0  0  0  0
    5.2134  -13.1431   -7.7584 H   0  0  0  0  0  0  0  0  0  0  0  0
    4.6369  -11.4418   -7.7584 H   0  0  0  0  0  0  0  0  0  0  0  0
    3.9374  -10.3985   -5.5449 H   0  0  0  0  0  0  0  0  0  0  0  0
    2.5999  -10.6092   -2.1901 H   0  0  0  0  0  0  0  0  0  0  0  0
    3.0992   -9.5594   -3.5595 H   0  0  0  0  0  0  0  0  0  0  0  0
    1.4733  -10.3229   -3.5595 H   0  0  0  0  0  0  0  0  0  0  0  0
   -1.6011  -13.7045    3.8985 H   0  0  0  0  0  0  0  0  0  0  0  0
   -2.5730  -14.0013    2.4174 H   0  0  0  0  0  0  0  0  0  0  0  0
   -0.8093  -14.3416    2.4174 H   0  0  0  0  0  0  0  0  0  0  0  0
   -1.9466  -11.4620    4.2561 H   0  0  0  0  0  0  0  0  0  0  0  0
  1  2  1  0
  2  3  2  0
  3  4  1  0
  4  5  2  0
  5  6  1  0
  6  7  2  0
  7  8  1  0
  8  9  1  0
  8 10  1  0
 10 11  2  0
 11 12  1  0
 12 13  2  0
 13 14  1  0
 14 15  2  0
 15 16  1  0
 15 17  1  0
 17 18  2  0
 18 19  1  0
  5 20  1  0
 20 21  1  0
 20 22  2  0
 22  2  1  0
 18 12  1  0
  1 23  1  0
  1 24  1  0
  1 25  1  0
  3 26  1  0
  4 27  1  0
  6 28  1  0
  7 29  1  0
  9 30  1  0
  9 31  1  0
  9 32  1  0
 10 33  1  0
 11 34  1  0
 13 35  1  0
 14 36  1  0
 16 37  1  0
 16 38  1  0
 16 39  1  0
 17 40  1  0
 19 41  1  0
 19 42  1  0
 19 43  1  0
 21 44  1  0
 21 45  1  0
 21 46  1  0
 22 47  1  0
M  CHG  2   6   1  11   1
M  END
>  <meeko>  (6) 
{"is_sidechain": [false], "free_energy": -6.672, "intermolecular_energy": -8.236, "internal_energy": -0.421}

$$$$
REF_CHEMBL1365675__M_PUB_ALL__e8__s20260927
     RDKit          3D

 47 48  0  0  0  0  0  0  0  0999 V2000
  -11.1200  -16.5440    8.2540 C   0  0  0  0  0  0  0  0  0  0  0  0
   -9.9090  -16.3090    7.3960 C   0  0  0  0  0  0  0  0  0  0  0  0
   -9.8420  -16.8260    6.1050 C   0  0  0  0  0  0  0  0  0  0  0  0
   -8.7000  -16.6340    5.3200 C   0  0  0  0  0  0  0  0  0  0  0  0
   -7.5900  -15.9200    5.8040 C   0  0  0  0  0  0  0  0  0  0  0  0
   -6.4420  -15.7120    5.0660 N   0  0  0  0  0  0  0  0  0  0  0  0
   -5.4680  -16.6090    4.9250 C   0  0  0  0  0  0  0  0  0  0  0  0
   -4.3010  -16.4850    4.2500 N   0  0  0  0  0  0  0  0  0  0  0  0
   -3.5180  -17.6840    3.8870 C   0  0  0  0  0  0  0  0  0  0  0  0
   -3.8600  -15.2520    3.9120 C   0  0  0  0  0  0  0  0  0  0  0  0
   -2.8480  -14.9260    3.1100 N   0  0  0  0  0  0  0  0  0  0  0  0
   -2.4870  -13.6310    2.7970 C   0  0  0  0  0  0  0  0  0  0  0  0
   -3.3090  -12.7580    2.0640 C   0  0  0  0  0  0  0  0  0  0  0  0
   -2.9030  -11.4530    1.7640 C   0  0  0  0  0  0  0  0  0  0  0  0
   -1.6620  -10.9830    2.1900 C   0  0  0  0  0  0  0  0  0  0  0  0
   -1.2080   -9.5940    1.8380 C   0  0  0  0  0  0  0  0  0  0  0  0
   -0.8200  -11.8470    2.8920 C   0  0  0  0  0  0  0  0  0  0  0  0
   -1.2160  -13.1610    3.2040 C   0  0  0  0  0  0  0  0  0  0  0  0
   -0.2440  -14.0180    3.9760 C   0  0  0  0  0  0  0  0  0  0  0  0
   -7.6480  -15.4200    7.1260 C   0  0  0  0  0  0  0  0  0  0  0  0
   -6.5080  -14.6600    7.7560 C   0  0  0  0  0  0  0  0  0  0  0  0
   -8.8030  -15.6240    7.9050 C   0  0  0  0  0  0  0  0  0  0  0  0
  -10.8342  -16.4885    9.3148 H   0  0  0  0  0  0  0  0  0  0  0  0
  -11.8773  -15.7761    8.0377 H   0  0  0  0  0  0  0  0  0  0  0  0
  -11.5351  -17.5394    8.0377 H   0  0  0  0  0  0  0  0  0  0  0  0
  -10.6944  -17.3903    5.6987 H   0  0  0  0  0  0  0  0  0  0  0  0
   -8.6700  -17.0506    4.3024 H   0  0  0  0  0  0  0  0  0  0  0  0
   -6.3890  -14.8330    4.5690 H   0  0  0  0  0  0  0  0  0  0  0  0
   -5.6331  -17.5766    5.4215 H   0  0  0  0  0  0  0  0  0  0  0  0
   -3.1843  -18.1949    4.8022 H   0  0  0  0  0  0  0  0  0  0  0  0
   -4.1453  -18.3660    3.2943 H   0  0  0  0  0  0  0  0  0  0  0  0
   -2.6413  -17.3838    3.2943 H   0  0  0  0  0  0  0  0  0  0  0  0
   -4.4084  -14.4089    4.3574 H   0  0  0  0  0  0  0  0  0  0  0  0
   -2.2530  -15.6530    2.7320 H   0  0  0  0  0  0  0  0  0  0  0  0
   -4.2929  -13.1082    1.7186 H   0  0  0  0  0  0  0  0  0  0  0  0
   -3.5682  -10.7932    1.1877 H   0  0  0  0  0  0  0  0  0  0  0  0
   -1.0218   -9.0243    2.7604 H   0  0  0  0  0  0  0  0  0  0  0  0
   -0.2813   -9.6496    1.2480 H   0  0  0  0  0  0  0  0  0  0  0  0
   -1.9887   -9.0916    1.2480 H   0  0  0  0  0  0  0  0  0  0  0  0
    0.1728  -11.4939    3.2077 H   0  0  0  0  0  0  0  0  0  0  0  0
   -0.4059  -13.8753    5.0546 H   0  0  0  0  0  0  0  0  0  0  0  0
   -0.4026  -15.0755    3.7182 H   0  0  0  0  0  0  0  0  0  0  0  0
    0.7853  -13.7282    3.7182 H   0  0  0  0  0  0  0  0  0  0  0  0
   -6.5913  -14.7155    8.8514 H   0  0  0  0  0  0  0  0  0  0  0  0
   -5.5524  -15.1023    7.4381 H   0  0  0  0  0  0  0  0  0  0  0  0
   -6.5488  -13.6077    7.4381 H   0  0  0  0  0  0  0  0  0  0  0  0
   -8.8351  -15.2366    8.9340 H   0  0  0  0  0  0  0  0  0  0  0  0
  1  2  1  0
  2  3  2  0
  3  4  1  0
  4  5  2  0
  5  6  1  0
  6  7  2  0
  7  8  1  0
  8  9  1  0
  8 10  1  0
 10 11  2  0
 11 12  1  0
 12 13  2  0
 13 14  1  0
 14 15  2  0
 15 16  1  0
 15 17  1  0
 17 18  2  0
 18 19  1  0
  5 20  1  0
 20 21  1  0
 20 22  2  0
 22  2  1  0
 18 12  1  0
  1 23  1  0
  1 24  1  0
  1 25  1  0
  3 26  1  0
  4 27  1  0
  6 28  1  0
  7 29  1  0
  9 30  1  0
  9 31  1  0
  9 32  1  0
 10 33  1  0
 11 34  1  0
 13 35  1  0
 14 36  1  0
 16 37  1  0
 16 38  1  0
 16 39  1  0
 17 40  1  0
 19 41  1  0
 19 42  1  0
 19 43  1  0
 21 44  1  0
 21 45  1  0
 21 46  1  0
 22 47  1  0
M  CHG  2   6   1  11   1
M  END
>  <meeko>  (7) 
{"is_sidechain": [false], "free_energy": -6.446, "intermolecular_energy": -7.981, "internal_energy": -0.398}

$$$$
REF_CHEMBL1365675__M_PUB_ALL__e8__s20260927
     RDKit          3D

 47 48  0  0  0  0  0  0  0  0999 V2000
   -3.4580  -12.2140    2.4590 C   0  0  0  0  0  0  0  0  0  0  0  0
   -2.0470  -12.0840    1.9590 C   0  0  0  0  0  0  0  0  0  0  0  0
   -1.2240  -13.2040    1.8570 C   0  0  0  0  0  0  0  0  0  0  0  0
    0.0990  -13.0760    1.4230 C   0  0  0  0  0  0  0  0  0  0  0  0
    0.6400  -11.8240    1.0800 C   0  0  0  0  0  0  0  0  0  0  0  0
    1.9420  -11.6530    0.6520 N   0  0  0  0  0  0  0  0  0  0  0  0
    2.8160  -12.6440    0.4920 C   0  0  0  0  0  0  0  0  0  0  0  0
    4.1110  -12.5700    0.1080 N   0  0  0  0  0  0  0  0  0  0  0  0
    5.1660  -12.2610    1.0970 C   0  0  0  0  0  0  0  0  0  0  0  0
    4.4310  -12.7800   -1.1890 C   0  0  0  0  0  0  0  0  0  0  0  0
    4.4550  -11.8990   -2.1880 N   0  0  0  0  0  0  0  0  0  0  0  0
    4.8250  -12.2000   -3.4830 C   0  0  0  0  0  0  0  0  0  0  0  0
    5.8770  -13.0780   -3.8000 C   0  0  0  0  0  0  0  0  0  0  0  0
    6.2230  -13.3520   -5.1270 C   0  0  0  0  0  0  0  0  0  0  0  0
    5.5270  -12.7580   -6.1770 C   0  0  0  0  0  0  0  0  0  0  0  0
    5.9200  -13.0230   -7.6030 C   0  0  0  0  0  0  0  0  0  0  0  0
    4.5000  -11.8590   -5.8800 C   0  0  0  0  0  0  0  0  0  0  0  0
    4.1380  -11.5750   -4.5500 C   0  0  0  0  0  0  0  0  0  0  0  0
    3.0100  -10.6010   -4.3270 C   0  0  0  0  0  0  0  0  0  0  0  0
   -0.1880  -10.6860    1.2110 C   0  0  0  0  0  0  0  0  0  0  0  0
    0.2930   -9.2920    0.8920 C   0  0  0  0  0  0  0  0  0  0  0  0
   -1.5170  -10.8300    1.6520 C   0  0  0  0  0  0  0  0  0  0  0  0
   -3.4587  -12.2141    3.5590 H   0  0  0  0  0  0  0  0  0  0  0  0
   -4.0565  -11.3672    2.0920 H   0  0  0  0  0  0  0  0  0  0  0  0
   -3.8917  -13.1559    2.0920 H   0  0  0  0  0  0  0  0  0  0  0  0
   -1.6183  -14.1966    2.1200 H   0  0  0  0  0  0  0  0  0  0  0  0
    0.7302  -13.9738    1.3483 H   0  0  0  0  0  0  0  0  0  0  0  0
    2.2040  -10.7080    0.4020 H   0  0  0  0  0  0  0  0  0  0  0  0
    2.4356  -13.6552    0.6990 H   0  0  0  0  0  0  0  0  0  0  0  0
    4.7619  -12.3793    2.1132 H   0  0  0  0  0  0  0  0  0  0  0  0
    6.0129  -12.9488    0.9567 H   0  0  0  0  0  0  0  0  0  0  0  0
    5.5080  -11.2250    0.9567 H   0  0  0  0  0  0  0  0  0  0  0  0
    4.7071  -13.8115   -1.4533 H   0  0  0  0  0  0  0  0  0  0  0  0
    4.1370  -10.9520   -2.0290 H   0  0  0  0  0  0  0  0  0  0  0  0
    6.4397  -13.5595   -2.9867 H   0  0  0  0  0  0  0  0  0  0  0  0
    7.0517  -14.0423   -5.3433 H   0  0  0  0  0  0  0  0  0  0  0  0
    6.8319  -13.6379   -7.6238 H   0  0  0  0  0  0  0  0  0  0  0  0
    5.1058  -13.5572   -8.1145 H   0  0  0  0  0  0  0  0  0  0  0  0
    6.1100  -12.0679   -8.1145 H   0  0  0  0  0  0  0  0  0  0  0  0
    3.9634  -11.3630   -6.7022 H   0  0  0  0  0  0  0  0  0  0  0  0
    2.8517  -10.4643   -3.2471 H   0  0  0  0  0  0  0  0  0  0  0  0
    3.2644   -9.6341   -4.7856 H   0  0  0  0  0  0  0  0  0  0  0  0
    2.0905  -10.9936   -4.7856 H   0  0  0  0  0  0  0  0  0  0  0  0
    0.4814   -8.7459    1.8281 H   0  0  0  0  0  0  0  0  0  0  0  0
    1.2232   -9.3498    0.3077 H   0  0  0  0  0  0  0  0  0  0  0  0
   -0.4749   -8.7639    0.3077 H   0  0  0  0  0  0  0  0  0  0  0  0
   -2.1502   -9.9366    1.7567 H   0  0  0  0  0  0  0  0  0  0  0  0
  1  2  1  0
  2  3  2  0
  3  4  1  0
  4  5  2  0
  5  6  1  0
  6  7  2  0
  7  8  1  0
  8  9  1  0
  8 10  1  0
 10 11  2  0
 11 12  1  0
 12 13  2  0
 13 14  1  0
 14 15  2  0
 15 16  1  0
 15 17  1  0
 17 18  2  0
 18 19  1  0
  5 20  1  0
 20 21  1  0
 20 22  2  0
 22  2  1  0
 18 12  1  0
  1 23  1  0
  1 24  1  0
  1 25  1  0
  3 26  1  0
  4 27  1  0
  6 28  1  0
  7 29  1  0
  9 30  1  0
  9 31  1  0
  9 32  1  0
 10 33  1  0
 11 34  1  0
 13 35  1  0
 14 36  1  0
 16 37  1  0
 16 38  1  0
 16 39  1  0
 17 40  1  0
 19 41  1  0
 19 42  1  0
 19 43  1  0
 21 44  1  0
 21 45  1  0
 21 46  1  0
 22 47  1  0
M  CHG  2   6   1  11   1
M  END
>  <meeko>  (8) 
{"is_sidechain": [false], "free_energy": -6.338, "intermolecular_energy": -7.799, "internal_energy": -0.447}

$$$$
REF_CHEMBL1365675__M_PUB_ALL__e8__s20260927
     RDKit          3D

 47 48  0  0  0  0  0  0  0  0999 V2000
    6.6880  -13.3870  -11.4470 C   0  0  0  0  0  0  0  0  0  0  0  0
    7.2420  -13.8960  -10.1470 C   0  0  0  0  0  0  0  0  0  0  0  0
    8.3980  -14.6730  -10.1230 C   0  0  0  0  0  0  0  0  0  0  0  0
    8.8930  -15.1730   -8.9140 C   0  0  0  0  0  0  0  0  0  0  0  0
    8.2460  -14.9130   -7.6930 C   0  0  0  0  0  0  0  0  0  0  0  0
    8.6980  -15.3910   -6.4790 N   0  0  0  0  0  0  0  0  0  0  0  0
    9.5840  -14.7640   -5.7080 C   0  0  0  0  0  0  0  0  0  0  0  0
   10.1040  -15.1670   -4.5250 N   0  0  0  0  0  0  0  0  0  0  0  0
   10.2240  -16.6070   -4.2150 C   0  0  0  0  0  0  0  0  0  0  0  0
   10.5110  -14.2380   -3.6310 C   0  0  0  0  0  0  0  0  0  0  0  0
   11.7060  -14.1090   -3.0570 N   0  0  0  0  0  0  0  0  0  0  0  0
   12.0410  -13.1040   -2.1720 C   0  0  0  0  0  0  0  0  0  0  0  0
   11.3720  -12.8980   -0.9530 C   0  0  0  0  0  0  0  0  0  0  0  0
   11.7410  -11.8640   -0.0860 C   0  0  0  0  0  0  0  0  0  0  0  0
   12.7900  -11.0070   -0.4120 C   0  0  0  0  0  0  0  0  0  0  0  0
   13.1650   -9.8730    0.5010 C   0  0  0  0  0  0  0  0  0  0  0  0
   13.4440  -11.1780   -1.6330 C   0  0  0  0  0  0  0  0  0  0  0  0
   13.0870  -12.2160   -2.5150 C   0  0  0  0  0  0  0  0  0  0  0  0
   13.8570  -12.3300   -3.8060 C   0  0  0  0  0  0  0  0  0  0  0  0
    7.0580  -14.1470   -7.7230 C   0  0  0  0  0  0  0  0  0  0  0  0
    6.2700  -13.8250   -6.4780 C   0  0  0  0  0  0  0  0  0  0  0  0
    6.5690  -13.6530   -8.9470 C   0  0  0  0  0  0  0  0  0  0  0  0
    5.8918  -12.6554  -11.2449 H   0  0  0  0  0  0  0  0  0  0  0  0
    7.4909  -12.9050  -12.0241 H   0  0  0  0  0  0  0  0  0  0  0  0
    6.2756  -14.2278  -12.0241 H   0  0  0  0  0  0  0  0  0  0  0  0
    8.9257  -14.8951  -11.0622 H   0  0  0  0  0  0  0  0  0  0  0  0
    9.8084  -15.7829   -8.9186 H   0  0  0  0  0  0  0  0  0  0  0  0
    8.2710  -16.2500   -6.1560 H   0  0  0  0  0  0  0  0  0  0  0  0
    9.9397  -13.7921   -6.0808 H   0  0  0  0  0  0  0  0  0  0  0  0
   10.2357  -16.7475   -3.1241 H   0  0  0  0  0  0  0  0  0  0  0  0
    9.3678  -17.1473   -4.6451 H   0  0  0  0  0  0  0  0  0  0  0  0
   11.1578  -16.9981   -4.6451 H   0  0  0  0  0  0  0  0  0  0  0  0
    9.7572  -13.4916   -3.3398 H   0  0  0  0  0  0  0  0  0  0  0  0
   12.4190  -14.8080   -3.2220 H   0  0  0  0  0  0  0  0  0  0  0  0
   10.5414  -13.5634   -0.6751 H   0  0  0  0  0  0  0  0  0  0  0  0
   11.1985  -11.7264    0.8610 H   0  0  0  0  0  0  0  0  0  0  0  0
   13.0587  -10.1944    1.5476 H   0  0  0  0  0  0  0  0  0  0  0  0
   14.2081   -9.5794    0.3117 H   0  0  0  0  0  0  0  0  0  0  0  0
   12.5026   -9.0154    0.3117 H   0  0  0  0  0  0  0  0  0  0  0  0
   14.2543  -10.4883   -1.9118 H   0  0  0  0  0  0  0  0  0  0  0  0
   14.9229  -12.4878   -3.5845 H   0  0  0  0  0  0  0  0  0  0  0  0
   13.4735  -13.1812   -4.3878 H   0  0  0  0  0  0  0  0  0  0  0  0
   13.7365  -11.4042   -4.3878 H   0  0  0  0  0  0  0  0  0  0  0  0
    6.8709  -14.0706   -5.5900 H   0  0  0  0  0  0  0  0  0  0  0  0
    6.0219  -12.7534   -6.4680 H   0  0  0  0  0  0  0  0  0  0  0  0
    5.3424  -14.4162   -6.4680 H   0  0  0  0  0  0  0  0  0  0  0  0
    5.6396  -13.0647   -8.9590 H   0  0  0  0  0  0  0  0  0  0  0  0
  1  2  1  0
  2  3  2  0
  3  4  1  0
  4  5  2  0
  5  6  1  0
  6  7  2  0
  7  8  1  0
  8  9  1  0
  8 10  1  0
 10 11  2  0
 11 12  1  0
 12 13  2  0
 13 14  1  0
 14 15  2  0
 15 16  1  0
 15 17  1  0
 17 18  2  0
 18 19  1  0
  5 20  1  0
 20 21  1  0
 20 22  2  0
 22  2  1  0
 18 12  1  0
  1 23  1  0
  1 24  1  0
  1 25  1  0
  3 26  1  0
  4 27  1  0
  6 28  1  0
  7 29  1  0
  9 30  1  0
  9 31  1  0
  9 32  1  0
 10 33  1  0
 11 34  1  0
 13 35  1  0
 14 36  1  0
 16 37  1  0
 16 38  1  0
 16 39  1  0
 17 40  1  0
 19 41  1  0
 19 42  1  0
 19 43  1  0
 21 44  1  0
 21 45  1  0
 21 46  1  0
 22 47  1  0
M  CHG  2   6   1  11   1
M  END
>  <meeko>  (9) 
{"is_sidechain": [false], "free_energy": -6.328, "intermolecular_energy": -7.917, "internal_energy": -0.316}

$$$$
