REF_CHEMBL115__M_PUB_ALL__e8__s20260927
     RDKit          3D

 94 98  0  0  0  0  0  0  0  0999 V2000
    3.7900  -17.1130   -1.2210 C   0  0  0  0  0  0  0  0  0  0  0  0
    2.8720  -17.4780   -0.0410 C   0  0  0  0  0  0  0  0  0  0  0  0
    3.5090  -18.6580    0.7100 C   0  0  0  0  0  0  0  0  0  0  0  0
    1.5000  -17.8830   -0.6020 C   0  0  0  0  0  0  0  0  0  0  0  0
    2.7390  -16.2930    0.8420 N   0  0  0  0  0  0  0  0  0  0  0  0
    2.0990  -15.1340    0.4900 C   0  0  0  0  0  0  0  0  0  0  0  0
    1.5760  -14.9260   -0.6080 O   0  0  0  0  0  0  0  0  0  0  0  0
    2.1340  -13.9830    1.5140 C   0  0  2  0  0  0  0  0  0  0  0  0
    0.6570  -13.6070    1.8430 C   0  0  0  0  0  0  0  0  0  0  0  0
   -0.0610  -13.0200    0.6200 N   0  0  0  0  0  0  0  0  0  0  0  0
   -1.5380  -12.7720    0.8830 C   0  0  0  0  0  0  0  0  0  0  0  0
   -1.8100  -11.4280    1.4800 C   0  0  0  0  0  0  0  0  0  0  0  0
   -2.3790  -10.3890    0.7330 C   0  0  0  0  0  0  0  0  0  0  0  0
   -2.5740   -9.1420    1.3250 C   0  0  0  0  0  0  0  0  0  0  0  0
   -2.1830   -8.9700    2.6410 C   0  0  0  0  0  0  0  0  0  0  0  0
   -1.6250   -9.9510    3.3810 N   0  0  0  0  0  0  0  0  0  0  0  0
   -1.4740  -11.1570    2.8020 C   0  0  0  0  0  0  0  0  0  0  0  0
    0.6680  -11.8210    0.0230 C   0  0  0  0  0  0  0  0  0  0  0  0
    2.1550  -12.1440   -0.2760 C   0  0  0  0  0  0  0  0  0  0  0  0
    2.8470  -12.7270    0.9470 N   0  0  0  0  0  0  0  0  0  0  0  0
    4.3450  -12.9600    0.7540 C   0  0  0  0  0  0  0  0  0  0  0  0
    5.1230  -11.9770    1.6540 C   0  0  1  0  0  0  0  0  0  0  0  0
    5.2010  -12.6000    2.9600 O   0  0  0  0  0  0  0  0  0  0  0  0
    6.5470  -11.6320    1.1770 C   0  0  0  0  0  0  0  0  0  0  0  0
    6.9130  -12.1600   -0.2250 C   0  0  1  0  0  0  0  0  0  0  0  0
    6.7780  -11.0530   -1.2900 C   0  0  0  0  0  0  0  0  0  0  0  0
    6.1150  -11.5300   -2.5580 C   0  0  0  0  0  0  0  0  0  0  0  0
    6.8750  -12.0990   -3.5900 C   0  0  0  0  0  0  0  0  0  0  0  0
    6.2580  -12.5550   -4.7550 C   0  0  0  0  0  0  0  0  0  0  0  0
    4.8780  -12.4440   -4.9060 C   0  0  0  0  0  0  0  0  0  0  0  0
    4.1130  -11.8720   -3.8910 C   0  0  0  0  0  0  0  0  0  0  0  0
    4.7270  -11.4160   -2.7240 C   0  0  0  0  0  0  0  0  0  0  0  0
    8.3160  -12.7700   -0.1930 C   0  0  0  0  0  0  0  0  0  0  0  0
    8.4600  -13.9930   -0.1750 O   0  0  0  0  0  0  0  0  0  0  0  0
    9.3570  -11.9000   -0.0020 N   0  0  0  0  0  0  0  0  0  0  0  0
   10.7380  -12.3490   -0.0020 C   0  0  1  0  0  0  0  0  0  0  0  0
   11.3750  -12.2550   -1.3630 C   0  0  0  0  0  0  0  0  0  0  0  0
   10.8490  -12.6200   -2.5950 C   0  0  0  0  0  0  0  0  0  0  0  0
   11.6490  -12.4790   -3.7310 C   0  0  0  0  0  0  0  0  0  0  0  0
   12.9630  -12.0000   -3.6270 C   0  0  0  0  0  0  0  0  0  0  0  0
   13.4990  -11.6630   -2.3840 C   0  0  0  0  0  0  0  0  0  0  0  0
   12.6960  -11.7930   -1.2630 C   0  0  0  0  0  0  0  0  0  0  0  0
   13.0870  -11.5550    0.1640 C   0  0  0  0  0  0  0  0  0  0  0  0
   11.7080  -11.4550    0.8400 C   0  0  1  0  0  0  0  0  0  0  0  0
   11.2930  -10.0620    0.8730 O   0  0  0  0  0  0  0  0  0  0  0  0
    4.7477  -16.7322   -0.8364 H   0  0  0  0  0  0  0  0  0  0  0  0
    3.9711  -18.0075   -1.8350 H   0  0  0  0  0  0  0  0  0  0  0  0
    3.3074  -16.3383   -1.8350 H   0  0  0  0  0  0  0  0  0  0  0  0
    3.4202  -18.4936    1.7940 H   0  0  0  0  0  0  0  0  0  0  0  0
    2.9910  -19.5891    0.4367 H   0  0  0  0  0  0  0  0  0  0  0  0
    4.5717  -18.7358    0.4367 H   0  0  0  0  0  0  0  0  0  0  0  0
    0.8095  -18.0868    0.2296 H   0  0  0  0  0  0  0  0  0  0  0  0
    1.0999  -17.0646   -1.2186 H   0  0  0  0  0  0  0  0  0  0  0  0
    1.6085  -18.7874   -1.2186 H   0  0  0  0  0  0  0  0  0  0  0  0
    3.2010  -16.3720    1.7460 H   0  0  0  0  0  0  0  0  0  0  0  0
    2.6890  -14.3132    2.4044 H   0  0  0  0  0  0  0  0  0  0  0  0
    0.1229  -14.5109    2.1711 H   0  0  0  0  0  0  0  0  0  0  0  0
    0.6638  -12.8457    2.6369 H   0  0  0  0  0  0  0  0  0  0  0  0
   -0.0370  -13.7760   -0.1000 H   0  0  0  0  0  0  0  0  0  0  0  0
   -2.0810  -12.8478   -0.0706 H   0  0  0  0  0  0  0  0  0  0  0  0
   -1.8732  -13.5273    1.6090 H   0  0  0  0  0  0  0  0  0  0  0  0
   -2.6703  -10.5558   -0.3145 H   0  0  0  0  0  0  0  0  0  0  0  0
   -3.0278   -8.3148    0.7595 H   0  0  0  0  0  0  0  0  0  0  0  0
   -2.3344   -7.9852    3.1071 H   0  0  0  0  0  0  0  0  0  0  0  0
   -1.0609  -11.9755    3.4098 H   0  0  0  0  0  0  0  0  0  0  0  0
    0.1705  -11.5321   -0.9146 H   0  0  0  0  0  0  0  0  0  0  0  0
    0.6360  -11.0009    0.7554 H   0  0  0  0  0  0  0  0  0  0  0  0
    2.2057  -12.8726   -1.0986 H   0  0  0  0  0  0  0  0  0  0  0  0
    2.6657  -11.2101   -0.5536 H   0  0  0  0  0  0  0  0  0  0  0  0
    2.8670  -11.9830    1.6750 H   0  0  0  0  0  0  0  0  0  0  0  0
    4.5969  -13.9940    1.0322 H   0  0  0  0  0  0  0  0  0  0  0  0
    4.6155  -12.7952   -0.2994 H   0  0  0  0  0  0  0  0  0  0  0  0
    4.5840  -11.0181    1.6443 H   0  0  0  0  0  0  0  0  0  0  0  0
    4.4180  -12.2970    3.4710 H   0  0  0  0  0  0  0  0  0  0  0  0
    6.6465  -10.5366    1.1653 H   0  0  0  0  0  0  0  0  0  0  0  0
    7.2338  -12.1267    1.8796 H   0  0  0  0  0  0  0  0  0  0  0  0
    6.2048  -12.9515   -0.5114 H   0  0  0  0  0  0  0  0  0  0  0  0
    6.1783  -10.2328   -0.8685 H   0  0  0  0  0  0  0  0  0  0  0  0
    7.7945  -10.7261   -1.5542 H   0  0  0  0  0  0  0  0  0  0  0  0
    7.9660  -12.1864   -3.4800 H   0  0  0  0  0  0  0  0  0  0  0  0
    6.8631  -13.0035   -5.5567 H   0  0  0  0  0  0  0  0  0  0  0  0
    4.3929  -12.8069   -5.8241 H   0  0  0  0  0  0  0  0  0  0  0  0
    3.0234  -11.7799   -4.0102 H   0  0  0  0  0  0  0  0  0  0  0  0
    4.1176  -10.9635   -1.9278 H   0  0  0  0  0  0  0  0  0  0  0  0
    9.1970  -10.9030   -0.0350 H   0  0  0  0  0  0  0  0  0  0  0  0
   10.6385  -13.3703    0.3943 H   0  0  0  0  0  0  0  0  0  0  0  0
    9.8242  -13.0118   -2.6746 H   0  0  0  0  0  0  0  0  0  0  0  0
   11.2441  -12.7466   -4.7181 H   0  0  0  0  0  0  0  0  0  0  0  0
   13.5763  -11.8891   -4.5334 H   0  0  0  0  0  0  0  0  0  0  0  0
   14.5346  -11.3026   -2.2962 H   0  0  0  0  0  0  0  0  0  0  0  0
   13.6732  -12.3942    0.5665 H   0  0  0  0  0  0  0  0  0  0  0  0
   13.7285  -10.6743    0.3151 H   0  0  0  0  0  0  0  0  0  0  0  0
   11.7181  -11.8065    1.8823 H   0  0  0  0  0  0  0  0  0  0  0  0
   10.9980   -9.8790   -0.0440 H   0  0  0  0  0  0  0  0  0  0  0  0
  1  2  1  0
  2  3  1  0
  2  4  1  0
  2  5  1  0
  5  6  1  0
  6  7  2  0
  6  8  1  0
  8  9  1  0
  9 10  1  0
 10 11  1  0
 11 12  1  0
 12 13  2  0
 13 14  1  0
 14 15  2  0
 15 16  1  0
 16 17  2  0
 10 18  1  0
 18 19  1  0
 19 20  1  0
 20 21  1  0
 21 22  1  0
 22 23  1  0
 22 24  1  0
 24 25  1  0
 25 26  1  0
 26 27  1  0
 27 28  2  0
 28 29  1  0
 29 30  2  0
 30 31  1  0
 31 32  2  0
 25 33  1  0
 33 34  2  0
 33 35  1  0
 35 36  1  0
 36 37  1  0
 37 38  2  0
 38 39  1  0
 39 40  2  0
 40 41  1  0
 41 42  2  0
 42 43  1  0
 43 44  1  0
 44 45  1  0
 20  8  1  0
 32 27  1  0
 44 36  1  0
 17 12  1  0
 42 37  1  0
  1 46  1  0
  1 47  1  0
  1 48  1  0
  3 49  1  0
  3 50  1  0
  3 51  1  0
  4 52  1  0
  4 53  1  0
  4 54  1  0
  5 55  1  0
  8 56  1  1
  9 57  1  0
  9 58  1  0
 10 59  1  0
 11 60  1  0
 11 61  1  0
 13 62  1  0
 14 63  1  0
 15 64  1  0
 17 65  1  0
 18 66  1  0
 18 67  1  0
 19 68  1  0
 19 69  1  0
 20 70  1  0
 21 71  1  0
 21 72  1  0
 22 73  1  1
 23 74  1  0
 24 75  1  0
 24 76  1  0
 25 77  1  6
 26 78  1  0
 26 79  1  0
 28 80  1  0
 29 81  1  0
 30 82  1  0
 31 83  1  0
 32 84  1  0
 35 85  1  0
 36 86  1  1
 38 87  1  0
 39 88  1  0
 40 89  1  0
 41 90  1  0
 43 91  1  0
 43 92  1  0
 44 93  1  1
 45 94  1  0
M  CHG  2  10   1  20   1
M  END
>  <meeko>  (1) 
{"is_sidechain": [false], "free_energy": -9.102, "intermolecular_energy": -16.019, "internal_energy": -1.359}

$$$$
REF_CHEMBL115__M_PUB_ALL__e8__s20260927
     RDKit          3D

 94 98  0  0  0  0  0  0  0  0999 V2000
    5.3210  -11.8950   -3.8720 C   0  0  0  0  0  0  0  0  0  0  0  0
    5.1650  -12.7560   -5.1380 C   0  0  0  0  0  0  0  0  0  0  0  0
    4.6510  -11.8510   -6.2690 C   0  0  0  0  0  0  0  0  0  0  0  0
    4.1490  -13.8700   -4.8450 C   0  0  0  0  0  0  0  0  0  0  0  0
    6.4850  -13.3390   -5.4810 N   0  0  0  0  0  0  0  0  0  0  0  0
    6.8060  -13.8570   -6.7090 C   0  0  0  0  0  0  0  0  0  0  0  0
    6.0330  -13.9190   -7.6690 O   0  0  0  0  0  0  0  0  0  0  0  0
    8.2020  -14.4910   -6.8510 C   0  0  2  0  0  0  0  0  0  0  0  0
    8.7000  -14.2050   -8.3010 C   0  0  0  0  0  0  0  0  0  0  0  0
    7.8350  -14.9230   -9.3470 N   0  0  0  0  0  0  0  0  0  0  0  0
    8.2210  -14.5490  -10.7680 C   0  0  0  0  0  0  0  0  0  0  0  0
    8.2330  -13.0710  -11.0030 C   0  0  0  0  0  0  0  0  0  0  0  0
    7.1710  -12.2510  -10.6050 C   0  0  0  0  0  0  0  0  0  0  0  0
    7.2120  -10.8860  -10.8830 C   0  0  0  0  0  0  0  0  0  0  0  0
    8.3110  -10.3860  -11.5610 C   0  0  0  0  0  0  0  0  0  0  0  0
    9.3440  -11.1550  -11.9620 N   0  0  0  0  0  0  0  0  0  0  0  0
    9.3010  -12.4650  -11.6560 C   0  0  0  0  0  0  0  0  0  0  0  0
    7.7450  -16.4270   -9.1080 C   0  0  0  0  0  0  0  0  0  0  0  0
    7.2960  -16.7530   -7.6600 C   0  0  0  0  0  0  0  0  0  0  0  0
    8.1620  -16.0280   -6.6400 N   0  0  0  0  0  0  0  0  0  0  0  0
    7.8470  -16.3970   -5.1910 C   0  0  0  0  0  0  0  0  0  0  0  0
    9.0010  -15.9120   -4.2900 C   0  0  1  0  0  0  0  0  0  0  0  0
    8.6620  -16.3240   -2.9420 O   0  0  0  0  0  0  0  0  0  0  0  0
   10.3940  -16.4640   -4.6480 C   0  0  0  0  0  0  0  0  0  0  0  0
   11.4230  -15.4050   -5.0960 C   0  0  1  0  0  0  0  0  0  0  0  0
   12.6480  -15.3880   -4.1620 C   0  0  0  0  0  0  0  0  0  0  0  0
   12.9310  -14.0250   -3.5820 C   0  0  0  0  0  0  0  0  0  0  0  0
   12.1190  -13.4990   -2.5670 C   0  0  0  0  0  0  0  0  0  0  0  0
   12.3920  -12.2450   -2.0200 C   0  0  0  0  0  0  0  0  0  0  0  0
   13.4750  -11.5010   -2.4830 C   0  0  0  0  0  0  0  0  0  0  0  0
   14.2840  -12.0100   -3.4960 C   0  0  0  0  0  0  0  0  0  0  0  0
   14.0140  -13.2630   -4.0450 C   0  0  0  0  0  0  0  0  0  0  0  0
   11.8060  -15.6500   -6.5570 C   0  0  0  0  0  0  0  0  0  0  0  0
   11.1670  -16.4500   -7.2400 O   0  0  0  0  0  0  0  0  0  0  0  0
   12.9790  -15.0850   -6.9850 N   0  0  0  0  0  0  0  0  0  0  0  0
   13.4270  -15.2030   -8.3610 C   0  0  1  0  0  0  0  0  0  0  0  0
   13.2990  -13.9090   -9.1220 C   0  0  0  0  0  0  0  0  0  0  0  0
   12.2390  -13.0110   -9.1340 C   0  0  0  0  0  0  0  0  0  0  0  0
   12.3270  -11.8870   -9.9590 C   0  0  0  0  0  0  0  0  0  0  0  0
   13.4500  -11.6820  -10.7730 C   0  0  0  0  0  0  0  0  0  0  0  0
   14.4980  -12.6020  -10.7810 C   0  0  0  0  0  0  0  0  0  0  0  0
   14.4110  -13.7070   -9.9520 C   0  0  0  0  0  0  0  0  0  0  0  0
   15.3810  -14.8460   -9.8540 C   0  0  0  0  0  0  0  0  0  0  0  0
   14.9570  -15.4870   -8.5200 C   0  0  1  0  0  0  0  0  0  0  0  0
   15.7450  -14.9120   -7.4420 O   0  0  0  0  0  0  0  0  0  0  0  0
    5.2061  -12.5293   -2.9807 H   0  0  0  0  0  0  0  0  0  0  0  0
    6.3180  -11.4302   -3.8652 H   0  0  0  0  0  0  0  0  0  0  0  0
    4.5505  -11.1100   -3.8652 H   0  0  0  0  0  0  0  0  0  0  0  0
    4.1515  -10.9715   -5.8365 H   0  0  0  0  0  0  0  0  0  0  0  0
    5.4978  -11.5233   -6.8899 H   0  0  0  0  0  0  0  0  0  0  0  0
    3.9358  -12.4105   -6.8899 H   0  0  0  0  0  0  0  0  0  0  0  0
    4.0398  -13.9898   -3.7570 H   0  0  0  0  0  0  0  0  0  0  0  0
    3.1762  -13.6038   -5.2841 H   0  0  0  0  0  0  0  0  0  0  0  0
    4.5034  -14.8143   -5.2841 H   0  0  0  0  0  0  0  0  0  0  0  0
    7.1560  -13.3760   -4.7160 H   0  0  0  0  0  0  0  0  0  0  0  0
    8.8683  -14.0614   -6.0885 H   0  0  0  0  0  0  0  0  0  0  0  0
    8.6580  -13.1214   -8.4858 H   0  0  0  0  0  0  0  0  0  0  0  0
    9.7306  -14.5789   -8.3911 H   0  0  0  0  0  0  0  0  0  0  0  0
    6.8730  -14.5390   -9.2160 H   0  0  0  0  0  0  0  0  0  0  0  0
    9.2268  -14.9444  -10.9732 H   0  0  0  0  0  0  0  0  0  0  0  0
    7.4639  -14.9818  -11.4384 H   0  0  0  0  0  0  0  0  0  0  0  0
    6.3084  -12.6817  -10.0755 H   0  0  0  0  0  0  0  0  0  0  0  0
    6.3918  -10.2224  -10.5716 H   0  0  0  0  0  0  0  0  0  0  0  0
    8.3431   -9.3092  -11.7834 H   0  0  0  0  0  0  0  0  0  0  0  0
   10.1595  -13.0921  -11.9385 H   0  0  0  0  0  0  0  0  0  0  0  0
    7.0171  -16.8567   -9.8120 H   0  0  0  0  0  0  0  0  0  0  0  0
    8.7451  -16.8586   -9.2617 H   0  0  0  0  0  0  0  0  0  0  0  0
    6.2495  -16.4401   -7.5296 H   0  0  0  0  0  0  0  0  0  0  0  0
    7.3994  -17.8361   -7.4983 H   0  0  0  0  0  0  0  0  0  0  0  0
    9.1260  -16.4140   -6.7250 H   0  0  0  0  0  0  0  0  0  0  0  0
    6.9088  -15.9128   -4.8822 H   0  0  0  0  0  0  0  0  0  0  0  0
    7.7359  -17.4876   -5.0998 H   0  0  0  0  0  0  0  0  0  0  0  0
    9.0896  -14.8232   -4.4189 H   0  0  0  0  0  0  0  0  0  0  0  0
    9.5010  -16.5810   -2.5010 H   0  0  0  0  0  0  0  0  0  0  0  0
   10.7959  -16.9757   -3.7611 H   0  0  0  0  0  0  0  0  0  0  0  0
   10.2466  -17.1314   -5.5099 H   0  0  0  0  0  0  0  0  0  0  0  0
   10.9698  -14.4051   -5.0263 H   0  0  0  0  0  0  0  0  0  0  0  0
   12.4671  -16.0899   -3.3346 H   0  0  0  0  0  0  0  0  0  0  0  0
   13.5228  -15.6766   -4.7632 H   0  0  0  0  0  0  0  0  0  0  0  0
   11.2601  -14.0796   -2.1992 H   0  0  0  0  0  0  0  0  0  0  0  0
   11.7509  -11.8429   -1.2216 H   0  0  0  0  0  0  0  0  0  0  0  0
   13.6908  -10.5134   -2.0493 H   0  0  0  0  0  0  0  0  0  0  0  0
   15.1379  -11.4222   -3.8638 H   0  0  0  0  0  0  0  0  0  0  0  0
   14.6551  -13.6570   -4.8473 H   0  0  0  0  0  0  0  0  0  0  0  0
   13.4680  -14.4240   -6.3960 H   0  0  0  0  0  0  0  0  0  0  0  0
   12.7944  -16.0238   -8.7300 H   0  0  0  0  0  0  0  0  0  0  0  0
   11.3506  -13.1811   -8.5081 H   0  0  0  0  0  0  0  0  0  0  0  0
   11.5062  -11.1548   -9.9701 H   0  0  0  0  0  0  0  0  0  0  0  0
   13.5049  -10.7876  -11.4110 H   0  0  0  0  0  0  0  0  0  0  0  0
   15.3730  -12.4531  -11.4307 H   0  0  0  0  0  0  0  0  0  0  0  0
   15.2648  -15.5476  -10.6932 H   0  0  0  0  0  0  0  0  0  0  0  0
   16.4378  -14.5433   -9.8933 H   0  0  0  0  0  0  0  0  0  0  0  0
   15.1326  -16.5726   -8.4945 H   0  0  0  0  0  0  0  0  0  0  0  0
   15.0910  -14.4170   -6.9060 H   0  0  0  0  0  0  0  0  0  0  0  0
  1  2  1  0
  2  3  1  0
  2  4  1  0
  2  5  1  0
  5  6  1  0
  6  7  2  0
  6  8  1  0
  8  9  1  0
  9 10  1  0
 10 11  1  0
 11 12  1  0
 12 13  2  0
 13 14  1  0
 14 15  2  0
 15 16  1  0
 16 17  2  0
 10 18  1  0
 18 19  1  0
 19 20  1  0
 20 21  1  0
 21 22  1  0
 22 23  1  0
 22 24  1  0
 24 25  1  0
 25 26  1  0
 26 27  1  0
 27 28  2  0
 28 29  1  0
 29 30  2  0
 30 31  1  0
 31 32  2  0
 25 33  1  0
 33 34  2  0
 33 35  1  0
 35 36  1  0
 36 37  1  0
 37 38  2  0
 38 39  1  0
 39 40  2  0
 40 41  1  0
 41 42  2  0
 42 43  1  0
 43 44  1  0
 44 45  1  0
 20  8  1  0
 32 27  1  0
 44 36  1  0
 17 12  1  0
 42 37  1  0
  1 46  1  0
  1 47  1  0
  1 48  1  0
  3 49  1  0
  3 50  1  0
  3 51  1  0
  4 52  1  0
  4 53  1  0
  4 54  1  0
  5 55  1  0
  8 56  1  1
  9 57  1  0
  9 58  1  0
 10 59  1  0
 11 60  1  0
 11 61  1  0
 13 62  1  0
 14 63  1  0
 15 64  1  0
 17 65  1  0
 18 66  1  0
 18 67  1  0
 19 68  1  0
 19 69  1  0
 20 70  1  0
 21 71  1  0
 21 72  1  0
 22 73  1  1
 23 74  1  0
 24 75  1  0
 24 76  1  0
 25 77  1  6
 26 78  1  0
 26 79  1  0
 28 80  1  0
 29 81  1  0
 30 82  1  0
 31 83  1  0
 32 84  1  0
 35 85  1  0
 36 86  1  6
 38 87  1  0
 39 88  1  0
 40 89  1  0
 41 90  1  0
 43 91  1  0
 43 92  1  0
 44 93  1  6
 45 94  1  0
M  CHG  2  10   1  20   1
M  END
>  <meeko>  (2) 
{"is_sidechain": [false], "free_energy": -8.976, "intermolecular_energy": -14.481, "internal_energy": -2.675}

$$$$
REF_CHEMBL115__M_PUB_ALL__e8__s20260927
     RDKit          3D

 94 98  0  0  0  0  0  0  0  0999 V2000
    4.5500  -16.5630   -2.2580 C   0  0  0  0  0  0  0  0  0  0  0  0
    5.8630  -16.3130   -1.4960 C   0  0  0  0  0  0  0  0  0  0  0  0
    6.9010  -17.3360   -1.9880 C   0  0  0  0  0  0  0  0  0  0  0  0
    5.5970  -16.5060    0.0050 C   0  0  0  0  0  0  0  0  0  0  0  0
    6.3130  -14.9260   -1.7660 N   0  0  0  0  0  0  0  0  0  0  0  0
    7.3420  -14.3040   -1.1080 C   0  0  0  0  0  0  0  0  0  0  0  0
    8.0030  -14.8130   -0.1990 O   0  0  0  0  0  0  0  0  0  0  0  0
    7.6110  -12.8320   -1.4730 C   0  0  2  0  0  0  0  0  0  0  0  0
    9.1570  -12.6300   -1.4880 C   0  0  0  0  0  0  0  0  0  0  0  0
    9.7620  -12.8020   -0.0880 N   0  0  0  0  0  0  0  0  0  0  0  0
   11.2800  -12.7420   -0.1050 C   0  0  0  0  0  0  0  0  0  0  0  0
   11.8970  -13.7660   -1.0040 C   0  0  0  0  0  0  0  0  0  0  0  0
   12.4410  -13.4250   -2.2490 C   0  0  0  0  0  0  0  0  0  0  0  0
   12.9670  -14.4220   -3.0680 C   0  0  0  0  0  0  0  0  0  0  0  0
   12.9230  -15.7310   -2.6210 C   0  0  0  0  0  0  0  0  0  0  0  0
   12.3990  -16.0880   -1.4290 N   0  0  0  0  0  0  0  0  0  0  0  0
   11.9250  -15.1070   -0.6390 C   0  0  0  0  0  0  0  0  0  0  0  0
    9.1210  -11.8880    0.9510 C   0  0  0  0  0  0  0  0  0  0  0  0
    7.5760  -12.0280    0.9640 C   0  0  0  0  0  0  0  0  0  0  0  0
    6.9970  -11.8580   -0.4330 N   0  0  0  0  0  0  0  0  0  0  0  0
    5.4700  -11.8690   -0.4720 C   0  0  0  0  0  0  0  0  0  0  0  0
    4.9420  -12.5460    0.8100 C   0  0  1  0  0  0  0  0  0  0  0  0
    4.4670  -11.4760    1.6650 O   0  0  0  0  0  0  0  0  0  0  0  0
    3.8030  -13.5620    0.5990 C   0  0  0  0  0  0  0  0  0  0  0  0
    2.5860  -13.0270   -0.1830 C   0  0  1  0  0  0  0  0  0  0  0  0
    2.5240  -13.6330   -1.5990 C   0  0  0  0  0  0  0  0  0  0  0  0
    2.8100  -12.6280   -2.6860 C   0  0  0  0  0  0  0  0  0  0  0  0
    2.4170  -11.2890   -2.5420 C   0  0  0  0  0  0  0  0  0  0  0  0
    2.6970  -10.3570   -3.5410 C   0  0  0  0  0  0  0  0  0  0  0  0
    3.3670  -10.7500   -4.6970 C   0  0  0  0  0  0  0  0  0  0  0  0
    3.7550  -12.0790   -4.8560 C   0  0  0  0  0  0  0  0  0  0  0  0
    3.4770  -13.0140   -3.8580 C   0  0  0  0  0  0  0  0  0  0  0  0
    1.3080  -13.2850    0.6180 C   0  0  0  0  0  0  0  0  0  0  0  0
    1.3750  -13.6960    1.7770 O   0  0  0  0  0  0  0  0  0  0  0  0
    0.1280  -13.2130   -0.0730 N   0  0  0  0  0  0  0  0  0  0  0  0
   -1.1550  -13.3890    0.5840 C   0  0  1  0  0  0  0  0  0  0  0  0
   -2.1380  -12.3030    0.2310 C   0  0  0  0  0  0  0  0  0  0  0  0
   -1.9260  -10.9330    0.1520 C   0  0  0  0  0  0  0  0  0  0  0  0
   -3.0090  -10.1070   -0.1570 C   0  0  0  0  0  0  0  0  0  0  0  0
   -4.2870  -10.6480   -0.3610 C   0  0  0  0  0  0  0  0  0  0  0  0
   -4.5020  -12.0210   -0.2510 C   0  0  0  0  0  0  0  0  0  0  0  0
   -3.4220  -12.8360    0.0420 C   0  0  0  0  0  0  0  0  0  0  0  0
   -3.4390  -14.3170    0.2730 C   0  0  0  0  0  0  0  0  0  0  0  0
   -1.9460  -14.6610    0.1300 C   0  0  1  0  0  0  0  0  0  0  0  0
   -1.6700  -15.0240   -1.2500 O   0  0  0  0  0  0  0  0  0  0  0  0
    3.7325  -16.7187   -1.5386 H   0  0  0  0  0  0  0  0  0  0  0  0
    4.3214  -15.6922   -2.8901 H   0  0  0  0  0  0  0  0  0  0  0  0
    4.6574  -17.4568   -2.8901 H   0  0  0  0  0  0  0  0  0  0  0  0
    7.3847  -17.8127   -1.1227 H   0  0  0  0  0  0  0  0  0  0  0  0
    6.3999  -18.1031   -2.5966 H   0  0  0  0  0  0  0  0  0  0  0  0
    7.6607  -16.8237   -2.5966 H   0  0  0  0  0  0  0  0  0  0  0  0
    6.3535  -15.9571    0.5850 H   0  0  0  0  0  0  0  0  0  0  0  0
    4.5961  -16.1226    0.2523 H   0  0  0  0  0  0  0  0  0  0  0  0
    5.6510  -17.5765    0.2523 H   0  0  0  0  0  0  0  0  0  0  0  0
    5.7710  -14.4220   -2.4670 H   0  0  0  0  0  0  0  0  0  0  0  0
    7.1529  -12.6162   -2.4495 H   0  0  0  0  0  0  0  0  0  0  0  0
    9.6074  -13.3707   -2.1652 H   0  0  0  0  0  0  0  0  0  0  0  0
    9.3673  -11.6061   -1.8307 H   0  0  0  0  0  0  0  0  0  0  0  0
    9.5320  -13.7820    0.1910 H   0  0  0  0  0  0  0  0  0  0  0  0
   11.5872  -11.7433   -0.4490 H   0  0  0  0  0  0  0  0  0  0  0  0
   11.6283  -12.9502    0.9174 H   0  0  0  0  0  0  0  0  0  0  0  0
   12.4529  -12.3755   -2.5784 H   0  0  0  0  0  0  0  0  0  0  0  0
   13.4064  -14.1748   -4.0457 H   0  0  0  0  0  0  0  0  0  0  0  0
   13.3351  -16.5190   -3.2685 H   0  0  0  0  0  0  0  0  0  0  0  0
   11.5373  -15.3823    0.3529 H   0  0  0  0  0  0  0  0  0  0  0  0
    9.5110  -12.1504    1.9455 H   0  0  0  0  0  0  0  0  0  0  0  0
    9.3687  -10.8480    0.6919 H   0  0  0  0  0  0  0  0  0  0  0  0
    7.3091  -13.0251    1.3443 H   0  0  0  0  0  0  0  0  0  0  0  0
    7.1602  -11.2422    1.6117 H   0  0  0  0  0  0  0  0  0  0  0  0
    7.1840  -10.8770   -0.7260 H   0  0  0  0  0  0  0  0  0  0  0  0
    5.0946  -10.8364   -0.5257 H   0  0  0  0  0  0  0  0  0  0  0  0
    5.1238  -12.4242   -1.3562 H   0  0  0  0  0  0  0  0  0  0  0  0
    5.7660  -13.1344    1.2399 H   0  0  0  0  0  0  0  0  0  0  0  0
    5.0820  -11.4250    2.4300 H   0  0  0  0  0  0  0  0  0  0  0  0
    4.2111  -14.4219    0.0477 H   0  0  0  0  0  0  0  0  0  0  0  0
    3.4332  -13.8205    1.6022 H   0  0  0  0  0  0  0  0  0  0  0  0
    2.6893  -11.9401   -0.3168 H   0  0  0  0  0  0  0  0  0  0  0  0
    3.2662  -14.4421   -1.6663 H   0  0  0  0  0  0  0  0  0  0  0  0
    1.4988  -14.0004   -1.7537 H   0  0  0  0  0  0  0  0  0  0  0  0
    1.8837  -10.9716   -1.6338 H   0  0  0  0  0  0  0  0  0  0  0  0
    2.3879   -9.3088   -3.4156 H   0  0  0  0  0  0  0  0  0  0  0  0
    3.5894  -10.0130   -5.4828 H   0  0  0  0  0  0  0  0  0  0  0  0
    4.2814  -12.3916   -5.7699 H   0  0  0  0  0  0  0  0  0  0  0  0
    3.7834  -14.0620   -3.9915 H   0  0  0  0  0  0  0  0  0  0  0  0
    0.1150  -12.8600   -1.0200 H   0  0  0  0  0  0  0  0  0  0  0  0
   -0.8578  -13.4207    1.6426 H   0  0  0  0  0  0  0  0  0  0  0  0
   -0.9271  -10.5076    0.3289 H   0  0  0  0  0  0  0  0  0  0  0  0
   -2.8582   -9.0207   -0.2413 H   0  0  0  0  0  0  0  0  0  0  0  0
   -5.1271   -9.9829   -0.6100 H   0  0  0  0  0  0  0  0  0  0  0  0
   -5.5062  -12.4468   -0.3937 H   0  0  0  0  0  0  0  0  0  0  0  0
   -3.8148  -14.5638    1.2769 H   0  0  0  0  0  0  0  0  0  0  0  0
   -4.0971  -14.8724   -0.4115 H   0  0  0  0  0  0  0  0  0  0  0  0
   -1.6458  -15.5197    0.7485 H   0  0  0  0  0  0  0  0  0  0  0  0
   -2.4520  -15.5490   -1.5200 H   0  0  0  0  0  0  0  0  0  0  0  0
  1  2  1  0
  2  3  1  0
  2  4  1  0
  2  5  1  0
  5  6  1  0
  6  7  2  0
  6  8  1  0
  8  9  1  0
  9 10  1  0
 10 11  1  0
 11 12  1  0
 12 13  2  0
 13 14  1  0
 14 15  2  0
 15 16  1  0
 16 17  2  0
 10 18  1  0
 18 19  1  0
 19 20  1  0
 20 21  1  0
 21 22  1  0
 22 23  1  0
 22 24  1  0
 24 25  1  0
 25 26  1  0
 26 27  1  0
 27 28  2  0
 28 29  1  0
 29 30  2  0
 30 31  1  0
 31 32  2  0
 25 33  1  0
 33 34  2  0
 33 35  1  0
 35 36  1  0
 36 37  1  0
 37 38  2  0
 38 39  1  0
 39 40  2  0
 40 41  1  0
 41 42  2  0
 42 43  1  0
 43 44  1  0
 44 45  1  0
 20  8  1  0
 32 27  1  0
 44 36  1  0
 17 12  1  0
 42 37  1  0
  1 46  1  0
  1 47  1  0
  1 48  1  0
  3 49  1  0
  3 50  1  0
  3 51  1  0
  4 52  1  0
  4 53  1  0
  4 54  1  0
  5 55  1  0
  8 56  1  6
  9 57  1  0
  9 58  1  0
 10 59  1  0
 11 60  1  0
 11 61  1  0
 13 62  1  0
 14 63  1  0
 15 64  1  0
 17 65  1  0
 18 66  1  0
 18 67  1  0
 19 68  1  0
 19 69  1  0
 20 70  1  0
 21 71  1  0
 21 72  1  0
 22 73  1  1
 23 74  1  0
 24 75  1  0
 24 76  1  0
 25 77  1  6
 26 78  1  0
 26 79  1  0
 28 80  1  0
 29 81  1  0
 30 82  1  0
 31 83  1  0
 32 84  1  0
 35 85  1  0
 36 86  1  1
 38 87  1  0
 39 88  1  0
 40 89  1  0
 41 90  1  0
 43 91  1  0
 43 92  1  0
 44 93  1  1
 45 94  1  0
M  CHG  2  10   1  20   1
M  END
>  <meeko>  (3) 
{"is_sidechain": [false], "free_energy": -8.877, "intermolecular_energy": -14.958, "internal_energy": -2.025}

$$$$
REF_CHEMBL115__M_PUB_ALL__e8__s20260927
     RDKit          3D

 94 98  0  0  0  0  0  0  0  0999 V2000
    5.8260  -17.4380    0.2280 C   0  0  0  0  0  0  0  0  0  0  0  0
    4.3340  -17.5330    0.5900 C   0  0  0  0  0  0  0  0  0  0  0  0
    4.1590  -18.6870    1.5900 C   0  0  0  0  0  0  0  0  0  0  0  0
    3.5400  -17.8180   -0.6950 C   0  0  0  0  0  0  0  0  0  0  0  0
    3.9060  -16.2440    1.1850 N   0  0  0  0  0  0  0  0  0  0  0  0
    2.6550  -16.0020    1.6900 C   0  0  0  0  0  0  0  0  0  0  0  0
    1.7300  -16.8180    1.6930 O   0  0  0  0  0  0  0  0  0  0  0  0
    2.3740  -14.5740    2.1950 C   0  0  2  0  0  0  0  0  0  0  0  0
    0.8370  -14.4560    2.4290 C   0  0  0  0  0  0  0  0  0  0  0  0
    0.0560  -14.5660    1.1120 N   0  0  0  0  0  0  0  0  0  0  0  0
   -1.4480  -14.5880    1.3340 C   0  0  0  0  0  0  0  0  0  0  0  0
   -1.9270  -15.8530    1.9730 C   0  0  0  0  0  0  0  0  0  0  0  0
   -2.8060  -15.8430    3.0640 C   0  0  0  0  0  0  0  0  0  0  0  0
   -3.1900  -17.0480    3.6490 C   0  0  0  0  0  0  0  0  0  0  0  0
   -2.6750  -18.2240    3.1330 C   0  0  0  0  0  0  0  0  0  0  0  0
   -1.8220  -18.2620    2.0890 N   0  0  0  0  0  0  0  0  0  0  0  0
   -1.4870  -17.0900    1.5160 C   0  0  0  0  0  0  0  0  0  0  0  0
    0.5090  -13.5510    0.0670 C   0  0  0  0  0  0  0  0  0  0  0  0
    2.0430  -13.6070   -0.1600 C   0  0  0  0  0  0  0  0  0  0  0  0
    2.7970  -13.5010    1.1570 N   0  0  0  0  0  0  0  0  0  0  0  0
    4.3150  -13.4330    0.9930 C   0  0  0  0  0  0  0  0  0  0  0  0
    4.8440  -12.1950    1.7480 C   0  0  1  0  0  0  0  0  0  0  0  0
    5.2130  -12.6560    3.0710 O   0  0  0  0  0  0  0  0  0  0  0  0
    6.0570  -11.4980    1.1030 C   0  0  0  0  0  0  0  0  0  0  0  0
    6.5340  -12.1140   -0.2290 C   0  0  1  0  0  0  0  0  0  0  0  0
    6.5470  -11.0620   -1.3560 C   0  0  0  0  0  0  0  0  0  0  0  0
    5.8110  -11.5110   -2.5930 C   0  0  0  0  0  0  0  0  0  0  0  0
    4.4170  -11.3880   -2.6790 C   0  0  0  0  0  0  0  0  0  0  0  0
    3.7400  -11.7890   -3.8310 C   0  0  0  0  0  0  0  0  0  0  0  0
    4.4460  -12.3210   -4.9080 C   0  0  0  0  0  0  0  0  0  0  0  0
    5.8310  -12.4560   -4.8310 C   0  0  0  0  0  0  0  0  0  0  0  0
    6.5110  -12.0560   -3.6810 C   0  0  0  0  0  0  0  0  0  0  0  0
    7.9000  -12.7730   -0.0300 C   0  0  0  0  0  0  0  0  0  0  0  0
    7.9830  -13.8850    0.4910 O   0  0  0  0  0  0  0  0  0  0  0  0
    8.9980  -11.9940   -0.2850 N   0  0  0  0  0  0  0  0  0  0  0  0
   10.3480  -12.5170   -0.1810 C   0  0  1  0  0  0  0  0  0  0  0  0
   11.1400  -12.3270   -1.4490 C   0  0  0  0  0  0  0  0  0  0  0  0
   10.7400  -12.5420   -2.7610 C   0  0  0  0  0  0  0  0  0  0  0  0
   11.6690  -12.3370   -3.7840 C   0  0  0  0  0  0  0  0  0  0  0  0
   12.9830  -11.9450   -3.4890 C   0  0  0  0  0  0  0  0  0  0  0  0
   13.3900  -11.7610   -2.1680 C   0  0  0  0  0  0  0  0  0  0  0  0
   12.4600  -11.9520   -1.1600 C   0  0  0  0  0  0  0  0  0  0  0  0
   12.6970  -11.8760    0.3180 C   0  0  0  0  0  0  0  0  0  0  0  0
   11.2560  -11.7640    0.8480 C   0  0  1  0  0  0  0  0  0  0  0  0
   10.9030  -10.3600    0.9780 O   0  0  0  0  0  0  0  0  0  0  0  0
    6.4252  -17.3998    1.1497 H   0  0  0  0  0  0  0  0  0  0  0  0
    6.1169  -18.3194   -0.3623 H   0  0  0  0  0  0  0  0  0  0  0  0
    6.0028  -16.5268   -0.3623 H   0  0  0  0  0  0  0  0  0  0  0  0
    4.2184  -18.2952    2.6161 H   0  0  0  0  0  0  0  0  0  0  0  0
    3.1787  -19.1612    1.4348 H   0  0  0  0  0  0  0  0  0  0  0  0
    4.9547  -19.4305    1.4348 H   0  0  0  0  0  0  0  0  0  0  0  0
    2.5346  -18.1789   -0.4324 H   0  0  0  0  0  0  0  0  0  0  0  0
    3.4552  -16.8942   -1.2861 H   0  0  0  0  0  0  0  0  0  0  0  0
    4.0620  -18.5849   -1.2861 H   0  0  0  0  0  0  0  0  0  0  0  0
    4.6040  -15.5020    1.1620 H   0  0  0  0  0  0  0  0  0  0  0  0
    2.9509  -14.4003    3.1153 H   0  0  0  0  0  0  0  0  0  0  0  0
    0.5154  -15.2632    3.1035 H   0  0  0  0  0  0  0  0  0  0  0  0
    0.6304  -13.4700    2.8708 H   0  0  0  0  0  0  0  0  0  0  0  0
    0.2880  -15.5110    0.7340 H   0  0  0  0  0  0  0  0  0  0  0  0
   -1.7186  -13.7429    1.9840 H   0  0  0  0  0  0  0  0  0  0  0  0
   -1.9271  -14.5169    0.3464 H   0  0  0  0  0  0  0  0  0  0  0  0
   -3.1905  -14.8900    3.4563 H   0  0  0  0  0  0  0  0  0  0  0  0
   -3.8860  -17.0639    4.5007 H   0  0  0  0  0  0  0  0  0  0  0  0
   -2.9761  -19.1748    3.5971 H   0  0  0  0  0  0  0  0  0  0  0  0
   -0.8274  -17.1129    0.6360 H   0  0  0  0  0  0  0  0  0  0  0  0
   -0.0002  -13.7668   -0.8839 H   0  0  0  0  0  0  0  0  0  0  0  0
    0.2528  -12.5454    0.4319 H   0  0  0  0  0  0  0  0  0  0  0  0
    2.2996  -14.5604   -0.6449 H   0  0  0  0  0  0  0  0  0  0  0  0
    2.3326  -12.7583   -0.7971 H   0  0  0  0  0  0  0  0  0  0  0  0
    2.6100  -12.5530    1.5440 H   0  0  0  0  0  0  0  0  0  0  0  0
    4.7726  -14.3427    1.4090 H   0  0  0  0  0  0  0  0  0  0  0  0
    4.5718  -13.3570   -0.0739 H   0  0  0  0  0  0  0  0  0  0  0  0
    4.0484  -11.4354    1.7419 H   0  0  0  0  0  0  0  0  0  0  0  0
    6.0890  -12.2610    3.2790 H   0  0  0  0  0  0  0  0  0  0  0  0
    5.7869  -10.4483    0.9156 H   0  0  0  0  0  0  0  0  0  0  0  0
    6.8905  -11.6162    1.8110 H   0  0  0  0  0  0  0  0  0  0  0  0
    5.8244  -12.8936   -0.5432 H   0  0  0  0  0  0  0  0  0  0  0  0
    6.0739  -10.1422   -0.9817 H   0  0  0  0  0  0  0  0  0  0  0  0
    7.5970  -10.8989   -1.6403 H   0  0  0  0  0  0  0  0  0  0  0  0
    3.8526  -10.9720   -1.8314 H   0  0  0  0  0  0  0  0  0  0  0  0
    2.6465  -11.6850   -3.8892 H   0  0  0  0  0  0  0  0  0  0  0  0
    3.9114  -12.6338   -5.8171 H   0  0  0  0  0  0  0  0  0  0  0  0
    6.3891  -12.8790   -5.6793 H   0  0  0  0  0  0  0  0  0  0  0  0
    7.6039  -12.1684   -3.6260 H   0  0  0  0  0  0  0  0  0  0  0  0
    8.8870  -11.0890   -0.7230 H   0  0  0  0  0  0  0  0  0  0  0  0
   10.1580  -13.5645    0.0958 H   0  0  0  0  0  0  0  0  0  0  0  0
    9.7142  -12.8666   -2.9899 H   0  0  0  0  0  0  0  0  0  0  0  0
   11.3670  -12.4845   -4.8314 H   0  0  0  0  0  0  0  0  0  0  0  0
   13.6993  -11.7811   -4.3075 H   0  0  0  0  0  0  0  0  0  0  0  0
   14.4247  -11.4712   -1.9324 H   0  0  0  0  0  0  0  0  0  0  0  0
   13.1950  -12.7822    0.6933 H   0  0  0  0  0  0  0  0  0  0  0  0
   13.3565  -11.0517    0.6271 H   0  0  0  0  0  0  0  0  0  0  0  0
   11.1325  -12.2140    1.8441 H   0  0  0  0  0  0  0  0  0  0  0  0
   10.4240  -10.3120    1.8320 H   0  0  0  0  0  0  0  0  0  0  0  0
  1  2  1  0
  2  3  1  0
  2  4  1  0
  2  5  1  0
  5  6  1  0
  6  7  2  0
  6  8  1  0
  8  9  1  0
  9 10  1  0
 10 11  1  0
 11 12  1  0
 12 13  2  0
 13 14  1  0
 14 15  2  0
 15 16  1  0
 16 17  2  0
 10 18  1  0
 18 19  1  0
 19 20  1  0
 20 21  1  0
 21 22  1  0
 22 23  1  0
 22 24  1  0
 24 25  1  0
 25 26  1  0
 26 27  1  0
 27 28  2  0
 28 29  1  0
 29 30  2  0
 30 31  1  0
 31 32  2  0
 25 33  1  0
 33 34  2  0
 33 35  1  0
 35 36  1  0
 36 37  1  0
 37 38  2  0
 38 39  1  0
 39 40  2  0
 40 41  1  0
 41 42  2  0
 42 43  1  0
 43 44  1  0
 44 45  1  0
 20  8  1  0
 32 27  1  0
 44 36  1  0
 17 12  1  0
 42 37  1  0
  1 46  1  0
  1 47  1  0
  1 48  1  0
  3 49  1  0
  3 50  1  0
  3 51  1  0
  4 52  1  0
  4 53  1  0
  4 54  1  0
  5 55  1  0
  8 56  1  1
  9 57  1  0
  9 58  1  0
 10 59  1  0
 11 60  1  0
 11 61  1  0
 13 62  1  0
 14 63  1  0
 15 64  1  0
 17 65  1  0
 18 66  1  0
 18 67  1  0
 19 68  1  0
 19 69  1  0
 20 70  1  0
 21 71  1  0
 21 72  1  0
 22 73  1  1
 23 74  1  0
 24 75  1  0
 24 76  1  0
 25 77  1  6
 26 78  1  0
 26 79  1  0
 28 80  1  0
 29 81  1  0
 30 82  1  0
 31 83  1  0
 32 84  1  0
 35 85  1  0
 36 86  1  1
 38 87  1  0
 39 88  1  0
 40 89  1  0
 41 90  1  0
 43 91  1  0
 43 92  1  0
 44 93  1  1
 45 94  1  0
M  CHG  2  10   1  20   1
M  END
>  <meeko>  (4) 
{"is_sidechain": [false], "free_energy": -8.875, "intermolecular_energy": -15.186, "internal_energy": -1.791}

$$$$
REF_CHEMBL115__M_PUB_ALL__e8__s20260927
     RDKit          3D

 94 98  0  0  0  0  0  0  0  0999 V2000
    2.4630  -17.0310   -1.1130 C   0  0  0  0  0  0  0  0  0  0  0  0
    1.2210  -16.1570   -0.8650 C   0  0  0  0  0  0  0  0  0  0  0  0
    0.0780  -17.0750   -0.4020 C   0  0  0  0  0  0  0  0  0  0  0  0
    0.8450  -15.4610   -2.1820 C   0  0  0  0  0  0  0  0  0  0  0  0
    1.5490  -15.1500    0.1750 N   0  0  0  0  0  0  0  0  0  0  0  0
    0.7660  -14.0680    0.4780 C   0  0  0  0  0  0  0  0  0  0  0  0
   -0.2950  -13.7880   -0.0880 O   0  0  0  0  0  0  0  0  0  0  0  0
    1.3120  -13.0890    1.5340 C   0  0  2  0  0  0  0  0  0  0  0  0
    0.1120  -12.2320    2.0410 C   0  0  0  0  0  0  0  0  0  0  0  0
   -0.4500  -11.3350    0.9300 N   0  0  0  0  0  0  0  0  0  0  0  0
   -1.7030  -10.5930    1.3670 C   0  0  0  0  0  0  0  0  0  0  0  0
   -2.9440  -11.4200    1.2530 C   0  0  0  0  0  0  0  0  0  0  0  0
   -3.7090  -11.4480    0.0800 C   0  0  0  0  0  0  0  0  0  0  0  0
   -4.8790  -12.2030    0.0380 C   0  0  0  0  0  0  0  0  0  0  0  0
   -5.2550  -12.8970    1.1740 C   0  0  0  0  0  0  0  0  0  0  0  0
   -4.5410  -12.8830    2.3200 N   0  0  0  0  0  0  0  0  0  0  0  0
   -3.3970  -12.1740    2.3310 C   0  0  0  0  0  0  0  0  0  0  0  0
    0.6090  -10.4370    0.3010 C   0  0  0  0  0  0  0  0  0  0  0  0
    1.8410  -11.2490   -0.1770 C   0  0  0  0  0  0  0  0  0  0  0  0
    2.3800  -12.1340    0.9380 N   0  0  0  0  0  0  0  0  0  0  0  0
    3.6650  -12.8750    0.5690 C   0  0  0  0  0  0  0  0  0  0  0  0
    4.8590  -11.9100    0.7200 C   0  0  1  0  0  0  0  0  0  0  0  0
    4.6530  -11.2060    1.9700 O   0  0  0  0  0  0  0  0  0  0  0  0
    6.2480  -12.5770    0.7430 C   0  0  0  0  0  0  0  0  0  0  0  0
    6.8960  -12.7860   -0.6410 C   0  0  1  0  0  0  0  0  0  0  0  0
    6.7910  -11.5120   -1.5030 C   0  0  0  0  0  0  0  0  0  0  0  0
    6.0290  -11.7280   -2.7860 C   0  0  0  0  0  0  0  0  0  0  0  0
    6.6610  -12.2870   -3.9060 C   0  0  0  0  0  0  0  0  0  0  0  0
    5.9500  -12.5010   -5.0870 C   0  0  0  0  0  0  0  0  0  0  0  0
    4.6030  -12.1550   -5.1650 C   0  0  0  0  0  0  0  0  0  0  0  0
    3.9660  -11.5900   -4.0620 C   0  0  0  0  0  0  0  0  0  0  0  0
    4.6740  -11.3750   -2.8790 C   0  0  0  0  0  0  0  0  0  0  0  0
    8.3420  -13.2530   -0.4640 C   0  0  0  0  0  0  0  0  0  0  0  0
    8.5960  -14.4520   -0.3430 O   0  0  0  0  0  0  0  0  0  0  0  0
    9.2810  -12.2760   -0.2670 N   0  0  0  0  0  0  0  0  0  0  0  0
   10.6940  -12.5860   -0.1360 C   0  0  1  0  0  0  0  0  0  0  0  0
   11.4630  -12.3210   -1.4040 C   0  0  0  0  0  0  0  0  0  0  0  0
   11.1160  -12.6350   -2.7110 C   0  0  0  0  0  0  0  0  0  0  0  0
   12.0160  -12.3260   -3.7330 C   0  0  0  0  0  0  0  0  0  0  0  0
   13.2530  -11.7320   -3.4430 C   0  0  0  0  0  0  0  0  0  0  0  0
   13.6110  -11.4460   -2.1260 C   0  0  0  0  0  0  0  0  0  0  0  0
   12.7090  -11.7430   -1.1180 C   0  0  0  0  0  0  0  0  0  0  0  0
   12.9140  -11.5850    0.3580 C   0  0  0  0  0  0  0  0  0  0  0  0
   11.4660  -11.6740    0.8730 C   0  0  1  0  0  0  0  0  0  0  0  0
   10.9050  -10.3350    0.9540 O   0  0  0  0  0  0  0  0  0  0  0  0
    2.8956  -17.3354   -0.1486 H   0  0  0  0  0  0  0  0  0  0  0  0
    2.1737  -17.9257   -1.6839 H   0  0  0  0  0  0  0  0  0  0  0  0
    3.2075  -16.4567   -1.6839 H   0  0  0  0  0  0  0  0  0  0  0  0
    0.0489  -17.0984    0.6974 H   0  0  0  0  0  0  0  0  0  0  0  0
   -0.8788  -16.6915   -0.7860 H   0  0  0  0  0  0  0  0  0  0  0  0
    0.2460  -18.0920   -0.7860 H   0  0  0  0  0  0  0  0  0  0  0  0
    0.3327  -14.5127   -1.9623 H   0  0  0  0  0  0  0  0  0  0  0  0
    1.7568  -15.2591   -2.7633 H   0  0  0  0  0  0  0  0  0  0  0  0
    0.1763  -16.1129   -2.7633 H   0  0  0  0  0  0  0  0  0  0  0  0
    2.4430  -15.2860    0.6440 H   0  0  0  0  0  0  0  0  0  0  0  0
    1.7856  -13.6642    2.3432 H   0  0  0  0  0  0  0  0  0  0  0  0
   -0.6836  -12.9049    2.3934 H   0  0  0  0  0  0  0  0  0  0  0  0
    0.4701  -11.5865    2.8566 H   0  0  0  0  0  0  0  0  0  0  0  0
   -0.7700  -11.9920    0.1840 H   0  0  0  0  0  0  0  0  0  0  0  0
   -1.5809  -10.2876    2.4167 H   0  0  0  0  0  0  0  0  0  0  0  0
   -1.8224   -9.7281    0.6978 H   0  0  0  0  0  0  0  0  0  0  0  0
   -3.3876  -10.8768   -0.8034 H   0  0  0  0  0  0  0  0  0  0  0  0
   -5.4890  -12.2462   -0.8763 H   0  0  0  0  0  0  0  0  0  0  0  0
   -6.1813  -13.4895    1.1422 H   0  0  0  0  0  0  0  0  0  0  0  0
   -2.7850  -12.1917    3.2448 H   0  0  0  0  0  0  0  0  0  0  0  0
    0.1682   -9.9171   -0.5623 H   0  0  0  0  0  0  0  0  0  0  0  0
    0.9466   -9.7197    1.0636 H   0  0  0  0  0  0  0  0  0  0  0  0
    1.5464  -11.8817   -1.0273 H   0  0  0  0  0  0  0  0  0  0  0  0
    2.6303  -10.5433   -0.4755 H   0  0  0  0  0  0  0  0  0  0  0  0
    2.7370  -11.5050    1.6860 H   0  0  0  0  0  0  0  0  0  0  0  0
    3.7997  -13.7369    1.2391 H   0  0  0  0  0  0  0  0  0  0  0  0
    3.6039  -13.2328   -0.4694 H   0  0  0  0  0  0  0  0  0  0  0  0
    4.8758  -11.2588   -0.1664 H   0  0  0  0  0  0  0  0  0  0  0  0
    3.9760  -11.7070    2.4740 H   0  0  0  0  0  0  0  0  0  0  0  0
    6.9199  -11.9447    1.3419 H   0  0  0  0  0  0  0  0  0  0  0  0
    6.0988  -13.5812    1.1664 H   0  0  0  0  0  0  0  0  0  0  0  0
    6.3494  -13.5712   -1.1839 H   0  0  0  0  0  0  0  0  0  0  0  0
    6.2782  -10.7345   -0.9178 H   0  0  0  0  0  0  0  0  0  0  0  0
    7.8144  -11.2144   -1.7751 H   0  0  0  0  0  0  0  0  0  0  0  0
    7.7256  -12.5588   -3.8529 H   0  0  0  0  0  0  0  0  0  0  0  0
    6.4542  -12.9439   -5.9585 H   0  0  0  0  0  0  0  0  0  0  0  0
    4.0430  -12.3275   -6.0959 H   0  0  0  0  0  0  0  0  0  0  0  0
    2.9032  -11.3130   -4.1240 H   0  0  0  0  0  0  0  0  0  0  0  0
    4.1663  -10.9255   -2.0129 H   0  0  0  0  0  0  0  0  0  0  0  0
    9.0340  -11.3030   -0.3870 H   0  0  0  0  0  0  0  0  0  0  0  0
   10.6600  -13.6406    0.1749 H   0  0  0  0  0  0  0  0  0  0  0  0
   10.1531  -13.1167   -2.9366 H   0  0  0  0  0  0  0  0  0  0  0  0
   11.7519  -12.5509   -4.7769 H   0  0  0  0  0  0  0  0  0  0  0  0
   13.9467  -11.4897   -4.2615 H   0  0  0  0  0  0  0  0  0  0  0  0
   14.5869  -10.9951   -1.8932 H   0  0  0  0  0  0  0  0  0  0  0  0
   13.5376  -12.3936    0.7671 H   0  0  0  0  0  0  0  0  0  0  0  0
   13.4387  -10.6616    0.6443 H   0  0  0  0  0  0  0  0  0  0  0  0
   11.3992  -12.1061    1.8824 H   0  0  0  0  0  0  0  0  0  0  0  0
   11.3520   -9.9350    1.7290 H   0  0  0  0  0  0  0  0  0  0  0  0
  1  2  1  0
  2  3  1  0
  2  4  1  0
  2  5  1  0
  5  6  1  0
  6  7  2  0
  6  8  1  0
  8  9  1  0
  9 10  1  0
 10 11  1  0
 11 12  1  0
 12 13  2  0
 13 14  1  0
 14 15  2  0
 15 16  1  0
 16 17  2  0
 10 18  1  0
 18 19  1  0
 19 20  1  0
 20 21  1  0
 21 22  1  0
 22 23  1  0
 22 24  1  0
 24 25  1  0
 25 26  1  0
 26 27  1  0
 27 28  2  0
 28 29  1  0
 29 30  2  0
 30 31  1  0
 31 32  2  0
 25 33  1  0
 33 34  2  0
 33 35  1  0
 35 36  1  0
 36 37  1  0
 37 38  2  0
 38 39  1  0
 39 40  2  0
 40 41  1  0
 41 42  2  0
 42 43  1  0
 43 44  1  0
 44 45  1  0
 20  8  1  0
 32 27  1  0
 44 36  1  0
 17 12  1  0
 42 37  1  0
  1 46  1  0
  1 47  1  0
  1 48  1  0
  3 49  1  0
  3 50  1  0
  3 51  1  0
  4 52  1  0
  4 53  1  0
  4 54  1  0
  5 55  1  0
  8 56  1  1
  9 57  1  0
  9 58  1  0
 10 59  1  0
 11 60  1  0
 11 61  1  0
 13 62  1  0
 14 63  1  0
 15 64  1  0
 17 65  1  0
 18 66  1  0
 18 67  1  0
 19 68  1  0
 19 69  1  0
 20 70  1  0
 21 71  1  0
 21 72  1  0
 22 73  1  6
 23 74  1  0
 24 75  1  0
 24 76  1  0
 25 77  1  6
 26 78  1  0
 26 79  1  0
 28 80  1  0
 29 81  1  0
 30 82  1  0
 31 83  1  0
 32 84  1  0
 35 85  1  0
 36 86  1  1
 38 87  1  0
 39 88  1  0
 40 89  1  0
 41 90  1  0
 43 91  1  0
 43 92  1  0
 44 93  1  1
 45 94  1  0
M  CHG  2  10   1  20   1
M  END
>  <meeko>  (5) 
{"is_sidechain": [false], "free_energy": -8.743, "intermolecular_energy": -15.123, "internal_energy": -1.623}

$$$$
REF_CHEMBL115__M_PUB_ALL__e8__s20260927
     RDKit          3D

 94 98  0  0  0  0  0  0  0  0999 V2000
    7.3380  -13.4250  -11.5570 C   0  0  0  0  0  0  0  0  0  0  0  0
    8.0740  -12.3790  -10.7020 C   0  0  0  0  0  0  0  0  0  0  0  0
    7.1460  -11.1650  -10.5310 C   0  0  0  0  0  0  0  0  0  0  0  0
    9.3590  -11.9670  -11.4370 C   0  0  0  0  0  0  0  0  0  0  0  0
    8.4030  -12.9860   -9.3880 N   0  0  0  0  0  0  0  0  0  0  0  0
    9.3070  -14.0000   -9.2090 C   0  0  0  0  0  0  0  0  0  0  0  0
    9.9400  -14.5440  -10.1180 O   0  0  0  0  0  0  0  0  0  0  0  0
    9.4550  -14.5540   -7.7800 C   0  0  2  0  0  0  0  0  0  0  0  0
   10.8760  -14.1620   -7.2730 C   0  0  0  0  0  0  0  0  0  0  0  0
   11.9770  -14.8640   -8.0800 N   0  0  0  0  0  0  0  0  0  0  0  0
   13.3680  -14.3910   -7.6890 C   0  0  0  0  0  0  0  0  0  0  0  0
   14.4250  -14.8130   -8.6610 C   0  0  0  0  0  0  0  0  0  0  0  0
   14.4260  -14.3700   -9.9900 C   0  0  0  0  0  0  0  0  0  0  0  0
   15.4100  -14.8250  -10.8660 C   0  0  0  0  0  0  0  0  0  0  0  0
   16.3540  -15.7170  -10.3890 C   0  0  0  0  0  0  0  0  0  0  0  0
   16.3720  -16.1650   -9.1170 N   0  0  0  0  0  0  0  0  0  0  0  0
   15.4330  -15.6900   -8.2770 C   0  0  0  0  0  0  0  0  0  0  0  0
   11.8240  -16.3810   -8.0960 C   0  0  0  0  0  0  0  0  0  0  0  0
   10.4050  -16.8100   -8.5530 C   0  0  0  0  0  0  0  0  0  0  0  0
    9.3290  -16.1000   -7.7440 N   0  0  0  0  0  0  0  0  0  0  0  0
    7.9090  -16.5640   -8.0650 C   0  0  0  0  0  0  0  0  0  0  0  0
    7.2380  -17.0540   -6.7650 C   0  0  1  0  0  0  0  0  0  0  0  0
    7.1030  -18.4910   -6.8970 O   0  0  0  0  0  0  0  0  0  0  0  0
    8.0070  -16.7400   -5.4670 C   0  0  0  0  0  0  0  0  0  0  0  0
    7.7200  -15.3520   -4.8570 C   0  0  1  0  0  0  0  0  0  0  0  0
    6.2150  -15.1650   -4.5800 C   0  0  0  0  0  0  0  0  0  0  0  0
    5.6220  -13.9860   -5.3090 C   0  0  0  0  0  0  0  0  0  0  0  0
    6.0250  -13.6780   -6.6160 C   0  0  0  0  0  0  0  0  0  0  0  0
    5.4630  -12.5960   -7.2940 C   0  0  0  0  0  0  0  0  0  0  0  0
    4.4960  -11.8080   -6.6750 C   0  0  0  0  0  0  0  0  0  0  0  0
    4.0930  -12.0990   -5.3740 C   0  0  0  0  0  0  0  0  0  0  0  0
    4.6530  -13.1800   -4.6920 C   0  0  0  0  0  0  0  0  0  0  0  0
    8.5730  -15.1580   -3.6010 C   0  0  0  0  0  0  0  0  0  0  0  0
    8.2720  -15.7300   -2.5530 O   0  0  0  0  0  0  0  0  0  0  0  0
    9.5460  -14.1960   -3.6650 N   0  0  0  0  0  0  0  0  0  0  0  0
   10.4530  -13.9500   -2.5580 C   0  0  1  0  0  0  0  0  0  0  0  0
   11.7620  -13.3540   -3.0050 C   0  0  0  0  0  0  0  0  0  0  0  0
   12.5560  -13.7170   -4.0850 C   0  0  0  0  0  0  0  0  0  0  0  0
   13.7630  -13.0410   -4.2820 C   0  0  0  0  0  0  0  0  0  0  0  0
   14.1730  -12.0340   -3.3960 C   0  0  0  0  0  0  0  0  0  0  0  0
   13.3880  -11.6950   -2.2950 C   0  0  0  0  0  0  0  0  0  0  0  0
   12.1860  -12.3590   -2.1130 C   0  0  0  0  0  0  0  0  0  0  0  0
   11.2280  -12.2030   -0.9710 C   0  0  0  0  0  0  0  0  0  0  0  0
    9.9620  -12.8600   -1.5490 C   0  0  1  0  0  0  0  0  0  0  0  0
    9.1440  -11.8410   -2.1860 O   0  0  0  0  0  0  0  0  0  0  0  0
    6.8309  -14.1457  -10.8986 H   0  0  0  0  0  0  0  0  0  0  0  0
    6.5939  -12.9218  -12.1919 H   0  0  0  0  0  0  0  0  0  0  0  0
    8.0630  -13.9555  -12.1919 H   0  0  0  0  0  0  0  0  0  0  0  0
    6.9947  -10.9671   -9.4596 H   0  0  0  0  0  0  0  0  0  0  0  0
    7.6032  -10.2842  -11.0056 H   0  0  0  0  0  0  0  0  0  0  0  0
    6.1761  -11.3751  -11.0056 H   0  0  0  0  0  0  0  0  0  0  0  0
   10.1380  -11.7172  -10.7016 H   0  0  0  0  0  0  0  0  0  0  0  0
    9.7037  -12.7997  -12.0678 H   0  0  0  0  0  0  0  0  0  0  0  0
    9.1552  -11.0892  -12.0678 H   0  0  0  0  0  0  0  0  0  0  0  0
    7.8710  -12.6240   -8.5980 H   0  0  0  0  0  0  0  0  0  0  0  0
    8.6566  -14.1352   -7.1498 H   0  0  0  0  0  0  0  0  0  0  0  0
   11.0017  -13.0735   -7.3692 H   0  0  0  0  0  0  0  0  0  0  0  0
   10.9656  -14.4763   -6.2227 H   0  0  0  0  0  0  0  0  0  0  0  0
   11.8460  -14.5370   -9.0630 H   0  0  0  0  0  0  0  0  0  0  0  0
   13.3617  -13.2924   -7.6333 H   0  0  0  0  0  0  0  0  0  0  0  0
   13.6108  -14.8504   -6.7195 H   0  0  0  0  0  0  0  0  0  0  0  0
   13.6552  -13.6676  -10.3399 H   0  0  0  0  0  0  0  0  0  0  0  0
   15.4355  -14.4832  -11.9112 H   0  0  0  0  0  0  0  0  0  0  0  0
   17.1283  -16.0787  -11.0816 H   0  0  0  0  0  0  0  0  0  0  0  0
   15.4653  -16.0145   -7.2265 H   0  0  0  0  0  0  0  0  0  0  0  0
   12.5653  -16.8067   -8.7882 H   0  0  0  0  0  0  0  0  0  0  0  0
   11.9814  -16.7522   -7.0726 H   0  0  0  0  0  0  0  0  0  0  0  0
   10.2791  -16.5586   -9.6164 H   0  0  0  0  0  0  0  0  0  0  0  0
   10.3010  -17.8938   -8.3961 H   0  0  0  0  0  0  0  0  0  0  0  0
    9.4150  -16.4300   -6.7600 H   0  0  0  0  0  0  0  0  0  0  0  0
    7.3328  -15.7264   -8.4850 H   0  0  0  0  0  0  0  0  0  0  0  0
    7.9412  -17.3823   -8.7994 H   0  0  0  0  0  0  0  0  0  0  0  0
    6.2822  -16.5196   -6.6611 H   0  0  0  0  0  0  0  0  0  0  0  0
    7.9930  -18.8780   -6.7490 H   0  0  0  0  0  0  0  0  0  0  0  0
    7.7408  -17.5024   -4.7201 H   0  0  0  0  0  0  0  0  0  0  0  0
    9.0741  -16.7431   -5.7341 H   0  0  0  0  0  0  0  0  0  0  0  0
    7.9988  -14.5722   -5.5811 H   0  0  0  0  0  0  0  0  0  0  0  0
    5.6849  -16.0753   -4.8968 H   0  0  0  0  0  0  0  0  0  0  0  0
    6.1006  -14.9760   -3.5024 H   0  0  0  0  0  0  0  0  0  0  0  0
    6.7902  -14.2942   -7.1107 H   0  0  0  0  0  0  0  0  0  0  0  0
    5.7846  -12.3647   -8.3202 H   0  0  0  0  0  0  0  0  0  0  0  0
    4.0514  -10.9575   -7.2125 H   0  0  0  0  0  0  0  0  0  0  0  0
    3.3315  -11.4753   -4.8829 H   0  0  0  0  0  0  0  0  0  0  0  0
    4.3326  -13.4019   -3.6634 H   0  0  0  0  0  0  0  0  0  0  0  0
    9.7690  -13.7580   -4.5480 H   0  0  0  0  0  0  0  0  0  0  0  0
   10.5283  -14.9513   -2.1088 H   0  0  0  0  0  0  0  0  0  0  0  0
   12.2419  -14.5185   -4.7698 H   0  0  0  0  0  0  0  0  0  0  0  0
   14.3985  -13.3015   -5.1413 H   0  0  0  0  0  0  0  0  0  0  0  0
   15.1225  -11.5070   -3.5715 H   0  0  0  0  0  0  0  0  0  0  0  0
   13.7153  -10.9188   -1.5876 H   0  0  0  0  0  0  0  0  0  0  0  0
   11.5819  -12.7310   -0.0733 H   0  0  0  0  0  0  0  0  0  0  0  0
   11.0858  -11.1635   -0.6405 H   0  0  0  0  0  0  0  0  0  0  0  0
    9.3358  -13.3305   -0.7767 H   0  0  0  0  0  0  0  0  0  0  0  0
    8.2370  -12.0270   -1.8650 H   0  0  0  0  0  0  0  0  0  0  0  0
  1  2  1  0
  2  3  1  0
  2  4  1  0
  2  5  1  0
  5  6  1  0
  6  7  2  0
  6  8  1  0
  8  9  1  0
  9 10  1  0
 10 11  1  0
 11 12  1  0
 12 13  2  0
 13 14  1  0
 14 15  2  0
 15 16  1  0
 16 17  2  0
 10 18  1  0
 18 19  1  0
 19 20  1  0
 20 21  1  0
 21 22  1  0
 22 23  1  0
 22 24  1  0
 24 25  1  0
 25 26  1  0
 26 27  1  0
 27 28  2  0
 28 29  1  0
 29 30  2  0
 30 31  1  0
 31 32  2  0
 25 33  1  0
 33 34  2  0
 33 35  1  0
 35 36  1  0
 36 37  1  0
 37 38  2  0
 38 39  1  0
 39 40  2  0
 40 41  1  0
 41 42  2  0
 42 43  1  0
 43 44  1  0
 44 45  1  0
 20  8  1  0
 32 27  1  0
 44 36  1  0
 17 12  1  0
 42 37  1  0
  1 46  1  0
  1 47  1  0
  1 48  1  0
  3 49  1  0
  3 50  1  0
  3 51  1  0
  4 52  1  0
  4 53  1  0
  4 54  1  0
  5 55  1  0
  8 56  1  1
  9 57  1  0
  9 58  1  0
 10 59  1  0
 11 60  1  0
 11 61  1  0
 13 62  1  0
 14 63  1  0
 15 64  1  0
 17 65  1  0
 18 66  1  0
 18 67  1  0
 19 68  1  0
 19 69  1  0
 20 70  1  0
 21 71  1  0
 21 72  1  0
 22 73  1  1
 23 74  1  0
 24 75  1  0
 24 76  1  0
 25 77  1  6
 26 78  1  0
 26 79  1  0
 28 80  1  0
 29 81  1  0
 30 82  1  0
 31 83  1  0
 32 84  1  0
 35 85  1  0
 36 86  1  1
 38 87  1  0
 39 88  1  0
 40 89  1  0
 41 90  1  0
 43 91  1  0
 43 92  1  0
 44 93  1  1
 45 94  1  0
M  CHG  2  10   1  20   1
M  END
>  <meeko>  (6) 
{"is_sidechain": [false], "free_energy": -8.713, "intermolecular_energy": -14.613, "internal_energy": -2.081}

$$$$
REF_CHEMBL115__M_PUB_ALL__e8__s20260927
     RDKit          3D

 94 98  0  0  0  0  0  0  0  0999 V2000
   -1.8180  -10.3070    0.1690 C   0  0  0  0  0  0  0  0  0  0  0  0
   -0.5250  -10.5880    0.9550 C   0  0  0  0  0  0  0  0  0  0  0  0
   -0.9100  -10.8840    2.4140 C   0  0  0  0  0  0  0  0  0  0  0  0
    0.3680   -9.3410    0.8820 C   0  0  0  0  0  0  0  0  0  0  0  0
    0.1610  -11.7500    0.3390 N   0  0  0  0  0  0  0  0  0  0  0  0
   -0.2730  -13.0460    0.4370 C   0  0  0  0  0  0  0  0  0  0  0  0
   -1.2730  -13.4060    1.0640 O   0  0  0  0  0  0  0  0  0  0  0  0
    0.6180  -14.1280   -0.2020 C   0  0  2  0  0  0  0  0  0  0  0  0
   -0.1860  -15.4630   -0.1880 C   0  0  0  0  0  0  0  0  0  0  0  0
   -0.4330  -15.9580    1.2440 N   0  0  0  0  0  0  0  0  0  0  0  0
   -1.3290  -17.1850    1.2830 C   0  0  0  0  0  0  0  0  0  0  0  0
   -2.3390  -17.1390    2.3870 C   0  0  0  0  0  0  0  0  0  0  0  0
   -2.8540  -18.3040    2.9670 C   0  0  0  0  0  0  0  0  0  0  0  0
   -3.8230  -18.2080    3.9640 C   0  0  0  0  0  0  0  0  0  0  0  0
   -4.2550  -16.9480    4.3410 C   0  0  0  0  0  0  0  0  0  0  0  0
   -3.7810  -15.8090    3.7930 N   0  0  0  0  0  0  0  0  0  0  0  0
   -2.8230  -15.9220    2.8550 C   0  0  0  0  0  0  0  0  0  0  0  0
    0.8540  -16.1080    2.0490 C   0  0  0  0  0  0  0  0  0  0  0  0
    1.7040  -14.8120    2.0200 C   0  0  0  0  0  0  0  0  0  0  0  0
    1.9340  -14.3370    0.5930 N   0  0  0  0  0  0  0  0  0  0  0  0
    2.8620  -13.1280    0.4880 C   0  0  0  0  0  0  0  0  0  0  0  0
    4.3220  -13.6060    0.6310 C   0  0  1  0  0  0  0  0  0  0  0  0
    4.4960  -14.6690   -0.3390 O   0  0  0  0  0  0  0  0  0  0  0  0
    5.3960  -12.5270    0.3900 C   0  0  0  0  0  0  0  0  0  0  0  0
    6.3170  -12.7800   -0.8220 C   0  0  1  0  0  0  0  0  0  0  0  0
    6.3880  -11.5410   -1.7350 C   0  0  0  0  0  0  0  0  0  0  0  0
    5.4840  -11.6400   -2.9380 C   0  0  0  0  0  0  0  0  0  0  0  0
    4.1730  -11.1450   -2.8890 C   0  0  0  0  0  0  0  0  0  0  0  0
    3.3440  -11.2230   -4.0080 C   0  0  0  0  0  0  0  0  0  0  0  0
    3.8120  -11.8000   -5.1860 C   0  0  0  0  0  0  0  0  0  0  0  0
    5.1090  -12.3040   -5.2450 C   0  0  0  0  0  0  0  0  0  0  0  0
    5.9420  -12.2270   -4.1280 C   0  0  0  0  0  0  0  0  0  0  0  0
    7.6970  -13.2240   -0.3320 C   0  0  0  0  0  0  0  0  0  0  0  0
    7.7990  -14.1090    0.5180 O   0  0  0  0  0  0  0  0  0  0  0  0
    8.7640  -12.4700   -0.7440 N   0  0  0  0  0  0  0  0  0  0  0  0
   10.1290  -12.8170   -0.3890 C   0  0  1  0  0  0  0  0  0  0  0  0
   11.1200  -12.4270   -1.4540 C   0  0  0  0  0  0  0  0  0  0  0  0
   11.0230  -12.5900   -2.8300 C   0  0  0  0  0  0  0  0  0  0  0  0
   12.0970  -12.1850   -3.6270 C   0  0  0  0  0  0  0  0  0  0  0  0
   13.2550  -11.6470   -3.0480 C   0  0  0  0  0  0  0  0  0  0  0  0
   13.3610  -11.5140   -1.6630 C   0  0  0  0  0  0  0  0  0  0  0  0
   12.2880  -11.9050   -0.8800 C   0  0  0  0  0  0  0  0  0  0  0  0
   12.2140  -11.9130    0.6170 C   0  0  0  0  0  0  0  0  0  0  0  0
   10.6950  -12.0340    0.8410 C   0  0  1  0  0  0  0  0  0  0  0  0
   10.1240  -10.7030    0.9640 O   0  0  0  0  0  0  0  0  0  0  0  0
   -2.6436  -10.1276    0.8734 H   0  0  0  0  0  0  0  0  0  0  0  0
   -1.6765   -9.4186   -0.4641 H   0  0  0  0  0  0  0  0  0  0  0  0
   -2.0580  -11.1740   -0.4641 H   0  0  0  0  0  0  0  0  0  0  0  0
   -0.2217  -10.3548    3.0894 H   0  0  0  0  0  0  0  0  0  0  0  0
   -1.9393  -10.5424    2.5981 H   0  0  0  0  0  0  0  0  0  0  0  0
   -0.8444  -11.9665    2.5981 H   0  0  0  0  0  0  0  0  0  0  0  0
    0.6099   -9.0031    1.9005 H   0  0  0  0  0  0  0  0  0  0  0  0
    1.2971   -9.5862    0.3466 H   0  0  0  0  0  0  0  0  0  0  0  0
   -0.1633   -8.5403    0.3466 H   0  0  0  0  0  0  0  0  0  0  0  0
    1.0310  -11.5340   -0.1460 H   0  0  0  0  0  0  0  0  0  0  0  0
    0.8860  -13.8134   -1.2214 H   0  0  0  0  0  0  0  0  0  0  0  0
   -1.1554  -15.3013   -0.6821 H   0  0  0  0  0  0  0  0  0  0  0  0
    0.4029  -16.2253   -0.7191 H   0  0  0  0  0  0  0  0  0  0  0  0
   -0.9880  -15.2010    1.7030 H   0  0  0  0  0  0  0  0  0  0  0  0
   -1.8620  -17.2601    0.3237 H   0  0  0  0  0  0  0  0  0  0  0  0
   -0.6837  -18.0571    1.4646 H   0  0  0  0  0  0  0  0  0  0  0  0
   -2.4957  -19.2905    2.6376 H   0  0  0  0  0  0  0  0  0  0  0  0
   -4.2342  -19.1107    4.4394 H   0  0  0  0  0  0  0  0  0  0  0  0
   -5.0221  -16.8711    5.1256 H   0  0  0  0  0  0  0  0  0  0  0  0
   -2.3982  -14.9988    2.4341 H   0  0  0  0  0  0  0  0  0  0  0  0
    0.5963  -16.3418    3.0925 H   0  0  0  0  0  0  0  0  0  0  0  0
    1.4476  -16.9170    1.5982 H   0  0  0  0  0  0  0  0  0  0  0  0
    1.1775  -14.0249    2.5797 H   0  0  0  0  0  0  0  0  0  0  0  0
    2.6811  -15.0258    2.4778 H   0  0  0  0  0  0  0  0  0  0  0  0
    2.5140  -15.0590    0.1170 H   0  0  0  0  0  0  0  0  0  0  0  0
    2.7264  -12.6420   -0.4895 H   0  0  0  0  0  0  0  0  0  0  0  0
    2.6260  -12.4063    1.2839 H   0  0  0  0  0  0  0  0  0  0  0  0
    4.4692  -13.9203    1.6748 H   0  0  0  0  0  0  0  0  0  0  0  0
    4.2480  -15.5080    0.1070 H   0  0  0  0  0  0  0  0  0  0  0  0
    4.8845  -11.5657    0.2346 H   0  0  0  0  0  0  0  0  0  0  0  0
    6.0465  -12.5385    1.2770 H   0  0  0  0  0  0  0  0  0  0  0  0
    5.8972  -13.5908   -1.4355 H   0  0  0  0  0  0  0  0  0  0  0  0
    6.0955  -10.6572   -1.1491 H   0  0  0  0  0  0  0  0  0  0  0  0
    7.4208  -11.4658   -2.1061 H   0  0  0  0  0  0  0  0  0  0  0  0
    3.7953  -10.6916   -1.9607 H   0  0  0  0  0  0  0  0  0  0  0  0
    2.3185  -10.8280   -3.9600 H   0  0  0  0  0  0  0  0  0  0  0  0
    3.1581  -11.8576   -6.0687 H   0  0  0  0  0  0  0  0  0  0  0  0
    5.4775  -12.7637   -6.1739 H   0  0  0  0  0  0  0  0  0  0  0  0
    6.9645  -12.6291   -4.1804 H   0  0  0  0  0  0  0  0  0  0  0  0
    8.6400  -11.7600   -1.4520 H   0  0  0  0  0  0  0  0  0  0  0  0
   10.0422  -13.8989   -0.2101 H   0  0  0  0  0  0  0  0  0  0  0  0
   10.1210  -13.0281   -3.2822 H   0  0  0  0  0  0  0  0  0  0  0  0
   12.0332  -12.2894   -4.7202 H   0  0  0  0  0  0  0  0  0  0  0  0
   14.0877  -11.3268   -3.6915 H   0  0  0  0  0  0  0  0  0  0  0  0
   14.2748  -11.1084   -1.2043 H   0  0  0  0  0  0  0  0  0  0  0  0
   12.7539  -12.7717    1.0427 H   0  0  0  0  0  0  0  0  0  0  0  0
   12.6725  -11.0355    1.0963 H   0  0  0  0  0  0  0  0  0  0  0  0
   10.4422  -12.5730    1.7660 H   0  0  0  0  0  0  0  0  0  0  0  0
   10.6370  -10.2890    1.6900 H   0  0  0  0  0  0  0  0  0  0  0  0
  1  2  1  0
  2  3  1  0
  2  4  1  0
  2  5  1  0
  5  6  1  0
  6  7  2  0
  6  8  1  0
  8  9  1  0
  9 10  1  0
 10 11  1  0
 11 12  1  0
 12 13  2  0
 13 14  1  0
 14 15  2  0
 15 16  1  0
 16 17  2  0
 10 18  1  0
 18 19  1  0
 19 20  1  0
 20 21  1  0
 21 22  1  0
 22 23  1  0
 22 24  1  0
 24 25  1  0
 25 26  1  0
 26 27  1  0
 27 28  2  0
 28 29  1  0
 29 30  2  0
 30 31  1  0
 31 32  2  0
 25 33  1  0
 33 34  2  0
 33 35  1  0
 35 36  1  0
 36 37  1  0
 37 38  2  0
 38 39  1  0
 39 40  2  0
 40 41  1  0
 41 42  2  0
 42 43  1  0
 43 44  1  0
 44 45  1  0
 20  8  1  0
 32 27  1  0
 44 36  1  0
 17 12  1  0
 42 37  1  0
  1 46  1  0
  1 47  1  0
  1 48  1  0
  3 49  1  0
  3 50  1  0
  3 51  1  0
  4 52  1  0
  4 53  1  0
  4 54  1  0
  5 55  1  0
  8 56  1  6
  9 57  1  0
  9 58  1  0
 10 59  1  0
 11 60  1  0
 11 61  1  0
 13 62  1  0
 14 63  1  0
 15 64  1  0
 17 65  1  0
 18 66  1  0
 18 67  1  0
 19 68  1  0
 19 69  1  0
 20 70  1  0
 21 71  1  0
 21 72  1  0
 22 73  1  1
 23 74  1  0
 24 75  1  0
 24 76  1  0
 25 77  1  6
 26 78  1  0
 26 79  1  0
 28 80  1  0
 29 81  1  0
 30 82  1  0
 31 83  1  0
 32 84  1  0
 35 85  1  0
 36 86  1  1
 38 87  1  0
 39 88  1  0
 40 89  1  0
 41 90  1  0
 43 91  1  0
 43 92  1  0
 44 93  1  1
 45 94  1  0
M  CHG  2  10   1  20   1
M  END
>  <meeko>  (7) 
{"is_sidechain": [false], "free_energy": -8.602, "intermolecular_energy": -15.034, "internal_energy": -1.465}

$$$$
REF_CHEMBL115__M_PUB_ALL__e8__s20260927
     RDKit          3D

 94 98  0  0  0  0  0  0  0  0999 V2000
    3.3800  -11.2270   -4.5320 C   0  0  0  0  0  0  0  0  0  0  0  0
    4.5680  -12.1980   -4.6370 C   0  0  0  0  0  0  0  0  0  0  0  0
    4.9000  -12.3840   -6.1270 C   0  0  0  0  0  0  0  0  0  0  0  0
    4.1560  -13.5390   -4.0120 C   0  0  0  0  0  0  0  0  0  0  0  0
    5.7210  -11.6190   -3.9040 N   0  0  0  0  0  0  0  0  0  0  0  0
    6.8240  -12.3310   -3.5120 C   0  0  0  0  0  0  0  0  0  0  0  0
    6.9840  -13.5400   -3.7020 O   0  0  0  0  0  0  0  0  0  0  0  0
    7.8830  -11.5730   -2.6890 C   0  0  2  0  0  0  0  0  0  0  0  0
    9.2780  -12.1500   -3.0790 C   0  0  0  0  0  0  0  0  0  0  0  0
    9.4230  -13.6160   -2.6470 N   0  0  0  0  0  0  0  0  0  0  0  0
   10.7220  -14.2360   -3.1370 C   0  0  0  0  0  0  0  0  0  0  0  0
   11.8810  -13.2910   -3.0780 C   0  0  0  0  0  0  0  0  0  0  0  0
   12.2300  -12.6220   -1.8980 C   0  0  0  0  0  0  0  0  0  0  0  0
   13.2930  -11.7210   -1.9060 C   0  0  0  0  0  0  0  0  0  0  0  0
   13.9670  -11.5100   -3.0960 C   0  0  0  0  0  0  0  0  0  0  0  0
   13.6470  -12.1350   -4.2480 N   0  0  0  0  0  0  0  0  0  0  0  0
   12.6380  -13.0250   -4.2130 C   0  0  0  0  0  0  0  0  0  0  0  0
    9.1650  -13.8230   -1.1580 C   0  0  0  0  0  0  0  0  0  0  0  0
    7.8040  -13.2210   -0.7220 C   0  0  0  0  0  0  0  0  0  0  0  0
    7.6790  -11.7700   -1.1640 N   0  0  0  0  0  0  0  0  0  0  0  0
    6.4090  -11.0810   -0.6650 C   0  0  0  0  0  0  0  0  0  0  0  0
    6.2040  -11.4310    0.8240 C   0  0  1  0  0  0  0  0  0  0  0  0
    6.6880  -10.2900    1.5770 O   0  0  0  0  0  0  0  0  0  0  0  0
    4.7490  -11.7240    1.2380 C   0  0  0  0  0  0  0  0  0  0  0  0
    4.0780  -12.8930    0.4870 C   0  0  1  0  0  0  0  0  0  0  0  0
    3.9230  -14.1250    1.4000 C   0  0  0  0  0  0  0  0  0  0  0  0
    3.2590  -15.2910    0.7120 C   0  0  0  0  0  0  0  0  0  0  0  0
    2.0120  -15.7610    1.1460 C   0  0  0  0  0  0  0  0  0  0  0  0
    1.3920  -16.8300    0.4970 C   0  0  0  0  0  0  0  0  0  0  0  0
    2.0120  -17.4430   -0.5880 C   0  0  0  0  0  0  0  0  0  0  0  0
    3.2560  -16.9910   -1.0240 C   0  0  0  0  0  0  0  0  0  0  0  0
    3.8780  -15.9220   -0.3780 C   0  0  0  0  0  0  0  0  0  0  0  0
    2.7430  -12.4270   -0.0970 C   0  0  0  0  0  0  0  0  0  0  0  0
    2.5240  -12.5300   -1.3040 O   0  0  0  0  0  0  0  0  0  0  0  0
    1.9110  -11.7410    0.7480 N   0  0  0  0  0  0  0  0  0  0  0  0
    0.5960  -11.2900    0.3290 C   0  0  1  0  0  0  0  0  0  0  0  0
   -0.5040  -11.8180    1.2120 C   0  0  0  0  0  0  0  0  0  0  0  0
   -0.6750  -13.1030    1.7100 C   0  0  0  0  0  0  0  0  0  0  0  0
   -1.8060  -13.3740    2.4830 C   0  0  0  0  0  0  0  0  0  0  0  0
   -2.7600  -12.3750    2.7310 C   0  0  0  0  0  0  0  0  0  0  0  0
   -2.6010  -11.0950    2.2020 C   0  0  0  0  0  0  0  0  0  0  0  0
   -1.4700  -10.8290    1.4480 C   0  0  0  0  0  0  0  0  0  0  0  0
   -1.1350   -9.5540    0.7350 C   0  0  0  0  0  0  0  0  0  0  0  0
    0.3680   -9.7480    0.4640 C   0  0  1  0  0  0  0  0  0  0  0  0
    1.1290   -9.1670    1.5580 O   0  0  0  0  0  0  0  0  0  0  0  0
    3.1516  -11.0403   -3.4723 H   0  0  0  0  0  0  0  0  0  0  0  0
    3.6377  -10.2777   -5.0243 H   0  0  0  0  0  0  0  0  0  0  0  0
    2.5010  -11.6685   -5.0243 H   0  0  0  0  0  0  0  0  0  0  0  0
    5.8558  -12.9195   -6.2256 H   0  0  0  0  0  0  0  0  0  0  0  0
    4.1019  -12.9663   -6.6106 H   0  0  0  0  0  0  0  0  0  0  0  0
    4.9798  -11.3992   -6.6106 H   0  0  0  0  0  0  0  0  0  0  0  0
    4.1816  -13.4557   -2.9155 H   0  0  0  0  0  0  0  0  0  0  0  0
    3.1371  -13.7971   -4.3364 H   0  0  0  0  0  0  0  0  0  0  0  0
    4.8542  -14.3247   -4.3364 H   0  0  0  0  0  0  0  0  0  0  0  0
    5.6300  -10.6340   -3.6600 H   0  0  0  0  0  0  0  0  0  0  0  0
    7.8006  -10.4976   -2.9051 H   0  0  0  0  0  0  0  0  0  0  0  0
    9.3986  -12.0857   -4.1705 H   0  0  0  0  0  0  0  0  0  0  0  0
   10.0508  -11.5609   -2.5634 H   0  0  0  0  0  0  0  0  0  0  0  0
    8.6690  -14.1280   -3.1580 H   0  0  0  0  0  0  0  0  0  0  0  0
   10.9509  -15.1107   -2.5105 H   0  0  0  0  0  0  0  0  0  0  0  0
   10.5768  -14.5124   -4.1918 H   0  0  0  0  0  0  0  0  0  0  0  0
   11.6683  -12.8067   -0.9704 H   0  0  0  0  0  0  0  0  0  0  0  0
   13.5891  -11.1906   -0.9889 H   0  0  0  0  0  0  0  0  0  0  0  0
   14.8050  -10.7975   -3.1030 H   0  0  0  0  0  0  0  0  0  0  0  0
   12.3986  -13.5736   -5.1359 H   0  0  0  0  0  0  0  0  0  0  0  0
    9.1626  -14.9018   -0.9433 H   0  0  0  0  0  0  0  0  0  0  0  0
    9.9613  -13.3111   -0.5978 H   0  0  0  0  0  0  0  0  0  0  0  0
    6.9906  -13.8060   -1.1760 H   0  0  0  0  0  0  0  0  0  0  0  0
    7.7415  -13.2581    0.3756 H   0  0  0  0  0  0  0  0  0  0  0  0
    8.4010  -11.2270   -0.6460 H   0  0  0  0  0  0  0  0  0  0  0  0
    6.5110   -9.9916   -0.7778 H   0  0  0  0  0  0  0  0  0  0  0  0
    5.5436  -11.4234   -1.2514 H   0  0  0  0  0  0  0  0  0  0  0  0
    6.7467  -12.3665    1.0250 H   0  0  0  0  0  0  0  0  0  0  0  0
    5.9230   -9.6890    1.7110 H   0  0  0  0  0  0  0  0  0  0  0  0
    4.7412  -11.9599    2.3124 H   0  0  0  0  0  0  0  0  0  0  0  0
    4.1706  -10.8237    0.9832 H   0  0  0  0  0  0  0  0  0  0  0  0
    4.7221  -13.2075   -0.3474 H   0  0  0  0  0  0  0  0  0  0  0  0
    4.9220  -14.4395    1.7363 H   0  0  0  0  0  0  0  0  0  0  0  0
    3.2790  -13.8306    2.2418 H   0  0  0  0  0  0  0  0  0  0  0  0
    1.5179  -15.2836    2.0050 H   0  0  0  0  0  0  0  0  0  0  0  0
    0.4116  -17.1887    0.8437 H   0  0  0  0  0  0  0  0  0  0  0  0
    1.5207  -18.2831   -1.1006 H   0  0  0  0  0  0  0  0  0  0  0  0
    3.7484  -17.4777   -1.8788 H   0  0  0  0  0  0  0  0  0  0  0  0
    4.8609  -15.5712   -0.7257 H   0  0  0  0  0  0  0  0  0  0  0  0
    2.1220  -11.6890    1.7360 H   0  0  0  0  0  0  0  0  0  0  0  0
    0.5639  -11.6416   -0.7128 H   0  0  0  0  0  0  0  0  0  0  0  0
    0.0642  -13.8901    1.5002 H   0  0  0  0  0  0  0  0  0  0  0  0
   -1.9506  -14.3808    2.9018 H   0  0  0  0  0  0  0  0  0  0  0  0
   -3.6411  -12.6040    3.3484 H   0  0  0  0  0  0  0  0  0  0  0  0
   -3.3559  -10.3148    2.3792 H   0  0  0  0  0  0  0  0  0  0  0  0
   -1.7037   -9.4545   -0.2013 H   0  0  0  0  0  0  0  0  0  0  0  0
   -1.3773   -8.6430    1.3019 H   0  0  0  0  0  0  0  0  0  0  0  0
    0.7033   -9.2459   -0.4555 H   0  0  0  0  0  0  0  0  0  0  0  0
    0.6940   -9.5180    2.3640 H   0  0  0  0  0  0  0  0  0  0  0  0
  1  2  1  0
  2  3  1  0
  2  4  1  0
  2  5  1  0
  5  6  1  0
  6  7  2  0
  6  8  1  0
  8  9  1  0
  9 10  1  0
 10 11  1  0
 11 12  1  0
 12 13  2  0
 13 14  1  0
 14 15  2  0
 15 16  1  0
 16 17  2  0
 10 18  1  0
 18 19  1  0
 19 20  1  0
 20 21  1  0
 21 22  1  0
 22 23  1  0
 22 24  1  0
 24 25  1  0
 25 26  1  0
 26 27  1  0
 27 28  2  0
 28 29  1  0
 29 30  2  0
 30 31  1  0
 31 32  2  0
 25 33  1  0
 33 34  2  0
 33 35  1  0
 35 36  1  0
 36 37  1  0
 37 38  2  0
 38 39  1  0
 39 40  2  0
 40 41  1  0
 41 42  2  0
 42 43  1  0
 43 44  1  0
 44 45  1  0
 20  8  1  0
 32 27  1  0
 44 36  1  0
 17 12  1  0
 42 37  1  0
  1 46  1  0
  1 47  1  0
  1 48  1  0
  3 49  1  0
  3 50  1  0
  3 51  1  0
  4 52  1  0
  4 53  1  0
  4 54  1  0
  5 55  1  0
  8 56  1  1
  9 57  1  0
  9 58  1  0
 10 59  1  0
 11 60  1  0
 11 61  1  0
 13 62  1  0
 14 63  1  0
 15 64  1  0
 17 65  1  0
 18 66  1  0
 18 67  1  0
 19 68  1  0
 19 69  1  0
 20 70  1  0
 21 71  1  0
 21 72  1  0
 22 73  1  1
 23 74  1  0
 24 75  1  0
 24 76  1  0
 25 77  1  6
 26 78  1  0
 26 79  1  0
 28 80  1  0
 29 81  1  0
 30 82  1  0
 31 83  1  0
 32 84  1  0
 35 85  1  0
 36 86  1  6
 38 87  1  0
 39 88  1  0
 40 89  1  0
 41 90  1  0
 43 91  1  0
 43 92  1  0
 44 93  1  6
 45 94  1  0
M  CHG  2  10   1  20   1
M  END
>  <meeko>  (8) 
{"is_sidechain": [false], "free_energy": -8.529, "intermolecular_energy": -14.757, "internal_energy": -1.612}

$$$$
REF_CHEMBL115__M_PUB_ALL__e8__s20260927
     RDKit          3D

 94 98  0  0  0  0  0  0  0  0999 V2000
    5.5220  -16.4250    0.3490 C   0  0  0  0  0  0  0  0  0  0  0  0
    5.5580  -16.2620   -1.1810 C   0  0  0  0  0  0  0  0  0  0  0  0
    4.1390  -16.5090   -1.7190 C   0  0  0  0  0  0  0  0  0  0  0  0
    6.5340  -17.2990   -1.7570 C   0  0  0  0  0  0  0  0  0  0  0  0
    6.0160  -14.8880   -1.5010 N   0  0  0  0  0  0  0  0  0  0  0  0
    7.1690  -14.3250   -1.0190 C   0  0  0  0  0  0  0  0  0  0  0  0
    7.9520  -14.8820   -0.2450 O   0  0  0  0  0  0  0  0  0  0  0  0
    7.4370  -12.8570   -1.4000 C   0  0  2  0  0  0  0  0  0  0  0  0
    8.9810  -12.6440   -1.3800 C   0  0  0  0  0  0  0  0  0  0  0  0
    9.5530  -12.7900    0.0370 N   0  0  0  0  0  0  0  0  0  0  0  0
   11.0710  -12.7200    0.0560 C   0  0  0  0  0  0  0  0  0  0  0  0
   11.7110  -13.5830   -0.9840 C   0  0  0  0  0  0  0  0  0  0  0  0
   11.7480  -14.9780   -0.8660 C   0  0  0  0  0  0  0  0  0  0  0  0
   12.3930  -15.7350   -1.8420 C   0  0  0  0  0  0  0  0  0  0  0  0
   12.9900  -15.0730   -2.9000 C   0  0  0  0  0  0  0  0  0  0  0  0
   12.9760  -13.7300   -3.0340 N   0  0  0  0  0  0  0  0  0  0  0  0
   12.3210  -13.0180   -2.0990 C   0  0  0  0  0  0  0  0  0  0  0  0
    8.8800  -11.8640    1.0460 C   0  0  0  0  0  0  0  0  0  0  0  0
    7.3360  -12.0150    1.0230 C   0  0  0  0  0  0  0  0  0  0  0  0
    6.7910  -11.8710   -0.3900 N   0  0  0  0  0  0  0  0  0  0  0  0
    5.2650  -11.8930   -0.4670 C   0  0  0  0  0  0  0  0  0  0  0  0
    4.7080  -12.4720    0.8500 C   0  0  1  0  0  0  0  0  0  0  0  0
    4.3100  -11.3340    1.6550 O   0  0  0  0  0  0  0  0  0  0  0  0
    3.5040  -13.4220    0.6960 C   0  0  0  0  0  0  0  0  0  0  0  0
    2.2580  -12.7970    0.0340 C   0  0  1  0  0  0  0  0  0  0  0  0
    1.9880  -13.4260   -1.3470 C   0  0  0  0  0  0  0  0  0  0  0  0
    2.3920  -12.5330   -2.4930 C   0  0  0  0  0  0  0  0  0  0  0  0
    2.2000  -11.1460   -2.4200 C   0  0  0  0  0  0  0  0  0  0  0  0
    2.5890  -10.3200   -3.4740 C   0  0  0  0  0  0  0  0  0  0  0  0
    3.1700  -10.8690   -4.6150 C   0  0  0  0  0  0  0  0  0  0  0  0
    3.3590  -12.2470   -4.7030 C   0  0  0  0  0  0  0  0  0  0  0  0
    2.9700  -13.0760   -3.6500 C   0  0  0  0  0  0  0  0  0  0  0  0
    1.0600  -12.9210    0.9770 C   0  0  0  0  0  0  0  0  0  0  0  0
    0.0700  -12.2060    0.8190 O   0  0  0  0  0  0  0  0  0  0  0  0
    1.2290  -13.7160    2.0800 N   0  0  0  0  0  0  0  0  0  0  0  0
    0.1510  -13.9540    3.0230 C   0  0  1  0  0  0  0  0  0  0  0  0
   -0.5000  -15.2980    2.8270 C   0  0  0  0  0  0  0  0  0  0  0  0
   -0.8790  -15.9140    1.6420 C   0  0  0  0  0  0  0  0  0  0  0  0
   -1.5110  -17.1580    1.7080 C   0  0  0  0  0  0  0  0  0  0  0  0
   -1.7790  -17.7600    2.9460 C   0  0  0  0  0  0  0  0  0  0  0  0
   -1.4260  -17.1240    4.1360 C   0  0  0  0  0  0  0  0  0  0  0  0
   -0.7860  -15.8970    4.0630 C   0  0  0  0  0  0  0  0  0  0  0  0
   -0.3840  -15.0160    5.2060 C   0  0  0  0  0  0  0  0  0  0  0  0
    0.6100  -14.0640    4.5150 C   0  0  1  0  0  0  0  0  0  0  0  0
    1.9540  -14.6030    4.6450 O   0  0  0  0  0  0  0  0  0  0  0  0
    5.7358  -15.4571    0.8260 H   0  0  0  0  0  0  0  0  0  0  0  0
    4.5252  -16.7735    0.6573 H   0  0  0  0  0  0  0  0  0  0  0  0
    6.2793  -17.1609    0.6573 H   0  0  0  0  0  0  0  0  0  0  0  0
    3.4431  -16.6301   -0.8758 H   0  0  0  0  0  0  0  0  0  0  0  0
    3.8253  -15.6519   -2.3331 H   0  0  0  0  0  0  0  0  0  0  0  0
    4.1334  -17.4216   -2.3331 H   0  0  0  0  0  0  0  0  0  0  0  0
    7.0335  -17.8297   -0.9331 H   0  0  0  0  0  0  0  0  0  0  0  0
    5.9797  -18.0205   -2.3752 H   0  0  0  0  0  0  0  0  0  0  0  0
    7.2877  -16.7894   -2.3752 H   0  0  0  0  0  0  0  0  0  0  0  0
    5.3860  -14.3460   -2.0900 H   0  0  0  0  0  0  0  0  0  0  0  0
    7.0015  -12.6598   -2.3907 H   0  0  0  0  0  0  0  0  0  0  0  0
    9.4531  -13.3917   -2.0344 H   0  0  0  0  0  0  0  0  0  0  0  0
    9.1923  -11.6238   -1.7330 H   0  0  0  0  0  0  0  0  0  0  0  0
    9.3230  -13.7670    0.3250 H   0  0  0  0  0  0  0  0  0  0  0  0
   11.3756  -11.6775   -0.1183 H   0  0  0  0  0  0  0  0  0  0  0  0
   11.4041  -13.0877    1.0378 H   0  0  0  0  0  0  0  0  0  0  0  0
   11.2706  -15.4733   -0.0077 H   0  0  0  0  0  0  0  0  0  0  0  0
   12.4267  -16.8323   -1.7729 H   0  0  0  0  0  0  0  0  0  0  0  0
   13.5010  -15.6703   -3.6695 H   0  0  0  0  0  0  0  0  0  0  0  0
   12.2647  -11.9265   -2.2235 H   0  0  0  0  0  0  0  0  0  0  0  0
    9.2470  -12.1081    2.0538 H   0  0  0  0  0  0  0  0  0  0  0  0
    9.1270  -10.8264    0.7769 H   0  0  0  0  0  0  0  0  0  0  0  0
    7.0666  -13.0080    1.4122 H   0  0  0  0  0  0  0  0  0  0  0  0
    6.8988  -11.2223    1.6478 H   0  0  0  0  0  0  0  0  0  0  0  0
    6.9780  -10.8930   -0.6950 H   0  0  0  0  0  0  0  0  0  0  0  0
    4.8874  -10.8697   -0.6097 H   0  0  0  0  0  0  0  0  0  0  0  0
    4.9429  -12.5160   -1.3144 H   0  0  0  0  0  0  0  0  0  0  0  0
    5.4973  -13.0902    1.3026 H   0  0  0  0  0  0  0  0  0  0  0  0
    3.9080  -11.6900    2.4780 H   0  0  0  0  0  0  0  0  0  0  0  0
    3.8219  -14.2786    0.0835 H   0  0  0  0  0  0  0  0  0  0  0  0
    3.2015  -13.7013    1.7160 H   0  0  0  0  0  0  0  0  0  0  0  0
    2.4386  -11.7268   -0.1449 H   0  0  0  0  0  0  0  0  0  0  0  0
    2.5536  -14.3666   -1.4199 H   0  0  0  0  0  0  0  0  0  0  0  0
    0.9032  -13.5905   -1.4260 H   0  0  0  0  0  0  0  0  0  0  0  0
    1.7386  -10.7057   -1.5237 H   0  0  0  0  0  0  0  0  0  0  0  0
    2.4368   -9.2328   -3.4044 H   0  0  0  0  0  0  0  0  0  0  0  0
    3.4789  -10.2162   -5.4447 H   0  0  0  0  0  0  0  0  0  0  0  0
    3.8157  -12.6820   -5.6042 H   0  0  0  0  0  0  0  0  0  0  0  0
    3.1177  -14.1633   -3.7279 H   0  0  0  0  0  0  0  0  0  0  0  0
    2.0530  -14.2960    2.1660 H   0  0  0  0  0  0  0  0  0  0  0  0
   -0.5024  -13.0893    2.8348 H   0  0  0  0  0  0  0  0  0  0  0  0
   -0.6858  -15.4328    0.6719 H   0  0  0  0  0  0  0  0  0  0  0  0
   -1.8015  -17.6708    0.7792 H   0  0  0  0  0  0  0  0  0  0  0  0
   -2.2721  -18.7427    2.9788 H   0  0  0  0  0  0  0  0  0  0  0  0
   -1.6502  -17.5853    5.1091 H   0  0  0  0  0  0  0  0  0  0  0  0
   -1.2461  -14.4699    5.6166 H   0  0  0  0  0  0  0  0  0  0  0  0
    0.0339  -15.5571    6.0677 H   0  0  0  0  0  0  0  0  0  0  0  0
    0.6256  -13.0618    4.9681 H   0  0  0  0  0  0  0  0  0  0  0  0
    1.8490  -15.5570    4.4490 H   0  0  0  0  0  0  0  0  0  0  0  0
  1  2  1  0
  2  3  1  0
  2  4  1  0
  2  5  1  0
  5  6  1  0
  6  7  2  0
  6  8  1  0
  8  9  1  0
  9 10  1  0
 10 11  1  0
 11 12  1  0
 12 13  2  0
 13 14  1  0
 14 15  2  0
 15 16  1  0
 16 17  2  0
 10 18  1  0
 18 19  1  0
 19 20  1  0
 20 21  1  0
 21 22  1  0
 22 23  1  0
 22 24  1  0
 24 25  1  0
 25 26  1  0
 26 27  1  0
 27 28  2  0
 28 29  1  0
 29 30  2  0
 30 31  1  0
 31 32  2  0
 25 33  1  0
 33 34  2  0
 33 35  1  0
 35 36  1  0
 36 37  1  0
 37 38  2  0
 38 39  1  0
 39 40  2  0
 40 41  1  0
 41 42  2  0
 42 43  1  0
 43 44  1  0
 44 45  1  0
 20  8  1  0
 32 27  1  0
 44 36  1  0
 17 12  1  0
 42 37  1  0
  1 46  1  0
  1 47  1  0
  1 48  1  0
  3 49  1  0
  3 50  1  0
  3 51  1  0
  4 52  1  0
  4 53  1  0
  4 54  1  0
  5 55  1  0
  8 56  1  6
  9 57  1  0
  9 58  1  0
 10 59  1  0
 11 60  1  0
 11 61  1  0
 13 62  1  0
 14 63  1  0
 15 64  1  0
 17 65  1  0
 18 66  1  0
 18 67  1  0
 19 68  1  0
 19 69  1  0
 20 70  1  0
 21 71  1  0
 21 72  1  0
 22 73  1  1
 23 74  1  0
 24 75  1  0
 24 76  1  0
 25 77  1  6
 26 78  1  0
 26 79  1  0
 28 80  1  0
 29 81  1  0
 30 82  1  0
 31 83  1  0
 32 84  1  0
 35 85  1  0
 36 86  1  1
 38 87  1  0
 39 88  1  0
 40 89  1  0
 41 90  1  0
 43 91  1  0
 43 92  1  0
 44 93  1  1
 45 94  1  0
M  CHG  2  10   1  20   1
M  END
>  <meeko>  (9) 
{"is_sidechain": [false], "free_energy": -8.438, "intermolecular_energy": -14.216, "internal_energy": -1.993}

$$$$
