REF_CHEMBL449782__M_PUB_ALL__e8__s20260927
     RDKit          3D

 85 92  0  0  0  0  0  0  0  0999 V2000
   13.6550  -10.6920   -0.0080 C   0  0  0  0  0  0  0  0  0  0  0  0
   12.8540  -10.7150   -1.1850 O   0  0  0  0  0  0  0  0  0  0  0  0
   13.0830  -11.7220   -2.0810 C   0  0  0  0  0  0  0  0  0  0  0  0
   14.0240  -11.6800   -3.1130 C   0  0  0  0  0  0  0  0  0  0  0  0
   14.1530  -12.7550   -4.0020 C   0  0  0  0  0  0  0  0  0  0  0  0
   13.3550  -13.9000   -3.8670 C   0  0  0  0  0  0  0  0  0  0  0  0
   12.4370  -13.9560   -2.8130 C   0  0  0  0  0  0  0  0  0  0  0  0
   12.2750  -12.8590   -1.9570 C   0  0  0  0  0  0  0  0  0  0  0  0
   11.3540  -12.9110   -0.9310 O   0  0  0  0  0  0  0  0  0  0  0  0
   10.0400  -13.1130   -1.2900 C   0  0  0  0  0  0  0  0  0  0  0  0
    9.4130  -12.4110   -2.3220 C   0  0  0  0  0  0  0  0  0  0  0  0
    8.0670  -12.6520   -2.6170 C   0  0  0  0  0  0  0  0  0  0  0  0
    7.3350  -13.5820   -1.8680 C   0  0  0  0  0  0  0  0  0  0  0  0
    7.9690  -14.2530   -0.8090 C   0  0  0  0  0  0  0  0  0  0  0  0
    9.3140  -14.0160   -0.5210 C   0  0  0  0  0  0  0  0  0  0  0  0
    5.8830  -13.8720   -2.1790 C   0  0  0  0  0  0  0  0  0  0  0  0
    5.6210  -14.9930   -3.2330 C   0  0  1  0  0  0  0  0  0  0  0  0
    6.4000  -16.2630   -2.9430 C   0  0  0  0  0  0  0  0  0  0  0  0
    5.8310  -17.2730   -2.1240 C   0  0  0  0  0  0  0  0  0  0  0  0
    6.6150  -18.3640   -1.7170 C   0  0  0  0  0  0  0  0  0  0  0  0
    7.9300  -18.4200   -2.1320 C   0  0  0  0  0  0  0  0  0  0  0  0
    8.4750  -17.4790   -2.9720 C   0  0  0  0  0  0  0  0  0  0  0  0
    7.7160  -16.4170   -3.4400 C   0  0  0  0  0  0  0  0  0  0  0  0
    8.1630  -15.4690   -4.3350 O   0  0  0  0  0  0  0  0  0  0  0  0
    9.0560  -15.8560   -5.3120 C   0  0  0  0  0  0  0  0  0  0  0  0
   10.2640  -15.1490   -5.3320 C   0  0  0  0  0  0  0  0  0  0  0  0
   11.2930  -15.4930   -6.2220 C   0  0  0  0  0  0  0  0  0  0  0  0
   11.0660  -16.5450   -7.1290 C   0  0  0  0  0  0  0  0  0  0  0  0
    9.8110  -17.1900   -7.1640 C   0  0  0  0  0  0  0  0  0  0  0  0
    8.7970  -16.8500   -6.2630 C   0  0  0  0  0  0  0  0  0  0  0  0
    7.5390  -17.3920   -6.2710 O   0  0  0  0  0  0  0  0  0  0  0  0
    6.6230  -16.8670   -7.2280 C   0  0  0  0  0  0  0  0  0  0  0  0
   12.1200  -16.9630   -8.1260 C   0  0  0  0  0  0  0  0  0  0  0  0
   13.5170  -16.4640   -7.7680 C   0  0  0  0  0  0  0  0  0  0  0  0
   13.4940  -14.9980   -7.4040 N   0  0  0  0  0  0  0  0  0  0  0  0
   13.1570  -14.0950   -8.5620 C   0  0  0  0  0  0  0  0  0  0  0  0
   12.6150  -14.7380   -6.1730 C   0  0  2  0  0  0  0  0  0  0  0  0
   13.4500  -15.0280   -4.8710 C   0  0  0  0  0  0  0  0  0  0  0  0
    9.7850  -17.7430   -3.2380 O   0  0  0  0  0  0  0  0  0  0  0  0
    9.9950  -18.9470   -2.4710 C   0  0  0  0  0  0  0  0  0  0  0  0
    8.8100  -19.3950   -1.7880 O   0  0  0  0  0  0  0  0  0  0  0  0
    4.3650  -17.2680   -1.7590 C   0  0  0  0  0  0  0  0  0  0  0  0
    3.6040  -15.9780   -2.0630 C   0  0  0  0  0  0  0  0  0  0  0  0
    4.1230  -15.3250   -3.3230 N   0  0  0  0  0  0  0  0  0  0  0  0
    3.2610  -14.1890   -3.7850 C   0  0  0  0  0  0  0  0  0  0  0  0
   13.0043  -10.7107    0.8787 H   0  0  0  0  0  0  0  0  0  0  0  0
   14.3155  -11.5715    0.0033 H   0  0  0  0  0  0  0  0  0  0  0  0
   14.2639   -9.7760    0.0033 H   0  0  0  0  0  0  0  0  0  0  0  0
   14.6685  -10.7961   -3.2283 H   0  0  0  0  0  0  0  0  0  0  0  0
   14.8901  -12.7001   -4.8167 H   0  0  0  0  0  0  0  0  0  0  0  0
   11.8394  -14.8660   -2.6556 H   0  0  0  0  0  0  0  0  0  0  0  0
    9.9783  -11.6678   -2.9034 H   0  0  0  0  0  0  0  0  0  0  0  0
    7.5813  -12.1087   -3.4409 H   0  0  0  0  0  0  0  0  0  0  0  0
    7.4001  -14.9719   -0.2011 H   0  0  0  0  0  0  0  0  0  0  0  0
    9.7994  -14.5431    0.3136 H   0  0  0  0  0  0  0  0  0  0  0  0
    5.3907  -14.1696   -1.2414 H   0  0  0  0  0  0  0  0  0  0  0  0
    5.4839  -12.9479   -2.6226 H   0  0  0  0  0  0  0  0  0  0  0  0
    5.9711  -14.5940   -4.1964 H   0  0  0  0  0  0  0  0  0  0  0  0
    6.1910  -19.1559   -1.0820 H   0  0  0  0  0  0  0  0  0  0  0  0
   10.4093  -14.3085   -4.6374 H   0  0  0  0  0  0  0  0  0  0  0  0
    9.6273  -17.9741   -7.9133 H   0  0  0  0  0  0  0  0  0  0  0  0
    5.7830  -16.3856   -6.7058 H   0  0  0  0  0  0  0  0  0  0  0  0
    7.1361  -16.1258   -7.8585 H   0  0  0  0  0  0  0  0  0  0  0  0
    6.2428  -17.6843   -7.8585 H   0  0  0  0  0  0  0  0  0  0  0  0
   12.1422  -18.0618   -8.1715 H   0  0  0  0  0  0  0  0  0  0  0  0
   11.8507  -16.5150   -9.0939 H   0  0  0  0  0  0  0  0  0  0  0  0
   13.8961  -17.0409   -6.9116 H   0  0  0  0  0  0  0  0  0  0  0  0
   14.1703  -16.5966   -8.6430 H   0  0  0  0  0  0  0  0  0  0  0  0
   14.4570  -14.7450   -7.1510 H   0  0  0  0  0  0  0  0  0  0  0  0
   12.7963  -13.1284   -8.1804 H   0  0  0  0  0  0  0  0  0  0  0  0
   14.0558  -13.9346   -9.1756 H   0  0  0  0  0  0  0  0  0  0  0  0
   12.3729  -14.5627   -9.1756 H   0  0  0  0  0  0  0  0  0  0  0  0
   12.3212  -13.6780   -6.1644 H   0  0  0  0  0  0  0  0  0  0  0  0
   13.0709  -15.9495   -4.4051 H   0  0  0  0  0  0  0  0  0  0  0  0
   14.5054  -15.1315   -5.1632 H   0  0  0  0  0  0  0  0  0  0  0  0
   10.3280  -19.7431   -3.1532 H   0  0  0  0  0  0  0  0  0  0  0  0
   10.7498  -18.7198   -1.7037 H   0  0  0  0  0  0  0  0  0  0  0  0
    3.8776  -18.0846   -2.3118 H   0  0  0  0  0  0  0  0  0  0  0  0
    4.3310  -17.3821   -0.6655 H   0  0  0  0  0  0  0  0  0  0  0  0
    2.5371  -16.2122   -2.1929 H   0  0  0  0  0  0  0  0  0  0  0  0
    3.7472  -15.2815   -1.2237 H   0  0  0  0  0  0  0  0  0  0  0  0
    4.0660  -16.0370   -4.0630 H   0  0  0  0  0  0  0  0  0  0  0  0
    2.8569  -13.6565   -2.9114 H   0  0  0  0  0  0  0  0  0  0  0  0
    3.8622  -13.4955   -4.3913 H   0  0  0  0  0  0  0  0  0  0  0  0
    2.4313  -14.5813   -4.3913 H   0  0  0  0  0  0  0  0  0  0  0  0
  1  2  1  0
  2  3  1  0
  3  4  2  0
  4  5  1  0
  5  6  2  0
  6  7  1  0
  7  8  2  0
  8  9  1  0
  9 10  1  0
 10 11  2  0
 11 12  1  0
 12 13  2  0
 13 14  1  0
 14 15  2  0
 13 16  1  0
 16 17  1  0
 17 18  1  0
 18 19  1  0
 19 20  2  0
 20 21  1  0
 21 22  2  0
 22 23  1  0
 23 24  1  0
 24 25  1  0
 25 26  2  0
 26 27  1  0
 27 28  2  0
 28 29  1  0
 29 30  2  0
 30 31  1  0
 31 32  1  0
 28 33  1  0
 33 34  1  0
 34 35  1  0
 35 36  1  0
 35 37  1  0
 37 38  1  0
 22 39  1  0
 39 40  1  0
 40 41  1  0
 19 42  1  0
 42 43  1  0
 43 44  1  0
 44 45  1  0
  8  3  1  0
 15 10  1  0
 44 17  1  0
 38  6  1  0
 23 18  2  0
 30 25  1  0
 41 21  1  0
 37 27  1  0
  1 46  1  0
  1 47  1  0
  1 48  1  0
  4 49  1  0
  5 50  1  0
  7 51  1  0
 11 52  1  0
 12 53  1  0
 14 54  1  0
 15 55  1  0
 16 56  1  0
 16 57  1  0
 17 58  1  6
 20 59  1  0
 26 60  1  0
 29 61  1  0
 32 62  1  0
 32 63  1  0
 32 64  1  0
 33 65  1  0
 33 66  1  0
 34 67  1  0
 34 68  1  0
 35 69  1  0
 36 70  1  0
 36 71  1  0
 36 72  1  0
 37 73  1  1
 38 74  1  0
 38 75  1  0
 40 76  1  0
 40 77  1  0
 42 78  1  0
 42 79  1  0
 43 80  1  0
 43 81  1  0
 44 82  1  0
 45 83  1  0
 45 84  1  0
 45 85  1  0
M  CHG  2  35   1  44   1
M  END
>  <meeko>  (1) 
{"is_sidechain": [false], "free_energy": -7.015, "intermolecular_energy": -10.706, "internal_energy": -0.939}

$$$$
REF_CHEMBL449782__M_PUB_ALL__e8__s20260927
     RDKit          3D

 85 92  0  0  0  0  0  0  0  0999 V2000
    7.6290  -18.9510   -0.9540 C   0  0  0  0  0  0  0  0  0  0  0  0
    6.3220  -19.0970   -1.4970 O   0  0  0  0  0  0  0  0  0  0  0  0
    5.7390  -17.9850   -2.0400 C   0  0  0  0  0  0  0  0  0  0  0  0
    6.3410  -17.1370   -2.9720 C   0  0  0  0  0  0  0  0  0  0  0  0
    5.6680  -16.0000   -3.4390 C   0  0  0  0  0  0  0  0  0  0  0  0
    4.3730  -15.6990   -2.9950 C   0  0  0  0  0  0  0  0  0  0  0  0
    3.7560  -16.5680   -2.0880 C   0  0  0  0  0  0  0  0  0  0  0  0
    4.4520  -17.6750   -1.5850 C   0  0  0  0  0  0  0  0  0  0  0  0
    3.8470  -18.5180   -0.6760 O   0  0  0  0  0  0  0  0  0  0  0  0
    3.2700  -17.9260    0.4260 C   0  0  0  0  0  0  0  0  0  0  0  0
    3.7870  -16.7810    1.0370 C   0  0  0  0  0  0  0  0  0  0  0  0
    3.1610  -16.2470    2.1680 C   0  0  0  0  0  0  0  0  0  0  0  0
    2.0260  -16.8680    2.7070 C   0  0  0  0  0  0  0  0  0  0  0  0
    1.5400  -18.0400    2.1030 C   0  0  0  0  0  0  0  0  0  0  0  0
    2.1620  -18.5660    0.9710 C   0  0  0  0  0  0  0  0  0  0  0  0
    1.3220  -16.2990    3.9200 C   0  0  0  0  0  0  0  0  0  0  0  0
    0.2900  -15.1620    3.6400 C   0  0  1  0  0  0  0  0  0  0  0  0
   -0.4060  -15.3190    2.2990 C   0  0  0  0  0  0  0  0  0  0  0  0
   -1.6100  -16.0660    2.2090 C   0  0  0  0  0  0  0  0  0  0  0  0
   -2.1570  -16.3550    0.9490 C   0  0  0  0  0  0  0  0  0  0  0  0
   -1.4990  -15.8980   -0.1740 C   0  0  0  0  0  0  0  0  0  0  0  0
   -0.3660  -15.1250   -0.0980 C   0  0  0  0  0  0  0  0  0  0  0  0
    0.1740  -14.7720    1.1300 C   0  0  0  0  0  0  0  0  0  0  0  0
    1.2650  -13.9480    1.2990 O   0  0  0  0  0  0  0  0  0  0  0  0
    1.5840  -13.0630    0.2900 C   0  0  0  0  0  0  0  0  0  0  0  0
    2.6240  -13.4660   -0.5540 C   0  0  0  0  0  0  0  0  0  0  0  0
    2.9960  -12.6970   -1.6670 C   0  0  0  0  0  0  0  0  0  0  0  0
    2.3230  -11.4830   -1.8950 C   0  0  0  0  0  0  0  0  0  0  0  0
    1.3380  -11.0400   -0.9860 C   0  0  0  0  0  0  0  0  0  0  0  0
    0.9640  -11.8200    0.1130 C   0  0  0  0  0  0  0  0  0  0  0  0
    0.0590  -11.4330    1.0660 O   0  0  0  0  0  0  0  0  0  0  0  0
   -1.2240  -11.0250    0.6000 C   0  0  0  0  0  0  0  0  0  0  0  0
    2.6760  -10.5960   -3.0650 C   0  0  0  0  0  0  0  0  0  0  0  0
    3.4690  -11.3200   -4.1490 C   0  0  0  0  0  0  0  0  0  0  0  0
    4.6070  -12.1130   -3.5520 N   0  0  0  0  0  0  0  0  0  0  0  0
    5.6820  -11.2560   -2.9370 C   0  0  0  0  0  0  0  0  0  0  0  0
    4.0950  -13.2000   -2.5950 C   0  0  2  0  0  0  0  0  0  0  0  0
    3.6780  -14.4340   -3.4500 C   0  0  0  0  0  0  0  0  0  0  0  0
    0.1040  -14.7980   -1.3340 O   0  0  0  0  0  0  0  0  0  0  0  0
   -0.8580  -15.4540   -2.1870 C   0  0  0  0  0  0  0  0  0  0  0  0
   -1.8940  -16.1310   -1.4520 O   0  0  0  0  0  0  0  0  0  0  0  0
   -2.3870  -16.4740    3.4390 C   0  0  0  0  0  0  0  0  0  0  0  0
   -1.6640  -16.3030    4.7750 C   0  0  0  0  0  0  0  0  0  0  0  0
   -0.7650  -15.0890    4.7550 N   0  0  0  0  0  0  0  0  0  0  0  0
   -0.2170  -14.7500    6.1080 C   0  0  0  0  0  0  0  0  0  0  0  0
    7.5725  -18.9573    0.1445 H   0  0  0  0  0  0  0  0  0  0  0  0
    8.2622  -19.7840   -1.2934 H   0  0  0  0  0  0  0  0  0  0  0  0
    8.0628  -17.9988   -1.2934 H   0  0  0  0  0  0  0  0  0  0  0  0
    7.3517  -17.3634   -3.3426 H   0  0  0  0  0  0  0  0  0  0  0  0
    6.1621  -15.3354   -4.1630 H   0  0  0  0  0  0  0  0  0  0  0  0
    2.7201  -16.3811   -1.7686 H   0  0  0  0  0  0  0  0  0  0  0  0
    4.6873  -16.2989    0.6282 H   0  0  0  0  0  0  0  0  0  0  0  0
    3.5612  -15.3357    2.6365 H   0  0  0  0  0  0  0  0  0  0  0  0
    0.6608  -18.5473    2.5270 H   0  0  0  0  0  0  0  0  0  0  0  0
    1.7763  -19.4869    0.5093 H   0  0  0  0  0  0  0  0  0  0  0  0
    0.7889  -17.1228    4.4172 H   0  0  0  0  0  0  0  0  0  0  0  0
    2.1112  -15.8395    4.5331 H   0  0  0  0  0  0  0  0  0  0  0  0
    0.8671  -14.2259    3.6136 H   0  0  0  0  0  0  0  0  0  0  0  0
   -3.0889  -16.9326    0.8592 H   0  0  0  0  0  0  0  0  0  0  0  0
    3.1599  -14.4028   -0.3413 H   0  0  0  0  0  0  0  0  0  0  0  0
    0.8561  -10.0640   -1.1449 H   0  0  0  0  0  0  0  0  0  0  0  0
   -1.8775  -10.8172    1.4601 H   0  0  0  0  0  0  0  0  0  0  0  0
   -1.1204  -10.1155   -0.0100 H   0  0  0  0  0  0  0  0  0  0  0  0
   -1.6648  -11.8273   -0.0100 H   0  0  0  0  0  0  0  0  0  0  0  0
    1.7444  -10.2149   -3.5087 H   0  0  0  0  0  0  0  0  0  0  0  0
    3.3120   -9.7849   -2.6807 H   0  0  0  0  0  0  0  0  0  0  0  0
    2.7980  -12.0048   -4.6882 H   0  0  0  0  0  0  0  0  0  0  0  0
    3.8883  -10.5695   -4.8353 H   0  0  0  0  0  0  0  0  0  0  0  0
    5.0720  -12.5900   -4.3340 H   0  0  0  0  0  0  0  0  0  0  0  0
    5.6126  -11.3113   -1.8406 H   0  0  0  0  0  0  0  0  0  0  0  0
    6.6692  -11.6177   -3.2606 H   0  0  0  0  0  0  0  0  0  0  0  0
    5.5494  -10.2131   -3.2606 H   0  0  0  0  0  0  0  0  0  0  0  0
    4.8978  -13.5009   -1.9058 H   0  0  0  0  0  0  0  0  0  0  0  0
    2.5906  -14.5752   -3.3632 H   0  0  0  0  0  0  0  0  0  0  0  0
    3.9718  -14.2406   -4.4922 H   0  0  0  0  0  0  0  0  0  0  0  0
   -1.3252  -14.6975   -2.8346 H   0  0  0  0  0  0  0  0  0  0  0  0
   -0.3166  -16.2151   -2.7680 H   0  0  0  0  0  0  0  0  0  0  0  0
   -3.3051  -15.8691    3.4732 H   0  0  0  0  0  0  0  0  0  0  0  0
   -2.5639  -17.5545    3.3334 H   0  0  0  0  0  0  0  0  0  0  0  0
   -2.4100  -16.1846    5.5747 H   0  0  0  0  0  0  0  0  0  0  0  0
   -1.0442  -17.1940    4.9536 H   0  0  0  0  0  0  0  0  0  0  0  0
   -1.3600  -14.2930    4.4880 H   0  0  0  0  0  0  0  0  0  0  0  0
   -0.8792  -15.1596    6.8850 H   0  0  0  0  0  0  0  0  0  0  0  0
    0.7877  -15.1846    6.2161 H   0  0  0  0  0  0  0  0  0  0  0  0
   -0.1573  -13.6570    6.2161 H   0  0  0  0  0  0  0  0  0  0  0  0
  1  2  1  0
  2  3  1  0
  3  4  2  0
  4  5  1  0
  5  6  2  0
  6  7  1  0
  7  8  2  0
  8  9  1  0
  9 10  1  0
 10 11  2  0
 11 12  1  0
 12 13  2  0
 13 14  1  0
 14 15  2  0
 13 16  1  0
 16 17  1  0
 17 18  1  0
 18 19  1  0
 19 20  2  0
 20 21  1  0
 21 22  2  0
 22 23  1  0
 23 24  1  0
 24 25  1  0
 25 26  2  0
 26 27  1  0
 27 28  2  0
 28 29  1  0
 29 30  2  0
 30 31  1  0
 31 32  1  0
 28 33  1  0
 33 34  1  0
 34 35  1  0
 35 36  1  0
 35 37  1  0
 37 38  1  0
 22 39  1  0
 39 40  1  0
 40 41  1  0
 19 42  1  0
 42 43  1  0
 43 44  1  0
 44 45  1  0
  8  3  1  0
 15 10  1  0
 44 17  1  0
 38  6  1  0
 23 18  2  0
 30 25  1  0
 41 21  1  0
 37 27  1  0
  1 46  1  0
  1 47  1  0
  1 48  1  0
  4 49  1  0
  5 50  1  0
  7 51  1  0
 11 52  1  0
 12 53  1  0
 14 54  1  0
 15 55  1  0
 16 56  1  0
 16 57  1  0
 17 58  1  6
 20 59  1  0
 26 60  1  0
 29 61  1  0
 32 62  1  0
 32 63  1  0
 32 64  1  0
 33 65  1  0
 33 66  1  0
 34 67  1  0
 34 68  1  0
 35 69  1  0
 36 70  1  0
 36 71  1  0
 36 72  1  0
 37 73  1  1
 38 74  1  0
 38 75  1  0
 40 76  1  0
 40 77  1  0
 42 78  1  0
 42 79  1  0
 43 80  1  0
 43 81  1  0
 44 82  1  0
 45 83  1  0
 45 84  1  0
 45 85  1  0
M  CHG  2  35   1  44   1
M  END
>  <meeko>  (2) 
{"is_sidechain": [false], "free_energy": -6.969, "intermolecular_energy": -10.795, "internal_energy": -0.78}

$$$$
REF_CHEMBL449782__M_PUB_ALL__e8__s20260927
     RDKit          3D

 85 92  0  0  0  0  0  0  0  0999 V2000
   -0.6180  -18.8430    5.1950 C   0  0  0  0  0  0  0  0  0  0  0  0
   -0.4120  -18.4130    3.8530 O   0  0  0  0  0  0  0  0  0  0  0  0
   -0.3830  -17.0650    3.6230 C   0  0  0  0  0  0  0  0  0  0  0  0
   -1.4640  -16.1980    3.7940 C   0  0  0  0  0  0  0  0  0  0  0  0
   -1.3380  -14.8360    3.4930 C   0  0  0  0  0  0  0  0  0  0  0  0
   -0.1230  -14.3110    3.0310 C   0  0  0  0  0  0  0  0  0  0  0  0
    0.9710  -15.1730    2.8930 C   0  0  0  0  0  0  0  0  0  0  0  0
    0.8260  -16.5440    3.1460 C   0  0  0  0  0  0  0  0  0  0  0  0
    1.9010  -17.3940    2.9890 O   0  0  0  0  0  0  0  0  0  0  0  0
    2.4990  -17.4100    1.7490 C   0  0  0  0  0  0  0  0  0  0  0  0
    1.7790  -17.4620    0.5530 C   0  0  0  0  0  0  0  0  0  0  0  0
    2.4550  -17.5000   -0.6710 C   0  0  0  0  0  0  0  0  0  0  0  0
    3.8560  -17.5070   -0.7050 C   0  0  0  0  0  0  0  0  0  0  0  0
    4.5660  -17.4930    0.5070 C   0  0  0  0  0  0  0  0  0  0  0  0
    3.8900  -17.4480    1.7260 C   0  0  0  0  0  0  0  0  0  0  0  0
    4.6080  -17.5310   -2.0180 C   0  0  0  0  0  0  0  0  0  0  0  0
    4.9470  -16.1380   -2.6360 C   0  0  1  0  0  0  0  0  0  0  0  0
    5.4270  -15.1380   -1.5980 C   0  0  0  0  0  0  0  0  0  0  0  0
    6.8100  -15.0400   -1.2940 C   0  0  0  0  0  0  0  0  0  0  0  0
    7.2320  -14.2430   -0.2190 C   0  0  0  0  0  0  0  0  0  0  0  0
    6.2760  -13.5720    0.5170 C   0  0  0  0  0  0  0  0  0  0  0  0
    4.9410  -13.6130    0.1970 C   0  0  0  0  0  0  0  0  0  0  0  0
    4.4920  -14.3440   -0.8920 C   0  0  0  0  0  0  0  0  0  0  0  0
    3.1830  -14.3870   -1.3220 O   0  0  0  0  0  0  0  0  0  0  0  0
    2.3870  -13.2800   -1.1160 C   0  0  0  0  0  0  0  0  0  0  0  0
    1.3430  -13.4550   -0.2000 C   0  0  0  0  0  0  0  0  0  0  0  0
    0.5070  -12.3880    0.1620 C   0  0  0  0  0  0  0  0  0  0  0  0
    0.7160  -11.1390   -0.4510 C   0  0  0  0  0  0  0  0  0  0  0  0
    1.7110  -10.9960   -1.4420 C   0  0  0  0  0  0  0  0  0  0  0  0
    2.5490  -12.0610   -1.7850 C   0  0  0  0  0  0  0  0  0  0  0  0
    3.4980  -12.0130   -2.7730 O   0  0  0  0  0  0  0  0  0  0  0  0
    3.0970  -12.4560   -4.0660 C   0  0  0  0  0  0  0  0  0  0  0  0
   -0.1510   -9.9480   -0.1220 C   0  0  0  0  0  0  0  0  0  0  0  0
   -0.9280  -10.1120    1.1810 C   0  0  0  0  0  0  0  0  0  0  0  0
   -1.6030  -11.4610    1.2450 N   0  0  0  0  0  0  0  0  0  0  0  0
   -2.7060  -11.6320    0.2330 C   0  0  0  0  0  0  0  0  0  0  0  0
   -0.5810  -12.6050    1.2060 C   0  0  2  0  0  0  0  0  0  0  0  0
   -0.0120  -12.8530    2.6420 C   0  0  0  0  0  0  0  0  0  0  0  0
    4.1930  -12.8770    1.0670 O   0  0  0  0  0  0  0  0  0  0  0  0
    5.2080  -12.3780    1.9630 C   0  0  0  0  0  0  0  0  0  0  0  0
    6.5360  -12.7960    1.6000 O   0  0  0  0  0  0  0  0  0  0  0  0
    7.8630  -15.6860   -2.1630 C   0  0  0  0  0  0  0  0  0  0  0  0
    7.3530  -16.6870   -3.2010 C   0  0  0  0  0  0  0  0  0  0  0  0
    6.0060  -16.2700   -3.7420 N   0  0  0  0  0  0  0  0  0  0  0  0
    5.5750  -17.0890   -4.9210 C   0  0  0  0  0  0  0  0  0  0  0  0
   -0.2488  -18.0724    5.8877 H   0  0  0  0  0  0  0  0  0  0  0  0
   -1.6921  -19.0063    5.3669 H   0  0  0  0  0  0  0  0  0  0  0  0
   -0.0722  -19.7824    5.3669 H   0  0  0  0  0  0  0  0  0  0  0  0
   -2.4222  -16.5878    4.1681 H   0  0  0  0  0  0  0  0  0  0  0  0
   -2.2037  -14.1695    3.6208 H   0  0  0  0  0  0  0  0  0  0  0  0
    1.9483  -14.7730    2.5848 H   0  0  0  0  0  0  0  0  0  0  0  0
    0.6793  -17.4731    0.5738 H   0  0  0  0  0  0  0  0  0  0  0  0
    1.8844  -17.5245   -1.6111 H   0  0  0  0  0  0  0  0  0  0  0  0
    5.6656  -17.5178    0.4945 H   0  0  0  0  0  0  0  0  0  0  0  0
    4.4561  -17.4425    2.6691 H   0  0  0  0  0  0  0  0  0  0  0  0
    5.5549  -18.0663   -1.8542 H   0  0  0  0  0  0  0  0  0  0  0  0
    3.9345  -18.0196   -2.7375 H   0  0  0  0  0  0  0  0  0  0  0  0
    4.0083  -15.7568   -3.0644 H   0  0  0  0  0  0  0  0  0  0  0  0
    8.2995  -14.1549    0.0314 H   0  0  0  0  0  0  0  0  0  0  0  0
    1.1750  -14.4472    0.2441 H   0  0  0  0  0  0  0  0  0  0  0  0
    1.8291  -10.0293   -1.9535 H   0  0  0  0  0  0  0  0  0  0  0  0
    2.3620  -13.2680   -3.9638 H   0  0  0  0  0  0  0  0  0  0  0  0
    2.6438  -11.6183   -4.6164 H   0  0  0  0  0  0  0  0  0  0  0  0
    3.9755  -12.8238   -4.6164 H   0  0  0  0  0  0  0  0  0  0  0  0
    0.4926   -9.0601   -0.0359 H   0  0  0  0  0  0  0  0  0  0  0  0
   -0.8884   -9.8467   -0.9319 H   0  0  0  0  0  0  0  0  0  0  0  0
   -0.2328  -10.0175    2.0282 H   0  0  0  0  0  0  0  0  0  0  0  0
   -1.7018   -9.3315    1.2271 H   0  0  0  0  0  0  0  0  0  0  0  0
   -2.0780  -11.5070    2.1560 H   0  0  0  0  0  0  0  0  0  0  0  0
   -3.6628  -11.7803    0.7550 H   0  0  0  0  0  0  0  0  0  0  0  0
   -2.7678  -10.7327   -0.3974 H   0  0  0  0  0  0  0  0  0  0  0  0
   -2.4926  -12.5078   -0.3974 H   0  0  0  0  0  0  0  0  0  0  0  0
   -1.0979  -13.5204    0.8822 H   0  0  0  0  0  0  0  0  0  0  0  0
    1.0467  -12.5553    2.6647 H   0  0  0  0  0  0  0  0  0  0  0  0
   -0.5983  -12.2566    3.3565 H   0  0  0  0  0  0  0  0  0  0  0  0
    5.1725  -11.2786    1.9548 H   0  0  0  0  0  0  0  0  0  0  0  0
    4.9958  -12.7894    2.9609 H   0  0  0  0  0  0  0  0  0  0  0  0
    8.3941  -14.8859   -2.6994 H   0  0  0  0  0  0  0  0  0  0  0  0
    8.4982  -16.2665   -1.4778 H   0  0  0  0  0  0  0  0  0  0  0  0
    8.0725  -16.7416   -4.0313 H   0  0  0  0  0  0  0  0  0  0  0  0
    7.2464  -17.6689   -2.7168 H   0  0  0  0  0  0  0  0  0  0  0  0
    6.1210  -15.3110   -4.0960 H   0  0  0  0  0  0  0  0  0  0  0  0
    5.0897  -18.0113   -4.5691 H   0  0  0  0  0  0  0  0  0  0  0  0
    4.8647  -16.5101   -5.5296 H   0  0  0  0  0  0  0  0  0  0  0  0
    6.4543  -17.3467   -5.5296 H   0  0  0  0  0  0  0  0  0  0  0  0
  1  2  1  0
  2  3  1  0
  3  4  2  0
  4  5  1  0
  5  6  2  0
  6  7  1  0
  7  8  2  0
  8  9  1  0
  9 10  1  0
 10 11  2  0
 11 12  1  0
 12 13  2  0
 13 14  1  0
 14 15  2  0
 13 16  1  0
 16 17  1  0
 17 18  1  0
 18 19  1  0
 19 20  2  0
 20 21  1  0
 21 22  2  0
 22 23  1  0
 23 24  1  0
 24 25  1  0
 25 26  2  0
 26 27  1  0
 27 28  2  0
 28 29  1  0
 29 30  2  0
 30 31  1  0
 31 32  1  0
 28 33  1  0
 33 34  1  0
 34 35  1  0
 35 36  1  0
 35 37  1  0
 37 38  1  0
 22 39  1  0
 39 40  1  0
 40 41  1  0
 19 42  1  0
 42 43  1  0
 43 44  1  0
 44 45  1  0
  8  3  1  0
 15 10  1  0
 44 17  1  0
 38  6  1  0
 23 18  2  0
 30 25  1  0
 41 21  1  0
 37 27  1  0
  1 46  1  0
  1 47  1  0
  1 48  1  0
  4 49  1  0
  5 50  1  0
  7 51  1  0
 11 52  1  0
 12 53  1  0
 14 54  1  0
 15 55  1  0
 16 56  1  0
 16 57  1  0
 17 58  1  6
 20 59  1  0
 26 60  1  0
 29 61  1  0
 32 62  1  0
 32 63  1  0
 32 64  1  0
 33 65  1  0
 33 66  1  0
 34 67  1  0
 34 68  1  0
 35 69  1  0
 36 70  1  0
 36 71  1  0
 36 72  1  0
 37 73  1  6
 38 74  1  0
 38 75  1  0
 40 76  1  0
 40 77  1  0
 42 78  1  0
 42 79  1  0
 43 80  1  0
 43 81  1  0
 44 82  1  0
 45 83  1  0
 45 84  1  0
 45 85  1  0
M  CHG  2  35   1  44   1
M  END
>  <meeko>  (3) 
{"is_sidechain": [false], "free_energy": -6.783, "intermolecular_energy": -10.294, "internal_energy": -0.997}

$$$$
REF_CHEMBL449782__M_PUB_ALL__e8__s20260927
     RDKit          3D

 85 92  0  0  0  0  0  0  0  0999 V2000
    6.0330  -11.7610   -8.4780 C   0  0  0  0  0  0  0  0  0  0  0  0
    5.4500  -12.2240   -7.2650 O   0  0  0  0  0  0  0  0  0  0  0  0
    6.1480  -13.1580   -6.5490 C   0  0  0  0  0  0  0  0  0  0  0  0
    7.0950  -14.0340   -7.0820 C   0  0  0  0  0  0  0  0  0  0  0  0
    7.7280  -14.9810   -6.2650 C   0  0  0  0  0  0  0  0  0  0  0  0
    7.4360  -15.0580   -4.8960 C   0  0  0  0  0  0  0  0  0  0  0  0
    6.5130  -14.1570   -4.3550 C   0  0  0  0  0  0  0  0  0  0  0  0
    5.8450  -13.2460   -5.1840 C   0  0  0  0  0  0  0  0  0  0  0  0
    4.9200  -12.3730   -4.6500 O   0  0  0  0  0  0  0  0  0  0  0  0
    3.8490  -12.9350   -3.9920 C   0  0  0  0  0  0  0  0  0  0  0  0
    3.0680  -13.9570   -4.5360 C   0  0  0  0  0  0  0  0  0  0  0  0
    1.9800  -14.4650   -3.8190 C   0  0  0  0  0  0  0  0  0  0  0  0
    1.6540  -13.9380   -2.5620 C   0  0  0  0  0  0  0  0  0  0  0  0
    2.4250  -12.8840   -2.0450 C   0  0  0  0  0  0  0  0  0  0  0  0
    3.5150  -12.3850   -2.7580 C   0  0  0  0  0  0  0  0  0  0  0  0
    0.4910  -14.4820   -1.7600 C   0  0  0  0  0  0  0  0  0  0  0  0
    0.8420  -15.5810   -0.7090 C   0  0  1  0  0  0  0  0  0  0  0  0
    2.0850  -15.2450    0.0970 C   0  0  0  0  0  0  0  0  0  0  0  0
    1.9700  -14.5060    1.3030 C   0  0  0  0  0  0  0  0  0  0  0  0
    3.1270  -14.0500    1.9530 C   0  0  0  0  0  0  0  0  0  0  0  0
    4.3540  -14.3390    1.3920 C   0  0  0  0  0  0  0  0  0  0  0  0
    4.4800  -15.1020    0.2560 C   0  0  0  0  0  0  0  0  0  0  0  0
    3.3630  -15.6170   -0.3830 C   0  0  0  0  0  0  0  0  0  0  0  0
    3.4020  -16.4440   -1.4850 O   0  0  0  0  0  0  0  0  0  0  0  0
    4.4730  -17.3020   -1.6260 C   0  0  0  0  0  0  0  0  0  0  0  0
    5.2760  -17.0780   -2.7500 C   0  0  0  0  0  0  0  0  0  0  0  0
    6.4420  -17.8260   -2.9710 C   0  0  0  0  0  0  0  0  0  0  0  0
    6.7670  -18.8420   -2.0540 C   0  0  0  0  0  0  0  0  0  0  0  0
    5.9010  -19.1230   -0.9750 C   0  0  0  0  0  0  0  0  0  0  0  0
    4.7490  -18.3620   -0.7540 C   0  0  0  0  0  0  0  0  0  0  0  0
    3.8350  -18.6080    0.2370 O   0  0  0  0  0  0  0  0  0  0  0  0
    3.6700  -19.9670    0.6310 C   0  0  0  0  0  0  0  0  0  0  0  0
    7.9970  -19.6980   -2.2320 C   0  0  0  0  0  0  0  0  0  0  0  0
    9.0170  -19.0900   -3.1910 C   0  0  0  0  0  0  0  0  0  0  0  0
    8.3530  -18.6120   -4.4600 N   0  0  0  0  0  0  0  0  0  0  0  0
    7.7970  -19.7270   -5.3060 C   0  0  0  0  0  0  0  0  0  0  0  0
    7.3200  -17.5120   -4.1750 C   0  0  2  0  0  0  0  0  0  0  0  0
    8.0710  -16.1270   -4.0330 C   0  0  0  0  0  0  0  0  0  0  0  0
    5.7850  -15.2480   -0.1090 O   0  0  0  0  0  0  0  0  0  0  0  0
    6.4550  -14.4900    0.9210 C   0  0  0  0  0  0  0  0  0  0  0  0
    5.5500  -13.9340    1.8910 O   0  0  0  0  0  0  0  0  0  0  0  0
    0.6350  -14.2830    1.9750 C   0  0  0  0  0  0  0  0  0  0  0  0
   -0.5990  -14.6310    1.1430 C   0  0  0  0  0  0  0  0  0  0  0  0
   -0.3350  -15.8200    0.2500 N   0  0  0  0  0  0  0  0  0  0  0  0
   -1.5780  -16.3390   -0.4090 C   0  0  0  0  0  0  0  0  0  0  0  0
    6.8754  -11.0920   -8.2480 H   0  0  0  0  0  0  0  0  0  0  0  0
    6.3957  -12.6199   -9.0617 H   0  0  0  0  0  0  0  0  0  0  0  0
    5.2786  -11.2132   -9.0617 H   0  0  0  0  0  0  0  0  0  0  0  0
    7.3466  -13.9808   -8.1515 H   0  0  0  0  0  0  0  0  0  0  0  0
    8.4629  -15.6722   -6.7034 H   0  0  0  0  0  0  0  0  0  0  0  0
    6.3106  -14.1636   -3.2738 H   0  0  0  0  0  0  0  0  0  0  0  0
    3.3089  -14.3629   -5.5296 H   0  0  0  0  0  0  0  0  0  0  0  0
    1.3776  -15.2817   -4.2435 H   0  0  0  0  0  0  0  0  0  0  0  0
    2.1668  -12.4480   -1.0687 H   0  0  0  0  0  0  0  0  0  0  0  0
    4.1103  -11.5572   -2.3452 H   0  0  0  0  0  0  0  0  0  0  0  0
    0.0275  -13.6400   -1.2251 H   0  0  0  0  0  0  0  0  0  0  0  0
   -0.1717  -14.9695   -2.4902 H   0  0  0  0  0  0  0  0  0  0  0  0
    1.0473  -16.4974   -1.2817 H   0  0  0  0  0  0  0  0  0  0  0  0
    3.0574  -13.4753    2.8884 H   0  0  0  0  0  0  0  0  0  0  0  0
    4.9876  -16.3012   -3.4735 H   0  0  0  0  0  0  0  0  0  0  0  0
    6.1368  -19.9556   -0.2959 H   0  0  0  0  0  0  0  0  0  0  0  0
    3.6621  -20.0320    1.7290 H   0  0  0  0  0  0  0  0  0  0  0  0
    2.7186  -20.3509    0.2341 H   0  0  0  0  0  0  0  0  0  0  0  0
    4.5018  -20.5674    0.2341 H   0  0  0  0  0  0  0  0  0  0  0  0
    8.4756  -19.8313   -1.2506 H   0  0  0  0  0  0  0  0  0  0  0  0
    7.6703  -20.6550   -2.6648 H   0  0  0  0  0  0  0  0  0  0  0  0
    9.5083  -18.2373   -2.6995 H   0  0  0  0  0  0  0  0  0  0  0  0
    9.7544  -19.8631   -3.4526 H   0  0  0  0  0  0  0  0  0  0  0  0
    9.0930  -18.1940   -5.0370 H   0  0  0  0  0  0  0  0  0  0  0  0
    7.4017  -20.5198   -4.6540 H   0  0  0  0  0  0  0  0  0  0  0  0
    6.9879  -19.3370   -5.9410 H   0  0  0  0  0  0  0  0  0  0  0  0
    8.5954  -20.1386   -5.9410 H   0  0  0  0  0  0  0  0  0  0  0  0
    6.6226  -17.4546   -5.0238 H   0  0  0  0  0  0  0  0  0  0  0  0
    8.0327  -15.8063   -2.9815 H   0  0  0  0  0  0  0  0  0  0  0  0
    9.1110  -16.2639   -4.3643 H   0  0  0  0  0  0  0  0  0  0  0  0
    7.1611  -15.1540    1.4411 H   0  0  0  0  0  0  0  0  0  0  0  0
    6.9664  -13.6492    0.4295 H   0  0  0  0  0  0  0  0  0  0  0  0
    0.6103  -14.8973    2.8872 H   0  0  0  0  0  0  0  0  0  0  0  0
    0.5728  -13.2005    2.1603 H   0  0  0  0  0  0  0  0  0  0  0  0
   -1.4333  -14.8681    1.8196 H   0  0  0  0  0  0  0  0  0  0  0  0
   -0.8484  -13.7669    0.5096 H   0  0  0  0  0  0  0  0  0  0  0  0
   -0.0090  -16.5780    0.8650 H   0  0  0  0  0  0  0  0  0  0  0  0
   -2.3025  -16.6415    0.3614 H   0  0  0  0  0  0  0  0  0  0  0  0
   -2.0177  -15.5493   -1.0359 H   0  0  0  0  0  0  0  0  0  0  0  0
   -1.3256  -17.2069   -1.0359 H   0  0  0  0  0  0  0  0  0  0  0  0
  1  2  1  0
  2  3  1  0
  3  4  2  0
  4  5  1  0
  5  6  2  0
  6  7  1  0
  7  8  2  0
  8  9  1  0
  9 10  1  0
 10 11  2  0
 11 12  1  0
 12 13  2  0
 13 14  1  0
 14 15  2  0
 13 16  1  0
 16 17  1  0
 17 18  1  0
 18 19  1  0
 19 20  2  0
 20 21  1  0
 21 22  2  0
 22 23  1  0
 23 24  1  0
 24 25  1  0
 25 26  2  0
 26 27  1  0
 27 28  2  0
 28 29  1  0
 29 30  2  0
 30 31  1  0
 31 32  1  0
 28 33  1  0
 33 34  1  0
 34 35  1  0
 35 36  1  0
 35 37  1  0
 37 38  1  0
 22 39  1  0
 39 40  1  0
 40 41  1  0
 19 42  1  0
 42 43  1  0
 43 44  1  0
 44 45  1  0
  8  3  1  0
 15 10  1  0
 44 17  1  0
 38  6  1  0
 23 18  2  0
 30 25  1  0
 41 21  1  0
 37 27  1  0
  1 46  1  0
  1 47  1  0
  1 48  1  0
  4 49  1  0
  5 50  1  0
  7 51  1  0
 11 52  1  0
 12 53  1  0
 14 54  1  0
 15 55  1  0
 16 56  1  0
 16 57  1  0
 17 58  1  6
 20 59  1  0
 26 60  1  0
 29 61  1  0
 32 62  1  0
 32 63  1  0
 32 64  1  0
 33 65  1  0
 33 66  1  0
 34 67  1  0
 34 68  1  0
 35 69  1  0
 36 70  1  0
 36 71  1  0
 36 72  1  0
 37 73  1  6
 38 74  1  0
 38 75  1  0
 40 76  1  0
 40 77  1  0
 42 78  1  0
 42 79  1  0
 43 80  1  0
 43 81  1  0
 44 82  1  0
 45 83  1  0
 45 84  1  0
 45 85  1  0
M  CHG  2  35   1  44   1
M  END
>  <meeko>  (4) 
{"is_sidechain": [false], "free_energy": -6.307, "intermolecular_energy": -9.636, "internal_energy": -0.929}

$$$$
REF_CHEMBL449782__M_PUB_ALL__e8__s20260927
     RDKit          3D

 85 92  0  0  0  0  0  0  0  0999 V2000
    6.8510  -13.3650  -10.1000 C   0  0  0  0  0  0  0  0  0  0  0  0
    6.2930  -13.3700   -8.7910 O   0  0  0  0  0  0  0  0  0  0  0  0
    7.0070  -13.9940   -7.8060 C   0  0  0  0  0  0  0  0  0  0  0  0
    7.9400  -15.0130   -8.0130 C   0  0  0  0  0  0  0  0  0  0  0  0
    8.5920  -15.6120   -6.9270 C   0  0  0  0  0  0  0  0  0  0  0  0
    8.3360  -15.1920   -5.6130 C   0  0  0  0  0  0  0  0  0  0  0  0
    7.4290  -14.1470   -5.4090 C   0  0  0  0  0  0  0  0  0  0  0  0
    6.7410  -13.5850   -6.4930 C   0  0  0  0  0  0  0  0  0  0  0  0
    5.8310  -12.5690   -6.2850 O   0  0  0  0  0  0  0  0  0  0  0  0
    4.7790  -12.8460   -5.4400 C   0  0  0  0  0  0  0  0  0  0  0  0
    4.1180  -14.0760   -5.4200 C   0  0  0  0  0  0  0  0  0  0  0  0
    3.0410  -14.2790   -4.5510 C   0  0  0  0  0  0  0  0  0  0  0  0
    2.6050  -13.2450   -3.7120 C   0  0  0  0  0  0  0  0  0  0  0  0
    3.2570  -12.0010   -3.7700 C   0  0  0  0  0  0  0  0  0  0  0  0
    4.3350  -11.8040   -4.6320 C   0  0  0  0  0  0  0  0  0  0  0  0
    1.4530  -13.4460   -2.7520 C   0  0  0  0  0  0  0  0  0  0  0  0
    1.8050  -14.1430   -1.4000 C   0  0  1  0  0  0  0  0  0  0  0  0
    3.0520  -13.5690   -0.7510 C   0  0  0  0  0  0  0  0  0  0  0  0
    2.9450  -12.4770    0.1490 C   0  0  0  0  0  0  0  0  0  0  0  0
    4.1060  -11.8390    0.6110 C   0  0  0  0  0  0  0  0  0  0  0  0
    5.3300  -12.3010    0.1710 C   0  0  0  0  0  0  0  0  0  0  0  0
    5.4490  -13.3930   -0.6540 C   0  0  0  0  0  0  0  0  0  0  0  0
    4.3270  -14.0830   -1.0880 C   0  0  0  0  0  0  0  0  0  0  0  0
    4.3580  -15.2240   -1.8600 O   0  0  0  0  0  0  0  0  0  0  0  0
    5.4160  -16.0960   -1.7020 C   0  0  0  0  0  0  0  0  0  0  0  0
    6.2070  -16.2890   -2.8400 C   0  0  0  0  0  0  0  0  0  0  0  0
    7.3600  -17.0880   -2.7970 C   0  0  0  0  0  0  0  0  0  0  0  0
    7.6830  -17.7280   -1.5860 C   0  0  0  0  0  0  0  0  0  0  0  0
    6.8280  -17.6020   -0.4700 C   0  0  0  0  0  0  0  0  0  0  0  0
    5.6890  -16.7920   -0.5190 C   0  0  0  0  0  0  0  0  0  0  0  0
    4.7850  -16.6640    0.5030 O   0  0  0  0  0  0  0  0  0  0  0  0
    3.6060  -17.4590    0.4160 C   0  0  0  0  0  0  0  0  0  0  0  0
    8.9000  -18.6130   -1.4660 C   0  0  0  0  0  0  0  0  0  0  0  0
    9.9150  -18.3920   -2.5830 C   0  0  0  0  0  0  0  0  0  0  0  0
    9.2410  -18.3730   -3.9350 N   0  0  0  0  0  0  0  0  0  0  0  0
    8.6590  -19.7030   -4.3370 C   0  0  0  0  0  0  0  0  0  0  0  0
    8.2270  -17.2250   -4.0410 C   0  0  2  0  0  0  0  0  0  0  0  0
    8.9920  -15.8880   -4.4410 C   0  0  0  0  0  0  0  0  0  0  0  0
    6.7510  -13.6550   -0.9550 O   0  0  0  0  0  0  0  0  0  0  0  0
    7.4280  -12.6060   -0.2310 C   0  0  0  0  0  0  0  0  0  0  0  0
    6.5290  -11.7600    0.5080 O   0  0  0  0  0  0  0  0  0  0  0  0
    1.6140  -12.0410    0.7150 C   0  0  0  0  0  0  0  0  0  0  0  0
    0.3740  -12.6360    0.0450 C   0  0  0  0  0  0  0  0  0  0  0  0
    0.6310  -14.0520   -0.4120 N   0  0  0  0  0  0  0  0  0  0  0  0
   -0.6170  -14.7510   -0.8630 C   0  0  0  0  0  0  0  0  0  0  0  0
    7.9488  -13.3552  -10.0306 H   0  0  0  0  0  0  0  0  0  0  0  0
    6.5258  -14.2661  -10.6406 H   0  0  0  0  0  0  0  0  0  0  0  0
    6.5097  -12.4699  -10.6406 H   0  0  0  0  0  0  0  0  0  0  0  0
    8.1645  -15.3477   -9.0365 H   0  0  0  0  0  0  0  0  0  0  0  0
    9.3140  -16.4221   -7.1070 H   0  0  0  0  0  0  0  0  0  0  0  0
    7.2548  -13.7643   -4.3925 H   0  0  0  0  0  0  0  0  0  0  0  0
    4.4447  -14.8862   -6.0885 H   0  0  0  0  0  0  0  0  0  0  0  0
    2.5340  -15.2549   -4.5261 H   0  0  0  0  0  0  0  0  0  0  0  0
    2.9136  -11.1754   -3.1294 H   0  0  0  0  0  0  0  0  0  0  0  0
    4.8344  -10.8248   -4.6733 H   0  0  0  0  0  0  0  0  0  0  0  0
    1.0303  -12.4570   -2.5212 H   0  0  0  0  0  0  0  0  0  0  0  0
    0.7545  -14.1246   -3.2635 H   0  0  0  0  0  0  0  0  0  0  0  0
    2.0053  -15.1968   -1.6436 H   0  0  0  0  0  0  0  0  0  0  0  0
    4.0423  -10.9902    1.3078 H   0  0  0  0  0  0  0  0  0  0  0  0
    5.9199  -15.8057   -3.7855 H   0  0  0  0  0  0  0  0  0  0  0  0
    7.0617  -18.1505    0.4544 H   0  0  0  0  0  0  0  0  0  0  0  0
    3.2501  -17.6990    1.4288 H   0  0  0  0  0  0  0  0  0  0  0  0
    2.8267  -16.9012   -0.1240 H   0  0  0  0  0  0  0  0  0  0  0  0
    3.8309  -18.3906   -0.1240 H   0  0  0  0  0  0  0  0  0  0  0  0
    9.3893  -18.4062   -0.5028 H   0  0  0  0  0  0  0  0  0  0  0  0
    8.5553  -19.6551   -1.5384 H   0  0  0  0  0  0  0  0  0  0  0  0
   10.4231  -17.4299   -2.4214 H   0  0  0  0  0  0  0  0  0  0  0  0
   10.6393  -19.2197   -2.5655 H   0  0  0  0  0  0  0  0  0  0  0  0
    9.9800  -18.1940   -4.6270 H   0  0  0  0  0  0  0  0  0  0  0  0
    8.4064  -20.2803   -3.4354 H   0  0  0  0  0  0  0  0  0  0  0  0
    7.7500  -19.5399   -4.9346 H   0  0  0  0  0  0  0  0  0  0  0  0
    9.3956  -20.2600   -4.9346 H   0  0  0  0  0  0  0  0  0  0  0  0
    7.5071  -17.4547   -4.8404 H   0  0  0  0  0  0  0  0  0  0  0  0
    8.9924  -15.2066   -3.5775 H   0  0  0  0  0  0  0  0  0  0  0  0
   10.0175  -16.1567   -4.7345 H   0  0  0  0  0  0  0  0  0  0  0  0
    8.1345  -13.0673    0.4748 H   0  0  0  0  0  0  0  0  0  0  0  0
    7.9397  -11.9736   -0.9715 H   0  0  0  0  0  0  0  0  0  0  0  0
    1.5910  -12.3240    1.7777 H   0  0  0  0  0  0  0  0  0  0  0  0
    1.5564  -10.9570    0.5370 H   0  0  0  0  0  0  0  0  0  0  0  0
   -0.4582  -12.6359    0.7643 H   0  0  0  0  0  0  0  0  0  0  0  0
    0.1242  -12.0244   -0.8345 H   0  0  0  0  0  0  0  0  0  0  0  0
    0.9570  -14.5690    0.4150 H   0  0  0  0  0  0  0  0  0  0  0  0
   -1.1942  -15.0743    0.0158 H   0  0  0  0  0  0  0  0  0  0  0  0
   -1.2250  -14.0621   -1.4678 H   0  0  0  0  0  0  0  0  0  0  0  0
   -0.3472  -15.6293   -1.4678 H   0  0  0  0  0  0  0  0  0  0  0  0
  1  2  1  0
  2  3  1  0
  3  4  2  0
  4  5  1  0
  5  6  2  0
  6  7  1  0
  7  8  2  0
  8  9  1  0
  9 10  1  0
 10 11  2  0
 11 12  1  0
 12 13  2  0
 13 14  1  0
 14 15  2  0
 13 16  1  0
 16 17  1  0
 17 18  1  0
 18 19  1  0
 19 20  2  0
 20 21  1  0
 21 22  2  0
 22 23  1  0
 23 24  1  0
 24 25  1  0
 25 26  2  0
 26 27  1  0
 27 28  2  0
 28 29  1  0
 29 30  2  0
 30 31  1  0
 31 32  1  0
 28 33  1  0
 33 34  1  0
 34 35  1  0
 35 36  1  0
 35 37  1  0
 37 38  1  0
 22 39  1  0
 39 40  1  0
 40 41  1  0
 19 42  1  0
 42 43  1  0
 43 44  1  0
 44 45  1  0
  8  3  1  0
 15 10  1  0
 44 17  1  0
 38  6  1  0
 23 18  2  0
 30 25  1  0
 41 21  1  0
 37 27  1  0
  1 46  1  0
  1 47  1  0
  1 48  1  0
  4 49  1  0
  5 50  1  0
  7 51  1  0
 11 52  1  0
 12 53  1  0
 14 54  1  0
 15 55  1  0
 16 56  1  0
 16 57  1  0
 17 58  1  6
 20 59  1  0
 26 60  1  0
 29 61  1  0
 32 62  1  0
 32 63  1  0
 32 64  1  0
 33 65  1  0
 33 66  1  0
 34 67  1  0
 34 68  1  0
 35 69  1  0
 36 70  1  0
 36 71  1  0
 36 72  1  0
 37 73  1  6
 38 74  1  0
 38 75  1  0
 40 76  1  0
 40 77  1  0
 42 78  1  0
 42 79  1  0
 43 80  1  0
 43 81  1  0
 44 82  1  0
 45 83  1  0
 45 84  1  0
 45 85  1  0
M  CHG  2  35   1  44   1
M  END
>  <meeko>  (5) 
{"is_sidechain": [false], "free_energy": -6.219, "intermolecular_energy": -9.407, "internal_energy": -1.024}

$$$$
REF_CHEMBL449782__M_PUB_ALL__e8__s20260927
     RDKit          3D

 85 92  0  0  0  0  0  0  0  0999 V2000
    1.9750  -20.4770    5.1220 C   0  0  0  0  0  0  0  0  0  0  0  0
    2.2000  -19.9420    3.8220 O   0  0  0  0  0  0  0  0  0  0  0  0
    2.0060  -18.5980    3.6540 C   0  0  0  0  0  0  0  0  0  0  0  0
    1.6010  -17.7140    4.6560 C   0  0  0  0  0  0  0  0  0  0  0  0
    1.3940  -16.3580    4.3680 C   0  0  0  0  0  0  0  0  0  0  0  0
    1.6050  -15.8580    3.0750 C   0  0  0  0  0  0  0  0  0  0  0  0
    2.0450  -16.7370    2.0790 C   0  0  0  0  0  0  0  0  0  0  0  0
    2.2010  -18.1010    2.3590 C   0  0  0  0  0  0  0  0  0  0  0  0
    2.6150  -18.9680    1.3690 O   0  0  0  0  0  0  0  0  0  0  0  0
    3.6330  -18.5300    0.5520 C   0  0  0  0  0  0  0  0  0  0  0  0
    3.4260  -18.0870   -0.7570 C   0  0  0  0  0  0  0  0  0  0  0  0
    4.5120  -17.6780   -1.5380 C   0  0  0  0  0  0  0  0  0  0  0  0
    5.8130  -17.7290   -1.0220 C   0  0  0  0  0  0  0  0  0  0  0  0
    6.0090  -18.2120    0.2830 C   0  0  0  0  0  0  0  0  0  0  0  0
    4.9250  -18.6120    1.0630 C   0  0  0  0  0  0  0  0  0  0  0  0
    7.0020  -17.2750   -1.8430 C   0  0  0  0  0  0  0  0  0  0  0  0
    6.7970  -15.9720   -2.6770 C   0  0  1  0  0  0  0  0  0  0  0  0
    7.0430  -14.7120   -1.8660 C   0  0  0  0  0  0  0  0  0  0  0  0
    8.3460  -14.1500   -1.8060 C   0  0  0  0  0  0  0  0  0  0  0  0
    8.6070  -13.0920   -0.9230 C   0  0  0  0  0  0  0  0  0  0  0  0
    7.5780  -12.6260   -0.1320 C   0  0  0  0  0  0  0  0  0  0  0  0
    6.3000  -13.1230   -0.2210 C   0  0  0  0  0  0  0  0  0  0  0  0
    5.9900  -14.1310   -1.1220 C   0  0  0  0  0  0  0  0  0  0  0  0
    4.7250  -14.6400   -1.3240 O   0  0  0  0  0  0  0  0  0  0  0  0
    3.6400  -13.8390   -1.0330 C   0  0  0  0  0  0  0  0  0  0  0  0
    2.7200  -14.3830   -0.1300 C   0  0  0  0  0  0  0  0  0  0  0  0
    1.6120  -13.6440    0.3140 C   0  0  0  0  0  0  0  0  0  0  0  0
    1.4230  -12.3500   -0.2050 C   0  0  0  0  0  0  0  0  0  0  0  0
    2.3050  -11.8460   -1.1850 C   0  0  0  0  0  0  0  0  0  0  0  0
    3.4140  -12.5840   -1.6100 C   0  0  0  0  0  0  0  0  0  0  0  0
    4.2810  -12.1850   -2.5940 O   0  0  0  0  0  0  0  0  0  0  0  0
    3.7450  -11.3520   -3.6180 C   0  0  0  0  0  0  0  0  0  0  0  0
    0.2480  -11.4990    0.2140 C   0  0  0  0  0  0  0  0  0  0  0  0
   -0.4100  -11.9800    1.5040 C   0  0  0  0  0  0  0  0  0  0  0  0
   -0.6500  -13.4710    1.4690 N   0  0  0  0  0  0  0  0  0  0  0  0
   -1.6770  -13.8930    0.4500 C   0  0  0  0  0  0  0  0  0  0  0  0
    0.6660  -14.2500    1.3420 C   0  0  2  0  0  0  0  0  0  0  0  0
    1.3150  -14.4080    2.7540 C   0  0  0  0  0  0  0  0  0  0  0  0
    5.4600  -12.5100    0.6600 O   0  0  0  0  0  0  0  0  0  0  0  0
    6.3550  -11.5820    1.3090 C   0  0  0  0  0  0  0  0  0  0  0  0
    7.6950  -11.6340    0.7890 O   0  0  0  0  0  0  0  0  0  0  0  0
    9.4430  -14.5860   -2.7480 C   0  0  0  0  0  0  0  0  0  0  0  0
    9.1690  -15.8560   -3.5540 C   0  0  0  0  0  0  0  0  0  0  0  0
    7.7060  -15.9650   -3.9160 N   0  0  0  0  0  0  0  0  0  0  0  0
    7.4310  -17.0650   -4.8960 C   0  0  0  0  0  0  0  0  0  0  0  0
    2.2842  -19.7418    5.8796 H   0  0  0  0  0  0  0  0  0  0  0  0
    0.9056  -20.7031    5.2454 H   0  0  0  0  0  0  0  0  0  0  0  0
    2.5614  -21.3994    5.2454 H   0  0  0  0  0  0  0  0  0  0  0  0
    1.4431  -18.0847    5.6796 H   0  0  0  0  0  0  0  0  0  0  0  0
    1.0620  -15.6777    5.1661 H   0  0  0  0  0  0  0  0  0  0  0  0
    2.2694  -16.3555    1.0720 H   0  0  0  0  0  0  0  0  0  0  0  0
    2.4083  -18.0599   -1.1736 H   0  0  0  0  0  0  0  0  0  0  0  0
    4.3434  -17.3145   -2.5624 H   0  0  0  0  0  0  0  0  0  0  0  0
    7.0277  -18.2751    0.6931 H   0  0  0  0  0  0  0  0  0  0  0  0
    5.0907  -18.9922    2.0818 H   0  0  0  0  0  0  0  0  0  0  0  0
    7.8424  -17.1053   -1.1538 H   0  0  0  0  0  0  0  0  0  0  0  0
    7.1787  -18.0741   -2.5780 H   0  0  0  0  0  0  0  0  0  0  0  0
    5.7423  -15.9713   -2.9895 H   0  0  0  0  0  0  0  0  0  0  0  0
    9.6099  -12.6441   -0.8628 H   0  0  0  0  0  0  0  0  0  0  0  0
    2.8676  -15.4087    0.2389 H   0  0  0  0  0  0  0  0  0  0  0  0
    2.1165  -10.8545   -1.6224 H   0  0  0  0  0  0  0  0  0  0  0  0
    3.2037  -10.5108   -3.1605 H   0  0  0  0  0  0  0  0  0  0  0  0
    4.5640  -10.9650   -4.2421 H   0  0  0  0  0  0  0  0  0  0  0  0
    3.0534  -11.9370   -4.2421 H   0  0  0  0  0  0  0  0  0  0  0  0
    0.5988  -10.4672    0.3636 H   0  0  0  0  0  0  0  0  0  0  0  0
   -0.5064  -11.5661   -0.5837 H   0  0  0  0  0  0  0  0  0  0  0  0
    0.2475  -11.7418    2.3531 H   0  0  0  0  0  0  0  0  0  0  0  0
   -1.3799  -11.4725    1.6117 H   0  0  0  0  0  0  0  0  0  0  0  0
   -1.0670  -13.7210    2.3750 H   0  0  0  0  0  0  0  0  0  0  0  0
   -2.5755  -14.2622    0.9662 H   0  0  0  0  0  0  0  0  0  0  0  0
   -1.9439  -13.0317   -0.1800 H   0  0  0  0  0  0  0  0  0  0  0  0
   -1.2612  -14.6932   -0.1800 H   0  0  0  0  0  0  0  0  0  0  0  0
    0.4424  -15.2543    0.9529 H   0  0  0  0  0  0  0  0  0  0  0  0
    2.2576  -13.8415    2.7790 H   0  0  0  0  0  0  0  0  0  0  0  0
    0.6063  -14.0250    3.5031 H   0  0  0  0  0  0  0  0  0  0  0  0
    5.9645  -10.5631    1.1695 H   0  0  0  0  0  0  0  0  0  0  0  0
    6.4042  -11.8620    2.3716 H   0  0  0  0  0  0  0  0  0  0  0  0
    9.6200  -13.7669   -3.4605 H   0  0  0  0  0  0  0  0  0  0  0  0
   10.3067  -14.8211   -2.1087 H   0  0  0  0  0  0  0  0  0  0  0  0
    9.7667  -15.8317   -4.4771 H   0  0  0  0  0  0  0  0  0  0  0  0
    9.4427  -16.7261   -2.9392 H   0  0  0  0  0  0  0  0  0  0  0  0
    7.4630  -15.0910   -4.4020 H   0  0  0  0  0  0  0  0  0  0  0  0
    7.1992  -17.9920   -4.3511 H   0  0  0  0  0  0  0  0  0  0  0  0
    6.5746  -16.7873   -5.5281 H   0  0  0  0  0  0  0  0  0  0  0  0
    8.3173  -17.2230   -5.5281 H   0  0  0  0  0  0  0  0  0  0  0  0
  1  2  1  0
  2  3  1  0
  3  4  2  0
  4  5  1  0
  5  6  2  0
  6  7  1  0
  7  8  2  0
  8  9  1  0
  9 10  1  0
 10 11  2  0
 11 12  1  0
 12 13  2  0
 13 14  1  0
 14 15  2  0
 13 16  1  0
 16 17  1  0
 17 18  1  0
 18 19  1  0
 19 20  2  0
 20 21  1  0
 21 22  2  0
 22 23  1  0
 23 24  1  0
 24 25  1  0
 25 26  2  0
 26 27  1  0
 27 28  2  0
 28 29  1  0
 29 30  2  0
 30 31  1  0
 31 32  1  0
 28 33  1  0
 33 34  1  0
 34 35  1  0
 35 36  1  0
 35 37  1  0
 37 38  1  0
 22 39  1  0
 39 40  1  0
 40 41  1  0
 19 42  1  0
 42 43  1  0
 43 44  1  0
 44 45  1  0
  8  3  1  0
 15 10  1  0
 44 17  1  0
 38  6  1  0
 23 18  2  0
 30 25  1  0
 41 21  1  0
 37 27  1  0
  1 46  1  0
  1 47  1  0
  1 48  1  0
  4 49  1  0
  5 50  1  0
  7 51  1  0
 11 52  1  0
 12 53  1  0
 14 54  1  0
 15 55  1  0
 16 56  1  0
 16 57  1  0
 17 58  1  6
 20 59  1  0
 26 60  1  0
 29 61  1  0
 32 62  1  0
 32 63  1  0
 32 64  1  0
 33 65  1  0
 33 66  1  0
 34 67  1  0
 34 68  1  0
 35 69  1  0
 36 70  1  0
 36 71  1  0
 36 72  1  0
 37 73  1  6
 38 74  1  0
 38 75  1  0
 40 76  1  0
 40 77  1  0
 42 78  1  0
 42 79  1  0
 43 80  1  0
 43 81  1  0
 44 82  1  0
 45 83  1  0
 45 84  1  0
 45 85  1  0
M  CHG  2  35   1  44   1
M  END
>  <meeko>  (6) 
{"is_sidechain": [false], "free_energy": -6.102, "intermolecular_energy": -10.203, "internal_energy": -0.048}

$$$$
REF_CHEMBL449782__M_PUB_ALL__e8__s20260927
     RDKit          3D

 85 92  0  0  0  0  0  0  0  0999 V2000
    8.8070  -20.6600    0.3810 C   0  0  0  0  0  0  0  0  0  0  0  0
    7.6500  -20.1920   -0.3040 O   0  0  0  0  0  0  0  0  0  0  0  0
    7.6930  -18.9250   -0.8170 C   0  0  0  0  0  0  0  0  0  0  0  0
    8.8570  -18.1780   -1.0150 C   0  0  0  0  0  0  0  0  0  0  0  0
    8.7870  -16.8700   -1.5130 C   0  0  0  0  0  0  0  0  0  0  0  0
    7.5530  -16.2900   -1.8380 C   0  0  0  0  0  0  0  0  0  0  0  0
    6.3900  -17.0500   -1.6730 C   0  0  0  0  0  0  0  0  0  0  0  0
    6.4600  -18.3390   -1.1260 C   0  0  0  0  0  0  0  0  0  0  0  0
    5.3080  -19.0770   -0.9460 O   0  0  0  0  0  0  0  0  0  0  0  0
    4.3430  -18.5260   -0.1320 C   0  0  0  0  0  0  0  0  0  0  0  0
    4.6070  -18.0510    1.1540 C   0  0  0  0  0  0  0  0  0  0  0  0
    3.5720  -17.5250    1.9340 C   0  0  0  0  0  0  0  0  0  0  0  0
    2.2610  -17.4910    1.4380 C   0  0  0  0  0  0  0  0  0  0  0  0
    2.0050  -18.0080    0.1570 C   0  0  0  0  0  0  0  0  0  0  0  0
    3.0400  -18.5250   -0.6210 C   0  0  0  0  0  0  0  0  0  0  0  0
    1.1280  -16.9120    2.2560 C   0  0  0  0  0  0  0  0  0  0  0  0
    0.7670  -15.4220    1.9640 C   0  0  1  0  0  0  0  0  0  0  0  0
    0.7120  -15.1120    0.4790 C   0  0  0  0  0  0  0  0  0  0  0  0
   -0.5070  -15.2670   -0.2330 C   0  0  0  0  0  0  0  0  0  0  0  0
   -0.5170  -15.1480   -1.6310 C   0  0  0  0  0  0  0  0  0  0  0  0
    0.6730  -14.8820   -2.2770 C   0  0  0  0  0  0  0  0  0  0  0  0
    1.8470  -14.6730   -1.5950 C   0  0  0  0  0  0  0  0  0  0  0  0
    1.8860  -14.7270   -0.2100 C   0  0  0  0  0  0  0  0  0  0  0  0
    3.0030  -14.4660    0.5530 O   0  0  0  0  0  0  0  0  0  0  0  0
    3.9180  -13.5460    0.0870 C   0  0  0  0  0  0  0  0  0  0  0  0
    5.1910  -14.0560   -0.1940 C   0  0  0  0  0  0  0  0  0  0  0  0
    6.1930  -13.2450   -0.7490 C   0  0  0  0  0  0  0  0  0  0  0  0
    5.9010  -11.8880   -0.9800 C   0  0  0  0  0  0  0  0  0  0  0  0
    4.6450  -11.3620   -0.6070 C   0  0  0  0  0  0  0  0  0  0  0  0
    3.6480  -12.1810   -0.0680 C   0  0  0  0  0  0  0  0  0  0  0  0
    2.4280  -11.7330    0.3670 O   0  0  0  0  0  0  0  0  0  0  0  0
    1.5680  -11.1660   -0.6170 C   0  0  0  0  0  0  0  0  0  0  0  0
    6.9320  -10.9510   -1.5620 C   0  0  0  0  0  0  0  0  0  0  0  0
    8.0870  -11.6790   -2.2440 C   0  0  0  0  0  0  0  0  0  0  0  0
    8.6200  -12.7910   -1.3720 N   0  0  0  0  0  0  0  0  0  0  0  0
    9.2930  -12.3020   -0.1160 C   0  0  0  0  0  0  0  0  0  0  0  0
    7.5460  -13.8520   -1.0950 C   0  0  2  0  0  0  0  0  0  0  0  0
    7.4770  -14.8540   -2.3100 C   0  0  0  0  0  0  0  0  0  0  0  0
    2.8850  -14.4320   -2.4450 O   0  0  0  0  0  0  0  0  0  0  0  0
    2.2280  -14.5160   -3.7280 C   0  0  0  0  0  0  0  0  0  0  0  0
    0.8170  -14.7750   -3.6230 O   0  0  0  0  0  0  0  0  0  0  0  0
   -1.8260  -15.4500    0.4810 C   0  0  0  0  0  0  0  0  0  0  0  0
   -1.7420  -15.7580    1.9760 C   0  0  0  0  0  0  0  0  0  0  0  0
   -0.5740  -15.0430    2.6130 N   0  0  0  0  0  0  0  0  0  0  0  0
   -0.5870  -15.1280    4.1090 C   0  0  0  0  0  0  0  0  0  0  0  0
    8.6424  -20.5934    1.4666 H   0  0  0  0  0  0  0  0  0  0  0  0
    8.9995  -21.7067    0.1028 H   0  0  0  0  0  0  0  0  0  0  0  0
    9.6731  -20.0415    0.1028 H   0  0  0  0  0  0  0  0  0  0  0  0
    9.8360  -18.6201   -0.7781 H   0  0  0  0  0  0  0  0  0  0  0  0
    9.7122  -16.2911   -1.6506 H   0  0  0  0  0  0  0  0  0  0  0  0
    5.4168  -16.6346   -1.9736 H   0  0  0  0  0  0  0  0  0  0  0  0
    5.6307  -18.0905    1.5545 H   0  0  0  0  0  0  0  0  0  0  0  0
    3.7874  -17.1365    2.9403 H   0  0  0  0  0  0  0  0  0  0  0  0
    0.9776  -18.0049   -0.2361 H   0  0  0  0  0  0  0  0  0  0  0  0
    2.8269  -18.9318   -1.6206 H   0  0  0  0  0  0  0  0  0  0  0  0
    0.2308  -17.5194    2.0660 H   0  0  0  0  0  0  0  0  0  0  0  0
    1.4734  -16.9349    3.3001 H   0  0  0  0  0  0  0  0  0  0  0  0
    1.5756  -14.8203    2.4045 H   0  0  0  0  0  0  0  0  0  0  0  0
   -1.4519  -15.2641   -2.1989 H   0  0  0  0  0  0  0  0  0  0  0  0
    5.4100  -15.1117    0.0242 H   0  0  0  0  0  0  0  0  0  0  0  0
    4.4472  -10.2885   -0.7429 H   0  0  0  0  0  0  0  0  0  0  0  0
    0.7486  -10.6257   -0.1204 H   0  0  0  0  0  0  0  0  0  0  0  0
    2.1401  -10.4674   -1.2452 H   0  0  0  0  0  0  0  0  0  0  0  0
    1.1513  -11.9671   -1.2452 H   0  0  0  0  0  0  0  0  0  0  0  0
    6.4389  -10.3052   -2.3035 H   0  0  0  0  0  0  0  0  0  0  0  0
    7.3563  -10.3723   -0.7283 H   0  0  0  0  0  0  0  0  0  0  0  0
    7.7318  -12.1060   -3.1935 H   0  0  0  0  0  0  0  0  0  0  0  0
    8.8974  -10.9571   -2.4236 H   0  0  0  0  0  0  0  0  0  0  0  0
    9.3700  -13.2470   -1.9070 H   0  0  0  0  0  0  0  0  0  0  0  0
    8.7573  -12.6912    0.7624 H   0  0  0  0  0  0  0  0  0  0  0  0
   10.3345  -12.6555   -0.0966 H   0  0  0  0  0  0  0  0  0  0  0  0
    9.2786  -11.2023   -0.0966 H   0  0  0  0  0  0  0  0  0  0  0  0
    7.8348  -14.4161   -0.1959 H   0  0  0  0  0  0  0  0  0  0  0  0
    6.5292  -14.7023   -2.8472 H   0  0  0  0  0  0  0  0  0  0  0  0
    8.3330  -14.6586   -2.9726 H   0  0  0  0  0  0  0  0  0  0  0  0
    2.3705  -13.5624   -4.2575 H   0  0  0  0  0  0  0  0  0  0  0  0
    2.6770  -15.3600   -4.2720 H   0  0  0  0  0  0  0  0  0  0  0  0
   -2.4053  -14.5227    0.3605 H   0  0  0  0  0  0  0  0  0  0  0  0
   -2.2914  -16.3346    0.0218 H   0  0  0  0  0  0  0  0  0  0  0  0
   -2.6725  -15.4311    2.4631 H   0  0  0  0  0  0  0  0  0  0  0  0
   -1.5998  -16.8414    2.1024 H   0  0  0  0  0  0  0  0  0  0  0  0
   -0.6890  -14.0450    2.3900 H   0  0  0  0  0  0  0  0  0  0  0  0
   -0.4336  -14.1253    4.5346 H   0  0  0  0  0  0  0  0  0  0  0  0
   -1.5563  -15.5248    4.4453 H   0  0  0  0  0  0  0  0  0  0  0  0
    0.2194  -15.7963    4.4453 H   0  0  0  0  0  0  0  0  0  0  0  0
  1  2  1  0
  2  3  1  0
  3  4  2  0
  4  5  1  0
  5  6  2  0
  6  7  1  0
  7  8  2  0
  8  9  1  0
  9 10  1  0
 10 11  2  0
 11 12  1  0
 12 13  2  0
 13 14  1  0
 14 15  2  0
 13 16  1  0
 16 17  1  0
 17 18  1  0
 18 19  1  0
 19 20  2  0
 20 21  1  0
 21 22  2  0
 22 23  1  0
 23 24  1  0
 24 25  1  0
 25 26  2  0
 26 27  1  0
 27 28  2  0
 28 29  1  0
 29 30  2  0
 30 31  1  0
 31 32  1  0
 28 33  1  0
 33 34  1  0
 34 35  1  0
 35 36  1  0
 35 37  1  0
 37 38  1  0
 22 39  1  0
 39 40  1  0
 40 41  1  0
 19 42  1  0
 42 43  1  0
 43 44  1  0
 44 45  1  0
  8  3  1  0
 15 10  1  0
 44 17  1  0
 38  6  1  0
 23 18  2  0
 30 25  1  0
 41 21  1  0
 37 27  1  0
  1 46  1  0
  1 47  1  0
  1 48  1  0
  4 49  1  0
  5 50  1  0
  7 51  1  0
 11 52  1  0
 12 53  1  0
 14 54  1  0
 15 55  1  0
 16 56  1  0
 16 57  1  0
 17 58  1  1
 20 59  1  0
 26 60  1  0
 29 61  1  0
 32 62  1  0
 32 63  1  0
 32 64  1  0
 33 65  1  0
 33 66  1  0
 34 67  1  0
 34 68  1  0
 35 69  1  0
 36 70  1  0
 36 71  1  0
 36 72  1  0
 37 73  1  1
 38 74  1  0
 38 75  1  0
 40 76  1  0
 40 77  1  0
 42 78  1  0
 42 79  1  0
 43 80  1  0
 43 81  1  0
 44 82  1  0
 45 83  1  0
 45 84  1  0
 45 85  1  0
M  CHG  2  35   1  44   1
M  END
>  <meeko>  (7) 
{"is_sidechain": [false], "free_energy": -5.839, "intermolecular_energy": -8.856, "internal_energy": -0.995}

$$$$
REF_CHEMBL449782__M_PUB_ALL__e8__s20260927
     RDKit          3D

 85 92  0  0  0  0  0  0  0  0999 V2000
    6.6640  -11.5550   -9.1850 C   0  0  0  0  0  0  0  0  0  0  0  0
    6.4870  -12.9640   -9.0960 O   0  0  0  0  0  0  0  0  0  0  0  0
    7.5830  -13.7170   -8.7770 C   0  0  0  0  0  0  0  0  0  0  0  0
    8.8130  -13.6630   -9.4360 C   0  0  0  0  0  0  0  0  0  0  0  0
    9.8640  -14.5060   -9.0510 C   0  0  0  0  0  0  0  0  0  0  0  0
    9.7100  -15.4080   -7.9890 C   0  0  0  0  0  0  0  0  0  0  0  0
    8.4900  -15.4370   -7.3050 C   0  0  0  0  0  0  0  0  0  0  0  0
    7.4250  -14.6290   -7.7260 C   0  0  0  0  0  0  0  0  0  0  0  0
    6.2160  -14.6750   -7.0620 O   0  0  0  0  0  0  0  0  0  0  0  0
    6.2530  -14.4780   -5.6990 C   0  0  0  0  0  0  0  0  0  0  0  0
    5.8000  -15.4250   -4.7780 C   0  0  0  0  0  0  0  0  0  0  0  0
    5.8460  -15.1470   -3.4080 C   0  0  0  0  0  0  0  0  0  0  0  0
    6.3270  -13.9120   -2.9530 C   0  0  0  0  0  0  0  0  0  0  0  0
    6.7440  -12.9560   -3.8940 C   0  0  0  0  0  0  0  0  0  0  0  0
    6.7040  -13.2380   -5.2590 C   0  0  0  0  0  0  0  0  0  0  0  0
    6.4020  -13.5950   -1.4750 C   0  0  0  0  0  0  0  0  0  0  0  0
    7.5490  -14.2980   -0.6840 C   0  0  1  0  0  0  0  0  0  0  0  0
    8.9300  -13.8670   -1.1470 C   0  0  0  0  0  0  0  0  0  0  0  0
    9.5630  -12.7480   -0.5460 C   0  0  0  0  0  0  0  0  0  0  0  0
   10.7570  -12.2480   -1.0890 C   0  0  0  0  0  0  0  0  0  0  0  0
   11.2820  -12.8680   -2.2030 C   0  0  0  0  0  0  0  0  0  0  0  0
   10.7100  -13.9870   -2.7600 C   0  0  0  0  0  0  0  0  0  0  0  0
    9.5610  -14.5430   -2.2180 C   0  0  0  0  0  0  0  0  0  0  0  0
    8.9610  -15.6980   -2.6710 O   0  0  0  0  0  0  0  0  0  0  0  0
    9.7490  -16.6570   -3.2730 C   0  0  0  0  0  0  0  0  0  0  0  0
    9.6180  -16.7540   -4.6630 C   0  0  0  0  0  0  0  0  0  0  0  0
   10.4180  -17.6320   -5.4090 C   0  0  0  0  0  0  0  0  0  0  0  0
   11.3330  -18.4490   -4.7200 C   0  0  0  0  0  0  0  0  0  0  0  0
   11.3920  -18.4110   -3.3100 C   0  0  0  0  0  0  0  0  0  0  0  0
   10.6010  -17.5210   -2.5760 C   0  0  0  0  0  0  0  0  0  0  0  0
   10.5640  -17.4650   -1.2080 O   0  0  0  0  0  0  0  0  0  0  0  0
   11.8190  -17.4720   -0.5340 C   0  0  0  0  0  0  0  0  0  0  0  0
   12.2190  -19.4280   -5.4530 C   0  0  0  0  0  0  0  0  0  0  0  0
   12.3300  -19.1340   -6.9460 C   0  0  0  0  0  0  0  0  0  0  0  0
   10.9700  -18.8870   -7.5550 N   0  0  0  0  0  0  0  0  0  0  0  0
   10.0850  -20.1070   -7.5690 C   0  0  0  0  0  0  0  0  0  0  0  0
   10.2860  -17.6660   -6.9260 C   0  0  2  0  0  0  0  0  0  0  0  0
   10.8250  -16.3640   -7.6220 C   0  0  0  0  0  0  0  0  0  0  0  0
   11.4040  -14.4150   -3.8520 O   0  0  0  0  0  0  0  0  0  0  0  0
   12.4670  -13.4410   -3.9150 C   0  0  0  0  0  0  0  0  0  0  0  0
   12.4070  -12.4730   -2.8530 O   0  0  0  0  0  0  0  0  0  0  0  0
    9.0470  -12.1380    0.7370 C   0  0  0  0  0  0  0  0  0  0  0  0
    7.6570  -12.5900    1.1820 C   0  0  0  0  0  0  0  0  0  0  0  0
    7.4160  -14.0380    0.8250 N   0  0  0  0  0  0  0  0  0  0  0  0
    6.1660  -14.5880    1.4430 C   0  0  0  0  0  0  0  0  0  0  0  0
    6.7177  -11.1275   -8.1729 H   0  0  0  0  0  0  0  0  0  0  0  0
    7.5967  -11.3360   -9.7255 H   0  0  0  0  0  0  0  0  0  0  0  0
    5.8144  -11.1121   -9.7255 H   0  0  0  0  0  0  0  0  0  0  0  0
    8.9579  -12.9532  -10.2637 H   0  0  0  0  0  0  0  0  0  0  0  0
   10.8223  -14.4594   -9.5891 H   0  0  0  0  0  0  0  0  0  0  0  0
    8.3661  -16.0965   -6.4334 H   0  0  0  0  0  0  0  0  0  0  0  0
    5.4068  -16.3901   -5.1302 H   0  0  0  0  0  0  0  0  0  0  0  0
    5.5030  -15.9012   -2.6845 H   0  0  0  0  0  0  0  0  0  0  0  0
    7.1056  -11.9755   -3.5507 H   0  0  0  0  0  0  0  0  0  0  0  0
    7.0289  -12.4804   -5.9873 H   0  0  0  0  0  0  0  0  0  0  0  0
    6.5370  -12.5084   -1.3699 H   0  0  0  0  0  0  0  0  0  0  0  0
    5.4653  -13.9751   -1.0413 H   0  0  0  0  0  0  0  0  0  0  0  0
    7.4446  -15.3741   -0.8866 H   0  0  0  0  0  0  0  0  0  0  0  0
   11.2619  -11.3819   -0.6364 H   0  0  0  0  0  0  0  0  0  0  0  0
    8.8740  -16.1302   -5.1800 H   0  0  0  0  0  0  0  0  0  0  0  0
   12.0721  -19.0934   -2.7792 H   0  0  0  0  0  0  0  0  0  0  0  0
   11.6513  -17.4711    0.5531 H   0  0  0  0  0  0  0  0  0  0  0  0
   12.3824  -18.3733   -0.8174 H   0  0  0  0  0  0  0  0  0  0  0  0
   12.3924  -16.5770   -0.8174 H   0  0  0  0  0  0  0  0  0  0  0  0
   13.2260  -19.3864   -5.0123 H   0  0  0  0  0  0  0  0  0  0  0  0
   11.7639  -20.4239   -5.3481 H   0  0  0  0  0  0  0  0  0  0  0  0
   12.9558  -18.2410   -7.0906 H   0  0  0  0  0  0  0  0  0  0  0  0
   12.7808  -20.0068   -7.4410 H   0  0  0  0  0  0  0  0  0  0  0  0
   11.1300  -18.6720   -8.5470 H   0  0  0  0  0  0  0  0  0  0  0  0
    9.8641  -20.4116   -6.5354 H   0  0  0  0  0  0  0  0  0  0  0  0
    9.1455  -19.8725   -8.0909 H   0  0  0  0  0  0  0  0  0  0  0  0
   10.5995  -20.9273   -8.0909 H   0  0  0  0  0  0  0  0  0  0  0  0
    9.2025  -17.7341   -7.1033 H   0  0  0  0  0  0  0  0  0  0  0  0
   11.5161  -15.8548   -6.9341 H   0  0  0  0  0  0  0  0  0  0  0  0
   11.3326  -16.6632   -8.5509 H   0  0  0  0  0  0  0  0  0  0  0  0
   13.4301  -13.9690   -3.8538 H   0  0  0  0  0  0  0  0  0  0  0  0
   12.3569  -12.8953   -4.8637 H   0  0  0  0  0  0  0  0  0  0  0  0
    9.7560  -12.3912    1.5390 H   0  0  0  0  0  0  0  0  0  0  0  0
    8.9586  -11.0597    0.5381 H   0  0  0  0  0  0  0  0  0  0  0  0
    7.5719  -12.4697    2.2721 H   0  0  0  0  0  0  0  0  0  0  0  0
    6.9069  -11.9732    0.6654 H   0  0  0  0  0  0  0  0  0  0  0  0
    8.1910  -14.5720    1.2420 H   0  0  0  0  0  0  0  0  0  0  0  0
    6.2516  -14.5503    2.5390 H   0  0  0  0  0  0  0  0  0  0  0  0
    5.3028  -13.9866    1.1217 H   0  0  0  0  0  0  0  0  0  0  0  0
    6.0263  -15.6307    1.1217 H   0  0  0  0  0  0  0  0  0  0  0  0
  1  2  1  0
  2  3  1  0
  3  4  2  0
  4  5  1  0
  5  6  2  0
  6  7  1  0
  7  8  2  0
  8  9  1  0
  9 10  1  0
 10 11  2  0
 11 12  1  0
 12 13  2  0
 13 14  1  0
 14 15  2  0
 13 16  1  0
 16 17  1  0
 17 18  1  0
 18 19  1  0
 19 20  2  0
 20 21  1  0
 21 22  2  0
 22 23  1  0
 23 24  1  0
 24 25  1  0
 25 26  2  0
 26 27  1  0
 27 28  2  0
 28 29  1  0
 29 30  2  0
 30 31  1  0
 31 32  1  0
 28 33  1  0
 33 34  1  0
 34 35  1  0
 35 36  1  0
 35 37  1  0
 37 38  1  0
 22 39  1  0
 39 40  1  0
 40 41  1  0
 19 42  1  0
 42 43  1  0
 43 44  1  0
 44 45  1  0
  8  3  1  0
 15 10  1  0
 44 17  1  0
 38  6  1  0
 23 18  2  0
 30 25  1  0
 41 21  1  0
 37 27  1  0
  1 46  1  0
  1 47  1  0
  1 48  1  0
  4 49  1  0
  5 50  1  0
  7 51  1  0
 11 52  1  0
 12 53  1  0
 14 54  1  0
 15 55  1  0
 16 56  1  0
 16 57  1  0
 17 58  1  1
 20 59  1  0
 26 60  1  0
 29 61  1  0
 32 62  1  0
 32 63  1  0
 32 64  1  0
 33 65  1  0
 33 66  1  0
 34 67  1  0
 34 68  1  0
 35 69  1  0
 36 70  1  0
 36 71  1  0
 36 72  1  0
 37 73  1  1
 38 74  1  0
 38 75  1  0
 40 76  1  0
 40 77  1  0
 42 78  1  0
 42 79  1  0
 43 80  1  0
 43 81  1  0
 44 82  1  0
 45 83  1  0
 45 84  1  0
 45 85  1  0
M  CHG  2  35   1  44   1
M  END
>  <meeko>  (8) 
{"is_sidechain": [false], "free_energy": -5.7, "intermolecular_energy": -9.041, "internal_energy": -0.597}

$$$$
REF_CHEMBL449782__M_PUB_ALL__e8__s20260927
     RDKit          3D

 85 92  0  0  0  0  0  0  0  0999 V2000
   13.3240  -14.1760   -5.6730 C   0  0  0  0  0  0  0  0  0  0  0  0
   11.9910  -14.6720   -5.6270 O   0  0  0  0  0  0  0  0  0  0  0  0
   11.6160  -15.3660   -4.5100 C   0  0  0  0  0  0  0  0  0  0  0  0
   12.4300  -15.5970   -3.3980 C   0  0  0  0  0  0  0  0  0  0  0  0
   11.9590  -16.3540   -2.3170 C   0  0  0  0  0  0  0  0  0  0  0  0
   10.6600  -16.8820   -2.3200 C   0  0  0  0  0  0  0  0  0  0  0  0
    9.8330  -16.6220   -3.4180 C   0  0  0  0  0  0  0  0  0  0  0  0
   10.3250  -15.9070   -4.5200 C   0  0  0  0  0  0  0  0  0  0  0  0
    9.5120  -15.6690   -5.6090 O   0  0  0  0  0  0  0  0  0  0  0  0
    8.2930  -15.0830   -5.3530 C   0  0  0  0  0  0  0  0  0  0  0  0
    8.1410  -13.9550   -4.5440 C   0  0  0  0  0  0  0  0  0  0  0  0
    6.8670  -13.4270   -4.3080 C   0  0  0  0  0  0  0  0  0  0  0  0
    5.7350  -14.0370   -4.8650 C   0  0  0  0  0  0  0  0  0  0  0  0
    5.9000  -15.1930   -5.6460 C   0  0  0  0  0  0  0  0  0  0  0  0
    7.1720  -15.7140   -5.8850 C   0  0  0  0  0  0  0  0  0  0  0  0
    4.3490  -13.4740   -4.6390 C   0  0  0  0  0  0  0  0  0  0  0  0
    3.4830  -14.2060   -3.5660 C   0  0  1  0  0  0  0  0  0  0  0  0
    3.9950  -13.9900   -2.1520 C   0  0  0  0  0  0  0  0  0  0  0  0
    3.5270  -12.8870   -1.3900 C   0  0  0  0  0  0  0  0  0  0  0  0
    4.1260  -12.5900   -0.1550 C   0  0  0  0  0  0  0  0  0  0  0  0
    5.1620  -13.3900    0.2820 C   0  0  0  0  0  0  0  0  0  0  0  0
    5.5840  -14.4930   -0.4190 C   0  0  0  0  0  0  0  0  0  0  0  0
    4.9810  -14.8510   -1.6150 C   0  0  0  0  0  0  0  0  0  0  0  0
    5.2960  -15.9750   -2.3470 O   0  0  0  0  0  0  0  0  0  0  0  0
    5.7740  -17.0830   -1.6790 C   0  0  0  0  0  0  0  0  0  0  0  0
    7.0850  -17.4550   -1.9960 C   0  0  0  0  0  0  0  0  0  0  0  0
    7.7210  -18.5140   -1.3320 C   0  0  0  0  0  0  0  0  0  0  0  0
    6.9940  -19.2260   -0.3610 C   0  0  0  0  0  0  0  0  0  0  0  0
    5.6420  -18.9030   -0.1140 C   0  0  0  0  0  0  0  0  0  0  0  0
    5.0200  -17.8360   -0.7700 C   0  0  0  0  0  0  0  0  0  0  0  0
    3.7010  -17.4980   -0.6230 O   0  0  0  0  0  0  0  0  0  0  0  0
    3.0870  -17.8430    0.6150 C   0  0  0  0  0  0  0  0  0  0  0  0
    7.6060  -20.3860    0.3860 C   0  0  0  0  0  0  0  0  0  0  0  0
    9.1300  -20.4130    0.3070 C   0  0  0  0  0  0  0  0  0  0  0  0
    9.6050  -20.2140   -1.1120 N   0  0  0  0  0  0  0  0  0  0  0  0
    9.2520  -21.3550   -2.0310 C   0  0  0  0  0  0  0  0  0  0  0  0
    9.1690  -18.8510   -1.6660 C   0  0  2  0  0  0  0  0  0  0  0  0
   10.1820  -17.7570   -1.1820 C   0  0  0  0  0  0  0  0  0  0  0  0
    6.6190  -15.1200    0.2070 O   0  0  0  0  0  0  0  0  0  0  0  0
    6.7960  -14.2860    1.3710 C   0  0  0  0  0  0  0  0  0  0  0  0
    5.8530  -13.2010    1.4350 O   0  0  0  0  0  0  0  0  0  0  0  0
    2.3240  -12.0790   -1.8160 C   0  0  0  0  0  0  0  0  0  0  0  0
    1.8280  -12.3170   -3.2420 C   0  0  0  0  0  0  0  0  0  0  0  0
    2.0140  -13.7610   -3.6480 N   0  0  0  0  0  0  0  0  0  0  0  0
    1.3350  -14.0910   -4.9430 C   0  0  0  0  0  0  0  0  0  0  0  0
   13.6989  -14.0365   -4.6483 H   0  0  0  0  0  0  0  0  0  0  0  0
   13.9650  -14.8958   -6.2031 H   0  0  0  0  0  0  0  0  0  0  0  0
   13.3385  -13.2123   -6.2031 H   0  0  0  0  0  0  0  0  0  0  0  0
   13.4481  -15.1815   -3.3710 H   0  0  0  0  0  0  0  0  0  0  0  0
   12.6170  -16.5365   -1.4546 H   0  0  0  0  0  0  0  0  0  0  0  0
    8.7928  -16.9797   -3.4172 H   0  0  0  0  0  0  0  0  0  0  0  0
    9.0244  -13.4808   -4.0915 H   0  0  0  0  0  0  0  0  0  0  0  0
    6.7535  -12.5292   -3.6826 H   0  0  0  0  0  0  0  0  0  0  0  0
    5.0178  -15.6922   -6.0732 H   0  0  0  0  0  0  0  0  0  0  0  0
    7.2890  -16.6229   -6.4935 H   0  0  0  0  0  0  0  0  0  0  0  0
    4.4581  -12.4251   -4.3260 H   0  0  0  0  0  0  0  0  0  0  0  0
    3.8154  -13.6043   -5.5920 H   0  0  0  0  0  0  0  0  0  0  0  0
    3.5593  -15.2797   -3.7926 H   0  0  0  0  0  0  0  0  0  0  0  0
    3.7776  -11.7397    0.4497 H   0  0  0  0  0  0  0  0  0  0  0  0
    7.6269  -16.9067   -2.7806 H   0  0  0  0  0  0  0  0  0  0  0  0
    5.0672  -19.5017    0.6079 H   0  0  0  0  0  0  0  0  0  0  0  0
    3.7148  -17.4902    1.4465 H   0  0  0  0  0  0  0  0  0  0  0  0
    2.0960  -17.3696    0.6773 H   0  0  0  0  0  0  0  0  0  0  0  0
    2.9760  -18.9356    0.6773 H   0  0  0  0  0  0  0  0  0  0  0  0
    7.3116  -20.3156    1.4435 H   0  0  0  0  0  0  0  0  0  0  0  0
    7.2372  -21.3096   -0.0841 H   0  0  0  0  0  0  0  0  0  0  0  0
    9.5366  -19.6089    0.9379 H   0  0  0  0  0  0  0  0  0  0  0  0
    9.4804  -21.3949    0.6579 H   0  0  0  0  0  0  0  0  0  0  0  0
   10.6320  -20.2170   -1.0800 H   0  0  0  0  0  0  0  0  0  0  0  0
    8.9792  -22.2368   -1.4327 H   0  0  0  0  0  0  0  0  0  0  0  0
    8.4016  -21.0651   -2.6656 H   0  0  0  0  0  0  0  0  0  0  0  0
   10.1176  -21.5960   -2.6656 H   0  0  0  0  0  0  0  0  0  0  0  0
    9.1936  -18.8891   -2.7651 H   0  0  0  0  0  0  0  0  0  0  0  0
    9.6880  -17.1235   -0.4306 H   0  0  0  0  0  0  0  0  0  0  0  0
   11.0577  -18.2697   -0.7575 H   0  0  0  0  0  0  0  0  0  0  0  0
    6.6752  -14.9086    2.2698 H   0  0  0  0  0  0  0  0  0  0  0  0
    7.8015  -13.8443    1.3090 H   0  0  0  0  0  0  0  0  0  0  0  0
    1.4987  -12.3162   -1.1286 H   0  0  0  0  0  0  0  0  0  0  0  0
    2.6469  -11.0279   -1.7858 H   0  0  0  0  0  0  0  0  0  0  0  0
    0.7593  -12.0627   -3.2979 H   0  0  0  0  0  0  0  0  0  0  0  0
    2.4120  -11.6834   -3.9258 H   0  0  0  0  0  0  0  0  0  0  0  0
    1.5390  -14.3260   -2.9310 H   0  0  0  0  0  0  0  0  0  0  0  0
    0.3631  -14.5634   -4.7374 H   0  0  0  0  0  0  0  0  0  0  0  0
    1.1792  -13.1681   -5.5209 H   0  0  0  0  0  0  0  0  0  0  0  0
    1.9644  -14.7837   -5.5209 H   0  0  0  0  0  0  0  0  0  0  0  0
  1  2  1  0
  2  3  1  0
  3  4  2  0
  4  5  1  0
  5  6  2  0
  6  7  1  0
  7  8  2  0
  8  9  1  0
  9 10  1  0
 10 11  2  0
 11 12  1  0
 12 13  2  0
 13 14  1  0
 14 15  2  0
 13 16  1  0
 16 17  1  0
 17 18  1  0
 18 19  1  0
 19 20  2  0
 20 21  1  0
 21 22  2  0
 22 23  1  0
 23 24  1  0
 24 25  1  0
 25 26  2  0
 26 27  1  0
 27 28  2  0
 28 29  1  0
 29 30  2  0
 30 31  1  0
 31 32  1  0
 28 33  1  0
 33 34  1  0
 34 35  1  0
 35 36  1  0
 35 37  1  0
 37 38  1  0
 22 39  1  0
 39 40  1  0
 40 41  1  0
 19 42  1  0
 42 43  1  0
 43 44  1  0
 44 45  1  0
  8  3  1  0
 15 10  1  0
 44 17  1  0
 38  6  1  0
 23 18  2  0
 30 25  1  0
 41 21  1  0
 37 27  1  0
  1 46  1  0
  1 47  1  0
  1 48  1  0
  4 49  1  0
  5 50  1  0
  7 51  1  0
 11 52  1  0
 12 53  1  0
 14 54  1  0
 15 55  1  0
 16 56  1  0
 16 57  1  0
 17 58  1  6
 20 59  1  0
 26 60  1  0
 29 61  1  0
 32 62  1  0
 32 63  1  0
 32 64  1  0
 33 65  1  0
 33 66  1  0
 34 67  1  0
 34 68  1  0
 35 69  1  0
 36 70  1  0
 36 71  1  0
 36 72  1  0
 37 73  1  6
 38 74  1  0
 38 75  1  0
 40 76  1  0
 40 77  1  0
 42 78  1  0
 42 79  1  0
 43 80  1  0
 43 81  1  0
 44 82  1  0
 45 83  1  0
 45 84  1  0
 45 85  1  0
M  CHG  2  35   1  44   1
M  END
>  <meeko>  (9) 
{"is_sidechain": [false], "free_energy": -5.44, "intermolecular_energy": -8.725, "internal_energy": -0.517}

$$$$
