LIB_ZVHBDYFMHCQADD__W_7USX_LOCAL_COMPLETE__e8__s20260927
     RDKit          3D

 57 61  0  0  0  0  0  0  0  0999 V2000
  122.6650  169.7300  169.3230 O   0  0  0  0  0  0  0  0  0  0  0  0
  121.4800  169.7170  169.6230 C   0  0  0  0  0  0  0  0  0  0  0  0
  120.4360  169.5210  168.7280 N   0  0  0  0  0  0  0  0  0  0  0  0
  120.5150  169.4310  167.3220 C   0  0  0  0  0  0  0  0  0  0  0  0
  120.3190  170.6120  166.5950 C   0  0  0  0  0  0  0  0  0  0  0  0
  120.3870  170.6070  165.2030 C   0  0  0  0  0  0  0  0  0  0  0  0
  120.6510  169.4190  164.5230 C   0  0  0  0  0  0  0  0  0  0  0  0
  120.8480  168.2200  165.2240 C   0  0  0  0  0  0  0  0  0  0  0  0
  121.1410  166.9720  164.4740 C   0  0  0  0  0  0  0  0  0  0  0  0
  120.7530  166.8540  163.1870 C   0  0  0  0  0  0  0  0  0  0  0  0
  121.0550  165.6880  162.5180 N   0  0  0  0  0  0  0  0  0  0  0  0
  120.8050  165.2660  161.2410 C   0  0  0  0  0  0  0  0  0  0  0  0
  121.3590  164.0050  161.1660 C   0  0  0  0  0  0  0  0  0  0  0  0
  121.9420  163.6430  162.3580 N   0  0  0  0  0  0  0  0  0  0  0  0
  121.7370  164.6820  163.1430 C   0  0  0  0  0  0  0  0  0  0  0  0
  122.1450  164.8560  164.5260 C   0  0  0  0  0  0  0  0  0  0  0  0
  122.8330  163.8650  165.1760 N   0  0  0  0  0  0  0  0  0  0  0  0
  123.3650  163.9780  166.5110 C   0  0  0  0  0  0  0  0  0  0  0  0
  124.0980  162.7090  166.8960 C   0  0  0  0  0  0  0  0  0  0  0  0
  125.1030  162.7520  167.8640 C   0  0  0  0  0  0  0  0  0  0  0  0
  125.7390  161.5690  168.2270 C   0  0  0  0  0  0  0  0  0  0  0  0
  125.3550  160.3770  167.6250 C   0  0  0  0  0  0  0  0  0  0  0  0
  124.3420  160.4170  166.6820 C   0  0  0  0  0  0  0  0  0  0  0  0
  123.7060  161.5490  166.3090 N   0  0  0  0  0  0  0  0  0  0  0  0
  121.8470  165.9770  165.1450 N   0  0  0  0  0  0  0  0  0  0  0  0
  120.7930  168.2490  166.6300 C   0  0  0  0  0  0  0  0  0  0  0  0
  120.9850  169.8900  170.9090 N   0  0  0  0  0  0  0  0  0  0  0  0
  121.7190  170.0170  172.1070 C   0  0  0  0  0  0  0  0  0  0  0  0
  122.1320  168.8320  172.7290 C   0  0  0  0  0  0  0  0  0  0  0  0
  122.8640  168.8660  173.9190 C   0  0  0  0  0  0  0  0  0  0  0  0
  123.1940  170.0890  174.4970 C   0  0  0  0  0  0  0  0  0  0  0  0
  122.8030  171.2880  173.8860 C   0  0  0  0  0  0  0  0  0  0  0  0
  123.1400  172.6220  174.5070 C   0  0  0  0  0  0  0  0  0  0  0  0
  122.3520  173.6390  174.0530 F   0  0  0  0  0  0  0  0  0  0  0  0
  124.4210  173.0050  174.2540 F   0  0  0  0  0  0  0  0  0  0  0  0
  123.0030  172.6280  175.8620 F   0  0  0  0  0  0  0  0  0  0  0  0
  122.0610  171.2390  172.6920 C   0  0  0  0  0  0  0  0  0  0  0  0
  119.5280  169.3450  169.1280 H   0  0  0  0  0  0  0  0  0  0  0  0
  120.1096  171.5516  167.1273 H   0  0  0  0  0  0  0  0  0  0  0  0
  120.2324  171.5400  164.6412 H   0  0  0  0  0  0  0  0  0  0  0  0
  120.7054  169.4218  163.4243 H   0  0  0  0  0  0  0  0  0  0  0  0
  120.2095  167.6679  162.6848 H   0  0  0  0  0  0  0  0  0  0  0  0
  120.2768  165.8134  160.4464 H   0  0  0  0  0  0  0  0  0  0  0  0
  121.3373  163.3702  160.2679 H   0  0  0  0  0  0  0  0  0  0  0  0
  123.1080  163.0550  164.6270 H   0  0  0  0  0  0  0  0  0  0  0  0
  124.0634  164.8268  166.5523 H   0  0  0  0  0  0  0  0  0  0  0  0
  122.5343  164.1378  167.2141 H   0  0  0  0  0  0  0  0  0  0  0  0
  125.3875  163.7059  168.3322 H   0  0  0  0  0  0  0  0  0  0  0  0
  126.5379  161.5773  168.9831 H   0  0  0  0  0  0  0  0  0  0  0  0
  125.8426  159.4274  167.8904 H   0  0  0  0  0  0  0  0  0  0  0  0
  124.0373  159.4719  166.2089 H   0  0  0  0  0  0  0  0  0  0  0  0
  120.9724  167.3228  167.1956 H   0  0  0  0  0  0  0  0  0  0  0  0
  119.9870  170.0010  170.9910 H   0  0  0  0  0  0  0  0  0  0  0  0
  121.8771  167.8628  172.2754 H   0  0  0  0  0  0  0  0  0  0  0  0
  123.1791  167.9275  174.3986 H   0  0  0  0  0  0  0  0  0  0  0  0
  123.7641  170.1142  175.4374 H   0  0  0  0  0  0  0  0  0  0  0  0
  121.7452  172.1768  172.2116 H   0  0  0  0  0  0  0  0  0  0  0  0
  1  2  2  0
  2  3  1  0
  3  4  1  0
  4  5  2  0
  5  6  1  0
  6  7  2  0
  7  8  1  0
  8  9  1  0
  9 10  2  0
 10 11  1  0
 11 12  1  0
 12 13  2  0
 13 14  1  0
 14 15  2  0
 15 16  1  0
 16 17  1  0
 17 18  1  0
 18 19  1  0
 19 20  2  0
 20 21  1  0
 21 22  2  0
 22 23  1  0
 23 24  2  0
 16 25  2  0
  8 26  2  0
  2 27  1  0
 27 28  1  0
 28 29  2  0
 29 30  1  0
 30 31  2  0
 31 32  1  0
 32 33  1  0
 33 34  1  0
 33 35  1  0
 33 36  1  0
 32 37  2  0
 26  4  1  0
 37 28  1  0
 25  9  1  0
 15 11  1  0
 24 19  1  0
  3 38  1  0
  5 39  1  0
  6 40  1  0
  7 41  1  0
 10 42  1  0
 12 43  1  0
 13 44  1  0
 17 45  1  0
 18 46  1  0
 18 47  1  0
 20 48  1  0
 21 49  1  0
 22 50  1  0
 23 51  1  0
 26 52  1  0
 27 53  1  0
 29 54  1  0
 30 55  1  0
 31 56  1  0
 37 57  1  0
M  END
>  <meeko>  (1) 
{"is_sidechain": [false], "free_energy": -9.426, "intermolecular_energy": -12.732, "internal_energy": -1.041}

$$$$
LIB_ZVHBDYFMHCQADD__W_7USX_LOCAL_COMPLETE__e8__s20260927
     RDKit          3D

 57 61  0  0  0  0  0  0  0  0999 V2000
  129.4120  186.6430  163.9550 O   0  0  0  0  0  0  0  0  0  0  0  0
  129.3320  186.4560  162.7490 C   0  0  0  0  0  0  0  0  0  0  0  0
  130.2470  185.7330  161.9940 N   0  0  0  0  0  0  0  0  0  0  0  0
  131.4800  185.1960  162.4220 C   0  0  0  0  0  0  0  0  0  0  0  0
  132.6440  185.8130  161.9490 C   0  0  0  0  0  0  0  0  0  0  0  0
  133.9000  185.3450  162.3310 C   0  0  0  0  0  0  0  0  0  0  0  0
  134.0040  184.2520  163.1900 C   0  0  0  0  0  0  0  0  0  0  0  0
  132.8560  183.6110  163.6770 C   0  0  0  0  0  0  0  0  0  0  0  0
  132.9970  182.4580  164.6020 C   0  0  0  0  0  0  0  0  0  0  0  0
  133.9490  182.4740  165.5570 C   0  0  0  0  0  0  0  0  0  0  0  0
  134.0420  181.3940  166.4070 N   0  0  0  0  0  0  0  0  0  0  0  0
  134.8800  181.1090  167.4500 C   0  0  0  0  0  0  0  0  0  0  0  0
  134.4730  179.8730  167.9090 C   0  0  0  0  0  0  0  0  0  0  0  0
  133.4110  179.3940  167.1790 N   0  0  0  0  0  0  0  0  0  0  0  0
  133.1830  180.3380  166.2870 C   0  0  0  0  0  0  0  0  0  0  0  0
  132.1650  180.3660  165.2510 C   0  0  0  0  0  0  0  0  0  0  0  0
  131.2880  179.3220  165.1110 N   0  0  0  0  0  0  0  0  0  0  0  0
  130.1860  179.2980  164.1820 C   0  0  0  0  0  0  0  0  0  0  0  0
  130.5420  178.4690  162.9650 C   0  0  0  0  0  0  0  0  0  0  0  0
  131.3270  179.0210  161.9520 C   0  0  0  0  0  0  0  0  0  0  0  0
  131.6700  178.2300  160.8600 C   0  0  0  0  0  0  0  0  0  0  0  0
  131.2310  176.9130  160.8070 C   0  0  0  0  0  0  0  0  0  0  0  0
  130.4650  176.4370  161.8580 C   0  0  0  0  0  0  0  0  0  0  0  0
  130.1150  177.1800  162.9310 N   0  0  0  0  0  0  0  0  0  0  0  0
  132.0950  181.4080  164.4520 N   0  0  0  0  0  0  0  0  0  0  0  0
  131.5970  184.1090  163.2940 C   0  0  0  0  0  0  0  0  0  0  0  0
  128.3100  186.9330  161.9380 N   0  0  0  0  0  0  0  0  0  0  0  0
  127.1440  187.6220  162.3330 C   0  0  0  0  0  0  0  0  0  0  0  0
  127.1330  189.0110  162.1510 C   0  0  0  0  0  0  0  0  0  0  0  0
  126.0190  189.7710  162.5140 C   0  0  0  0  0  0  0  0  0  0  0  0
  124.8990  189.1470  163.0590 C   0  0  0  0  0  0  0  0  0  0  0  0
  124.8820  187.7570  163.2390 C   0  0  0  0  0  0  0  0  0  0  0  0
  123.6830  187.0670  163.8420 C   0  0  0  0  0  0  0  0  0  0  0  0
  122.9930  187.8560  164.7140 F   0  0  0  0  0  0  0  0  0  0  0  0
  124.0220  185.9500  164.5420 F   0  0  0  0  0  0  0  0  0  0  0  0
  122.7740  186.6680  162.9100 F   0  0  0  0  0  0  0  0  0  0  0  0
  126.0140  187.0050  162.8750 C   0  0  0  0  0  0  0  0  0  0  0  0
  129.9680  185.4960  161.0560 H   0  0  0  0  0  0  0  0  0  0  0  0
  132.5668  186.6748  161.2698 H   0  0  0  0  0  0  0  0  0  0  0  0
  134.8087  185.8378  161.9549 H   0  0  0  0  0  0  0  0  0  0  0  0
  134.9981  183.8883  163.4892 H   0  0  0  0  0  0  0  0  0  0  0  0
  134.6346  183.3286  165.6549 H   0  0  0  0  0  0  0  0  0  0  0  0
  135.7004  181.7303  167.8385 H   0  0  0  0  0  0  0  0  0  0  0  0
  134.9385  179.3395  168.7508 H   0  0  0  0  0  0  0  0  0  0  0  0
  131.3350  178.5820  165.8060 H   0  0  0  0  0  0  0  0  0  0  0  0
  129.3056  178.8597  164.6747 H   0  0  0  0  0  0  0  0  0  0  0  0
  129.9655  180.3270  163.8619 H   0  0  0  0  0  0  0  0  0  0  0  0
  131.6691  180.0645  162.0157 H   0  0  0  0  0  0  0  0  0  0  0  0
  132.2833  178.6437  160.0459 H   0  0  0  0  0  0  0  0  0  0  0  0
  131.4847  176.2663  159.9541 H   0  0  0  0  0  0  0  0  0  0  0  0
  130.1213  175.3929  161.8169 H   0  0  0  0  0  0  0  0  0  0  0  0
  130.6867  183.6338  163.6883 H   0  0  0  0  0  0  0  0  0  0  0  0
  128.4440  186.8290  160.9450 H   0  0  0  0  0  0  0  0  0  0  0  0
  128.0125  189.5091  161.7169 H   0  0  0  0  0  0  0  0  0  0  0  0
  126.0259  190.8615  162.3697 H   0  0  0  0  0  0  0  0  0  0  0  0
  124.0244  189.7476  163.3493 H   0  0  0  0  0  0  0  0  0  0  0  0
  126.0092  185.9145  163.0194 H   0  0  0  0  0  0  0  0  0  0  0  0
  1  2  2  0
  2  3  1  0
  3  4  1  0
  4  5  2  0
  5  6  1  0
  6  7  2  0
  7  8  1  0
  8  9  1  0
  9 10  2  0
 10 11  1  0
 11 12  1  0
 12 13  2  0
 13 14  1  0
 14 15  2  0
 15 16  1  0
 16 17  1  0
 17 18  1  0
 18 19  1  0
 19 20  2  0
 20 21  1  0
 21 22  2  0
 22 23  1  0
 23 24  2  0
 16 25  2  0
  8 26  2  0
  2 27  1  0
 27 28  1  0
 28 29  2  0
 29 30  1  0
 30 31  2  0
 31 32  1  0
 32 33  1  0
 33 34  1  0
 33 35  1  0
 33 36  1  0
 32 37  2  0
 26  4  1  0
 37 28  1  0
 25  9  1  0
 15 11  1  0
 24 19  1  0
  3 38  1  0
  5 39  1  0
  6 40  1  0
  7 41  1  0
 10 42  1  0
 12 43  1  0
 13 44  1  0
 17 45  1  0
 18 46  1  0
 18 47  1  0
 20 48  1  0
 21 49  1  0
 22 50  1  0
 23 51  1  0
 26 52  1  0
 27 53  1  0
 29 54  1  0
 30 55  1  0
 31 56  1  0
 37 57  1  0
M  END
>  <meeko>  (2) 
{"is_sidechain": [false], "free_energy": -9.336, "intermolecular_energy": -12.533, "internal_energy": -1.118}

$$$$
LIB_ZVHBDYFMHCQADD__W_7USX_LOCAL_COMPLETE__e8__s20260927
     RDKit          3D

 57 61  0  0  0  0  0  0  0  0999 V2000
  129.7930  186.0200  164.1080 O   0  0  0  0  0  0  0  0  0  0  0  0
  130.2220  186.4520  163.0470 C   0  0  0  0  0  0  0  0  0  0  0  0
  131.2320  185.8610  162.3000 N   0  0  0  0  0  0  0  0  0  0  0  0
  132.0340  184.7560  162.6600 C   0  0  0  0  0  0  0  0  0  0  0  0
  133.3310  185.0280  163.1130 C   0  0  0  0  0  0  0  0  0  0  0  0
  134.1810  183.9910  163.4930 C   0  0  0  0  0  0  0  0  0  0  0  0
  133.7430  182.6700  163.4210 C   0  0  0  0  0  0  0  0  0  0  0  0
  132.4510  182.3670  162.9680 C   0  0  0  0  0  0  0  0  0  0  0  0
  132.0070  180.9500  162.9150 C   0  0  0  0  0  0  0  0  0  0  0  0
  131.6530  180.4000  161.7350 C   0  0  0  0  0  0  0  0  0  0  0  0
  131.2600  179.0790  161.7210 N   0  0  0  0  0  0  0  0  0  0  0  0
  130.8470  178.2500  160.7150 C   0  0  0  0  0  0  0  0  0  0  0  0
  130.5940  177.0410  161.3290 C   0  0  0  0  0  0  0  0  0  0  0  0
  130.8400  177.1050  162.6810 N   0  0  0  0  0  0  0  0  0  0  0  0
  131.2380  178.3470  162.8740 C   0  0  0  0  0  0  0  0  0  0  0  0
  131.6380  178.9760  164.1210 C   0  0  0  0  0  0  0  0  0  0  0  0
  131.6300  178.2630  165.2920 N   0  0  0  0  0  0  0  0  0  0  0  0
  132.0990  178.7660  166.5590 C   0  0  0  0  0  0  0  0  0  0  0  0
  133.4320  179.4650  166.3870 C   0  0  0  0  0  0  0  0  0  0  0  0
  133.6130  180.7540  166.8920 C   0  0  0  0  0  0  0  0  0  0  0  0
  134.8560  181.3630  166.7530 C   0  0  0  0  0  0  0  0  0  0  0  0
  135.8870  180.6740  166.1260 C   0  0  0  0  0  0  0  0  0  0  0  0
  135.6300  179.3940  165.6630 C   0  0  0  0  0  0  0  0  0  0  0  0
  134.4340  178.7760  165.7820 N   0  0  0  0  0  0  0  0  0  0  0  0
  132.0100  180.2370  164.1110 N   0  0  0  0  0  0  0  0  0  0  0  0
  131.6010  183.4280  162.6060 C   0  0  0  0  0  0  0  0  0  0  0  0
  129.7640  187.5990  162.4150 N   0  0  0  0  0  0  0  0  0  0  0  0
  128.6850  188.4250  162.7970 C   0  0  0  0  0  0  0  0  0  0  0  0
  128.9570  189.4420  163.7200 C   0  0  0  0  0  0  0  0  0  0  0  0
  127.9470  190.3050  164.1520 C   0  0  0  0  0  0  0  0  0  0  0  0
  126.6530  190.1620  163.6580 C   0  0  0  0  0  0  0  0  0  0  0  0
  126.3590  189.1600  162.7230 C   0  0  0  0  0  0  0  0  0  0  0  0
  124.9590  188.9820  162.1900 C   0  0  0  0  0  0  0  0  0  0  0  0
  124.4850  190.0890  161.5500 F   0  0  0  0  0  0  0  0  0  0  0  0
  124.0580  188.7080  163.1720 F   0  0  0  0  0  0  0  0  0  0  0  0
  124.8570  187.9660  161.2890 F   0  0  0  0  0  0  0  0  0  0  0  0
  127.3850  188.2930  162.3030 C   0  0  0  0  0  0  0  0  0  0  0  0
  131.3600  186.2070  161.3630 H   0  0  0  0  0  0  0  0  0  0  0  0
  133.6818  186.0690  163.1694 H   0  0  0  0  0  0  0  0  0  0  0  0
  135.1972  184.2151  163.8496 H   0  0  0  0  0  0  0  0  0  0  0  0
  134.4183  181.8559  163.7229 H   0  0  0  0  0  0  0  0  0  0  0  0
  131.6774  180.9909  160.8075 H   0  0  0  0  0  0  0  0  0  0  0  0
  130.7398  178.4942  159.6478 H   0  0  0  0  0  0  0  0  0  0  0  0
  130.2407  176.1409  160.8047 H   0  0  0  0  0  0  0  0  0  0  0  0
  131.4130  177.2730  165.2290 H   0  0  0  0  0  0  0  0  0  0  0  0
  131.3644  179.4796  166.9604 H   0  0  0  0  0  0  0  0  0  0  0  0
  132.2245  177.9228  167.2542 H   0  0  0  0  0  0  0  0  0  0  0  0
  132.7860  181.2796  167.3918 H   0  0  0  0  0  0  0  0  0  0  0  0
  135.0212  182.3809  167.1360 H   0  0  0  0  0  0  0  0  0  0  0  0
  136.8792  181.1321  166.0009 H   0  0  0  0  0  0  0  0  0  0  0  0
  136.4476  178.8483  165.1693 H   0  0  0  0  0  0  0  0  0  0  0  0
  130.5756  183.2082  162.2740 H   0  0  0  0  0  0  0  0  0  0  0  0
  130.3020  187.9180  161.6250 H   0  0  0  0  0  0  0  0  0  0  0  0
  129.9785  189.5630  164.1098 H   0  0  0  0  0  0  0  0  0  0  0  0
  128.1736  191.0965  164.8815 H   0  0  0  0  0  0  0  0  0  0  0  0
  125.8575  190.8388  164.0033 H   0  0  0  0  0  0  0  0  0  0  0  0
  127.1599  187.4997  161.5750 H   0  0  0  0  0  0  0  0  0  0  0  0
  1  2  2  0
  2  3  1  0
  3  4  1  0
  4  5  2  0
  5  6  1  0
  6  7  2  0
  7  8  1  0
  8  9  1  0
  9 10  2  0
 10 11  1  0
 11 12  1  0
 12 13  2  0
 13 14  1  0
 14 15  2  0
 15 16  1  0
 16 17  1  0
 17 18  1  0
 18 19  1  0
 19 20  2  0
 20 21  1  0
 21 22  2  0
 22 23  1  0
 23 24  2  0
 16 25  2  0
  8 26  2  0
  2 27  1  0
 27 28  1  0
 28 29  2  0
 29 30  1  0
 30 31  2  0
 31 32  1  0
 32 33  1  0
 33 34  1  0
 33 35  1  0
 33 36  1  0
 32 37  2  0
 26  4  1  0
 37 28  1  0
 25  9  1  0
 15 11  1  0
 24 19  1  0
  3 38  1  0
  5 39  1  0
  6 40  1  0
  7 41  1  0
 10 42  1  0
 12 43  1  0
 13 44  1  0
 17 45  1  0
 18 46  1  0
 18 47  1  0
 20 48  1  0
 21 49  1  0
 22 50  1  0
 23 51  1  0
 26 52  1  0
 27 53  1  0
 29 54  1  0
 30 55  1  0
 31 56  1  0
 37 57  1  0
M  END
>  <meeko>  (3) 
{"is_sidechain": [false], "free_energy": -9.193, "intermolecular_energy": -12.891, "internal_energy": -0.568}

$$$$
LIB_ZVHBDYFMHCQADD__W_7USX_LOCAL_COMPLETE__e8__s20260927
     RDKit          3D

 57 61  0  0  0  0  0  0  0  0999 V2000
  126.7590  185.8010  162.4370 O   0  0  0  0  0  0  0  0  0  0  0  0
  127.1010  186.6210  163.2770 C   0  0  0  0  0  0  0  0  0  0  0  0
  128.3890  187.1200  163.4220 N   0  0  0  0  0  0  0  0  0  0  0  0
  129.5540  186.7040  162.7420 C   0  0  0  0  0  0  0  0  0  0  0  0
  129.8840  187.3860  161.5640 C   0  0  0  0  0  0  0  0  0  0  0  0
  131.0220  187.0370  160.8390 C   0  0  0  0  0  0  0  0  0  0  0  0
  131.8410  186.0010  161.2830 C   0  0  0  0  0  0  0  0  0  0  0  0
  131.5330  185.2970  162.4570 C   0  0  0  0  0  0  0  0  0  0  0  0
  132.4320  184.2070  162.9140 C   0  0  0  0  0  0  0  0  0  0  0  0
  133.6590  184.5010  163.3910 C   0  0  0  0  0  0  0  0  0  0  0  0
  134.4600  183.4660  163.8210 N   0  0  0  0  0  0  0  0  0  0  0  0
  135.7250  183.4320  164.3400 C   0  0  0  0  0  0  0  0  0  0  0  0
  135.9780  182.0970  164.5780 C   0  0  0  0  0  0  0  0  0  0  0  0
  134.9060  181.3130  164.2210 N   0  0  0  0  0  0  0  0  0  0  0  0
  134.0160  182.1750  163.7710 C   0  0  0  0  0  0  0  0  0  0  0  0
  132.6830  181.9030  163.2600 C   0  0  0  0  0  0  0  0  0  0  0  0
  132.2100  180.6170  163.2030 N   0  0  0  0  0  0  0  0  0  0  0  0
  130.8730  180.2550  162.8060 C   0  0  0  0  0  0  0  0  0  0  0  0
  130.8560  178.8500  162.2360 C   0  0  0  0  0  0  0  0  0  0  0  0
  131.6060  178.5520  161.0980 C   0  0  0  0  0  0  0  0  0  0  0  0
  131.6030  177.2470  160.6120 C   0  0  0  0  0  0  0  0  0  0  0  0
  130.8620  176.2760  161.2740 C   0  0  0  0  0  0  0  0  0  0  0  0
  130.1530  176.6510  162.4030 C   0  0  0  0  0  0  0  0  0  0  0  0
  130.1360  177.9080  162.8980 N   0  0  0  0  0  0  0  0  0  0  0  0
  131.9360  182.9070  162.8570 N   0  0  0  0  0  0  0  0  0  0  0  0
  130.3900  185.6750  163.1850 C   0  0  0  0  0  0  0  0  0  0  0  0
  126.2560  187.1900  164.2200 N   0  0  0  0  0  0  0  0  0  0  0  0
  124.8600  187.0240  164.3420 C   0  0  0  0  0  0  0  0  0  0  0  0
  124.3930  185.7280  164.5960 C   0  0  0  0  0  0  0  0  0  0  0  0
  123.0260  185.4750  164.7320 C   0  0  0  0  0  0  0  0  0  0  0  0
  122.1110  186.5190  164.6190 C   0  0  0  0  0  0  0  0  0  0  0  0
  122.5560  187.8260  164.3780 C   0  0  0  0  0  0  0  0  0  0  0  0
  121.5760  188.9660  164.2390 C   0  0  0  0  0  0  0  0  0  0  0  0
  122.0770  190.0180  163.5300 F   0  0  0  0  0  0  0  0  0  0  0  0
  121.1970  189.4770  165.4410 F   0  0  0  0  0  0  0  0  0  0  0  0
  120.4280  188.6070  163.6000 F   0  0  0  0  0  0  0  0  0  0  0  0
  123.9350  188.0650  164.2360 C   0  0  0  0  0  0  0  0  0  0  0  0
  128.4960  187.9220  164.0220 H   0  0  0  0  0  0  0  0  0  0  0  0
  129.2399  188.2036  161.2082 H   0  0  0  0  0  0  0  0  0  0  0  0
  131.2737  187.5797  159.9159 H   0  0  0  0  0  0  0  0  0  0  0  0
  132.7387  185.7321  160.7070 H   0  0  0  0  0  0  0  0  0  0  0  0
  134.0115  185.5421  163.4356 H   0  0  0  0  0  0  0  0  0  0  0  0
  136.3951  184.2841  164.5270 H   0  0  0  0  0  0  0  0  0  0  0  0
  136.9171  181.7091  164.9995 H   0  0  0  0  0  0  0  0  0  0  0  0
  132.7970  179.8910  163.6030 H   0  0  0  0  0  0  0  0  0  0  0  0
  130.2096  180.2992  163.6824 H   0  0  0  0  0  0  0  0  0  0  0  0
  130.5257  180.9584  162.0349 H   0  0  0  0  0  0  0  0  0  0  0  0
  132.1903  179.3352  160.5928 H   0  0  0  0  0  0  0  0  0  0  0  0
  132.1815  176.9876  159.7131 H   0  0  0  0  0  0  0  0  0  0  0  0
  130.8391  175.2378  160.9113 H   0  0  0  0  0  0  0  0  0  0  0  0
  129.5694  175.8801  162.9276 H   0  0  0  0  0  0  0  0  0  0  0  0
  130.1494  185.1504  164.1214 H   0  0  0  0  0  0  0  0  0  0  0  0
  126.6970  187.7390  164.9410 H   0  0  0  0  0  0  0  0  0  0  0  0
  125.1111  184.9000  164.6894 H   0  0  0  0  0  0  0  0  0  0  0  0
  122.6724  184.4520  164.9282 H   0  0  0  0  0  0  0  0  0  0  0  0
  121.0344  186.3168  164.7193 H   0  0  0  0  0  0  0  0  0  0  0  0
  124.2901  189.0872  164.0385 H   0  0  0  0  0  0  0  0  0  0  0  0
  1  2  2  0
  2  3  1  0
  3  4  1  0
  4  5  2  0
  5  6  1  0
  6  7  2  0
  7  8  1  0
  8  9  1  0
  9 10  2  0
 10 11  1  0
 11 12  1  0
 12 13  2  0
 13 14  1  0
 14 15  2  0
 15 16  1  0
 16 17  1  0
 17 18  1  0
 18 19  1  0
 19 20  2  0
 20 21  1  0
 21 22  2  0
 22 23  1  0
 23 24  2  0
 16 25  2  0
  8 26  2  0
  2 27  1  0
 27 28  1  0
 28 29  2  0
 29 30  1  0
 30 31  2  0
 31 32  1  0
 32 33  1  0
 33 34  1  0
 33 35  1  0
 33 36  1  0
 32 37  2  0
 26  4  1  0
 37 28  1  0
 25  9  1  0
 15 11  1  0
 24 19  1  0
  3 38  1  0
  5 39  1  0
  6 40  1  0
  7 41  1  0
 10 42  1  0
 12 43  1  0
 13 44  1  0
 17 45  1  0
 18 46  1  0
 18 47  1  0
 20 48  1  0
 21 49  1  0
 22 50  1  0
 23 51  1  0
 26 52  1  0
 27 53  1  0
 29 54  1  0
 30 55  1  0
 31 56  1  0
 37 57  1  0
M  END
>  <meeko>  (4) 
{"is_sidechain": [false], "free_energy": -8.566, "intermolecular_energy": -11.77, "internal_energy": -0.84}

$$$$
LIB_ZVHBDYFMHCQADD__W_7USX_LOCAL_COMPLETE__e8__s20260927
     RDKit          3D

 57 61  0  0  0  0  0  0  0  0999 V2000
  122.7750  169.5180  169.3300 O   0  0  0  0  0  0  0  0  0  0  0  0
  121.7080  169.0220  169.6650 C   0  0  0  0  0  0  0  0  0  0  0  0
  120.7660  168.4990  168.7890 N   0  0  0  0  0  0  0  0  0  0  0  0
  120.7820  168.5500  167.3780 C   0  0  0  0  0  0  0  0  0  0  0  0
  120.4580  169.7730  166.7790 C   0  0  0  0  0  0  0  0  0  0  0  0
  120.4580  169.9050  165.3910 C   0  0  0  0  0  0  0  0  0  0  0  0
  120.7810  168.8120  164.5880 C   0  0  0  0  0  0  0  0  0  0  0  0
  121.1050  167.5730  165.1600 C   0  0  0  0  0  0  0  0  0  0  0  0
  121.4580  166.4300  164.2800 C   0  0  0  0  0  0  0  0  0  0  0  0
  121.2870  166.5300  162.9450 C   0  0  0  0  0  0  0  0  0  0  0  0
  121.6390  165.4560  162.1580 N   0  0  0  0  0  0  0  0  0  0  0  0
  121.5870  165.2450  160.8080 C   0  0  0  0  0  0  0  0  0  0  0  0
  122.0830  163.9710  160.6260 C   0  0  0  0  0  0  0  0  0  0  0  0
  122.4380  163.3960  161.8230 N   0  0  0  0  0  0  0  0  0  0  0  0
  122.1550  164.3220  162.7180 C   0  0  0  0  0  0  0  0  0  0  0  0
  122.3330  164.2600  164.1590 C   0  0  0  0  0  0  0  0  0  0  0  0
  122.8530  163.1360  164.7470 N   0  0  0  0  0  0  0  0  0  0  0  0
  123.1570  163.0130  166.1500 C   0  0  0  0  0  0  0  0  0  0  0  0
  123.7940  161.6680  166.4350 C   0  0  0  0  0  0  0  0  0  0  0  0
  123.4600  160.5600  165.6560 C   0  0  0  0  0  0  0  0  0  0  0  0
  124.0840  159.3430  165.9130 C   0  0  0  0  0  0  0  0  0  0  0  0
  125.0270  159.2620  166.9300 C   0  0  0  0  0  0  0  0  0  0  0  0
  125.3110  160.4100  167.6500 C   0  0  0  0  0  0  0  0  0  0  0  0
  124.7220  161.6050  167.4250 N   0  0  0  0  0  0  0  0  0  0  0  0
  121.9910  165.2980  164.8900 N   0  0  0  0  0  0  0  0  0  0  0  0
  121.1170  167.4650  166.5630 C   0  0  0  0  0  0  0  0  0  0  0  0
  121.2690  168.8950  170.9750 N   0  0  0  0  0  0  0  0  0  0  0  0
  121.9730  169.2110  172.1570 C   0  0  0  0  0  0  0  0  0  0  0  0
  121.8340  170.5130  172.6530 C   0  0  0  0  0  0  0  0  0  0  0  0
  122.4950  170.9090  173.8180 C   0  0  0  0  0  0  0  0  0  0  0  0
  123.3000  170.0020  174.5030 C   0  0  0  0  0  0  0  0  0  0  0  0
  123.4430  168.6890  174.0340 C   0  0  0  0  0  0  0  0  0  0  0  0
  124.3230  167.6980  174.7560 C   0  0  0  0  0  0  0  0  0  0  0  0
  123.8530  166.4190  174.6920 F   0  0  0  0  0  0  0  0  0  0  0  0
  124.4460  167.9810  176.0820 F   0  0  0  0  0  0  0  0  0  0  0  0
  125.5900  167.6490  174.2600 F   0  0  0  0  0  0  0  0  0  0  0  0
  122.7770  168.3060  172.8550 C   0  0  0  0  0  0  0  0  0  0  0  0
  120.0240  167.9550  169.1990 H   0  0  0  0  0  0  0  0  0  0  0  0
  120.2012  170.6375  167.4089 H   0  0  0  0  0  0  0  0  0  0  0  0
  120.2034  170.8707  164.9299 H   0  0  0  0  0  0  0  0  0  0  0  0
  120.7817  168.9226  163.4936 H   0  0  0  0  0  0  0  0  0  0  0  0
  120.8766  167.4468  162.4965 H   0  0  0  0  0  0  0  0  0  0  0  0
  121.2276  165.9403  160.0351 H   0  0  0  0  0  0  0  0  0  0  0  0
  122.1819  163.4779  159.6477 H   0  0  0  0  0  0  0  0  0  0  0  0
  123.1750  162.3970  164.1280 H   0  0  0  0  0  0  0  0  0  0  0  0
  123.8531  163.8132  166.4418 H   0  0  0  0  0  0  0  0  0  0  0  0
  122.2239  163.0959  166.7265 H   0  0  0  0  0  0  0  0  0  0  0  0
  122.7151  160.6469  164.8513 H   0  0  0  0  0  0  0  0  0  0  0  0
  123.8330  158.4535  165.3165 H   0  0  0  0  0  0  0  0  0  0  0  0
  125.5338  158.3124  167.1568 H   0  0  0  0  0  0  0  0  0  0  0  0
  126.0604  160.3454  168.4526 H   0  0  0  0  0  0  0  0  0  0  0  0
  121.3956  166.5076  167.0276 H   0  0  0  0  0  0  0  0  0  0  0  0
  120.3130  168.6010  171.0990 H   0  0  0  0  0  0  0  0  0  0  0  0
  121.1965  171.2328  172.1187 H   0  0  0  0  0  0  0  0  0  0  0  0
  122.3799  171.9363  174.1941 H   0  0  0  0  0  0  0  0  0  0  0  0
  123.8259  170.3176  175.4162 H   0  0  0  0  0  0  0  0  0  0  0  0
  122.8910  167.2792  172.4773 H   0  0  0  0  0  0  0  0  0  0  0  0
  1  2  2  0
  2  3  1  0
  3  4  1  0
  4  5  2  0
  5  6  1  0
  6  7  2  0
  7  8  1  0
  8  9  1  0
  9 10  2  0
 10 11  1  0
 11 12  1  0
 12 13  2  0
 13 14  1  0
 14 15  2  0
 15 16  1  0
 16 17  1  0
 17 18  1  0
 18 19  1  0
 19 20  2  0
 20 21  1  0
 21 22  2  0
 22 23  1  0
 23 24  2  0
 16 25  2  0
  8 26  2  0
  2 27  1  0
 27 28  1  0
 28 29  2  0
 29 30  1  0
 30 31  2  0
 31 32  1  0
 32 33  1  0
 33 34  1  0
 33 35  1  0
 33 36  1  0
 32 37  2  0
 26  4  1  0
 37 28  1  0
 25  9  1  0
 15 11  1  0
 24 19  1  0
  3 38  1  0
  5 39  1  0
  6 40  1  0
  7 41  1  0
 10 42  1  0
 12 43  1  0
 13 44  1  0
 17 45  1  0
 18 46  1  0
 18 47  1  0
 20 48  1  0
 21 49  1  0
 22 50  1  0
 23 51  1  0
 26 52  1  0
 27 53  1  0
 29 54  1  0
 30 55  1  0
 31 56  1  0
 37 57  1  0
M  END
>  <meeko>  (5) 
{"is_sidechain": [false], "free_energy": -8.407, "intermolecular_energy": -11.389, "internal_energy": -1.008}

$$$$
LIB_ZVHBDYFMHCQADD__W_7USX_LOCAL_COMPLETE__e8__s20260927
     RDKit          3D

 57 61  0  0  0  0  0  0  0  0999 V2000
  150.9470  180.6490  164.2160 O   0  0  0  0  0  0  0  0  0  0  0  0
  152.1600  180.7750  164.3070 C   0  0  0  0  0  0  0  0  0  0  0  0
  152.9140  181.7190  163.6230 N   0  0  0  0  0  0  0  0  0  0  0  0
  152.4730  182.6080  162.6200 C   0  0  0  0  0  0  0  0  0  0  0  0
  152.2580  182.0750  161.3430 C   0  0  0  0  0  0  0  0  0  0  0  0
  151.8160  182.8870  160.3000 C   0  0  0  0  0  0  0  0  0  0  0  0
  151.5860  184.2440  160.5240 C   0  0  0  0  0  0  0  0  0  0  0  0
  151.7960  184.8070  161.7910 C   0  0  0  0  0  0  0  0  0  0  0  0
  151.5290  186.2520  162.0040 C   0  0  0  0  0  0  0  0  0  0  0  0
  151.4930  187.0920  160.9480 C   0  0  0  0  0  0  0  0  0  0  0  0
  151.2280  188.4240  161.1810 N   0  0  0  0  0  0  0  0  0  0  0  0
  151.1280  189.5040  160.3480 C   0  0  0  0  0  0  0  0  0  0  0  0
  150.8420  190.5690  161.1770 C   0  0  0  0  0  0  0  0  0  0  0  0
  150.7620  190.1730  162.4910 N   0  0  0  0  0  0  0  0  0  0  0  0
  151.0000  188.8780  162.4500 C   0  0  0  0  0  0  0  0  0  0  0  0
  151.0370  187.9360  163.5560 C   0  0  0  0  0  0  0  0  0  0  0  0
  150.8080  188.3640  164.8390 N   0  0  0  0  0  0  0  0  0  0  0  0
  150.7280  187.4970  165.9870 C   0  0  0  0  0  0  0  0  0  0  0  0
  149.9900  188.1870  167.1170 C   0  0  0  0  0  0  0  0  0  0  0  0
  149.5930  187.4560  168.2370 C   0  0  0  0  0  0  0  0  0  0  0  0
  148.9470  188.1170  169.2780 C   0  0  0  0  0  0  0  0  0  0  0  0
  148.7220  189.4840  169.1810 C   0  0  0  0  0  0  0  0  0  0  0  0
  149.1570  190.1390  168.0410 C   0  0  0  0  0  0  0  0  0  0  0  0
  149.7860  189.5260  167.0140 N   0  0  0  0  0  0  0  0  0  0  0  0
  151.2910  186.6700  163.3100 N   0  0  0  0  0  0  0  0  0  0  0  0
  152.2250  183.9670  162.8350 C   0  0  0  0  0  0  0  0  0  0  0  0
  152.9800  179.9980  165.1140 N   0  0  0  0  0  0  0  0  0  0  0  0
  152.5920  179.0020  166.0360 C   0  0  0  0  0  0  0  0  0  0  0  0
  152.5430  177.6840  165.5670 C   0  0  0  0  0  0  0  0  0  0  0  0
  152.1710  176.6370  166.4130 C   0  0  0  0  0  0  0  0  0  0  0  0
  151.8480  176.8980  167.7420 C   0  0  0  0  0  0  0  0  0  0  0  0
  151.9020  178.2080  168.2380 C   0  0  0  0  0  0  0  0  0  0  0  0
  151.5410  178.5110  169.6720 C   0  0  0  0  0  0  0  0  0  0  0  0
  150.8080  177.5220  170.2600 F   0  0  0  0  0  0  0  0  0  0  0  0
  150.7980  179.6450  169.7940 F   0  0  0  0  0  0  0  0  0  0  0  0
  152.6300  178.6850  170.4710 F   0  0  0  0  0  0  0  0  0  0  0  0
  152.2720  179.2540  167.3730 C   0  0  0  0  0  0  0  0  0  0  0  0
  153.8660  181.8410  163.9280 H   0  0  0  0  0  0  0  0  0  0  0  0
  152.4397  181.0054  161.1614 H   0  0  0  0  0  0  0  0  0  0  0  0
  151.6487  182.4578  159.3011 H   0  0  0  0  0  0  0  0  0  0  0  0
  151.2359  184.8799  159.6975 H   0  0  0  0  0  0  0  0  0  0  0  0
  151.6707  186.7225  159.9272 H   0  0  0  0  0  0  0  0  0  0  0  0
  151.2493  189.5200  159.2548 H   0  0  0  0  0  0  0  0  0  0  0  0
  150.6965  191.6029  160.8308 H   0  0  0  0  0  0  0  0  0  0  0  0
  150.5370  189.3350  164.9610 H   0  0  0  0  0  0  0  0  0  0  0  0
  150.1908  186.5777  165.7107 H   0  0  0  0  0  0  0  0  0  0  0  0
  151.7467  187.2519  166.3220 H   0  0  0  0  0  0  0  0  0  0  0  0
  149.7873  186.3749  168.2965 H   0  0  0  0  0  0  0  0  0  0  0  0
  148.6179  187.5619  170.1688 H   0  0  0  0  0  0  0  0  0  0  0  0
  148.2123  190.0314  169.9875 H   0  0  0  0  0  0  0  0  0  0  0  0
  148.9801  191.2222  167.9671 H   0  0  0  0  0  0  0  0  0  0  0  0
  152.3682  184.3882  163.8410 H   0  0  0  0  0  0  0  0  0  0  0  0
  153.9720  180.1130  164.9840 H   0  0  0  0  0  0  0  0  0  0  0  0
  152.8007  177.4704  164.5192 H   0  0  0  0  0  0  0  0  0  0  0  0
  152.1332  175.6067  166.0296 H   0  0  0  0  0  0  0  0  0  0  0  0
  151.5493  176.0729  168.4054 H   0  0  0  0  0  0  0  0  0  0  0  0
  152.3100  180.2851  167.7544 H   0  0  0  0  0  0  0  0  0  0  0  0
  1  2  2  0
  2  3  1  0
  3  4  1  0
  4  5  2  0
  5  6  1  0
  6  7  2  0
  7  8  1  0
  8  9  1  0
  9 10  2  0
 10 11  1  0
 11 12  1  0
 12 13  2  0
 13 14  1  0
 14 15  2  0
 15 16  1  0
 16 17  1  0
 17 18  1  0
 18 19  1  0
 19 20  2  0
 20 21  1  0
 21 22  2  0
 22 23  1  0
 23 24  2  0
 16 25  2  0
  8 26  2  0
  2 27  1  0
 27 28  1  0
 28 29  2  0
 29 30  1  0
 30 31  2  0
 31 32  1  0
 32 33  1  0
 33 34  1  0
 33 35  1  0
 33 36  1  0
 32 37  2  0
 26  4  1  0
 37 28  1  0
 25  9  1  0
 15 11  1  0
 24 19  1  0
  3 38  1  0
  5 39  1  0
  6 40  1  0
  7 41  1  0
 10 42  1  0
 12 43  1  0
 13 44  1  0
 17 45  1  0
 18 46  1  0
 18 47  1  0
 20 48  1  0
 21 49  1  0
 22 50  1  0
 23 51  1  0
 26 52  1  0
 27 53  1  0
 29 54  1  0
 30 55  1  0
 31 56  1  0
 37 57  1  0
M  END
>  <meeko>  (6) 
{"is_sidechain": [false], "free_energy": -8.312, "intermolecular_energy": -11.241, "internal_energy": -1.027}

$$$$
LIB_ZVHBDYFMHCQADD__W_7USX_LOCAL_COMPLETE__e8__s20260927
     RDKit          3D

 57 61  0  0  0  0  0  0  0  0999 V2000
  132.4120  183.6880  163.8530 O   0  0  0  0  0  0  0  0  0  0  0  0
  132.1260  183.0250  162.8660 C   0  0  0  0  0  0  0  0  0  0  0  0
  131.6390  183.5460  161.6740 N   0  0  0  0  0  0  0  0  0  0  0  0
  131.2620  184.8800  161.4090 C   0  0  0  0  0  0  0  0  0  0  0  0
  131.2940  185.3000  160.0740 C   0  0  0  0  0  0  0  0  0  0  0  0
  130.9290  186.6010  159.7310 C   0  0  0  0  0  0  0  0  0  0  0  0
  130.5310  187.4960  160.7210 C   0  0  0  0  0  0  0  0  0  0  0  0
  130.4920  187.1050  162.0680 C   0  0  0  0  0  0  0  0  0  0  0  0
  130.0500  188.0770  163.1000 C   0  0  0  0  0  0  0  0  0  0  0  0
  130.8620  188.3730  164.1370 C   0  0  0  0  0  0  0  0  0  0  0  0
  130.4250  189.2900  165.0680 N   0  0  0  0  0  0  0  0  0  0  0  0
  130.9940  189.7900  166.2070 C   0  0  0  0  0  0  0  0  0  0  0  0
  130.0650  190.6780  166.7100 C   0  0  0  0  0  0  0  0  0  0  0  0
  128.9460  190.7360  165.9130 N   0  0  0  0  0  0  0  0  0  0  0  0
  129.2040  189.8870  164.9380 C   0  0  0  0  0  0  0  0  0  0  0  0
  128.3660  189.5470  163.8000 C   0  0  0  0  0  0  0  0  0  0  0  0
  127.1370  190.1350  163.6430 N   0  0  0  0  0  0  0  0  0  0  0  0
  126.2770  189.9390  162.5030 C   0  0  0  0  0  0  0  0  0  0  0  0
  125.0920  189.0730  162.8810 C   0  0  0  0  0  0  0  0  0  0  0  0
  125.0190  187.7560  162.4240 C   0  0  0  0  0  0  0  0  0  0  0  0
  123.9390  186.9680  162.8120 C   0  0  0  0  0  0  0  0  0  0  0  0
  122.9690  187.5060  163.6480 C   0  0  0  0  0  0  0  0  0  0  0  0
  123.1210  188.8170  164.0660 C   0  0  0  0  0  0  0  0  0  0  0  0
  124.1560  189.6070  163.7070 N   0  0  0  0  0  0  0  0  0  0  0  0
  128.8030  188.6710  162.9240 N   0  0  0  0  0  0  0  0  0  0  0  0
  130.8460  185.7830  162.3930 C   0  0  0  0  0  0  0  0  0  0  0  0
  132.2480  181.6460  162.7740 N   0  0  0  0  0  0  0  0  0  0  0  0
  132.7970  180.7610  163.7270 C   0  0  0  0  0  0  0  0  0  0  0  0
  132.5210  179.3980  163.5630 C   0  0  0  0  0  0  0  0  0  0  0  0
  133.0250  178.4530  164.4600 C   0  0  0  0  0  0  0  0  0  0  0  0
  133.8160  178.8640  165.5300 C   0  0  0  0  0  0  0  0  0  0  0  0
  134.1160  180.2220  165.7080 C   0  0  0  0  0  0  0  0  0  0  0  0
  134.9590  180.6850  166.8700 C   0  0  0  0  0  0  0  0  0  0  0  0
  135.0160  182.0430  166.9830 F   0  0  0  0  0  0  0  0  0  0  0  0
  136.2510  180.2670  166.7760 F   0  0  0  0  0  0  0  0  0  0  0  0
  134.5030  180.2350  168.0720 F   0  0  0  0  0  0  0  0  0  0  0  0
  133.5960  181.1620  164.8000 C   0  0  0  0  0  0  0  0  0  0  0  0
  131.6240  182.9210  160.8840 H   0  0  0  0  0  0  0  0  0  0  0  0
  131.6099  184.5974  159.2888 H   0  0  0  0  0  0  0  0  0  0  0  0
  130.9553  186.9205  158.6788 H   0  0  0  0  0  0  0  0  0  0  0  0
  130.2440  188.5211  160.4438 H   0  0  0  0  0  0  0  0  0  0  0  0
  131.8474  187.8943  164.2362 H   0  0  0  0  0  0  0  0  0  0  0  0
  131.9779  189.5389  166.6300 H   0  0  0  0  0  0  0  0  0  0  0  0
  130.2021  191.2643  167.6306 H   0  0  0  0  0  0  0  0  0  0  0  0
  126.8850  190.8640  164.3040 H   0  0  0  0  0  0  0  0  0  0  0  0
  125.9147  190.9156  162.1496 H   0  0  0  0  0  0  0  0  0  0  0  0
  126.8469  189.4379  161.7067 H   0  0  0  0  0  0  0  0  0  0  0  0
  125.8020  187.3476  161.7681 H   0  0  0  0  0  0  0  0  0  0  0  0
  123.8546  185.9293  162.4599 H   0  0  0  0  0  0  0  0  0  0  0  0
  122.1040  186.9070  163.9690 H   0  0  0  0  0  0  0  0  0  0  0  0
  122.3531  189.2405  164.7301 H   0  0  0  0  0  0  0  0  0  0  0  0
  130.7947  185.4530  163.4411 H   0  0  0  0  0  0  0  0  0  0  0  0
  131.8430  181.2150  161.9580 H   0  0  0  0  0  0  0  0  0  0  0  0
  131.8998  179.0673  162.7176 H   0  0  0  0  0  0  0  0  0  0  0  0
  132.7974  177.3858  164.3214 H   0  0  0  0  0  0  0  0  0  0  0  0
  134.2073  178.1196  166.2390 H   0  0  0  0  0  0  0  0  0  0  0  0
  133.8222  182.2297  164.9372 H   0  0  0  0  0  0  0  0  0  0  0  0
  1  2  2  0
  2  3  1  0
  3  4  1  0
  4  5  2  0
  5  6  1  0
  6  7  2  0
  7  8  1  0
  8  9  1  0
  9 10  2  0
 10 11  1  0
 11 12  1  0
 12 13  2  0
 13 14  1  0
 14 15  2  0
 15 16  1  0
 16 17  1  0
 17 18  1  0
 18 19  1  0
 19 20  2  0
 20 21  1  0
 21 22  2  0
 22 23  1  0
 23 24  2  0
 16 25  2  0
  8 26  2  0
  2 27  1  0
 27 28  1  0
 28 29  2  0
 29 30  1  0
 30 31  2  0
 31 32  1  0
 32 33  1  0
 33 34  1  0
 33 35  1  0
 33 36  1  0
 32 37  2  0
 26  4  1  0
 37 28  1  0
 25  9  1  0
 15 11  1  0
 24 19  1  0
  3 38  1  0
  5 39  1  0
  6 40  1  0
  7 41  1  0
 10 42  1  0
 12 43  1  0
 13 44  1  0
 17 45  1  0
 18 46  1  0
 18 47  1  0
 20 48  1  0
 21 49  1  0
 22 50  1  0
 23 51  1  0
 26 52  1  0
 27 53  1  0
 29 54  1  0
 30 55  1  0
 31 56  1  0
 37 57  1  0
M  END
>  <meeko>  (7) 
{"is_sidechain": [false], "free_energy": -8.312, "intermolecular_energy": -11.843, "internal_energy": -0.425}

$$$$
LIB_ZVHBDYFMHCQADD__W_7USX_LOCAL_COMPLETE__e8__s20260927
     RDKit          3D

 57 61  0  0  0  0  0  0  0  0999 V2000
  131.4240  183.3990  163.7830 O   0  0  0  0  0  0  0  0  0  0  0  0
  132.5840  183.3560  163.3990 C   0  0  0  0  0  0  0  0  0  0  0  0
  133.3550  184.4650  163.0750 N   0  0  0  0  0  0  0  0  0  0  0  0
  132.9350  185.8100  162.9990 C   0  0  0  0  0  0  0  0  0  0  0  0
  133.8810  186.7510  162.5740 C   0  0  0  0  0  0  0  0  0  0  0  0
  133.5420  188.0990  162.4660 C   0  0  0  0  0  0  0  0  0  0  0  0
  132.2520  188.5200  162.7850 C   0  0  0  0  0  0  0  0  0  0  0  0
  131.2850  187.6010  163.2170 C   0  0  0  0  0  0  0  0  0  0  0  0
  129.9140  188.0760  163.5370 C   0  0  0  0  0  0  0  0  0  0  0  0
  128.9590  188.0640  162.5840 C   0  0  0  0  0  0  0  0  0  0  0  0
  127.6950  188.4980  162.9200 N   0  0  0  0  0  0  0  0  0  0  0  0
  126.5370  188.6110  162.2010 C   0  0  0  0  0  0  0  0  0  0  0  0
  125.6090  189.1060  163.0940 C   0  0  0  0  0  0  0  0  0  0  0  0
  126.1640  189.2980  164.3370 N   0  0  0  0  0  0  0  0  0  0  0  0
  127.4180  188.9210  164.1890 C   0  0  0  0  0  0  0  0  0  0  0  0
  128.4740  188.9060  165.1870 C   0  0  0  0  0  0  0  0  0  0  0  0
  128.2220  189.3210  166.4700 N   0  0  0  0  0  0  0  0  0  0  0  0
  129.1720  189.2550  167.5520 C   0  0  0  0  0  0  0  0  0  0  0  0
  128.9860  187.9710  168.3360 C   0  0  0  0  0  0  0  0  0  0  0  0
  129.8360  187.6800  169.4040 C   0  0  0  0  0  0  0  0  0  0  0  0
  129.6260  186.5120  170.1330 C   0  0  0  0  0  0  0  0  0  0  0  0
  128.5750  185.6730  169.7860 C   0  0  0  0  0  0  0  0  0  0  0  0
  127.7700  186.0390  168.7200 C   0  0  0  0  0  0  0  0  0  0  0  0
  127.9490  187.1650  167.9940 N   0  0  0  0  0  0  0  0  0  0  0  0
  129.6720  188.4880  164.8450 N   0  0  0  0  0  0  0  0  0  0  0  0
  131.6410  186.2420  163.3020 C   0  0  0  0  0  0  0  0  0  0  0  0
  133.3210  182.1920  163.2290 N   0  0  0  0  0  0  0  0  0  0  0  0
  132.9360  180.8710  163.5430 C   0  0  0  0  0  0  0  0  0  0  0  0
  133.3330  180.3710  164.7900 C   0  0  0  0  0  0  0  0  0  0  0  0
  132.9930  179.0740  165.1810 C   0  0  0  0  0  0  0  0  0  0  0  0
  132.2470  178.2640  164.3290 C   0  0  0  0  0  0  0  0  0  0  0  0
  131.8270  178.7470  163.0820 C   0  0  0  0  0  0  0  0  0  0  0  0
  131.0310  177.8760  162.1410 C   0  0  0  0  0  0  0  0  0  0  0  0
  131.7380  176.8070  161.6730 F   0  0  0  0  0  0  0  0  0  0  0  0
  130.6090  178.5520  161.0380 F   0  0  0  0  0  0  0  0  0  0  0  0
  129.9130  177.3540  162.7160 F   0  0  0  0  0  0  0  0  0  0  0  0
  132.1830  180.0530  162.6980 C   0  0  0  0  0  0  0  0  0  0  0  0
  134.3430  184.3070  162.9570 H   0  0  0  0  0  0  0  0  0  0  0  0
  134.9007  186.4236  162.3231 H   0  0  0  0  0  0  0  0  0  0  0  0
  134.2920  188.8299  162.1293 H   0  0  0  0  0  0  0  0  0  0  0  0
  131.9898  189.5847  162.6969 H   0  0  0  0  0  0  0  0  0  0  0  0
  129.1837  187.7166  161.5648 H   0  0  0  0  0  0  0  0  0  0  0  0
  126.3797  188.3615  161.1413 H   0  0  0  0  0  0  0  0  0  0  0  0
  124.5594  189.3197  162.8434 H   0  0  0  0  0  0  0  0  0  0  0  0
  127.2610  189.5560  166.6990 H   0  0  0  0  0  0  0  0  0  0  0  0
  130.1922  189.2855  167.1418 H   0  0  0  0  0  0  0  0  0  0  0  0
  129.0107  190.1114  168.2233 H   0  0  0  0  0  0  0  0  0  0  0  0
  130.6584  188.3620  169.6657 H   0  0  0  0  0  0  0  0  0  0  0  0
  130.2860  186.2566  170.9751 H   0  0  0  0  0  0  0  0  0  0  0  0
  128.3870  184.7431  170.3427 H   0  0  0  0  0  0  0  0  0  0  0  0
  126.9364  185.3746  168.4484 H   0  0  0  0  0  0  0  0  0  0  0  0
  130.8857  185.5053  163.6131 H   0  0  0  0  0  0  0  0  0  0  0  0
  134.2130  182.2920  162.7710 H   0  0  0  0  0  0  0  0  0  0  0  0
  133.9194  181.0074  165.4691 H   0  0  0  0  0  0  0  0  0  0  0  0
  133.3144  178.6927  166.1615 H   0  0  0  0  0  0  0  0  0  0  0  0
  131.9860  177.2404  164.6359 H   0  0  0  0  0  0  0  0  0  0  0  0
  131.8634  180.4354  161.7174 H   0  0  0  0  0  0  0  0  0  0  0  0
  1  2  2  0
  2  3  1  0
  3  4  1  0
  4  5  2  0
  5  6  1  0
  6  7  2  0
  7  8  1  0
  8  9  1  0
  9 10  2  0
 10 11  1  0
 11 12  1  0
 12 13  2  0
 13 14  1  0
 14 15  2  0
 15 16  1  0
 16 17  1  0
 17 18  1  0
 18 19  1  0
 19 20  2  0
 20 21  1  0
 21 22  2  0
 22 23  1  0
 23 24  2  0
 16 25  2  0
  8 26  2  0
  2 27  1  0
 27 28  1  0
 28 29  2  0
 29 30  1  0
 30 31  2  0
 31 32  1  0
 32 33  1  0
 33 34  1  0
 33 35  1  0
 33 36  1  0
 32 37  2  0
 26  4  1  0
 37 28  1  0
 25  9  1  0
 15 11  1  0
 24 19  1  0
  3 38  1  0
  5 39  1  0
  6 40  1  0
  7 41  1  0
 10 42  1  0
 12 43  1  0
 13 44  1  0
 17 45  1  0
 18 46  1  0
 18 47  1  0
 20 48  1  0
 21 49  1  0
 22 50  1  0
 23 51  1  0
 26 52  1  0
 27 53  1  0
 29 54  1  0
 30 55  1  0
 31 56  1  0
 37 57  1  0
M  END
>  <meeko>  (8) 
{"is_sidechain": [false], "free_energy": -8.231, "intermolecular_energy": -11.502, "internal_energy": -0.657}

$$$$
LIB_ZVHBDYFMHCQADD__W_7USX_LOCAL_COMPLETE__e8__s20260927
     RDKit          3D

 57 61  0  0  0  0  0  0  0  0999 V2000
  131.3620  184.1710  163.0040 O   0  0  0  0  0  0  0  0  0  0  0  0
  132.3350  184.6810  162.4660 C   0  0  0  0  0  0  0  0  0  0  0  0
  132.3070  185.8480  161.7150 N   0  0  0  0  0  0  0  0  0  0  0  0
  131.1720  186.5880  161.3200 C   0  0  0  0  0  0  0  0  0  0  0  0
  131.0960  186.9730  159.9760 C   0  0  0  0  0  0  0  0  0  0  0  0
  130.0040  187.7010  159.5070 C   0  0  0  0  0  0  0  0  0  0  0  0
  128.9760  188.0540  160.3800 C   0  0  0  0  0  0  0  0  0  0  0  0
  129.0260  187.6860  161.7320 C   0  0  0  0  0  0  0  0  0  0  0  0
  127.9100  188.0630  162.6360 C   0  0  0  0  0  0  0  0  0  0  0  0
  126.6670  187.5940  162.4020 C   0  0  0  0  0  0  0  0  0  0  0  0
  125.6580  187.9530  163.2700 N   0  0  0  0  0  0  0  0  0  0  0  0
  124.3230  187.6560  163.3060 C   0  0  0  0  0  0  0  0  0  0  0  0
  123.8420  188.3110  164.4220 C   0  0  0  0  0  0  0  0  0  0  0  0
  124.8420  188.9990  165.0680 N   0  0  0  0  0  0  0  0  0  0  0  0
  125.9160  188.7570  164.3440 C   0  0  0  0  0  0  0  0  0  0  0  0
  127.2720  189.2300  164.5650 C   0  0  0  0  0  0  0  0  0  0  0  0
  127.5600  190.0350  165.6370 N   0  0  0  0  0  0  0  0  0  0  0  0
  128.8840  190.4760  165.9960 C   0  0  0  0  0  0  0  0  0  0  0  0
  129.4350  189.6260  167.1230 C   0  0  0  0  0  0  0  0  0  0  0  0
  130.7960  189.6710  167.4280 C   0  0  0  0  0  0  0  0  0  0  0  0
  131.2740  188.9080  168.4890 C   0  0  0  0  0  0  0  0  0  0  0  0
  130.3870  188.1300  169.2220 C   0  0  0  0  0  0  0  0  0  0  0  0
  129.0500  188.1480  168.8630 C   0  0  0  0  0  0  0  0  0  0  0  0
  128.5560  188.8770  167.8380 N   0  0  0  0  0  0  0  0  0  0  0  0
  128.2190  188.8750  163.7240 N   0  0  0  0  0  0  0  0  0  0  0  0
  130.1280  186.9360  162.1830 C   0  0  0  0  0  0  0  0  0  0  0  0
  133.6280  184.1780  162.5250 N   0  0  0  0  0  0  0  0  0  0  0  0
  134.0920  183.0710  163.2670 C   0  0  0  0  0  0  0  0  0  0  0  0
  135.2700  183.2470  164.0040 C   0  0  0  0  0  0  0  0  0  0  0  0
  135.7990  182.2030  164.7660 C   0  0  0  0  0  0  0  0  0  0  0  0
  135.1500  180.9710  164.8030 C   0  0  0  0  0  0  0  0  0  0  0  0
  133.9630  180.7750  164.0840 C   0  0  0  0  0  0  0  0  0  0  0  0
  133.2560  179.4420  164.1020 C   0  0  0  0  0  0  0  0  0  0  0  0
  131.9330  179.5420  164.4170 F   0  0  0  0  0  0  0  0  0  0  0  0
  133.7890  178.5810  165.0110 F   0  0  0  0  0  0  0  0  0  0  0  0
  133.3000  178.8000  162.9010 F   0  0  0  0  0  0  0  0  0  0  0  0
  133.4460  181.8330  163.3150 C   0  0  0  0  0  0  0  0  0  0  0  0
  133.1980  186.2590  161.4890 H   0  0  0  0  0  0  0  0  0  0  0  0
  131.9056  186.6984  159.2839 H   0  0  0  0  0  0  0  0  0  0  0  0
  129.9533  187.9969  158.4487 H   0  0  0  0  0  0  0  0  0  0  0  0
  128.1160  188.6276  160.0039 H   0  0  0  0  0  0  0  0  0  0  0  0
  126.4636  186.9414  161.5401 H   0  0  0  0  0  0  0  0  0  0  0  0
  123.7564  187.0315  162.5997 H   0  0  0  0  0  0  0  0  0  0  0  0
  122.7930  188.2858  164.7522 H   0  0  0  0  0  0  0  0  0  0  0  0
  126.8090  190.2110  166.2980 H   0  0  0  0  0  0  0  0  0  0  0  0
  129.5446  190.3902  165.1207 H   0  0  0  0  0  0  0  0  0  0  0  0
  128.8337  191.5230  166.3297 H   0  0  0  0  0  0  0  0  0  0  0  0
  131.4801  190.2996  166.8391 H   0  0  0  0  0  0  0  0  0  0  0  0
  132.3438  188.9209  168.7447 H   0  0  0  0  0  0  0  0  0  0  0  0
  130.7373  187.5162  170.0649 H   0  0  0  0  0  0  0  0  0  0  0  0
  128.3489  187.5329  169.4462 H   0  0  0  0  0  0  0  0  0  0  0  0
  130.1691  186.6172  163.2350 H   0  0  0  0  0  0  0  0  0  0  0  0
  134.3050  184.6150  161.9190 H   0  0  0  0  0  0  0  0  0  0  0  0
  135.7846  184.2190  163.9823 H   0  0  0  0  0  0  0  0  0  0  0  0
  136.7274  182.3535  165.3365 H   0  0  0  0  0  0  0  0  0  0  0  0
  135.5711  180.1481  165.3993 H   0  0  0  0  0  0  0  0  0  0  0  0
  132.5187  181.6835  162.7425 H   0  0  0  0  0  0  0  0  0  0  0  0
  1  2  2  0
  2  3  1  0
  3  4  1  0
  4  5  2  0
  5  6  1  0
  6  7  2  0
  7  8  1  0
  8  9  1  0
  9 10  2  0
 10 11  1  0
 11 12  1  0
 12 13  2  0
 13 14  1  0
 14 15  2  0
 15 16  1  0
 16 17  1  0
 17 18  1  0
 18 19  1  0
 19 20  2  0
 20 21  1  0
 21 22  2  0
 22 23  1  0
 23 24  2  0
 16 25  2  0
  8 26  2  0
  2 27  1  0
 27 28  1  0
 28 29  2  0
 29 30  1  0
 30 31  2  0
 31 32  1  0
 32 33  1  0
 33 34  1  0
 33 35  1  0
 33 36  1  0
 32 37  2  0
 26  4  1  0
 37 28  1  0
 25  9  1  0
 15 11  1  0
 24 19  1  0
  3 38  1  0
  5 39  1  0
  6 40  1  0
  7 41  1  0
 10 42  1  0
 12 43  1  0
 13 44  1  0
 17 45  1  0
 18 46  1  0
 18 47  1  0
 20 48  1  0
 21 49  1  0
 22 50  1  0
 23 51  1  0
 26 52  1  0
 27 53  1  0
 29 54  1  0
 30 55  1  0
 31 56  1  0
 37 57  1  0
M  END
>  <meeko>  (9) 
{"is_sidechain": [false], "free_energy": -8.15, "intermolecular_energy": -11.246, "internal_energy": -0.803}

$$$$
