LIB_FCRHJSNRFAAYQD__W_7USX_LOCAL_COMPLETE__e8__s20260927
     RDKit          3D

 65 70  0  0  0  0  0  0  0  0999 V2000
  129.0160  187.1590  168.2570 O   0  0  0  0  0  0  0  0  0  0  0  0
  128.0260  187.1620  167.5380 C   0  0  0  0  0  0  0  0  0  0  0  0
  126.8150  186.5550  167.8440 N   0  0  0  0  0  0  0  0  0  0  0  0
  126.4560  185.8940  169.0390 C   0  0  0  0  0  0  0  0  0  0  0  0
  126.0360  186.5460  170.2010 C   0  0  0  0  0  0  0  0  0  0  0  0
  125.7020  185.8140  171.3460 C   0  0  0  0  0  0  0  0  0  0  0  0
  125.7760  184.4240  171.3380 C   0  0  0  0  0  0  0  0  0  0  0  0
  126.1690  183.7650  170.1760 C   0  0  0  0  0  0  0  0  0  0  0  0
  126.2510  182.3920  170.2340 O   0  0  0  0  0  0  0  0  0  0  0  0
  127.3400  181.8530  170.8800 C   0  0  0  0  0  0  0  0  0  0  0  0
  127.0810  180.9680  171.9270 C   0  0  0  0  0  0  0  0  0  0  0  0
  128.1400  180.3640  172.6050 C   0  0  0  0  0  0  0  0  0  0  0  0
  129.4560  180.6350  172.2250 C   0  0  0  0  0  0  0  0  0  0  0  0
  129.7130  181.5020  171.1620 C   0  0  0  0  0  0  0  0  0  0  0  0
  128.6550  182.1070  170.4820 C   0  0  0  0  0  0  0  0  0  0  0  0
  126.5270  184.4940  169.0370 C   0  0  0  0  0  0  0  0  0  0  0  0
  127.9510  187.7820  166.2970 N   0  0  0  0  0  0  0  0  0  0  0  0
  128.9960  188.4040  165.5810 C   0  0  0  0  0  0  0  0  0  0  0  0
  129.1580  189.7840  165.7560 C   0  0  0  0  0  0  0  0  0  0  0  0
  130.1640  190.4730  165.0800 C   0  0  0  0  0  0  0  0  0  0  0  0
  131.0210  189.7850  164.2220 C   0  0  0  0  0  0  0  0  0  0  0  0
  130.8860  188.4030  164.0300 C   0  0  0  0  0  0  0  0  0  0  0  0
  131.8050  187.6990  163.0990 C   0  0  0  0  0  0  0  0  0  0  0  0
  132.4600  188.3950  162.1450 C   0  0  0  0  0  0  0  0  0  0  0  0
  133.2950  187.7070  161.2920 N   0  0  0  0  0  0  0  0  0  0  0  0
  134.0840  188.1100  160.2490 C   0  0  0  0  0  0  0  0  0  0  0  0
  134.6810  186.9550  159.7850 C   0  0  0  0  0  0  0  0  0  0  0  0
  134.2790  185.8590  160.5110 N   0  0  0  0  0  0  0  0  0  0  0  0
  133.4480  186.3540  161.4060 C   0  0  0  0  0  0  0  0  0  0  0  0
  132.7160  185.6450  162.4390 C   0  0  0  0  0  0  0  0  0  0  0  0
  132.8500  184.2850  162.5740 N   0  0  0  0  0  0  0  0  0  0  0  0
  132.1860  183.5050  163.5800 C   0  0  0  0  0  0  0  0  0  0  0  0
  133.1110  182.4220  164.0710 C   0  0  0  0  0  0  0  0  0  0  0  0
  132.7370  181.5840  165.1250 C   0  0  0  0  0  0  0  0  0  0  0  0
  133.6340  180.6190  165.5560 C   0  0  0  0  0  0  0  0  0  0  0  0
  134.8600  180.4400  165.0220 N   0  0  0  0  0  0  0  0  0  0  0  0
  135.2090  181.2690  164.0160 C   0  0  0  0  0  0  0  0  0  0  0  0
  134.3840  182.2640  163.5140 C   0  0  0  0  0  0  0  0  0  0  0  0
  131.9230  186.3190  163.2420 N   0  0  0  0  0  0  0  0  0  0  0  0
  129.8530  187.7290  164.7070 C   0  0  0  0  0  0  0  0  0  0  0  0
  126.1240  186.5370  167.1120 H   0  0  0  0  0  0  0  0  0  0  0  0
  125.9673  187.6438  170.2161 H   0  0  0  0  0  0  0  0  0  0  0  0
  125.3794  186.3396  172.2568 H   0  0  0  0  0  0  0  0  0  0  0  0
  125.5259  183.8505  172.2427 H   0  0  0  0  0  0  0  0  0  0  0  0
  126.0433  180.7469  172.2174 H   0  0  0  0  0  0  0  0  0  0  0  0
  127.9385  179.6748  173.4383 H   0  0  0  0  0  0  0  0  0  0  0  0
  130.2913  180.1645  172.7643 H   0  0  0  0  0  0  0  0  0  0  0  0
  130.7503  181.7087  170.8599 H   0  0  0  0  0  0  0  0  0  0  0  0
  128.8556  182.7810  169.6362 H   0  0  0  0  0  0  0  0  0  0  0  0
  126.8664  183.9653  168.1341 H   0  0  0  0  0  0  0  0  0  0  0  0
  127.0330  187.8630  165.8910 H   0  0  0  0  0  0  0  0  0  0  0  0
  128.4849  190.3297  166.4335 H   0  0  0  0  0  0  0  0  0  0  0  0
  130.2814  191.5573  165.2233 H   0  0  0  0  0  0  0  0  0  0  0  0
  131.8123  190.3331  163.6895 H   0  0  0  0  0  0  0  0  0  0  0  0
  132.3302  189.4833  162.0513 H   0  0  0  0  0  0  0  0  0  0  0  0
  134.2142  189.1322  159.8640 H   0  0  0  0  0  0  0  0  0  0  0  0
  135.3875  186.9166  158.9427 H   0  0  0  0  0  0  0  0  0  0  0  0
  133.4810  183.8210  161.9280 H   0  0  0  0  0  0  0  0  0  0  0  0
  131.9046  184.1555  164.4213 H   0  0  0  0  0  0  0  0  0  0  0  0
  131.2826  183.0473  163.1507 H   0  0  0  0  0  0  0  0  0  0  0  0
  131.7515  181.6880  165.6026 H   0  0  0  0  0  0  0  0  0  0  0  0
  133.3282  179.9603  166.3822 H   0  0  0  0  0  0  0  0  0  0  0  0
  136.2064  181.1483  163.5680 H   0  0  0  0  0  0  0  0  0  0  0  0
  134.7236  182.9152  162.6951 H   0  0  0  0  0  0  0  0  0  0  0  0
  129.7171  186.6495  164.5453 H   0  0  0  0  0  0  0  0  0  0  0  0
  1  2  2  0
  2  3  1  0
  3  4  1  0
  4  5  2  0
  5  6  1  0
  6  7  2  0
  7  8  1  0
  8  9  1  0
  9 10  1  0
 10 11  2  0
 11 12  1  0
 12 13  2  0
 13 14  1  0
 14 15  2  0
  8 16  2  0
  2 17  1  0
 17 18  1  0
 18 19  2  0
 19 20  1  0
 20 21  2  0
 21 22  1  0
 22 23  1  0
 23 24  2  0
 24 25  1  0
 25 26  1  0
 26 27  2  0
 27 28  1  0
 28 29  2  0
 29 30  1  0
 30 31  1  0
 31 32  1  0
 32 33  1  0
 33 34  2  0
 34 35  1  0
 35 36  2  0
 36 37  1  0
 37 38  2  0
 30 39  2  0
 22 40  2  0
 16  4  1  0
 40 18  1  0
 15 10  1  0
 39 23  1  0
 29 25  1  0
 38 33  1  0
  3 41  1  0
  5 42  1  0
  6 43  1  0
  7 44  1  0
 11 45  1  0
 12 46  1  0
 13 47  1  0
 14 48  1  0
 15 49  1  0
 16 50  1  0
 17 51  1  0
 19 52  1  0
 20 53  1  0
 21 54  1  0
 24 55  1  0
 26 56  1  0
 27 57  1  0
 31 58  1  0
 32 59  1  0
 32 60  1  0
 34 61  1  0
 35 62  1  0
 37 63  1  0
 38 64  1  0
 40 65  1  0
M  END
>  <meeko>  (1) 
{"is_sidechain": [false], "free_energy": -9.036, "intermolecular_energy": -12.734, "internal_energy": -1.441}

$$$$
LIB_FCRHJSNRFAAYQD__W_7USX_LOCAL_COMPLETE__e8__s20260927
     RDKit          3D

 65 70  0  0  0  0  0  0  0  0999 V2000
  131.0860  183.9300  162.4800 O   0  0  0  0  0  0  0  0  0  0  0  0
  131.7600  184.8330  162.9580 C   0  0  0  0  0  0  0  0  0  0  0  0
  132.9990  184.6690  163.5640 N   0  0  0  0  0  0  0  0  0  0  0  0
  133.7520  183.4820  163.6850 C   0  0  0  0  0  0  0  0  0  0  0  0
  135.0730  183.3410  163.2530 C   0  0  0  0  0  0  0  0  0  0  0  0
  135.7470  182.1250  163.4070 C   0  0  0  0  0  0  0  0  0  0  0  0
  135.1120  181.0400  164.0040 C   0  0  0  0  0  0  0  0  0  0  0  0
  133.8040  181.1790  164.4630 C   0  0  0  0  0  0  0  0  0  0  0  0
  133.2160  180.0660  165.0190 O   0  0  0  0  0  0  0  0  0  0  0  0
  132.2850  179.3980  164.2580 C   0  0  0  0  0  0  0  0  0  0  0  0
  132.7700  178.5700  163.2440 C   0  0  0  0  0  0  0  0  0  0  0  0
  131.8800  177.8420  162.4550 C   0  0  0  0  0  0  0  0  0  0  0  0
  130.5060  177.9320  162.6890 C   0  0  0  0  0  0  0  0  0  0  0  0
  130.0240  178.7420  163.7180 C   0  0  0  0  0  0  0  0  0  0  0  0
  130.9120  179.4710  164.5090 C   0  0  0  0  0  0  0  0  0  0  0  0
  133.1190  182.3860  164.2880 C   0  0  0  0  0  0  0  0  0  0  0  0
  131.3970  186.1740  162.9650 N   0  0  0  0  0  0  0  0  0  0  0  0
  130.1690  186.7350  162.5530 C   0  0  0  0  0  0  0  0  0  0  0  0
  130.1430  187.3700  161.3050 C   0  0  0  0  0  0  0  0  0  0  0  0
  128.9700  187.9540  160.8300 C   0  0  0  0  0  0  0  0  0  0  0  0
  127.8080  187.9050  161.5990 C   0  0  0  0  0  0  0  0  0  0  0  0
  127.8020  187.2740  162.8500 C   0  0  0  0  0  0  0  0  0  0  0  0
  126.5530  187.2500  163.6550 C   0  0  0  0  0  0  0  0  0  0  0  0
  125.3620  187.0780  163.0430 C   0  0  0  0  0  0  0  0  0  0  0  0
  124.2240  187.0730  163.8190 N   0  0  0  0  0  0  0  0  0  0  0  0
  122.8990  186.9230  163.5130 C   0  0  0  0  0  0  0  0  0  0  0  0
  122.2400  187.0130  164.7220 C   0  0  0  0  0  0  0  0  0  0  0  0
  123.1210  187.2160  165.7570 N   0  0  0  0  0  0  0  0  0  0  0  0
  124.3020  187.2460  165.1720 C   0  0  0  0  0  0  0  0  0  0  0  0
  125.6020  187.4380  165.7860 C   0  0  0  0  0  0  0  0  0  0  0  0
  125.7090  187.6150  167.1440 N   0  0  0  0  0  0  0  0  0  0  0  0
  126.9530  187.7870  167.8400 C   0  0  0  0  0  0  0  0  0  0  0  0
  127.2870  186.5260  168.5930 C   0  0  0  0  0  0  0  0  0  0  0  0
  126.3890  185.4550  168.6310 C   0  0  0  0  0  0  0  0  0  0  0  0
  126.7330  184.3260  169.3590 C   0  0  0  0  0  0  0  0  0  0  0  0
  127.8880  184.1970  170.0450 N   0  0  0  0  0  0  0  0  0  0  0  0
  128.7350  185.2470  170.0080 C   0  0  0  0  0  0  0  0  0  0  0  0
  128.4830  186.4180  169.3100 C   0  0  0  0  0  0  0  0  0  0  0  0
  126.6760  187.4410  165.0290 N   0  0  0  0  0  0  0  0  0  0  0  0
  129.0010  186.7060  163.3210 C   0  0  0  0  0  0  0  0  0  0  0  0
  133.3890  185.4810  164.0150 H   0  0  0  0  0  0  0  0  0  0  0  0
  135.5880  184.1942  162.7874 H   0  0  0  0  0  0  0  0  0  0  0  0
  136.7842  182.0258  163.0544 H   0  0  0  0  0  0  0  0  0  0  0  0
  135.6386  180.0804  164.1126 H   0  0  0  0  0  0  0  0  0  0  0  0
  133.8530  178.4920  163.0676 H   0  0  0  0  0  0  0  0  0  0  0  0
  132.2599  177.1972  161.6488 H   0  0  0  0  0  0  0  0  0  0  0  0
  129.8033  177.3640  162.0617 H   0  0  0  0  0  0  0  0  0  0  0  0
  128.9420  178.8057  163.9057 H   0  0  0  0  0  0  0  0  0  0  0  0
  130.5331  180.1010  165.3273 H   0  0  0  0  0  0  0  0  0  0  0  0
  132.0761  182.4759  164.6260 H   0  0  0  0  0  0  0  0  0  0  0  0
  132.1140  186.8320  163.2250 H   0  0  0  0  0  0  0  0  0  0  0  0
  131.0569  187.4082  160.6939 H   0  0  0  0  0  0  0  0  0  0  0  0
  128.9610  188.4529  159.8497 H   0  0  0  0  0  0  0  0  0  0  0  0
  126.8850  188.3672  161.2190 H   0  0  0  0  0  0  0  0  0  0  0  0
  125.3019  186.9453  161.9527 H   0  0  0  0  0  0  0  0  0  0  0  0
  122.4553  186.7650  162.5189 H   0  0  0  0  0  0  0  0  0  0  0  0
  121.1495  186.9326  164.8419 H   0  0  0  0  0  0  0  0  0  0  0  0
  124.8440  187.5980  167.6760 H   0  0  0  0  0  0  0  0  0  0  0  0
  127.7516  188.0034  167.1151 H   0  0  0  0  0  0  0  0  0  0  0  0
  126.8635  188.6237  168.5485 H   0  0  0  0  0  0  0  0  0  0  0  0
  125.4300  185.5069  168.0948 H   0  0  0  0  0  0  0  0  0  0  0  0
  126.0227  183.4863  169.3785 H   0  0  0  0  0  0  0  0  0  0  0  0
  129.6808  185.1691  170.5643 H   0  0  0  0  0  0  0  0  0  0  0  0
  129.2084  187.2448  169.3199 H   0  0  0  0  0  0  0  0  0  0  0  0
  129.0193  186.2301  164.3126 H   0  0  0  0  0  0  0  0  0  0  0  0
  1  2  2  0
  2  3  1  0
  3  4  1  0
  4  5  2  0
  5  6  1  0
  6  7  2  0
  7  8  1  0
  8  9  1  0
  9 10  1  0
 10 11  2  0
 11 12  1  0
 12 13  2  0
 13 14  1  0
 14 15  2  0
  8 16  2  0
  2 17  1  0
 17 18  1  0
 18 19  2  0
 19 20  1  0
 20 21  2  0
 21 22  1  0
 22 23  1  0
 23 24  2  0
 24 25  1  0
 25 26  1  0
 26 27  2  0
 27 28  1  0
 28 29  2  0
 29 30  1  0
 30 31  1  0
 31 32  1  0
 32 33  1  0
 33 34  2  0
 34 35  1  0
 35 36  2  0
 36 37  1  0
 37 38  2  0
 30 39  2  0
 22 40  2  0
 16  4  1  0
 40 18  1  0
 15 10  1  0
 39 23  1  0
 29 25  1  0
 38 33  1  0
  3 41  1  0
  5 42  1  0
  6 43  1  0
  7 44  1  0
 11 45  1  0
 12 46  1  0
 13 47  1  0
 14 48  1  0
 15 49  1  0
 16 50  1  0
 17 51  1  0
 19 52  1  0
 20 53  1  0
 21 54  1  0
 24 55  1  0
 26 56  1  0
 27 57  1  0
 31 58  1  0
 32 59  1  0
 32 60  1  0
 34 61  1  0
 35 62  1  0
 37 63  1  0
 38 64  1  0
 40 65  1  0
M  END
>  <meeko>  (2) 
{"is_sidechain": [false], "free_energy": -8.943, "intermolecular_energy": -12.787, "internal_energy": -1.256}

$$$$
LIB_FCRHJSNRFAAYQD__W_7USX_LOCAL_COMPLETE__e8__s20260927
     RDKit          3D

 65 70  0  0  0  0  0  0  0  0999 V2000
  123.0070  168.2220  169.0020 O   0  0  0  0  0  0  0  0  0  0  0  0
  121.9000  168.5560  169.4030 C   0  0  0  0  0  0  0  0  0  0  0  0
  121.5200  168.6160  170.7370 N   0  0  0  0  0  0  0  0  0  0  0  0
  122.3210  168.3870  171.8760 C   0  0  0  0  0  0  0  0  0  0  0  0
  123.3520  167.4450  171.9360 C   0  0  0  0  0  0  0  0  0  0  0  0
  124.0960  167.2790  173.1090 C   0  0  0  0  0  0  0  0  0  0  0  0
  123.8260  168.0590  174.2300 C   0  0  0  0  0  0  0  0  0  0  0  0
  122.8180  169.0180  174.1710 C   0  0  0  0  0  0  0  0  0  0  0  0
  122.5750  169.7410  175.3170 O   0  0  0  0  0  0  0  0  0  0  0  0
  122.6270  171.1120  175.2200 C   0  0  0  0  0  0  0  0  0  0  0  0
  123.6000  171.6530  174.3780 C   0  0  0  0  0  0  0  0  0  0  0  0
  123.6870  173.0350  174.2130 C   0  0  0  0  0  0  0  0  0  0  0  0
  122.7910  173.8740  174.8780 C   0  0  0  0  0  0  0  0  0  0  0  0
  121.8030  173.3310  175.7000 C   0  0  0  0  0  0  0  0  0  0  0  0
  121.7140  171.9490  175.8670 C   0  0  0  0  0  0  0  0  0  0  0  0
  122.0550  169.1700  173.0080 C   0  0  0  0  0  0  0  0  0  0  0  0
  120.8440  168.9370  168.5860 N   0  0  0  0  0  0  0  0  0  0  0  0
  120.7890  168.8990  167.1750 C   0  0  0  0  0  0  0  0  0  0  0  0
  120.4090  170.0760  166.5190 C   0  0  0  0  0  0  0  0  0  0  0  0
  120.3250  170.1170  165.1280 C   0  0  0  0  0  0  0  0  0  0  0  0
  120.6250  168.9800  164.3790 C   0  0  0  0  0  0  0  0  0  0  0  0
  121.0120  167.7880  165.0080 C   0  0  0  0  0  0  0  0  0  0  0  0
  121.3100  166.5880  164.1860 C   0  0  0  0  0  0  0  0  0  0  0  0
  121.0080  166.5820  162.8690 C   0  0  0  0  0  0  0  0  0  0  0  0
  121.2890  165.4470  162.1400 N   0  0  0  0  0  0  0  0  0  0  0  0
  121.1120  165.1310  160.8220 C   0  0  0  0  0  0  0  0  0  0  0  0
  121.5900  163.8420  160.6950 C   0  0  0  0  0  0  0  0  0  0  0  0
  122.0500  163.3600  161.8980 N   0  0  0  0  0  0  0  0  0  0  0  0
  121.8520  164.3560  162.7390 C   0  0  0  0  0  0  0  0  0  0  0  0
  122.1500  164.4020  164.1580 C   0  0  0  0  0  0  0  0  0  0  0  0
  122.7140  163.3180  164.7840 N   0  0  0  0  0  0  0  0  0  0  0  0
  123.0660  163.2840  166.1760 C   0  0  0  0  0  0  0  0  0  0  0  0
  123.7900  161.9980  166.4810 C   0  0  0  0  0  0  0  0  0  0  0  0
  123.5120  160.8310  165.7630 C   0  0  0  0  0  0  0  0  0  0  0  0
  124.1870  159.6680  166.0990 C   0  0  0  0  0  0  0  0  0  0  0  0
  125.1000  159.5890  167.0890 N   0  0  0  0  0  0  0  0  0  0  0  0
  125.3440  160.7210  167.7810 C   0  0  0  0  0  0  0  0  0  0  0  0
  124.7220  161.9330  167.5220 C   0  0  0  0  0  0  0  0  0  0  0  0
  121.8740  165.4940  164.8370 N   0  0  0  0  0  0  0  0  0  0  0  0
  121.0720  167.7610  166.4140 C   0  0  0  0  0  0  0  0  0  0  0  0
  120.5460  168.7950  170.9180 H   0  0  0  0  0  0  0  0  0  0  0  0
  123.5802  166.8292  171.0536 H   0  0  0  0  0  0  0  0  0  0  0  0
  124.8989  166.5280  173.1458 H   0  0  0  0  0  0  0  0  0  0  0  0
  124.4043  167.9189  175.1551 H   0  0  0  0  0  0  0  0  0  0  0  0
  124.2974  170.9899  173.8452 H   0  0  0  0  0  0  0  0  0  0  0  0
  124.4610  173.4637  173.5594 H   0  0  0  0  0  0  0  0  0  0  0  0
  122.8640  174.9645  174.7538 H   0  0  0  0  0  0  0  0  0  0  0  0
  121.0933  173.9936  176.2170 H   0  0  0  0  0  0  0  0  0  0  0  0
  120.9280  171.5196  176.5057 H   0  0  0  0  0  0  0  0  0  0  0  0
  121.2407  169.9091  172.9817 H   0  0  0  0  0  0  0  0  0  0  0  0
  120.0500  169.3560  169.0440 H   0  0  0  0  0  0  0  0  0  0  0  0
  120.1747  170.9762  167.1062 H   0  0  0  0  0  0  0  0  0  0  0  0
  120.0223  171.0456  164.6219 H   0  0  0  0  0  0  0  0  0  0  0  0
  120.5573  169.0184  163.2818 H   0  0  0  0  0  0  0  0  0  0  0  0
  120.5497  167.4604  162.3912 H   0  0  0  0  0  0  0  0  0  0  0  0
  120.6819  165.7660  160.0335 H   0  0  0  0  0  0  0  0  0  0  0  0
  121.6014  163.2739  159.7531 H   0  0  0  0  0  0  0  0  0  0  0  0
  122.9100  162.5070  164.2060 H   0  0  0  0  0  0  0  0  0  0  0  0
  123.7201  164.1370  166.4095 H   0  0  0  0  0  0  0  0  0  0  0  0
  122.1527  163.3436  166.7862 H   0  0  0  0  0  0  0  0  0  0  0  0
  122.7729  160.8357  164.9483 H   0  0  0  0  0  0  0  0  0  0  0  0
  123.9653  158.7562  165.5249 H   0  0  0  0  0  0  0  0  0  0  0  0
  126.0791  160.6802  168.5983 H   0  0  0  0  0  0  0  0  0  0  0  0
  124.9565  162.8243  168.1224 H   0  0  0  0  0  0  0  0  0  0  0  0
  121.3470  166.8260  166.9241 H   0  0  0  0  0  0  0  0  0  0  0  0
  1  2  2  0
  2  3  1  0
  3  4  1  0
  4  5  2  0
  5  6  1  0
  6  7  2  0
  7  8  1  0
  8  9  1  0
  9 10  1  0
 10 11  2  0
 11 12  1  0
 12 13  2  0
 13 14  1  0
 14 15  2  0
  8 16  2  0
  2 17  1  0
 17 18  1  0
 18 19  2  0
 19 20  1  0
 20 21  2  0
 21 22  1  0
 22 23  1  0
 23 24  2  0
 24 25  1  0
 25 26  1  0
 26 27  2  0
 27 28  1  0
 28 29  2  0
 29 30  1  0
 30 31  1  0
 31 32  1  0
 32 33  1  0
 33 34  2  0
 34 35  1  0
 35 36  2  0
 36 37  1  0
 37 38  2  0
 30 39  2  0
 22 40  2  0
 16  4  1  0
 40 18  1  0
 15 10  1  0
 39 23  1  0
 29 25  1  0
 38 33  1  0
  3 41  1  0
  5 42  1  0
  6 43  1  0
  7 44  1  0
 11 45  1  0
 12 46  1  0
 13 47  1  0
 14 48  1  0
 15 49  1  0
 16 50  1  0
 17 51  1  0
 19 52  1  0
 20 53  1  0
 21 54  1  0
 24 55  1  0
 26 56  1  0
 27 57  1  0
 31 58  1  0
 32 59  1  0
 32 60  1  0
 34 61  1  0
 35 62  1  0
 37 63  1  0
 38 64  1  0
 40 65  1  0
M  END
>  <meeko>  (3) 
{"is_sidechain": [false], "free_energy": -8.85, "intermolecular_energy": -13.122, "internal_energy": -0.79}

$$$$
LIB_FCRHJSNRFAAYQD__W_7USX_LOCAL_COMPLETE__e8__s20260927
     RDKit          3D

 65 70  0  0  0  0  0  0  0  0999 V2000
  122.6210  169.2260  169.3950 O   0  0  0  0  0  0  0  0  0  0  0  0
  121.5170  169.6210  169.7430 C   0  0  0  0  0  0  0  0  0  0  0  0
  121.1030  169.7720  171.0600 N   0  0  0  0  0  0  0  0  0  0  0  0
  121.8630  169.5820  172.2340 C   0  0  0  0  0  0  0  0  0  0  0  0
  122.2220  170.6070  173.1130 C   0  0  0  0  0  0  0  0  0  0  0  0
  122.9840  170.3330  174.2540 C   0  0  0  0  0  0  0  0  0  0  0  0
  123.3860  169.0300  174.5330 C   0  0  0  0  0  0  0  0  0  0  0  0
  123.0110  167.9980  173.6770 C   0  0  0  0  0  0  0  0  0  0  0  0
  123.4600  166.7340  173.9860 O   0  0  0  0  0  0  0  0  0  0  0  0
  123.3470  165.7690  173.0130 C   0  0  0  0  0  0  0  0  0  0  0  0
  122.8710  164.5190  173.4110 C   0  0  0  0  0  0  0  0  0  0  0  0
  122.7050  163.5060  172.4670 C   0  0  0  0  0  0  0  0  0  0  0  0
  123.0010  163.7470  171.1240 C   0  0  0  0  0  0  0  0  0  0  0  0
  123.4540  165.0050  170.7240 C   0  0  0  0  0  0  0  0  0  0  0  0
  123.6210  166.0210  171.6660 C   0  0  0  0  0  0  0  0  0  0  0  0
  122.2700  168.2720  172.5220 C   0  0  0  0  0  0  0  0  0  0  0  0
  120.4980  169.9920  168.8750 N   0  0  0  0  0  0  0  0  0  0  0  0
  120.4810  169.8730  167.4680 C   0  0  0  0  0  0  0  0  0  0  0  0
  120.1870  171.0290  166.7340 C   0  0  0  0  0  0  0  0  0  0  0  0
  120.1450  170.9930  165.3410 C   0  0  0  0  0  0  0  0  0  0  0  0
  120.4000  169.7990  164.6680 C   0  0  0  0  0  0  0  0  0  0  0  0
  120.7000  168.6270  165.3760 C   0  0  0  0  0  0  0  0  0  0  0  0
  120.9520  167.3660  164.6330 C   0  0  0  0  0  0  0  0  0  0  0  0
  120.4720  167.2150  163.3800 C   0  0  0  0  0  0  0  0  0  0  0  0
  120.7160  166.0270  162.7260 N   0  0  0  0  0  0  0  0  0  0  0  0
  120.3770  165.5730  161.4810 C   0  0  0  0  0  0  0  0  0  0  0  0
  120.9070  164.3020  161.4060 C   0  0  0  0  0  0  0  0  0  0  0  0
  121.5570  163.9630  162.5700 N   0  0  0  0  0  0  0  0  0  0  0  0
  121.4190  165.0270  163.3350 C   0  0  0  0  0  0  0  0  0  0  0  0
  121.9070  165.2280  164.6870 C   0  0  0  0  0  0  0  0  0  0  0  0
  122.6150  164.2380  165.3230 N   0  0  0  0  0  0  0  0  0  0  0  0
  123.1570  164.3580  166.6470 C   0  0  0  0  0  0  0  0  0  0  0  0
  123.9130  163.1030  166.9980 C   0  0  0  0  0  0  0  0  0  0  0  0
  125.0170  163.1470  167.8540 C   0  0  0  0  0  0  0  0  0  0  0  0
  125.6950  161.9690  168.1250 C   0  0  0  0  0  0  0  0  0  0  0  0
  125.3560  160.7710  167.6050 N   0  0  0  0  0  0  0  0  0  0  0  0
  124.2970  160.7500  166.7690 C   0  0  0  0  0  0  0  0  0  0  0  0
  123.5550  161.8730  166.4350 C   0  0  0  0  0  0  0  0  0  0  0  0
  121.6630  166.3680  165.2950 N   0  0  0  0  0  0  0  0  0  0  0  0
  120.7190  168.6790  166.7820 C   0  0  0  0  0  0  0  0  0  0  0  0
  120.1310  169.9960  171.2020 H   0  0  0  0  0  0  0  0  0  0  0  0
  121.9026  171.6390  172.9061 H   0  0  0  0  0  0  0  0  0  0  0  0
  123.2665  171.1507  174.9333 H   0  0  0  0  0  0  0  0  0  0  0  0
  123.9957  168.8171  175.4235 H   0  0  0  0  0  0  0  0  0  0  0  0
  122.6272  164.3331  174.4674 H   0  0  0  0  0  0  0  0  0  0  0  0
  122.3407  162.5166  172.7807 H   0  0  0  0  0  0  0  0  0  0  0  0
  122.8771  162.9453  170.3811 H   0  0  0  0  0  0  0  0  0  0  0  0
  123.6798  165.1960  169.6645 H   0  0  0  0  0  0  0  0  0  0  0  0
  123.9669  167.0161  171.3496 H   0  0  0  0  0  0  0  0  0  0  0  0
  122.0052  167.4541  171.8357 H   0  0  0  0  0  0  0  0  0  0  0  0
  119.7080  170.4650  169.2850 H   0  0  0  0  0  0  0  0  0  0  0  0
  119.9875  171.9736  167.2612 H   0  0  0  0  0  0  0  0  0  0  0  0
  119.9109  171.9057  164.7735 H   0  0  0  0  0  0  0  0  0  0  0  0
  120.3654  169.7764  163.5688 H   0  0  0  0  0  0  0  0  0  0  0  0
  119.9009  168.0197  162.8939 H   0  0  0  0  0  0  0  0  0  0  0  0
  119.8054  166.1063  160.7071 H   0  0  0  0  0  0  0  0  0  0  0  0
  120.8211  163.6442  160.5286 H   0  0  0  0  0  0  0  0  0  0  0  0
  122.7760  163.3830  164.8000 H   0  0  0  0  0  0  0  0  0  0  0  0
  123.8393  165.2199  166.6868 H   0  0  0  0  0  0  0  0  0  0  0  0
  122.3374  164.5045  167.3659 H   0  0  0  0  0  0  0  0  0  0  0  0
  125.3411  164.0972  168.3034 H   0  0  0  0  0  0  0  0  0  0  0  0
  126.5597  162.0133  168.8034 H   0  0  0  0  0  0  0  0  0  0  0  0
  124.0053  159.7860  166.3267 H   0  0  0  0  0  0  0  0  0  0  0  0
  122.7036  161.7985  165.7426 H   0  0  0  0  0  0  0  0  0  0  0  0
  120.9253  167.7615  167.3526 H   0  0  0  0  0  0  0  0  0  0  0  0
  1  2  2  0
  2  3  1  0
  3  4  1  0
  4  5  2  0
  5  6  1  0
  6  7  2  0
  7  8  1  0
  8  9  1  0
  9 10  1  0
 10 11  2  0
 11 12  1  0
 12 13  2  0
 13 14  1  0
 14 15  2  0
  8 16  2  0
  2 17  1  0
 17 18  1  0
 18 19  2  0
 19 20  1  0
 20 21  2  0
 21 22  1  0
 22 23  1  0
 23 24  2  0
 24 25  1  0
 25 26  1  0
 26 27  2  0
 27 28  1  0
 28 29  2  0
 29 30  1  0
 30 31  1  0
 31 32  1  0
 32 33  1  0
 33 34  2  0
 34 35  1  0
 35 36  2  0
 36 37  1  0
 37 38  2  0
 30 39  2  0
 22 40  2  0
 16  4  1  0
 40 18  1  0
 15 10  1  0
 39 23  1  0
 29 25  1  0
 38 33  1  0
  3 41  1  0
  5 42  1  0
  6 43  1  0
  7 44  1  0
 11 45  1  0
 12 46  1  0
 13 47  1  0
 14 48  1  0
 15 49  1  0
 16 50  1  0
 17 51  1  0
 19 52  1  0
 20 53  1  0
 21 54  1  0
 24 55  1  0
 26 56  1  0
 27 57  1  0
 31 58  1  0
 32 59  1  0
 32 60  1  0
 34 61  1  0
 35 62  1  0
 37 63  1  0
 38 64  1  0
 40 65  1  0
M  END
>  <meeko>  (4) 
{"is_sidechain": [false], "free_energy": -8.848, "intermolecular_energy": -12.87, "internal_energy": -1.04}

$$$$
LIB_FCRHJSNRFAAYQD__W_7USX_LOCAL_COMPLETE__e8__s20260927
     RDKit          3D

 65 70  0  0  0  0  0  0  0  0999 V2000
  131.9170  183.5440  163.2130 O   0  0  0  0  0  0  0  0  0  0  0  0
  133.0080  184.0370  162.9580 C   0  0  0  0  0  0  0  0  0  0  0  0
  134.2240  183.5800  163.4480 N   0  0  0  0  0  0  0  0  0  0  0  0
  134.4610  182.4450  164.2540 C   0  0  0  0  0  0  0  0  0  0  0  0
  135.0140  182.4930  165.5360 C   0  0  0  0  0  0  0  0  0  0  0  0
  135.2200  181.3180  166.2660 C   0  0  0  0  0  0  0  0  0  0  0  0
  134.8660  180.0840  165.7270 C   0  0  0  0  0  0  0  0  0  0  0  0
  134.2890  180.0290  164.4610 C   0  0  0  0  0  0  0  0  0  0  0  0
  133.9850  178.7820  163.9660 O   0  0  0  0  0  0  0  0  0  0  0  0
  132.6610  178.5130  163.7050 C   0  0  0  0  0  0  0  0  0  0  0  0
  132.3570  177.9860  162.4490 C   0  0  0  0  0  0  0  0  0  0  0  0
  131.0370  177.6640  162.1310 C   0  0  0  0  0  0  0  0  0  0  0  0
  130.0260  177.8560  163.0740 C   0  0  0  0  0  0  0  0  0  0  0  0
  130.3350  178.3600  164.3380 C   0  0  0  0  0  0  0  0  0  0  0  0
  131.6550  178.6830  164.6590 C   0  0  0  0  0  0  0  0  0  0  0  0
  134.1040  181.2000  163.7180 C   0  0  0  0  0  0  0  0  0  0  0  0
  133.2070  185.1330  162.1280 N   0  0  0  0  0  0  0  0  0  0  0  0
  132.2230  185.9510  161.5310 C   0  0  0  0  0  0  0  0  0  0  0  0
  132.3690  186.2340  160.1680 C   0  0  0  0  0  0  0  0  0  0  0  0
  131.4420  187.0390  159.5070 C   0  0  0  0  0  0  0  0  0  0  0  0
  130.3570  187.5670  160.2050 C   0  0  0  0  0  0  0  0  0  0  0  0
  130.1830  187.2990  161.5700 C   0  0  0  0  0  0  0  0  0  0  0  0
  129.0260  187.8880  162.2920 C   0  0  0  0  0  0  0  0  0  0  0  0
  127.7690  187.6360  161.8670 C   0  0  0  0  0  0  0  0  0  0  0  0
  126.7210  188.2080  162.5540 N   0  0  0  0  0  0  0  0  0  0  0  0
  125.3650  188.1490  162.3830 C   0  0  0  0  0  0  0  0  0  0  0  0
  124.8430  188.9370  163.3890 C   0  0  0  0  0  0  0  0  0  0  0  0
  125.8390  189.4780  164.1670 N   0  0  0  0  0  0  0  0  0  0  0  0
  126.9510  189.0150  163.6320 C   0  0  0  0  0  0  0  0  0  0  0  0
  128.3190  189.2670  164.0470 C   0  0  0  0  0  0  0  0  0  0  0  0
  128.5780  190.0760  165.1260 N   0  0  0  0  0  0  0  0  0  0  0  0
  129.8950  190.3610  165.6220 C   0  0  0  0  0  0  0  0  0  0  0  0
  130.1250  189.6040  166.9040 C   0  0  0  0  0  0  0  0  0  0  0  0
  131.3630  189.6520  167.5530 C   0  0  0  0  0  0  0  0  0  0  0  0
  131.5320  188.9170  168.7160 C   0  0  0  0  0  0  0  0  0  0  0  0
  130.5700  188.1450  169.2630 N   0  0  0  0  0  0  0  0  0  0  0  0
  129.3880  188.0990  168.6150 C   0  0  0  0  0  0  0  0  0  0  0  0
  129.1200  188.7960  167.4470 C   0  0  0  0  0  0  0  0  0  0  0  0
  129.3050  188.7130  163.3780 N   0  0  0  0  0  0  0  0  0  0  0  0
  131.1390  186.5000  162.2240 C   0  0  0  0  0  0  0  0  0  0  0  0
  135.0310  184.1500  163.2500 H   0  0  0  0  0  0  0  0  0  0  0  0
  135.2898  183.4632  165.9750 H   0  0  0  0  0  0  0  0  0  0  0  0
  135.6640  181.3690  167.2711 H   0  0  0  0  0  0  0  0  0  0  0  0
  135.0408  179.1596  166.2970 H   0  0  0  0  0  0  0  0  0  0  0  0
  133.1566  177.8247  161.7110 H   0  0  0  0  0  0  0  0  0  0  0  0
  130.7933  177.2591  161.1377 H   0  0  0  0  0  0  0  0  0  0  0  0
  128.9843  177.6097  162.8204 H   0  0  0  0  0  0  0  0  0  0  0  0
  129.5378  178.5030  165.0824 H   0  0  0  0  0  0  0  0  0  0  0  0
  131.9016  179.0697  165.6588 H   0  0  0  0  0  0  0  0  0  0  0  0
  133.6755  181.1432  162.7065 H   0  0  0  0  0  0  0  0  0  0  0  0
  134.1590  185.3270  161.8610 H   0  0  0  0  0  0  0  0  0  0  0  0
  133.2227  185.8176  159.6133 H   0  0  0  0  0  0  0  0  0  0  0  0
  131.5667  187.2571  158.4361 H   0  0  0  0  0  0  0  0  0  0  0  0
  129.6287  188.2014  159.6785 H   0  0  0  0  0  0  0  0  0  0  0  0
  127.5869  186.9908  160.9949 H   0  0  0  0  0  0  0  0  0  0  0  0
  124.8110  187.5942  161.6115 H   0  0  0  0  0  0  0  0  0  0  0  0
  123.7683  189.1098  163.5478 H   0  0  0  0  0  0  0  0  0  0  0  0
  127.7740  190.4710  165.6050 H   0  0  0  0  0  0  0  0  0  0  0  0
  130.6422  190.0532  164.8757 H   0  0  0  0  0  0  0  0  0  0  0  0
  129.9889  191.4403  165.8123 H   0  0  0  0  0  0  0  0  0  0  0  0
  132.1855  190.2604  167.1489 H   0  0  0  0  0  0  0  0  0  0  0  0
  132.5072  188.9660  169.2225 H   0  0  0  0  0  0  0  0  0  0  0  0
  128.5897  187.4715  169.0382 H   0  0  0  0  0  0  0  0  0  0  0  0
  128.1382  188.7156  166.9576 H   0  0  0  0  0  0  0  0  0  0  0  0
  131.0318  186.3033  163.3010 H   0  0  0  0  0  0  0  0  0  0  0  0
  1  2  2  0
  2  3  1  0
  3  4  1  0
  4  5  2  0
  5  6  1  0
  6  7  2  0
  7  8  1  0
  8  9  1  0
  9 10  1  0
 10 11  2  0
 11 12  1  0
 12 13  2  0
 13 14  1  0
 14 15  2  0
  8 16  2  0
  2 17  1  0
 17 18  1  0
 18 19  2  0
 19 20  1  0
 20 21  2  0
 21 22  1  0
 22 23  1  0
 23 24  2  0
 24 25  1  0
 25 26  1  0
 26 27  2  0
 27 28  1  0
 28 29  2  0
 29 30  1  0
 30 31  1  0
 31 32  1  0
 32 33  1  0
 33 34  2  0
 34 35  1  0
 35 36  2  0
 36 37  1  0
 37 38  2  0
 30 39  2  0
 22 40  2  0
 16  4  1  0
 40 18  1  0
 15 10  1  0
 39 23  1  0
 29 25  1  0
 38 33  1  0
  3 41  1  0
  5 42  1  0
  6 43  1  0
  7 44  1  0
 11 45  1  0
 12 46  1  0
 13 47  1  0
 14 48  1  0
 15 49  1  0
 16 50  1  0
 17 51  1  0
 19 52  1  0
 20 53  1  0
 21 54  1  0
 24 55  1  0
 26 56  1  0
 27 57  1  0
 31 58  1  0
 32 59  1  0
 32 60  1  0
 34 61  1  0
 35 62  1  0
 37 63  1  0
 38 64  1  0
 40 65  1  0
M  END
>  <meeko>  (5) 
{"is_sidechain": [false], "free_energy": -8.842, "intermolecular_energy": -12.634, "internal_energy": -1.268}

$$$$
LIB_FCRHJSNRFAAYQD__W_7USX_LOCAL_COMPLETE__e8__s20260927
     RDKit          3D

 65 70  0  0  0  0  0  0  0  0999 V2000
  122.1140  166.9900  164.4830 O   0  0  0  0  0  0  0  0  0  0  0  0
  121.0040  167.0100  163.9690 C   0  0  0  0  0  0  0  0  0  0  0  0
  120.5780  166.1550  162.9600 N   0  0  0  0  0  0  0  0  0  0  0  0
  121.2810  165.0730  162.3880 C   0  0  0  0  0  0  0  0  0  0  0  0
  122.0000  165.1470  161.1930 C   0  0  0  0  0  0  0  0  0  0  0  0
  122.6650  164.0230  160.6920 C   0  0  0  0  0  0  0  0  0  0  0  0
  122.6280  162.8160  161.3860 C   0  0  0  0  0  0  0  0  0  0  0  0
  121.9360  162.7410  162.5920 C   0  0  0  0  0  0  0  0  0  0  0  0
  121.9090  161.5170  163.2210 O   0  0  0  0  0  0  0  0  0  0  0  0
  122.6180  161.3950  164.3940 C   0  0  0  0  0  0  0  0  0  0  0  0
  123.1090  160.1280  164.7100 C   0  0  0  0  0  0  0  0  0  0  0  0
  123.8610  159.9430  165.8700 C   0  0  0  0  0  0  0  0  0  0  0  0
  124.1340  161.0280  166.7050 C   0  0  0  0  0  0  0  0  0  0  0  0
  123.6630  162.2990  166.3750 C   0  0  0  0  0  0  0  0  0  0  0  0
  122.9100  162.4870  165.2150 C   0  0  0  0  0  0  0  0  0  0  0  0
  121.2480  163.8560  163.0830 C   0  0  0  0  0  0  0  0  0  0  0  0
  119.9860  167.8870  164.3160 N   0  0  0  0  0  0  0  0  0  0  0  0
  120.0570  168.9780  165.2100 C   0  0  0  0  0  0  0  0  0  0  0  0
  119.6760  170.2320  164.7180 C   0  0  0  0  0  0  0  0  0  0  0  0
  119.7240  171.3600  165.5360 C   0  0  0  0  0  0  0  0  0  0  0  0
  120.1500  171.2420  166.8580 C   0  0  0  0  0  0  0  0  0  0  0  0
  120.5330  169.9990  167.3800 C   0  0  0  0  0  0  0  0  0  0  0  0
  120.9980  169.9060  168.7880 C   0  0  0  0  0  0  0  0  0  0  0  0
  120.6100  170.8360  169.6870 C   0  0  0  0  0  0  0  0  0  0  0  0
  121.0700  170.7240  170.9810 N   0  0  0  0  0  0  0  0  0  0  0  0
  120.8650  171.4820  172.1010 C   0  0  0  0  0  0  0  0  0  0  0  0
  121.5960  170.8600  173.0930 C   0  0  0  0  0  0  0  0  0  0  0  0
  122.2450  169.7470  172.6110 N   0  0  0  0  0  0  0  0  0  0  0  0
  121.9010  169.7010  171.3400 C   0  0  0  0  0  0  0  0  0  0  0  0
  122.3000  168.7300  170.3380 C   0  0  0  0  0  0  0  0  0  0  0  0
  123.1370  167.6930  170.6720 N   0  0  0  0  0  0  0  0  0  0  0  0
  123.5630  166.6740  169.7550 C   0  0  0  0  0  0  0  0  0  0  0  0
  123.3900  165.3190  170.3920 C   0  0  0  0  0  0  0  0  0  0  0  0
  123.0790  165.2000  171.7500 C   0  0  0  0  0  0  0  0  0  0  0  0
  122.9560  163.9310  172.2940 C   0  0  0  0  0  0  0  0  0  0  0  0
  123.1250  162.7920  171.5900 N   0  0  0  0  0  0  0  0  0  0  0  0
  123.4400  162.9270  170.2850 C   0  0  0  0  0  0  0  0  0  0  0  0
  123.5860  164.1500  169.6490 C   0  0  0  0  0  0  0  0  0  0  0  0
  121.8530  168.8540  169.1090 N   0  0  0  0  0  0  0  0  0  0  0  0
  120.4970  168.8760  166.5330 C   0  0  0  0  0  0  0  0  0  0  0  0
  119.6800  166.3570  162.5510 H   0  0  0  0  0  0  0  0  0  0  0  0
  122.0437  166.0974  160.6410 H   0  0  0  0  0  0  0  0  0  0  0  0
  123.2201  164.0927  159.7449 H   0  0  0  0  0  0  0  0  0  0  0  0
  123.1411  161.9295  160.9848 H   0  0  0  0  0  0  0  0  0  0  0  0
  122.9034  159.2761  164.0452 H   0  0  0  0  0  0  0  0  0  0  0  0
  124.2389  158.9424  166.1269 H   0  0  0  0  0  0  0  0  0  0  0  0
  124.7208  160.8806  167.6237 H   0  0  0  0  0  0  0  0  0  0  0  0
  123.8854  163.1543  167.0300 H   0  0  0  0  0  0  0  0  0  0  0  0
  122.5479  163.4909  164.9483 H   0  0  0  0  0  0  0  0  0  0  0  0
  120.6776  163.7772  164.0203 H   0  0  0  0  0  0  0  0  0  0  0  0
  119.0710  167.6830  163.9450 H   0  0  0  0  0  0  0  0  0  0  0  0
  119.3356  170.3283  163.6764 H   0  0  0  0  0  0  0  0  0  0  0  0
  119.4262  172.3416  165.1388 H   0  0  0  0  0  0  0  0  0  0  0  0
  120.1860  172.1351  167.4992 H   0  0  0  0  0  0  0  0  0  0  0  0
  119.9443  171.6612  169.3940 H   0  0  0  0  0  0  0  0  0  0  0  0
  120.2509  172.3901  172.1915 H   0  0  0  0  0  0  0  0  0  0  0  0
  121.6523  171.2093  174.1346 H   0  0  0  0  0  0  0  0  0  0  0  0
  123.4450  167.6470  171.6390 H   0  0  0  0  0  0  0  0  0  0  0  0
  122.9564  166.7285  168.8390 H   0  0  0  0  0  0  0  0  0  0  0  0
  124.6227  166.8277  169.5033 H   0  0  0  0  0  0  0  0  0  0  0  0
  122.9350  166.0947  172.3736 H   0  0  0  0  0  0  0  0  0  0  0  0
  122.7060  163.8474  173.3620 H   0  0  0  0  0  0  0  0  0  0  0  0
  123.5897  162.0133  169.6911 H   0  0  0  0  0  0  0  0  0  0  0  0
  123.8504  164.2002  168.5824 H   0  0  0  0  0  0  0  0  0  0  0  0
  120.8215  167.8986  166.9195 H   0  0  0  0  0  0  0  0  0  0  0  0
  1  2  2  0
  2  3  1  0
  3  4  1  0
  4  5  2  0
  5  6  1  0
  6  7  2  0
  7  8  1  0
  8  9  1  0
  9 10  1  0
 10 11  2  0
 11 12  1  0
 12 13  2  0
 13 14  1  0
 14 15  2  0
  8 16  2  0
  2 17  1  0
 17 18  1  0
 18 19  2  0
 19 20  1  0
 20 21  2  0
 21 22  1  0
 22 23  1  0
 23 24  2  0
 24 25  1  0
 25 26  1  0
 26 27  2  0
 27 28  1  0
 28 29  2  0
 29 30  1  0
 30 31  1  0
 31 32  1  0
 32 33  1  0
 33 34  2  0
 34 35  1  0
 35 36  2  0
 36 37  1  0
 37 38  2  0
 30 39  2  0
 22 40  2  0
 16  4  1  0
 40 18  1  0
 15 10  1  0
 39 23  1  0
 29 25  1  0
 38 33  1  0
  3 41  1  0
  5 42  1  0
  6 43  1  0
  7 44  1  0
 11 45  1  0
 12 46  1  0
 13 47  1  0
 14 48  1  0
 15 49  1  0
 16 50  1  0
 17 51  1  0
 19 52  1  0
 20 53  1  0
 21 54  1  0
 24 55  1  0
 26 56  1  0
 27 57  1  0
 31 58  1  0
 32 59  1  0
 32 60  1  0
 34 61  1  0
 35 62  1  0
 37 63  1  0
 38 64  1  0
 40 65  1  0
M  END
>  <meeko>  (6) 
{"is_sidechain": [false], "free_energy": -8.812, "intermolecular_energy": -12.557, "internal_energy": -1.303}

$$$$
LIB_FCRHJSNRFAAYQD__W_7USX_LOCAL_COMPLETE__e8__s20260927
     RDKit          3D

 65 70  0  0  0  0  0  0  0  0999 V2000
  123.9120  169.0780  174.5890 O   0  0  0  0  0  0  0  0  0  0  0  0
  123.5290  167.9240  174.4500 C   0  0  0  0  0  0  0  0  0  0  0  0
  123.8070  166.8810  175.3240 N   0  0  0  0  0  0  0  0  0  0  0  0
  124.5000  166.9430  176.5520 C   0  0  0  0  0  0  0  0  0  0  0  0
  124.3100  167.9390  177.5130 C   0  0  0  0  0  0  0  0  0  0  0  0
  125.0440  167.9290  178.7040 C   0  0  0  0  0  0  0  0  0  0  0  0
  125.9670  166.9170  178.9520 C   0  0  0  0  0  0  0  0  0  0  0  0
  126.1440  165.9050  178.0120 C   0  0  0  0  0  0  0  0  0  0  0  0
  127.0900  164.9470  178.2960 O   0  0  0  0  0  0  0  0  0  0  0  0
  128.3650  165.1620  177.8280 C   0  0  0  0  0  0  0  0  0  0  0  0
  128.7920  164.3690  176.7610 C   0  0  0  0  0  0  0  0  0  0  0  0
  130.0630  164.5570  176.2200 C   0  0  0  0  0  0  0  0  0  0  0  0
  130.9020  165.5460  176.7360 C   0  0  0  0  0  0  0  0  0  0  0  0
  130.4660  166.3540  177.7870 C   0  0  0  0  0  0  0  0  0  0  0  0
  129.1930  166.1690  178.3300 C   0  0  0  0  0  0  0  0  0  0  0  0
  125.4300  165.9260  176.8090 C   0  0  0  0  0  0  0  0  0  0  0  0
  122.7450  167.4700  173.3970 N   0  0  0  0  0  0  0  0  0  0  0  0
  122.3490  168.1880  172.2480 C   0  0  0  0  0  0  0  0  0  0  0  0
  121.9110  169.5040  172.4360 C   0  0  0  0  0  0  0  0  0  0  0  0
  121.4970  170.2770  171.3520 C   0  0  0  0  0  0  0  0  0  0  0  0
  121.5220  169.7400  170.0660 C   0  0  0  0  0  0  0  0  0  0  0  0
  121.9590  168.4260  169.8460 C   0  0  0  0  0  0  0  0  0  0  0  0
  121.9600  167.8750  168.4660 C   0  0  0  0  0  0  0  0  0  0  0  0
  121.1770  168.4320  167.5180 C   0  0  0  0  0  0  0  0  0  0  0  0
  121.1950  167.8870  166.2520 N   0  0  0  0  0  0  0  0  0  0  0  0
  120.5370  168.2130  165.0990 C   0  0  0  0  0  0  0  0  0  0  0  0
  120.9730  167.2940  164.1660 C   0  0  0  0  0  0  0  0  0  0  0  0
  121.8760  166.4140  164.7160 N   0  0  0  0  0  0  0  0  0  0  0  0
  121.9810  166.8060  165.9700 C   0  0  0  0  0  0  0  0  0  0  0  0
  122.7990  166.2320  167.0230 C   0  0  0  0  0  0  0  0  0  0  0  0
  123.5960  165.1440  166.7660 N   0  0  0  0  0  0  0  0  0  0  0  0
  124.4560  164.5270  167.7370 C   0  0  0  0  0  0  0  0  0  0  0  0
  124.5460  163.0490  167.4630 C   0  0  0  0  0  0  0  0  0  0  0  0
  123.7070  162.4420  166.5230 C   0  0  0  0  0  0  0  0  0  0  0  0
  123.8120  161.0740  166.3260 C   0  0  0  0  0  0  0  0  0  0  0  0
  124.6760  160.2820  166.9940 N   0  0  0  0  0  0  0  0  0  0  0  0
  125.4660  160.8830  167.9080 C   0  0  0  0  0  0  0  0  0  0  0  0
  125.4370  162.2430  168.1780 C   0  0  0  0  0  0  0  0  0  0  0  0
  122.7670  166.7660  168.2240 N   0  0  0  0  0  0  0  0  0  0  0  0
  122.3540  167.6560  170.9550 C   0  0  0  0  0  0  0  0  0  0  0  0
  123.5260  165.9600  175.0280 H   0  0  0  0  0  0  0  0  0  0  0  0
  123.5765  168.7385  177.3316 H   0  0  0  0  0  0  0  0  0  0  0  0
  124.8910  168.7247  179.4480 H   0  0  0  0  0  0  0  0  0  0  0  0
  126.5521  166.9167  179.8834 H   0  0  0  0  0  0  0  0  0  0  0  0
  128.1263  163.5969  176.3478 H   0  0  0  0  0  0  0  0  0  0  0  0
  130.4047  163.9259  175.3864 H   0  0  0  0  0  0  0  0  0  0  0  0
  131.9077  165.6887  176.3138 H   0  0  0  0  0  0  0  0  0  0  0  0
  131.1259  167.1374  178.1881 H   0  0  0  0  0  0  0  0  0  0  0  0
  128.8434  166.8137  179.1499 H   0  0  0  0  0  0  0  0  0  0  0  0
  125.5996  165.1389  176.0595 H   0  0  0  0  0  0  0  0  0  0  0  0
  122.3530  166.5470  173.4940 H   0  0  0  0  0  0  0  0  0  0  0  0
  121.8932  169.9326  173.4489 H   0  0  0  0  0  0  0  0  0  0  0  0
  121.1512  171.3090  171.5114 H   0  0  0  0  0  0  0  0  0  0  0  0
  121.1952  170.3541  169.2139 H   0  0  0  0  0  0  0  0  0  0  0  0
  120.5407  169.2988  167.7498 H   0  0  0  0  0  0  0  0  0  0  0  0
  119.8165  169.0303  164.9476 H   0  0  0  0  0  0  0  0  0  0  0  0
  120.6411  167.2686  163.1176 H   0  0  0  0  0  0  0  0  0  0  0  0
  123.5830  164.7810  165.8180 H   0  0  0  0  0  0  0  0  0  0  0  0
  125.4595  164.9731  167.6737 H   0  0  0  0  0  0  0  0  0  0  0  0
  124.0452  164.6881  168.7446 H   0  0  0  0  0  0  0  0  0  0  0  0
  122.9793  163.0375  165.9522 H   0  0  0  0  0  0  0  0  0  0  0  0
  123.1517  160.6064  165.5808 H   0  0  0  0  0  0  0  0  0  0  0  0
  126.1742  160.2579  168.4717 H   0  0  0  0  0  0  0  0  0  0  0  0
  126.1013  162.6786  168.9389 H   0  0  0  0  0  0  0  0  0  0  0  0
  122.6732  166.6145  170.8019 H   0  0  0  0  0  0  0  0  0  0  0  0
  1  2  2  0
  2  3  1  0
  3  4  1  0
  4  5  2  0
  5  6  1  0
  6  7  2  0
  7  8  1  0
  8  9  1  0
  9 10  1  0
 10 11  2  0
 11 12  1  0
 12 13  2  0
 13 14  1  0
 14 15  2  0
  8 16  2  0
  2 17  1  0
 17 18  1  0
 18 19  2  0
 19 20  1  0
 20 21  2  0
 21 22  1  0
 22 23  1  0
 23 24  2  0
 24 25  1  0
 25 26  1  0
 26 27  2  0
 27 28  1  0
 28 29  2  0
 29 30  1  0
 30 31  1  0
 31 32  1  0
 32 33  1  0
 33 34  2  0
 34 35  1  0
 35 36  2  0
 36 37  1  0
 37 38  2  0
 30 39  2  0
 22 40  2  0
 16  4  1  0
 40 18  1  0
 15 10  1  0
 39 23  1  0
 29 25  1  0
 38 33  1  0
  3 41  1  0
  5 42  1  0
  6 43  1  0
  7 44  1  0
 11 45  1  0
 12 46  1  0
 13 47  1  0
 14 48  1  0
 15 49  1  0
 16 50  1  0
 17 51  1  0
 19 52  1  0
 20 53  1  0
 21 54  1  0
 24 55  1  0
 26 56  1  0
 27 57  1  0
 31 58  1  0
 32 59  1  0
 32 60  1  0
 34 61  1  0
 35 62  1  0
 37 63  1  0
 38 64  1  0
 40 65  1  0
M  END
>  <meeko>  (7) 
{"is_sidechain": [false], "free_energy": -8.36, "intermolecular_energy": -12.539, "internal_energy": -0.683}

$$$$
LIB_FCRHJSNRFAAYQD__W_7USX_LOCAL_COMPLETE__e8__s20260927
     RDKit          3D

 65 70  0  0  0  0  0  0  0  0999 V2000
  122.6420  169.6370  169.6360 O   0  0  0  0  0  0  0  0  0  0  0  0
  121.5070  169.9170  169.9990 C   0  0  0  0  0  0  0  0  0  0  0  0
  120.4390  170.1770  169.1490 N   0  0  0  0  0  0  0  0  0  0  0  0
  120.4170  170.1010  167.7400 C   0  0  0  0  0  0  0  0  0  0  0  0
  120.6220  171.1920  166.8910 C   0  0  0  0  0  0  0  0  0  0  0  0
  120.5780  171.0310  165.5020 C   0  0  0  0  0  0  0  0  0  0  0  0
  120.3390  169.7770  164.9470 C   0  0  0  0  0  0  0  0  0  0  0  0
  120.1610  168.6790  165.7850 C   0  0  0  0  0  0  0  0  0  0  0  0
  119.9000  167.4690  165.1830 O   0  0  0  0  0  0  0  0  0  0  0  0
  120.9350  166.8660  164.5070 C   0  0  0  0  0  0  0  0  0  0  0  0
  122.1100  166.6310  165.2220 C   0  0  0  0  0  0  0  0  0  0  0  0
  123.1860  165.9970  164.6030 C   0  0  0  0  0  0  0  0  0  0  0  0
  123.0820  165.5840  163.2740 C   0  0  0  0  0  0  0  0  0  0  0  0
  121.8980  165.7970  162.5660 C   0  0  0  0  0  0  0  0  0  0  0  0
  120.8190  166.4320  163.1830 C   0  0  0  0  0  0  0  0  0  0  0  0
  120.1790  168.8410  167.1750 C   0  0  0  0  0  0  0  0  0  0  0  0
  121.1000  170.0130  171.3230 N   0  0  0  0  0  0  0  0  0  0  0  0
  121.9060  169.9360  172.4790 C   0  0  0  0  0  0  0  0  0  0  0  0
  122.1500  171.1300  173.1690 C   0  0  0  0  0  0  0  0  0  0  0  0
  122.9410  171.1380  174.3170 C   0  0  0  0  0  0  0  0  0  0  0  0
  123.4950  169.9480  174.7880 C   0  0  0  0  0  0  0  0  0  0  0  0
  123.2660  168.7370  174.1200 C   0  0  0  0  0  0  0  0  0  0  0  0
  123.8820  167.4880  174.6370 C   0  0  0  0  0  0  0  0  0  0  0  0
  124.8810  167.5540  175.5430 C   0  0  0  0  0  0  0  0  0  0  0  0
  125.4350  166.3750  175.9910 N   0  0  0  0  0  0  0  0  0  0  0  0
  126.4350  166.1070  176.8850 C   0  0  0  0  0  0  0  0  0  0  0  0
  126.5350  164.7310  176.9090 C   0  0  0  0  0  0  0  0  0  0  0  0
  125.6290  164.1500  176.0530 N   0  0  0  0  0  0  0  0  0  0  0  0
  124.9880  165.1720  175.5220 C   0  0  0  0  0  0  0  0  0  0  0  0
  123.9200  165.1480  174.5410 C   0  0  0  0  0  0  0  0  0  0  0  0
  123.4530  163.9530  174.0520 N   0  0  0  0  0  0  0  0  0  0  0  0
  122.3850  163.8320  173.1010 C   0  0  0  0  0  0  0  0  0  0  0  0
  122.9570  163.7260  171.7110 C   0  0  0  0  0  0  0  0  0  0  0  0
  123.0760  164.8570  170.8980 C   0  0  0  0  0  0  0  0  0  0  0  0
  123.5850  164.7030  169.6170 C   0  0  0  0  0  0  0  0  0  0  0  0
  123.9700  163.5180  169.0990 N   0  0  0  0  0  0  0  0  0  0  0  0
  123.8330  162.4360  169.8940 C   0  0  0  0  0  0  0  0  0  0  0  0
  123.3350  162.4860  171.1870 C   0  0  0  0  0  0  0  0  0  0  0  0
  123.4040  166.2840  174.1250 N   0  0  0  0  0  0  0  0  0  0  0  0
  122.4800  168.7520  172.9530 C   0  0  0  0  0  0  0  0  0  0  0  0
  119.5910  170.5050  169.5820 H   0  0  0  0  0  0  0  0  0  0  0  0
  120.8197  172.1860  167.3186 H   0  0  0  0  0  0  0  0  0  0  0  0
  120.7330  171.8997  164.8452 H   0  0  0  0  0  0  0  0  0  0  0  0
  120.2911  169.6542  163.8549 H   0  0  0  0  0  0  0  0  0  0  0  0
  122.1871  166.9458  166.2732 H   0  0  0  0  0  0  0  0  0  0  0  0
  124.1171  165.8222  165.1620 H   0  0  0  0  0  0  0  0  0  0  0  0
  123.9340  165.0901  162.7839 H   0  0  0  0  0  0  0  0  0  0  0  0
  121.8153  165.4641  161.5208 H   0  0  0  0  0  0  0  0  0  0  0  0
  119.8814  166.5903  162.6300 H   0  0  0  0  0  0  0  0  0  0  0  0
  120.0051  167.9733  167.8284 H   0  0  0  0  0  0  0  0  0  0  0  0
  120.1070  170.0720  171.4850 H   0  0  0  0  0  0  0  0  0  0  0  0
  121.7134  172.0705  172.8017 H   0  0  0  0  0  0  0  0  0  0  0  0
  123.1279  172.0816  174.8505 H   0  0  0  0  0  0  0  0  0  0  0  0
  124.1188  169.9597  175.6940 H   0  0  0  0  0  0  0  0  0  0  0  0
  125.2431  168.5242  175.9138 H   0  0  0  0  0  0  0  0  0  0  0  0
  127.0304  166.8314  177.4601 H   0  0  0  0  0  0  0  0  0  0  0  0
  127.2476  164.1710  177.5324 H   0  0  0  0  0  0  0  0  0  0  0  0
  123.8870  163.1090  174.4160 H   0  0  0  0  0  0  0  0  0  0  0  0
  121.7960  162.9303  173.3245 H   0  0  0  0  0  0  0  0  0  0  0  0
  121.7374  164.7190  173.1634 H   0  0  0  0  0  0  0  0  0  0  0  0
  122.7724  165.8480  171.2664 H   0  0  0  0  0  0  0  0  0  0  0  0
  123.6804  165.5993  168.9865 H   0  0  0  0  0  0  0  0  0  0  0  0
  124.1341  161.4571  169.4926 H   0  0  0  0  0  0  0  0  0  0  0  0
  123.2393  161.5696  171.7878 H   0  0  0  0  0  0  0  0  0  0  0  0
  122.3138  167.8141  172.4027 H   0  0  0  0  0  0  0  0  0  0  0  0
  1  2  2  0
  2  3  1  0
  3  4  1  0
  4  5  2  0
  5  6  1  0
  6  7  2  0
  7  8  1  0
  8  9  1  0
  9 10  1  0
 10 11  2  0
 11 12  1  0
 12 13  2  0
 13 14  1  0
 14 15  2  0
  8 16  2  0
  2 17  1  0
 17 18  1  0
 18 19  2  0
 19 20  1  0
 20 21  2  0
 21 22  1  0
 22 23  1  0
 23 24  2  0
 24 25  1  0
 25 26  1  0
 26 27  2  0
 27 28  1  0
 28 29  2  0
 29 30  1  0
 30 31  1  0
 31 32  1  0
 32 33  1  0
 33 34  2  0
 34 35  1  0
 35 36  2  0
 36 37  1  0
 37 38  2  0
 30 39  2  0
 22 40  2  0
 16  4  1  0
 40 18  1  0
 15 10  1  0
 39 23  1  0
 29 25  1  0
 38 33  1  0
  3 41  1  0
  5 42  1  0
  6 43  1  0
  7 44  1  0
 11 45  1  0
 12 46  1  0
 13 47  1  0
 14 48  1  0
 15 49  1  0
 16 50  1  0
 17 51  1  0
 19 52  1  0
 20 53  1  0
 21 54  1  0
 24 55  1  0
 26 56  1  0
 27 57  1  0
 31 58  1  0
 32 59  1  0
 32 60  1  0
 34 61  1  0
 35 62  1  0
 37 63  1  0
 38 64  1  0
 40 65  1  0
M  END
>  <meeko>  (8) 
{"is_sidechain": [false], "free_energy": -8.345, "intermolecular_energy": -11.44, "internal_energy": -1.761}

$$$$
