
     RDKit          3D

 78 82  0  0  0  0  0  0  0  0999 V2000
   -0.0166    3.6144   -1.5468 C   0  0  0  0  0  0  0  0  0  0  0  0
    1.1815    2.7219   -1.7321 C   0  0  0  0  0  0  0  0  0  0  0  0
    1.9387    2.8668   -2.9068 C   0  0  0  0  0  0  0  0  0  0  0  0
    3.0696    2.0827   -3.1372 C   0  0  0  0  0  0  0  0  0  0  0  0
    3.4703    1.1451   -2.1941 C   0  0  0  0  0  0  0  0  0  0  0  0
    4.6043    0.3158   -2.3348 N   0  0  0  0  0  0  0  0  0  0  0  0
    5.4923    0.2784   -3.3939 C   0  0  0  0  0  0  0  0  0  0  0  0
    5.4848    0.9945   -4.3875 O   0  0  0  0  0  0  0  0  0  0  0  0
    6.5752   -0.7389   -3.2689 C   0  0  0  0  0  0  0  0  0  0  0  0
    7.8447   -0.4265   -3.7676 C   0  0  0  0  0  0  0  0  0  0  0  0
    8.8822   -1.3543   -3.6770 C   0  0  0  0  0  0  0  0  0  0  0  0
    8.6543   -2.6028   -3.0960 C   0  0  0  0  0  0  0  0  0  0  0  0
    7.3847   -2.9391   -2.6008 C   0  0  0  0  0  0  0  0  0  0  0  0
    7.1241   -4.3035   -2.0102 C   0  0  0  0  0  0  0  0  0  0  0  0
    6.6210   -5.1758   -2.9251 F   0  0  0  0  0  0  0  0  0  0  0  0
    6.2180   -4.2674   -0.9923 F   0  0  0  0  0  0  0  0  0  0  0  0
    8.2376   -4.8927   -1.4958 F   0  0  0  0  0  0  0  0  0  0  0  0
    6.3425   -2.0001   -2.7022 C   0  0  0  0  0  0  0  0  0  0  0  0
    2.7118    0.9953   -1.0226 C   0  0  0  0  0  0  0  0  0  0  0  0
    1.5602    1.7600   -0.7666 C   0  0  0  0  0  0  0  0  0  0  0  0
    0.7859    1.5972    0.4040 N   0  0  0  0  0  0  0  0  0  0  0  0
    1.0055    0.8130    1.4920 C   0  0  0  0  0  0  0  0  0  0  0  0
    2.0474    0.0568    1.7608 N   0  0  0  0  0  0  0  0  0  0  0  0
    1.8374   -0.4629    3.0031 C   0  0  0  0  0  0  0  0  0  0  0  0
    2.6896   -1.2788    3.7635 C   0  0  0  0  0  0  0  0  0  0  0  0
    2.3053   -1.6443    5.0560 C   0  0  0  0  0  0  0  0  0  0  0  0
    1.1013   -1.1911    5.5880 C   0  0  0  0  0  0  0  0  0  0  0  0
    0.2349   -0.3849    4.8391 C   0  0  0  0  0  0  0  0  0  0  0  0
    0.6086   -0.0608    3.5215 C   0  0  0  0  0  0  0  0  0  0  0  0
    0.0275    0.6779    2.4923 N   0  0  0  0  0  0  0  0  0  0  0  0
   -1.3162    1.1737    2.4017 C   0  0  0  0  0  0  0  0  0  0  0  0
   -2.3339    0.5730    3.1198 C   0  0  0  0  0  0  0  0  0  0  0  0
   -3.6201    1.0461    2.9280 C   0  0  0  0  0  0  0  0  0  0  0  0
   -4.6691    0.3959    3.5611 N   0  0  0  0  0  0  0  0  0  0  0  0
   -6.0499    0.7519    3.2863 C   0  0  0  0  0  0  0  0  0  0  0  0
   -6.6664   -0.2015    2.2571 C   0  0  0  0  0  0  0  0  0  0  0  0
   -6.0592   -0.0631    0.8572 C   0  0  0  0  0  0  0  0  0  0  0  0
   -6.7415   -0.9958   -0.1370 C   0  0  0  0  0  0  0  0  0  0  0  0
   -6.1989   -0.7786   -1.5364 N   0  0  0  0  0  0  0  0  0  0  0  0
   -7.0986   -1.3979   -2.5733 C   0  0  0  0  0  0  0  0  0  0  0  0
   -4.7770   -1.2459   -1.7122 C   0  0  0  0  0  0  0  0  0  0  0  0
   -3.8787    2.0408    2.0666 N   0  0  0  0  0  0  0  0  0  0  0  0
   -2.8339    2.5855    1.4357 C   0  0  0  0  0  0  0  0  0  0  0  0
   -1.5634    2.1790    1.5273 N   0  0  0  0  0  0  0  0  0  0  0  0
   -0.1205    4.3295   -2.3700 H   0  0  0  0  0  0  0  0  0  0  0  0
    0.0789    4.1947   -0.6233 H   0  0  0  0  0  0  0  0  0  0  0  0
   -0.9328    3.0161   -1.5138 H   0  0  0  0  0  0  0  0  0  0  0  0
    1.6606    3.6038   -3.6578 H   0  0  0  0  0  0  0  0  0  0  0  0
    3.6206    2.2404   -4.0588 H   0  0  0  0  0  0  0  0  0  0  0  0
    4.7981   -0.2829   -1.5422 H   0  0  0  0  0  0  0  0  0  0  0  0
    8.0268    0.5429   -4.2291 H   0  0  0  0  0  0  0  0  0  0  0  0
    9.8674   -1.1048   -4.0655 H   0  0  0  0  0  0  0  0  0  0  0  0
    9.4738   -3.3191   -3.0387 H   0  0  0  0  0  0  0  0  0  0  0  0
    5.3465   -2.2765   -2.3609 H   0  0  0  0  0  0  0  0  0  0  0  0
    3.0312    0.2548   -0.2969 H   0  0  0  0  0  0  0  0  0  0  0  0
   -0.0519    2.1750    0.4325 H   0  0  0  0  0  0  0  0  0  0  0  0
    3.6436   -1.5963    3.3552 H   0  0  0  0  0  0  0  0  0  0  0  0
    2.9666   -2.2643    5.6574 H   0  0  0  0  0  0  0  0  0  0  0  0
    0.8379   -1.4566    6.6106 H   0  0  0  0  0  0  0  0  0  0  0  0
   -0.6706   -0.0079    5.3014 H   0  0  0  0  0  0  0  0  0  0  0  0
   -2.1781   -0.2913    3.7490 H   0  0  0  0  0  0  0  0  0  0  0  0
   -4.4756    0.0345    4.4891 H   0  0  0  0  0  0  0  0  0  0  0  0
   -6.6131    0.6449    4.2214 H   0  0  0  0  0  0  0  0  0  0  0  0
   -6.1702    1.7980    2.9815 H   0  0  0  0  0  0  0  0  0  0  0  0
   -6.5531   -1.2373    2.6015 H   0  0  0  0  0  0  0  0  0  0  0  0
   -7.7432    0.0001    2.2021 H   0  0  0  0  0  0  0  0  0  0  0  0
   -6.1518    0.9755    0.5181 H   0  0  0  0  0  0  0  0  0  0  0  0
   -4.9939   -0.3042    0.9028 H   0  0  0  0  0  0  0  0  0  0  0  0
   -7.8151   -0.7803   -0.1751 H   0  0  0  0  0  0  0  0  0  0  0  0
   -6.5959   -2.0516    0.1166 H   0  0  0  0  0  0  0  0  0  0  0  0
   -6.2045    0.2349   -1.7134 H   0  0  0  0  0  0  0  0  0  0  0  0
   -8.0948   -0.9611   -2.4639 H   0  0  0  0  0  0  0  0  0  0  0  0
   -6.6972   -1.1563   -3.5610 H   0  0  0  0  0  0  0  0  0  0  0  0
   -7.1229   -2.4790   -2.4118 H   0  0  0  0  0  0  0  0  0  0  0  0
   -4.1294   -0.6454   -1.0704 H   0  0  0  0  0  0  0  0  0  0  0  0
   -4.7233   -2.3062   -1.4517 H   0  0  0  0  0  0  0  0  0  0  0  0
   -4.4937   -1.0865   -2.7562 H   0  0  0  0  0  0  0  0  0  0  0  0
   -3.0385    3.4231    0.7772 H   0  0  0  0  0  0  0  0  0  0  0  0
  1  2  1  0
  2  3  2  0
  3  4  1  0
  4  5  2  0
  5  6  1  0
  6  7  1  0
  7  8  2  0
  7  9  1  0
  9 10  2  0
 10 11  1  0
 11 12  2  0
 12 13  1  0
 13 14  1  0
 14 15  1  0
 14 16  1  0
 14 17  1  0
 13 18  2  0
  5 19  1  0
 19 20  2  0
 20 21  1  0
 21 22  1  0
 22 23  2  0
 23 24  1  0
 24 25  2  0
 25 26  1  0
 26 27  2  0
 27 28  1  0
 28 29  2  0
 29 30  1  0
 30 31  1  0
 31 32  2  0
 32 33  1  0
 33 34  1  0
 34 35  1  0
 35 36  1  0
 36 37  1  0
 37 38  1  0
 38 39  1  0
 39 40  1  0
 39 41  1  0
 33 42  2  0
 42 43  1  0
 43 44  2  0
 20  2  1  0
 30 22  1  0
 44 31  1  0
 18  9  1  0
 29 24  1  0
  1 45  1  0
  1 46  1  0
  1 47  1  0
  3 48  1  0
  4 49  1  0
  6 50  1  0
 10 51  1  0
 11 52  1  0
 12 53  1  0
 18 54  1  0
 19 55  1  0
 21 56  1  0
 25 57  1  0
 26 58  1  0
 27 59  1  0
 28 60  1  0
 32 61  1  0
 34 62  1  0
 35 63  1  0
 35 64  1  0
 36 65  1  0
 36 66  1  0
 37 67  1  0
 37 68  1  0
 38 69  1  0
 38 70  1  0
 39 71  1  0
 40 72  1  0
 40 73  1  0
 40 74  1  0
 41 75  1  0
 41 76  1  0
 41 77  1  0
 43 78  1  0
M  CHG  1  39   1
M  END
$$$$
