
     RDKit          3D

 78 82  0  0  0  0  0  0  0  0999 V2000
    7.7319    2.0955    0.9571 C   0  0  0  0  0  0  0  0  0  0  0  0
    7.0320    1.3746    2.0922 C   0  0  0  0  0  0  0  0  0  0  0  0
    6.1130    0.2940    1.5834 N   0  0  0  0  0  0  0  0  0  0  0  0
    5.0544   -0.1099    2.5869 C   0  0  0  0  0  0  0  0  0  0  0  0
    5.6546   -0.7415    3.8302 C   0  0  0  0  0  0  0  0  0  0  0  0
    6.7988   -0.9043    0.9225 C   0  0  0  0  0  0  0  0  0  0  0  0
    6.8025   -0.7334   -0.6142 C   0  0  0  0  0  0  0  0  0  0  0  0
    5.6228    0.0064   -1.0928 N   0  0  0  0  0  0  0  0  0  0  0  0
    4.3987   -0.6667   -1.1375 C   0  0  0  0  0  0  0  0  0  0  0  0
    3.3011   -0.0273   -1.6862 C   0  0  0  0  0  0  0  0  0  0  0  0
    2.0876   -0.6891   -1.6377 C   0  0  0  0  0  0  0  0  0  0  0  0
    0.8983   -0.0706   -2.1515 N   0  0  0  0  0  0  0  0  0  0  0  0
   -0.4105   -0.3623   -1.7320 C   0  0  0  0  0  0  0  0  0  0  0  0
   -0.6590   -1.4018   -0.8933 N   0  0  0  0  0  0  0  0  0  0  0  0
   -1.8601   -1.7782   -0.2501 C   0  0  0  0  0  0  0  0  0  0  0  0
   -3.0242   -0.9914   -0.3035 C   0  0  0  0  0  0  0  0  0  0  0  0
   -4.2123   -1.3617    0.3452 C   0  0  0  0  0  0  0  0  0  0  0  0
   -5.3160   -0.4914    0.2143 N   0  0  0  0  0  0  0  0  0  0  0  0
   -6.5481   -0.6025    0.8312 C   0  0  0  0  0  0  0  0  0  0  0  0
   -6.8724   -1.4180    1.6857 O   0  0  0  0  0  0  0  0  0  0  0  0
   -7.5481    0.4261    0.4263 C   0  0  0  0  0  0  0  0  0  0  0  0
   -7.6282    0.8976   -0.8898 C   0  0  0  0  0  0  0  0  0  0  0  0
   -8.5803    1.8605   -1.2280 C   0  0  0  0  0  0  0  0  0  0  0  0
   -9.4599    2.3474   -0.2589 C   0  0  0  0  0  0  0  0  0  0  0  0
   -9.4110    1.8659    1.0587 C   0  0  0  0  0  0  0  0  0  0  0  0
  -10.3518    2.3976    2.1125 C   0  0  0  0  0  0  0  0  0  0  0  0
   -9.7856    3.3940    2.8477 F   0  0  0  0  0  0  0  0  0  0  0  0
  -10.7455    1.4487    3.0052 F   0  0  0  0  0  0  0  0  0  0  0  0
  -11.4976    2.9206    1.5940 F   0  0  0  0  0  0  0  0  0  0  0  0
   -8.4456    0.9020    1.3920 C   0  0  0  0  0  0  0  0  0  0  0  0
   -4.2446   -2.5527    1.0592 C   0  0  0  0  0  0  0  0  0  0  0  0
   -3.1095   -3.3612    1.1218 C   0  0  0  0  0  0  0  0  0  0  0  0
   -1.9190   -2.9926    0.4731 C   0  0  0  0  0  0  0  0  0  0  0  0
   -0.7398   -3.9228    0.5763 C   0  0  0  0  0  0  0  0  0  0  0  0
   -1.2571    0.5179   -2.2197 N   0  0  0  0  0  0  0  0  0  0  0  0
   -0.5473    1.3065   -3.0743 C   0  0  0  0  0  0  0  0  0  0  0  0
   -1.0128    2.3511   -3.8880 C   0  0  0  0  0  0  0  0  0  0  0  0
   -0.1204    2.9863   -4.7548 C   0  0  0  0  0  0  0  0  0  0  0  0
    1.2081    2.5761   -4.8232 C   0  0  0  0  0  0  0  0  0  0  0  0
    1.6911    1.5427   -4.0105 C   0  0  0  0  0  0  0  0  0  0  0  0
    0.7966    0.9418   -3.1047 C   0  0  0  0  0  0  0  0  0  0  0  0
    1.9676   -1.8977   -1.0387 N   0  0  0  0  0  0  0  0  0  0  0  0
    3.0871   -2.4374   -0.5467 C   0  0  0  0  0  0  0  0  0  0  0  0
    4.2968   -1.8613   -0.5417 N   0  0  0  0  0  0  0  0  0  0  0  0
    8.2731    2.9638    1.3474 H   0  0  0  0  0  0  0  0  0  0  0  0
    8.4676    1.4527    0.4669 H   0  0  0  0  0  0  0  0  0  0  0  0
    7.0199    2.4537    0.2071 H   0  0  0  0  0  0  0  0  0  0  0  0
    7.7519    0.9153    2.7769 H   0  0  0  0  0  0  0  0  0  0  0  0
    6.4133    2.0886    2.6463 H   0  0  0  0  0  0  0  0  0  0  0  0
    5.5723    0.6934    0.7949 H   0  0  0  0  0  0  0  0  0  0  0  0
    4.3726   -0.8022    2.0835 H   0  0  0  0  0  0  0  0  0  0  0  0
    4.4896    0.7944    2.8380 H   0  0  0  0  0  0  0  0  0  0  0  0
    4.8538   -1.0643    4.5035 H   0  0  0  0  0  0  0  0  0  0  0  0
    6.2790   -0.0327    4.3822 H   0  0  0  0  0  0  0  0  0  0  0  0
    6.2613   -1.6198    3.5909 H   0  0  0  0  0  0  0  0  0  0  0  0
    7.8100   -1.0001    1.3309 H   0  0  0  0  0  0  0  0  0  0  0  0
    6.2350   -1.8024    1.1937 H   0  0  0  0  0  0  0  0  0  0  0  0
    7.6885   -0.1586   -0.9034 H   0  0  0  0  0  0  0  0  0  0  0  0
    6.9008   -1.7052   -1.1130 H   0  0  0  0  0  0  0  0  0  0  0  0
    5.7945    0.5852   -1.9151 H   0  0  0  0  0  0  0  0  0  0  0  0
    3.4030    0.9772   -2.0709 H   0  0  0  0  0  0  0  0  0  0  0  0
    0.1248   -2.0201   -0.6958 H   0  0  0  0  0  0  0  0  0  0  0  0
   -3.0105   -0.0561   -0.8529 H   0  0  0  0  0  0  0  0  0  0  0  0
   -5.1599    0.3209   -0.3686 H   0  0  0  0  0  0  0  0  0  0  0  0
   -6.9794    0.5044   -1.6683 H   0  0  0  0  0  0  0  0  0  0  0  0
   -8.6462    2.2251   -2.2511 H   0  0  0  0  0  0  0  0  0  0  0  0
  -10.1978    3.0990   -0.5394 H   0  0  0  0  0  0  0  0  0  0  0  0
   -8.3917    0.5170    2.4111 H   0  0  0  0  0  0  0  0  0  0  0  0
   -5.1411   -2.8905    1.5695 H   0  0  0  0  0  0  0  0  0  0  0  0
   -3.1701   -4.2927    1.6816 H   0  0  0  0  0  0  0  0  0  0  0  0
   -0.9904   -4.8355    1.1275 H   0  0  0  0  0  0  0  0  0  0  0  0
   -0.4059   -4.2276   -0.4208 H   0  0  0  0  0  0  0  0  0  0  0  0
    0.0829   -3.4334    1.1073 H   0  0  0  0  0  0  0  0  0  0  0  0
   -2.0589    2.6379   -3.8567 H   0  0  0  0  0  0  0  0  0  0  0  0
   -0.4770    3.7867   -5.3997 H   0  0  0  0  0  0  0  0  0  0  0  0
    1.8767    3.0582   -5.5347 H   0  0  0  0  0  0  0  0  0  0  0  0
    2.7168    1.2131   -4.1287 H   0  0  0  0  0  0  0  0  0  0  0  0
    3.0048   -3.4229   -0.0990 H   0  0  0  0  0  0  0  0  0  0  0  0
  1  2  1  0
  2  3  1  0
  3  4  1  0
  4  5  1  0
  3  6  1  0
  6  7  1  0
  7  8  1  0
  8  9  1  0
  9 10  2  0
 10 11  1  0
 11 12  1  0
 12 13  1  0
 13 14  1  0
 14 15  1  0
 15 16  2  0
 16 17  1  0
 17 18  1  0
 18 19  1  0
 19 20  2  0
 19 21  1  0
 21 22  2  0
 22 23  1  0
 23 24  2  0
 24 25  1  0
 25 26  1  0
 26 27  1  0
 26 28  1  0
 26 29  1  0
 25 30  2  0
 17 31  2  0
 31 32  1  0
 32 33  2  0
 33 34  1  0
 13 35  2  0
 35 36  1  0
 36 37  2  0
 37 38  1  0
 38 39  2  0
 39 40  1  0
 40 41  2  0
 11 42  2  0
 42 43  1  0
 43 44  2  0
 44  9  1  0
 41 12  1  0
 33 15  1  0
 41 36  1  0
 30 21  1  0
  1 45  1  0
  1 46  1  0
  1 47  1  0
  2 48  1  0
  2 49  1  0
  3 50  1  0
  4 51  1  0
  4 52  1  0
  5 53  1  0
  5 54  1  0
  5 55  1  0
  6 56  1  0
  6 57  1  0
  7 58  1  0
  7 59  1  0
  8 60  1  0
 10 61  1  0
 14 62  1  0
 16 63  1  0
 18 64  1  0
 22 65  1  0
 23 66  1  0
 24 67  1  0
 30 68  1  0
 31 69  1  0
 32 70  1  0
 34 71  1  0
 34 72  1  0
 34 73  1  0
 37 74  1  0
 38 75  1  0
 39 76  1  0
 40 77  1  0
 43 78  1  0
M  CHG  1   3   1
M  END
$$$$
