
     RDKit          3D

 67 71  0  0  0  0  0  0  0  0999 V2000
    9.4967    0.5517    1.5193 C   0  0  0  0  0  0  0  0  0  0  0  0
    8.4898    1.5324    1.7332 O   0  0  0  0  0  0  0  0  0  0  0  0
    7.7007    1.2259    2.8932 C   0  0  0  0  0  0  0  0  0  0  0  0
    6.6163    2.2965    3.0604 C   0  0  0  0  0  0  0  0  0  0  0  0
    5.7061    2.3048    1.9199 N   0  0  0  0  0  0  0  0  0  0  0  0
    4.6554    1.4029    1.8657 C   0  0  0  0  0  0  0  0  0  0  0  0
    3.7740    1.4750    0.8020 C   0  0  0  0  0  0  0  0  0  0  0  0
    2.7098    0.5936    0.7887 C   0  0  0  0  0  0  0  0  0  0  0  0
    1.7628    0.6052   -0.2910 N   0  0  0  0  0  0  0  0  0  0  0  0
    0.4479    0.1094   -0.2208 C   0  0  0  0  0  0  0  0  0  0  0  0
    0.0041   -0.5376    0.8895 N   0  0  0  0  0  0  0  0  0  0  0  0
   -1.2785   -1.0480    1.1902 C   0  0  0  0  0  0  0  0  0  0  0  0
   -2.3870   -0.8472    0.3496 C   0  0  0  0  0  0  0  0  0  0  0  0
   -3.6590   -1.3627    0.6430 C   0  0  0  0  0  0  0  0  0  0  0  0
   -4.6876   -1.0961   -0.2864 N   0  0  0  0  0  0  0  0  0  0  0  0
   -6.0176   -1.4600   -0.1972 C   0  0  0  0  0  0  0  0  0  0  0  0
   -6.5709   -2.0121    0.7461 O   0  0  0  0  0  0  0  0  0  0  0  0
   -6.8477   -1.0929   -1.3806 C   0  0  0  0  0  0  0  0  0  0  0  0
   -8.1774   -0.7111   -1.1689 C   0  0  0  0  0  0  0  0  0  0  0  0
   -8.9899   -0.3673   -2.2491 C   0  0  0  0  0  0  0  0  0  0  0  0
   -8.4803   -0.4116   -3.5475 C   0  0  0  0  0  0  0  0  0  0  0  0
   -7.1523   -0.8027   -3.7815 C   0  0  0  0  0  0  0  0  0  0  0  0
   -6.6135   -0.8901   -5.1888 C   0  0  0  0  0  0  0  0  0  0  0  0
   -5.2890   -0.5801   -5.2651 F   0  0  0  0  0  0  0  0  0  0  0  0
   -6.7379   -2.1384   -5.7150 F   0  0  0  0  0  0  0  0  0  0  0  0
   -7.2413   -0.0501   -6.0577 F   0  0  0  0  0  0  0  0  0  0  0  0
   -6.3422   -1.1548   -2.6871 C   0  0  0  0  0  0  0  0  0  0  0  0
   -3.8321   -2.1026    1.8053 C   0  0  0  0  0  0  0  0  0  0  0  0
   -2.7516   -2.3203    2.6610 C   0  0  0  0  0  0  0  0  0  0  0  0
   -1.4771   -1.8049    2.3682 C   0  0  0  0  0  0  0  0  0  0  0  0
   -0.3579   -2.0856    3.3358 C   0  0  0  0  0  0  0  0  0  0  0  0
   -0.2188    0.4018   -1.3168 N   0  0  0  0  0  0  0  0  0  0  0  0
    0.6710    0.9879   -2.1651 C   0  0  0  0  0  0  0  0  0  0  0  0
    0.4557    1.4326   -3.4795 C   0  0  0  0  0  0  0  0  0  0  0  0
    1.5313    1.9407   -4.2110 C   0  0  0  0  0  0  0  0  0  0  0  0
    2.8036    1.9870   -3.6494 C   0  0  0  0  0  0  0  0  0  0  0  0
    3.0337    1.5544   -2.3370 C   0  0  0  0  0  0  0  0  0  0  0  0
    1.9349    1.0903   -1.5887 C   0  0  0  0  0  0  0  0  0  0  0  0
    2.4933   -0.2716    1.8092 N   0  0  0  0  0  0  0  0  0  0  0  0
    3.3985   -0.2579    2.7963 C   0  0  0  0  0  0  0  0  0  0  0  0
    4.4715    0.5347    2.8702 N   0  0  0  0  0  0  0  0  0  0  0  0
   10.0703    0.8353    0.6329 H   0  0  0  0  0  0  0  0  0  0  0  0
   10.1760    0.5067    2.3760 H   0  0  0  0  0  0  0  0  0  0  0  0
    9.0446   -0.4291    1.3437 H   0  0  0  0  0  0  0  0  0  0  0  0
    8.3501    1.2267    3.7758 H   0  0  0  0  0  0  0  0  0  0  0  0
    7.2566    0.2308    2.7790 H   0  0  0  0  0  0  0  0  0  0  0  0
    7.0975    3.2809    3.0966 H   0  0  0  0  0  0  0  0  0  0  0  0
    6.0793    2.1685    4.0071 H   0  0  0  0  0  0  0  0  0  0  0  0
    6.1557    2.5297    1.0390 H   0  0  0  0  0  0  0  0  0  0  0  0
    3.9078    2.2519    0.0644 H   0  0  0  0  0  0  0  0  0  0  0  0
    0.6977   -0.6971    1.6190 H   0  0  0  0  0  0  0  0  0  0  0  0
   -2.2651   -0.2669   -0.5587 H   0  0  0  0  0  0  0  0  0  0  0  0
   -4.4057   -0.5422   -1.0850 H   0  0  0  0  0  0  0  0  0  0  0  0
   -8.5819   -0.6825   -0.1584 H   0  0  0  0  0  0  0  0  0  0  0  0
  -10.0223   -0.0709   -2.0773 H   0  0  0  0  0  0  0  0  0  0  0  0
   -9.1291   -0.1465   -4.3820 H   0  0  0  0  0  0  0  0  0  0  0  0
   -5.3267   -1.5034   -2.8696 H   0  0  0  0  0  0  0  0  0  0  0  0
   -4.7929   -2.5278    2.0761 H   0  0  0  0  0  0  0  0  0  0  0  0
   -2.9164   -2.9040    3.5644 H   0  0  0  0  0  0  0  0  0  0  0  0
    0.0252   -1.1495    3.7546 H   0  0  0  0  0  0  0  0  0  0  0  0
   -0.6931   -2.7064    4.1736 H   0  0  0  0  0  0  0  0  0  0  0  0
    0.4523   -2.6253    2.8348 H   0  0  0  0  0  0  0  0  0  0  0  0
   -0.5331    1.3585   -3.9198 H   0  0  0  0  0  0  0  0  0  0  0  0
    1.3748    2.2784   -5.2327 H   0  0  0  0  0  0  0  0  0  0  0  0
    3.6373    2.3554   -4.2447 H   0  0  0  0  0  0  0  0  0  0  0  0
    4.0465    1.5611   -1.9504 H   0  0  0  0  0  0  0  0  0  0  0  0
    3.2472   -0.9532    3.6150 H   0  0  0  0  0  0  0  0  0  0  0  0
  1  2  1  0
  2  3  1  0
  3  4  1  0
  4  5  1  0
  5  6  1  0
  6  7  2  0
  7  8  1  0
  8  9  1  0
  9 10  1  0
 10 11  1  0
 11 12  1  0
 12 13  2  0
 13 14  1  0
 14 15  1  0
 15 16  1  0
 16 17  2  0
 16 18  1  0
 18 19  2  0
 19 20  1  0
 20 21  2  0
 21 22  1  0
 22 23  1  0
 23 24  1  0
 23 25  1  0
 23 26  1  0
 22 27  2  0
 14 28  2  0
 28 29  1  0
 29 30  2  0
 30 31  1  0
 10 32  2  0
 32 33  1  0
 33 34  2  0
 34 35  1  0
 35 36  2  0
 36 37  1  0
 37 38  2  0
  8 39  2  0
 39 40  1  0
 40 41  2  0
 41  6  1  0
 38  9  1  0
 30 12  1  0
 38 33  1  0
 27 18  1  0
  1 42  1  0
  1 43  1  0
  1 44  1  0
  3 45  1  0
  3 46  1  0
  4 47  1  0
  4 48  1  0
  5 49  1  0
  7 50  1  0
 11 51  1  0
 13 52  1  0
 15 53  1  0
 19 54  1  0
 20 55  1  0
 21 56  1  0
 27 57  1  0
 28 58  1  0
 29 59  1  0
 31 60  1  0
 31 61  1  0
 31 62  1  0
 34 63  1  0
 35 64  1  0
 36 65  1  0
 37 66  1  0
 40 67  1  0
M  END
$$$$
