LIB_GFIVTABKMGOGIV__M_PUB_ALL__e8__s20260927
     RDKit          3D

 63 66  0  0  0  0  0  0  0  0999 V2000
   -1.5400   -9.1540    3.6080 C   0  0  0  0  0  0  0  0  0  0  0  0
   -2.0180   -9.3390    2.1750 C   0  0  0  0  0  0  0  0  0  0  0  0
   -1.4510  -10.5460    1.5750 N   0  0  0  0  0  0  0  0  0  0  0  0
   -2.1350  -11.7440    1.7820 C   0  0  0  0  0  0  0  0  0  0  0  0
   -3.1610  -11.8610    2.4410 O   0  0  0  0  0  0  0  0  0  0  0  0
   -1.5130  -12.8640    1.1560 C   0  0  0  0  0  0  0  0  0  0  0  0
   -0.3560  -12.7590    0.4450 C   0  0  0  0  0  0  0  0  0  0  0  0
    0.0660  -13.9710   -0.0080 N   0  0  0  0  0  0  0  0  0  0  0  0
   -0.8240  -14.8230    0.4370 C   0  0  0  0  0  0  0  0  0  0  0  0
   -0.5940  -16.2320    0.1270 N   0  0  0  0  0  0  0  0  0  0  0  0
    0.7280  -16.7350    0.6140 C   0  0  0  0  0  0  0  0  0  0  0  0
    0.4830  -17.4840    1.9290 C   0  0  0  0  0  0  0  0  0  0  0  0
    1.7730  -18.0990    2.4680 C   0  0  0  0  0  0  0  0  0  0  0  0
    2.4340  -19.0050    1.4340 C   0  0  0  0  0  0  0  0  0  0  0  0
    2.6690  -18.2750    0.1160 C   0  0  0  0  0  0  0  0  0  0  0  0
    1.3830  -17.6530   -0.4260 C   0  0  0  0  0  0  0  0  0  0  0  0
   -1.8560  -14.1950    1.1040 N   0  0  0  0  0  0  0  0  0  0  0  0
   -3.0590  -14.7680    1.7030 C   0  0  0  0  0  0  0  0  0  0  0  0
   -2.7770  -15.7940    2.7720 C   0  0  0  0  0  0  0  0  0  0  0  0
   -3.1820  -17.1280    2.6070 C   0  0  0  0  0  0  0  0  0  0  0  0
   -2.9370  -18.0830    3.6030 C   0  0  0  0  0  0  0  0  0  0  0  0
   -2.2780  -17.7210    4.7790 C   0  0  0  0  0  0  0  0  0  0  0  0
   -2.0250  -18.5520    5.8320 O   0  0  0  0  0  0  0  0  0  0  0  0
   -0.8320  -19.3260    5.7810 C   0  0  0  0  0  0  0  0  0  0  0  0
   -1.8540  -16.3990    4.9290 C   0  0  0  0  0  0  0  0  0  0  0  0
   -1.2350  -16.0090    6.0510 F   0  0  0  0  0  0  0  0  0  0  0  0
   -2.0820  -15.4440    3.9390 C   0  0  0  0  0  0  0  0  0  0  0  0
    0.2760  -11.5550    0.2540 N   0  0  0  0  0  0  0  0  0  0  0  0
    1.5200  -11.4610   -0.5060 C   0  0  0  0  0  0  0  0  0  0  0  0
    2.7230  -11.8670    0.3320 C   0  0  0  0  0  0  0  0  0  0  0  0
   -0.2660  -10.3970    0.8270 C   0  0  0  0  0  0  0  0  0  0  0  0
    0.2750   -9.2980    0.6840 O   0  0  0  0  0  0  0  0  0  0  0  0
   -2.3355   -9.4619    4.3025 H   0  0  0  0  0  0  0  0  0  0  0  0
   -0.6453   -9.7708    3.7786 H   0  0  0  0  0  0  0  0  0  0  0  0
   -1.2937   -8.0956    3.7786 H   0  0  0  0  0  0  0  0  0  0  0  0
   -3.1151   -9.4189    2.1712 H   0  0  0  0  0  0  0  0  0  0  0  0
   -1.6877   -8.4712    1.5852 H   0  0  0  0  0  0  0  0  0  0  0  0
   -1.3670  -16.8230    0.4500 H   0  0  0  0  0  0  0  0  0  0  0  0
   -0.6190  -16.3010   -0.9010 H   0  0  0  0  0  0  0  0  0  0  0  0
    1.4184  -15.8943    0.7772 H   0  0  0  0  0  0  0  0  0  0  0  0
    0.0840  -16.7793    2.6734 H   0  0  0  0  0  0  0  0  0  0  0  0
   -0.2340  -18.2958    1.7369 H   0  0  0  0  0  0  0  0  0  0  0  0
    2.4706  -17.2910    2.7336 H   0  0  0  0  0  0  0  0  0  0  0  0
    1.5237  -18.7064    3.3506 H   0  0  0  0  0  0  0  0  0  0  0  0
    3.4012  -19.3502    1.8282 H   0  0  0  0  0  0  0  0  0  0  0  0
    1.7622  -19.8545    1.2416 H   0  0  0  0  0  0  0  0  0  0  0  0
    3.4093  -17.4777    0.2778 H   0  0  0  0  0  0  0  0  0  0  0  0
    3.0310  -19.0075   -0.6205 H   0  0  0  0  0  0  0  0  0  0  0  0
    1.6203  -17.0647   -1.3247 H   0  0  0  0  0  0  0  0  0  0  0  0
    0.6793  -18.4635   -0.6667 H   0  0  0  0  0  0  0  0  0  0  0  0
   -3.6456  -13.9524    2.1511 H   0  0  0  0  0  0  0  0  0  0  0  0
   -3.6027  -15.2847    0.8984 H   0  0  0  0  0  0  0  0  0  0  0  0
   -3.6987  -17.4278    1.6833 H   0  0  0  0  0  0  0  0  0  0  0  0
   -3.2655  -19.1226    3.4573 H   0  0  0  0  0  0  0  0  0  0  0  0
   -0.4934  -19.5457    6.8043 H   0  0  0  0  0  0  0  0  0  0  0  0
   -1.0290  -20.2688    5.2496 H   0  0  0  0  0  0  0  0  0  0  0  0
   -0.0514  -18.7619    5.2496 H   0  0  0  0  0  0  0  0  0  0  0  0
   -1.7165  -14.4152    4.0733 H   0  0  0  0  0  0  0  0  0  0  0  0
    1.4544  -12.1248   -1.3807 H   0  0  0  0  0  0  0  0  0  0  0  0
    1.6549  -10.4140   -0.8151 H   0  0  0  0  0  0  0  0  0  0  0  0
    2.4717  -11.7822    1.3995 H   0  0  0  0  0  0  0  0  0  0  0  0
    2.9964  -12.9072    0.1012 H   0  0  0  0  0  0  0  0  0  0  0  0
    3.5708  -11.2052    0.1012 H   0  0  0  0  0  0  0  0  0  0  0  0
  1  2  1  0
  2  3  1  0
  3  4  1  0
  4  5  2  0
  4  6  1  0
  6  7  2  0
  7  8  1  0
  8  9  2  0
  9 10  1  0
 10 11  1  0
 11 12  1  0
 12 13  1  0
 13 14  1  0
 14 15  1  0
 15 16  1  0
  9 17  1  0
 17 18  1  0
 18 19  1  0
 19 20  2  0
 20 21  1  0
 21 22  2  0
 22 23  1  0
 23 24  1  0
 22 25  1  0
 25 26  1  0
 25 27  2  0
  7 28  1  0
 28 29  1  0
 29 30  1  0
 28 31  1  0
 31 32  2  0
 31  3  1  0
 17  6  1  0
 27 19  1  0
 16 11  1  0
  1 33  1  0
  1 34  1  0
  1 35  1  0
  2 36  1  0
  2 37  1  0
 10 38  1  0
 10 39  1  0
 11 40  1  0
 12 41  1  0
 12 42  1  0
 13 43  1  0
 13 44  1  0
 14 45  1  0
 14 46  1  0
 15 47  1  0
 15 48  1  0
 16 49  1  0
 16 50  1  0
 18 51  1  0
 18 52  1  0
 20 53  1  0
 21 54  1  0
 24 55  1  0
 24 56  1  0
 24 57  1  0
 27 58  1  0
 29 59  1  0
 29 60  1  0
 30 61  1  0
 30 62  1  0
 30 63  1  0
M  CHG  1  10   1
M  END
>  <meeko>  (1) 
{"is_sidechain": [false], "free_energy": -6.824, "intermolecular_energy": -9.617, "internal_energy": -1.684}

$$$$
LIB_GFIVTABKMGOGIV__M_PUB_ALL__e8__s20260927
     RDKit          3D

 63 66  0  0  0  0  0  0  0  0999 V2000
    5.7080  -13.7530   -6.0930 C   0  0  0  0  0  0  0  0  0  0  0  0
    6.2940  -14.9370   -6.8490 C   0  0  0  0  0  0  0  0  0  0  0  0
    7.5600  -14.5880   -7.4900 N   0  0  0  0  0  0  0  0  0  0  0  0
    8.7290  -14.8120   -6.7610 C   0  0  0  0  0  0  0  0  0  0  0  0
    8.7690  -15.2610   -5.6220 O   0  0  0  0  0  0  0  0  0  0  0  0
    9.9120  -14.4480   -7.4690 C   0  0  0  0  0  0  0  0  0  0  0  0
    9.8850  -13.9180   -8.7230 C   0  0  0  0  0  0  0  0  0  0  0  0
   11.1350  -13.6050   -9.1610 N   0  0  0  0  0  0  0  0  0  0  0  0
   11.9280  -13.9290   -8.1710 C   0  0  0  0  0  0  0  0  0  0  0  0
   13.3510  -13.6560   -8.3570 N   0  0  0  0  0  0  0  0  0  0  0  0
   14.0390  -14.6670   -9.2190 C   0  0  0  0  0  0  0  0  0  0  0  0
   14.6280  -13.9260  -10.4240 C   0  0  0  0  0  0  0  0  0  0  0  0
   15.4150  -14.8730  -11.3280 C   0  0  0  0  0  0  0  0  0  0  0  0
   16.5010  -15.6110  -10.5530 C   0  0  0  0  0  0  0  0  0  0  0  0
   15.9290  -16.3400   -9.3420 C   0  0  0  0  0  0  0  0  0  0  0  0
   15.1360  -15.4000   -8.4350 C   0  0  0  0  0  0  0  0  0  0  0  0
   11.2430  -14.5140   -7.1260 N   0  0  0  0  0  0  0  0  0  0  0  0
   11.7530  -15.0570   -5.8690 C   0  0  0  0  0  0  0  0  0  0  0  0
   12.1310  -14.0030   -4.8590 C   0  0  0  0  0  0  0  0  0  0  0  0
   11.1580  -13.4260   -4.0290 C   0  0  0  0  0  0  0  0  0  0  0  0
   11.5000  -12.4350   -3.0990 C   0  0  0  0  0  0  0  0  0  0  0  0
   12.8230  -12.0090   -2.9790 C   0  0  0  0  0  0  0  0  0  0  0  0
   13.2650  -11.0230   -2.1430 O   0  0  0  0  0  0  0  0  0  0  0  0
   13.0550  -11.2100   -0.7490 C   0  0  0  0  0  0  0  0  0  0  0  0
   13.7940  -12.6030   -3.7890 C   0  0  0  0  0  0  0  0  0  0  0  0
   15.0720  -12.2070   -3.7160 F   0  0  0  0  0  0  0  0  0  0  0  0
   13.4650  -13.5980   -4.7080 C   0  0  0  0  0  0  0  0  0  0  0  0
    8.7110  -13.7290   -9.4090 N   0  0  0  0  0  0  0  0  0  0  0  0
    8.7000  -13.1540  -10.7520 C   0  0  0  0  0  0  0  0  0  0  0  0
    8.3810  -11.6670  -10.7240 C   0  0  0  0  0  0  0  0  0  0  0  0
    7.4960  -14.0640   -8.7970 C   0  0  0  0  0  0  0  0  0  0  0  0
    6.4200  -13.9030   -9.3780 O   0  0  0  0  0  0  0  0  0  0  0  0
    5.7953  -13.9294   -5.0108 H   0  0  0  0  0  0  0  0  0  0  0  0
    6.2575  -12.8386   -6.3609 H   0  0  0  0  0  0  0  0  0  0  0  0
    4.6476  -13.6353   -6.3609 H   0  0  0  0  0  0  0  0  0  0  0  0
    6.4663  -15.7625   -6.1427 H   0  0  0  0  0  0  0  0  0  0  0  0
    5.5807  -15.2347   -7.6317 H   0  0  0  0  0  0  0  0  0  0  0  0
   13.5140  -12.7000   -8.6910 H   0  0  0  0  0  0  0  0  0  0  0  0
   13.7680  -13.6810   -7.4150 H   0  0  0  0  0  0  0  0  0  0  0  0
   13.3227  -15.4308   -9.5558 H   0  0  0  0  0  0  0  0  0  0  0  0
   13.8084  -13.4761  -11.0035 H   0  0  0  0  0  0  0  0  0  0  0  0
   15.3140  -13.1503  -10.0529 H   0  0  0  0  0  0  0  0  0  0  0  0
   14.7232  -15.6093  -11.7631 H   0  0  0  0  0  0  0  0  0  0  0  0
   15.8979  -14.2764  -12.1160 H   0  0  0  0  0  0  0  0  0  0  0  0
   16.9786  -16.3449  -11.2188 H   0  0  0  0  0  0  0  0  0  0  0  0
   17.2321  -14.8709  -10.1956 H   0  0  0  0  0  0  0  0  0  0  0  0
   15.2632  -17.1428   -9.6916 H   0  0  0  0  0  0  0  0  0  0  0  0
   16.7691  -16.7475   -8.7605 H   0  0  0  0  0  0  0  0  0  0  0  0
   14.6703  -15.9868   -7.6295 H   0  0  0  0  0  0  0  0  0  0  0  0
   15.8269  -14.6514   -8.0198 H   0  0  0  0  0  0  0  0  0  0  0  0
   10.9755  -15.6975   -5.4272 H   0  0  0  0  0  0  0  0  0  0  0  0
   12.6708  -15.6136   -6.1097 H   0  0  0  0  0  0  0  0  0  0  0  0
   10.1118  -13.7562   -4.1094 H   0  0  0  0  0  0  0  0  0  0  0  0
   10.7218  -11.9911   -2.4608 H   0  0  0  0  0  0  0  0  0  0  0  0
   13.7601  -10.5821   -0.1845 H   0  0  0  0  0  0  0  0  0  0  0  0
   12.0239  -10.9255   -0.4921 H   0  0  0  0  0  0  0  0  0  0  0  0
   13.2185  -12.2670   -0.4921 H   0  0  0  0  0  0  0  0  0  0  0  0
   14.2532  -14.0663   -5.3158 H   0  0  0  0  0  0  0  0  0  0  0  0
    9.6899  -13.2978  -11.2096 H   0  0  0  0  0  0  0  0  0  0  0  0
    7.9185  -13.6617  -11.3363 H   0  0  0  0  0  0  0  0  0  0  0  0
    8.3081  -11.3272   -9.6803 H   0  0  0  0  0  0  0  0  0  0  0  0
    9.1803  -11.1108  -11.2357 H   0  0  0  0  0  0  0  0  0  0  0  0
    7.4239  -11.4876  -11.2357 H   0  0  0  0  0  0  0  0  0  0  0  0
  1  2  1  0
  2  3  1  0
  3  4  1  0
  4  5  2  0
  4  6  1  0
  6  7  2  0
  7  8  1  0
  8  9  2  0
  9 10  1  0
 10 11  1  0
 11 12  1  0
 12 13  1  0
 13 14  1  0
 14 15  1  0
 15 16  1  0
  9 17  1  0
 17 18  1  0
 18 19  1  0
 19 20  2  0
 20 21  1  0
 21 22  2  0
 22 23  1  0
 23 24  1  0
 22 25  1  0
 25 26  1  0
 25 27  2  0
  7 28  1  0
 28 29  1  0
 29 30  1  0
 28 31  1  0
 31 32  2  0
 31  3  1  0
 17  6  1  0
 27 19  1  0
 16 11  1  0
  1 33  1  0
  1 34  1  0
  1 35  1  0
  2 36  1  0
  2 37  1  0
 10 38  1  0
 10 39  1  0
 11 40  1  0
 12 41  1  0
 12 42  1  0
 13 43  1  0
 13 44  1  0
 14 45  1  0
 14 46  1  0
 15 47  1  0
 15 48  1  0
 16 49  1  0
 16 50  1  0
 18 51  1  0
 18 52  1  0
 20 53  1  0
 21 54  1  0
 24 55  1  0
 24 56  1  0
 24 57  1  0
 27 58  1  0
 29 59  1  0
 29 60  1  0
 30 61  1  0
 30 62  1  0
 30 63  1  0
M  CHG  1  10   1
M  END
>  <meeko>  (2) 
{"is_sidechain": [false], "free_energy": -6.821, "intermolecular_energy": -10.065, "internal_energy": -1.231}

$$$$
LIB_GFIVTABKMGOGIV__M_PUB_ALL__e8__s20260927
     RDKit          3D

 63 66  0  0  0  0  0  0  0  0999 V2000
    6.4740  -17.6170   -4.7730 C   0  0  0  0  0  0  0  0  0  0  0  0
    7.4830  -18.3480   -5.6470 C   0  0  0  0  0  0  0  0  0  0  0  0
    8.3230  -17.4110   -6.3910 N   0  0  0  0  0  0  0  0  0  0  0  0
    9.5140  -17.0040   -5.7890 C   0  0  0  0  0  0  0  0  0  0  0  0
    9.8950  -17.3590   -4.6810 O   0  0  0  0  0  0  0  0  0  0  0  0
   10.2680  -16.0970   -6.5900 C   0  0  0  0  0  0  0  0  0  0  0  0
    9.8450  -15.6670   -7.8110 C   0  0  0  0  0  0  0  0  0  0  0  0
   10.7100  -14.7680   -8.3530 N   0  0  0  0  0  0  0  0  0  0  0  0
   11.6580  -14.6340   -7.4590 C   0  0  0  0  0  0  0  0  0  0  0  0
   12.7200  -13.6790   -7.7690 N   0  0  0  0  0  0  0  0  0  0  0  0
   12.9770  -13.5380   -9.2360 C   0  0  0  0  0  0  0  0  0  0  0  0
   12.8390  -12.0530   -9.5900 C   0  0  0  0  0  0  0  0  0  0  0  0
   13.1580  -11.8010  -11.0630 C   0  0  0  0  0  0  0  0  0  0  0  0
   14.5400  -12.3280  -11.4330 C   0  0  0  0  0  0  0  0  0  0  0  0
   14.6950  -13.8020  -11.0710 C   0  0  0  0  0  0  0  0  0  0  0  0
   14.3730  -14.0620   -9.6000 C   0  0  0  0  0  0  0  0  0  0  0  0
   11.4780  -15.4750   -6.3800 N   0  0  0  0  0  0  0  0  0  0  0  0
   12.3220  -15.6720   -5.2050 C   0  0  0  0  0  0  0  0  0  0  0  0
   12.4580  -14.4430   -4.3410 C   0  0  0  0  0  0  0  0  0  0  0  0
   11.3610  -13.9550   -3.6140 C   0  0  0  0  0  0  0  0  0  0  0  0
   11.4770  -12.8050   -2.8210 C   0  0  0  0  0  0  0  0  0  0  0  0
   12.6940  -12.1270   -2.7370 C   0  0  0  0  0  0  0  0  0  0  0  0
   12.9120  -10.9760   -2.0350 O   0  0  0  0  0  0  0  0  0  0  0  0
   13.1620  -11.1020   -0.6400 C   0  0  0  0  0  0  0  0  0  0  0  0
   13.7900  -12.6310   -3.4410 C   0  0  0  0  0  0  0  0  0  0  0  0
   14.9700  -11.9970   -3.4000 F   0  0  0  0  0  0  0  0  0  0  0  0
   13.6880  -13.7800   -4.2220 C   0  0  0  0  0  0  0  0  0  0  0  0
    8.6720  -16.1070   -8.3710 N   0  0  0  0  0  0  0  0  0  0  0  0
    8.2290  -15.6300   -9.6800 C   0  0  0  0  0  0  0  0  0  0  0  0
    7.3320  -14.4080   -9.5600 C   0  0  0  0  0  0  0  0  0  0  0  0
    7.8650  -17.0060   -7.6610 C   0  0  0  0  0  0  0  0  0  0  0  0
    6.8010  -17.4180   -8.1280 O   0  0  0  0  0  0  0  0  0  0  0  0
    6.7132  -17.7903   -3.7134 H   0  0  0  0  0  0  0  0  0  0  0  0
    6.5167  -16.5389   -4.9870 H   0  0  0  0  0  0  0  0  0  0  0  0
    5.4628  -17.9935   -4.9870 H   0  0  0  0  0  0  0  0  0  0  0  0
    8.1238  -18.9729   -5.0076 H   0  0  0  0  0  0  0  0  0  0  0  0
    6.9306  -18.9664   -6.3698 H   0  0  0  0  0  0  0  0  0  0  0  0
   12.5540  -12.7700   -7.3240 H   0  0  0  0  0  0  0  0  0  0  0  0
   13.5690  -14.0450   -7.3140 H   0  0  0  0  0  0  0  0  0  0  0  0
   12.2523  -14.1346   -9.8095 H   0  0  0  0  0  0  0  0  0  0  0  0
   11.8071  -11.7306   -9.3867 H   0  0  0  0  0  0  0  0  0  0  0  0
   13.5530  -11.4825   -8.9778 H   0  0  0  0  0  0  0  0  0  0  0  0
   12.4042  -12.3075  -11.6838 H   0  0  0  0  0  0  0  0  0  0  0  0
   13.1441  -10.7152  -11.2385 H   0  0  0  0  0  0  0  0  0  0  0  0
   14.6891  -12.2090  -12.5163 H   0  0  0  0  0  0  0  0  0  0  0  0
   15.2894  -11.7545  -10.8677 H   0  0  0  0  0  0  0  0  0  0  0  0
   14.0113  -14.3958  -11.6955 H   0  0  0  0  0  0  0  0  0  0  0  0
   15.7420  -14.0892  -11.2478 H   0  0  0  0  0  0  0  0  0  0  0  0
   14.4103  -15.1449   -9.4106 H   0  0  0  0  0  0  0  0  0  0  0  0
   15.1149  -13.5343   -8.9826 H   0  0  0  0  0  0  0  0  0  0  0  0
   11.8863  -16.4778   -4.5960 H   0  0  0  0  0  0  0  0  0  0  0  0
   13.3292  -15.9194   -5.5715 H   0  0  0  0  0  0  0  0  0  0  0  0
   10.3971  -14.4822   -3.6673 H   0  0  0  0  0  0  0  0  0  0  0  0
   10.6047  -12.4351   -2.2622 H   0  0  0  0  0  0  0  0  0  0  0  0
   12.3184  -10.6768   -0.0764 H   0  0  0  0  0  0  0  0  0  0  0  0
   13.2762  -12.1653   -0.3825 H   0  0  0  0  0  0  0  0  0  0  0  0
   14.0847  -10.5613   -0.3825 H   0  0  0  0  0  0  0  0  0  0  0  0
   14.5738  -14.1679   -4.7463 H   0  0  0  0  0  0  0  0  0  0  0  0
    9.1120  -15.3663  -10.2807 H   0  0  0  0  0  0  0  0  0  0  0  0
    7.6510  -16.4335  -10.1598 H   0  0  0  0  0  0  0  0  0  0  0  0
    7.1641  -14.1793   -8.4972 H   0  0  0  0  0  0  0  0  0  0  0  0
    7.8155  -13.5489  -10.0480 H   0  0  0  0  0  0  0  0  0  0  0  0
    6.3675  -14.6118  -10.0480 H   0  0  0  0  0  0  0  0  0  0  0  0
  1  2  1  0
  2  3  1  0
  3  4  1  0
  4  5  2  0
  4  6  1  0
  6  7  2  0
  7  8  1  0
  8  9  2  0
  9 10  1  0
 10 11  1  0
 11 12  1  0
 12 13  1  0
 13 14  1  0
 14 15  1  0
 15 16  1  0
  9 17  1  0
 17 18  1  0
 18 19  1  0
 19 20  2  0
 20 21  1  0
 21 22  2  0
 22 23  1  0
 23 24  1  0
 22 25  1  0
 25 26  1  0
 25 27  2  0
  7 28  1  0
 28 29  1  0
 29 30  1  0
 28 31  1  0
 31 32  2  0
 31  3  1  0
 17  6  1  0
 27 19  1  0
 16 11  1  0
  1 33  1  0
  1 34  1  0
  1 35  1  0
  2 36  1  0
  2 37  1  0
 10 38  1  0
 10 39  1  0
 11 40  1  0
 12 41  1  0
 12 42  1  0
 13 43  1  0
 13 44  1  0
 14 45  1  0
 14 46  1  0
 15 47  1  0
 15 48  1  0
 16 49  1  0
 16 50  1  0
 18 51  1  0
 18 52  1  0
 20 53  1  0
 21 54  1  0
 24 55  1  0
 24 56  1  0
 24 57  1  0
 27 58  1  0
 29 59  1  0
 29 60  1  0
 30 61  1  0
 30 62  1  0
 30 63  1  0
M  CHG  1  10   1
M  END
>  <meeko>  (3) 
{"is_sidechain": [false], "free_energy": -6.759, "intermolecular_energy": -9.985, "internal_energy": -1.224}

$$$$
LIB_GFIVTABKMGOGIV__M_PUB_ALL__e8__s20260927
     RDKit          3D

 63 66  0  0  0  0  0  0  0  0999 V2000
   13.8270  -14.0940   -5.0760 C   0  0  0  0  0  0  0  0  0  0  0  0
   13.0420  -12.8230   -4.7790 C   0  0  0  0  0  0  0  0  0  0  0  0
   12.2610  -12.9520   -3.5500 N   0  0  0  0  0  0  0  0  0  0  0  0
   11.0180  -13.5790   -3.6460 C   0  0  0  0  0  0  0  0  0  0  0  0
   10.5280  -14.0090   -4.6830 O   0  0  0  0  0  0  0  0  0  0  0  0
   10.3320  -13.6640   -2.3990 C   0  0  0  0  0  0  0  0  0  0  0  0
   10.8460  -13.1630   -1.2420 C   0  0  0  0  0  0  0  0  0  0  0  0
    9.9830  -13.3200   -0.2010 N   0  0  0  0  0  0  0  0  0  0  0  0
    8.9330  -13.9040   -0.7220 C   0  0  0  0  0  0  0  0  0  0  0  0
    7.8130  -14.1600    0.1800 N   0  0  0  0  0  0  0  0  0  0  0  0
    6.7480  -13.1120    0.1120 C   0  0  0  0  0  0  0  0  0  0  0  0
    5.4570  -13.7910   -0.3600 C   0  0  0  0  0  0  0  0  0  0  0  0
    4.2900  -12.8060   -0.3910 C   0  0  0  0  0  0  0  0  0  0  0  0
    4.0920  -12.1320    0.9620 C   0  0  0  0  0  0  0  0  0  0  0  0
    5.3750  -11.4650    1.4500 C   0  0  0  0  0  0  0  0  0  0  0  0
    6.5490  -12.4430    1.4780 C   0  0  0  0  0  0  0  0  0  0  0  0
    9.1130  -14.2030   -2.0570 N   0  0  0  0  0  0  0  0  0  0  0  0
    8.2170  -14.8890   -2.9840 C   0  0  0  0  0  0  0  0  0  0  0  0
    7.0600  -14.0420   -3.4530 C   0  0  0  0  0  0  0  0  0  0  0  0
    7.1590  -12.6420   -3.4660 C   0  0  0  0  0  0  0  0  0  0  0  0
    6.0820  -11.8490   -3.8870 C   0  0  0  0  0  0  0  0  0  0  0  0
    4.8920  -12.4430   -4.3070 C   0  0  0  0  0  0  0  0  0  0  0  0
    3.7670  -11.7730   -4.6950 O   0  0  0  0  0  0  0  0  0  0  0  0
    3.2800  -10.7590   -3.8230 C   0  0  0  0  0  0  0  0  0  0  0  0
    4.8070  -13.8370   -4.3170 C   0  0  0  0  0  0  0  0  0  0  0  0
    3.6740  -14.4430   -4.6970 F   0  0  0  0  0  0  0  0  0  0  0  0
    5.8760  -14.6350   -3.9130 C   0  0  0  0  0  0  0  0  0  0  0  0
   12.0820  -12.5680   -1.1910 N   0  0  0  0  0  0  0  0  0  0  0  0
   12.6160  -12.0300    0.0580 C   0  0  0  0  0  0  0  0  0  0  0  0
   12.3040  -10.5490    0.2120 C   0  0  0  0  0  0  0  0  0  0  0  0
   12.8340  -12.4440   -2.3670 C   0  0  0  0  0  0  0  0  0  0  0  0
   13.9450  -11.9090   -2.3640 O   0  0  0  0  0  0  0  0  0  0  0  0
   14.1222  -14.5720   -4.1303 H   0  0  0  0  0  0  0  0  0  0  0  0
   13.1987  -14.7859   -5.6561 H   0  0  0  0  0  0  0  0  0  0  0  0
   14.7270  -13.8420   -5.6561 H   0  0  0  0  0  0  0  0  0  0  0  0
   13.7462  -11.9852   -4.6690 H   0  0  0  0  0  0  0  0  0  0  0  0
   12.3474  -12.6430   -5.6127 H   0  0  0  0  0  0  0  0  0  0  0  0
    7.4260  -15.1010    0.0480 H   0  0  0  0  0  0  0  0  0  0  0  0
    8.2120  -14.1690    1.1300 H   0  0  0  0  0  0  0  0  0  0  0  0
    7.0393  -12.3188   -0.5923 H   0  0  0  0  0  0  0  0  0  0  0  0
    5.6132  -14.1932   -1.3719 H   0  0  0  0  0  0  0  0  0  0  0  0
    5.2112  -14.5977    0.3463 H   0  0  0  0  0  0  0  0  0  0  0  0
    4.4933  -12.0346   -1.1483 H   0  0  0  0  0  0  0  0  0  0  0  0
    3.3740  -13.3636   -0.6363 H   0  0  0  0  0  0  0  0  0  0  0  0
    3.3057  -11.3684    0.8689 H   0  0  0  0  0  0  0  0  0  0  0  0
    3.8057  -12.9033    1.6922 H   0  0  0  0  0  0  0  0  0  0  0  0
    5.6218  -10.6319    0.7754 H   0  0  0  0  0  0  0  0  0  0  0  0
    5.2046  -11.1065    2.4759 H   0  0  0  0  0  0  0  0  0  0  0  0
    7.4649  -11.8961    1.7463 H   0  0  0  0  0  0  0  0  0  0  0  0
    6.3322  -13.2254    2.2202 H   0  0  0  0  0  0  0  0  0  0  0  0
    8.7995  -15.1982   -3.8644 H   0  0  0  0  0  0  0  0  0  0  0  0
    7.7882  -15.7441   -2.4409 H   0  0  0  0  0  0  0  0  0  0  0  0
    8.0935  -12.1607   -3.1418 H   0  0  0  0  0  0  0  0  0  0  0  0
    6.1761  -10.7530   -3.8860 H   0  0  0  0  0  0  0  0  0  0  0  0
    3.4296  -11.0705   -2.7787 H   0  0  0  0  0  0  0  0  0  0  0  0
    3.8266   -9.8226   -4.0082 H   0  0  0  0  0  0  0  0  0  0  0  0
    2.2074  -10.6002   -4.0082 H   0  0  0  0  0  0  0  0  0  0  0  0
    5.7905  -15.7309   -3.9552 H   0  0  0  0  0  0  0  0  0  0  0  0
   12.1703  -12.5777    0.9014 H   0  0  0  0  0  0  0  0  0  0  0  0
   13.7093  -12.1503    0.0433 H   0  0  0  0  0  0  0  0  0  0  0  0
   12.2504  -10.2948    1.2809 H   0  0  0  0  0  0  0  0  0  0  0  0
   13.0968   -9.9555   -0.2668 H   0  0  0  0  0  0  0  0  0  0  0  0
   11.3391  -10.3258   -0.2668 H   0  0  0  0  0  0  0  0  0  0  0  0
  1  2  1  0
  2  3  1  0
  3  4  1  0
  4  5  2  0
  4  6  1  0
  6  7  2  0
  7  8  1  0
  8  9  2  0
  9 10  1  0
 10 11  1  0
 11 12  1  0
 12 13  1  0
 13 14  1  0
 14 15  1  0
 15 16  1  0
  9 17  1  0
 17 18  1  0
 18 19  1  0
 19 20  2  0
 20 21  1  0
 21 22  2  0
 22 23  1  0
 23 24  1  0
 22 25  1  0
 25 26  1  0
 25 27  2  0
  7 28  1  0
 28 29  1  0
 29 30  1  0
 28 31  1  0
 31 32  2  0
 31  3  1  0
 17  6  1  0
 27 19  1  0
 16 11  1  0
  1 33  1  0
  1 34  1  0
  1 35  1  0
  2 36  1  0
  2 37  1  0
 10 38  1  0
 10 39  1  0
 11 40  1  0
 12 41  1  0
 12 42  1  0
 13 43  1  0
 13 44  1  0
 14 45  1  0
 14 46  1  0
 15 47  1  0
 15 48  1  0
 16 49  1  0
 16 50  1  0
 18 51  1  0
 18 52  1  0
 20 53  1  0
 21 54  1  0
 24 55  1  0
 24 56  1  0
 24 57  1  0
 27 58  1  0
 29 59  1  0
 29 60  1  0
 30 61  1  0
 30 62  1  0
 30 63  1  0
M  CHG  1  10   1
M  END
>  <meeko>  (4) 
{"is_sidechain": [false], "free_energy": -6.693, "intermolecular_energy": -9.413, "internal_energy": -1.702}

$$$$
LIB_GFIVTABKMGOGIV__M_PUB_ALL__e8__s20260927
     RDKit          3D

 63 66  0  0  0  0  0  0  0  0999 V2000
   16.1840  -16.6650  -10.0850 C   0  0  0  0  0  0  0  0  0  0  0  0
   16.1270  -15.2960   -9.4230 C   0  0  0  0  0  0  0  0  0  0  0  0
   14.7490  -14.8940   -9.1460 N   0  0  0  0  0  0  0  0  0  0  0  0
   14.2670  -15.1130   -7.8550 C   0  0  0  0  0  0  0  0  0  0  0  0
   14.9050  -15.6330   -6.9470 O   0  0  0  0  0  0  0  0  0  0  0  0
   12.9180  -14.6850   -7.6770 C   0  0  0  0  0  0  0  0  0  0  0  0
   12.1830  -14.1350   -8.6820 C   0  0  0  0  0  0  0  0  0  0  0  0
   10.9130  -13.8580   -8.2800 N   0  0  0  0  0  0  0  0  0  0  0  0
   10.8630  -14.2520   -7.0320 C   0  0  0  0  0  0  0  0  0  0  0  0
    9.5790  -14.1070   -6.3510 N   0  0  0  0  0  0  0  0  0  0  0  0
    8.8520  -15.4030   -6.1800 C   0  0  0  0  0  0  0  0  0  0  0  0
    8.6910  -15.6510   -4.6760 C   0  0  0  0  0  0  0  0  0  0  0  0
    7.8920  -16.9240   -4.4040 C   0  0  0  0  0  0  0  0  0  0  0  0
    6.5370  -16.8930   -5.1030 C   0  0  0  0  0  0  0  0  0  0  0  0
    6.6830  -16.6320   -6.5990 C   0  0  0  0  0  0  0  0  0  0  0  0
    7.4860  -15.3630   -6.8790 C   0  0  0  0  0  0  0  0  0  0  0  0
   12.0850  -14.7090   -6.5820 N   0  0  0  0  0  0  0  0  0  0  0  0
   12.4670  -15.1860   -5.2560 C   0  0  0  0  0  0  0  0  0  0  0  0
   12.6270  -14.0870   -4.2350 C   0  0  0  0  0  0  0  0  0  0  0  0
   11.6180  -13.8330   -3.2940 C   0  0  0  0  0  0  0  0  0  0  0  0
   11.7540  -12.8030   -2.3530 C   0  0  0  0  0  0  0  0  0  0  0  0
   12.9050  -12.0140   -2.3340 C   0  0  0  0  0  0  0  0  0  0  0  0
   13.1280  -10.9590   -1.4960 O   0  0  0  0  0  0  0  0  0  0  0  0
   12.7410  -11.1140   -0.1360 C   0  0  0  0  0  0  0  0  0  0  0  0
   13.9180  -12.2860   -3.2560 C   0  0  0  0  0  0  0  0  0  0  0  0
   15.0300  -11.5390   -3.2810 F   0  0  0  0  0  0  0  0  0  0  0  0
   13.7980  -13.3160   -4.1870 C   0  0  0  0  0  0  0  0  0  0  0  0
   12.7040  -13.9230   -9.9340 N   0  0  0  0  0  0  0  0  0  0  0  0
   11.8990  -13.3370  -11.0040 C   0  0  0  0  0  0  0  0  0  0  0  0
   11.9530  -11.8170  -10.9810 C   0  0  0  0  0  0  0  0  0  0  0  0
   14.0250  -14.3060  -10.2030 C   0  0  0  0  0  0  0  0  0  0  0  0
   14.5270  -14.1390  -11.3170 O   0  0  0  0  0  0  0  0  0  0  0  0
   16.2165  -17.4456   -9.3107 H   0  0  0  0  0  0  0  0  0  0  0  0
   15.2910  -16.8068  -10.7114 H   0  0  0  0  0  0  0  0  0  0  0  0
   17.0857  -16.7321  -10.7114 H   0  0  0  0  0  0  0  0  0  0  0  0
   16.6862  -15.3327   -8.4764 H   0  0  0  0  0  0  0  0  0  0  0  0
   16.5705  -14.5605  -10.1103 H   0  0  0  0  0  0  0  0  0  0  0  0
    9.6750  -13.6070   -5.4610 H   0  0  0  0  0  0  0  0  0  0  0  0
    9.0140  -13.4830   -6.9460 H   0  0  0  0  0  0  0  0  0  0  0  0
    9.4227  -16.2224   -6.6415 H   0  0  0  0  0  0  0  0  0  0  0  0
    9.6875  -15.7497   -4.2208 H   0  0  0  0  0  0  0  0  0  0  0  0
    8.1459  -14.8003   -4.2410 H   0  0  0  0  0  0  0  0  0  0  0  0
    8.4634  -17.7898   -4.7700 H   0  0  0  0  0  0  0  0  0  0  0  0
    7.7198  -16.9986   -3.3201 H   0  0  0  0  0  0  0  0  0  0  0  0
    6.0375  -17.8621   -4.9567 H   0  0  0  0  0  0  0  0  0  0  0  0
    5.9436  -16.0757   -4.6673 H   0  0  0  0  0  0  0  0  0  0  0  0
    7.1972  -17.4877   -7.0610 H   0  0  0  0  0  0  0  0  0  0  0  0
    5.6764  -16.4994   -7.0222 H   0  0  0  0  0  0  0  0  0  0  0  0
    7.6411  -15.2690   -7.9639 H   0  0  0  0  0  0  0  0  0  0  0  0
    6.9220  -14.5020   -6.4909 H   0  0  0  0  0  0  0  0  0  0  0  0
   11.6907  -15.8793   -4.9001 H   0  0  0  0  0  0  0  0  0  0  0  0
   13.4490  -15.6704   -5.3610 H   0  0  0  0  0  0  0  0  0  0  0  0
   10.7077  -14.4505   -3.2946 H   0  0  0  0  0  0  0  0  0  0  0  0
   10.9498  -12.6157   -1.6262 H   0  0  0  0  0  0  0  0  0  0  0  0
   13.5617  -10.7853    0.5185 H   0  0  0  0  0  0  0  0  0  0  0  0
   11.8471  -10.5045    0.0626 H   0  0  0  0  0  0  0  0  0  0  0  0
   12.5149  -12.1720    0.0626 H   0  0  0  0  0  0  0  0  0  0  0  0
   14.6223  -13.5247   -4.8849 H   0  0  0  0  0  0  0  0  0  0  0  0
   12.2804  -13.6926  -11.9726 H   0  0  0  0  0  0  0  0  0  0  0  0
   10.8537  -13.6452  -10.8546 H   0  0  0  0  0  0  0  0  0  0  0  0
   11.9655  -11.4663   -9.9385 H   0  0  0  0  0  0  0  0  0  0  0  0
   12.8639  -11.4747  -11.4939 H   0  0  0  0  0  0  0  0  0  0  0  0
   11.0687  -11.4109  -11.4939 H   0  0  0  0  0  0  0  0  0  0  0  0
  1  2  1  0
  2  3  1  0
  3  4  1  0
  4  5  2  0
  4  6  1  0
  6  7  2  0
  7  8  1  0
  8  9  2  0
  9 10  1  0
 10 11  1  0
 11 12  1  0
 12 13  1  0
 13 14  1  0
 14 15  1  0
 15 16  1  0
  9 17  1  0
 17 18  1  0
 18 19  1  0
 19 20  2  0
 20 21  1  0
 21 22  2  0
 22 23  1  0
 23 24  1  0
 22 25  1  0
 25 26  1  0
 25 27  2  0
  7 28  1  0
 28 29  1  0
 29 30  1  0
 28 31  1  0
 31 32  2  0
 31  3  1  0
 17  6  1  0
 27 19  1  0
 16 11  1  0
  1 33  1  0
  1 34  1  0
  1 35  1  0
  2 36  1  0
  2 37  1  0
 10 38  1  0
 10 39  1  0
 11 40  1  0
 12 41  1  0
 12 42  1  0
 13 43  1  0
 13 44  1  0
 14 45  1  0
 14 46  1  0
 15 47  1  0
 15 48  1  0
 16 49  1  0
 16 50  1  0
 18 51  1  0
 18 52  1  0
 20 53  1  0
 21 54  1  0
 24 55  1  0
 24 56  1  0
 24 57  1  0
 27 58  1  0
 29 59  1  0
 29 60  1  0
 30 61  1  0
 30 62  1  0
 30 63  1  0
M  CHG  1  10   1
M  END
>  <meeko>  (5) 
{"is_sidechain": [false], "free_energy": -6.684, "intermolecular_energy": -9.684, "internal_energy": -1.42}

$$$$
LIB_GFIVTABKMGOGIV__M_PUB_ALL__e8__s20260927
     RDKit          3D

 63 66  0  0  0  0  0  0  0  0999 V2000
   14.6400  -13.5350  -11.1800 C   0  0  0  0  0  0  0  0  0  0  0  0
   13.9830  -12.4470  -10.3410 C   0  0  0  0  0  0  0  0  0  0  0  0
   12.5590  -12.7130  -10.1420 N   0  0  0  0  0  0  0  0  0  0  0  0
   12.2060  -13.5310   -9.0670 C   0  0  0  0  0  0  0  0  0  0  0  0
   12.9990  -14.0530   -8.2940 O   0  0  0  0  0  0  0  0  0  0  0  0
   10.7990  -13.7290   -8.9490 C   0  0  0  0  0  0  0  0  0  0  0  0
    9.9040  -13.1830   -9.8180 C   0  0  0  0  0  0  0  0  0  0  0  0
    8.6290  -13.5600   -9.5270 N   0  0  0  0  0  0  0  0  0  0  0  0
    8.7420  -14.3500   -8.4880 C   0  0  0  0  0  0  0  0  0  0  0  0
    7.5080  -14.9430   -7.9800 N   0  0  0  0  0  0  0  0  0  0  0  0
    6.7870  -14.0640   -7.0070 C   0  0  0  0  0  0  0  0  0  0  0  0
    5.7480  -13.2560   -7.7920 C   0  0  0  0  0  0  0  0  0  0  0  0
    4.9100  -12.3780   -6.8650 C   0  0  0  0  0  0  0  0  0  0  0  0
    4.2490  -13.2000   -5.7640 C   0  0  0  0  0  0  0  0  0  0  0  0
    5.2720  -14.0210   -4.9850 C   0  0  0  0  0  0  0  0  0  0  0  0
    6.1180  -14.8980   -5.9070 C   0  0  0  0  0  0  0  0  0  0  0  0
   10.0460  -14.4410   -8.0450 N   0  0  0  0  0  0  0  0  0  0  0  0
   10.5880  -15.1690   -6.9000 C   0  0  0  0  0  0  0  0  0  0  0  0
   10.7990  -14.3120   -5.6780 C   0  0  0  0  0  0  0  0  0  0  0  0
    9.7090  -13.8990   -4.8960 C   0  0  0  0  0  0  0  0  0  0  0  0
    9.8980  -13.0890   -3.7680 C   0  0  0  0  0  0  0  0  0  0  0  0
   11.1810  -12.6840   -3.3990 C   0  0  0  0  0  0  0  0  0  0  0  0
   11.4800  -11.8620   -2.3500 O   0  0  0  0  0  0  0  0  0  0  0  0
   11.1420  -12.3200   -1.0460 C   0  0  0  0  0  0  0  0  0  0  0  0
   12.2660  -13.1170   -4.1640 C   0  0  0  0  0  0  0  0  0  0  0  0
   13.5110  -12.7330   -3.8510 F   0  0  0  0  0  0  0  0  0  0  0  0
   12.0900  -13.9330   -5.2800 C   0  0  0  0  0  0  0  0  0  0  0  0
   10.2960  -12.3710  -10.8530 N   0  0  0  0  0  0  0  0  0  0  0  0
    9.3230  -11.7980  -11.7800 C   0  0  0  0  0  0  0  0  0  0  0  0
    8.8670  -10.4170  -11.3340 C   0  0  0  0  0  0  0  0  0  0  0  0
   11.6600  -12.1130  -11.0460 C   0  0  0  0  0  0  0  0  0  0  0  0
   12.0520  -11.3950  -11.9680 O   0  0  0  0  0  0  0  0  0  0  0  0
   15.0935  -14.2860  -10.5165 H   0  0  0  0  0  0  0  0  0  0  0  0
   13.8817  -14.0167  -11.8148 H   0  0  0  0  0  0  0  0  0  0  0  0
   15.4194  -13.0881  -11.8148 H   0  0  0  0  0  0  0  0  0  0  0  0
   14.4792  -12.4028   -9.3603 H   0  0  0  0  0  0  0  0  0  0  0  0
   14.0851  -11.4901  -10.8739 H   0  0  0  0  0  0  0  0  0  0  0  0
    6.8920  -15.2490   -8.7420 H   0  0  0  0  0  0  0  0  0  0  0  0
    7.7890  -15.8110   -7.5020 H   0  0  0  0  0  0  0  0  0  0  0  0
    7.4958  -13.3870   -6.5077 H   0  0  0  0  0  0  0  0  0  0  0  0
    6.2678  -12.6149   -8.5192 H   0  0  0  0  0  0  0  0  0  0  0  0
    5.0757  -13.9603   -8.3038 H   0  0  0  0  0  0  0  0  0  0  0  0
    5.5616  -11.6211   -6.4039 H   0  0  0  0  0  0  0  0  0  0  0  0
    4.1188  -11.9016   -7.4626 H   0  0  0  0  0  0  0  0  0  0  0  0
    3.7347  -12.5190   -5.0700 H   0  0  0  0  0  0  0  0  0  0  0  0
    3.5365  -13.8941   -6.2336 H   0  0  0  0  0  0  0  0  0  0  0  0
    5.9360  -13.3357   -4.4378 H   0  0  0  0  0  0  0  0  0  0  0  0
    4.7261  -14.6796   -4.2935 H   0  0  0  0  0  0  0  0  0  0  0  0
    6.8967  -15.3974   -5.3119 H   0  0  0  0  0  0  0  0  0  0  0  0
    5.4591  -15.6386   -6.3839 H   0  0  0  0  0  0  0  0  0  0  0  0
    9.8883  -15.9771   -6.6402 H   0  0  0  0  0  0  0  0  0  0  0  0
   11.5762  -15.5476   -7.2000 H   0  0  0  0  0  0  0  0  0  0  0  0
    8.6924  -14.2155   -5.1723 H   0  0  0  0  0  0  0  0  0  0  0  0
    9.0306  -12.7711   -3.1708 H   0  0  0  0  0  0  0  0  0  0  0  0
   11.6193  -11.6733   -0.2951 H   0  0  0  0  0  0  0  0  0  0  0  0
   10.0500  -12.2871   -0.9174 H   0  0  0  0  0  0  0  0  0  0  0  0
   11.4954  -13.3537   -0.9174 H   0  0  0  0  0  0  0  0  0  0  0  0
   12.9645  -14.2805   -5.8497 H   0  0  0  0  0  0  0  0  0  0  0  0
    9.7838  -11.7171  -12.7755 H   0  0  0  0  0  0  0  0  0  0  0  0
    8.4434  -12.4581  -11.8054 H   0  0  0  0  0  0  0  0  0  0  0  0
    8.8524  -10.3729  -10.2350 H   0  0  0  0  0  0  0  0  0  0  0  0
    9.5623   -9.6581  -11.7223 H   0  0  0  0  0  0  0  0  0  0  0  0
    7.8566  -10.2214  -11.7223 H   0  0  0  0  0  0  0  0  0  0  0  0
  1  2  1  0
  2  3  1  0
  3  4  1  0
  4  5  2  0
  4  6  1  0
  6  7  2  0
  7  8  1  0
  8  9  2  0
  9 10  1  0
 10 11  1  0
 11 12  1  0
 12 13  1  0
 13 14  1  0
 14 15  1  0
 15 16  1  0
  9 17  1  0
 17 18  1  0
 18 19  1  0
 19 20  2  0
 20 21  1  0
 21 22  2  0
 22 23  1  0
 23 24  1  0
 22 25  1  0
 25 26  1  0
 25 27  2  0
  7 28  1  0
 28 29  1  0
 29 30  1  0
 28 31  1  0
 31 32  2  0
 31  3  1  0
 17  6  1  0
 27 19  1  0
 16 11  1  0
  1 33  1  0
  1 34  1  0
  1 35  1  0
  2 36  1  0
  2 37  1  0
 10 38  1  0
 10 39  1  0
 11 40  1  0
 12 41  1  0
 12 42  1  0
 13 43  1  0
 13 44  1  0
 14 45  1  0
 14 46  1  0
 15 47  1  0
 15 48  1  0
 16 49  1  0
 16 50  1  0
 18 51  1  0
 18 52  1  0
 20 53  1  0
 21 54  1  0
 24 55  1  0
 24 56  1  0
 24 57  1  0
 27 58  1  0
 29 59  1  0
 29 60  1  0
 30 61  1  0
 30 62  1  0
 30 63  1  0
M  CHG  1  10   1
M  END
>  <meeko>  (6) 
{"is_sidechain": [false], "free_energy": -6.669, "intermolecular_energy": -9.871, "internal_energy": -1.211}

$$$$
LIB_GFIVTABKMGOGIV__M_PUB_ALL__e8__s20260927
     RDKit          3D

 63 66  0  0  0  0  0  0  0  0999 V2000
   15.6090   -9.5260   12.3720 C   0  0  0  0  0  0  0  0  0  0  0  0
   14.2590   -9.5520   11.6690 C   0  0  0  0  0  0  0  0  0  0  0  0
   13.2070  -10.0520   12.5520 N   0  0  0  0  0  0  0  0  0  0  0  0
   12.5070   -9.1100   13.3070 C   0  0  0  0  0  0  0  0  0  0  0  0
   12.7220   -7.9040   13.2980 O   0  0  0  0  0  0  0  0  0  0  0  0
   11.4980   -9.6880   14.1320 C   0  0  0  0  0  0  0  0  0  0  0  0
   11.2650  -11.0290   14.1800 C   0  0  0  0  0  0  0  0  0  0  0  0
   10.2910  -11.3370   15.0790 N   0  0  0  0  0  0  0  0  0  0  0  0
    9.9350  -10.1870   15.5940 C   0  0  0  0  0  0  0  0  0  0  0  0
    8.9130  -10.2260   16.6370 N   0  0  0  0  0  0  0  0  0  0  0  0
    7.5340  -10.4580   16.1040 C   0  0  0  0  0  0  0  0  0  0  0  0
    6.6530   -9.2960   16.5760 C   0  0  0  0  0  0  0  0  0  0  0  0
    5.2360   -9.4110   16.0170 C   0  0  0  0  0  0  0  0  0  0  0  0
    5.2420   -9.5130   14.4950 C   0  0  0  0  0  0  0  0  0  0  0  0
    6.1290  -10.6570   14.0130 C   0  0  0  0  0  0  0  0  0  0  0  0
    7.5470  -10.5520   14.5730 C   0  0  0  0  0  0  0  0  0  0  0  0
   10.5940   -9.1270   15.0060 N   0  0  0  0  0  0  0  0  0  0  0  0
   10.4530   -7.6940   15.2520 C   0  0  0  0  0  0  0  0  0  0  0  0
    9.1270   -7.1280   14.8100 C   0  0  0  0  0  0  0  0  0  0  0  0
    8.6670   -7.3250   13.4980 C   0  0  0  0  0  0  0  0  0  0  0  0
    7.4430   -6.7880   13.0770 C   0  0  0  0  0  0  0  0  0  0  0  0
    6.6550   -6.0500   13.9620 C   0  0  0  0  0  0  0  0  0  0  0  0
    5.4710   -5.4450   13.6520 O   0  0  0  0  0  0  0  0  0  0  0  0
    4.4910   -6.2330   12.9880 C   0  0  0  0  0  0  0  0  0  0  0  0
    7.1040   -5.8780   15.2730 C   0  0  0  0  0  0  0  0  0  0  0  0
    6.3850   -5.1600   16.1460 F   0  0  0  0  0  0  0  0  0  0  0  0
    8.3140   -6.4180   15.7050 C   0  0  0  0  0  0  0  0  0  0  0  0
   11.9690  -11.9180   13.4060 N   0  0  0  0  0  0  0  0  0  0  0  0
   11.7110  -13.3540   13.4740 C   0  0  0  0  0  0  0  0  0  0  0  0
   10.6040  -13.7730   12.5190 C   0  0  0  0  0  0  0  0  0  0  0  0
   12.9780  -11.4420   12.5580 C   0  0  0  0  0  0  0  0  0  0  0  0
   13.6370  -12.2100   11.8530 O   0  0  0  0  0  0  0  0  0  0  0  0
   15.4553   -9.5290   13.4612 H   0  0  0  0  0  0  0  0  0  0  0  0
   16.1909  -10.4131   12.0814 H   0  0  0  0  0  0  0  0  0  0  0  0
   16.1563   -8.6171   12.0814 H   0  0  0  0  0  0  0  0  0  0  0  0
   14.0025   -8.5313   11.3491 H   0  0  0  0  0  0  0  0  0  0  0  0
   14.3329  -10.2259   10.8027 H   0  0  0  0  0  0  0  0  0  0  0  0
    9.1500  -10.8960   17.3770 H   0  0  0  0  0  0  0  0  0  0  0  0
    8.9430   -9.3040   17.0950 H   0  0  0  0  0  0  0  0  0  0  0  0
    7.1360  -11.4127   16.4783 H   0  0  0  0  0  0  0  0  0  0  0  0
    6.6065   -9.3051   17.6750 H   0  0  0  0  0  0  0  0  0  0  0  0
    7.0942   -8.3561   16.2129 H   0  0  0  0  0  0  0  0  0  0  0  0
    4.7593  -10.3105   16.4336 H   0  0  0  0  0  0  0  0  0  0  0  0
    4.6788   -8.5058   16.3000 H   0  0  0  0  0  0  0  0  0  0  0  0
    4.2138   -9.6863   14.1446 H   0  0  0  0  0  0  0  0  0  0  0  0
    5.6419   -8.5724   14.0884 H   0  0  0  0  0  0  0  0  0  0  0  0
    5.6877  -11.6107   14.3382 H   0  0  0  0  0  0  0  0  0  0  0  0
    6.1903  -10.6026   12.9161 H   0  0  0  0  0  0  0  0  0  0  0  0
    8.1179  -11.4432   14.2732 H   0  0  0  0  0  0  0  0  0  0  0  0
    8.0128   -9.6396   14.1723 H   0  0  0  0  0  0  0  0  0  0  0  0
   10.5639   -7.5149   16.3316 H   0  0  0  0  0  0  0  0  0  0  0  0
   11.2302   -7.1893   14.6594 H   0  0  0  0  0  0  0  0  0  0  0  0
    9.2754   -7.9085   12.7914 H   0  0  0  0  0  0  0  0  0  0  0  0
    7.1014   -6.9488   12.0438 H   0  0  0  0  0  0  0  0  0  0  0  0
    3.8609   -6.7396   13.7339 H   0  0  0  0  0  0  0  0  0  0  0  0
    3.8642   -5.5845   12.3582 H   0  0  0  0  0  0  0  0  0  0  0  0
    4.9898   -6.9844   12.3582 H   0  0  0  0  0  0  0  0  0  0  0  0
    8.6318   -6.2870   16.7499 H   0  0  0  0  0  0  0  0  0  0  0  0
   12.6322  -13.8945   13.2108 H   0  0  0  0  0  0  0  0  0  0  0  0
   11.3903  -13.5964   14.4979 H   0  0  0  0  0  0  0  0  0  0  0  0
    9.7281  -14.1045   13.0959 H   0  0  0  0  0  0  0  0  0  0  0  0
   10.3237  -12.9188   11.8852 H   0  0  0  0  0  0  0  0  0  0  0  0
   10.9596  -14.5987   11.8852 H   0  0  0  0  0  0  0  0  0  0  0  0
  1  2  1  0
  2  3  1  0
  3  4  1  0
  4  5  2  0
  4  6  1  0
  6  7  2  0
  7  8  1  0
  8  9  2  0
  9 10  1  0
 10 11  1  0
 11 12  1  0
 12 13  1  0
 13 14  1  0
 14 15  1  0
 15 16  1  0
  9 17  1  0
 17 18  1  0
 18 19  1  0
 19 20  2  0
 20 21  1  0
 21 22  2  0
 22 23  1  0
 23 24  1  0
 22 25  1  0
 25 26  1  0
 25 27  2  0
  7 28  1  0
 28 29  1  0
 29 30  1  0
 28 31  1  0
 31 32  2  0
 31  3  1  0
 17  6  1  0
 27 19  1  0
 16 11  1  0
  1 33  1  0
  1 34  1  0
  1 35  1  0
  2 36  1  0
  2 37  1  0
 10 38  1  0
 10 39  1  0
 11 40  1  0
 12 41  1  0
 12 42  1  0
 13 43  1  0
 13 44  1  0
 14 45  1  0
 14 46  1  0
 15 47  1  0
 15 48  1  0
 16 49  1  0
 16 50  1  0
 18 51  1  0
 18 52  1  0
 20 53  1  0
 21 54  1  0
 24 55  1  0
 24 56  1  0
 24 57  1  0
 27 58  1  0
 29 59  1  0
 29 60  1  0
 30 61  1  0
 30 62  1  0
 30 63  1  0
M  CHG  1  10   1
M  END
>  <meeko>  (7) 
{"is_sidechain": [false], "free_energy": -6.619, "intermolecular_energy": -9.253, "internal_energy": -1.758}

$$$$
LIB_GFIVTABKMGOGIV__M_PUB_ALL__e8__s20260927
     RDKit          3D

 63 66  0  0  0  0  0  0  0  0999 V2000
    4.0510  -18.7700    1.1230 C   0  0  0  0  0  0  0  0  0  0  0  0
    2.5820  -19.1640    1.1980 C   0  0  0  0  0  0  0  0  0  0  0  0
    1.7270  -18.0000    1.4210 N   0  0  0  0  0  0  0  0  0  0  0  0
    1.2560  -17.3270    0.2930 C   0  0  0  0  0  0  0  0  0  0  0  0
    1.5190  -17.6300   -0.8640 O   0  0  0  0  0  0  0  0  0  0  0  0
    0.4270  -16.2110    0.6080 C   0  0  0  0  0  0  0  0  0  0  0  0
    0.1480  -15.8400    1.8880 C   0  0  0  0  0  0  0  0  0  0  0  0
   -0.6180  -14.7160    1.9300 N   0  0  0  0  0  0  0  0  0  0  0  0
   -0.7980  -14.3880    0.6750 C   0  0  0  0  0  0  0  0  0  0  0  0
   -1.5670  -13.1720    0.4210 N   0  0  0  0  0  0  0  0  0  0  0  0
   -1.1590  -12.0240    1.2880 C   0  0  0  0  0  0  0  0  0  0  0  0
   -0.6250  -10.9170    0.3720 C   0  0  0  0  0  0  0  0  0  0  0  0
   -0.2490   -9.6690    1.1680 C   0  0  0  0  0  0  0  0  0  0  0  0
   -1.4200   -9.1690    2.0080 C   0  0  0  0  0  0  0  0  0  0  0  0
   -1.9700  -10.2660    2.9140 C   0  0  0  0  0  0  0  0  0  0  0  0
   -2.3430  -11.5200    2.1240 C   0  0  0  0  0  0  0  0  0  0  0  0
   -0.2360  -15.3060   -0.1890 N   0  0  0  0  0  0  0  0  0  0  0  0
   -0.2520  -15.3380   -1.6490 C   0  0  0  0  0  0  0  0  0  0  0  0
    0.7500  -14.4120   -2.2900 C   0  0  0  0  0  0  0  0  0  0  0  0
    0.9490  -14.4250   -3.6800 C   0  0  0  0  0  0  0  0  0  0  0  0
    1.8890  -13.5770   -4.2800 C   0  0  0  0  0  0  0  0  0  0  0  0
    2.6430  -12.6980   -3.5020 C   0  0  0  0  0  0  0  0  0  0  0  0
    3.6160  -11.8620   -3.9700 O   0  0  0  0  0  0  0  0  0  0  0  0
    3.2010  -10.5990   -4.4780 C   0  0  0  0  0  0  0  0  0  0  0  0
    2.4250  -12.6700   -2.1230 C   0  0  0  0  0  0  0  0  0  0  0  0
    3.1430  -11.8520   -1.3410 F   0  0  0  0  0  0  0  0  0  0  0  0
    1.4830  -13.5000   -1.5180 C   0  0  0  0  0  0  0  0  0  0  0  0
    0.6230  -16.5410    2.9690 N   0  0  0  0  0  0  0  0  0  0  0  0
    0.3200  -16.1260    4.3370 C   0  0  0  0  0  0  0  0  0  0  0  0
    1.2380  -15.0060    4.8020 C   0  0  0  0  0  0  0  0  0  0  0  0
    1.4410  -17.6590    2.7580 C   0  0  0  0  0  0  0  0  0  0  0  0
    1.8930  -18.3100    3.7030 O   0  0  0  0  0  0  0  0  0  0  0  0
    4.4541  -18.6619    2.1408 H   0  0  0  0  0  0  0  0  0  0  0  0
    4.6127  -19.5492    0.5870 H   0  0  0  0  0  0  0  0  0  0  0  0
    4.1474  -17.8143    0.5870 H   0  0  0  0  0  0  0  0  0  0  0  0
    2.2920  -19.6448    0.2521 H   0  0  0  0  0  0  0  0  0  0  0  0
    2.4524  -19.8551    2.0439 H   0  0  0  0  0  0  0  0  0  0  0  0
   -1.5580  -12.9180   -0.5730 H   0  0  0  0  0  0  0  0  0  0  0  0
   -2.5480  -13.4120    0.6240 H   0  0  0  0  0  0  0  0  0  0  0  0
   -0.3795  -12.3408    1.9965 H   0  0  0  0  0  0  0  0  0  0  0  0
    0.2665  -11.2875   -0.1551 H   0  0  0  0  0  0  0  0  0  0  0  0
   -1.4164  -10.6468   -0.3426 H   0  0  0  0  0  0  0  0  0  0  0  0
    0.5921   -9.9100    1.8346 H   0  0  0  0  0  0  0  0  0  0  0  0
    0.0296   -8.8769    0.4574 H   0  0  0  0  0  0  0  0  0  0  0  0
   -1.0794   -8.3289    2.6310 H   0  0  0  0  0  0  0  0  0  0  0  0
   -2.2223   -8.8520    1.3255 H   0  0  0  0  0  0  0  0  0  0  0  0
   -1.2051  -10.5291    3.6594 H   0  0  0  0  0  0  0  0  0  0  0  0
   -2.8802   -9.8843    3.3996 H   0  0  0  0  0  0  0  0  0  0  0  0
   -2.6472  -12.3094    2.8271 H   0  0  0  0  0  0  0  0  0  0  0  0
   -3.1681  -11.2682    1.4415 H   0  0  0  0  0  0  0  0  0  0  0  0
   -0.0329  -16.3653   -1.9756 H   0  0  0  0  0  0  0  0  0  0  0  0
   -1.2493  -14.9986   -1.9655 H   0  0  0  0  0  0  0  0  0  0  0  0
    0.3589  -15.1103   -4.3062 H   0  0  0  0  0  0  0  0  0  0  0  0
    2.0333  -13.6044   -5.3701 H   0  0  0  0  0  0  0  0  0  0  0  0
    2.9785   -9.9219   -3.6401 H   0  0  0  0  0  0  0  0  0  0  0  0
    4.0051  -10.1691   -5.0933 H   0  0  0  0  0  0  0  0  0  0  0  0
    2.2986  -10.7298   -5.0933 H   0  0  0  0  0  0  0  0  0  0  0  0
    1.3144  -13.4393   -0.4327 H   0  0  0  0  0  0  0  0  0  0  0  0
   -0.7214  -15.7744    4.3804 H   0  0  0  0  0  0  0  0  0  0  0  0
    0.4722  -16.9911    4.9992 H   0  0  0  0  0  0  0  0  0  0  0  0
    1.2583  -14.9812    5.9015 H   0  0  0  0  0  0  0  0  0  0  0  0
    2.2544  -15.1827    4.4204 H   0  0  0  0  0  0  0  0  0  0  0  0
    0.8652  -14.0440    4.4204 H   0  0  0  0  0  0  0  0  0  0  0  0
  1  2  1  0
  2  3  1  0
  3  4  1  0
  4  5  2  0
  4  6  1  0
  6  7  2  0
  7  8  1  0
  8  9  2  0
  9 10  1  0
 10 11  1  0
 11 12  1  0
 12 13  1  0
 13 14  1  0
 14 15  1  0
 15 16  1  0
  9 17  1  0
 17 18  1  0
 18 19  1  0
 19 20  2  0
 20 21  1  0
 21 22  2  0
 22 23  1  0
 23 24  1  0
 22 25  1  0
 25 26  1  0
 25 27  2  0
  7 28  1  0
 28 29  1  0
 29 30  1  0
 28 31  1  0
 31 32  2  0
 31  3  1  0
 17  6  1  0
 27 19  1  0
 16 11  1  0
  1 33  1  0
  1 34  1  0
  1 35  1  0
  2 36  1  0
  2 37  1  0
 10 38  1  0
 10 39  1  0
 11 40  1  0
 12 41  1  0
 12 42  1  0
 13 43  1  0
 13 44  1  0
 14 45  1  0
 14 46  1  0
 15 47  1  0
 15 48  1  0
 16 49  1  0
 16 50  1  0
 18 51  1  0
 18 52  1  0
 20 53  1  0
 21 54  1  0
 24 55  1  0
 24 56  1  0
 24 57  1  0
 27 58  1  0
 29 59  1  0
 29 60  1  0
 30 61  1  0
 30 62  1  0
 30 63  1  0
M  CHG  1  10   1
M  END
>  <meeko>  (8) 
{"is_sidechain": [false], "free_energy": -6.591, "intermolecular_energy": -9.759, "internal_energy": -1.213}

$$$$
LIB_GFIVTABKMGOGIV__M_PUB_ALL__e8__s20260927
     RDKit          3D

 63 66  0  0  0  0  0  0  0  0999 V2000
   -1.5240   -9.3900    2.9650 C   0  0  0  0  0  0  0  0  0  0  0  0
   -1.7320   -9.5870    1.4700 C   0  0  0  0  0  0  0  0  0  0  0  0
   -1.3990  -10.9500    1.0590 N   0  0  0  0  0  0  0  0  0  0  0  0
   -0.0840  -11.1920    0.6590 C   0  0  0  0  0  0  0  0  0  0  0  0
    0.8010  -10.3470    0.6100 O   0  0  0  0  0  0  0  0  0  0  0  0
    0.1490  -12.5480    0.2820 C   0  0  0  0  0  0  0  0  0  0  0  0
   -0.8300  -13.4940    0.2990 C   0  0  0  0  0  0  0  0  0  0  0  0
   -0.3750  -14.6940   -0.1530 N   0  0  0  0  0  0  0  0  0  0  0  0
    0.8800  -14.4820   -0.4610 C   0  0  0  0  0  0  0  0  0  0  0  0
    1.6170  -15.6120   -1.0210 N   0  0  0  0  0  0  0  0  0  0  0  0
    2.3340  -16.4210    0.0140 C   0  0  0  0  0  0  0  0  0  0  0  0
    1.9180  -17.8840   -0.1700 C   0  0  0  0  0  0  0  0  0  0  0  0
    2.6590  -18.8000    0.8020 C   0  0  0  0  0  0  0  0  0  0  0  0
    4.1700  -18.6390    0.6780 C   0  0  0  0  0  0  0  0  0  0  0  0
    4.5960  -17.1840    0.8440 C   0  0  0  0  0  0  0  0  0  0  0  0
    3.8540  -16.2610   -0.1220 C   0  0  0  0  0  0  0  0  0  0  0  0
    1.2810  -13.1970   -0.1550 N   0  0  0  0  0  0  0  0  0  0  0  0
    2.5960  -12.5760   -0.2930 C   0  0  0  0  0  0  0  0  0  0  0  0
    2.9860  -12.2900   -1.7220 C   0  0  0  0  0  0  0  0  0  0  0  0
    3.7530  -13.2110   -2.4520 C   0  0  0  0  0  0  0  0  0  0  0  0
    4.1320  -12.9440   -3.7740 C   0  0  0  0  0  0  0  0  0  0  0  0
    3.7460  -11.7530   -4.3910 C   0  0  0  0  0  0  0  0  0  0  0  0
    4.0930  -11.3670   -5.6540 O   0  0  0  0  0  0  0  0  0  0  0  0
    4.8110  -12.3040   -6.4480 C   0  0  0  0  0  0  0  0  0  0  0  0
    2.9620  -10.8490   -3.6690 C   0  0  0  0  0  0  0  0  0  0  0  0
    2.5870   -9.6870   -4.2210 F   0  0  0  0  0  0  0  0  0  0  0  0
    2.5690  -11.1120   -2.3580 C   0  0  0  0  0  0  0  0  0  0  0  0
   -2.1070  -13.2130    0.7150 N   0  0  0  0  0  0  0  0  0  0  0  0
   -3.1480  -14.2390    0.7220 C   0  0  0  0  0  0  0  0  0  0  0  0
   -3.1190  -15.0620    2.0010 C   0  0  0  0  0  0  0  0  0  0  0  0
   -2.4300  -11.9090    1.1110 C   0  0  0  0  0  0  0  0  0  0  0  0
   -3.5680  -11.6150    1.4840 O   0  0  0  0  0  0  0  0  0  0  0  0
   -2.2134  -10.0430    3.5203 H   0  0  0  0  0  0  0  0  0  0  0  0
   -0.4865   -9.6444    3.2275 H   0  0  0  0  0  0  0  0  0  0  0  0
   -1.7217   -8.3402    3.2275 H   0  0  0  0  0  0  0  0  0  0  0  0
   -2.7859   -9.3873    1.2261 H   0  0  0  0  0  0  0  0  0  0  0  0
   -1.0683   -8.8925    0.9342 H   0  0  0  0  0  0  0  0  0  0  0  0
    1.0190  -16.1990   -1.6130 H   0  0  0  0  0  0  0  0  0  0  0  0
    2.3100  -15.2050   -1.6660 H   0  0  0  0  0  0  0  0  0  0  0  0
    2.0652  -16.0737    1.0225 H   0  0  0  0  0  0  0  0  0  0  0  0
    0.8362  -17.9736    0.0077 H   0  0  0  0  0  0  0  0  0  0  0  0
    2.1714  -18.1898   -1.1958 H   0  0  0  0  0  0  0  0  0  0  0  0
    2.3559  -18.5510    1.8297 H   0  0  0  0  0  0  0  0  0  0  0  0
    2.4014  -19.8416    0.5599 H   0  0  0  0  0  0  0  0  0  0  0  0
    4.6584  -19.2447    1.4556 H   0  0  0  0  0  0  0  0  0  0  0  0
    4.4698  -18.9724   -0.3265 H   0  0  0  0  0  0  0  0  0  0  0  0
    4.3823  -16.8660    1.8751 H   0  0  0  0  0  0  0  0  0  0  0  0
    5.6715  -17.1156    0.6237 H   0  0  0  0  0  0  0  0  0  0  0  0
    4.1260  -15.2181    0.0980 H   0  0  0  0  0  0  0  0  0  0  0  0
    4.1417  -16.5287   -1.1494 H   0  0  0  0  0  0  0  0  0  0  0  0
    2.5913  -11.6264    0.2622 H   0  0  0  0  0  0  0  0  0  0  0  0
    3.3318  -13.2911    0.1035 H   0  0  0  0  0  0  0  0  0  0  0  0
    4.0608  -14.1555   -1.9797 H   0  0  0  0  0  0  0  0  0  0  0  0
    4.7368  -13.6766   -4.3285 H   0  0  0  0  0  0  0  0  0  0  0  0
    5.3481  -13.0049   -5.7921 H   0  0  0  0  0  0  0  0  0  0  0  0
    4.1071  -12.8621   -7.0829 H   0  0  0  0  0  0  0  0  0  0  0  0
    5.5329  -11.7695   -7.0829 H   0  0  0  0  0  0  0  0  0  0  0  0
    1.9308  -10.3945   -1.8215 H   0  0  0  0  0  0  0  0  0  0  0  0
   -4.1299  -13.7510    0.6344 H   0  0  0  0  0  0  0  0  0  0  0  0
   -2.9672  -14.9164   -0.1256 H   0  0  0  0  0  0  0  0  0  0  0  0
   -3.1427  -14.3889    2.8707 H   0  0  0  0  0  0  0  0  0  0  0  0
   -3.9942  -15.7277    2.0286 H   0  0  0  0  0  0  0  0  0  0  0  0
   -2.1991  -15.6645    2.0286 H   0  0  0  0  0  0  0  0  0  0  0  0
  1  2  1  0
  2  3  1  0
  3  4  1  0
  4  5  2  0
  4  6  1  0
  6  7  2  0
  7  8  1  0
  8  9  2  0
  9 10  1  0
 10 11  1  0
 11 12  1  0
 12 13  1  0
 13 14  1  0
 14 15  1  0
 15 16  1  0
  9 17  1  0
 17 18  1  0
 18 19  1  0
 19 20  2  0
 20 21  1  0
 21 22  2  0
 22 23  1  0
 23 24  1  0
 22 25  1  0
 25 26  1  0
 25 27  2  0
  7 28  1  0
 28 29  1  0
 29 30  1  0
 28 31  1  0
 31 32  2  0
 31  3  1  0
 17  6  1  0
 27 19  1  0
 16 11  1  0
  1 33  1  0
  1 34  1  0
  1 35  1  0
  2 36  1  0
  2 37  1  0
 10 38  1  0
 10 39  1  0
 11 40  1  0
 12 41  1  0
 12 42  1  0
 13 43  1  0
 13 44  1  0
 14 45  1  0
 14 46  1  0
 15 47  1  0
 15 48  1  0
 16 49  1  0
 16 50  1  0
 18 51  1  0
 18 52  1  0
 20 53  1  0
 21 54  1  0
 24 55  1  0
 24 56  1  0
 24 57  1  0
 27 58  1  0
 29 59  1  0
 29 60  1  0
 30 61  1  0
 30 62  1  0
 30 63  1  0
M  CHG  1  10   1
M  END
>  <meeko>  (9) 
{"is_sidechain": [false], "free_energy": -6.473, "intermolecular_energy": -9.413, "internal_energy": -1.393}

$$$$
