LIB_YSOORCJLQNLHPL__M_PUB_ALL__e8__s20260927
     RDKit          3D

 47 50  0  0  0  0  0  0  0  0999 V2000
   -4.1310  -17.8120    4.0560 C   0  0  0  0  0  0  0  0  0  0  0  0
   -3.6390  -16.3700    4.1700 C   0  0  0  0  0  0  0  0  0  0  0  0
   -2.7430  -16.0120    3.0560 N   0  0  0  0  0  0  0  0  0  0  0  0
   -3.2060  -14.9620    2.2510 C   0  0  0  0  0  0  0  0  0  0  0  0
   -4.0920  -14.0800    2.7920 N   0  0  0  0  0  0  0  0  0  0  0  0
   -4.5140  -13.0300    2.0450 C   0  0  0  0  0  0  0  0  0  0  0  0
   -4.1150  -12.7880    0.7450 C   0  0  0  0  0  0  0  0  0  0  0  0
   -4.6460  -11.6880    0.1440 O   0  0  0  0  0  0  0  0  0  0  0  0
   -3.7930  -10.9480   -0.7280 C   0  0  0  0  0  0  0  0  0  0  0  0
   -2.6880  -10.3440    0.1030 C   0  0  0  0  0  0  0  0  0  0  0  0
   -2.9860   -9.5720    1.2350 C   0  0  0  0  0  0  0  0  0  0  0  0
   -1.9610   -9.0260    2.0080 C   0  0  0  0  0  0  0  0  0  0  0  0
   -0.6290   -9.2510    1.6620 C   0  0  0  0  0  0  0  0  0  0  0  0
   -0.3220  -10.0270    0.5460 C   0  0  0  0  0  0  0  0  0  0  0  0
   -1.3460  -10.5740   -0.2280 C   0  0  0  0  0  0  0  0  0  0  0  0
   -3.2280  -13.6970    0.1890 C   0  0  0  0  0  0  0  0  0  0  0  0
   -2.7620  -14.7930    0.9480 C   0  0  0  0  0  0  0  0  0  0  0  0
   -1.9350  -15.7850    0.2400 C   0  0  0  0  0  0  0  0  0  0  0  0
   -2.2100  -15.9470   -0.9550 O   0  0  0  0  0  0  0  0  0  0  0  0
   -0.8370  -16.4150    0.8330 N   0  0  0  0  0  0  0  0  0  0  0  0
    0.0060  -17.2050   -0.0670 C   0  0  0  0  0  0  0  0  0  0  0  0
   -0.4550  -16.3490    2.2130 C   0  0  0  0  0  0  0  0  0  0  0  0
    0.9030  -16.5320    2.5500 C   0  0  0  0  0  0  0  0  0  0  0  0
    1.3180  -16.5680    3.8750 C   0  0  0  0  0  0  0  0  0  0  0  0
    0.3500  -16.4350    4.8390 C   0  0  0  0  0  0  0  0  0  0  0  0
    0.7460  -16.4830    6.5050 Cl  0  0  0  0  0  0  0  0  0  0  0  0
   -0.9560  -16.2630    4.5750 N   0  0  0  0  0  0  0  0  0  0  0  0
   -1.3680  -16.2050    3.2790 C   0  0  0  0  0  0  0  0  0  0  0  0
   -4.2741  -18.2313    5.0628 H   0  0  0  0  0  0  0  0  0  0  0  0
   -5.0866  -17.8314    3.5115 H   0  0  0  0  0  0  0  0  0  0  0  0
   -3.3865  -18.4115    3.5115 H   0  0  0  0  0  0  0  0  0  0  0  0
   -4.5074  -15.6949    4.1606 H   0  0  0  0  0  0  0  0  0  0  0  0
   -3.0752  -16.2724    5.1095 H   0  0  0  0  0  0  0  0  0  0  0  0
   -5.2211  -12.3240    2.5049 H   0  0  0  0  0  0  0  0  0  0  0  0
   -3.3649  -11.6177   -1.4884 H   0  0  0  0  0  0  0  0  0  0  0  0
   -4.3621  -10.1578   -1.2395 H   0  0  0  0  0  0  0  0  0  0  0  0
   -4.0350   -9.3957    1.5154 H   0  0  0  0  0  0  0  0  0  0  0  0
   -2.2038   -8.4173    2.8915 H   0  0  0  0  0  0  0  0  0  0  0  0
    0.1786   -8.8164    2.2694 H   0  0  0  0  0  0  0  0  0  0  0  0
    0.7285  -10.2085    0.2750 H   0  0  0  0  0  0  0  0  0  0  0  0
   -1.0979  -11.1904   -1.1046 H   0  0  0  0  0  0  0  0  0  0  0  0
   -2.8857  -13.5639   -0.8479 H   0  0  0  0  0  0  0  0  0  0  0  0
    0.6821  -17.8386    0.5258 H   0  0  0  0  0  0  0  0  0  0  0  0
   -0.6296  -17.8402   -0.7014 H   0  0  0  0  0  0  0  0  0  0  0  0
    0.5987  -16.5295   -0.7014 H   0  0  0  0  0  0  0  0  0  0  0  0
    1.6470  -16.6483    1.7482 H   0  0  0  0  0  0  0  0  0  0  0  0
    2.3776  -16.6976    4.1406 H   0  0  0  0  0  0  0  0  0  0  0  0
  1  2  1  0
  2  3  1  0
  3  4  1  0
  4  5  2  0
  5  6  1  0
  6  7  2  0
  7  8  1  0
  8  9  1  0
  9 10  1  0
 10 11  2  0
 11 12  1  0
 12 13  2  0
 13 14  1  0
 14 15  2  0
  7 16  1  0
 16 17  2  0
 17 18  1  0
 18 19  2  0
 18 20  1  0
 20 21  1  0
 20 22  1  0
 22 23  2  0
 23 24  1  0
 24 25  2  0
 25 26  1  0
 25 27  1  0
 27 28  2  0
 28  3  1  0
 17  4  1  0
 28 22  1  0
 15 10  1  0
  1 29  1  0
  1 30  1  0
  1 31  1  0
  2 32  1  0
  2 33  1  0
  6 34  1  0
  9 35  1  0
  9 36  1  0
 11 37  1  0
 12 38  1  0
 13 39  1  0
 14 40  1  0
 15 41  1  0
 16 42  1  0
 21 43  1  0
 21 44  1  0
 21 45  1  0
 23 46  1  0
 24 47  1  0
M  END
>  <meeko>  (1) 
{"is_sidechain": [false], "free_energy": -7.479, "intermolecular_energy": -9.228, "internal_energy": -0.689}

$$$$
LIB_YSOORCJLQNLHPL__M_PUB_ALL__e8__s20260927
     RDKit          3D

 47 50  0  0  0  0  0  0  0  0999 V2000
   -1.1470  -15.6320   -1.2530 C   0  0  0  0  0  0  0  0  0  0  0  0
   -0.8450  -15.1970    0.1790 C   0  0  0  0  0  0  0  0  0  0  0  0
   -1.6490  -14.0260    0.5720 N   0  0  0  0  0  0  0  0  0  0  0  0
   -2.6240  -14.2900    1.5450 C   0  0  0  0  0  0  0  0  0  0  0  0
   -2.4400  -15.3610    2.3650 N   0  0  0  0  0  0  0  0  0  0  0  0
   -3.3460  -15.6040    3.3430 C   0  0  0  0  0  0  0  0  0  0  0  0
   -4.4730  -14.8380    3.5700 C   0  0  0  0  0  0  0  0  0  0  0  0
   -5.2790  -15.2330    4.5940 O   0  0  0  0  0  0  0  0  0  0  0  0
   -6.3810  -14.3870    4.9180 C   0  0  0  0  0  0  0  0  0  0  0  0
   -7.4360  -15.2330    5.5860 C   0  0  0  0  0  0  0  0  0  0  0  0
   -8.3250  -16.0030    4.8220 C   0  0  0  0  0  0  0  0  0  0  0  0
   -9.2920  -16.7930    5.4460 C   0  0  0  0  0  0  0  0  0  0  0  0
   -9.3750  -16.8280    6.8370 C   0  0  0  0  0  0  0  0  0  0  0  0
   -8.4890  -16.0770    7.6060 C   0  0  0  0  0  0  0  0  0  0  0  0
   -7.5210  -15.2860    6.9850 C   0  0  0  0  0  0  0  0  0  0  0  0
   -4.6690  -13.7580    2.7220 C   0  0  0  0  0  0  0  0  0  0  0  0
   -3.7350  -13.4740    1.7020 C   0  0  0  0  0  0  0  0  0  0  0  0
   -4.0880  -12.3980    0.7610 C   0  0  0  0  0  0  0  0  0  0  0  0
   -5.2960  -12.2730    0.5300 O   0  0  0  0  0  0  0  0  0  0  0  0
   -3.1460  -11.4970    0.2550 N   0  0  0  0  0  0  0  0  0  0  0  0
   -3.6900  -10.3600   -0.4910 C   0  0  0  0  0  0  0  0  0  0  0  0
   -1.7220  -11.5710    0.4080 C   0  0  0  0  0  0  0  0  0  0  0  0
   -0.9730  -10.3770    0.3600 C   0  0  0  0  0  0  0  0  0  0  0  0
    0.4150  -10.3950    0.4120 C   0  0  0  0  0  0  0  0  0  0  0  0
    1.0230  -11.6230    0.4960 C   0  0  0  0  0  0  0  0  0  0  0  0
    2.7290  -11.7650    0.5470 Cl  0  0  0  0  0  0  0  0  0  0  0  0
    0.3600  -12.7900    0.5400 N   0  0  0  0  0  0  0  0  0  0  0  0
   -1.0020  -12.7790    0.5120 C   0  0  0  0  0  0  0  0  0  0  0  0
   -1.7743  -16.5355   -1.2372 H   0  0  0  0  0  0  0  0  0  0  0  0
   -1.6799  -14.8248   -1.7768 H   0  0  0  0  0  0  0  0  0  0  0  0
   -0.2044  -15.8492   -1.7768 H   0  0  0  0  0  0  0  0  0  0  0  0
   -1.0715  -16.0303    0.8604 H   0  0  0  0  0  0  0  0  0  0  0  0
    0.2178  -14.9194    0.2370 H   0  0  0  0  0  0  0  0  0  0  0  0
   -3.1724  -16.4690    4.0000 H   0  0  0  0  0  0  0  0  0  0  0  0
   -6.0522  -13.5909    5.6022 H   0  0  0  0  0  0  0  0  0  0  0  0
   -6.7851  -13.9196    4.0079 H   0  0  0  0  0  0  0  0  0  0  0  0
   -8.2598  -15.9843    3.7241 H   0  0  0  0  0  0  0  0  0  0  0  0
   -9.9896  -17.3888    4.8391 H   0  0  0  0  0  0  0  0  0  0  0  0
  -10.1398  -17.4484    7.3272 H   0  0  0  0  0  0  0  0  0  0  0  0
   -8.5522  -16.1073    8.7038 H   0  0  0  0  0  0  0  0  0  0  0  0
   -6.8198  -14.7000    7.5972 H   0  0  0  0  0  0  0  0  0  0  0  0
   -5.5564  -13.1197    2.8448 H   0  0  0  0  0  0  0  0  0  0  0  0
   -4.0542   -9.5989    0.2147 H   0  0  0  0  0  0  0  0  0  0  0  0
   -2.9020   -9.9260   -1.1240 H   0  0  0  0  0  0  0  0  0  0  0  0
   -4.5224  -10.7012   -1.1240 H   0  0  0  0  0  0  0  0  0  0  0  0
   -1.4977   -9.4135    0.2799 H   0  0  0  0  0  0  0  0  0  0  0  0
    1.0019   -9.4650    0.3869 H   0  0  0  0  0  0  0  0  0  0  0  0
  1  2  1  0
  2  3  1  0
  3  4  1  0
  4  5  2  0
  5  6  1  0
  6  7  2  0
  7  8  1  0
  8  9  1  0
  9 10  1  0
 10 11  2  0
 11 12  1  0
 12 13  2  0
 13 14  1  0
 14 15  2  0
  7 16  1  0
 16 17  2  0
 17 18  1  0
 18 19  2  0
 18 20  1  0
 20 21  1  0
 20 22  1  0
 22 23  2  0
 23 24  1  0
 24 25  2  0
 25 26  1  0
 25 27  1  0
 27 28  2  0
 28  3  1  0
 17  4  1  0
 28 22  1  0
 15 10  1  0
  1 29  1  0
  1 30  1  0
  1 31  1  0
  2 32  1  0
  2 33  1  0
  6 34  1  0
  9 35  1  0
  9 36  1  0
 11 37  1  0
 12 38  1  0
 13 39  1  0
 14 40  1  0
 15 41  1  0
 16 42  1  0
 21 43  1  0
 21 44  1  0
 21 45  1  0
 23 46  1  0
 24 47  1  0
M  END
>  <meeko>  (2) 
{"is_sidechain": [false], "free_energy": -7.428, "intermolecular_energy": -9.389, "internal_energy": -0.465}

$$$$
LIB_YSOORCJLQNLHPL__M_PUB_ALL__e8__s20260927
     RDKit          3D

 47 50  0  0  0  0  0  0  0  0999 V2000
   11.7560  -16.9010   -1.2690 C   0  0  0  0  0  0  0  0  0  0  0  0
   10.8730  -15.6580   -1.3750 C   0  0  0  0  0  0  0  0  0  0  0  0
   11.4620  -14.6510   -2.2770 N   0  0  0  0  0  0  0  0  0  0  0  0
   10.9670  -14.6840   -3.5880 C   0  0  0  0  0  0  0  0  0  0  0  0
    9.7350  -15.2230   -3.7970 N   0  0  0  0  0  0  0  0  0  0  0  0
    9.2190  -15.2190   -5.0500 C   0  0  0  0  0  0  0  0  0  0  0  0
    9.8670  -14.7110   -6.1590 C   0  0  0  0  0  0  0  0  0  0  0  0
    9.2010  -14.7980   -7.3430 O   0  0  0  0  0  0  0  0  0  0  0  0
    9.7920  -14.1520   -8.4700 C   0  0  0  0  0  0  0  0  0  0  0  0
    8.7050  -13.9050   -9.4870 C   0  0  0  0  0  0  0  0  0  0  0  0
    7.3530  -13.9730   -9.1190 C   0  0  0  0  0  0  0  0  0  0  0  0
    6.3520  -13.7320  -10.0610 C   0  0  0  0  0  0  0  0  0  0  0  0
    6.6900  -13.4130  -11.3750 C   0  0  0  0  0  0  0  0  0  0  0  0
    8.0300  -13.3300  -11.7480 C   0  0  0  0  0  0  0  0  0  0  0  0
    9.0330  -13.5710  -10.8080 C   0  0  0  0  0  0  0  0  0  0  0  0
   11.1310  -14.1800   -5.9480 C   0  0  0  0  0  0  0  0  0  0  0  0
   11.6880  -14.1590   -4.6510 C   0  0  0  0  0  0  0  0  0  0  0  0
   13.0850  -13.7070   -4.5370 C   0  0  0  0  0  0  0  0  0  0  0  0
   13.8080  -13.9740   -5.5040 O   0  0  0  0  0  0  0  0  0  0  0  0
   13.5410  -12.9240   -3.4730 N   0  0  0  0  0  0  0  0  0  0  0  0
   14.8930  -12.3790   -3.6180 C   0  0  0  0  0  0  0  0  0  0  0  0
   12.8190  -12.5970   -2.2790 C   0  0  0  0  0  0  0  0  0  0  0  0
   13.1410  -11.4040   -1.5970 C   0  0  0  0  0  0  0  0  0  0  0  0
   12.5360  -11.0800   -0.3890 C   0  0  0  0  0  0  0  0  0  0  0  0
   11.6290  -11.9760    0.1190 C   0  0  0  0  0  0  0  0  0  0  0  0
   10.8390  -11.6870    1.6110 Cl  0  0  0  0  0  0  0  0  0  0  0  0
   11.2890  -13.1260   -0.4850 N   0  0  0  0  0  0  0  0  0  0  0  0
   11.8600  -13.4410   -1.6800 C   0  0  0  0  0  0  0  0  0  0  0  0
   11.9262  -17.1406   -0.2090 H   0  0  0  0  0  0  0  0  0  0  0  0
   11.2565  -17.7487   -1.7609 H   0  0  0  0  0  0  0  0  0  0  0  0
   12.7209  -16.7084   -1.7609 H   0  0  0  0  0  0  0  0  0  0  0  0
    9.8869  -15.9523   -1.7634 H   0  0  0  0  0  0  0  0  0  0  0  0
   10.7828  -15.2127   -0.3732 H   0  0  0  0  0  0  0  0  0  0  0  0
    8.2168  -15.6492   -5.1936 H   0  0  0  0  0  0  0  0  0  0  0  0
   10.2385  -13.1955   -8.1606 H   0  0  0  0  0  0  0  0  0  0  0  0
   10.5834  -14.7827   -8.9012 H   0  0  0  0  0  0  0  0  0  0  0  0
    7.0803  -14.2177   -8.0818 H   0  0  0  0  0  0  0  0  0  0  0  0
    5.2941  -13.7939   -9.7659 H   0  0  0  0  0  0  0  0  0  0  0  0
    5.8996  -13.2269  -12.1170 H   0  0  0  0  0  0  0  0  0  0  0  0
    8.2974  -13.0744  -12.7839 H   0  0  0  0  0  0  0  0  0  0  0  0
   10.0893  -13.4982  -11.1063 H   0  0  0  0  0  0  0  0  0  0  0  0
   11.7022  -13.7733   -6.7955 H   0  0  0  0  0  0  0  0  0  0  0  0
   15.3266  -12.2042   -2.6223 H   0  0  0  0  0  0  0  0  0  0  0  0
   15.5196  -13.0948   -4.1703 H   0  0  0  0  0  0  0  0  0  0  0  0
   14.8480  -11.4288   -4.1703 H   0  0  0  0  0  0  0  0  0  0  0  0
   13.8844  -10.7183   -2.0297 H   0  0  0  0  0  0  0  0  0  0  0  0
   12.7740  -10.1444    0.1382 H   0  0  0  0  0  0  0  0  0  0  0  0
  1  2  1  0
  2  3  1  0
  3  4  1  0
  4  5  2  0
  5  6  1  0
  6  7  2  0
  7  8  1  0
  8  9  1  0
  9 10  1  0
 10 11  2  0
 11 12  1  0
 12 13  2  0
 13 14  1  0
 14 15  2  0
  7 16  1  0
 16 17  2  0
 17 18  1  0
 18 19  2  0
 18 20  1  0
 20 21  1  0
 20 22  1  0
 22 23  2  0
 23 24  1  0
 24 25  2  0
 25 26  1  0
 25 27  1  0
 27 28  2  0
 28  3  1  0
 17  4  1  0
 28 22  1  0
 15 10  1  0
  1 29  1  0
  1 30  1  0
  1 31  1  0
  2 32  1  0
  2 33  1  0
  6 34  1  0
  9 35  1  0
  9 36  1  0
 11 37  1  0
 12 38  1  0
 13 39  1  0
 14 40  1  0
 15 41  1  0
 16 42  1  0
 21 43  1  0
 21 44  1  0
 21 45  1  0
 23 46  1  0
 24 47  1  0
M  END
>  <meeko>  (3) 
{"is_sidechain": [false], "free_energy": -7.396, "intermolecular_energy": -9.333, "internal_energy": -0.482}

$$$$
LIB_YSOORCJLQNLHPL__M_PUB_ALL__e8__s20260927
     RDKit          3D

 47 50  0  0  0  0  0  0  0  0999 V2000
   10.2320  -16.2220   -1.2730 C   0  0  0  0  0  0  0  0  0  0  0  0
   10.1950  -14.7290   -1.5940 C   0  0  0  0  0  0  0  0  0  0  0  0
   10.7210  -14.4510   -2.9430 N   0  0  0  0  0  0  0  0  0  0  0  0
    9.7640  -14.5190   -3.9660 C   0  0  0  0  0  0  0  0  0  0  0  0
    8.4560  -14.3330   -3.6360 N   0  0  0  0  0  0  0  0  0  0  0  0
    7.5220  -14.3460   -4.6170 C   0  0  0  0  0  0  0  0  0  0  0  0
    7.7990  -14.5520   -5.9550 C   0  0  0  0  0  0  0  0  0  0  0  0
    6.7340  -14.5400   -6.8030 O   0  0  0  0  0  0  0  0  0  0  0  0
    6.3490  -13.2780   -7.3460 C   0  0  0  0  0  0  0  0  0  0  0  0
    6.7330  -13.2640   -8.8060 C   0  0  0  0  0  0  0  0  0  0  0  0
    6.8580  -12.0520   -9.4990 C   0  0  0  0  0  0  0  0  0  0  0  0
    7.2240  -12.0430  -10.8460 C   0  0  0  0  0  0  0  0  0  0  0  0
    7.4750  -13.2430  -11.5100 C   0  0  0  0  0  0  0  0  0  0  0  0
    7.3650  -14.4520  -10.8270 C   0  0  0  0  0  0  0  0  0  0  0  0
    7.0000  -14.4630   -9.4800 C   0  0  0  0  0  0  0  0  0  0  0  0
    9.1290  -14.7610   -6.2870 C   0  0  0  0  0  0  0  0  0  0  0  0
   10.1250  -14.7390   -5.2870 C   0  0  0  0  0  0  0  0  0  0  0  0
   11.4890  -15.1080   -5.7020 C   0  0  0  0  0  0  0  0  0  0  0  0
   11.5580  -15.9450   -6.6100 O   0  0  0  0  0  0  0  0  0  0  0  0
   12.6290  -14.4730   -5.2000 N   0  0  0  0  0  0  0  0  0  0  0  0
   13.8880  -14.8030   -5.8720 C   0  0  0  0  0  0  0  0  0  0  0  0
   12.6800  -13.5340   -4.1180 C   0  0  0  0  0  0  0  0  0  0  0  0
   13.7260  -12.5870   -4.0910 C   0  0  0  0  0  0  0  0  0  0  0  0
   13.8770  -11.7110   -3.0230 C   0  0  0  0  0  0  0  0  0  0  0  0
   12.9780  -11.8200   -1.9910 C   0  0  0  0  0  0  0  0  0  0  0  0
   13.0820  -10.8040   -0.6160 Cl  0  0  0  0  0  0  0  0  0  0  0  0
   11.9680  -12.7050   -1.9630 N   0  0  0  0  0  0  0  0  0  0  0  0
   11.7990  -13.5510   -3.0160 C   0  0  0  0  0  0  0  0  0  0  0  0
   10.2355  -16.3625   -0.1820 H   0  0  0  0  0  0  0  0  0  0  0  0
    9.3457  -16.7116   -1.7029 H   0  0  0  0  0  0  0  0  0  0  0  0
   11.1415  -16.6671   -1.7029 H   0  0  0  0  0  0  0  0  0  0  0  0
    9.1543  -14.3773   -1.5371 H   0  0  0  0  0  0  0  0  0  0  0  0
   10.8275  -14.2040   -0.8630 H   0  0  0  0  0  0  0  0  0  0  0  0
    6.4731  -14.1816   -4.3293 H   0  0  0  0  0  0  0  0  0  0  0  0
    5.2620  -13.1433   -7.2442 H   0  0  0  0  0  0  0  0  0  0  0  0
    6.8529  -12.4605   -6.8096 H   0  0  0  0  0  0  0  0  0  0  0  0
    6.6665  -11.1022   -8.9782 H   0  0  0  0  0  0  0  0  0  0  0  0
    7.3145  -11.0880  -11.3843 H   0  0  0  0  0  0  0  0  0  0  0  0
    7.7597  -13.2350  -12.5725 H   0  0  0  0  0  0  0  0  0  0  0  0
    7.5660  -15.3988  -11.3497 H   0  0  0  0  0  0  0  0  0  0  0  0
    6.9213  -15.4201   -8.9435 H   0  0  0  0  0  0  0  0  0  0  0  0
    9.4092  -14.9448   -7.3347 H   0  0  0  0  0  0  0  0  0  0  0  0
   14.6634  -15.0062   -5.1187 H   0  0  0  0  0  0  0  0  0  0  0  0
   13.7453  -15.6941   -6.5010 H   0  0  0  0  0  0  0  0  0  0  0  0
   14.2008  -13.9565   -6.5010 H   0  0  0  0  0  0  0  0  0  0  0  0
   14.4348  -12.5415   -4.9309 H   0  0  0  0  0  0  0  0  0  0  0  0
   14.6825  -10.9621   -3.0051 H   0  0  0  0  0  0  0  0  0  0  0  0
  1  2  1  0
  2  3  1  0
  3  4  1  0
  4  5  2  0
  5  6  1  0
  6  7  2  0
  7  8  1  0
  8  9  1  0
  9 10  1  0
 10 11  2  0
 11 12  1  0
 12 13  2  0
 13 14  1  0
 14 15  2  0
  7 16  1  0
 16 17  2  0
 17 18  1  0
 18 19  2  0
 18 20  1  0
 20 21  1  0
 20 22  1  0
 22 23  2  0
 23 24  1  0
 24 25  2  0
 25 26  1  0
 25 27  1  0
 27 28  2  0
 28  3  1  0
 17  4  1  0
 28 22  1  0
 15 10  1  0
  1 29  1  0
  1 30  1  0
  1 31  1  0
  2 32  1  0
  2 33  1  0
  6 34  1  0
  9 35  1  0
  9 36  1  0
 11 37  1  0
 12 38  1  0
 13 39  1  0
 14 40  1  0
 15 41  1  0
 16 42  1  0
 21 43  1  0
 21 44  1  0
 21 45  1  0
 23 46  1  0
 24 47  1  0
M  END
>  <meeko>  (4) 
{"is_sidechain": [false], "free_energy": -7.393, "intermolecular_energy": -9.177, "internal_energy": -0.634}

$$$$
LIB_YSOORCJLQNLHPL__M_PUB_ALL__e8__s20260927
     RDKit          3D

 47 50  0  0  0  0  0  0  0  0999 V2000
    4.3600  -15.6400   -0.2540 C   0  0  0  0  0  0  0  0  0  0  0  0
    4.5580  -14.1910    0.1880 C   0  0  0  0  0  0  0  0  0  0  0  0
    4.3740  -13.2530   -0.9340 N   0  0  0  0  0  0  0  0  0  0  0  0
    3.2360  -12.4400   -0.8320 C   0  0  0  0  0  0  0  0  0  0  0  0
    2.7170  -12.2130    0.4070 N   0  0  0  0  0  0  0  0  0  0  0  0
    1.6470  -11.3910    0.5310 C   0  0  0  0  0  0  0  0  0  0  0  0
    1.0200  -10.7620   -0.5270 C   0  0  0  0  0  0  0  0  0  0  0  0
   -0.0480   -9.9760   -0.2170 O   0  0  0  0  0  0  0  0  0  0  0  0
   -0.7800  -10.3090    0.9610 C   0  0  0  0  0  0  0  0  0  0  0  0
   -2.0950  -10.9150    0.5360 C   0  0  0  0  0  0  0  0  0  0  0  0
   -2.4630  -12.1980    0.9650 C   0  0  0  0  0  0  0  0  0  0  0  0
   -3.6850  -12.7490    0.5790 C   0  0  0  0  0  0  0  0  0  0  0  0
   -4.5550  -12.0220   -0.2330 C   0  0  0  0  0  0  0  0  0  0  0  0
   -4.2050  -10.7410   -0.6550 C   0  0  0  0  0  0  0  0  0  0  0  0
   -2.9830  -10.1880   -0.2700 C   0  0  0  0  0  0  0  0  0  0  0  0
    1.5370  -11.0090   -1.7890 C   0  0  0  0  0  0  0  0  0  0  0  0
    2.6590  -11.8510   -1.9480 C   0  0  0  0  0  0  0  0  0  0  0  0
    3.0570  -12.1720   -3.3290 C   0  0  0  0  0  0  0  0  0  0  0  0
    2.1310  -12.2350   -4.1450 O   0  0  0  0  0  0  0  0  0  0  0  0
    4.3930  -12.2780   -3.7240 N   0  0  0  0  0  0  0  0  0  0  0  0
    4.6230  -12.3840   -5.1670 C   0  0  0  0  0  0  0  0  0  0  0  0
    5.5430  -12.2760   -2.8680 C   0  0  0  0  0  0  0  0  0  0  0  0
    6.7760  -11.8290   -3.3880 C   0  0  0  0  0  0  0  0  0  0  0  0
    7.9400  -11.8880   -2.6330 C   0  0  0  0  0  0  0  0  0  0  0  0
    7.8420  -12.4160   -1.3700 C   0  0  0  0  0  0  0  0  0  0  0  0
    9.2180  -12.5550   -0.3590 Cl  0  0  0  0  0  0  0  0  0  0  0  0
    6.6970  -12.8610   -0.8270 N   0  0  0  0  0  0  0  0  0  0  0  0
    5.5470  -12.7850   -1.5520 C   0  0  0  0  0  0  0  0  0  0  0  0
    4.2719  -16.2850    0.6327 H   0  0  0  0  0  0  0  0  0  0  0  0
    3.4429  -15.7175   -0.8565 H   0  0  0  0  0  0  0  0  0  0  0  0
    5.2227  -15.9607   -0.8565 H   0  0  0  0  0  0  0  0  0  0  0  0
    3.8268  -13.9545    0.9750 H   0  0  0  0  0  0  0  0  0  0  0  0
    5.5864  -14.0825    0.5629 H   0  0  0  0  0  0  0  0  0  0  0  0
    1.2512  -11.2127    1.5417 H   0  0  0  0  0  0  0  0  0  0  0  0
   -0.2113  -11.0342    1.5616 H   0  0  0  0  0  0  0  0  0  0  0  0
   -0.9525   -9.4101    1.5711 H   0  0  0  0  0  0  0  0  0  0  0  0
   -1.7835  -12.7740    1.6103 H   0  0  0  0  0  0  0  0  0  0  0  0
   -3.9629  -13.7587    0.9157 H   0  0  0  0  0  0  0  0  0  0  0  0
   -5.5165  -12.4593   -0.5400 H   0  0  0  0  0  0  0  0  0  0  0  0
   -4.8925  -10.1652   -1.2921 H   0  0  0  0  0  0  0  0  0  0  0  0
   -2.7142   -9.1741   -0.6013 H   0  0  0  0  0  0  0  0  0  0  0  0
    1.0706  -10.5465   -2.6714 H   0  0  0  0  0  0  0  0  0  0  0  0
    5.6083  -12.8381   -5.3489 H   0  0  0  0  0  0  0  0  0  0  0  0
    3.8408  -13.0124   -5.6178 H   0  0  0  0  0  0  0  0  0  0  0  0
    4.5926  -11.3811   -5.6178 H   0  0  0  0  0  0  0  0  0  0  0  0
    6.8161  -11.4261   -4.4108 H   0  0  0  0  0  0  0  0  0  0  0  0
    8.9000  -11.5268   -3.0304 H   0  0  0  0  0  0  0  0  0  0  0  0
  1  2  1  0
  2  3  1  0
  3  4  1  0
  4  5  2  0
  5  6  1  0
  6  7  2  0
  7  8  1  0
  8  9  1  0
  9 10  1  0
 10 11  2  0
 11 12  1  0
 12 13  2  0
 13 14  1  0
 14 15  2  0
  7 16  1  0
 16 17  2  0
 17 18  1  0
 18 19  2  0
 18 20  1  0
 20 21  1  0
 20 22  1  0
 22 23  2  0
 23 24  1  0
 24 25  2  0
 25 26  1  0
 25 27  1  0
 27 28  2  0
 28  3  1  0
 17  4  1  0
 28 22  1  0
 15 10  1  0
  1 29  1  0
  1 30  1  0
  1 31  1  0
  2 32  1  0
  2 33  1  0
  6 34  1  0
  9 35  1  0
  9 36  1  0
 11 37  1  0
 12 38  1  0
 13 39  1  0
 14 40  1  0
 15 41  1  0
 16 42  1  0
 21 43  1  0
 21 44  1  0
 21 45  1  0
 23 46  1  0
 24 47  1  0
M  END
>  <meeko>  (5) 
{"is_sidechain": [false], "free_energy": -7.323, "intermolecular_energy": -9.101, "internal_energy": -0.624}

$$$$
LIB_YSOORCJLQNLHPL__M_PUB_ALL__e8__s20260927
     RDKit          3D

 47 50  0  0  0  0  0  0  0  0999 V2000
  -11.7240  -15.1640    8.7100 C   0  0  0  0  0  0  0  0  0  0  0  0
  -10.9030  -15.8920    7.6480 C   0  0  0  0  0  0  0  0  0  0  0  0
   -9.9620  -16.8520    8.2530 N   0  0  0  0  0  0  0  0  0  0  0  0
  -10.4430  -18.1670    8.3320 C   0  0  0  0  0  0  0  0  0  0  0  0
  -11.4210  -18.5460    7.4630 N   0  0  0  0  0  0  0  0  0  0  0  0
  -11.8650  -19.8270    7.4910 C   0  0  0  0  0  0  0  0  0  0  0  0
  -11.4000  -20.7940    8.3600 C   0  0  0  0  0  0  0  0  0  0  0  0
  -11.9660  -22.0280    8.2520 O   0  0  0  0  0  0  0  0  0  0  0  0
  -11.0850  -23.1500    8.2610 C   0  0  0  0  0  0  0  0  0  0  0  0
  -11.6900  -24.2100    9.1480 C   0  0  0  0  0  0  0  0  0  0  0  0
  -11.6830  -24.0650   10.5420 C   0  0  0  0  0  0  0  0  0  0  0  0
  -12.2550  -25.0420   11.3570 C   0  0  0  0  0  0  0  0  0  0  0  0
  -12.8450  -26.1690   10.7890 C   0  0  0  0  0  0  0  0  0  0  0  0
  -12.8690  -26.3180    9.4040 C   0  0  0  0  0  0  0  0  0  0  0  0
  -12.2980  -25.3420    8.5860 C   0  0  0  0  0  0  0  0  0  0  0  0
  -10.4180  -20.4020    9.2570 C   0  0  0  0  0  0  0  0  0  0  0  0
   -9.9280  -19.0780    9.2420 C   0  0  0  0  0  0  0  0  0  0  0  0
   -8.9900  -18.7060   10.3150 C   0  0  0  0  0  0  0  0  0  0  0  0
   -9.1740  -19.2740   11.3980 O   0  0  0  0  0  0  0  0  0  0  0  0
   -7.8920  -17.8680   10.1030 N   0  0  0  0  0  0  0  0  0  0  0  0
   -6.9400  -17.7740   11.2110 C   0  0  0  0  0  0  0  0  0  0  0  0
   -7.6060  -17.1160    8.9160 C   0  0  0  0  0  0  0  0  0  0  0  0
   -6.2640  -16.7940    8.6250 C   0  0  0  0  0  0  0  0  0  0  0  0
   -5.9350  -15.9920    7.5390 C   0  0  0  0  0  0  0  0  0  0  0  0
   -6.9710  -15.5160    6.7740 C   0  0  0  0  0  0  0  0  0  0  0  0
   -6.6820  -14.5040    5.4230 Cl  0  0  0  0  0  0  0  0  0  0  0  0
   -8.2650  -15.7870    7.0080 N   0  0  0  0  0  0  0  0  0  0  0  0
   -8.5950  -16.5900    8.0580 C   0  0  0  0  0  0  0  0  0  0  0  0
  -11.3815  -15.4677    9.7102 H   0  0  0  0  0  0  0  0  0  0  0  0
  -11.5951  -14.0779    8.5924 H   0  0  0  0  0  0  0  0  0  0  0  0
  -12.7868  -15.4219    8.5924 H   0  0  0  0  0  0  0  0  0  0  0  0
  -11.5864  -16.4354    6.9789 H   0  0  0  0  0  0  0  0  0  0  0  0
  -10.3202  -15.1436    7.0909 H   0  0  0  0  0  0  0  0  0  0  0  0
  -12.6477  -20.1149    6.7737 H   0  0  0  0  0  0  0  0  0  0  0  0
  -10.9673  -23.5405    7.2394 H   0  0  0  0  0  0  0  0  0  0  0  0
  -10.0946  -22.8554    8.6382 H   0  0  0  0  0  0  0  0  0  0  0  0
  -11.2234  -23.1749   10.9964 H   0  0  0  0  0  0  0  0  0  0  0  0
  -12.2402  -24.9223   12.4504 H   0  0  0  0  0  0  0  0  0  0  0  0
  -13.2915  -26.9405   11.4335 H   0  0  0  0  0  0  0  0  0  0  0  0
  -13.3384  -27.2056    8.9548 H   0  0  0  0  0  0  0  0  0  0  0  0
  -12.3250  -25.4614    7.4928 H   0  0  0  0  0  0  0  0  0  0  0  0
  -10.0191  -21.1255    9.9832 H   0  0  0  0  0  0  0  0  0  0  0  0
   -7.4827  -17.8276   12.1663 H   0  0  0  0  0  0  0  0  0  0  0  0
   -6.2227  -18.6057   11.1497 H   0  0  0  0  0  0  0  0  0  0  0  0
   -6.3992  -16.8181   11.1497 H   0  0  0  0  0  0  0  0  0  0  0  0
   -5.4630  -17.1850    9.2697 H   0  0  0  0  0  0  0  0  0  0  0  0
   -4.8887  -15.7487    7.3022 H   0  0  0  0  0  0  0  0  0  0  0  0
  1  2  1  0
  2  3  1  0
  3  4  1  0
  4  5  2  0
  5  6  1  0
  6  7  2  0
  7  8  1  0
  8  9  1  0
  9 10  1  0
 10 11  2  0
 11 12  1  0
 12 13  2  0
 13 14  1  0
 14 15  2  0
  7 16  1  0
 16 17  2  0
 17 18  1  0
 18 19  2  0
 18 20  1  0
 20 21  1  0
 20 22  1  0
 22 23  2  0
 23 24  1  0
 24 25  2  0
 25 26  1  0
 25 27  1  0
 27 28  2  0
 28  3  1  0
 17  4  1  0
 28 22  1  0
 15 10  1  0
  1 29  1  0
  1 30  1  0
  1 31  1  0
  2 32  1  0
  2 33  1  0
  6 34  1  0
  9 35  1  0
  9 36  1  0
 11 37  1  0
 12 38  1  0
 13 39  1  0
 14 40  1  0
 15 41  1  0
 16 42  1  0
 21 43  1  0
 21 44  1  0
 21 45  1  0
 23 46  1  0
 24 47  1  0
M  END
>  <meeko>  (6) 
{"is_sidechain": [false], "free_energy": -7.316, "intermolecular_energy": -9.151, "internal_energy": -0.565}

$$$$
LIB_YSOORCJLQNLHPL__M_PUB_ALL__e8__s20260927
     RDKit          3D

 47 50  0  0  0  0  0  0  0  0999 V2000
    6.7130  -11.2650   -0.2590 C   0  0  0  0  0  0  0  0  0  0  0  0
    6.1160  -12.5440   -0.8410 C   0  0  0  0  0  0  0  0  0  0  0  0
    4.8390  -12.2820   -1.5290 N   0  0  0  0  0  0  0  0  0  0  0  0
    4.9260  -12.2550   -2.9280 C   0  0  0  0  0  0  0  0  0  0  0  0
    5.9550  -12.9220   -3.5200 N   0  0  0  0  0  0  0  0  0  0  0  0
    6.0290  -12.9490   -4.8730 C   0  0  0  0  0  0  0  0  0  0  0  0
    5.1290  -12.3270   -5.7160 C   0  0  0  0  0  0  0  0  0  0  0  0
    5.3630  -12.4520   -7.0510 O   0  0  0  0  0  0  0  0  0  0  0  0
    6.1190  -13.5860   -7.4750 C   0  0  0  0  0  0  0  0  0  0  0  0
    6.6070  -13.3210   -8.8780 C   0  0  0  0  0  0  0  0  0  0  0  0
    6.7800  -12.0080   -9.3390 C   0  0  0  0  0  0  0  0  0  0  0  0
    7.2440  -11.7690  -10.6330 C   0  0  0  0  0  0  0  0  0  0  0  0
    7.5450  -12.8370  -11.4760 C   0  0  0  0  0  0  0  0  0  0  0  0
    7.3890  -14.1450  -11.0250 C   0  0  0  0  0  0  0  0  0  0  0  0
    6.9250  -14.3870   -9.7310 C   0  0  0  0  0  0  0  0  0  0  0  0
    4.0930  -11.6310   -5.1110 C   0  0  0  0  0  0  0  0  0  0  0  0
    3.9840  -11.5970   -3.7040 C   0  0  0  0  0  0  0  0  0  0  0  0
    2.9400  -10.7230   -3.1420 C   0  0  0  0  0  0  0  0  0  0  0  0
    2.6970   -9.7020   -3.7950 O   0  0  0  0  0  0  0  0  0  0  0  0
    2.1860  -11.0740   -2.0180 N   0  0  0  0  0  0  0  0  0  0  0  0
    1.0470  -10.2020   -1.7190 C   0  0  0  0  0  0  0  0  0  0  0  0
    2.4070  -12.1970   -1.1540 C   0  0  0  0  0  0  0  0  0  0  0  0
    1.3090  -12.7390   -0.4530 C   0  0  0  0  0  0  0  0  0  0  0  0
    1.4790  -13.7680    0.4650 C   0  0  0  0  0  0  0  0  0  0  0  0
    2.7590  -14.2200    0.6710 C   0  0  0  0  0  0  0  0  0  0  0  0
    3.0850  -15.4720    1.7930 Cl  0  0  0  0  0  0  0  0  0  0  0  0
    3.8380  -13.7380    0.0350 N   0  0  0  0  0  0  0  0  0  0  0  0
    3.6780  -12.7440   -0.8830 C   0  0  0  0  0  0  0  0  0  0  0  0
    6.6892  -11.3161    0.8396 H   0  0  0  0  0  0  0  0  0  0  0  0
    7.7538  -11.1586   -0.5986 H   0  0  0  0  0  0  0  0  0  0  0  0
    6.1261  -10.3988   -0.5986 H   0  0  0  0  0  0  0  0  0  0  0  0
    6.8275  -12.9748   -1.5608 H   0  0  0  0  0  0  0  0  0  0  0  0
    5.9240  -13.2422   -0.0129 H   0  0  0  0  0  0  0  0  0  0  0  0
    6.8617  -13.5035   -5.3304 H   0  0  0  0  0  0  0  0  0  0  0  0
    6.9770  -13.7355   -6.8030 H   0  0  0  0  0  0  0  0  0  0  0  0
    5.4958  -14.4921   -7.4512 H   0  0  0  0  0  0  0  0  0  0  0  0
    6.5484  -11.1611   -8.6763 H   0  0  0  0  0  0  0  0  0  0  0  0
    7.3724  -10.7359  -10.9883 H   0  0  0  0  0  0  0  0  0  0  0  0
    7.9058  -12.6467  -12.4976 H   0  0  0  0  0  0  0  0  0  0  0  0
    7.6315  -14.9880  -11.6887 H   0  0  0  0  0  0  0  0  0  0  0  0
    6.8080  -15.4222   -9.3779 H   0  0  0  0  0  0  0  0  0  0  0  0
    3.3529  -11.1031   -5.7304 H   0  0  0  0  0  0  0  0  0  0  0  0
    0.9300  -10.1124   -0.6289 H   0  0  0  0  0  0  0  0  0  0  0  0
    1.2239   -9.2063   -2.1518 H   0  0  0  0  0  0  0  0  0  0  0  0
    0.1320  -10.6326   -2.1518 H   0  0  0  0  0  0  0  0  0  0  0  0
    0.3005  -12.3398   -0.6365 H   0  0  0  0  0  0  0  0  0  0  0  0
    0.6241  -14.2022    1.0040 H   0  0  0  0  0  0  0  0  0  0  0  0
  1  2  1  0
  2  3  1  0
  3  4  1  0
  4  5  2  0
  5  6  1  0
  6  7  2  0
  7  8  1  0
  8  9  1  0
  9 10  1  0
 10 11  2  0
 11 12  1  0
 12 13  2  0
 13 14  1  0
 14 15  2  0
  7 16  1  0
 16 17  2  0
 17 18  1  0
 18 19  2  0
 18 20  1  0
 20 21  1  0
 20 22  1  0
 22 23  2  0
 23 24  1  0
 24 25  2  0
 25 26  1  0
 25 27  1  0
 27 28  2  0
 28  3  1  0
 17  4  1  0
 28 22  1  0
 15 10  1  0
  1 29  1  0
  1 30  1  0
  1 31  1  0
  2 32  1  0
  2 33  1  0
  6 34  1  0
  9 35  1  0
  9 36  1  0
 11 37  1  0
 12 38  1  0
 13 39  1  0
 14 40  1  0
 15 41  1  0
 16 42  1  0
 21 43  1  0
 21 44  1  0
 21 45  1  0
 23 46  1  0
 24 47  1  0
M  END
>  <meeko>  (7) 
{"is_sidechain": [false], "free_energy": -7.238, "intermolecular_energy": -9.145, "internal_energy": -0.474}

$$$$
LIB_YSOORCJLQNLHPL__M_PUB_ALL__e8__s20260927
     RDKit          3D

 47 50  0  0  0  0  0  0  0  0999 V2000
    4.2550  -17.8430   -1.3670 C   0  0  0  0  0  0  0  0  0  0  0  0
    3.7660  -16.7150   -0.4600 C   0  0  0  0  0  0  0  0  0  0  0  0
    3.2060  -15.5970   -1.2400 N   0  0  0  0  0  0  0  0  0  0  0  0
    1.8090  -15.4900   -1.1840 C   0  0  0  0  0  0  0  0  0  0  0  0
    1.1650  -16.0320   -0.1140 N   0  0  0  0  0  0  0  0  0  0  0  0
   -0.1800  -15.8970   -0.0170 C   0  0  0  0  0  0  0  0  0  0  0  0
   -0.9670  -15.2480   -0.9490 C   0  0  0  0  0  0  0  0  0  0  0  0
   -2.3040  -15.2150   -0.6940 O   0  0  0  0  0  0  0  0  0  0  0  0
   -2.7180  -14.5970    0.5240 C   0  0  0  0  0  0  0  0  0  0  0  0
   -2.8860  -13.1200    0.2620 C   0  0  0  0  0  0  0  0  0  0  0  0
   -4.0440  -12.6320   -0.3590 C   0  0  0  0  0  0  0  0  0  0  0  0
   -4.2000  -11.2640   -0.5870 C   0  0  0  0  0  0  0  0  0  0  0  0
   -3.2040  -10.3710   -0.1930 C   0  0  0  0  0  0  0  0  0  0  0  0
   -2.0550  -10.8450    0.4360 C   0  0  0  0  0  0  0  0  0  0  0  0
   -1.8970  -12.2130    0.6660 C   0  0  0  0  0  0  0  0  0  0  0  0
   -0.3120  -14.7140   -2.0490 C   0  0  0  0  0  0  0  0  0  0  0  0
    1.0890  -14.8290   -2.1690 C   0  0  0  0  0  0  0  0  0  0  0  0
    1.6870  -14.3590   -3.4300 C   0  0  0  0  0  0  0  0  0  0  0  0
    0.9780  -14.4950   -4.4340 O   0  0  0  0  0  0  0  0  0  0  0  0
    2.9150  -13.6930   -3.4820 N   0  0  0  0  0  0  0  0  0  0  0  0
    3.2630  -13.1010   -4.7760 C   0  0  0  0  0  0  0  0  0  0  0  0
    3.8440  -13.5230   -2.4030 C   0  0  0  0  0  0  0  0  0  0  0  0
    4.7090  -12.4090   -2.4230 C   0  0  0  0  0  0  0  0  0  0  0  0
    5.6890  -12.2410   -1.4520 C   0  0  0  0  0  0  0  0  0  0  0  0
    5.7880  -13.2120   -0.4870 C   0  0  0  0  0  0  0  0  0  0  0  0
    6.9720  -13.1160    0.7470 Cl  0  0  0  0  0  0  0  0  0  0  0  0
    4.9950  -14.2930   -0.4230 N   0  0  0  0  0  0  0  0  0  0  0  0
    4.0170  -14.4540   -1.3570 C   0  0  0  0  0  0  0  0  0  0  0  0
    4.6172  -18.6786   -0.7501 H   0  0  0  0  0  0  0  0  0  0  0  0
    3.4259  -18.1885   -2.0020 H   0  0  0  0  0  0  0  0  0  0  0  0
    5.0740  -17.4740   -2.0020 H   0  0  0  0  0  0  0  0  0  0  0  0
    2.9875  -17.1079    0.2105 H   0  0  0  0  0  0  0  0  0  0  0  0
    4.6250  -16.3380    0.1145 H   0  0  0  0  0  0  0  0  0  0  0  0
   -0.6780  -16.3328    0.8617 H   0  0  0  0  0  0  0  0  0  0  0  0
   -3.6738  -15.0286    0.8559 H   0  0  0  0  0  0  0  0  0  0  0  0
   -1.9685  -14.7633    1.3117 H   0  0  0  0  0  0  0  0  0  0  0  0
   -4.8345  -13.3315   -0.6685 H   0  0  0  0  0  0  0  0  0  0  0  0
   -5.1101  -10.8895   -1.0783 H   0  0  0  0  0  0  0  0  0  0  0  0
   -3.3255   -9.2936   -0.3787 H   0  0  0  0  0  0  0  0  0  0  0  0
   -1.2713  -10.1407    0.7518 H   0  0  0  0  0  0  0  0  0  0  0  0
   -0.9901  -12.5814    1.1677 H   0  0  0  0  0  0  0  0  0  0  0  0
   -0.8878  -14.1983   -2.8316 H   0  0  0  0  0  0  0  0  0  0  0  0
    3.8143  -12.1631   -4.6137 H   0  0  0  0  0  0  0  0  0  0  0  0
    3.8923  -13.8028   -5.3430 H   0  0  0  0  0  0  0  0  0  0  0  0
    2.3437  -12.8925   -5.3430 H   0  0  0  0  0  0  0  0  0  0  0  0
    4.6060  -11.6596   -3.2216 H   0  0  0  0  0  0  0  0  0  0  0  0
    6.3569  -11.3670   -1.4566 H   0  0  0  0  0  0  0  0  0  0  0  0
  1  2  1  0
  2  3  1  0
  3  4  1  0
  4  5  2  0
  5  6  1  0
  6  7  2  0
  7  8  1  0
  8  9  1  0
  9 10  1  0
 10 11  2  0
 11 12  1  0
 12 13  2  0
 13 14  1  0
 14 15  2  0
  7 16  1  0
 16 17  2  0
 17 18  1  0
 18 19  2  0
 18 20  1  0
 20 21  1  0
 20 22  1  0
 22 23  2  0
 23 24  1  0
 24 25  2  0
 25 26  1  0
 25 27  1  0
 27 28  2  0
 28  3  1  0
 17  4  1  0
 28 22  1  0
 15 10  1  0
  1 29  1  0
  1 30  1  0
  1 31  1  0
  2 32  1  0
  2 33  1  0
  6 34  1  0
  9 35  1  0
  9 36  1  0
 11 37  1  0
 12 38  1  0
 13 39  1  0
 14 40  1  0
 15 41  1  0
 16 42  1  0
 21 43  1  0
 21 44  1  0
 21 45  1  0
 23 46  1  0
 24 47  1  0
M  END
>  <meeko>  (8) 
{"is_sidechain": [false], "free_energy": -7.027, "intermolecular_energy": -8.568, "internal_energy": -0.791}

$$$$
LIB_YSOORCJLQNLHPL__M_PUB_ALL__e8__s20260927
     RDKit          3D

 47 50  0  0  0  0  0  0  0  0999 V2000
    4.5980  -16.3860    0.1790 C   0  0  0  0  0  0  0  0  0  0  0  0
    4.4610  -14.8680    0.2800 C   0  0  0  0  0  0  0  0  0  0  0  0
    3.3340  -14.3710   -0.5280 N   0  0  0  0  0  0  0  0  0  0  0  0
    2.1090  -14.3140    0.1530 C   0  0  0  0  0  0  0  0  0  0  0  0
    2.1330  -14.2240    1.5110 N   0  0  0  0  0  0  0  0  0  0  0  0
    0.9610  -14.1190    2.1840 C   0  0  0  0  0  0  0  0  0  0  0  0
   -0.2840  -14.1090    1.5850 C   0  0  0  0  0  0  0  0  0  0  0  0
   -1.3550  -14.0030    2.4180 O   0  0  0  0  0  0  0  0  0  0  0  0
   -2.5670  -13.5000    1.8580 C   0  0  0  0  0  0  0  0  0  0  0  0
   -2.4630  -11.9950    1.8010 C   0  0  0  0  0  0  0  0  0  0  0  0
   -2.0200  -11.2670    2.9140 C   0  0  0  0  0  0  0  0  0  0  0  0
   -1.9150   -9.8770    2.8530 C   0  0  0  0  0  0  0  0  0  0  0  0
   -2.2430   -9.2020    1.6780 C   0  0  0  0  0  0  0  0  0  0  0  0
   -2.6730   -9.9170    0.5620 C   0  0  0  0  0  0  0  0  0  0  0  0
   -2.7790  -11.3070    0.6210 C   0  0  0  0  0  0  0  0  0  0  0  0
   -0.3070  -14.2200    0.2030 C   0  0  0  0  0  0  0  0  0  0  0  0
    0.8990  -14.3190   -0.5250 C   0  0  0  0  0  0  0  0  0  0  0  0
    0.7810  -14.5740   -1.9700 C   0  0  0  0  0  0  0  0  0  0  0  0
   -0.1900  -15.2600   -2.3090 O   0  0  0  0  0  0  0  0  0  0  0  0
    1.6290  -13.9860   -2.9130 N   0  0  0  0  0  0  0  0  0  0  0  0
    1.2460  -14.1670   -4.3150 C   0  0  0  0  0  0  0  0  0  0  0  0
    2.8120  -13.2210   -2.6420 C   0  0  0  0  0  0  0  0  0  0  0  0
    3.2250  -12.2550   -3.5830 C   0  0  0  0  0  0  0  0  0  0  0  0
    4.4090  -11.5480   -3.4170 C   0  0  0  0  0  0  0  0  0  0  0  0
    5.1650  -11.8420   -2.3100 C   0  0  0  0  0  0  0  0  0  0  0  0
    6.6520  -11.0450   -2.0160 Cl  0  0  0  0  0  0  0  0  0  0  0  0
    4.8220  -12.7540   -1.3860 N   0  0  0  0  0  0  0  0  0  0  0  0
    3.6520  -13.4350   -1.5290 C   0  0  0  0  0  0  0  0  0  0  0  0
    4.6370  -16.8187    1.1896 H   0  0  0  0  0  0  0  0  0  0  0  0
    3.7333  -16.7970   -0.3627 H   0  0  0  0  0  0  0  0  0  0  0  0
    5.5223  -16.6355   -0.3627 H   0  0  0  0  0  0  0  0  0  0  0  0
    4.2944  -14.5937    1.3321 H   0  0  0  0  0  0  0  0  0  0  0  0
    5.3863  -14.4125   -0.1026 H   0  0  0  0  0  0  0  0  0  0  0  0
    1.0040  -14.0362    3.2800 H   0  0  0  0  0  0  0  0  0  0  0  0
   -2.7059  -13.9036    0.8442 H   0  0  0  0  0  0  0  0  0  0  0  0
   -3.4273  -13.8013    2.4737 H   0  0  0  0  0  0  0  0  0  0  0  0
   -1.7534  -11.7950    3.8415 H   0  0  0  0  0  0  0  0  0  0  0  0
   -1.5729   -9.3129    3.7332 H   0  0  0  0  0  0  0  0  0  0  0  0
   -2.1624   -8.1059    1.6320 H   0  0  0  0  0  0  0  0  0  0  0  0
   -2.9291   -9.3852   -0.3662 H   0  0  0  0  0  0  0  0  0  0  0  0
   -3.1130  -11.8672   -0.2648 H   0  0  0  0  0  0  0  0  0  0  0  0
   -1.2697  -14.2310   -0.3290 H   0  0  0  0  0  0  0  0  0  0  0  0
    0.2525  -14.6365   -4.3660 H   0  0  0  0  0  0  0  0  0  0  0  0
    1.2152  -13.1882   -4.8160 H   0  0  0  0  0  0  0  0  0  0  0  0
    1.9827  -14.8123   -4.8160 H   0  0  0  0  0  0  0  0  0  0  0  0
    2.5977  -12.0578   -4.4648 H   0  0  0  0  0  0  0  0  0  0  0  0
    4.7273  -10.7846   -4.1422 H   0  0  0  0  0  0  0  0  0  0  0  0
  1  2  1  0
  2  3  1  0
  3  4  1  0
  4  5  2  0
  5  6  1  0
  6  7  2  0
  7  8  1  0
  8  9  1  0
  9 10  1  0
 10 11  2  0
 11 12  1  0
 12 13  2  0
 13 14  1  0
 14 15  2  0
  7 16  1  0
 16 17  2  0
 17 18  1  0
 18 19  2  0
 18 20  1  0
 20 21  1  0
 20 22  1  0
 22 23  2  0
 23 24  1  0
 24 25  2  0
 25 26  1  0
 25 27  1  0
 27 28  2  0
 28  3  1  0
 17  4  1  0
 28 22  1  0
 15 10  1  0
  1 29  1  0
  1 30  1  0
  1 31  1  0
  2 32  1  0
  2 33  1  0
  6 34  1  0
  9 35  1  0
  9 36  1  0
 11 37  1  0
 12 38  1  0
 13 39  1  0
 14 40  1  0
 15 41  1  0
 16 42  1  0
 21 43  1  0
 21 44  1  0
 21 45  1  0
 23 46  1  0
 24 47  1  0
M  END
>  <meeko>  (9) 
{"is_sidechain": [false], "free_energy": -6.986, "intermolecular_energy": -8.575, "internal_energy": -0.734}

$$$$
