LIB_WNRYFPGBHSMMSQ__M_PUB_ALL__e8__s20260927
     RDKit          3D

 65 66  0  0  0  0  0  0  0  0999 V2000
   11.0410   -2.0120  -14.0650 C   0  0  0  0  0  0  0  0  0  0  0  0
   12.2830   -1.7140  -13.2390 C   0  0  0  0  0  0  0  0  0  0  0  0
   13.0060   -2.9710  -12.7520 C   0  0  0  0  0  0  0  0  0  0  0  0
   12.9980   -4.1080  -13.7770 C   0  0  0  0  0  0  0  0  0  0  0  0
   12.1490   -5.3080  -13.3440 C   0  0  0  0  0  0  0  0  0  0  0  0
   11.7680   -5.3500  -11.8600 C   0  0  0  0  0  0  0  0  0  0  0  0
   12.3180   -6.5390  -11.0680 C   0  0  0  0  0  0  0  0  0  0  0  0
   11.2260   -7.4490  -10.5080 C   0  0  0  0  0  0  0  0  0  0  0  0
   11.5090   -8.8470  -10.7610 N   0  0  0  0  0  0  0  0  0  0  0  0
   12.3830   -9.6600  -10.1020 C   0  0  0  0  0  0  0  0  0  0  0  0
   12.2480  -10.8760  -10.7350 C   0  0  0  0  0  0  0  0  0  0  0  0
   12.9400  -12.1650  -10.4670 C   0  0  0  0  0  0  0  0  0  0  0  0
   12.4180  -13.3250  -11.3230 C   0  0  0  0  0  0  0  0  0  0  0  0
   11.1820  -13.9810  -10.7150 C   0  0  0  0  0  0  0  0  0  0  0  0
    9.9840  -13.8030  -11.5940 N   0  0  0  0  0  0  0  0  0  0  0  0
    8.6160  -13.6260  -10.9640 C   0  0  1  0  0  0  0  0  0  0  0  0
    8.4730  -14.7180   -9.8920 C   0  0  2  0  0  0  0  0  0  0  0  0
    8.7040  -15.9860  -10.5180 O   0  0  0  0  0  0  0  0  0  0  0  0
    7.0870  -14.6670   -9.2420 C   0  0  1  0  0  0  0  0  0  0  0  0
    7.0420  -15.6830   -8.2370 O   0  0  0  0  0  0  0  0  0  0  0  0
    6.8450  -13.2880   -8.6130 C   0  0  2  0  0  0  0  0  0  0  0  0
    5.5050  -13.2120   -8.1210 O   0  0  0  0  0  0  0  0  0  0  0  0
    7.0380  -12.1720   -9.6490 C   0  0  1  0  0  0  0  0  0  0  0  0
    6.9390  -10.8930   -9.0130 O   0  0  0  0  0  0  0  0  0  0  0  0
    8.4110  -12.2410  -10.3390 C   0  0  2  0  0  0  0  0  0  0  0  0
    8.4690  -11.2240  -11.3440 O   0  0  0  0  0  0  0  0  0  0  0  0
   11.3200  -10.7540  -11.7380 N   0  0  0  0  0  0  0  0  0  0  0  0
   10.8870   -9.5030  -11.7560 N   0  0  0  0  0  0  0  0  0  0  0  0
   10.1940   -2.2152  -13.3933 H   0  0  0  0  0  0  0  0  0  0  0  0
   10.8059   -1.1448  -14.6995 H   0  0  0  0  0  0  0  0  0  0  0  0
   11.2250   -2.8915  -14.6995 H   0  0  0  0  0  0  0  0  0  0  0  0
   12.9799   -1.1283  -13.8565 H   0  0  0  0  0  0  0  0  0  0  0  0
   11.9539   -1.1627  -12.3459 H   0  0  0  0  0  0  0  0  0  0  0  0
   14.0508   -2.7089  -12.5291 H   0  0  0  0  0  0  0  0  0  0  0  0
   12.4706   -3.3310  -11.8611 H   0  0  0  0  0  0  0  0  0  0  0  0
   12.5970   -3.7205  -14.7252 H   0  0  0  0  0  0  0  0  0  0  0  0
   14.0345   -4.4620  -13.8793 H   0  0  0  0  0  0  0  0  0  0  0  0
   11.2192   -5.2941  -13.9316 H   0  0  0  0  0  0  0  0  0  0  0  0
   12.7733   -6.1966  -13.5192 H   0  0  0  0  0  0  0  0  0  0  0  0
   12.1407   -4.4284  -11.3890 H   0  0  0  0  0  0  0  0  0  0  0  0
   10.6731   -5.4523  -11.8338 H   0  0  0  0  0  0  0  0  0  0  0  0
   12.9613   -7.1340  -11.7330 H   0  0  0  0  0  0  0  0  0  0  0  0
   12.8733   -6.1307  -10.2107 H   0  0  0  0  0  0  0  0  0  0  0  0
   11.1534   -7.2913   -9.4218 H   0  0  0  0  0  0  0  0  0  0  0  0
   10.2797   -7.1956  -11.0083 H   0  0  0  0  0  0  0  0  0  0  0  0
   13.0430   -9.4042   -9.2600 H   0  0  0  0  0  0  0  0  0  0  0  0
   14.0126  -12.0345  -10.6731 H   0  0  0  0  0  0  0  0  0  0  0  0
   12.7476  -12.4247   -9.4155 H   0  0  0  0  0  0  0  0  0  0  0  0
   12.1601  -12.9405  -12.3208 H   0  0  0  0  0  0  0  0  0  0  0  0
   13.2104  -14.0859  -11.3789 H   0  0  0  0  0  0  0  0  0  0  0  0
   11.3744  -15.0562  -10.5849 H   0  0  0  0  0  0  0  0  0  0  0  0
   10.9760  -13.5025   -9.7462 H   0  0  0  0  0  0  0  0  0  0  0  0
   10.1370  -12.9520  -12.1690 H   0  0  0  0  0  0  0  0  0  0  0  0
    9.9700  -14.5720  -12.2740 H   0  0  0  0  0  0  0  0  0  0  0  0
    7.8488  -13.7124  -11.7475 H   0  0  0  0  0  0  0  0  0  0  0  0
    9.2083  -14.5585   -9.0896 H   0  0  0  0  0  0  0  0  0  0  0  0
    9.0580  -15.7870  -11.4130 H   0  0  0  0  0  0  0  0  0  0  0  0
    6.3036  -14.8362   -9.9954 H   0  0  0  0  0  0  0  0  0  0  0  0
    6.1010  -15.8690   -8.0510 H   0  0  0  0  0  0  0  0  0  0  0  0
    7.5680  -13.1573   -7.7943 H   0  0  0  0  0  0  0  0  0  0  0  0
    5.4380  -13.7940   -7.3390 H   0  0  0  0  0  0  0  0  0  0  0  0
    6.2511  -12.3088  -10.4053 H   0  0  0  0  0  0  0  0  0  0  0  0
    7.3480  -10.2480   -9.6290 H   0  0  0  0  0  0  0  0  0  0  0  0
    9.2112  -12.0764   -9.6023 H   0  0  0  0  0  0  0  0  0  0  0  0
    9.3150  -10.7480  -11.1910 H   0  0  0  0  0  0  0  0  0  0  0  0
  1  2  1  0
  2  3  1  0
  3  4  1  0
  4  5  1  0
  5  6  1  0
  6  7  1  0
  7  8  1  0
  8  9  1  0
  9 10  1  0
 10 11  2  0
 11 12  1  0
 12 13  1  0
 13 14  1  0
 14 15  1  0
 15 16  1  0
 16 17  1  0
 17 18  1  0
 17 19  1  0
 19 20  1  0
 19 21  1  0
 21 22  1  0
 21 23  1  0
 23 24  1  0
 23 25  1  0
 25 26  1  0
 11 27  1  0
 27 28  2  0
 28  9  1  0
 25 16  1  0
  1 29  1  0
  1 30  1  0
  1 31  1  0
  2 32  1  0
  2 33  1  0
  3 34  1  0
  3 35  1  0
  4 36  1  0
  4 37  1  0
  5 38  1  0
  5 39  1  0
  6 40  1  0
  6 41  1  0
  7 42  1  0
  7 43  1  0
  8 44  1  0
  8 45  1  0
 10 46  1  0
 12 47  1  0
 12 48  1  0
 13 49  1  0
 13 50  1  0
 14 51  1  0
 14 52  1  0
 15 53  1  0
 15 54  1  0
 16 55  1  6
 17 56  1  1
 18 57  1  0
 19 58  1  6
 20 59  1  0
 21 60  1  1
 22 61  1  0
 23 62  1  6
 24 63  1  0
 25 64  1  1
 26 65  1  0
M  CHG  1  15   1
M  END
>  <meeko>  (1) 
{"is_sidechain": [false], "free_energy": -6.165, "intermolecular_energy": -11.39, "internal_energy": -1.46}

$$$$
LIB_WNRYFPGBHSMMSQ__M_PUB_ALL__e8__s20260927
     RDKit          3D

 65 66  0  0  0  0  0  0  0  0999 V2000
    2.2400  -11.6160   -1.7360 C   0  0  0  0  0  0  0  0  0  0  0  0
    2.4740  -10.7410   -2.9580 C   0  0  0  0  0  0  0  0  0  0  0  0
    2.6290  -11.5370   -4.2550 C   0  0  0  0  0  0  0  0  0  0  0  0
    3.7400  -11.0020   -5.1620 C   0  0  0  0  0  0  0  0  0  0  0  0
    4.4680  -12.1020   -5.9420 C   0  0  0  0  0  0  0  0  0  0  0  0
    4.0790  -13.5400   -5.5820 C   0  0  0  0  0  0  0  0  0  0  0  0
    5.2110  -14.4170   -5.0430 C   0  0  0  0  0  0  0  0  0  0  0  0
    6.3060  -13.6240   -4.3330 C   0  0  0  0  0  0  0  0  0  0  0  0
    6.0770  -13.5480   -2.9050 N   0  0  0  0  0  0  0  0  0  0  0  0
    5.8850  -12.4340   -2.1420 C   0  0  0  0  0  0  0  0  0  0  0  0
    5.7060  -12.9290   -0.8690 C   0  0  0  0  0  0  0  0  0  0  0  0
    5.4530  -12.2010    0.4030 C   0  0  0  0  0  0  0  0  0  0  0  0
    6.6130  -12.2970    1.4010 C   0  0  0  0  0  0  0  0  0  0  0  0
    7.8160  -11.4630    0.9690 C   0  0  0  0  0  0  0  0  0  0  0  0
    9.0840  -12.2530    1.0520 N   0  0  0  0  0  0  0  0  0  0  0  0
   10.0230  -12.2830   -0.1380 C   0  0  1  0  0  0  0  0  0  0  0  0
   11.3880  -11.7810    0.3560 C   0  0  2  0  0  0  0  0  0  0  0  0
   11.1970  -10.4940    0.9560 O   0  0  0  0  0  0  0  0  0  0  0  0
   12.3940  -11.7090   -0.7980 C   0  0  1  0  0  0  0  0  0  0  0  0
   13.6420  -11.2700   -0.2560 O   0  0  0  0  0  0  0  0  0  0  0  0
   12.5540  -13.0880   -1.4510 C   0  0  2  0  0  0  0  0  0  0  0  0
   13.3970  -12.9790   -2.6020 O   0  0  0  0  0  0  0  0  0  0  0  0
   11.1960  -13.6400   -1.9050 C   0  0  1  0  0  0  0  0  0  0  0  0
   11.3510  -14.9790   -2.3890 O   0  0  0  0  0  0  0  0  0  0  0  0
   10.1660  -13.6770   -0.7630 C   0  0  2  0  0  0  0  0  0  0  0  0
    8.9120  -14.1200   -1.2930 O   0  0  0  0  0  0  0  0  0  0  0  0
    5.8010  -14.2970   -0.9070 N   0  0  0  0  0  0  0  0  0  0  0  0
    6.0450  -14.6640   -2.1550 N   0  0  0  0  0  0  0  0  0  0  0  0
    2.3988  -11.0220   -0.8239 H   0  0  0  0  0  0  0  0  0  0  0  0
    1.2083  -11.9973   -1.7502 H   0  0  0  0  0  0  0  0  0  0  0  0
    2.9436  -12.4614   -1.7502 H   0  0  0  0  0  0  0  0  0  0  0  0
    1.6178  -10.0592   -3.0676 H   0  0  0  0  0  0  0  0  0  0  0  0
    3.4179  -10.2005   -2.7942 H   0  0  0  0  0  0  0  0  0  0  0  0
    2.8596  -12.5815   -3.9986 H   0  0  0  0  0  0  0  0  0  0  0  0
    1.6830  -11.4466   -4.8090 H   0  0  0  0  0  0  0  0  0  0  0  0
    3.2950  -10.2995   -5.8821 H   0  0  0  0  0  0  0  0  0  0  0  0
    4.4838  -10.5154   -4.5139 H   0  0  0  0  0  0  0  0  0  0  0  0
    4.2588  -11.9529   -7.0116 H   0  0  0  0  0  0  0  0  0  0  0  0
    5.5312  -12.0037   -5.6777 H   0  0  0  0  0  0  0  0  0  0  0  0
    3.2913  -13.4955   -4.8154 H   0  0  0  0  0  0  0  0  0  0  0  0
    3.7579  -14.0091   -6.5237 H   0  0  0  0  0  0  0  0  0  0  0  0
    4.7845  -15.1380   -4.3301 H   0  0  0  0  0  0  0  0  0  0  0  0
    5.6772  -14.9133   -5.9069 H   0  0  0  0  0  0  0  0  0  0  0  0
    7.2740  -14.1148   -4.5125 H   0  0  0  0  0  0  0  0  0  0  0  0
    6.3006  -12.5999   -4.7345 H   0  0  0  0  0  0  0  0  0  0  0  0
    5.8753  -11.3834   -2.4677 H   0  0  0  0  0  0  0  0  0  0  0  0
    5.2812  -11.1400    0.1692 H   0  0  0  0  0  0  0  0  0  0  0  0
    4.5777  -12.6696    0.8766 H   0  0  0  0  0  0  0  0  0  0  0  0
    6.2671  -11.9383    2.3817 H   0  0  0  0  0  0  0  0  0  0  0  0
    6.9311  -13.3489    1.4487 H   0  0  0  0  0  0  0  0  0  0  0  0
    7.6678  -11.1315   -0.0693 H   0  0  0  0  0  0  0  0  0  0  0  0
    7.9003  -10.5995    1.6452 H   0  0  0  0  0  0  0  0  0  0  0  0
    9.6440  -11.8720    1.8380 H   0  0  0  0  0  0  0  0  0  0  0  0
    8.8460  -13.2080    1.3460 H   0  0  0  0  0  0  0  0  0  0  0  0
    9.6108  -11.6441   -0.9329 H   0  0  0  0  0  0  0  0  0  0  0  0
   11.8014  -12.4803    1.0976 H   0  0  0  0  0  0  0  0  0  0  0  0
   10.9410   -9.8890    0.2240 H   0  0  0  0  0  0  0  0  0  0  0  0
   12.0428  -11.0098   -1.5712 H   0  0  0  0  0  0  0  0  0  0  0  0
   14.0390  -10.6500   -0.9000 H   0  0  0  0  0  0  0  0  0  0  0  0
   12.9954  -13.7670   -0.7066 H   0  0  0  0  0  0  0  0  0  0  0  0
   14.1420  -12.3890   -2.3740 H   0  0  0  0  0  0  0  0  0  0  0  0
   10.8316  -12.9652   -2.6936 H   0  0  0  0  0  0  0  0  0  0  0  0
   10.4440  -15.3370   -2.4980 H   0  0  0  0  0  0  0  0  0  0  0  0
   10.4996  -14.3710    0.0225 H   0  0  0  0  0  0  0  0  0  0  0  0
    9.0470  -15.0610   -1.5410 H   0  0  0  0  0  0  0  0  0  0  0  0
  1  2  1  0
  2  3  1  0
  3  4  1  0
  4  5  1  0
  5  6  1  0
  6  7  1  0
  7  8  1  0
  8  9  1  0
  9 10  1  0
 10 11  2  0
 11 12  1  0
 12 13  1  0
 13 14  1  0
 14 15  1  0
 15 16  1  0
 16 17  1  0
 17 18  1  0
 17 19  1  0
 19 20  1  0
 19 21  1  0
 21 22  1  0
 21 23  1  0
 23 24  1  0
 23 25  1  0
 25 26  1  0
 11 27  1  0
 27 28  2  0
 28  9  1  0
 25 16  1  0
  1 29  1  0
  1 30  1  0
  1 31  1  0
  2 32  1  0
  2 33  1  0
  3 34  1  0
  3 35  1  0
  4 36  1  0
  4 37  1  0
  5 38  1  0
  5 39  1  0
  6 40  1  0
  6 41  1  0
  7 42  1  0
  7 43  1  0
  8 44  1  0
  8 45  1  0
 10 46  1  0
 12 47  1  0
 12 48  1  0
 13 49  1  0
 13 50  1  0
 14 51  1  0
 14 52  1  0
 15 53  1  0
 15 54  1  0
 16 55  1  6
 17 56  1  1
 18 57  1  0
 19 58  1  6
 20 59  1  0
 21 60  1  1
 22 61  1  0
 23 62  1  6
 24 63  1  0
 25 64  1  1
 26 65  1  0
M  CHG  1  15   1
M  END
>  <meeko>  (2) 
{"is_sidechain": [false], "free_energy": -5.931, "intermolecular_energy": -10.44, "internal_energy": -1.977}

$$$$
LIB_WNRYFPGBHSMMSQ__M_PUB_ALL__e8__s20260927
     RDKit          3D

 65 66  0  0  0  0  0  0  0  0999 V2000
    9.5300   -2.0750  -13.6710 C   0  0  0  0  0  0  0  0  0  0  0  0
   11.0010   -1.7060  -13.5530 C   0  0  0  0  0  0  0  0  0  0  0  0
   11.9440   -2.7970  -14.0630 C   0  0  0  0  0  0  0  0  0  0  0  0
   12.9560   -3.2610  -13.0120 C   0  0  0  0  0  0  0  0  0  0  0  0
   13.0180   -4.7850  -12.8610 C   0  0  0  0  0  0  0  0  0  0  0  0
   12.0140   -5.3960  -11.8780 C   0  0  0  0  0  0  0  0  0  0  0  0
   11.6360   -6.8560  -12.1380 C   0  0  0  0  0  0  0  0  0  0  0  0
   11.5710   -7.6990  -10.8670 C   0  0  0  0  0  0  0  0  0  0  0  0
   11.0210   -9.0150  -11.1200 N   0  0  0  0  0  0  0  0  0  0  0  0
    9.7410   -9.3390  -11.4630 C   0  0  0  0  0  0  0  0  0  0  0  0
    9.7680  -10.7100  -11.5920 C   0  0  0  0  0  0  0  0  0  0  0  0
    8.6720  -11.6490  -11.9530 C   0  0  0  0  0  0  0  0  0  0  0  0
    7.4130  -11.4720  -11.0960 C   0  0  0  0  0  0  0  0  0  0  0  0
    7.0900  -12.7200  -10.2790 C   0  0  0  0  0  0  0  0  0  0  0  0
    8.0310  -12.8740   -9.1260 N   0  0  0  0  0  0  0  0  0  0  0  0
    8.6270  -14.2360   -8.8270 C   0  0  1  0  0  0  0  0  0  0  0  0
    7.4520  -15.2020   -8.6130 C   0  0  2  0  0  0  0  0  0  0  0  0
    6.6130  -14.6590   -7.5860 O   0  0  0  0  0  0  0  0  0  0  0  0
    7.9550  -16.5990   -8.2340 C   0  0  1  0  0  0  0  0  0  0  0  0
    6.8120  -17.4450   -8.0870 O   0  0  0  0  0  0  0  0  0  0  0  0
    8.8830  -17.1440   -9.3270 C   0  0  2  0  0  0  0  0  0  0  0  0
    9.4430  -18.3910   -8.9050 O   0  0  0  0  0  0  0  0  0  0  0  0
   10.0370  -16.1720   -9.6030 C   0  0  1  0  0  0  0  0  0  0  0  0
   10.8120  -16.6350  -10.7140 O   0  0  0  0  0  0  0  0  0  0  0  0
    9.5430  -14.7550   -9.9430 C   0  0  2  0  0  0  0  0  0  0  0  0
   10.6790  -13.8990  -10.0970 O   0  0  0  0  0  0  0  0  0  0  0  0
   11.0370  -11.1560  -11.3220 N   0  0  0  0  0  0  0  0  0  0  0  0
   11.7910  -10.1120  -11.0170 N   0  0  0  0  0  0  0  0  0  0  0  0
    9.0974   -2.1835  -12.6655 H   0  0  0  0  0  0  0  0  0  0  0  0
    8.9959   -1.2830  -14.2164 H   0  0  0  0  0  0  0  0  0  0  0  0
    9.4330   -3.0253  -14.2164 H   0  0  0  0  0  0  0  0  0  0  0  0
   11.1787   -0.7907  -14.1367 H   0  0  0  0  0  0  0  0  0  0  0  0
   11.2156   -1.5654  -12.4833 H   0  0  0  0  0  0  0  0  0  0  0  0
   11.3409   -3.6629  -14.3735 H   0  0  0  0  0  0  0  0  0  0  0  0
   12.5156   -2.3693  -14.8999 H   0  0  0  0  0  0  0  0  0  0  0  0
   13.9528   -2.8982  -13.3031 H   0  0  0  0  0  0  0  0  0  0  0  0
   12.6318   -2.8507  -12.0442 H   0  0  0  0  0  0  0  0  0  0  0  0
   12.8365   -5.2304  -13.8503 H   0  0  0  0  0  0  0  0  0  0  0  0
   14.0137   -5.0055  -12.4488 H   0  0  0  0  0  0  0  0  0  0  0  0
   12.4479   -5.3336  -10.8691 H   0  0  0  0  0  0  0  0  0  0  0  0
   11.0853   -4.8193  -12.0003 H   0  0  0  0  0  0  0  0  0  0  0  0
   10.6493   -6.8799  -12.6235 H   0  0  0  0  0  0  0  0  0  0  0  0
   12.4223   -7.2874  -12.7749 H   0  0  0  0  0  0  0  0  0  0  0  0
   12.5875   -7.8102  -10.4615 H   0  0  0  0  0  0  0  0  0  0  0  0
   10.9125   -7.1860  -10.1506 H   0  0  0  0  0  0  0  0  0  0  0  0
    8.8855   -8.6621  -11.6039 H   0  0  0  0  0  0  0  0  0  0  0  0
    8.4031  -11.4828  -13.0066 H   0  0  0  0  0  0  0  0  0  0  0  0
    9.0455  -12.6683  -11.7756 H   0  0  0  0  0  0  0  0  0  0  0  0
    7.5693  -10.6287  -10.4073 H   0  0  0  0  0  0  0  0  0  0  0  0
    6.5673  -11.2847  -11.7740 H   0  0  0  0  0  0  0  0  0  0  0  0
    6.0624  -12.6405   -9.8946 H   0  0  0  0  0  0  0  0  0  0  0  0
    7.1945  -13.5990  -10.9321 H   0  0  0  0  0  0  0  0  0  0  0  0
    8.8410  -12.2470   -9.2930 H   0  0  0  0  0  0  0  0  0  0  0  0
    7.5770  -12.4890   -8.2900 H   0  0  0  0  0  0  0  0  0  0  0  0
    9.2647  -14.1575   -7.9342 H   0  0  0  0  0  0  0  0  0  0  0  0
    6.8782  -15.3107   -9.5451 H   0  0  0  0  0  0  0  0  0  0  0  0
    5.6880  -14.8140   -7.8820 H   0  0  0  0  0  0  0  0  0  0  0  0
    8.5274  -16.5602   -7.2955 H   0  0  0  0  0  0  0  0  0  0  0  0
    6.2790  -17.0890   -7.3480 H   0  0  0  0  0  0  0  0  0  0  0  0
    8.2870  -17.2738  -10.2424 H   0  0  0  0  0  0  0  0  0  0  0  0
    8.7110  -18.9600   -8.5970 H   0  0  0  0  0  0  0  0  0  0  0  0
   10.6368  -16.1312   -8.6818 H   0  0  0  0  0  0  0  0  0  0  0  0
   11.7310  -16.3360  -10.5510 H   0  0  0  0  0  0  0  0  0  0  0  0
    8.9660  -14.7724  -10.8794 H   0  0  0  0  0  0  0  0  0  0  0  0
   11.0080  -13.7290   -9.1870 H   0  0  0  0  0  0  0  0  0  0  0  0
  1  2  1  0
  2  3  1  0
  3  4  1  0
  4  5  1  0
  5  6  1  0
  6  7  1  0
  7  8  1  0
  8  9  1  0
  9 10  1  0
 10 11  2  0
 11 12  1  0
 12 13  1  0
 13 14  1  0
 14 15  1  0
 15 16  1  0
 16 17  1  0
 17 18  1  0
 17 19  1  0
 19 20  1  0
 19 21  1  0
 21 22  1  0
 21 23  1  0
 23 24  1  0
 23 25  1  0
 25 26  1  0
 11 27  1  0
 27 28  2  0
 28  9  1  0
 25 16  1  0
  1 29  1  0
  1 30  1  0
  1 31  1  0
  2 32  1  0
  2 33  1  0
  3 34  1  0
  3 35  1  0
  4 36  1  0
  4 37  1  0
  5 38  1  0
  5 39  1  0
  6 40  1  0
  6 41  1  0
  7 42  1  0
  7 43  1  0
  8 44  1  0
  8 45  1  0
 10 46  1  0
 12 47  1  0
 12 48  1  0
 13 49  1  0
 13 50  1  0
 14 51  1  0
 14 52  1  0
 15 53  1  0
 15 54  1  0
 16 55  1  1
 17 56  1  6
 18 57  1  0
 19 58  1  1
 20 59  1  0
 21 60  1  6
 22 61  1  0
 23 62  1  1
 24 63  1  0
 25 64  1  6
 26 65  1  0
M  CHG  1  15   1
M  END
>  <meeko>  (3) 
{"is_sidechain": [false], "free_energy": -5.857, "intermolecular_energy": -11.163, "internal_energy": -1.118}

$$$$
LIB_WNRYFPGBHSMMSQ__M_PUB_ALL__e8__s20260927
     RDKit          3D

 65 66  0  0  0  0  0  0  0  0999 V2000
    7.2700   -2.3140  -13.3450 C   0  0  0  0  0  0  0  0  0  0  0  0
    8.2380   -3.4230  -12.9620 C   0  0  0  0  0  0  0  0  0  0  0  0
    9.7080   -3.0060  -13.0520 C   0  0  0  0  0  0  0  0  0  0  0  0
   10.6080   -3.7510  -12.0630 C   0  0  0  0  0  0  0  0  0  0  0  0
   12.0030   -4.0510  -12.6210 C   0  0  0  0  0  0  0  0  0  0  0  0
   12.5930   -5.4120  -12.2350 C   0  0  0  0  0  0  0  0  0  0  0  0
   11.6060   -6.5820  -12.2200 C   0  0  0  0  0  0  0  0  0  0  0  0
   11.5810   -7.3340  -10.8910 C   0  0  0  0  0  0  0  0  0  0  0  0
   11.1280   -8.7000  -11.0540 N   0  0  0  0  0  0  0  0  0  0  0  0
    9.8870   -9.1370  -11.4150 C   0  0  0  0  0  0  0  0  0  0  0  0
   10.0080  -10.5090  -11.4280 C   0  0  0  0  0  0  0  0  0  0  0  0
    8.9900  -11.5460  -11.7490 C   0  0  0  0  0  0  0  0  0  0  0  0
    7.5650  -11.1450  -11.3480 C   0  0  0  0  0  0  0  0  0  0  0  0
    7.2570  -11.4880   -9.8930 C   0  0  0  0  0  0  0  0  0  0  0  0
    8.0830  -12.6420   -9.4200 N   0  0  0  0  0  0  0  0  0  0  0  0
    7.3980  -13.9350   -9.0200 C   0  0  1  0  0  0  0  0  0  0  0  0
    8.2400  -15.0840   -9.5940 C   0  0  2  0  0  0  0  0  0  0  0  0
    8.3780  -14.8720  -11.0040 O   0  0  0  0  0  0  0  0  0  0  0  0
    7.5870  -16.4390   -9.3000 C   0  0  1  0  0  0  0  0  0  0  0  0
    8.4420  -17.4550   -9.8310 O   0  0  0  0  0  0  0  0  0  0  0  0
    7.4130  -16.6280   -7.7870 C   0  0  2  0  0  0  0  0  0  0  0  0
    6.6920  -17.8370   -7.5340 O   0  0  0  0  0  0  0  0  0  0  0  0
    6.6230  -15.4640   -7.1760 C   0  0  1  0  0  0  0  0  0  0  0  0
    6.5870  -15.5920   -5.7500 O   0  0  0  0  0  0  0  0  0  0  0  0
    7.2470  -14.0960   -7.5020 C   0  0  2  0  0  0  0  0  0  0  0  0
    6.4020  -13.0700   -6.9710 O   0  0  0  0  0  0  0  0  0  0  0  0
   11.2900  -10.8450  -11.0750 N   0  0  0  0  0  0  0  0  0  0  0  0
   11.9610   -9.7310  -10.8310 N   0  0  0  0  0  0  0  0  0  0  0  0
    6.8649   -1.8499  -12.4337 H   0  0  0  0  0  0  0  0  0  0  0  0
    7.7992   -1.5544  -13.9392 H   0  0  0  0  0  0  0  0  0  0  0  0
    6.4459   -2.7356  -13.9392 H   0  0  0  0  0  0  0  0  0  0  0  0
    8.0253   -3.7292  -11.9271 H   0  0  0  0  0  0  0  0  0  0  0  0
    8.0896   -4.2447  -13.6781 H   0  0  0  0  0  0  0  0  0  0  0  0
   10.0669   -3.2082  -14.0720 H   0  0  0  0  0  0  0  0  0  0  0  0
    9.7603   -1.9366  -12.7998 H   0  0  0  0  0  0  0  0  0  0  0  0
   10.7187   -3.1344  -11.1588 H   0  0  0  0  0  0  0  0  0  0  0  0
   10.1277   -4.7172  -11.8493 H   0  0  0  0  0  0  0  0  0  0  0  0
   11.9451   -4.0064  -13.7186 H   0  0  0  0  0  0  0  0  0  0  0  0
   12.6717   -3.2974  -12.1795 H   0  0  0  0  0  0  0  0  0  0  0  0
   13.3902   -5.6513  -12.9542 H   0  0  0  0  0  0  0  0  0  0  0  0
   12.9458   -5.3034  -11.1988 H   0  0  0  0  0  0  0  0  0  0  0  0
   10.5974   -6.1905  -12.4187 H   0  0  0  0  0  0  0  0  0  0  0  0
   11.9334   -7.2945  -12.9915 H   0  0  0  0  0  0  0  0  0  0  0  0
   12.5965   -7.3437  -10.4683 H   0  0  0  0  0  0  0  0  0  0  0  0
   10.8782   -6.8186  -10.2199 H   0  0  0  0  0  0  0  0  0  0  0  0
    8.9961   -8.5334  -11.6429 H   0  0  0  0  0  0  0  0  0  0  0  0
    9.0086  -11.7290  -12.8335 H   0  0  0  0  0  0  0  0  0  0  0  0
    9.2491  -12.4454  -11.1712 H   0  0  0  0  0  0  0  0  0  0  0  0
    7.4497  -10.0601  -11.4882 H   0  0  0  0  0  0  0  0  0  0  0  0
    6.8647  -11.7076  -11.9829 H   0  0  0  0  0  0  0  0  0  0  0  0
    7.4731  -10.6113   -9.2647 H   0  0  0  0  0  0  0  0  0  0  0  0
    6.1956  -11.7675   -9.8194 H   0  0  0  0  0  0  0  0  0  0  0  0
    8.7350  -12.8990  -10.1850 H   0  0  0  0  0  0  0  0  0  0  0  0
    8.6930  -12.3100   -8.6640 H   0  0  0  0  0  0  0  0  0  0  0  0
    6.3734  -13.9342   -9.4203 H   0  0  0  0  0  0  0  0  0  0  0  0
    9.2328  -15.0976   -9.1205 H   0  0  0  0  0  0  0  0  0  0  0  0
    9.2870  -15.1660  -11.2350 H   0  0  0  0  0  0  0  0  0  0  0  0
    6.5906  -16.4943   -9.7626 H   0  0  0  0  0  0  0  0  0  0  0  0
    9.3040  -17.0380  -10.0280 H   0  0  0  0  0  0  0  0  0  0  0  0
    8.4142  -16.6686   -7.3332 H   0  0  0  0  0  0  0  0  0  0  0  0
    6.0500  -17.9620   -8.2600 H   0  0  0  0  0  0  0  0  0  0  0  0
    5.6135  -15.5100   -7.6105 H   0  0  0  0  0  0  0  0  0  0  0  0
    6.4000  -16.5370   -5.5650 H   0  0  0  0  0  0  0  0  0  0  0  0
    8.2466  -14.0210   -7.0490 H   0  0  0  0  0  0  0  0  0  0  0  0
    6.3830  -13.2190   -5.9990 H   0  0  0  0  0  0  0  0  0  0  0  0
  1  2  1  0
  2  3  1  0
  3  4  1  0
  4  5  1  0
  5  6  1  0
  6  7  1  0
  7  8  1  0
  8  9  1  0
  9 10  1  0
 10 11  2  0
 11 12  1  0
 12 13  1  0
 13 14  1  0
 14 15  1  0
 15 16  1  0
 16 17  1  0
 17 18  1  0
 17 19  1  0
 19 20  1  0
 19 21  1  0
 21 22  1  0
 21 23  1  0
 23 24  1  0
 23 25  1  0
 25 26  1  0
 11 27  1  0
 27 28  2  0
 28  9  1  0
 25 16  1  0
  1 29  1  0
  1 30  1  0
  1 31  1  0
  2 32  1  0
  2 33  1  0
  3 34  1  0
  3 35  1  0
  4 36  1  0
  4 37  1  0
  5 38  1  0
  5 39  1  0
  6 40  1  0
  6 41  1  0
  7 42  1  0
  7 43  1  0
  8 44  1  0
  8 45  1  0
 10 46  1  0
 12 47  1  0
 12 48  1  0
 13 49  1  0
 13 50  1  0
 14 51  1  0
 14 52  1  0
 15 53  1  0
 15 54  1  0
 16 55  1  6
 17 56  1  1
 18 57  1  0
 19 58  1  6
 20 59  1  0
 21 60  1  1
 22 61  1  0
 23 62  1  6
 24 63  1  0
 25 64  1  1
 26 65  1  0
M  CHG  1  15   1
M  END
>  <meeko>  (4) 
{"is_sidechain": [false], "free_energy": -5.778, "intermolecular_energy": -11.319, "internal_energy": -0.817}

$$$$
LIB_WNRYFPGBHSMMSQ__M_PUB_ALL__e8__s20260927
     RDKit          3D

 65 66  0  0  0  0  0  0  0  0999 V2000
   -5.6160  -14.5200    8.6060 C   0  0  0  0  0  0  0  0  0  0  0  0
   -6.8240  -14.3620    7.6950 C   0  0  0  0  0  0  0  0  0  0  0  0
   -6.4640  -13.8920    6.2840 C   0  0  0  0  0  0  0  0  0  0  0  0
   -6.8270  -14.9080    5.1980 C   0  0  0  0  0  0  0  0  0  0  0  0
   -6.0300  -16.2140    5.3000 C   0  0  0  0  0  0  0  0  0  0  0  0
   -4.6320  -16.1880    4.6750 C   0  0  0  0  0  0  0  0  0  0  0  0
   -3.7730  -17.4300    4.9200 C   0  0  0  0  0  0  0  0  0  0  0  0
   -3.3720  -18.1520    3.6350 C   0  0  0  0  0  0  0  0  0  0  0  0
   -2.0000  -17.8710    3.2650 N   0  0  0  0  0  0  0  0  0  0  0  0
   -1.0230  -17.3020    4.0280 C   0  0  0  0  0  0  0  0  0  0  0  0
    0.0770  -17.2810    3.2000 C   0  0  0  0  0  0  0  0  0  0  0  0
    1.4520  -16.7780    3.4640 C   0  0  0  0  0  0  0  0  0  0  0  0
    1.5040  -15.2740    3.7580 C   0  0  0  0  0  0  0  0  0  0  0  0
    1.0610  -14.4360    2.5620 C   0  0  0  0  0  0  0  0  0  0  0  0
   -0.1890  -13.6720    2.8680 N   0  0  0  0  0  0  0  0  0  0  0  0
   -0.9480  -13.0010    1.7390 C   0  0  1  0  0  0  0  0  0  0  0  0
   -2.2890  -13.7390    1.6010 C   0  0  2  0  0  0  0  0  0  0  0  0
   -2.0120  -15.1320    1.4140 O   0  0  0  0  0  0  0  0  0  0  0  0
   -3.1040  -13.1750    0.4320 C   0  0  1  0  0  0  0  0  0  0  0  0
   -4.3450  -13.8830    0.3900 O   0  0  0  0  0  0  0  0  0  0  0  0
   -3.3540  -11.6750    0.6330 C   0  0  2  0  0  0  0  0  0  0  0  0
   -4.0060  -11.1380   -0.5210 O   0  0  0  0  0  0  0  0  0  0  0  0
   -2.0330  -10.9200    0.8310 C   0  0  1  0  0  0  0  0  0  0  0  0
   -2.2970   -9.5490    1.1480 O   0  0  0  0  0  0  0  0  0  0  0  0
   -1.1880  -11.5050    1.9750 C   0  0  2  0  0  0  0  0  0  0  0  0
    0.0570  -10.8000    2.0300 O   0  0  0  0  0  0  0  0  0  0  0  0
   -0.2700  -17.8220    1.9880 N   0  0  0  0  0  0  0  0  0  0  0  0
   -1.5470  -18.1640    2.0330 N   0  0  0  0  0  0  0  0  0  0  0  0
   -5.9407  -14.4775    9.6561 H   0  0  0  0  0  0  0  0  0  0  0  0
   -5.1334  -15.4889    8.4103 H   0  0  0  0  0  0  0  0  0  0  0  0
   -4.9004  -13.7078    8.4103 H   0  0  0  0  0  0  0  0  0  0  0  0
   -7.3331  -15.3341    7.6194 H   0  0  0  0  0  0  0  0  0  0  0  0
   -7.4675  -13.5890    8.1403 H   0  0  0  0  0  0  0  0  0  0  0  0
   -7.0025  -12.9548    6.0798 H   0  0  0  0  0  0  0  0  0  0  0  0
   -5.3727  -13.7571    6.2533 H   0  0  0  0  0  0  0  0  0  0  0  0
   -7.8978  -15.1445    5.2847 H   0  0  0  0  0  0  0  0  0  0  0  0
   -6.5813  -14.4507    4.2282 H   0  0  0  0  0  0  0  0  0  0  0  0
   -5.9192  -16.4602    6.3664 H   0  0  0  0  0  0  0  0  0  0  0  0
   -6.6011  -16.9599    4.7277 H   0  0  0  0  0  0  0  0  0  0  0  0
   -4.7499  -16.0676    3.5880 H   0  0  0  0  0  0  0  0  0  0  0  0
   -4.1016  -15.3558    5.1609 H   0  0  0  0  0  0  0  0  0  0  0  0
   -2.8580  -17.1228    5.4477 H   0  0  0  0  0  0  0  0  0  0  0  0
   -4.3780  -18.1322    5.5123 H   0  0  0  0  0  0  0  0  0  0  0  0
   -3.4852  -19.2358    3.7855 H   0  0  0  0  0  0  0  0  0  0  0  0
   -4.0244  -17.7947    2.8246 H   0  0  0  0  0  0  0  0  0  0  0  0
   -1.0968  -16.9429    5.0651 H   0  0  0  0  0  0  0  0  0  0  0  0
    1.8600  -17.3172    4.3316 H   0  0  0  0  0  0  0  0  0  0  0  0
    2.0420  -16.9513    2.5519 H   0  0  0  0  0  0  0  0  0  0  0  0
    0.8406  -15.0563    4.6080 H   0  0  0  0  0  0  0  0  0  0  0  0
    2.5474  -15.0109    3.9861 H   0  0  0  0  0  0  0  0  0  0  0  0
    1.8613  -13.7263    2.3054 H   0  0  0  0  0  0  0  0  0  0  0  0
    0.8572  -15.1131    1.7194 H   0  0  0  0  0  0  0  0  0  0  0  0
   -0.8630  -14.3290    3.3040 H   0  0  0  0  0  0  0  0  0  0  0  0
    0.0240  -12.9950    3.6100 H   0  0  0  0  0  0  0  0  0  0  0  0
   -0.3468  -13.0613    0.8198 H   0  0  0  0  0  0  0  0  0  0  0  0
   -2.8930  -13.5986    2.5096 H   0  0  0  0  0  0  0  0  0  0  0  0
   -1.0410  -15.2330    1.5310 H   0  0  0  0  0  0  0  0  0  0  0  0
   -2.5573  -13.3004   -0.5142 H   0  0  0  0  0  0  0  0  0  0  0  0
   -4.7260  -13.8600    1.2900 H   0  0  0  0  0  0  0  0  0  0  0  0
   -3.9822  -11.5530    1.5277 H   0  0  0  0  0  0  0  0  0  0  0  0
   -4.0690  -10.1690   -0.4080 H   0  0  0  0  0  0  0  0  0  0  0  0
   -1.4741  -11.0159   -0.1116 H   0  0  0  0  0  0  0  0  0  0  0  0
   -2.0130   -9.0270    0.3680 H   0  0  0  0  0  0  0  0  0  0  0  0
   -1.7186  -11.3905    2.9318 H   0  0  0  0  0  0  0  0  0  0  0  0
    0.5480  -11.0670    1.2210 H   0  0  0  0  0  0  0  0  0  0  0  0
  1  2  1  0
  2  3  1  0
  3  4  1  0
  4  5  1  0
  5  6  1  0
  6  7  1  0
  7  8  1  0
  8  9  1  0
  9 10  1  0
 10 11  2  0
 11 12  1  0
 12 13  1  0
 13 14  1  0
 14 15  1  0
 15 16  1  0
 16 17  1  0
 17 18  1  0
 17 19  1  0
 19 20  1  0
 19 21  1  0
 21 22  1  0
 21 23  1  0
 23 24  1  0
 23 25  1  0
 25 26  1  0
 11 27  1  0
 27 28  2  0
 28  9  1  0
 25 16  1  0
  1 29  1  0
  1 30  1  0
  1 31  1  0
  2 32  1  0
  2 33  1  0
  3 34  1  0
  3 35  1  0
  4 36  1  0
  4 37  1  0
  5 38  1  0
  5 39  1  0
  6 40  1  0
  6 41  1  0
  7 42  1  0
  7 43  1  0
  8 44  1  0
  8 45  1  0
 10 46  1  0
 12 47  1  0
 12 48  1  0
 13 49  1  0
 13 50  1  0
 14 51  1  0
 14 52  1  0
 15 53  1  0
 15 54  1  0
 16 55  1  6
 17 56  1  1
 18 57  1  0
 19 58  1  6
 20 59  1  0
 21 60  1  1
 22 61  1  0
 23 62  1  6
 24 63  1  0
 25 64  1  1
 26 65  1  0
M  CHG  1  15   1
M  END
>  <meeko>  (5) 
{"is_sidechain": [false], "free_energy": -5.723, "intermolecular_energy": -10.399, "internal_energy": -1.635}

$$$$
LIB_WNRYFPGBHSMMSQ__M_PUB_ALL__e8__s20260927
     RDKit          3D

 65 66  0  0  0  0  0  0  0  0999 V2000
   -1.3760  -11.1480    3.3960 C   0  0  0  0  0  0  0  0  0  0  0  0
   -1.7670   -9.7190    3.0530 C   0  0  0  0  0  0  0  0  0  0  0  0
   -1.4850   -9.3440    1.5960 C   0  0  0  0  0  0  0  0  0  0  0  0
    0.0090   -9.2370    1.2790 C   0  0  0  0  0  0  0  0  0  0  0  0
    0.4000   -9.9230   -0.0350 C   0  0  0  0  0  0  0  0  0  0  0  0
    1.2750  -11.1730    0.1040 C   0  0  0  0  0  0  0  0  0  0  0  0
    0.5400  -12.5120   -0.0030 C   0  0  0  0  0  0  0  0  0  0  0  0
    1.4740  -13.7190    0.0360 C   0  0  0  0  0  0  0  0  0  0  0  0
    1.5430  -14.3040    1.3600 N   0  0  0  0  0  0  0  0  0  0  0  0
    0.8200  -13.9680    2.4660 C   0  0  0  0  0  0  0  0  0  0  0  0
    1.2710  -14.8360    3.4350 C   0  0  0  0  0  0  0  0  0  0  0  0
    0.8610  -14.9620    4.8590 C   0  0  0  0  0  0  0  0  0  0  0  0
   -0.6140  -15.3460    5.0360 C   0  0  0  0  0  0  0  0  0  0  0  0
   -0.8200  -16.8590    5.0420 C   0  0  0  0  0  0  0  0  0  0  0  0
   -1.5970  -17.3050    3.8440 N   0  0  0  0  0  0  0  0  0  0  0  0
   -1.4140  -16.5810    2.5240 C   0  0  1  0  0  0  0  0  0  0  0  0
   -0.7270  -17.5650    1.5650 C   0  0  2  0  0  0  0  0  0  0  0  0
    0.4790  -18.0220    2.1880 O   0  0  0  0  0  0  0  0  0  0  0  0
   -0.4340  -16.8980    0.2160 C   0  0  1  0  0  0  0  0  0  0  0  0
    0.1690  -17.8810   -0.6300 O   0  0  0  0  0  0  0  0  0  0  0  0
   -1.7340  -16.3800   -0.4140 C   0  0  2  0  0  0  0  0  0  0  0  0
   -1.4320  -15.6530   -1.6080 O   0  0  0  0  0  0  0  0  0  0  0  0
   -2.4720  -15.4380    0.5460 C   0  0  1  0  0  0  0  0  0  0  0  0
   -3.7410  -15.0730   -0.0070 O   0  0  0  0  0  0  0  0  0  0  0  0
   -2.7330  -16.0830    1.9180 C   0  0  2  0  0  0  0  0  0  0  0  0
   -3.3410  -15.1100    2.7720 O   0  0  0  0  0  0  0  0  0  0  0  0
    2.2360  -15.6450    2.8920 N   0  0  0  0  0  0  0  0  0  0  0  0
    2.4070  -15.2990    1.6260 N   0  0  0  0  0  0  0  0  0  0  0  0
   -1.3435  -11.2669    4.4891 H   0  0  0  0  0  0  0  0  0  0  0  0
   -2.1172  -11.8424    2.9735 H   0  0  0  0  0  0  0  0  0  0  0  0
   -0.3846  -11.3683    2.9735 H   0  0  0  0  0  0  0  0  0  0  0  0
   -2.8438   -9.5973    3.2421 H   0  0  0  0  0  0  0  0  0  0  0  0
   -1.1563   -9.0554    3.6829 H   0  0  0  0  0  0  0  0  0  0  0  0
   -1.9262  -10.1134    0.9453 H   0  0  0  0  0  0  0  0  0  0  0  0
   -1.9279   -8.3522    1.4222 H   0  0  0  0  0  0  0  0  0  0  0  0
    0.2760   -8.1721    1.2100 H   0  0  0  0  0  0  0  0  0  0  0  0
    0.5514   -9.7484    2.0879 H   0  0  0  0  0  0  0  0  0  0  0  0
   -0.5257  -10.2141   -0.5530 H   0  0  0  0  0  0  0  0  0  0  0  0
    1.0079   -9.1908   -0.5867 H   0  0  0  0  0  0  0  0  0  0  0  0
    2.0377  -11.1417   -0.6880 H   0  0  0  0  0  0  0  0  0  0  0  0
    1.6888  -11.1381    1.1226 H   0  0  0  0  0  0  0  0  0  0  0  0
   -0.1667  -12.5903    0.8363 H   0  0  0  0  0  0  0  0  0  0  0  0
    0.0299  -12.5264   -0.9775 H   0  0  0  0  0  0  0  0  0  0  0  0
    1.1048  -14.4778   -0.6696 H   0  0  0  0  0  0  0  0  0  0  0  0
    2.4830  -13.3794   -0.2405 H   0  0  0  0  0  0  0  0  0  0  0  0
    0.0537  -13.1847    2.5620 H   0  0  0  0  0  0  0  0  0  0  0  0
    1.4823  -15.7357    5.3337 H   0  0  0  0  0  0  0  0  0  0  0  0
    0.9982  -13.9752    5.3253 H   0  0  0  0  0  0  0  0  0  0  0  0
   -0.9746  -14.9357    5.9908 H   0  0  0  0  0  0  0  0  0  0  0  0
   -1.1748  -14.9325    4.1849 H   0  0  0  0  0  0  0  0  0  0  0  0
    0.1620  -17.3546    5.0374 H   0  0  0  0  0  0  0  0  0  0  0  0
   -1.3872  -17.1292    5.9449 H   0  0  0  0  0  0  0  0  0  0  0  0
   -1.3460  -18.2940    3.6540 H   0  0  0  0  0  0  0  0  0  0  0  0
   -2.5900  -17.3380    4.1010 H   0  0  0  0  0  0  0  0  0  0  0  0
   -0.8079  -15.6788    2.6932 H   0  0  0  0  0  0  0  0  0  0  0  0
   -1.3890  -18.4198    1.3624 H   0  0  0  0  0  0  0  0  0  0  0  0
    0.6610  -17.3930    2.9200 H   0  0  0  0  0  0  0  0  0  0  0  0
    0.2405  -16.0394    0.3496 H   0  0  0  0  0  0  0  0  0  0  0  0
    1.0690  -18.0480   -0.2870 H   0  0  0  0  0  0  0  0  0  0  0  0
   -2.3722  -17.2478   -0.6367 H   0  0  0  0  0  0  0  0  0  0  0  0
   -1.5020  -16.2700   -2.3620 H   0  0  0  0  0  0  0  0  0  0  0  0
   -1.8233  -14.5600    0.6816 H   0  0  0  0  0  0  0  0  0  0  0  0
   -4.3740  -15.7660    0.2790 H   0  0  0  0  0  0  0  0  0  0  0  0
   -3.4057  -16.9461    1.8065 H   0  0  0  0  0  0  0  0  0  0  0  0
   -4.1890  -14.8680    2.3370 H   0  0  0  0  0  0  0  0  0  0  0  0
  1  2  1  0
  2  3  1  0
  3  4  1  0
  4  5  1  0
  5  6  1  0
  6  7  1  0
  7  8  1  0
  8  9  1  0
  9 10  1  0
 10 11  2  0
 11 12  1  0
 12 13  1  0
 13 14  1  0
 14 15  1  0
 15 16  1  0
 16 17  1  0
 17 18  1  0
 17 19  1  0
 19 20  1  0
 19 21  1  0
 21 22  1  0
 21 23  1  0
 23 24  1  0
 23 25  1  0
 25 26  1  0
 11 27  1  0
 27 28  2  0
 28  9  1  0
 25 16  1  0
  1 29  1  0
  1 30  1  0
  1 31  1  0
  2 32  1  0
  2 33  1  0
  3 34  1  0
  3 35  1  0
  4 36  1  0
  4 37  1  0
  5 38  1  0
  5 39  1  0
  6 40  1  0
  6 41  1  0
  7 42  1  0
  7 43  1  0
  8 44  1  0
  8 45  1  0
 10 46  1  0
 12 47  1  0
 12 48  1  0
 13 49  1  0
 13 50  1  0
 14 51  1  0
 14 52  1  0
 15 53  1  0
 15 54  1  0
 16 55  1  1
 17 56  1  6
 18 57  1  0
 19 58  1  1
 20 59  1  0
 21 60  1  6
 22 61  1  0
 23 62  1  1
 24 63  1  0
 25 64  1  6
 26 65  1  0
M  CHG  1  15   1
M  END
>  <meeko>  (6) 
{"is_sidechain": [false], "free_energy": -5.719, "intermolecular_energy": -9.939, "internal_energy": -2.087}

$$$$
LIB_WNRYFPGBHSMMSQ__M_PUB_ALL__e8__s20260927
     RDKit          3D

 65 66  0  0  0  0  0  0  0  0999 V2000
   -2.7190  -10.2330    0.3090 C   0  0  0  0  0  0  0  0  0  0  0  0
   -2.5170   -9.2290    1.4340 C   0  0  0  0  0  0  0  0  0  0  0  0
   -1.1390   -9.3210    2.0920 C   0  0  0  0  0  0  0  0  0  0  0  0
    0.0130   -9.3200    1.0830 C   0  0  0  0  0  0  0  0  0  0  0  0
    0.6490  -10.7000    0.8880 C   0  0  0  0  0  0  0  0  0  0  0  0
    1.1460  -11.0070   -0.5290 C   0  0  0  0  0  0  0  0  0  0  0  0
    1.6460  -12.4350   -0.7610 C   0  0  0  0  0  0  0  0  0  0  0  0
    2.9080  -12.7700    0.0310 C   0  0  0  0  0  0  0  0  0  0  0  0
    4.1100  -12.4550   -0.7130 N   0  0  0  0  0  0  0  0  0  0  0  0
    4.2710  -12.3980   -2.0660 C   0  0  0  0  0  0  0  0  0  0  0  0
    5.5920  -12.0470   -2.2300 C   0  0  0  0  0  0  0  0  0  0  0  0
    6.3660  -11.8280   -3.4810 C   0  0  0  0  0  0  0  0  0  0  0  0
    7.8850  -11.8750   -3.2740 C   0  0  0  0  0  0  0  0  0  0  0  0
    8.4850  -13.2120   -3.7000 C   0  0  0  0  0  0  0  0  0  0  0  0
    9.4640  -13.7150   -2.6860 N   0  0  0  0  0  0  0  0  0  0  0  0
   10.3720  -12.7310   -1.9740 C   0  0  1  0  0  0  0  0  0  0  0  0
   10.3750  -13.1200   -0.4880 C   0  0  2  0  0  0  0  0  0  0  0  0
    9.0160  -13.1440   -0.0330 O   0  0  0  0  0  0  0  0  0  0  0  0
   11.2150  -12.1350    0.3330 C   0  0  1  0  0  0  0  0  0  0  0  0
   11.1990  -12.5800    1.6910 O   0  0  0  0  0  0  0  0  0  0  0  0
   12.6540  -12.0950   -0.1960 C   0  0  2  0  0  0  0  0  0  0  0  0
   13.3930  -11.0840    0.4950 O   0  0  0  0  0  0  0  0  0  0  0  0
   12.6790  -11.7650   -1.6950 C   0  0  1  0  0  0  0  0  0  0  0  0
   14.0170  -11.8640   -2.1950 O   0  0  0  0  0  0  0  0  0  0  0  0
   11.8040  -12.7220   -2.5220 C   0  0  2  0  0  0  0  0  0  0  0  0
   11.8160  -12.2890   -3.8860 O   0  0  0  0  0  0  0  0  0  0  0  0
    6.1730  -11.9130   -0.9940 N   0  0  0  0  0  0  0  0  0  0  0  0
    5.2610  -12.1820   -0.0730 N   0  0  0  0  0  0  0  0  0  0  0  0
   -2.9190  -11.2268    0.7360 H   0  0  0  0  0  0  0  0  0  0  0  0
   -3.5726   -9.9219   -0.3112 H   0  0  0  0  0  0  0  0  0  0  0  0
   -1.8116  -10.2762   -0.3112 H   0  0  0  0  0  0  0  0  0  0  0  0
   -2.6401   -8.2160    1.0232 H   0  0  0  0  0  0  0  0  0  0  0  0
   -3.2626   -9.4572    2.2099 H   0  0  0  0  0  0  0  0  0  0  0  0
   -1.0149   -8.4599    2.7651 H   0  0  0  0  0  0  0  0  0  0  0  0
   -1.0985  -10.2778    2.6331 H   0  0  0  0  0  0  0  0  0  0  0  0
   -0.3728   -8.9731    0.1130 H   0  0  0  0  0  0  0  0  0  0  0  0
    0.7937   -8.6547    1.4805 H   0  0  0  0  0  0  0  0  0  0  0  0
    1.5075  -10.7764    1.5715 H   0  0  0  0  0  0  0  0  0  0  0  0
   -0.1485  -11.4298    1.0914 H   0  0  0  0  0  0  0  0  0  0  0  0
    0.3155  -10.8220   -1.2262 H   0  0  0  0  0  0  0  0  0  0  0  0
    2.0165  -10.3541   -0.6900 H   0  0  0  0  0  0  0  0  0  0  0  0
    0.8515  -13.1355   -0.4643 H   0  0  0  0  0  0  0  0  0  0  0  0
    1.8986  -12.5221   -1.8280 H   0  0  0  0  0  0  0  0  0  0  0  0
    2.9059  -12.1904    0.9659 H   0  0  0  0  0  0  0  0  0  0  0  0
    2.9062  -13.8508    0.2356 H   0  0  0  0  0  0  0  0  0  0  0  0
    3.5191  -12.5885   -2.8460 H   0  0  0  0  0  0  0  0  0  0  0  0
    6.0884  -12.6092   -4.2040 H   0  0  0  0  0  0  0  0  0  0  0  0
    6.1188  -10.8192   -3.8432 H   0  0  0  0  0  0  0  0  0  0  0  0
    8.3482  -11.0736   -3.8683 H   0  0  0  0  0  0  0  0  0  0  0  0
    8.0832  -11.7434   -2.2000 H   0  0  0  0  0  0  0  0  0  0  0  0
    7.6757  -13.9484   -3.8131 H   0  0  0  0  0  0  0  0  0  0  0  0
    9.0148  -13.0675   -4.6531 H   0  0  0  0  0  0  0  0  0  0  0  0
    8.9270  -14.1910   -1.9360 H   0  0  0  0  0  0  0  0  0  0  0  0
   10.0160  -14.4650   -3.1200 H   0  0  0  0  0  0  0  0  0  0  0  0
    9.9888  -11.7123   -2.1337 H   0  0  0  0  0  0  0  0  0  0  0  0
   10.8294  -14.1134   -0.3587 H   0  0  0  0  0  0  0  0  0  0  0  0
    8.7370  -14.0860   -0.0630 H   0  0  0  0  0  0  0  0  0  0  0  0
   10.8000  -11.1192    0.2567 H   0  0  0  0  0  0  0  0  0  0  0  0
   10.5550  -13.3140    1.7510 H   0  0  0  0  0  0  0  0  0  0  0  0
   13.1024  -13.0860   -0.0318 H   0  0  0  0  0  0  0  0  0  0  0  0
   13.2620  -10.2400    0.0210 H   0  0  0  0  0  0  0  0  0  0  0  0
   12.2851  -10.7429   -1.7960 H   0  0  0  0  0  0  0  0  0  0  0  0
   14.1620  -12.8100   -2.4050 H   0  0  0  0  0  0  0  0  0  0  0  0
   12.2013  -13.7457   -2.4574 H   0  0  0  0  0  0  0  0  0  0  0  0
   11.2900  -11.4580   -3.9040 H   0  0  0  0  0  0  0  0  0  0  0  0
  1  2  1  0
  2  3  1  0
  3  4  1  0
  4  5  1  0
  5  6  1  0
  6  7  1  0
  7  8  1  0
  8  9  1  0
  9 10  1  0
 10 11  2  0
 11 12  1  0
 12 13  1  0
 13 14  1  0
 14 15  1  0
 15 16  1  0
 16 17  1  0
 17 18  1  0
 17 19  1  0
 19 20  1  0
 19 21  1  0
 21 22  1  0
 21 23  1  0
 23 24  1  0
 23 25  1  0
 25 26  1  0
 11 27  1  0
 27 28  2  0
 28  9  1  0
 25 16  1  0
  1 29  1  0
  1 30  1  0
  1 31  1  0
  2 32  1  0
  2 33  1  0
  3 34  1  0
  3 35  1  0
  4 36  1  0
  4 37  1  0
  5 38  1  0
  5 39  1  0
  6 40  1  0
  6 41  1  0
  7 42  1  0
  7 43  1  0
  8 44  1  0
  8 45  1  0
 10 46  1  0
 12 47  1  0
 12 48  1  0
 13 49  1  0
 13 50  1  0
 14 51  1  0
 14 52  1  0
 15 53  1  0
 15 54  1  0
 16 55  1  1
 17 56  1  6
 18 57  1  0
 19 58  1  1
 20 59  1  0
 21 60  1  6
 22 61  1  0
 23 62  1  1
 24 63  1  0
 25 64  1  6
 26 65  1  0
M  CHG  1  15   1
M  END
>  <meeko>  (7) 
{"is_sidechain": [false], "free_energy": -5.679, "intermolecular_energy": -10.898, "internal_energy": -1.054}

$$$$
LIB_WNRYFPGBHSMMSQ__M_PUB_ALL__e8__s20260927
     RDKit          3D

 65 66  0  0  0  0  0  0  0  0999 V2000
    9.2570   -3.2830  -12.9100 C   0  0  0  0  0  0  0  0  0  0  0  0
   10.4440   -2.3850  -13.2240 C   0  0  0  0  0  0  0  0  0  0  0  0
   11.7840   -2.9630  -12.7650 C   0  0  0  0  0  0  0  0  0  0  0  0
   12.5630   -3.6480  -13.8910 C   0  0  0  0  0  0  0  0  0  0  0  0
   12.7670   -5.1490  -13.6620 C   0  0  0  0  0  0  0  0  0  0  0  0
   12.0370   -5.7400  -12.4510 C   0  0  0  0  0  0  0  0  0  0  0  0
   11.6490   -7.2160  -12.5660 C   0  0  0  0  0  0  0  0  0  0  0  0
   11.3030   -7.8570  -11.2240 C   0  0  0  0  0  0  0  0  0  0  0  0
   10.7210   -9.1730  -11.3900 N   0  0  0  0  0  0  0  0  0  0  0  0
    9.4030   -9.5010  -11.5070 C   0  0  0  0  0  0  0  0  0  0  0  0
    9.4120  -10.8710  -11.6510 C   0  0  0  0  0  0  0  0  0  0  0  0
    8.2730  -11.8130  -11.8220 C   0  0  0  0  0  0  0  0  0  0  0  0
    7.7630  -12.3980  -10.5000 C   0  0  0  0  0  0  0  0  0  0  0  0
    7.3270  -13.8540  -10.6430 C   0  0  0  0  0  0  0  0  0  0  0  0
    8.2980  -14.7800   -9.9820 N   0  0  0  0  0  0  0  0  0  0  0  0
    9.6140  -14.2320   -9.4630 C   0  0  1  0  0  0  0  0  0  0  0  0
    9.7200  -14.6450   -7.9870 C   0  0  2  0  0  0  0  0  0  0  0  0
    8.5480  -14.1740   -7.3100 O   0  0  0  0  0  0  0  0  0  0  0  0
   10.9920  -14.0760   -7.3500 C   0  0  1  0  0  0  0  0  0  0  0  0
   11.0380  -14.5290   -5.9950 O   0  0  0  0  0  0  0  0  0  0  0  0
   12.2310  -14.5600   -8.1140 C   0  0  2  0  0  0  0  0  0  0  0  0
   13.3990  -13.9230   -7.5890 O   0  0  0  0  0  0  0  0  0  0  0  0
   12.1280  -14.2110   -9.6050 C   0  0  1  0  0  0  0  0  0  0  0  0
   13.2270  -14.7870  -10.3190 O   0  0  0  0  0  0  0  0  0  0  0  0
   10.8330  -14.7420  -10.2440 C   0  0  2  0  0  0  0  0  0  0  0  0
   10.7780  -14.2980  -11.6030 O   0  0  0  0  0  0  0  0  0  0  0  0
   10.7100  -11.3130  -11.6110 N   0  0  0  0  0  0  0  0  0  0  0  0
   11.5020  -10.2680  -11.4330 N   0  0  0  0  0  0  0  0  0  0  0  0
    9.1416   -3.3703  -11.8196 H   0  0  0  0  0  0  0  0  0  0  0  0
    8.3436   -2.8478  -13.3417 H   0  0  0  0  0  0  0  0  0  0  0  0
    9.4274   -4.2803  -13.3417 H   0  0  0  0  0  0  0  0  0  0  0  0
   10.4857   -2.2307  -14.3123 H   0  0  0  0  0  0  0  0  0  0  0  0
   10.2922   -1.4439  -12.6751 H   0  0  0  0  0  0  0  0  0  0  0  0
   12.3985   -2.1441  -12.3627 H   0  0  0  0  0  0  0  0  0  0  0  0
   11.5668   -3.7283  -12.0054 H   0  0  0  0  0  0  0  0  0  0  0  0
   12.0098   -3.5105  -14.8318 H   0  0  0  0  0  0  0  0  0  0  0  0
   13.5605   -3.1855  -13.9247 H   0  0  0  0  0  0  0  0  0  0  0  0
   12.4166   -5.6789  -14.5600 H   0  0  0  0  0  0  0  0  0  0  0  0
   13.8402   -5.2790  -13.4589 H   0  0  0  0  0  0  0  0  0  0  0  0
   12.6924   -5.6300  -11.5744 H   0  0  0  0  0  0  0  0  0  0  0  0
   11.0900   -5.1861  -12.3718 H   0  0  0  0  0  0  0  0  0  0  0  0
   10.7734   -7.2961  -13.2270 H   0  0  0  0  0  0  0  0  0  0  0  0
   12.5222   -7.7516  -12.9669 H   0  0  0  0  0  0  0  0  0  0  0  0
   12.2213   -7.9469  -10.6252 H   0  0  0  0  0  0  0  0  0  0  0  0
   10.5633   -7.2173  -10.7204 H   0  0  0  0  0  0  0  0  0  0  0  0
    8.5334   -8.8275  -11.4903 H   0  0  0  0  0  0  0  0  0  0  0  0
    7.4454  -11.2750  -12.3075 H   0  0  0  0  0  0  0  0  0  0  0  0
    8.6359  -12.6542  -12.4308 H   0  0  0  0  0  0  0  0  0  0  0  0
    8.5689  -12.3414   -9.7534 H   0  0  0  0  0  0  0  0  0  0  0  0
    6.8858  -11.8122  -10.1880 H   0  0  0  0  0  0  0  0  0  0  0  0
    6.3385  -13.9793  -10.1771 H   0  0  0  0  0  0  0  0  0  0  0  0
    7.2867  -14.1005  -11.7143 H   0  0  0  0  0  0  0  0  0  0  0  0
    7.8270  -15.1970   -9.1570 H   0  0  0  0  0  0  0  0  0  0  0  0
    8.4630  -15.5730  -10.6120 H   0  0  0  0  0  0  0  0  0  0  0  0
    9.6189  -13.1391   -9.5877 H   0  0  0  0  0  0  0  0  0  0  0  0
    9.7840  -15.7401   -7.9050 H   0  0  0  0  0  0  0  0  0  0  0  0
    8.2550  -13.3730   -7.8000 H   0  0  0  0  0  0  0  0  0  0  0  0
   10.9814  -12.9767   -7.3874 H   0  0  0  0  0  0  0  0  0  0  0  0
   10.6190  -15.4120   -5.9680 H   0  0  0  0  0  0  0  0  0  0  0  0
   12.2953  -15.6518   -7.9965 H   0  0  0  0  0  0  0  0  0  0  0  0
   13.2260  -13.7040   -6.6530 H   0  0  0  0  0  0  0  0  0  0  0  0
   12.1357  -13.1129   -9.6697 H   0  0  0  0  0  0  0  0  0  0  0  0
   12.8390  -15.4400  -10.9400 H   0  0  0  0  0  0  0  0  0  0  0  0
   10.8229  -15.8416  -10.2154 H   0  0  0  0  0  0  0  0  0  0  0  0
   11.6230  -14.5890  -12.0110 H   0  0  0  0  0  0  0  0  0  0  0  0
  1  2  1  0
  2  3  1  0
  3  4  1  0
  4  5  1  0
  5  6  1  0
  6  7  1  0
  7  8  1  0
  8  9  1  0
  9 10  1  0
 10 11  2  0
 11 12  1  0
 12 13  1  0
 13 14  1  0
 14 15  1  0
 15 16  1  0
 16 17  1  0
 17 18  1  0
 17 19  1  0
 19 20  1  0
 19 21  1  0
 21 22  1  0
 21 23  1  0
 23 24  1  0
 23 25  1  0
 25 26  1  0
 11 27  1  0
 27 28  2  0
 28  9  1  0
 25 16  1  0
  1 29  1  0
  1 30  1  0
  1 31  1  0
  2 32  1  0
  2 33  1  0
  3 34  1  0
  3 35  1  0
  4 36  1  0
  4 37  1  0
  5 38  1  0
  5 39  1  0
  6 40  1  0
  6 41  1  0
  7 42  1  0
  7 43  1  0
  8 44  1  0
  8 45  1  0
 10 46  1  0
 12 47  1  0
 12 48  1  0
 13 49  1  0
 13 50  1  0
 14 51  1  0
 14 52  1  0
 15 53  1  0
 15 54  1  0
 16 55  1  1
 17 56  1  6
 18 57  1  0
 19 58  1  1
 20 59  1  0
 21 60  1  6
 22 61  1  0
 23 62  1  1
 24 63  1  0
 25 64  1  6
 26 65  1  0
M  CHG  1  15   1
M  END
>  <meeko>  (8) 
{"is_sidechain": [false], "free_energy": -5.672, "intermolecular_energy": -10.424, "internal_energy": -1.515}

$$$$
LIB_WNRYFPGBHSMMSQ__M_PUB_ALL__e8__s20260927
     RDKit          3D

 65 66  0  0  0  0  0  0  0  0999 V2000
    4.4820  -15.9800    0.7600 C   0  0  0  0  0  0  0  0  0  0  0  0
    3.2130  -15.3610    0.1940 C   0  0  0  0  0  0  0  0  0  0  0  0
    2.7590  -15.9980   -1.1210 C   0  0  0  0  0  0  0  0  0  0  0  0
    1.3100  -15.6640   -1.4840 C   0  0  0  0  0  0  0  0  0  0  0  0
    1.1580  -14.3080   -2.1820 C   0  0  0  0  0  0  0  0  0  0  0  0
    1.4570  -14.2980   -3.6850 C   0  0  0  0  0  0  0  0  0  0  0  0
    2.5140  -13.2910   -4.1440 C   0  0  0  0  0  0  0  0  0  0  0  0
    3.9200  -13.8830   -4.2180 C   0  0  0  0  0  0  0  0  0  0  0  0
    4.6880  -13.5980   -3.0230 N   0  0  0  0  0  0  0  0  0  0  0  0
    4.5080  -12.5820   -2.1310 C   0  0  0  0  0  0  0  0  0  0  0  0
    5.4950  -12.7850   -1.1920 C   0  0  0  0  0  0  0  0  0  0  0  0
    5.8120  -12.0040    0.0330 C   0  0  0  0  0  0  0  0  0  0  0  0
    7.0390  -11.0970   -0.1240 C   0  0  0  0  0  0  0  0  0  0  0  0
    8.2330  -11.5950    0.6850 C   0  0  0  0  0  0  0  0  0  0  0  0
    8.6510  -12.9640    0.2490 N   0  0  0  0  0  0  0  0  0  0  0  0
   10.0200  -13.1630   -0.3720 C   0  0  1  0  0  0  0  0  0  0  0  0
    9.9130  -12.7250   -1.8410 C   0  0  2  0  0  0  0  0  0  0  0  0
    8.8490  -13.4670   -2.4480 O   0  0  0  0  0  0  0  0  0  0  0  0
   11.2370  -12.9560   -2.5770 C   0  0  1  0  0  0  0  0  0  0  0  0
   11.0710  -12.4950   -3.9200 O   0  0  0  0  0  0  0  0  0  0  0  0
   12.3700  -12.1850   -1.8870 C   0  0  2  0  0  0  0  0  0  0  0  0
   13.6180  -12.5070   -2.5070 O   0  0  0  0  0  0  0  0  0  0  0  0
   12.4640  -12.5600   -0.4020 C   0  0  1  0  0  0  0  0  0  0  0  0
   13.4360  -11.7350    0.2500 O   0  0  0  0  0  0  0  0  0  0  0  0
   11.1280  -12.3730    0.3370 C   0  0  2  0  0  0  0  0  0  0  0  0
   11.2830  -12.8270    1.6850 O   0  0  0  0  0  0  0  0  0  0  0  0
    6.2240  -13.8920   -1.5470 N   0  0  0  0  0  0  0  0  0  0  0  0
    5.7330  -14.3700   -2.6780 N   0  0  0  0  0  0  0  0  0  0  0  0
    4.4411  -15.9600    1.8591 H   0  0  0  0  0  0  0  0  0  0  0  0
    4.5675  -17.0210    0.4151 H   0  0  0  0  0  0  0  0  0  0  0  0
    5.3551  -15.4066    0.4151 H   0  0  0  0  0  0  0  0  0  0  0  0
    2.4079  -15.4784    0.9343 H   0  0  0  0  0  0  0  0  0  0  0  0
    3.4339  -14.3043   -0.0169 H   0  0  0  0  0  0  0  0  0  0  0  0
    3.4136  -15.6378   -1.9283 H   0  0  0  0  0  0  0  0  0  0  0  0
    2.8212  -17.0889   -0.9944 H   0  0  0  0  0  0  0  0  0  0  0  0
    0.9287  -16.4473   -2.1556 H   0  0  0  0  0  0  0  0  0  0  0  0
    0.7417  -15.6123   -0.5436 H   0  0  0  0  0  0  0  0  0  0  0  0
    0.1208  -13.9697   -2.0413 H   0  0  0  0  0  0  0  0  0  0  0  0
    1.9083  -13.6479   -1.7222 H   0  0  0  0  0  0  0  0  0  0  0  0
    1.8025  -15.3033   -3.9677 H   0  0  0  0  0  0  0  0  0  0  0  0
    0.5203  -13.9944   -4.1753 H   0  0  0  0  0  0  0  0  0  0  0  0
    2.2364  -12.9244   -5.1433 H   0  0  0  0  0  0  0  0  0  0  0  0
    2.5395  -12.4826   -3.3985 H   0  0  0  0  0  0  0  0  0  0  0  0
    3.8411  -14.9735   -4.3388 H   0  0  0  0  0  0  0  0  0  0  0  0
    4.4383  -13.4265   -5.0742 H   0  0  0  0  0  0  0  0  0  0  0  0
    3.7501  -11.7851   -2.1558 H   0  0  0  0  0  0  0  0  0  0  0  0
    4.9435  -11.3760    0.2808 H   0  0  0  0  0  0  0  0  0  0  0  0
    6.0423  -12.7274    0.8290 H   0  0  0  0  0  0  0  0  0  0  0  0
    7.3207  -11.0635   -1.1868 H   0  0  0  0  0  0  0  0  0  0  0  0
    6.7703  -10.0986    0.2514 H   0  0  0  0  0  0  0  0  0  0  0  0
    9.0752  -10.9014    0.5450 H   0  0  0  0  0  0  0  0  0  0  0  0
    7.9400  -11.6419    1.7442 H   0  0  0  0  0  0  0  0  0  0  0  0
    8.6320  -13.5810    1.0830 H   0  0  0  0  0  0  0  0  0  0  0  0
    7.9200  -13.3410   -0.3650 H   0  0  0  0  0  0  0  0  0  0  0  0
   10.3045  -14.2212   -0.2761 H   0  0  0  0  0  0  0  0  0  0  0  0
    9.6976  -11.6479   -1.8995 H   0  0  0  0  0  0  0  0  0  0  0  0
    8.3150  -12.8130   -2.9510 H   0  0  0  0  0  0  0  0  0  0  0  0
   11.5015  -14.0237   -2.5667 H   0  0  0  0  0  0  0  0  0  0  0  0
   11.8960  -12.0360   -4.1760 H   0  0  0  0  0  0  0  0  0  0  0  0
   12.1540  -11.1105   -1.9805 H   0  0  0  0  0  0  0  0  0  0  0  0
   13.4320  -13.0740   -3.2800 H   0  0  0  0  0  0  0  0  0  0  0  0
   12.7471  -13.6223   -0.3659 H   0  0  0  0  0  0  0  0  0  0  0  0
   14.0280  -12.3440    0.7400 H   0  0  0  0  0  0  0  0  0  0  0  0
   10.8441  -11.3103    0.3374 H   0  0  0  0  0  0  0  0  0  0  0  0
   10.4330  -13.2630    1.9170 H   0  0  0  0  0  0  0  0  0  0  0  0
  1  2  1  0
  2  3  1  0
  3  4  1  0
  4  5  1  0
  5  6  1  0
  6  7  1  0
  7  8  1  0
  8  9  1  0
  9 10  1  0
 10 11  2  0
 11 12  1  0
 12 13  1  0
 13 14  1  0
 14 15  1  0
 15 16  1  0
 16 17  1  0
 17 18  1  0
 17 19  1  0
 19 20  1  0
 19 21  1  0
 21 22  1  0
 21 23  1  0
 23 24  1  0
 23 25  1  0
 25 26  1  0
 11 27  1  0
 27 28  2  0
 28  9  1  0
 25 16  1  0
  1 29  1  0
  1 30  1  0
  1 31  1  0
  2 32  1  0
  2 33  1  0
  3 34  1  0
  3 35  1  0
  4 36  1  0
  4 37  1  0
  5 38  1  0
  5 39  1  0
  6 40  1  0
  6 41  1  0
  7 42  1  0
  7 43  1  0
  8 44  1  0
  8 45  1  0
 10 46  1  0
 12 47  1  0
 12 48  1  0
 13 49  1  0
 13 50  1  0
 14 51  1  0
 14 52  1  0
 15 53  1  0
 15 54  1  0
 16 55  1  6
 17 56  1  1
 18 57  1  0
 19 58  1  6
 20 59  1  0
 21 60  1  1
 22 61  1  0
 23 62  1  6
 24 63  1  0
 25 64  1  1
 26 65  1  0
M  CHG  1  15   1
M  END
>  <meeko>  (9) 
{"is_sidechain": [false], "free_energy": -5.627, "intermolecular_energy": -9.635, "internal_energy": -2.221}

$$$$
