LIB_APHXKHUFVKITGC__M_PUB_ALL__e8__s20260927
     RDKit          3D

 56 60  0  0  0  0  0  0  0  0999 V2000
    3.1630  -12.0210   -4.6490 O   0  0  0  0  0  0  0  0  0  0  0  0
    3.2680  -12.4340   -3.5100 C   0  0  0  0  0  0  0  0  0  0  0  0
    2.4130  -11.9910   -2.3800 C   0  0  0  0  0  0  0  0  0  0  0  0
    1.8470  -10.7140   -2.3220 C   0  0  0  0  0  0  0  0  0  0  0  0
    1.0510  -10.3570   -1.2250 C   0  0  0  0  0  0  0  0  0  0  0  0
    0.8000  -11.2590   -0.1780 C   0  0  0  0  0  0  0  0  0  0  0  0
   -0.0420  -10.8740    0.9670 C   0  0  0  0  0  0  0  0  0  0  0  0
   -0.4230  -11.8200    1.9340 C   0  0  0  0  0  0  0  0  0  0  0  0
   -1.2230  -11.4550    3.0200 C   0  0  0  0  0  0  0  0  0  0  0  0
   -1.6550  -10.1400    3.1580 C   0  0  0  0  0  0  0  0  0  0  0  0
   -1.2880   -9.1860    2.2120 C   0  0  0  0  0  0  0  0  0  0  0  0
   -0.4880   -9.5510    1.1250 C   0  0  0  0  0  0  0  0  0  0  0  0
    1.3680  -12.5390   -0.2610 C   0  0  0  0  0  0  0  0  0  0  0  0
    2.1640  -12.9060   -1.3500 C   0  0  0  0  0  0  0  0  0  0  0  0
    4.3470  -13.4340   -3.3700 N   0  0  0  0  0  0  0  0  0  0  0  0
    5.4070  -12.9690   -2.3950 C   0  0  0  0  0  0  0  0  0  0  0  0
    6.3850  -11.9320   -3.0130 C   0  0  0  0  0  0  0  0  0  0  0  0
    6.9380  -12.3530   -4.3620 N   0  0  0  0  0  0  0  0  0  0  0  0
    8.0150  -13.3550   -4.2190 C   0  0  0  0  0  0  0  0  0  0  0  0
    8.0290  -14.1540   -5.1370 O   0  0  0  0  0  0  0  0  0  0  0  0
    8.9560  -13.3840   -3.0710 C   0  0  0  0  0  0  0  0  0  0  0  0
    8.8310  -14.4470   -2.1680 C   0  0  0  0  0  0  0  0  0  0  0  0
    9.6730  -14.5420   -1.0560 C   0  0  0  0  0  0  0  0  0  0  0  0
   10.6580  -13.5610   -0.8520 C   0  0  0  0  0  0  0  0  0  0  0  0
   11.6490  -13.3620    0.1460 C   0  0  0  0  0  0  0  0  0  0  0  0
   12.3460  -12.2230   -0.1790 C   0  0  0  0  0  0  0  0  0  0  0  0
   11.8190  -11.7200   -1.3370 N   0  0  0  0  0  0  0  0  0  0  0  0
   10.7760  -12.5160   -1.7700 C   0  0  0  0  0  0  0  0  0  0  0  0
    9.9430  -12.3960   -2.8960 C   0  0  0  0  0  0  0  0  0  0  0  0
    5.8790  -12.8200   -5.3380 C   0  0  0  0  0  0  0  0  0  0  0  0
    4.9000  -13.8570   -4.7210 C   0  0  0  0  0  0  0  0  0  0  0  0
    2.0255   -9.9930   -3.1333 H   0  0  0  0  0  0  0  0  0  0  0  0
    0.6134   -9.3487   -1.1831 H   0  0  0  0  0  0  0  0  0  0  0  0
   -0.0867  -12.8626    1.8346 H   0  0  0  0  0  0  0  0  0  0  0  0
   -1.5117  -12.2090    3.7671 H   0  0  0  0  0  0  0  0  0  0  0  0
   -2.2854   -9.8541    4.0129 H   0  0  0  0  0  0  0  0  0  0  0  0
   -1.6276   -8.1453    2.3201 H   0  0  0  0  0  0  0  0  0  0  0  0
   -0.2035   -8.7910    0.3824 H   0  0  0  0  0  0  0  0  0  0  0  0
    1.1840  -13.2658    0.5440 H   0  0  0  0  0  0  0  0  0  0  0  0
    2.5959  -13.9165   -1.3978 H   0  0  0  0  0  0  0  0  0  0  0  0
    3.9040  -14.2730   -2.9780 H   0  0  0  0  0  0  0  0  0  0  0  0
    4.9092  -12.5089   -1.5287 H   0  0  0  0  0  0  0  0  0  0  0  0
    5.9994  -13.8500   -2.1070 H   0  0  0  0  0  0  0  0  0  0  0  0
    5.8495  -10.9793   -3.1378 H   0  0  0  0  0  0  0  0  0  0  0  0
    7.2394  -11.8425   -2.3259 H   0  0  0  0  0  0  0  0  0  0  0  0
    7.3860  -11.5170   -4.7540 H   0  0  0  0  0  0  0  0  0  0  0  0
    8.0620  -15.2155   -2.3354 H   0  0  0  0  0  0  0  0  0  0  0  0
    9.5654  -15.3767   -0.3476 H   0  0  0  0  0  0  0  0  0  0  0  0
   11.8266  -14.0040    1.0214 H   0  0  0  0  0  0  0  0  0  0  0  0
   13.1813  -11.7914    0.3919 H   0  0  0  0  0  0  0  0  0  0  0  0
   12.1570  -10.8850   -1.7970 H   0  0  0  0  0  0  0  0  0  0  0  0
   10.0576  -11.5663   -3.6091 H   0  0  0  0  0  0  0  0  0  0  0  0
    5.2998  -11.9463   -5.6714 H   0  0  0  0  0  0  0  0  0  0  0  0
    6.3965  -13.3129   -6.1742 H   0  0  0  0  0  0  0  0  0  0  0  0
    4.0576  -13.9971   -5.4144 H   0  0  0  0  0  0  0  0  0  0  0  0
    5.4673  -14.7862   -4.5637 H   0  0  0  0  0  0  0  0  0  0  0  0
  1  2  2  0
  2  3  1  0
  3  4  2  0
  4  5  1  0
  5  6  2  0
  6  7  1  0
  7  8  2  0
  8  9  1  0
  9 10  2  0
 10 11  1  0
 11 12  2  0
  6 13  1  0
 13 14  2  0
  2 15  1  0
 15 16  1  0
 16 17  1  0
 17 18  1  0
 18 19  1  0
 19 20  2  0
 19 21  1  0
 21 22  2  0
 22 23  1  0
 23 24  2  0
 24 25  1  0
 25 26  2  0
 26 27  1  0
 27 28  1  0
 28 29  2  0
 18 30  1  0
 30 31  1  0
 14  3  1  0
 31 15  1  0
 12  7  1  0
 29 21  1  0
 28 24  1  0
  4 32  1  0
  5 33  1  0
  8 34  1  0
  9 35  1  0
 10 36  1  0
 11 37  1  0
 12 38  1  0
 13 39  1  0
 14 40  1  0
 15 41  1  0
 16 42  1  0
 16 43  1  0
 17 44  1  0
 17 45  1  0
 18 46  1  0
 22 47  1  0
 23 48  1  0
 25 49  1  0
 26 50  1  0
 27 51  1  0
 29 52  1  0
 30 53  1  0
 30 54  1  0
 31 55  1  0
 31 56  1  0
M  CHG  2  15   1  18   1
M  END
>  <meeko>  (1) 
{"is_sidechain": [false], "free_energy": -8.36, "intermolecular_energy": -10.803, "internal_energy": -0.373}

$$$$
LIB_APHXKHUFVKITGC__M_PUB_ALL__e8__s20260927
     RDKit          3D

 56 60  0  0  0  0  0  0  0  0999 V2000
    3.1930  -13.9720   -3.3210 O   0  0  0  0  0  0  0  0  0  0  0  0
    4.3310  -13.6080   -3.5490 C   0  0  0  0  0  0  0  0  0  0  0  0
    4.9300  -13.5440   -4.9050 C   0  0  0  0  0  0  0  0  0  0  0  0
    5.6580  -14.6040   -5.4560 C   0  0  0  0  0  0  0  0  0  0  0  0
    6.2010  -14.4790   -6.7420 C   0  0  0  0  0  0  0  0  0  0  0  0
    6.0250  -13.3100   -7.5000 C   0  0  0  0  0  0  0  0  0  0  0  0
    6.5950  -13.1910   -8.8520 C   0  0  0  0  0  0  0  0  0  0  0  0
    6.9270  -14.3330   -9.6000 C   0  0  0  0  0  0  0  0  0  0  0  0
    7.4700  -14.2210  -10.8830 C   0  0  0  0  0  0  0  0  0  0  0  0
    7.6890  -12.9650  -11.4400 C   0  0  0  0  0  0  0  0  0  0  0  0
    7.3670  -11.8200  -10.7170 C   0  0  0  0  0  0  0  0  0  0  0  0
    6.8250  -11.9320   -9.4330 C   0  0  0  0  0  0  0  0  0  0  0  0
    5.2820  -12.2630   -6.9350 C   0  0  0  0  0  0  0  0  0  0  0  0
    4.7360  -12.3760   -5.6520 C   0  0  0  0  0  0  0  0  0  0  0  0
    5.0590  -13.2290   -2.3200 N   0  0  0  0  0  0  0  0  0  0  0  0
    6.3690  -12.5440   -2.6440 C   0  0  0  0  0  0  0  0  0  0  0  0
    7.4880  -13.5400   -3.0560 C   0  0  0  0  0  0  0  0  0  0  0  0
    7.6310  -14.7140   -2.1040 N   0  0  0  0  0  0  0  0  0  0  0  0
    8.3570  -14.3320   -0.8750 C   0  0  0  0  0  0  0  0  0  0  0  0
    7.8000  -14.7240    0.1330 O   0  0  0  0  0  0  0  0  0  0  0  0
    9.6150  -13.5420   -0.8820 C   0  0  0  0  0  0  0  0  0  0  0  0
   10.5990  -13.9140   -1.8060 C   0  0  0  0  0  0  0  0  0  0  0  0
   11.8150  -13.2280   -1.8680 C   0  0  0  0  0  0  0  0  0  0  0  0
   12.0440  -12.1490   -0.9970 C   0  0  0  0  0  0  0  0  0  0  0  0
   13.1360  -11.2620   -0.8020 C   0  0  0  0  0  0  0  0  0  0  0  0
   12.7880  -10.3850    0.1970 C   0  0  0  0  0  0  0  0  0  0  0  0
   11.5250  -10.7010    0.6170 N   0  0  0  0  0  0  0  0  0  0  0  0
   11.0450  -11.7850   -0.0920 C   0  0  0  0  0  0  0  0  0  0  0  0
    9.8140  -12.4570   -0.0070 C   0  0  0  0  0  0  0  0  0  0  0  0
    6.3220  -15.4000   -1.7780 C   0  0  0  0  0  0  0  0  0  0  0  0
    5.2010  -14.4040   -1.3670 C   0  0  0  0  0  0  0  0  0  0  0  0
    5.8036  -15.5313   -4.8825 H   0  0  0  0  0  0  0  0  0  0  0  0
    6.7772  -15.3143   -7.1666 H   0  0  0  0  0  0  0  0  0  0  0  0
    6.7569  -15.3307   -9.1692 H   0  0  0  0  0  0  0  0  0  0  0  0
    7.7245  -15.1268  -11.4529 H   0  0  0  0  0  0  0  0  0  0  0  0
    8.1159  -12.8770  -12.4500 H   0  0  0  0  0  0  0  0  0  0  0  0
    7.5391  -10.8262  -11.1561 H   0  0  0  0  0  0  0  0  0  0  0  0
    6.5749  -11.0212   -8.8691 H   0  0  0  0  0  0  0  0  0  0  0  0
    5.1262  -11.3383   -7.5100 H   0  0  0  0  0  0  0  0  0  0  0  0
    4.1527  -11.5449   -5.2290 H   0  0  0  0  0  0  0  0  0  0  0  0
    4.4600  -12.5520   -1.8350 H   0  0  0  0  0  0  0  0  0  0  0  0
    6.2017  -11.8416   -3.4739 H   0  0  0  0  0  0  0  0  0  0  0  0
    6.7057  -12.0288   -1.7323 H   0  0  0  0  0  0  0  0  0  0  0  0
    7.2560  -13.9300   -4.0581 H   0  0  0  0  0  0  0  0  0  0  0  0
    8.4387  -12.9871   -3.0347 H   0  0  0  0  0  0  0  0  0  0  0  0
    8.2340  -15.3920   -2.5850 H   0  0  0  0  0  0  0  0  0  0  0  0
   10.4130  -14.7550   -2.4902 H   0  0  0  0  0  0  0  0  0  0  0  0
   12.5861  -13.5299   -2.5921 H   0  0  0  0  0  0  0  0  0  0  0  0
   14.0887  -11.2748   -1.3517 H   0  0  0  0  0  0  0  0  0  0  0  0
   13.4152   -9.5713    0.5902 H   0  0  0  0  0  0  0  0  0  0  0  0
   11.0300  -10.2020    1.3450 H   0  0  0  0  0  0  0  0  0  0  0  0
    9.0400  -12.1491    0.7114 H   0  0  0  0  0  0  0  0  0  0  0  0
    5.9877  -15.9575   -2.6654 H   0  0  0  0  0  0  0  0  0  0  0  0
    6.5030  -16.0645   -0.9203 H   0  0  0  0  0  0  0  0  0  0  0  0
    4.2450  -14.9474   -1.3384 H   0  0  0  0  0  0  0  0  0  0  0  0
    5.4754  -13.9937   -0.3840 H   0  0  0  0  0  0  0  0  0  0  0  0
  1  2  2  0
  2  3  1  0
  3  4  2  0
  4  5  1  0
  5  6  2  0
  6  7  1  0
  7  8  2  0
  8  9  1  0
  9 10  2  0
 10 11  1  0
 11 12  2  0
  6 13  1  0
 13 14  2  0
  2 15  1  0
 15 16  1  0
 16 17  1  0
 17 18  1  0
 18 19  1  0
 19 20  2  0
 19 21  1  0
 21 22  2  0
 22 23  1  0
 23 24  2  0
 24 25  1  0
 25 26  2  0
 26 27  1  0
 27 28  1  0
 28 29  2  0
 18 30  1  0
 30 31  1  0
 14  3  1  0
 31 15  1  0
 12  7  1  0
 29 21  1  0
 28 24  1  0
  4 32  1  0
  5 33  1  0
  8 34  1  0
  9 35  1  0
 10 36  1  0
 11 37  1  0
 12 38  1  0
 13 39  1  0
 14 40  1  0
 15 41  1  0
 16 42  1  0
 16 43  1  0
 17 44  1  0
 17 45  1  0
 18 46  1  0
 22 47  1  0
 23 48  1  0
 25 49  1  0
 26 50  1  0
 27 51  1  0
 29 52  1  0
 30 53  1  0
 30 54  1  0
 31 55  1  0
 31 56  1  0
M  CHG  2  15   1  18   1
M  END
>  <meeko>  (2) 
{"is_sidechain": [false], "free_energy": -8.272, "intermolecular_energy": -10.957, "internal_energy": -0.106}

$$$$
LIB_APHXKHUFVKITGC__M_PUB_ALL__e8__s20260927
     RDKit          3D

 56 60  0  0  0  0  0  0  0  0999 V2000
   14.4470  -15.9830   -5.9420 O   0  0  0  0  0  0  0  0  0  0  0  0
   13.3800  -15.4410   -5.7190 C   0  0  0  0  0  0  0  0  0  0  0  0
   13.1240  -14.5520   -4.5590 C   0  0  0  0  0  0  0  0  0  0  0  0
   13.7200  -13.2930   -4.4300 C   0  0  0  0  0  0  0  0  0  0  0  0
   13.4390  -12.5030   -3.3080 C   0  0  0  0  0  0  0  0  0  0  0  0
   12.5610  -12.9440   -2.3030 C   0  0  0  0  0  0  0  0  0  0  0  0
   12.2690  -12.1040   -1.1300 C   0  0  0  0  0  0  0  0  0  0  0  0
   11.2020  -12.4090   -0.2700 C   0  0  0  0  0  0  0  0  0  0  0  0
   10.9240  -11.6110    0.8430 C   0  0  0  0  0  0  0  0  0  0  0  0
   11.7080  -10.4950    1.1150 C   0  0  0  0  0  0  0  0  0  0  0  0
   12.7720  -10.1740    0.2760 C   0  0  0  0  0  0  0  0  0  0  0  0
   13.0500  -10.9730   -0.8380 C   0  0  0  0  0  0  0  0  0  0  0  0
   11.9650  -14.2050   -2.4560 C   0  0  0  0  0  0  0  0  0  0  0  0
   12.2390  -15.0020   -3.5720 C   0  0  0  0  0  0  0  0  0  0  0  0
   12.3600  -15.7630   -6.7380 N   0  0  0  0  0  0  0  0  0  0  0  0
   12.9600  -16.5310   -7.8960 C   0  0  0  0  0  0  0  0  0  0  0  0
   13.7350  -15.6220   -8.8900 C   0  0  0  0  0  0  0  0  0  0  0  0
   12.9550  -14.3900   -9.3130 N   0  0  0  0  0  0  0  0  0  0  0  0
   11.9340  -14.7160  -10.3300 C   0  0  0  0  0  0  0  0  0  0  0  0
   12.2790  -15.6280  -11.0570 O   0  0  0  0  0  0  0  0  0  0  0  0
   10.6430  -13.9930  -10.4530 C   0  0  0  0  0  0  0  0  0  0  0  0
    9.4760  -14.7190  -10.1860 C   0  0  0  0  0  0  0  0  0  0  0  0
    8.2190  -14.1140  -10.2880 C   0  0  0  0  0  0  0  0  0  0  0  0
    8.1340  -12.7610  -10.6570 C   0  0  0  0  0  0  0  0  0  0  0  0
    7.0480  -11.8650  -10.8480 C   0  0  0  0  0  0  0  0  0  0  0  0
    7.5720  -10.6440  -11.1980 C   0  0  0  0  0  0  0  0  0  0  0  0
    8.9350  -10.7590  -11.2260 N   0  0  0  0  0  0  0  0  0  0  0  0
    9.3100  -12.0500  -10.9050 C   0  0  0  0  0  0  0  0  0  0  0  0
   10.5850  -12.6330  -10.8110 C   0  0  0  0  0  0  0  0  0  0  0  0
   12.3520  -13.6210   -8.1570 C   0  0  0  0  0  0  0  0  0  0  0  0
   11.5790  -14.5300   -7.1610 C   0  0  0  0  0  0  0  0  0  0  0  0
   14.4066  -12.9249   -5.2066 H   0  0  0  0  0  0  0  0  0  0  0  0
   13.9157  -11.5164   -3.2114 H   0  0  0  0  0  0  0  0  0  0  0  0
   10.5754  -13.2894   -0.4754 H   0  0  0  0  0  0  0  0  0  0  0  0
   10.0835  -11.8660    1.5052 H   0  0  0  0  0  0  0  0  0  0  0  0
   11.4881   -9.8672    1.9911 H   0  0  0  0  0  0  0  0  0  0  0  0
   13.3939   -9.2921    0.4893 H   0  0  0  0  0  0  0  0  0  0  0  0
   13.8926  -10.7120   -1.4952 H   0  0  0  0  0  0  0  0  0  0  0  0
   11.2711  -14.5726   -1.6857 H   0  0  0  0  0  0  0  0  0  0  0  0
   11.7576  -15.9857   -3.6746 H   0  0  0  0  0  0  0  0  0  0  0  0
   11.6800  -16.3740   -6.2730 H   0  0  0  0  0  0  0  0  0  0  0  0
   13.6544  -17.2841   -7.4951 H   0  0  0  0  0  0  0  0  0  0  0  0
   12.1297  -16.9925   -8.4506 H   0  0  0  0  0  0  0  0  0  0  0  0
   14.6687  -15.2955   -8.4088 H   0  0  0  0  0  0  0  0  0  0  0  0
   13.9208  -16.2163   -9.7968 H   0  0  0  0  0  0  0  0  0  0  0  0
   13.6320  -13.7790   -9.7830 H   0  0  0  0  0  0  0  0  0  0  0  0
    9.5485  -15.7767   -9.8928 H   0  0  0  0  0  0  0  0  0  0  0  0
    7.3061  -14.6918  -10.0814 H   0  0  0  0  0  0  0  0  0  0  0  0
    5.9805  -12.1054  -10.7359 H   0  0  0  0  0  0  0  0  0  0  0  0
    6.9960   -9.7329  -11.4174 H   0  0  0  0  0  0  0  0  0  0  0  0
    9.5630   -9.9990  -11.4520 H   0  0  0  0  0  0  0  0  0  0  0  0
   11.4979  -12.0520  -11.0086 H   0  0  0  0  0  0  0  0  0  0  0  0
   13.1622  -13.1139   -7.6126 H   0  0  0  0  0  0  0  0  0  0  0  0
   11.6302  -12.9057   -8.5782 H   0  0  0  0  0  0  0  0  0  0  0  0
   11.3436  -13.9411   -6.2622 H   0  0  0  0  0  0  0  0  0  0  0  0
   10.6733  -14.8808   -7.6774 H   0  0  0  0  0  0  0  0  0  0  0  0
  1  2  2  0
  2  3  1  0
  3  4  2  0
  4  5  1  0
  5  6  2  0
  6  7  1  0
  7  8  2  0
  8  9  1  0
  9 10  2  0
 10 11  1  0
 11 12  2  0
  6 13  1  0
 13 14  2  0
  2 15  1  0
 15 16  1  0
 16 17  1  0
 17 18  1  0
 18 19  1  0
 19 20  2  0
 19 21  1  0
 21 22  2  0
 22 23  1  0
 23 24  2  0
 24 25  1  0
 25 26  2  0
 26 27  1  0
 27 28  1  0
 28 29  2  0
 18 30  1  0
 30 31  1  0
 14  3  1  0
 31 15  1  0
 12  7  1  0
 29 21  1  0
 28 24  1  0
  4 32  1  0
  5 33  1  0
  8 34  1  0
  9 35  1  0
 10 36  1  0
 11 37  1  0
 12 38  1  0
 13 39  1  0
 14 40  1  0
 15 41  1  0
 16 42  1  0
 16 43  1  0
 17 44  1  0
 17 45  1  0
 18 46  1  0
 22 47  1  0
 23 48  1  0
 25 49  1  0
 26 50  1  0
 27 51  1  0
 29 52  1  0
 30 53  1  0
 30 54  1  0
 31 55  1  0
 31 56  1  0
M  CHG  2  15   1  18   1
M  END
>  <meeko>  (3) 
{"is_sidechain": [false], "free_energy": -8.255, "intermolecular_energy": -10.437, "internal_energy": -0.605}

$$$$
LIB_APHXKHUFVKITGC__M_PUB_ALL__e8__s20260927
     RDKit          3D

 56 60  0  0  0  0  0  0  0  0999 V2000
   13.0300  -16.9260   -6.5070 O   0  0  0  0  0  0  0  0  0  0  0  0
   12.3300  -15.9350   -6.4150 C   0  0  0  0  0  0  0  0  0  0  0  0
   12.3220  -15.0260   -5.2430 C   0  0  0  0  0  0  0  0  0  0  0  0
   12.9330  -13.7680   -5.2630 C   0  0  0  0  0  0  0  0  0  0  0  0
   12.8920  -12.9580   -4.1200 C   0  0  0  0  0  0  0  0  0  0  0  0
   12.2430  -13.3790   -2.9480 C   0  0  0  0  0  0  0  0  0  0  0  0
   12.2030  -12.5170   -1.7540 C   0  0  0  0  0  0  0  0  0  0  0  0
   13.1210  -11.4670   -1.5880 C   0  0  0  0  0  0  0  0  0  0  0  0
   13.0840  -10.6510   -0.4550 C   0  0  0  0  0  0  0  0  0  0  0  0
   12.1270  -10.8690    0.5310 C   0  0  0  0  0  0  0  0  0  0  0  0
   11.2060  -11.9040    0.3870 C   0  0  0  0  0  0  0  0  0  0  0  0
   11.2440  -12.7210   -0.7470 C   0  0  0  0  0  0  0  0  0  0  0  0
   11.6270  -14.6390   -2.9510 C   0  0  0  0  0  0  0  0  0  0  0  0
   11.6610  -15.4560   -4.0860 C   0  0  0  0  0  0  0  0  0  0  0  0
   11.4820  -15.7320   -7.6080 N   0  0  0  0  0  0  0  0  0  0  0  0
   10.4910  -14.6070   -7.3950 C   0  0  0  0  0  0  0  0  0  0  0  0
    9.2660  -15.0340   -6.5390 C   0  0  0  0  0  0  0  0  0  0  0  0
    8.6280  -16.3310   -7.0030 N   0  0  0  0  0  0  0  0  0  0  0  0
    7.7830  -16.1240   -8.1980 C   0  0  0  0  0  0  0  0  0  0  0  0
    7.1000  -17.0970   -8.4550 O   0  0  0  0  0  0  0  0  0  0  0  0
    7.7900  -14.8720   -8.9960 C   0  0  0  0  0  0  0  0  0  0  0  0
    8.4500  -14.9030  -10.2300 C   0  0  0  0  0  0  0  0  0  0  0  0
    8.5100  -13.7640  -11.0370 C   0  0  0  0  0  0  0  0  0  0  0  0
    7.8920  -12.5780  -10.6030 C   0  0  0  0  0  0  0  0  0  0  0  0
    7.7670  -11.2780  -11.1610 C   0  0  0  0  0  0  0  0  0  0  0  0
    7.0360  -10.5160  -10.2830 C   0  0  0  0  0  0  0  0  0  0  0  0
    6.7090  -11.3000   -9.2110 N   0  0  0  0  0  0  0  0  0  0  0  0
    7.2270  -12.5710   -9.3760 C   0  0  0  0  0  0  0  0  0  0  0  0
    7.1520  -13.7010   -8.5440 C   0  0  0  0  0  0  0  0  0  0  0  0
    9.6180  -17.4560   -7.2190 C   0  0  0  0  0  0  0  0  0  0  0  0
   10.8440  -17.0300   -8.0730 C   0  0  0  0  0  0  0  0  0  0  0  0
   13.4434  -13.4160   -6.1716 H   0  0  0  0  0  0  0  0  0  0  0  0
   13.3785  -11.9716   -4.1414 H   0  0  0  0  0  0  0  0  0  0  0  0
   13.8808  -11.2845   -2.3622 H   0  0  0  0  0  0  0  0  0  0  0  0
   13.8127   -9.8347   -0.3421 H   0  0  0  0  0  0  0  0  0  0  0  0
   12.0977  -10.2253    1.4225 H   0  0  0  0  0  0  0  0  0  0  0  0
   10.4487  -12.0786    1.1655 H   0  0  0  0  0  0  0  0  0  0  0  0
   10.5124  -13.5356   -0.8526 H   0  0  0  0  0  0  0  0  0  0  0  0
   11.1089  -14.9904   -2.0465 H   0  0  0  0  0  0  0  0  0  0  0  0
   11.1672  -16.4388   -4.0695 H   0  0  0  0  0  0  0  0  0  0  0  0
   12.1190  -15.4510   -8.3620 H   0  0  0  0  0  0  0  0  0  0  0  0
   11.0045  -13.7789   -6.8844 H   0  0  0  0  0  0  0  0  0  0  0  0
   10.1142  -14.3073   -8.3841 H   0  0  0  0  0  0  0  0  0  0  0  0
    9.5959  -15.1610   -5.4974 H   0  0  0  0  0  0  0  0  0  0  0  0
    8.5072  -14.2443   -6.6419 H   0  0  0  0  0  0  0  0  0  0  0  0
    7.9870  -16.6110   -6.2530 H   0  0  0  0  0  0  0  0  0  0  0  0
    8.9269  -15.8347  -10.5683 H   0  0  0  0  0  0  0  0  0  0  0  0
    9.0357  -13.7949  -12.0027 H   0  0  0  0  0  0  0  0  0  0  0  0
    8.1811  -10.9420  -12.1231 H   0  0  0  0  0  0  0  0  0  0  0  0
    6.7614   -9.4595  -10.4183 H   0  0  0  0  0  0  0  0  0  0  0  0
    6.1650  -10.9800   -8.4200 H   0  0  0  0  0  0  0  0  0  0  0  0
    6.6186  -13.6720   -7.5824 H   0  0  0  0  0  0  0  0  0  0  0  0
    9.9769  -17.8004   -6.2379 H   0  0  0  0  0  0  0  0  0  0  0  0
    9.0955  -18.2532   -7.7680 H   0  0  0  0  0  0  0  0  0  0  0  0
   11.5993  -17.8280   -8.0209 H   0  0  0  0  0  0  0  0  0  0  0  0
   10.4833  -16.8650   -9.0990 H   0  0  0  0  0  0  0  0  0  0  0  0
  1  2  2  0
  2  3  1  0
  3  4  2  0
  4  5  1  0
  5  6  2  0
  6  7  1  0
  7  8  2  0
  8  9  1  0
  9 10  2  0
 10 11  1  0
 11 12  2  0
  6 13  1  0
 13 14  2  0
  2 15  1  0
 15 16  1  0
 16 17  1  0
 17 18  1  0
 18 19  1  0
 19 20  2  0
 19 21  1  0
 21 22  2  0
 22 23  1  0
 23 24  2  0
 24 25  1  0
 25 26  2  0
 26 27  1  0
 27 28  1  0
 28 29  2  0
 18 30  1  0
 30 31  1  0
 14  3  1  0
 31 15  1  0
 12  7  1  0
 29 21  1  0
 28 24  1  0
  4 32  1  0
  5 33  1  0
  8 34  1  0
  9 35  1  0
 10 36  1  0
 11 37  1  0
 12 38  1  0
 13 39  1  0
 14 40  1  0
 15 41  1  0
 16 42  1  0
 16 43  1  0
 17 44  1  0
 17 45  1  0
 18 46  1  0
 22 47  1  0
 23 48  1  0
 25 49  1  0
 26 50  1  0
 27 51  1  0
 29 52  1  0
 30 53  1  0
 30 54  1  0
 31 55  1  0
 31 56  1  0
M  CHG  2  15   1  18   1
M  END
>  <meeko>  (4) 
{"is_sidechain": [false], "free_energy": -8.184, "intermolecular_energy": -10.715, "internal_energy": -0.234}

$$$$
LIB_APHXKHUFVKITGC__M_PUB_ALL__e8__s20260927
     RDKit          3D

 56 60  0  0  0  0  0  0  0  0999 V2000
    4.9200  -13.1070   -2.4590 O   0  0  0  0  0  0  0  0  0  0  0  0
    4.2750  -13.0100   -3.4860 C   0  0  0  0  0  0  0  0  0  0  0  0
    4.8590  -13.0910   -4.8470 C   0  0  0  0  0  0  0  0  0  0  0  0
    5.6470  -14.1680   -5.2640 C   0  0  0  0  0  0  0  0  0  0  0  0
    6.1720  -14.1830   -6.5630 C   0  0  0  0  0  0  0  0  0  0  0  0
    5.9180  -13.1390   -7.4670 C   0  0  0  0  0  0  0  0  0  0  0  0
    6.4710  -13.1670   -8.8310 C   0  0  0  0  0  0  0  0  0  0  0  0
    6.6610  -11.9810   -9.5600 C   0  0  0  0  0  0  0  0  0  0  0  0
    7.1840  -12.0080  -10.8550 C   0  0  0  0  0  0  0  0  0  0  0  0
    7.5270  -13.2210  -11.4440 C   0  0  0  0  0  0  0  0  0  0  0  0
    7.3480  -14.4090  -10.7400 C   0  0  0  0  0  0  0  0  0  0  0  0
    6.8240  -14.3820   -9.4440 C   0  0  0  0  0  0  0  0  0  0  0  0
    5.1160  -12.0730   -7.0340 C   0  0  0  0  0  0  0  0  0  0  0  0
    4.5880  -12.0470   -5.7400 C   0  0  0  0  0  0  0  0  0  0  0  0
    2.8340  -12.8030   -3.2290 N   0  0  0  0  0  0  0  0  0  0  0  0
    2.6080  -12.0300   -1.9470 C   0  0  0  0  0  0  0  0  0  0  0  0
    2.7570  -12.9100   -0.6760 C   0  0  0  0  0  0  0  0  0  0  0  0
    1.9810  -14.2130   -0.7490 N   0  0  0  0  0  0  0  0  0  0  0  0
    0.5410  -14.0020   -0.4940 C   0  0  0  0  0  0  0  0  0  0  0  0
   -0.1620  -14.6760   -1.2240 O   0  0  0  0  0  0  0  0  0  0  0  0
    0.0210  -13.0590    0.5280 C   0  0  0  0  0  0  0  0  0  0  0  0
   -0.0950  -13.5370    1.8390 C   0  0  0  0  0  0  0  0  0  0  0  0
   -0.5850  -12.7150    2.8580 C   0  0  0  0  0  0  0  0  0  0  0  0
   -0.9580  -11.3930    2.5580 C   0  0  0  0  0  0  0  0  0  0  0  0
   -1.4770  -10.3230    3.3340 C   0  0  0  0  0  0  0  0  0  0  0  0
   -1.6420   -9.2440    2.4990 C   0  0  0  0  0  0  0  0  0  0  0  0
   -1.2410   -9.6140    1.2440 N   0  0  0  0  0  0  0  0  0  0  0  0
   -0.8220  -10.9310    1.2480 C   0  0  0  0  0  0  0  0  0  0  0  0
   -0.3330  -11.7360    0.2050 C   0  0  0  0  0  0  0  0  0  0  0  0
    2.2050  -14.9860   -2.0310 C   0  0  0  0  0  0  0  0  0  0  0  0
    2.0580  -14.1070   -3.3040 C   0  0  0  0  0  0  0  0  0  0  0  0
    5.8540  -15.0002   -4.5751 H   0  0  0  0  0  0  0  0  0  0  0  0
    6.7965  -15.0307   -6.8814 H   0  0  0  0  0  0  0  0  0  0  0  0
    6.3938  -11.0163   -9.1039 H   0  0  0  0  0  0  0  0  0  0  0  0
    7.3249  -11.0688  -11.4100 H   0  0  0  0  0  0  0  0  0  0  0  0
    7.9388  -13.2415  -12.4638 H   0  0  0  0  0  0  0  0  0  0  0  0
    7.6189  -15.3690  -11.2036 H   0  0  0  0  0  0  0  0  0  0  0  0
    6.6859  -15.3256   -8.8958 H   0  0  0  0  0  0  0  0  0  0  0  0
    4.8990  -11.2441   -7.7238 H   0  0  0  0  0  0  0  0  0  0  0  0
    3.9575  -11.2036   -5.4221 H   0  0  0  0  0  0  0  0  0  0  0  0
    2.4880  -12.2310   -4.0080 H   0  0  0  0  0  0  0  0  0  0  0  0
    3.3424  -11.2126   -1.8960 H   0  0  0  0  0  0  0  0  0  0  0  0
    1.5752  -11.6520   -1.9674 H   0  0  0  0  0  0  0  0  0  0  0  0
    3.8225  -13.1462   -0.5387 H   0  0  0  0  0  0  0  0  0  0  0  0
    2.3461  -12.3347    0.1667 H   0  0  0  0  0  0  0  0  0  0  0  0
    2.3210  -14.7850    0.0320 H   0  0  0  0  0  0  0  0  0  0  0  0
    0.2027  -14.5706    2.0696 H   0  0  0  0  0  0  0  0  0  0  0  0
   -0.6779  -13.0988    3.8847 H   0  0  0  0  0  0  0  0  0  0  0  0
   -1.7057  -10.3525    4.4096 H   0  0  0  0  0  0  0  0  0  0  0  0
   -2.0287   -8.2558    2.7888 H   0  0  0  0  0  0  0  0  0  0  0  0
   -1.2550   -8.9990    0.4410 H   0  0  0  0  0  0  0  0  0  0  0  0
   -0.2314  -11.3486   -0.8195 H   0  0  0  0  0  0  0  0  0  0  0  0
    3.2203  -15.4089   -2.0124 H   0  0  0  0  0  0  0  0  0  0  0  0
    1.4345  -15.7695   -2.0815 H   0  0  0  0  0  0  0  0  0  0  0  0
    2.4233  -14.6810   -4.1683 H   0  0  0  0  0  0  0  0  0  0  0  0
    0.9934  -13.8467   -3.3981 H   0  0  0  0  0  0  0  0  0  0  0  0
  1  2  2  0
  2  3  1  0
  3  4  2  0
  4  5  1  0
  5  6  2  0
  6  7  1  0
  7  8  2  0
  8  9  1  0
  9 10  2  0
 10 11  1  0
 11 12  2  0
  6 13  1  0
 13 14  2  0
  2 15  1  0
 15 16  1  0
 16 17  1  0
 17 18  1  0
 18 19  1  0
 19 20  2  0
 19 21  1  0
 21 22  2  0
 22 23  1  0
 23 24  2  0
 24 25  1  0
 25 26  2  0
 26 27  1  0
 27 28  1  0
 28 29  2  0
 18 30  1  0
 30 31  1  0
 14  3  1  0
 31 15  1  0
 12  7  1  0
 29 21  1  0
 28 24  1  0
  4 32  1  0
  5 33  1  0
  8 34  1  0
  9 35  1  0
 10 36  1  0
 11 37  1  0
 12 38  1  0
 13 39  1  0
 14 40  1  0
 15 41  1  0
 16 42  1  0
 16 43  1  0
 17 44  1  0
 17 45  1  0
 18 46  1  0
 22 47  1  0
 23 48  1  0
 25 49  1  0
 26 50  1  0
 27 51  1  0
 29 52  1  0
 30 53  1  0
 30 54  1  0
 31 55  1  0
 31 56  1  0
M  CHG  2  15   1  18   1
M  END
>  <meeko>  (5) 
{"is_sidechain": [false], "free_energy": -7.993, "intermolecular_energy": -10.545, "internal_energy": -0.158}

$$$$
LIB_APHXKHUFVKITGC__M_PUB_ALL__e8__s20260927
     RDKit          3D

 56 60  0  0  0  0  0  0  0  0999 V2000
    4.6180  -11.4680   -3.9960 O   0  0  0  0  0  0  0  0  0  0  0  0
    4.4400  -12.0110   -2.9220 C   0  0  0  0  0  0  0  0  0  0  0  0
    3.3040  -11.7130   -2.0150 C   0  0  0  0  0  0  0  0  0  0  0  0
    3.1960  -12.2690   -0.7370 C   0  0  0  0  0  0  0  0  0  0  0  0
    2.0960  -11.9490    0.0690 C   0  0  0  0  0  0  0  0  0  0  0  0
    1.0940  -11.0700   -0.3750 C   0  0  0  0  0  0  0  0  0  0  0  0
   -0.0560  -10.7370    0.4820 C   0  0  0  0  0  0  0  0  0  0  0  0
   -1.1370  -11.6230    0.6190 C   0  0  0  0  0  0  0  0  0  0  0  0
   -2.2290  -11.3060    1.4310 C   0  0  0  0  0  0  0  0  0  0  0  0
   -2.2580  -10.0990    2.1220 C   0  0  0  0  0  0  0  0  0  0  0  0
   -1.1960   -9.2060    2.0020 C   0  0  0  0  0  0  0  0  0  0  0  0
   -0.1040   -9.5230    1.1880 C   0  0  0  0  0  0  0  0  0  0  0  0
    1.2260  -10.5140   -1.6560 C   0  0  0  0  0  0  0  0  0  0  0  0
    2.3200  -10.8270   -2.4700 C   0  0  0  0  0  0  0  0  0  0  0  0
    5.4850  -13.0110   -2.6160 N   0  0  0  0  0  0  0  0  0  0  0  0
    5.8410  -13.0030   -1.1440 C   0  0  0  0  0  0  0  0  0  0  0  0
    6.7820  -11.8300   -0.7550 C   0  0  0  0  0  0  0  0  0  0  0  0
    7.9820  -11.6890   -1.6750 N   0  0  0  0  0  0  0  0  0  0  0  0
    9.0230  -12.6910   -1.3680 C   0  0  0  0  0  0  0  0  0  0  0  0
    8.7130  -13.4110   -0.4380 O   0  0  0  0  0  0  0  0  0  0  0  0
   10.3070  -12.7890   -2.1080 C   0  0  0  0  0  0  0  0  0  0  0  0
   10.3410  -13.6370   -3.2220 C   0  0  0  0  0  0  0  0  0  0  0  0
   11.5140  -13.7920   -3.9660 C   0  0  0  0  0  0  0  0  0  0  0  0
   12.6670  -13.0810   -3.5900 C   0  0  0  0  0  0  0  0  0  0  0  0
   13.9860  -13.0090   -4.1130 C   0  0  0  0  0  0  0  0  0  0  0  0
   14.6960  -12.1280   -3.3340 C   0  0  0  0  0  0  0  0  0  0  0  0
   13.8610  -11.6570   -2.3580 N   0  0  0  0  0  0  0  0  0  0  0  0
   12.6100  -12.2300   -2.4850 C   0  0  0  0  0  0  0  0  0  0  0  0
   11.4450  -12.0560   -1.7190 C   0  0  0  0  0  0  0  0  0  0  0  0
    7.6280  -11.6980   -3.1470 C   0  0  0  0  0  0  0  0  0  0  0  0
    6.6850  -12.8700   -3.5370 C   0  0  0  0  0  0  0  0  0  0  0  0
    3.9717  -12.9550   -0.3658 H   0  0  0  0  0  0  0  0  0  0  0  0
    2.0150  -12.3955    1.0710 H   0  0  0  0  0  0  0  0  0  0  0  0
   -1.1238  -12.5811    0.0788 H   0  0  0  0  0  0  0  0  0  0  0  0
   -3.0673  -12.0121    1.5240 H   0  0  0  0  0  0  0  0  0  0  0  0
   -3.1177   -9.8505    2.7617 H   0  0  0  0  0  0  0  0  0  0  0  0
   -1.2162   -8.2511    2.5477 H   0  0  0  0  0  0  0  0  0  0  0  0
    0.7300   -8.8113    1.0990 H   0  0  0  0  0  0  0  0  0  0  0  0
    0.4568   -9.8205   -2.0267 H   0  0  0  0  0  0  0  0  0  0  0  0
    2.4072  -10.3761   -3.4695 H   0  0  0  0  0  0  0  0  0  0  0  0
    5.0730  -13.9250   -2.8360 H   0  0  0  0  0  0  0  0  0  0  0  0
    4.9133  -12.9172   -0.5592 H   0  0  0  0  0  0  0  0  0  0  0  0
    6.3759  -13.9399   -0.9291 H   0  0  0  0  0  0  0  0  0  0  0  0
    6.2049  -10.8941   -0.7887 H   0  0  0  0  0  0  0  0  0  0  0  0
    7.1685  -12.0441    0.2524 H   0  0  0  0  0  0  0  0  0  0  0  0
    8.3980  -10.7780   -1.4540 H   0  0  0  0  0  0  0  0  0  0  0  0
    9.4345  -14.1871   -3.5147 H   0  0  0  0  0  0  0  0  0  0  0  0
   11.5348  -14.4635   -4.8370 H   0  0  0  0  0  0  0  0  0  0  0  0
   14.3696  -13.5595   -4.9847 H   0  0  0  0  0  0  0  0  0  0  0  0
   15.7514  -11.8499   -3.4710 H   0  0  0  0  0  0  0  0  0  0  0  0
   14.1360  -10.9860   -1.6520 H   0  0  0  0  0  0  0  0  0  0  0  0
   11.4227  -11.3772   -0.8537 H   0  0  0  0  0  0  0  0  0  0  0  0
    7.1287  -10.7493   -3.3933 H   0  0  0  0  0  0  0  0  0  0  0  0
    8.5641  -11.8273   -3.7100 H   0  0  0  0  0  0  0  0  0  0  0  0
    6.3206  -12.6985   -4.5606 H   0  0  0  0  0  0  0  0  0  0  0  0
    7.2692  -13.7983   -3.4536 H   0  0  0  0  0  0  0  0  0  0  0  0
  1  2  2  0
  2  3  1  0
  3  4  2  0
  4  5  1  0
  5  6  2  0
  6  7  1  0
  7  8  2  0
  8  9  1  0
  9 10  2  0
 10 11  1  0
 11 12  2  0
  6 13  1  0
 13 14  2  0
  2 15  1  0
 15 16  1  0
 16 17  1  0
 17 18  1  0
 18 19  1  0
 19 20  2  0
 19 21  1  0
 21 22  2  0
 22 23  1  0
 23 24  2  0
 24 25  1  0
 25 26  2  0
 26 27  1  0
 27 28  1  0
 28 29  2  0
 18 30  1  0
 30 31  1  0
 14  3  1  0
 31 15  1  0
 12  7  1  0
 29 21  1  0
 28 24  1  0
  4 32  1  0
  5 33  1  0
  8 34  1  0
  9 35  1  0
 10 36  1  0
 11 37  1  0
 12 38  1  0
 13 39  1  0
 14 40  1  0
 15 41  1  0
 16 42  1  0
 16 43  1  0
 17 44  1  0
 17 45  1  0
 18 46  1  0
 22 47  1  0
 23 48  1  0
 25 49  1  0
 26 50  1  0
 27 51  1  0
 29 52  1  0
 30 53  1  0
 30 54  1  0
 31 55  1  0
 31 56  1  0
M  CHG  2  15   1  18   1
M  END
>  <meeko>  (6) 
{"is_sidechain": [false], "free_energy": -7.939, "intermolecular_energy": -11.151, "internal_energy": 0.519}

$$$$
LIB_APHXKHUFVKITGC__M_PUB_ALL__e8__s20260927
     RDKit          3D

 56 60  0  0  0  0  0  0  0  0999 V2000
   10.8020  -20.3150   -2.5750 O   0  0  0  0  0  0  0  0  0  0  0  0
   11.9240  -19.9330   -2.8520 C   0  0  0  0  0  0  0  0  0  0  0  0
   13.1630  -20.6840   -2.5310 C   0  0  0  0  0  0  0  0  0  0  0  0
   14.1720  -20.9080   -3.4730 C   0  0  0  0  0  0  0  0  0  0  0  0
   15.3160  -21.6290   -3.1060 C   0  0  0  0  0  0  0  0  0  0  0  0
   15.4800  -22.1300   -1.8040 C   0  0  0  0  0  0  0  0  0  0  0  0
   16.6890  -22.8820   -1.4290 C   0  0  0  0  0  0  0  0  0  0  0  0
   17.0440  -23.0540   -0.0800 C   0  0  0  0  0  0  0  0  0  0  0  0
   18.1920  -23.7660    0.2760 C   0  0  0  0  0  0  0  0  0  0  0  0
   19.0040  -24.3190   -0.7090 C   0  0  0  0  0  0  0  0  0  0  0  0
   18.6710  -24.1620   -2.0510 C   0  0  0  0  0  0  0  0  0  0  0  0
   17.5220  -23.4490   -2.4080 C   0  0  0  0  0  0  0  0  0  0  0  0
   14.4620  -21.8860   -0.8710 C   0  0  0  0  0  0  0  0  0  0  0  0
   13.3150  -21.1690   -1.2260 C   0  0  0  0  0  0  0  0  0  0  0  0
   11.9200  -18.6320   -3.5510 N   0  0  0  0  0  0  0  0  0  0  0  0
   12.7000  -17.5890   -2.7800 C   0  0  0  0  0  0  0  0  0  0  0  0
   11.9050  -17.0010   -1.5810 C   0  0  0  0  0  0  0  0  0  0  0  0
   10.4980  -16.5640   -1.9470 N   0  0  0  0  0  0  0  0  0  0  0  0
   10.4980  -15.2640   -2.6480 C   0  0  0  0  0  0  0  0  0  0  0  0
    9.8560  -15.2940   -3.6810 O   0  0  0  0  0  0  0  0  0  0  0  0
   11.2180  -14.0660   -2.1480 C   0  0  0  0  0  0  0  0  0  0  0  0
   12.3090  -13.6140   -2.9010 C   0  0  0  0  0  0  0  0  0  0  0  0
   13.0470  -12.4990   -2.4930 C   0  0  0  0  0  0  0  0  0  0  0  0
   12.6800  -11.8240   -1.3160 C   0  0  0  0  0  0  0  0  0  0  0  0
   13.1980  -10.6890   -0.6370 C   0  0  0  0  0  0  0  0  0  0  0  0
   12.4170  -10.4750    0.4730 C   0  0  0  0  0  0  0  0  0  0  0  0
   11.4410  -11.4330    0.4960 N   0  0  0  0  0  0  0  0  0  0  0  0
   11.5810  -12.2800   -0.5860 C   0  0  0  0  0  0  0  0  0  0  0  0
   10.8230  -13.3990   -0.9730 C   0  0  0  0  0  0  0  0  0  0  0  0
    9.7160  -17.6050   -2.7200 C   0  0  0  0  0  0  0  0  0  0  0  0
   10.5120  -18.1950   -3.9180 C   0  0  0  0  0  0  0  0  0  0  0  0
   14.0681  -20.5201   -4.4971 H   0  0  0  0  0  0  0  0  0  0  0  0
   16.1029  -21.8066   -3.8538 H   0  0  0  0  0  0  0  0  0  0  0  0
   16.4086  -22.6217    0.7070 H   0  0  0  0  0  0  0  0  0  0  0  0
   18.4544  -23.8896    1.3371 H   0  0  0  0  0  0  0  0  0  0  0  0
   19.9077  -24.8794   -0.4275 H   0  0  0  0  0  0  0  0  0  0  0  0
   19.3117  -24.5988   -2.8312 H   0  0  0  0  0  0  0  0  0  0  0  0
   17.2666  -23.3304   -3.4714 H   0  0  0  0  0  0  0  0  0  0  0  0
   14.5673  -22.2646    0.1564 H   0  0  0  0  0  0  0  0  0  0  0  0
   12.5297  -20.9854   -0.4779 H   0  0  0  0  0  0  0  0  0  0  0  0
   12.4020  -18.7890   -4.4440 H   0  0  0  0  0  0  0  0  0  0  0  0
   13.6211  -18.0523   -2.3967 H   0  0  0  0  0  0  0  0  0  0  0  0
   12.9145  -16.7605   -3.4711 H   0  0  0  0  0  0  0  0  0  0  0  0
   11.8386  -17.7691   -0.7964 H   0  0  0  0  0  0  0  0  0  0  0  0
   12.4453  -16.1051   -1.2411 H   0  0  0  0  0  0  0  0  0  0  0  0
   10.0160  -16.4010   -1.0560 H   0  0  0  0  0  0  0  0  0  0  0  0
   12.5885  -14.1426   -3.8243 H   0  0  0  0  0  0  0  0  0  0  0  0
   13.9060  -12.1535   -3.0869 H   0  0  0  0  0  0  0  0  0  0  0  0
   14.0676  -10.0895   -0.9444 H   0  0  0  0  0  0  0  0  0  0  0  0
   12.5529   -9.6733    1.2138 H   0  0  0  0  0  0  0  0  0  0  0  0
   10.7270  -11.4970    1.2110 H   0  0  0  0  0  0  0  0  0  0  0  0
    9.9588  -13.7386   -0.3832 H   0  0  0  0  0  0  0  0  0  0  0  0
    9.4525  -18.4252   -2.0360 H   0  0  0  0  0  0  0  0  0  0  0  0
    8.8232  -17.1097   -3.1294 H   0  0  0  0  0  0  0  0  0  0  0  0
    9.9653  -19.0682   -4.3035 H   0  0  0  0  0  0  0  0  0  0  0  0
   10.6054  -17.3974   -4.6698 H   0  0  0  0  0  0  0  0  0  0  0  0
  1  2  2  0
  2  3  1  0
  3  4  2  0
  4  5  1  0
  5  6  2  0
  6  7  1  0
  7  8  2  0
  8  9  1  0
  9 10  2  0
 10 11  1  0
 11 12  2  0
  6 13  1  0
 13 14  2  0
  2 15  1  0
 15 16  1  0
 16 17  1  0
 17 18  1  0
 18 19  1  0
 19 20  2  0
 19 21  1  0
 21 22  2  0
 22 23  1  0
 23 24  2  0
 24 25  1  0
 25 26  2  0
 26 27  1  0
 27 28  1  0
 28 29  2  0
 18 30  1  0
 30 31  1  0
 14  3  1  0
 31 15  1  0
 12  7  1  0
 29 21  1  0
 28 24  1  0
  4 32  1  0
  5 33  1  0
  8 34  1  0
  9 35  1  0
 10 36  1  0
 11 37  1  0
 12 38  1  0
 13 39  1  0
 14 40  1  0
 15 41  1  0
 16 42  1  0
 16 43  1  0
 17 44  1  0
 17 45  1  0
 18 46  1  0
 22 47  1  0
 23 48  1  0
 25 49  1  0
 26 50  1  0
 27 51  1  0
 29 52  1  0
 30 53  1  0
 30 54  1  0
 31 55  1  0
 31 56  1  0
M  CHG  2  15   1  18   1
M  END
>  <meeko>  (7) 
{"is_sidechain": [false], "free_energy": -7.902, "intermolecular_energy": -10.163, "internal_energy": -0.422}

$$$$
LIB_APHXKHUFVKITGC__M_PUB_ALL__e8__s20260927
     RDKit          3D

 56 60  0  0  0  0  0  0  0  0999 V2000
    6.7380  -14.8750    1.3150 O   0  0  0  0  0  0  0  0  0  0  0  0
    6.8110  -14.5230    0.1520 C   0  0  0  0  0  0  0  0  0  0  0  0
    8.0710  -14.1150   -0.5170 C   0  0  0  0  0  0  0  0  0  0  0  0
    8.6800  -12.8780   -0.2830 C   0  0  0  0  0  0  0  0  0  0  0  0
    9.8680  -12.5520   -0.9500 C   0  0  0  0  0  0  0  0  0  0  0  0
   10.4720  -13.4450   -1.8500 C   0  0  0  0  0  0  0  0  0  0  0  0
   11.7230  -13.0940   -2.5420 C   0  0  0  0  0  0  0  0  0  0  0  0
   12.5220  -12.0290   -2.0950 C   0  0  0  0  0  0  0  0  0  0  0  0
   13.7090  -11.6950   -2.7520 C   0  0  0  0  0  0  0  0  0  0  0  0
   14.1180  -12.4200   -3.8670 C   0  0  0  0  0  0  0  0  0  0  0  0
   13.3420  -13.4810   -4.3260 C   0  0  0  0  0  0  0  0  0  0  0  0
   12.1530  -13.8150   -3.6690 C   0  0  0  0  0  0  0  0  0  0  0  0
    9.8510  -14.6850   -2.0630 C   0  0  0  0  0  0  0  0  0  0  0  0
    8.6650  -15.0210   -1.4030 C   0  0  0  0  0  0  0  0  0  0  0  0
    5.5000  -14.5490   -0.5290 N   0  0  0  0  0  0  0  0  0  0  0  0
    5.3750  -13.4200   -1.5290 C   0  0  0  0  0  0  0  0  0  0  0  0
    5.0560  -12.0530   -0.8630 C   0  0  0  0  0  0  0  0  0  0  0  0
    3.9090  -12.1180    0.1290 N   0  0  0  0  0  0  0  0  0  0  0  0
    2.6000  -12.1470   -0.5550 C   0  0  0  0  0  0  0  0  0  0  0  0
    2.6970  -12.4510   -1.7290 O   0  0  0  0  0  0  0  0  0  0  0  0
    1.3180  -11.8230    0.1210 C   0  0  0  0  0  0  0  0  0  0  0  0
    0.3360  -12.8210    0.1420 C   0  0  0  0  0  0  0  0  0  0  0  0
   -0.9030  -12.5920    0.7500 C   0  0  0  0  0  0  0  0  0  0  0  0
   -1.1550  -11.3460    1.3500 C   0  0  0  0  0  0  0  0  0  0  0  0
   -2.2730  -10.7990    2.0340 C   0  0  0  0  0  0  0  0  0  0  0  0
   -1.9420   -9.5210    2.4180 C   0  0  0  0  0  0  0  0  0  0  0  0
   -0.6660   -9.2690    1.9960 N   0  0  0  0  0  0  0  0  0  0  0  0
   -0.1590  -10.3690    1.3310 C   0  0  0  0  0  0  0  0  0  0  0  0
    1.0940  -10.5720    0.7270 C   0  0  0  0  0  0  0  0  0  0  0  0
    4.0310  -13.2480    1.1300 C   0  0  0  0  0  0  0  0  0  0  0  0
    4.3520  -14.6160    0.4650 C   0  0  0  0  0  0  0  0  0  0  0  0
    8.2282  -12.1642    0.4216 H   0  0  0  0  0  0  0  0  0  0  0  0
   10.3381  -11.5749   -0.7647 H   0  0  0  0  0  0  0  0  0  0  0  0
   12.2086  -11.4491   -1.2144 H   0  0  0  0  0  0  0  0  0  0  0  0
   14.3214  -10.8573   -2.3871 H   0  0  0  0  0  0  0  0  0  0  0  0
   15.0520  -12.1556   -4.3845 H   0  0  0  0  0  0  0  0  0  0  0  0
   13.6641  -14.0571   -5.2060 H   0  0  0  0  0  0  0  0  0  0  0  0
   11.5459  -14.6540   -4.0399 H   0  0  0  0  0  0  0  0  0  0  0  0
   10.3045  -15.4045   -2.7606 H   0  0  0  0  0  0  0  0  0  0  0  0
    8.1973  -16.0006   -1.5807 H   0  0  0  0  0  0  0  0  0  0  0  0
    5.4680  -15.4340   -1.0470 H   0  0  0  0  0  0  0  0  0  0  0  0
    6.3246  -13.3301   -2.0769 H   0  0  0  0  0  0  0  0  0  0  0  0
    4.5368  -13.6640   -2.1983 H   0  0  0  0  0  0  0  0  0  0  0  0
    5.9553  -11.7049   -0.3337 H   0  0  0  0  0  0  0  0  0  0  0  0
    4.7525  -11.3643   -1.6652 H   0  0  0  0  0  0  0  0  0  0  0  0
    3.9350  -11.2320    0.6450 H   0  0  0  0  0  0  0  0  0  0  0  0
    0.5410  -13.7958   -0.3247 H   0  0  0  0  0  0  0  0  0  0  0  0
   -1.6719  -13.3786    0.7584 H   0  0  0  0  0  0  0  0  0  0  0  0
   -3.2307  -11.3062    2.2225 H   0  0  0  0  0  0  0  0  0  0  0  0
   -2.5903   -8.8233    2.9684 H   0  0  0  0  0  0  0  0  0  0  0  0
   -0.1780   -8.3970    2.1570 H   0  0  0  0  0  0  0  0  0  0  0  0
    1.8656   -9.7880    0.7278 H   0  0  0  0  0  0  0  0  0  0  0  0
    4.8374  -13.0042    1.8374 H   0  0  0  0  0  0  0  0  0  0  0  0
    3.0586  -13.3473    1.6345 H   0  0  0  0  0  0  0  0  0  0  0  0
    4.6162  -15.3344    1.2550 H   0  0  0  0  0  0  0  0  0  0  0  0
    3.4559  -14.9238   -0.0938 H   0  0  0  0  0  0  0  0  0  0  0  0
  1  2  2  0
  2  3  1  0
  3  4  2  0
  4  5  1  0
  5  6  2  0
  6  7  1  0
  7  8  2  0
  8  9  1  0
  9 10  2  0
 10 11  1  0
 11 12  2  0
  6 13  1  0
 13 14  2  0
  2 15  1  0
 15 16  1  0
 16 17  1  0
 17 18  1  0
 18 19  1  0
 19 20  2  0
 19 21  1  0
 21 22  2  0
 22 23  1  0
 23 24  2  0
 24 25  1  0
 25 26  2  0
 26 27  1  0
 27 28  1  0
 28 29  2  0
 18 30  1  0
 30 31  1  0
 14  3  1  0
 31 15  1  0
 12  7  1  0
 29 21  1  0
 28 24  1  0
  4 32  1  0
  5 33  1  0
  8 34  1  0
  9 35  1  0
 10 36  1  0
 11 37  1  0
 12 38  1  0
 13 39  1  0
 14 40  1  0
 15 41  1  0
 16 42  1  0
 16 43  1  0
 17 44  1  0
 17 45  1  0
 18 46  1  0
 22 47  1  0
 23 48  1  0
 25 49  1  0
 26 50  1  0
 27 51  1  0
 29 52  1  0
 30 53  1  0
 30 54  1  0
 31 55  1  0
 31 56  1  0
M  CHG  2  15   1  18   1
M  END
>  <meeko>  (8) 
{"is_sidechain": [false], "free_energy": -7.868, "intermolecular_energy": -10.106, "internal_energy": -0.435}

$$$$
LIB_APHXKHUFVKITGC__M_PUB_ALL__e8__s20260927
     RDKit          3D

 56 60  0  0  0  0  0  0  0  0999 V2000
    4.8540  -14.4060   -2.2990 O   0  0  0  0  0  0  0  0  0  0  0  0
    4.7920  -13.2680   -1.8720 C   0  0  0  0  0  0  0  0  0  0  0  0
    3.5700  -12.6640   -1.2870 C   0  0  0  0  0  0  0  0  0  0  0  0
    2.7910  -11.7280   -1.9750 C   0  0  0  0  0  0  0  0  0  0  0  0
    1.6490  -11.1920   -1.3640 C   0  0  0  0  0  0  0  0  0  0  0  0
    1.2600  -11.5790   -0.0710 C   0  0  0  0  0  0  0  0  0  0  0  0
    0.0560  -11.0130    0.5580 C   0  0  0  0  0  0  0  0  0  0  0  0
    0.0680   -9.7220    1.1120 C   0  0  0  0  0  0  0  0  0  0  0  0
   -1.0750   -9.1850    1.7110 C   0  0  0  0  0  0  0  0  0  0  0  0
   -2.2490   -9.9300    1.7660 C   0  0  0  0  0  0  0  0  0  0  0  0
   -2.2840  -11.2110    1.2220 C   0  0  0  0  0  0  0  0  0  0  0  0
   -1.1400  -11.7490    0.6240 C   0  0  0  0  0  0  0  0  0  0  0  0
    2.0480  -12.5270    0.5980 C   0  0  0  0  0  0  0  0  0  0  0  0
    3.1900  -13.0680   -0.0010 C   0  0  0  0  0  0  0  0  0  0  0  0
    6.0770  -12.5490   -1.9960 N   0  0  0  0  0  0  0  0  0  0  0  0
    7.1870  -13.4750   -2.4440 C   0  0  0  0  0  0  0  0  0  0  0  0
    7.7390  -14.3600   -1.2930 C   0  0  0  0  0  0  0  0  0  0  0  0
    8.0680  -13.5770   -0.0340 N   0  0  0  0  0  0  0  0  0  0  0  0
    9.3520  -12.8570   -0.1620 C   0  0  0  0  0  0  0  0  0  0  0  0
    9.4140  -11.8870    0.5700 O   0  0  0  0  0  0  0  0  0  0  0  0
   10.4300  -13.2690   -1.0960 C   0  0  0  0  0  0  0  0  0  0  0  0
   10.6560  -12.4540   -2.2130 C   0  0  0  0  0  0  0  0  0  0  0  0
   11.6460  -12.7780   -3.1450 C   0  0  0  0  0  0  0  0  0  0  0  0
   12.4250  -13.9320   -2.9500 C   0  0  0  0  0  0  0  0  0  0  0  0
   13.4830  -14.5330   -3.6820 C   0  0  0  0  0  0  0  0  0  0  0  0
   13.8760  -15.6580   -2.9990 C   0  0  0  0  0  0  0  0  0  0  0  0
   13.1000  -15.7660   -1.8770 N   0  0  0  0  0  0  0  0  0  0  0  0
   12.1940  -14.7230   -1.8240 C   0  0  0  0  0  0  0  0  0  0  0  0
   11.2060  -14.4220   -0.8720 C   0  0  0  0  0  0  0  0  0  0  0  0
    6.9600  -12.6490    0.4150 C   0  0  0  0  0  0  0  0  0  0  0  0
    6.4050  -11.7640   -0.7360 C   0  0  0  0  0  0  0  0  0  0  0  0
    3.0732  -11.4140   -2.9908 H   0  0  0  0  0  0  0  0  0  0  0  0
    1.0443  -10.4522   -1.9090 H   0  0  0  0  0  0  0  0  0  0  0  0
    0.9909   -9.1247    1.0738 H   0  0  0  0  0  0  0  0  0  0  0  0
   -1.0465   -8.1723    2.1394 H   0  0  0  0  0  0  0  0  0  0  0  0
   -3.1480   -9.5074    2.2386 H   0  0  0  0  0  0  0  0  0  0  0  0
   -3.2119  -11.8003    1.2625 H   0  0  0  0  0  0  0  0  0  0  0  0
   -1.1765  -12.7629    0.1990 H   0  0  0  0  0  0  0  0  0  0  0  0
    1.7631  -12.8501    1.6101 H   0  0  0  0  0  0  0  0  0  0  0  0
    3.7918  -13.8133    0.5397 H   0  0  0  0  0  0  0  0  0  0  0  0
    5.9370  -11.8460   -2.7300 H   0  0  0  0  0  0  0  0  0  0  0  0
    6.7976  -14.1319   -3.2357 H   0  0  0  0  0  0  0  0  0  0  0  0
    8.0155  -12.8468   -2.8031 H   0  0  0  0  0  0  0  0  0  0  0  0
    6.9830  -15.1192   -1.0438 H   0  0  0  0  0  0  0  0  0  0  0  0
    8.6775  -14.8090   -1.6504 H   0  0  0  0  0  0  0  0  0  0  0  0
    8.2140  -14.2780    0.7010 H   0  0  0  0  0  0  0  0  0  0  0  0
   10.0476  -11.5491   -2.3581 H   0  0  0  0  0  0  0  0  0  0  0  0
   11.8140  -12.1363   -4.0225 H   0  0  0  0  0  0  0  0  0  0  0  0
   13.9107  -14.1641   -4.6259 H   0  0  0  0  0  0  0  0  0  0  0  0
   14.6750  -16.3511   -3.3011 H   0  0  0  0  0  0  0  0  0  0  0  0
   13.1900  -16.5080   -1.1960 H   0  0  0  0  0  0  0  0  0  0  0  0
   11.0456  -15.0594    0.0100 H   0  0  0  0  0  0  0  0  0  0  0  0
    6.1363  -13.2561    0.8187 H   0  0  0  0  0  0  0  0  0  0  0  0
    7.3832  -11.9744    1.1739 H   0  0  0  0  0  0  0  0  0  0  0  0
    5.4875  -11.2695   -0.3844 H   0  0  0  0  0  0  0  0  0  0  0  0
    7.1918  -11.0415   -0.9988 H   0  0  0  0  0  0  0  0  0  0  0  0
  1  2  2  0
  2  3  1  0
  3  4  2  0
  4  5  1  0
  5  6  2  0
  6  7  1  0
  7  8  2  0
  8  9  1  0
  9 10  2  0
 10 11  1  0
 11 12  2  0
  6 13  1  0
 13 14  2  0
  2 15  1  0
 15 16  1  0
 16 17  1  0
 17 18  1  0
 18 19  1  0
 19 20  2  0
 19 21  1  0
 21 22  2  0
 22 23  1  0
 23 24  2  0
 24 25  1  0
 25 26  2  0
 26 27  1  0
 27 28  1  0
 28 29  2  0
 18 30  1  0
 30 31  1  0
 14  3  1  0
 31 15  1  0
 12  7  1  0
 29 21  1  0
 28 24  1  0
  4 32  1  0
  5 33  1  0
  8 34  1  0
  9 35  1  0
 10 36  1  0
 11 37  1  0
 12 38  1  0
 13 39  1  0
 14 40  1  0
 15 41  1  0
 16 42  1  0
 16 43  1  0
 17 44  1  0
 17 45  1  0
 18 46  1  0
 22 47  1  0
 23 48  1  0
 25 49  1  0
 26 50  1  0
 27 51  1  0
 29 52  1  0
 30 53  1  0
 30 54  1  0
 31 55  1  0
 31 56  1  0
M  CHG  2  15   1  18   1
M  END
>  <meeko>  (9) 
{"is_sidechain": [false], "free_energy": -7.858, "intermolecular_energy": -9.955, "internal_energy": -0.573}

$$$$
