LIB_JDAANLOCFREMRX__M_PUB_ALL__e8__s20260927
     RDKit          3D

 49 53  0  0  0  0  0  0  0  0999 V2000
    3.9330  -13.9080   -5.3970 F   0  0  0  0  0  0  0  0  0  0  0  0
    3.5380  -12.7890   -4.7770 C   0  0  0  0  0  0  0  0  0  0  0  0
    3.8040  -11.5540   -5.3520 C   0  0  0  0  0  0  0  0  0  0  0  0
    3.3920  -10.3920   -4.7030 C   0  0  0  0  0  0  0  0  0  0  0  0
    2.7150  -10.4720   -3.4800 C   0  0  0  0  0  0  0  0  0  0  0  0
    2.4480  -11.7230   -2.9010 C   0  0  0  0  0  0  0  0  0  0  0  0
    1.7610  -11.8340   -1.6610 N   0  0  0  0  0  0  0  0  0  0  0  0
    1.0700  -10.8490   -0.9790 C   0  0  0  0  0  0  0  0  0  0  0  0
    0.5750  -11.4380    0.1520 C   0  0  0  0  0  0  0  0  0  0  0  0
    0.9970  -12.7980    0.1090 C   0  0  0  0  0  0  0  0  0  0  0  0
    1.7300  -13.0300   -0.9910 N   0  0  0  0  0  0  0  0  0  0  0  0
    0.6220  -13.6560    1.1580 C   0  0  0  0  0  0  0  0  0  0  0  0
    1.0720  -15.0220    1.1680 N   0  0  0  0  0  0  0  0  0  0  0  0
    1.9970  -15.3220    2.3010 C   0  0  0  0  0  0  0  0  0  0  0  0
    3.3260  -14.6000    2.0380 C   0  0  0  0  0  0  0  0  0  0  0  0
    4.1180  -15.2100    0.8820 C   0  0  0  0  0  0  0  0  0  0  0  0
    4.3360  -16.7060    1.0790 C   0  0  0  0  0  0  0  0  0  0  0  0
    3.0230  -17.4480    1.3100 C   0  0  0  0  0  0  0  0  0  0  0  0
    2.2210  -16.8330    2.4570 C   0  0  0  0  0  0  0  0  0  0  0  0
   -0.0960  -13.1510    2.1850 N   0  0  0  0  0  0  0  0  0  0  0  0
   -0.4900  -11.8320    2.1930 C   0  0  0  0  0  0  0  0  0  0  0  0
   -1.2400  -11.3810    3.2660 C   0  0  0  0  0  0  0  0  0  0  0  0
   -1.6870  -10.0530    3.3650 C   0  0  0  0  0  0  0  0  0  0  0  0
   -1.3880   -9.1270    2.3680 C   0  0  0  0  0  0  0  0  0  0  0  0
   -0.6380   -9.5190    1.2670 C   0  0  0  0  0  0  0  0  0  0  0  0
   -0.1960  -10.8580    1.1840 C   0  0  0  0  0  0  0  0  0  0  0  0
    2.8670  -12.8870   -3.5620 C   0  0  0  0  0  0  0  0  0  0  0  0
    4.3361  -11.4931   -6.3128 H   0  0  0  0  0  0  0  0  0  0  0  0
    3.5990   -9.4096   -5.1524 H   0  0  0  0  0  0  0  0  0  0  0  0
    2.3913   -9.5520   -2.9712 H   0  0  0  0  0  0  0  0  0  0  0  0
    0.9436   -9.8001   -1.2853 H   0  0  0  0  0  0  0  0  0  0  0  0
    1.5430  -15.1450    0.2660 H   0  0  0  0  0  0  0  0  0  0  0  0
    0.2270  -15.6110    1.1720 H   0  0  0  0  0  0  0  0  0  0  0  0
    1.5517  -14.9667    3.2420 H   0  0  0  0  0  0  0  0  0  0  0  0
    3.1121  -13.5476    1.7997 H   0  0  0  0  0  0  0  0  0  0  0  0
    3.9395  -14.6988    2.9457 H   0  0  0  0  0  0  0  0  0  0  0  0
    3.5632  -15.0503   -0.0543 H   0  0  0  0  0  0  0  0  0  0  0  0
    5.1025  -14.7209    0.8435 H   0  0  0  0  0  0  0  0  0  0  0  0
    4.8225  -17.1155    0.1814 H   0  0  0  0  0  0  0  0  0  0  0  0
    4.9661  -16.8437    1.9701 H   0  0  0  0  0  0  0  0  0  0  0  0
    2.4215  -17.4032    0.3901 H   0  0  0  0  0  0  0  0  0  0  0  0
    3.2592  -18.4889    1.5759 H   0  0  0  0  0  0  0  0  0  0  0  0
    1.2399  -17.3284    2.5017 H   0  0  0  0  0  0  0  0  0  0  0  0
    2.8036  -16.9822    3.3780 H   0  0  0  0  0  0  0  0  0  0  0  0
   -1.4948  -12.0878    4.0695 H   0  0  0  0  0  0  0  0  0  0  0  0
   -2.2789   -9.7412    4.2382 H   0  0  0  0  0  0  0  0  0  0  0  0
   -1.7445   -8.0898    2.4526 H   0  0  0  0  0  0  0  0  0  0  0  0
   -0.3922   -8.7988    0.4727 H   0  0  0  0  0  0  0  0  0  0  0  0
    2.6657  -13.8745   -3.1211 H   0  0  0  0  0  0  0  0  0  0  0  0
  1  2  1  0
  2  3  2  0
  3  4  1  0
  4  5  2  0
  5  6  1  0
  6  7  1  0
  7  8  1  0
  8  9  2  0
  9 10  1  0
 10 11  2  0
 10 12  1  0
 12 13  1  0
 13 14  1  0
 14 15  1  0
 15 16  1  0
 16 17  1  0
 17 18  1  0
 18 19  1  0
 12 20  2  0
 20 21  1  0
 21 22  2  0
 22 23  1  0
 23 24  2  0
 24 25  1  0
 25 26  2  0
  6 27  2  0
 27  2  1  0
 11  7  1  0
 19 14  1  0
 26 21  1  0
 26  9  1  0
  3 28  1  0
  4 29  1  0
  5 30  1  0
  8 31  1  0
 13 32  1  0
 13 33  1  0
 14 34  1  0
 15 35  1  0
 15 36  1  0
 16 37  1  0
 16 38  1  0
 17 39  1  0
 17 40  1  0
 18 41  1  0
 18 42  1  0
 19 43  1  0
 19 44  1  0
 22 45  1  0
 23 46  1  0
 24 47  1  0
 25 48  1  0
 27 49  1  0
M  CHG  1  13   1
M  END
>  <meeko>  (1) 
{"is_sidechain": [false], "free_energy": -7.974, "intermolecular_energy": -9.372, "internal_energy": -0.862}

$$$$
LIB_JDAANLOCFREMRX__M_PUB_ALL__e8__s20260927
     RDKit          3D

 49 53  0  0  0  0  0  0  0  0999 V2000
   -1.9010   -8.5260    2.5310 F   0  0  0  0  0  0  0  0  0  0  0  0
   -1.4160   -9.7730    2.4910 C   0  0  0  0  0  0  0  0  0  0  0  0
   -1.6260  -10.6270    3.5650 C   0  0  0  0  0  0  0  0  0  0  0  0
   -1.1190  -11.9230    3.5190 C   0  0  0  0  0  0  0  0  0  0  0  0
   -0.4040  -12.3610    2.3960 C   0  0  0  0  0  0  0  0  0  0  0  0
   -0.1940  -11.4940    1.3120 C   0  0  0  0  0  0  0  0  0  0  0  0
    0.5260  -11.9110    0.1590 N   0  0  0  0  0  0  0  0  0  0  0  0
    1.0840  -11.1200   -0.8280 C   0  0  0  0  0  0  0  0  0  0  0  0
    1.6800  -11.9750   -1.7160 C   0  0  0  0  0  0  0  0  0  0  0  0
    1.4530  -13.2880   -1.2150 C   0  0  0  0  0  0  0  0  0  0  0  0
    0.7380  -13.2450   -0.0800 N   0  0  0  0  0  0  0  0  0  0  0  0
    1.9660  -14.3830   -1.9330 C   0  0  0  0  0  0  0  0  0  0  0  0
    1.7130  -15.7250   -1.4800 N   0  0  0  0  0  0  0  0  0  0  0  0
    2.9620  -16.4700   -1.1390 C   0  0  0  0  0  0  0  0  0  0  0  0
    2.5770  -17.9160   -0.7950 C   0  0  0  0  0  0  0  0  0  0  0  0
    1.8280  -18.0350    0.5320 C   0  0  0  0  0  0  0  0  0  0  0  0
    2.6030  -17.3860    1.6740 C   0  0  0  0  0  0  0  0  0  0  0  0
    2.9670  -15.9370    1.3650 C   0  0  0  0  0  0  0  0  0  0  0  0
    3.7050  -15.8110    0.0320 C   0  0  0  0  0  0  0  0  0  0  0  0
    2.6260  -14.1510   -3.0890 N   0  0  0  0  0  0  0  0  0  0  0  0
    2.8300  -12.8670   -3.5420 C   0  0  0  0  0  0  0  0  0  0  0  0
    3.5300  -12.6960   -4.7250 C   0  0  0  0  0  0  0  0  0  0  0  0
    3.7880  -11.4260   -5.2670 C   0  0  0  0  0  0  0  0  0  0  0  0
    3.3410  -10.2740   -4.6230 C   0  0  0  0  0  0  0  0  0  0  0  0
    2.6320  -10.3810   -3.4330 C   0  0  0  0  0  0  0  0  0  0  0  0
    2.3810  -11.6650   -2.9020 C   0  0  0  0  0  0  0  0  0  0  0  0
   -0.7080  -10.1900    1.3680 C   0  0  0  0  0  0  0  0  0  0  0  0
   -2.1884  -10.2826    4.4454 H   0  0  0  0  0  0  0  0  0  0  0  0
   -1.2802  -12.6052    4.3667 H   0  0  0  0  0  0  0  0  0  0  0  0
   -0.0066  -13.3862    2.3639 H   0  0  0  0  0  0  0  0  0  0  0  0
    1.0550  -10.0220   -0.8880 H   0  0  0  0  0  0  0  0  0  0  0  0
    1.2200  -16.1710   -2.2600 H   0  0  0  0  0  0  0  0  0  0  0  0
    1.0600  -15.6510   -0.6880 H   0  0  0  0  0  0  0  0  0  0  0  0
    3.6465  -16.4543   -1.9999 H   0  0  0  0  0  0  0  0  0  0  0  0
    1.9339  -18.3077   -1.5969 H   0  0  0  0  0  0  0  0  0  0  0  0
    3.5099  -18.4909   -0.6990 H   0  0  0  0  0  0  0  0  0  0  0  0
    0.8510  -17.5388    0.4362 H   0  0  0  0  0  0  0  0  0  0  0  0
    1.7049  -19.1034    0.7631 H   0  0  0  0  0  0  0  0  0  0  0  0
    1.9839  -17.4108    2.5829 H   0  0  0  0  0  0  0  0  0  0  0  0
    3.5374  -17.9491    1.8144 H   0  0  0  0  0  0  0  0  0  0  0  0
    2.0444  -15.3397    1.3195 H   0  0  0  0  0  0  0  0  0  0  0  0
    3.6332  -15.5736    2.1613 H   0  0  0  0  0  0  0  0  0  0  0  0
    3.8360  -14.7426   -0.1948 H   0  0  0  0  0  0  0  0  0  0  0  0
    4.6671  -16.3328    0.1420 H   0  0  0  0  0  0  0  0  0  0  0  0
    3.8965  -13.5854   -5.2584 H   0  0  0  0  0  0  0  0  0  0  0  0
    4.3487  -11.3400   -6.2095 H   0  0  0  0  0  0  0  0  0  0  0  0
    3.5486   -9.2839   -5.0550 H   0  0  0  0  0  0  0  0  0  0  0  0
    2.2723   -9.4807   -2.9133 H   0  0  0  0  0  0  0  0  0  0  0  0
   -0.5518   -9.4990    0.5265 H   0  0  0  0  0  0  0  0  0  0  0  0
  1  2  1  0
  2  3  2  0
  3  4  1  0
  4  5  2  0
  5  6  1  0
  6  7  1  0
  7  8  1  0
  8  9  2  0
  9 10  1  0
 10 11  2  0
 10 12  1  0
 12 13  1  0
 13 14  1  0
 14 15  1  0
 15 16  1  0
 16 17  1  0
 17 18  1  0
 18 19  1  0
 12 20  2  0
 20 21  1  0
 21 22  2  0
 22 23  1  0
 23 24  2  0
 24 25  1  0
 25 26  2  0
  6 27  2  0
 27  2  1  0
 11  7  1  0
 19 14  1  0
 26 21  1  0
 26  9  1  0
  3 28  1  0
  4 29  1  0
  5 30  1  0
  8 31  1  0
 13 32  1  0
 13 33  1  0
 14 34  1  0
 15 35  1  0
 15 36  1  0
 16 37  1  0
 16 38  1  0
 17 39  1  0
 17 40  1  0
 18 41  1  0
 18 42  1  0
 19 43  1  0
 19 44  1  0
 22 45  1  0
 23 46  1  0
 24 47  1  0
 25 48  1  0
 27 49  1  0
M  CHG  1  13   1
M  END
>  <meeko>  (2) 
{"is_sidechain": [false], "free_energy": -7.961, "intermolecular_energy": -9.347, "internal_energy": -0.872}

$$$$
LIB_JDAANLOCFREMRX__M_PUB_ALL__e8__s20260927
     RDKit          3D

 49 53  0  0  0  0  0  0  0  0999 V2000
    7.7000  -10.4370  -11.1390 F   0  0  0  0  0  0  0  0  0  0  0  0
    7.3720  -11.6410  -10.6520 C   0  0  0  0  0  0  0  0  0  0  0  0
    7.6750  -12.7820  -11.3820 C   0  0  0  0  0  0  0  0  0  0  0  0
    7.3330  -14.0320  -10.8710 C   0  0  0  0  0  0  0  0  0  0  0  0
    6.6880  -14.1350   -9.6320 C   0  0  0  0  0  0  0  0  0  0  0  0
    6.3830  -12.9770   -8.8980 C   0  0  0  0  0  0  0  0  0  0  0  0
    5.7300  -13.0510   -7.6370 N   0  0  0  0  0  0  0  0  0  0  0  0
    5.0410  -12.0520   -6.9750 C   0  0  0  0  0  0  0  0  0  0  0  0
    4.5860  -12.6040   -5.8090 C   0  0  0  0  0  0  0  0  0  0  0  0
    5.0290  -13.9570   -5.8110 C   0  0  0  0  0  0  0  0  0  0  0  0
    5.7370  -14.2210   -6.9210 N   0  0  0  0  0  0  0  0  0  0  0  0
    4.6950  -14.7800   -4.7210 C   0  0  0  0  0  0  0  0  0  0  0  0
    5.1680  -16.1370   -4.6700 N   0  0  0  0  0  0  0  0  0  0  0  0
    6.0800  -16.3930   -3.5150 C   0  0  0  0  0  0  0  0  0  0  0  0
    7.4410  -15.7560   -3.8300 C   0  0  0  0  0  0  0  0  0  0  0  0
    8.2030  -16.4890   -4.9350 C   0  0  0  0  0  0  0  0  0  0  0  0
    8.3500  -17.9750   -4.6240 C   0  0  0  0  0  0  0  0  0  0  0  0
    7.0040  -18.6340   -4.3400 C   0  0  0  0  0  0  0  0  0  0  0  0
    6.2330  -17.8970   -3.2450 C   0  0  0  0  0  0  0  0  0  0  0  0
    3.9960  -14.2470   -3.6950 N   0  0  0  0  0  0  0  0  0  0  0  0
    3.5800  -12.9350   -3.7270 C   0  0  0  0  0  0  0  0  0  0  0  0
    2.8510  -12.4540   -2.6520 C   0  0  0  0  0  0  0  0  0  0  0  0
    2.3840  -11.1310   -2.5940 C   0  0  0  0  0  0  0  0  0  0  0  0
    2.6420  -10.2390   -3.6330 C   0  0  0  0  0  0  0  0  0  0  0  0
    3.3700  -10.6630   -4.7380 C   0  0  0  0  0  0  0  0  0  0  0  0
    3.8320  -11.9960   -4.7810 C   0  0  0  0  0  0  0  0  0  0  0  0
    6.7310  -11.7230   -9.4200 C   0  0  0  0  0  0  0  0  0  0  0  0
    8.1807  -12.6999  -12.3554 H   0  0  0  0  0  0  0  0  0  0  0  0
    7.5703  -14.9414  -11.4426 H   0  0  0  0  0  0  0  0  0  0  0  0
    6.4199  -15.1244   -9.2331 H   0  0  0  0  0  0  0  0  0  0  0  0
    4.8888  -11.0180   -7.3179 H   0  0  0  0  0  0  0  0  0  0  0  0
    5.6560  -16.2730   -5.5610 H   0  0  0  0  0  0  0  0  0  0  0  0
    4.3340  -16.7400   -4.6650 H   0  0  0  0  0  0  0  0  0  0  0  0
    5.6539  -15.9469   -2.6043 H   0  0  0  0  0  0  0  0  0  0  0  0
    7.2759  -14.7162   -4.1486 H   0  0  0  0  0  0  0  0  0  0  0  0
    8.0505  -15.8139   -2.9162 H   0  0  0  0  0  0  0  0  0  0  0  0
    7.6557  -16.3749   -5.8824 H   0  0  0  0  0  0  0  0  0  0  0  0
    9.2095  -16.0512   -5.0079 H   0  0  0  0  0  0  0  0  0  0  0  0
    8.8151  -18.4743   -5.4868 H   0  0  0  0  0  0  0  0  0  0  0  0
    8.9741  -18.0741   -3.7236 H   0  0  0  0  0  0  0  0  0  0  0  0
    6.4041  -18.6309   -5.2620 H   0  0  0  0  0  0  0  0  0  0  0  0
    7.1915  -19.6615   -3.9948 H   0  0  0  0  0  0  0  0  0  0  0  0
    5.2297  -18.3410   -3.1656 H   0  0  0  0  0  0  0  0  0  0  0  0
    6.8091  -18.0033   -2.3139 H   0  0  0  0  0  0  0  0  0  0  0  0
    2.6302  -13.1321   -1.8145 H   0  0  0  0  0  0  0  0  0  0  0  0
    1.8083  -10.7951   -1.7189 H   0  0  0  0  0  0  0  0  0  0  0  0
    2.2713   -9.2048   -3.5787 H   0  0  0  0  0  0  0  0  0  0  0  0
    3.5829   -9.9708   -5.5660 H   0  0  0  0  0  0  0  0  0  0  0  0
    6.4979  -10.8071   -8.8572 H   0  0  0  0  0  0  0  0  0  0  0  0
  1  2  1  0
  2  3  2  0
  3  4  1  0
  4  5  2  0
  5  6  1  0
  6  7  1  0
  7  8  1  0
  8  9  2  0
  9 10  1  0
 10 11  2  0
 10 12  1  0
 12 13  1  0
 13 14  1  0
 14 15  1  0
 15 16  1  0
 16 17  1  0
 17 18  1  0
 18 19  1  0
 12 20  2  0
 20 21  1  0
 21 22  2  0
 22 23  1  0
 23 24  2  0
 24 25  1  0
 25 26  2  0
  6 27  2  0
 27  2  1  0
 11  7  1  0
 19 14  1  0
 26 21  1  0
 26  9  1  0
  3 28  1  0
  4 29  1  0
  5 30  1  0
  8 31  1  0
 13 32  1  0
 13 33  1  0
 14 34  1  0
 15 35  1  0
 15 36  1  0
 16 37  1  0
 16 38  1  0
 17 39  1  0
 17 40  1  0
 18 41  1  0
 18 42  1  0
 19 43  1  0
 19 44  1  0
 22 45  1  0
 23 46  1  0
 24 47  1  0
 25 48  1  0
 27 49  1  0
M  CHG  1  13   1
M  END
>  <meeko>  (3) 
{"is_sidechain": [false], "free_energy": -7.804, "intermolecular_energy": -9.189, "internal_energy": -0.846}

$$$$
LIB_JDAANLOCFREMRX__M_PUB_ALL__e8__s20260927
     RDKit          3D

 49 53  0  0  0  0  0  0  0  0999 V2000
    4.0610  -13.2410   -6.0070 F   0  0  0  0  0  0  0  0  0  0  0  0
    3.5620  -12.4980   -5.0110 C   0  0  0  0  0  0  0  0  0  0  0  0
    3.4920  -11.1190   -5.1510 C   0  0  0  0  0  0  0  0  0  0  0  0
    2.9730  -10.3500   -4.1130 C   0  0  0  0  0  0  0  0  0  0  0  0
    2.5240  -10.9660   -2.9370 C   0  0  0  0  0  0  0  0  0  0  0  0
    2.5970  -12.3610   -2.8000 C   0  0  0  0  0  0  0  0  0  0  0  0
    2.1480  -13.0130   -1.6180 N   0  0  0  0  0  0  0  0  0  0  0  0
    2.2470  -14.3540   -1.2960 C   0  0  0  0  0  0  0  0  0  0  0  0
    1.6850  -14.4950   -0.0560 C   0  0  0  0  0  0  0  0  0  0  0  0
    1.2570  -13.1950    0.3360 C   0  0  0  0  0  0  0  0  0  0  0  0
    1.5290  -12.2980   -0.6250 N   0  0  0  0  0  0  0  0  0  0  0  0
    0.6390  -13.0360    1.5890 C   0  0  0  0  0  0  0  0  0  0  0  0
    0.1520  -11.7440    1.9940 N   0  0  0  0  0  0  0  0  0  0  0  0
   -1.2900  -11.7620    2.3840 C   0  0  0  0  0  0  0  0  0  0  0  0
   -2.1330  -11.6840    1.1030 C   0  0  0  0  0  0  0  0  0  0  0  0
   -2.0610  -10.3170    0.4230 C   0  0  0  0  0  0  0  0  0  0  0  0
   -2.4200   -9.1910    1.3870 C   0  0  0  0  0  0  0  0  0  0  0  0
   -1.5700   -9.2310    2.6540 C   0  0  0  0  0  0  0  0  0  0  0  0
   -1.6290  -10.6020    3.3300 C   0  0  0  0  0  0  0  0  0  0  0  0
    0.4440  -14.1270    2.3610 N   0  0  0  0  0  0  0  0  0  0  0  0
    0.8750  -15.3700    1.9530 C   0  0  0  0  0  0  0  0  0  0  0  0
    0.6620  -16.4450    2.7980 C   0  0  0  0  0  0  0  0  0  0  0  0
    1.0640  -17.7500    2.4690 C   0  0  0  0  0  0  0  0  0  0  0  0
    1.7030  -18.0130    1.2590 C   0  0  0  0  0  0  0  0  0  0  0  0
    1.9450  -16.9740    0.3690 C   0  0  0  0  0  0  0  0  0  0  0  0
    1.5330  -15.6690    0.7150 C   0  0  0  0  0  0  0  0  0  0  0  0
    3.1220  -13.1270   -3.8500 C   0  0  0  0  0  0  0  0  0  0  0  0
    3.8439  -10.6373   -6.0752 H   0  0  0  0  0  0  0  0  0  0  0  0
    2.9152   -9.2564   -4.2161 H   0  0  0  0  0  0  0  0  0  0  0  0
    2.1135  -10.3550   -2.1196 H   0  0  0  0  0  0  0  0  0  0  0  0
    2.6895  -15.1494   -1.9136 H   0  0  0  0  0  0  0  0  0  0  0  0
    0.3040  -11.1440    1.1770 H   0  0  0  0  0  0  0  0  0  0  0  0
    0.7690  -11.4200    2.7510 H   0  0  0  0  0  0  0  0  0  0  0  0
   -1.5119  -12.6919    2.9280 H   0  0  0  0  0  0  0  0  0  0  0  0
   -1.7700  -12.4460    0.3976 H   0  0  0  0  0  0  0  0  0  0  0  0
   -3.1816  -11.8548    1.3882 H   0  0  0  0  0  0  0  0  0  0  0  0
   -1.0381  -10.1565    0.0516 H   0  0  0  0  0  0  0  0  0  0  0  0
   -2.7856  -10.3057   -0.4045 H   0  0  0  0  0  0  0  0  0  0  0  0
   -2.2601   -8.2268    0.8823 H   0  0  0  0  0  0  0  0  0  0  0  0
   -3.4728   -9.3168    1.6798 H   0  0  0  0  0  0  0  0  0  0  0  0
   -0.5257   -9.0080    2.3902 H   0  0  0  0  0  0  0  0  0  0  0  0
   -1.9663   -8.4838    3.3573 H   0  0  0  0  0  0  0  0  0  0  0  0
   -0.9118  -10.6109    4.1640 H   0  0  0  0  0  0  0  0  0  0  0  0
   -2.6640  -10.7522    3.6708 H   0  0  0  0  0  0  0  0  0  0  0  0
    0.1602  -16.2714    3.7613 H   0  0  0  0  0  0  0  0  0  0  0  0
    0.8725  -18.5727    3.1736 H   0  0  0  0  0  0  0  0  0  0  0  0
    2.0143  -19.0382    1.0097 H   0  0  0  0  0  0  0  0  0  0  0  0
    2.4494  -17.1652   -0.5896 H   0  0  0  0  0  0  0  0  0  0  0  0
    3.1860  -14.2212   -3.7567 H   0  0  0  0  0  0  0  0  0  0  0  0
  1  2  1  0
  2  3  2  0
  3  4  1  0
  4  5  2  0
  5  6  1  0
  6  7  1  0
  7  8  1  0
  8  9  2  0
  9 10  1  0
 10 11  2  0
 10 12  1  0
 12 13  1  0
 13 14  1  0
 14 15  1  0
 15 16  1  0
 16 17  1  0
 17 18  1  0
 18 19  1  0
 12 20  2  0
 20 21  1  0
 21 22  2  0
 22 23  1  0
 23 24  2  0
 24 25  1  0
 25 26  2  0
  6 27  2  0
 27  2  1  0
 11  7  1  0
 19 14  1  0
 26 21  1  0
 26  9  1  0
  3 28  1  0
  4 29  1  0
  5 30  1  0
  8 31  1  0
 13 32  1  0
 13 33  1  0
 14 34  1  0
 15 35  1  0
 15 36  1  0
 16 37  1  0
 16 38  1  0
 17 39  1  0
 17 40  1  0
 18 41  1  0
 18 42  1  0
 19 43  1  0
 19 44  1  0
 22 45  1  0
 23 46  1  0
 24 47  1  0
 25 48  1  0
 27 49  1  0
M  CHG  1  13   1
M  END
>  <meeko>  (4) 
{"is_sidechain": [false], "free_energy": -7.791, "intermolecular_energy": -9.194, "internal_energy": -0.825}

$$$$
LIB_JDAANLOCFREMRX__M_PUB_ALL__e8__s20260927
     RDKit          3D

 49 53  0  0  0  0  0  0  0  0999 V2000
   -7.0590  -15.9720   -9.8020 F   0  0  0  0  0  0  0  0  0  0  0  0
   -7.9280  -16.0900   -8.7890 C   0  0  0  0  0  0  0  0  0  0  0  0
   -7.5300  -16.7090   -7.6120 C   0  0  0  0  0  0  0  0  0  0  0  0
   -8.4370  -16.8300   -6.5610 C   0  0  0  0  0  0  0  0  0  0  0  0
   -9.7390  -16.3300   -6.6940 C   0  0  0  0  0  0  0  0  0  0  0  0
  -10.1360  -15.7050   -7.8870 C   0  0  0  0  0  0  0  0  0  0  0  0
  -11.4510  -15.1870   -8.0490 N   0  0  0  0  0  0  0  0  0  0  0  0
  -11.8690  -13.8740   -7.9330 C   0  0  0  0  0  0  0  0  0  0  0  0
  -13.2140  -13.8740   -8.1880 C   0  0  0  0  0  0  0  0  0  0  0  0
  -13.5670  -15.2260   -8.4570 C   0  0  0  0  0  0  0  0  0  0  0  0
  -12.4920  -16.0240   -8.3580 N   0  0  0  0  0  0  0  0  0  0  0  0
  -14.9060  -15.5270   -8.7620 C   0  0  0  0  0  0  0  0  0  0  0  0
  -15.3050  -16.8900   -8.9920 N   0  0  0  0  0  0  0  0  0  0  0  0
  -15.6840  -17.1550  -10.4120 C   0  0  0  0  0  0  0  0  0  0  0  0
  -16.3720  -18.5260  -10.4760 C   0  0  0  0  0  0  0  0  0  0  0  0
  -15.4080  -19.6890  -10.2400 C   0  0  0  0  0  0  0  0  0  0  0  0
  -14.2130  -19.6290  -11.1850 C   0  0  0  0  0  0  0  0  0  0  0  0
  -13.4960  -18.2840  -11.1130 C   0  0  0  0  0  0  0  0  0  0  0  0
  -14.4580  -17.1180  -11.3360 C   0  0  0  0  0  0  0  0  0  0  0  0
  -15.8150  -14.5280   -8.7550 N   0  0  0  0  0  0  0  0  0  0  0  0
  -15.4380  -13.2300   -8.4940 C   0  0  0  0  0  0  0  0  0  0  0  0
  -16.4140  -12.2480   -8.5200 C   0  0  0  0  0  0  0  0  0  0  0  0
  -16.1270  -10.8970   -8.2650 C   0  0  0  0  0  0  0  0  0  0  0  0
  -14.8270  -10.4890   -7.9730 C   0  0  0  0  0  0  0  0  0  0  0  0
  -13.8040  -11.4280   -7.9310 C   0  0  0  0  0  0  0  0  0  0  0  0
  -14.1100  -12.7830   -8.1890 C   0  0  0  0  0  0  0  0  0  0  0  0
   -9.2170  -15.5890   -8.9390 C   0  0  0  0  0  0  0  0  0  0  0  0
   -6.5072  -17.1007   -7.5098 H   0  0  0  0  0  0  0  0  0  0  0  0
   -8.1300  -17.3192   -5.6248 H   0  0  0  0  0  0  0  0  0  0  0  0
  -10.4518  -16.4273   -5.8619 H   0  0  0  0  0  0  0  0  0  0  0  0
  -11.2449  -13.0028   -7.6851 H   0  0  0  0  0  0  0  0  0  0  0  0
  -16.1030  -17.0340   -8.3650 H   0  0  0  0  0  0  0  0  0  0  0  0
  -14.5300  -17.4840   -8.6660 H   0  0  0  0  0  0  0  0  0  0  0  0
  -16.3702  -16.3694  -10.7613 H   0  0  0  0  0  0  0  0  0  0  0  0
  -17.1577  -18.5603   -9.7070 H   0  0  0  0  0  0  0  0  0  0  0  0
  -16.7844  -18.6405  -11.4893 H   0  0  0  0  0  0  0  0  0  0  0  0
  -15.0450  -19.6467   -9.2025 H   0  0  0  0  0  0  0  0  0  0  0  0
  -15.9491  -20.6278  -10.4292 H   0  0  0  0  0  0  0  0  0  0  0  0
  -13.5041  -20.4247  -10.9124 H   0  0  0  0  0  0  0  0  0  0  0  0
  -14.5841  -19.7623  -12.2119 H   0  0  0  0  0  0  0  0  0  0  0  0
  -13.0331  -18.1795  -10.1206 H   0  0  0  0  0  0  0  0  0  0  0  0
  -12.7356  -18.2579  -11.9074 H   0  0  0  0  0  0  0  0  0  0  0  0
  -13.9147  -16.1784  -11.1573 H   0  0  0  0  0  0  0  0  0  0  0  0
  -14.8272  -17.1941  -12.3694 H   0  0  0  0  0  0  0  0  0  0  0  0
  -17.4507  -12.5362   -8.7484 H   0  0  0  0  0  0  0  0  0  0  0  0
  -16.9369  -10.1532   -8.2961 H   0  0  0  0  0  0  0  0  0  0  0  0
  -14.6118   -9.4283   -7.7766 H   0  0  0  0  0  0  0  0  0  0  0  0
  -12.7729  -11.1217   -7.7007 H   0  0  0  0  0  0  0  0  0  0  0  0
   -9.5141  -15.1033   -9.8802 H   0  0  0  0  0  0  0  0  0  0  0  0
  1  2  1  0
  2  3  2  0
  3  4  1  0
  4  5  2  0
  5  6  1  0
  6  7  1  0
  7  8  1  0
  8  9  2  0
  9 10  1  0
 10 11  2  0
 10 12  1  0
 12 13  1  0
 13 14  1  0
 14 15  1  0
 15 16  1  0
 16 17  1  0
 17 18  1  0
 18 19  1  0
 12 20  2  0
 20 21  1  0
 21 22  2  0
 22 23  1  0
 23 24  2  0
 24 25  1  0
 25 26  2  0
  6 27  2  0
 27  2  1  0
 11  7  1  0
 19 14  1  0
 26 21  1  0
 26  9  1  0
  3 28  1  0
  4 29  1  0
  5 30  1  0
  8 31  1  0
 13 32  1  0
 13 33  1  0
 14 34  1  0
 15 35  1  0
 15 36  1  0
 16 37  1  0
 16 38  1  0
 17 39  1  0
 17 40  1  0
 18 41  1  0
 18 42  1  0
 19 43  1  0
 19 44  1  0
 22 45  1  0
 23 46  1  0
 24 47  1  0
 25 48  1  0
 27 49  1  0
M  CHG  1  13   1
M  END
>  <meeko>  (5) 
{"is_sidechain": [false], "free_energy": -7.742, "intermolecular_energy": -9.117, "internal_energy": -0.845}

$$$$
LIB_JDAANLOCFREMRX__M_PUB_ALL__e8__s20260927
     RDKit          3D

 49 53  0  0  0  0  0  0  0  0999 V2000
  -16.5420  -17.3820   -6.8420 F   0  0  0  0  0  0  0  0  0  0  0  0
  -15.2990  -16.9860   -6.5420 C   0  0  0  0  0  0  0  0  0  0  0  0
  -14.7270  -17.3720   -5.3370 C   0  0  0  0  0  0  0  0  0  0  0  0
  -13.4340  -16.9570   -5.0280 C   0  0  0  0  0  0  0  0  0  0  0  0
  -12.7170  -16.1580   -5.9280 C   0  0  0  0  0  0  0  0  0  0  0  0
  -13.2990  -15.7710   -7.1450 C   0  0  0  0  0  0  0  0  0  0  0  0
  -12.5940  -14.9610   -8.0790 N   0  0  0  0  0  0  0  0  0  0  0  0
  -11.9670  -15.3570   -9.2460 C   0  0  0  0  0  0  0  0  0  0  0  0
  -11.4420  -14.2230   -9.8040 C   0  0  0  0  0  0  0  0  0  0  0  0
  -11.7820  -13.1540   -8.9280 C   0  0  0  0  0  0  0  0  0  0  0  0
  -12.4730  -13.6110   -7.8720 N   0  0  0  0  0  0  0  0  0  0  0  0
  -11.3710  -11.8510   -9.2590 C   0  0  0  0  0  0  0  0  0  0  0  0
  -11.6570  -10.7560   -8.3710 N   0  0  0  0  0  0  0  0  0  0  0  0
  -12.5490   -9.7280   -8.9830 C   0  0  0  0  0  0  0  0  0  0  0  0
  -12.7940   -8.6260   -7.9410 C   0  0  0  0  0  0  0  0  0  0  0  0
  -13.6780   -9.0860   -6.7820 C   0  0  0  0  0  0  0  0  0  0  0  0
  -14.9940   -9.6740   -7.2790 C   0  0  0  0  0  0  0  0  0  0  0  0
  -14.7720  -10.7940   -8.2910 C   0  0  0  0  0  0  0  0  0  0  0  0
  -13.8780  -10.3420   -9.4460 C   0  0  0  0  0  0  0  0  0  0  0  0
  -10.6380  -11.6660  -10.3790 N   0  0  0  0  0  0  0  0  0  0  0  0
  -10.3290  -12.7220  -11.2060 C   0  0  0  0  0  0  0  0  0  0  0  0
   -9.5910  -12.4630  -12.3480 C   0  0  0  0  0  0  0  0  0  0  0  0
   -9.2270  -13.4750  -13.2520 C   0  0  0  0  0  0  0  0  0  0  0  0
   -9.6030  -14.7980  -13.0280 C   0  0  0  0  0  0  0  0  0  0  0  0
  -10.3440  -15.1200  -11.8990 C   0  0  0  0  0  0  0  0  0  0  0  0
  -10.7010  -14.0910  -11.0000 C   0  0  0  0  0  0  0  0  0  0  0  0
  -14.6020  -16.1920   -7.4470 C   0  0  0  0  0  0  0  0  0  0  0  0
  -15.2907  -18.0006   -4.6320 H   0  0  0  0  0  0  0  0  0  0  0  0
  -12.9745  -17.2574   -4.0748 H   0  0  0  0  0  0  0  0  0  0  0  0
  -11.6956  -15.8333   -5.6803 H   0  0  0  0  0  0  0  0  0  0  0  0
  -11.9029  -16.3796   -9.6461 H   0  0  0  0  0  0  0  0  0  0  0  0
  -10.7380  -10.3600   -8.1460 H   0  0  0  0  0  0  0  0  0  0  0  0
  -12.0470  -11.1680   -7.5120 H   0  0  0  0  0  0  0  0  0  0  0  0
  -12.0641   -9.3065   -9.8759 H   0  0  0  0  0  0  0  0  0  0  0  0
  -11.8232   -8.3049   -7.5354 H   0  0  0  0  0  0  0  0  0  0  0  0
  -13.3190   -7.8036   -8.4490 H   0  0  0  0  0  0  0  0  0  0  0  0
  -13.1399   -9.8525   -6.2050 H   0  0  0  0  0  0  0  0  0  0  0  0
  -13.9068   -8.2112   -6.1556 H   0  0  0  0  0  0  0  0  0  0  0  0
  -15.5504  -10.0766   -6.4197 H   0  0  0  0  0  0  0  0  0  0  0  0
  -15.5585   -8.8720   -7.7772 H   0  0  0  0  0  0  0  0  0  0  0  0
  -14.2949  -11.6448   -7.7825 H   0  0  0  0  0  0  0  0  0  0  0  0
  -15.7497  -11.0810   -8.7055 H   0  0  0  0  0  0  0  0  0  0  0  0
  -13.6576  -11.2145  -10.0786 H   0  0  0  0  0  0  0  0  0  0  0  0
  -14.4244   -9.5597   -9.9932 H   0  0  0  0  0  0  0  0  0  0  0  0
   -9.2786  -11.4288  -12.5550 H   0  0  0  0  0  0  0  0  0  0  0  0
   -8.6390  -13.2203  -14.1461 H   0  0  0  0  0  0  0  0  0  0  0  0
   -9.3141  -15.5832  -13.7421 H   0  0  0  0  0  0  0  0  0  0  0  0
  -10.6481  -16.1597  -11.7078 H   0  0  0  0  0  0  0  0  0  0  0  0
  -15.0715  -15.8954   -8.3965 H   0  0  0  0  0  0  0  0  0  0  0  0
  1  2  1  0
  2  3  2  0
  3  4  1  0
  4  5  2  0
  5  6  1  0
  6  7  1  0
  7  8  1  0
  8  9  2  0
  9 10  1  0
 10 11  2  0
 10 12  1  0
 12 13  1  0
 13 14  1  0
 14 15  1  0
 15 16  1  0
 16 17  1  0
 17 18  1  0
 18 19  1  0
 12 20  2  0
 20 21  1  0
 21 22  2  0
 22 23  1  0
 23 24  2  0
 24 25  1  0
 25 26  2  0
  6 27  2  0
 27  2  1  0
 11  7  1  0
 19 14  1  0
 26 21  1  0
 26  9  1  0
  3 28  1  0
  4 29  1  0
  5 30  1  0
  8 31  1  0
 13 32  1  0
 13 33  1  0
 14 34  1  0
 15 35  1  0
 15 36  1  0
 16 37  1  0
 16 38  1  0
 17 39  1  0
 17 40  1  0
 18 41  1  0
 18 42  1  0
 19 43  1  0
 19 44  1  0
 22 45  1  0
 23 46  1  0
 24 47  1  0
 25 48  1  0
 27 49  1  0
M  CHG  1  13   1
M  END
>  <meeko>  (6) 
{"is_sidechain": [false], "free_energy": -7.493, "intermolecular_energy": -8.819, "internal_energy": -0.849}

$$$$
LIB_JDAANLOCFREMRX__M_PUB_ALL__e8__s20260927
     RDKit          3D

 49 53  0  0  0  0  0  0  0  0999 V2000
    3.7340  -19.7820   -0.2170 F   0  0  0  0  0  0  0  0  0  0  0  0
    3.1200  -18.7960    0.4480 C   0  0  0  0  0  0  0  0  0  0  0  0
    2.5920  -19.0420    1.7080 C   0  0  0  0  0  0  0  0  0  0  0  0
    1.9540  -18.0130    2.3970 C   0  0  0  0  0  0  0  0  0  0  0  0
    1.8480  -16.7400    1.8210 C   0  0  0  0  0  0  0  0  0  0  0  0
    2.3830  -16.4960    0.5470 C   0  0  0  0  0  0  0  0  0  0  0  0
    2.2910  -15.2130   -0.0620 N   0  0  0  0  0  0  0  0  0  0  0  0
    2.7680  -14.8220   -1.2990 C   0  0  0  0  0  0  0  0  0  0  0  0
    2.4300  -13.5040   -1.4430 C   0  0  0  0  0  0  0  0  0  0  0  0
    1.7390  -13.1390   -0.2530 C   0  0  0  0  0  0  0  0  0  0  0  0
    1.6690  -14.1800    0.5910 N   0  0  0  0  0  0  0  0  0  0  0  0
    1.2620  -11.8220   -0.1250 C   0  0  0  0  0  0  0  0  0  0  0  0
    0.6020  -11.4090    1.0850 N   0  0  0  0  0  0  0  0  0  0  0  0
   -0.8750  -11.6210    1.0450 C   0  0  0  0  0  0  0  0  0  0  0  0
   -1.5410  -10.2840    0.6860 C   0  0  0  0  0  0  0  0  0  0  0  0
   -1.4530   -9.2520    1.8110 C   0  0  0  0  0  0  0  0  0  0  0  0
   -2.0010   -9.8040    3.1230 C   0  0  0  0  0  0  0  0  0  0  0  0
   -1.3280  -11.1170    3.5140 C   0  0  0  0  0  0  0  0  0  0  0  0
   -1.4030  -12.1470    2.3860 C   0  0  0  0  0  0  0  0  0  0  0  0
    1.5060  -10.9430   -1.1210 N   0  0  0  0  0  0  0  0  0  0  0  0
    2.1740  -11.3310   -2.2610 C   0  0  0  0  0  0  0  0  0  0  0  0
    2.3760  -10.3870   -3.2530 C   0  0  0  0  0  0  0  0  0  0  0  0
    3.0470  -10.6870   -4.4490 C   0  0  0  0  0  0  0  0  0  0  0  0
    3.5410  -11.9680   -4.6850 C   0  0  0  0  0  0  0  0  0  0  0  0
    3.3700  -12.9580   -3.7270 C   0  0  0  0  0  0  0  0  0  0  0  0
    2.6940  -12.6400   -2.5290 C   0  0  0  0  0  0  0  0  0  0  0  0
    3.0230  -17.5380   -0.1390 C   0  0  0  0  0  0  0  0  0  0  0  0
    2.6767  -20.0417    2.1589 H   0  0  0  0  0  0  0  0  0  0  0  0
    1.5324  -18.2002    3.3956 H   0  0  0  0  0  0  0  0  0  0  0  0
    1.3442  -15.9301    2.3689 H   0  0  0  0  0  0  0  0  0  0  0  0
    3.3113  -15.4463   -2.0236 H   0  0  0  0  0  0  0  0  0  0  0  0
    0.8290  -10.4130    1.1740 H   0  0  0  0  0  0  0  0  0  0  0  0
    1.0600  -11.9120    1.8570 H   0  0  0  0  0  0  0  0  0  0  0  0
   -1.1155  -12.3813    0.2873 H   0  0  0  0  0  0  0  0  0  0  0  0
   -1.0450   -9.8735   -0.2059 H   0  0  0  0  0  0  0  0  0  0  0  0
   -2.6074  -10.4852    0.5065 H   0  0  0  0  0  0  0  0  0  0  0  0
   -0.3997   -8.9695    1.9548 H   0  0  0  0  0  0  0  0  0  0  0  0
   -2.0582   -8.3790    1.5254 H   0  0  0  0  0  0  0  0  0  0  0  0
   -1.8283   -9.0651    3.9193 H   0  0  0  0  0  0  0  0  0  0  0  0
   -3.0752   -9.9987    2.9884 H   0  0  0  0  0  0  0  0  0  0  0  0
   -0.2713  -10.9205    3.7480 H   0  0  0  0  0  0  0  0  0  0  0  0
   -1.8550  -11.5262    4.3885 H   0  0  0  0  0  0  0  0  0  0  0  0
   -0.8069  -13.0250    2.6753 H   0  0  0  0  0  0  0  0  0  0  0  0
   -2.4651  -12.3947    2.2423 H   0  0  0  0  0  0  0  0  0  0  0  0
    1.9974   -9.3658   -3.0987 H   0  0  0  0  0  0  0  0  0  0  0  0
    3.1841   -9.9024   -5.2077 H   0  0  0  0  0  0  0  0  0  0  0  0
    4.0641  -12.1939   -5.6259 H   0  0  0  0  0  0  0  0  0  0  0  0
    3.7550  -13.9740   -3.8985 H   0  0  0  0  0  0  0  0  0  0  0  0
    3.4473  -17.3616   -1.1384 H   0  0  0  0  0  0  0  0  0  0  0  0
  1  2  1  0
  2  3  2  0
  3  4  1  0
  4  5  2  0
  5  6  1  0
  6  7  1  0
  7  8  1  0
  8  9  2  0
  9 10  1  0
 10 11  2  0
 10 12  1  0
 12 13  1  0
 13 14  1  0
 14 15  1  0
 15 16  1  0
 16 17  1  0
 17 18  1  0
 18 19  1  0
 12 20  2  0
 20 21  1  0
 21 22  2  0
 22 23  1  0
 23 24  2  0
 24 25  1  0
 25 26  2  0
  6 27  2  0
 27  2  1  0
 11  7  1  0
 19 14  1  0
 26 21  1  0
 26  9  1  0
  3 28  1  0
  4 29  1  0
  5 30  1  0
  8 31  1  0
 13 32  1  0
 13 33  1  0
 14 34  1  0
 15 35  1  0
 15 36  1  0
 16 37  1  0
 16 38  1  0
 17 39  1  0
 17 40  1  0
 18 41  1  0
 18 42  1  0
 19 43  1  0
 19 44  1  0
 22 45  1  0
 23 46  1  0
 24 47  1  0
 25 48  1  0
 27 49  1  0
M  CHG  1  13   1
M  END
>  <meeko>  (7) 
{"is_sidechain": [false], "free_energy": -7.474, "intermolecular_energy": -8.916, "internal_energy": -0.73}

$$$$
LIB_JDAANLOCFREMRX__M_PUB_ALL__e8__s20260927
     RDKit          3D

 49 53  0  0  0  0  0  0  0  0999 V2000
    1.4830  -16.6720    4.9910 F   0  0  0  0  0  0  0  0  0  0  0  0
    1.5210  -16.7940    3.6580 C   0  0  0  0  0  0  0  0  0  0  0  0
    1.4950  -18.0570    3.0820 C   0  0  0  0  0  0  0  0  0  0  0  0
    1.5340  -18.1780    1.6950 C   0  0  0  0  0  0  0  0  0  0  0  0
    1.5980  -17.0340    0.8890 C   0  0  0  0  0  0  0  0  0  0  0  0
    1.6240  -15.7590    1.4760 C   0  0  0  0  0  0  0  0  0  0  0  0
    1.6880  -14.5800    0.6830 N   0  0  0  0  0  0  0  0  0  0  0  0
    2.1590  -14.4480   -0.6100 C   0  0  0  0  0  0  0  0  0  0  0  0
    2.0040  -13.1300   -0.9440 C   0  0  0  0  0  0  0  0  0  0  0  0
    1.4270  -12.4980    0.1930 C   0  0  0  0  0  0  0  0  0  0  0  0
    1.2480  -13.3820    1.1860 N   0  0  0  0  0  0  0  0  0  0  0  0
    1.1470  -11.1210    0.1310 C   0  0  0  0  0  0  0  0  0  0  0  0
    0.6080  -10.4420    1.2790 N   0  0  0  0  0  0  0  0  0  0  0  0
   -0.7110   -9.7970    1.0090 C   0  0  0  0  0  0  0  0  0  0  0  0
   -1.2600   -9.2550    2.3360 C   0  0  0  0  0  0  0  0  0  0  0  0
   -1.6990  -10.3600    3.2970 C   0  0  0  0  0  0  0  0  0  0  0  0
   -2.6930  -11.3120    2.6400 C   0  0  0  0  0  0  0  0  0  0  0  0
   -2.1530  -11.8880    1.3340 C   0  0  0  0  0  0  0  0  0  0  0  0
   -1.7000  -10.7860    0.3760 C   0  0  0  0  0  0  0  0  0  0  0  0
    1.4680  -10.4420   -0.9920 N   0  0  0  0  0  0  0  0  0  0  0  0
    2.0220  -11.0870   -2.0750 C   0  0  0  0  0  0  0  0  0  0  0  0
    2.3110  -10.3380   -3.2030 C   0  0  0  0  0  0  0  0  0  0  0  0
    2.8780  -10.9050   -4.3560 C   0  0  0  0  0  0  0  0  0  0  0  0
    3.1750  -12.2650   -4.4070 C   0  0  0  0  0  0  0  0  0  0  0  0
    2.9090  -13.0690   -3.3050 C   0  0  0  0  0  0  0  0  0  0  0  0
    2.3390  -12.4820   -2.1540 C   0  0  0  0  0  0  0  0  0  0  0  0
    1.5850  -15.6470    2.8730 C   0  0  0  0  0  0  0  0  0  0  0  0
    1.4440  -18.9546    3.7158 H   0  0  0  0  0  0  0  0  0  0  0  0
    1.5145  -19.1751    1.2310 H   0  0  0  0  0  0  0  0  0  0  0  0
    1.6279  -17.1349   -0.2060 H   0  0  0  0  0  0  0  0  0  0  0  0
    2.5756  -15.2442   -1.2444 H   0  0  0  0  0  0  0  0  0  0  0  0
    1.3170   -9.7430    1.5210 H   0  0  0  0  0  0  0  0  0  0  0  0
    0.5680  -11.1350    2.0400 H   0  0  0  0  0  0  0  0  0  0  0  0
   -0.5766   -8.9755    0.2899 H   0  0  0  0  0  0  0  0  0  0  0  0
   -0.4743   -8.6588    2.8230 H   0  0  0  0  0  0  0  0  0  0  0  0
   -2.1487   -8.6505    2.1019 H   0  0  0  0  0  0  0  0  0  0  0  0
   -0.8135  -10.9308    3.6134 H   0  0  0  0  0  0  0  0  0  0  0  0
   -2.1918   -9.8896    4.1606 H   0  0  0  0  0  0  0  0  0  0  0  0
   -2.9038  -12.1397    3.3332 H   0  0  0  0  0  0  0  0  0  0  0  0
   -3.6067  -10.7444    2.4097 H   0  0  0  0  0  0  0  0  0  0  0  0
   -1.2958  -12.5397    1.5590 H   0  0  0  0  0  0  0  0  0  0  0  0
   -2.9612  -12.4545    0.8483 H   0  0  0  0  0  0  0  0  0  0  0  0
   -1.2154  -11.2562   -0.4923 H   0  0  0  0  0  0  0  0  0  0  0  0
   -2.5955  -10.2135    0.0926 H   0  0  0  0  0  0  0  0  0  0  0  0
    2.0886   -9.2607   -3.1959 H   0  0  0  0  0  0  0  0  0  0  0  0
    3.0898  -10.2686   -5.2278 H   0  0  0  0  0  0  0  0  0  0  0  0
    3.6178  -12.7004   -5.3149 H   0  0  0  0  0  0  0  0  0  0  0  0
    3.1386  -14.1445   -3.3289 H   0  0  0  0  0  0  0  0  0  0  0  0
    1.6050  -14.6547    3.3473 H   0  0  0  0  0  0  0  0  0  0  0  0
  1  2  1  0
  2  3  2  0
  3  4  1  0
  4  5  2  0
  5  6  1  0
  6  7  1  0
  7  8  1  0
  8  9  2  0
  9 10  1  0
 10 11  2  0
 10 12  1  0
 12 13  1  0
 13 14  1  0
 14 15  1  0
 15 16  1  0
 16 17  1  0
 17 18  1  0
 18 19  1  0
 12 20  2  0
 20 21  1  0
 21 22  2  0
 22 23  1  0
 23 24  2  0
 24 25  1  0
 25 26  2  0
  6 27  2  0
 27  2  1  0
 11  7  1  0
 19 14  1  0
 26 21  1  0
 26  9  1  0
  3 28  1  0
  4 29  1  0
  5 30  1  0
  8 31  1  0
 13 32  1  0
 13 33  1  0
 14 34  1  0
 15 35  1  0
 15 36  1  0
 16 37  1  0
 16 38  1  0
 17 39  1  0
 17 40  1  0
 18 41  1  0
 18 42  1  0
 19 43  1  0
 19 44  1  0
 22 45  1  0
 23 46  1  0
 24 47  1  0
 25 48  1  0
 27 49  1  0
M  CHG  1  13   1
M  END
>  <meeko>  (8) 
{"is_sidechain": [false], "free_energy": -7.365, "intermolecular_energy": -8.709, "internal_energy": -0.81}

$$$$
LIB_JDAANLOCFREMRX__M_PUB_ALL__e8__s20260927
     RDKit          3D

 49 53  0  0  0  0  0  0  0  0999 V2000
    7.5390  -15.0800   -7.9980 F   0  0  0  0  0  0  0  0  0  0  0  0
    6.8220  -14.2040   -7.2830 C   0  0  0  0  0  0  0  0  0  0  0  0
    5.9120  -13.3740   -7.9240 C   0  0  0  0  0  0  0  0  0  0  0  0
    5.1680  -12.4650   -7.1760 C   0  0  0  0  0  0  0  0  0  0  0  0
    5.3380  -12.3890   -5.7880 C   0  0  0  0  0  0  0  0  0  0  0  0
    6.2600  -13.2300   -5.1440 C   0  0  0  0  0  0  0  0  0  0  0  0
    6.4530  -13.1760   -3.7350 N   0  0  0  0  0  0  0  0  0  0  0  0
    5.5440  -13.4820   -2.7400 C   0  0  0  0  0  0  0  0  0  0  0  0
    6.1940  -13.2880   -1.5510 C   0  0  0  0  0  0  0  0  0  0  0  0
    7.5110  -12.8610   -1.8840 C   0  0  0  0  0  0  0  0  0  0  0  0
    7.6590  -12.7820   -3.2160 N   0  0  0  0  0  0  0  0  0  0  0  0
    8.4170  -12.5900   -0.8440 C   0  0  0  0  0  0  0  0  0  0  0  0
    9.7400  -12.1110   -1.1460 N   0  0  0  0  0  0  0  0  0  0  0  0
   10.8120  -12.8840   -0.4510 C   0  0  0  0  0  0  0  0  0  0  0  0
   11.2370  -12.0970    0.7970 C   0  0  0  0  0  0  0  0  0  0  0  0
   12.0070  -10.8190    0.4630 C   0  0  0  0  0  0  0  0  0  0  0  0
   13.2020  -11.1040   -0.4400 C   0  0  0  0  0  0  0  0  0  0  0  0
   12.7960  -11.8580   -1.7030 C   0  0  0  0  0  0  0  0  0  0  0  0
   12.0130  -13.1300   -1.3740 C   0  0  0  0  0  0  0  0  0  0  0  0
    7.9950  -12.7110    0.4340 N   0  0  0  0  0  0  0  0  0  0  0  0
    6.7150  -13.1300    0.7200 C   0  0  0  0  0  0  0  0  0  0  0  0
    6.3500  -13.2520    2.0500 C   0  0  0  0  0  0  0  0  0  0  0  0
    5.0680  -13.6710    2.4410 C   0  0  0  0  0  0  0  0  0  0  0  0
    4.1010  -13.9850    1.4880 C   0  0  0  0  0  0  0  0  0  0  0  0
    4.4070  -13.8810    0.1380 C   0  0  0  0  0  0  0  0  0  0  0  0
    5.7010  -13.4580   -0.2390 C   0  0  0  0  0  0  0  0  0  0  0  0
    7.0040  -14.1420   -5.9050 C   0  0  0  0  0  0  0  0  0  0  0  0
    5.7798  -13.4340   -9.0144 H   0  0  0  0  0  0  0  0  0  0  0  0
    4.4447  -11.8047   -7.6769 H   0  0  0  0  0  0  0  0  0  0  0  0
    4.7483  -11.6693   -5.2012 H   0  0  0  0  0  0  0  0  0  0  0  0
    4.5046  -13.8153   -2.8764 H   0  0  0  0  0  0  0  0  0  0  0  0
    9.7350  -11.1330   -0.8410 H   0  0  0  0  0  0  0  0  0  0  0  0
    9.8320  -12.1270   -2.1710 H   0  0  0  0  0  0  0  0  0  0  0  0
   10.4241  -13.8720   -0.1624 H   0  0  0  0  0  0  0  0  0  0  0  0
   10.3346  -11.8246    1.3640 H   0  0  0  0  0  0  0  0  0  0  0  0
   11.9089  -12.7432    1.3809 H   0  0  0  0  0  0  0  0  0  0  0  0
   11.3312  -10.1186   -0.0495 H   0  0  0  0  0  0  0  0  0  0  0  0
   12.3811  -10.3869    1.4029 H   0  0  0  0  0  0  0  0  0  0  0  0
   13.6643  -10.1488   -0.7296 H   0  0  0  0  0  0  0  0  0  0  0  0
   13.9088  -11.7340    0.1199 H   0  0  0  0  0  0  0  0  0  0  0  0
   12.1671  -11.2024   -2.3232 H   0  0  0  0  0  0  0  0  0  0  0  0
   13.7117  -12.1475   -2.2394 H   0  0  0  0  0  0  0  0  0  0  0  0
   11.6463  -13.5670   -2.3145 H   0  0  0  0  0  0  0  0  0  0  0  0
   12.6990  -13.8054   -0.8418 H   0  0  0  0  0  0  0  0  0  0  0  0
    7.0902  -13.0123    2.8276 H   0  0  0  0  0  0  0  0  0  0  0  0
    4.8246  -13.7522    3.5106 H   0  0  0  0  0  0  0  0  0  0  0  0
    3.1000  -14.3137    1.8040 H   0  0  0  0  0  0  0  0  0  0  0  0
    3.6539  -14.1241   -0.6260 H   0  0  0  0  0  0  0  0  0  0  0  0
    7.7299  -14.8070   -5.4141 H   0  0  0  0  0  0  0  0  0  0  0  0
  1  2  1  0
  2  3  2  0
  3  4  1  0
  4  5  2  0
  5  6  1  0
  6  7  1  0
  7  8  1  0
  8  9  2  0
  9 10  1  0
 10 11  2  0
 10 12  1  0
 12 13  1  0
 13 14  1  0
 14 15  1  0
 15 16  1  0
 16 17  1  0
 17 18  1  0
 18 19  1  0
 12 20  2  0
 20 21  1  0
 21 22  2  0
 22 23  1  0
 23 24  2  0
 24 25  1  0
 25 26  2  0
  6 27  2  0
 27  2  1  0
 11  7  1  0
 19 14  1  0
 26 21  1  0
 26  9  1  0
  3 28  1  0
  4 29  1  0
  5 30  1  0
  8 31  1  0
 13 32  1  0
 13 33  1  0
 14 34  1  0
 15 35  1  0
 15 36  1  0
 16 37  1  0
 16 38  1  0
 17 39  1  0
 17 40  1  0
 18 41  1  0
 18 42  1  0
 19 43  1  0
 19 44  1  0
 22 45  1  0
 23 46  1  0
 24 47  1  0
 25 48  1  0
 27 49  1  0
M  CHG  1  13   1
M  END
>  <meeko>  (9) 
{"is_sidechain": [false], "free_energy": -7.347, "intermolecular_energy": -8.958, "internal_energy": -0.539}

$$$$
