LIB_CAFYZCZCHHPSHG__M_PUB_ALL__e8__s20260927
     RDKit          3D

 60 63  0  0  0  0  0  0  0  0999 V2000
    3.7500  -15.3010   -2.3950 C   0  0  0  0  0  0  0  0  0  0  0  0
    3.1690  -14.0500   -2.8270 N   0  0  0  0  0  0  0  0  0  0  0  0
    2.0550  -14.0700   -3.5960 N   0  0  0  0  0  0  0  0  0  0  0  0
    2.0110  -12.8220   -4.0810 C   0  0  0  0  0  0  0  0  0  0  0  0
    2.8790  -11.9620   -3.3850 C   0  0  0  0  0  0  0  0  0  0  0  0
    2.9480  -10.2810   -3.5650 Cl  0  0  0  0  0  0  0  0  0  0  0  0
    3.5430  -12.7710   -2.4810 C   0  0  0  0  0  0  0  0  0  0  0  0
    4.4290  -12.4490   -1.3680 C   0  0  0  0  0  0  0  0  0  0  0  0
    5.8080  -12.3030   -1.5720 C   0  0  0  0  0  0  0  0  0  0  0  0
    6.6580  -11.9850   -0.5080 C   0  0  0  0  0  0  0  0  0  0  0  0
    8.0560  -11.8320   -0.6360 N   0  0  0  0  0  0  0  0  0  0  0  0
    9.0250  -12.7990   -0.4280 C   0  0  0  0  0  0  0  0  0  0  0  0
    8.8320  -13.9820   -0.1720 O   0  0  0  0  0  0  0  0  0  0  0  0
   10.4310  -12.3280   -0.5750 C   0  0  0  0  0  0  0  0  0  0  0  0
   11.0170  -11.6330    0.4890 C   0  0  0  0  0  0  0  0  0  0  0  0
   12.3300  -11.1710    0.3870 C   0  0  0  0  0  0  0  0  0  0  0  0
   13.0600  -11.3930   -0.7820 C   0  0  0  0  0  0  0  0  0  0  0  0
   12.4850  -12.0770   -1.8650 C   0  0  0  0  0  0  0  0  0  0  0  0
   13.2570  -12.2840   -3.1450 C   0  0  0  0  0  0  0  0  0  0  0  0
   14.1240  -11.2730   -3.4230 F   0  0  0  0  0  0  0  0  0  0  0  0
   12.4430  -12.3990   -4.2270 F   0  0  0  0  0  0  0  0  0  0  0  0
   14.0070  -13.4220   -3.1170 F   0  0  0  0  0  0  0  0  0  0  0  0
   11.1590  -12.5330   -1.7560 C   0  0  0  0  0  0  0  0  0  0  0  0
    6.1130  -11.8200    0.7730 C   0  0  0  0  0  0  0  0  0  0  0  0
    4.7390  -11.9570    0.9900 C   0  0  0  0  0  0  0  0  0  0  0  0
    3.9020  -12.2500   -0.0820 C   0  0  0  0  0  0  0  0  0  0  0  0
    2.5530  -12.4160    0.1170 O   0  0  0  0  0  0  0  0  0  0  0  0
    1.9160  -11.1660    0.4100 C   0  0  0  0  0  0  0  0  0  0  0  0
    0.6860  -11.0470   -0.5000 C   0  0  0  0  0  0  0  0  0  0  0  0
   -0.5850  -10.7480    0.2790 N   0  0  0  0  0  0  0  0  0  0  0  0
   -1.1970  -12.0020    0.8750 C   0  0  0  0  0  0  0  0  0  0  0  0
   -2.5290  -11.6670    1.5520 C   0  0  0  0  0  0  0  0  0  0  0  0
   -2.4580  -10.5260    2.4440 N   0  0  0  0  0  0  0  0  0  0  0  0
   -1.5600   -9.5010    2.3260 C   0  0  0  0  0  0  0  0  0  0  0  0
   -1.6780   -8.4930    3.0160 O   0  0  0  0  0  0  0  0  0  0  0  0
   -0.3800   -9.6910    1.3700 C   0  0  0  0  0  0  0  0  0  0  0  0
    3.7668  -15.3372   -1.2957 H   0  0  0  0  0  0  0  0  0  0  0  0
    3.1481  -16.1372   -2.7803 H   0  0  0  0  0  0  0  0  0  0  0  0
    4.7773  -15.3806   -2.7803 H   0  0  0  0  0  0  0  0  0  0  0  0
    1.3738  -12.5083   -4.9210 H   0  0  0  0  0  0  0  0  0  0  0  0
    6.2263  -12.4401   -2.5801 H   0  0  0  0  0  0  0  0  0  0  0  0
    8.3750  -10.9270   -0.9560 H   0  0  0  0  0  0  0  0  0  0  0  0
   10.4411  -11.4504    1.4083 H   0  0  0  0  0  0  0  0  0  0  0  0
   12.7899  -10.6317    1.2282 H   0  0  0  0  0  0  0  0  0  0  0  0
   14.0953  -11.0287   -0.8554 H   0  0  0  0  0  0  0  0  0  0  0  0
   10.6895  -13.0542   -2.6033 H   0  0  0  0  0  0  0  0  0  0  0  0
    6.7750  -11.5797    1.6180 H   0  0  0  0  0  0  0  0  0  0  0  0
    4.3226  -11.8341    2.0007 H   0  0  0  0  0  0  0  0  0  0  0  0
    1.6057  -11.1414    1.4650 H   0  0  0  0  0  0  0  0  0  0  0  0
    2.6084  -10.3294    0.2348 H   0  0  0  0  0  0  0  0  0  0  0  0
    0.8576  -10.2344   -1.2213 H   0  0  0  0  0  0  0  0  0  0  0  0
    0.5491  -12.0137   -1.0067 H   0  0  0  0  0  0  0  0  0  0  0  0
   -1.2920  -10.3540   -0.3690 H   0  0  0  0  0  0  0  0  0  0  0  0
   -1.3700  -12.7376    0.0757 H   0  0  0  0  0  0  0  0  0  0  0  0
   -0.5072  -12.4183    1.6239 H   0  0  0  0  0  0  0  0  0  0  0  0
   -3.2716  -11.4508    0.7698 H   0  0  0  0  0  0  0  0  0  0  0  0
   -2.8065  -12.5375    2.1645 H   0  0  0  0  0  0  0  0  0  0  0  0
   -3.2170  -10.3560    3.0990 H   0  0  0  0  0  0  0  0  0  0  0  0
   -0.1833   -8.7275    0.8771 H   0  0  0  0  0  0  0  0  0  0  0  0
    0.4572  -10.0491    1.9872 H   0  0  0  0  0  0  0  0  0  0  0  0
  1  2  1  0
  2  3  1  0
  3  4  2  0
  4  5  1  0
  5  6  1  0
  5  7  2  0
  7  8  1  0
  8  9  2  0
  9 10  1  0
 10 11  1  0
 11 12  1  0
 12 13  2  0
 12 14  1  0
 14 15  2  0
 15 16  1  0
 16 17  2  0
 17 18  1  0
 18 19  1  0
 19 20  1  0
 19 21  1  0
 19 22  1  0
 18 23  2  0
 10 24  2  0
 24 25  1  0
 25 26  2  0
 26 27  1  0
 27 28  1  0
 28 29  1  0
 29 30  1  0
 30 31  1  0
 31 32  1  0
 32 33  1  0
 33 34  1  0
 34 35  2  0
 34 36  1  0
  7  2  1  0
 26  8  1  0
 36 30  1  0
 23 14  1  0
  1 37  1  0
  1 38  1  0
  1 39  1  0
  4 40  1  0
  9 41  1  0
 11 42  1  0
 15 43  1  0
 16 44  1  0
 17 45  1  0
 23 46  1  0
 24 47  1  0
 25 48  1  0
 28 49  1  0
 28 50  1  0
 29 51  1  0
 29 52  1  0
 30 53  1  0
 31 54  1  0
 31 55  1  0
 32 56  1  0
 32 57  1  0
 33 58  1  0
 36 59  1  0
 36 60  1  0
M  CHG  1  30   1
M  END
>  <meeko>  (1) 
{"is_sidechain": [false], "free_energy": -8.593, "intermolecular_energy": -12.612, "internal_energy": -1.566}

$$$$
LIB_CAFYZCZCHHPSHG__M_PUB_ALL__e8__s20260927
     RDKit          3D

 60 63  0  0  0  0  0  0  0  0999 V2000
    4.2110  -15.4430   -2.5360 C   0  0  0  0  0  0  0  0  0  0  0  0
    3.5130  -14.2200   -2.8650 N   0  0  0  0  0  0  0  0  0  0  0  0
    2.3990  -14.2810   -3.6290 N   0  0  0  0  0  0  0  0  0  0  0  0
    2.2360  -13.0080   -4.0120 C   0  0  0  0  0  0  0  0  0  0  0  0
    3.0280  -12.1310   -3.2500 C   0  0  0  0  0  0  0  0  0  0  0  0
    2.9410  -10.4400   -3.2950 Cl  0  0  0  0  0  0  0  0  0  0  0  0
    3.7720  -12.9440   -2.4170 C   0  0  0  0  0  0  0  0  0  0  0  0
    4.6360  -12.6320   -1.2830 C   0  0  0  0  0  0  0  0  0  0  0  0
    6.0050  -12.3990   -1.4720 C   0  0  0  0  0  0  0  0  0  0  0  0
    6.8330  -12.0910   -0.3880 C   0  0  0  0  0  0  0  0  0  0  0  0
    8.2200  -11.8540   -0.5000 N   0  0  0  0  0  0  0  0  0  0  0  0
    9.2390  -12.7850   -0.3820 C   0  0  0  0  0  0  0  0  0  0  0  0
    9.1090  -13.9940   -0.2370 O   0  0  0  0  0  0  0  0  0  0  0  0
   10.6180  -12.2290   -0.4830 C   0  0  0  0  0  0  0  0  0  0  0  0
   11.1140  -11.4740    0.5860 C   0  0  0  0  0  0  0  0  0  0  0  0
   12.3990  -10.9330    0.5260 C   0  0  0  0  0  0  0  0  0  0  0  0
   13.1900  -11.1350   -0.6060 C   0  0  0  0  0  0  0  0  0  0  0  0
   12.7050  -11.8790   -1.6930 C   0  0  0  0  0  0  0  0  0  0  0  0
   13.5430  -12.0650   -2.9350 C   0  0  0  0  0  0  0  0  0  0  0  0
   13.7720  -13.3710   -3.2420 F   0  0  0  0  0  0  0  0  0  0  0  0
   14.7640  -11.4770   -2.8290 F   0  0  0  0  0  0  0  0  0  0  0  0
   12.9580  -11.5190   -4.0390 F   0  0  0  0  0  0  0  0  0  0  0  0
   11.4070  -12.4150   -1.6280 C   0  0  0  0  0  0  0  0  0  0  0  0
    6.2760  -12.0240    0.8970 C   0  0  0  0  0  0  0  0  0  0  0  0
    4.9110  -12.2480    1.0990 C   0  0  0  0  0  0  0  0  0  0  0  0
    4.0950  -12.5310    0.0080 C   0  0  0  0  0  0  0  0  0  0  0  0
    2.7560  -12.7820    0.1910 O   0  0  0  0  0  0  0  0  0  0  0  0
    2.5490  -13.7490    1.2280 C   0  0  0  0  0  0  0  0  0  0  0  0
    2.3150  -15.1080    0.5550 C   0  0  0  0  0  0  0  0  0  0  0  0
    0.8420  -15.4810    0.4990 N   0  0  0  0  0  0  0  0  0  0  0  0
    0.3320  -15.5800   -0.9270 C   0  0  0  0  0  0  0  0  0  0  0  0
   -1.1760  -15.8450   -0.9300 C   0  0  0  0  0  0  0  0  0  0  0  0
   -1.5790  -16.9250   -0.0510 N   0  0  0  0  0  0  0  0  0  0  0  0
   -0.8940  -17.3140    1.0690 C   0  0  0  0  0  0  0  0  0  0  0  0
   -1.3920  -18.1190    1.8490 O   0  0  0  0  0  0  0  0  0  0  0  0
    0.5240  -16.7710    1.2630 C   0  0  0  0  0  0  0  0  0  0  0  0
    4.2710  -15.5482   -1.4427 H   0  0  0  0  0  0  0  0  0  0  0  0
    3.6664  -16.3008   -2.9575 H   0  0  0  0  0  0  0  0  0  0  0  0
    5.2265  -15.4104   -2.9575 H   0  0  0  0  0  0  0  0  0  0  0  0
    1.5651  -12.6880   -4.8229 H   0  0  0  0  0  0  0  0  0  0  0  0
    6.4327  -12.4590   -2.4837 H   0  0  0  0  0  0  0  0  0  0  0  0
    8.4910  -10.9080   -0.7330 H   0  0  0  0  0  0  0  0  0  0  0  0
   10.4893  -11.3066    1.4758 H   0  0  0  0  0  0  0  0  0  0  0  0
   12.7887  -10.3470    1.3714 H   0  0  0  0  0  0  0  0  0  0  0  0
   14.2026  -10.7073   -0.6467 H   0  0  0  0  0  0  0  0  0  0  0  0
   11.0074  -12.9839   -2.4804 H   0  0  0  0  0  0  0  0  0  0  0  0
    6.9213  -11.7922    1.7571 H   0  0  0  0  0  0  0  0  0  0  0  0
    4.4854  -12.2009    2.1122 H   0  0  0  0  0  0  0  0  0  0  0  0
    3.4361  -13.7993    1.8765 H   0  0  0  0  0  0  0  0  0  0  0  0
    1.6842  -13.4711    1.8484 H   0  0  0  0  0  0  0  0  0  0  0  0
    2.7081  -15.0662   -0.4715 H   0  0  0  0  0  0  0  0  0  0  0  0
    2.8320  -15.8723    1.1538 H   0  0  0  0  0  0  0  0  0  0  0  0
    0.2880  -14.7340    0.9590 H   0  0  0  0  0  0  0  0  0  0  0  0
    0.5364  -14.6356   -1.4527 H   0  0  0  0  0  0  0  0  0  0  0  0
    0.8441  -16.4102   -1.4354 H   0  0  0  0  0  0  0  0  0  0  0  0
   -1.6907  -14.9268   -0.6107 H   0  0  0  0  0  0  0  0  0  0  0  0
   -1.4481  -16.1442   -1.9530 H   0  0  0  0  0  0  0  0  0  0  0  0
   -2.5110  -17.3200   -0.1400 H   0  0  0  0  0  0  0  0  0  0  0  0
    0.6690  -16.5751    2.3357 H   0  0  0  0  0  0  0  0  0  0  0  0
    1.2012  -17.5382    0.8594 H   0  0  0  0  0  0  0  0  0  0  0  0
  1  2  1  0
  2  3  1  0
  3  4  2  0
  4  5  1  0
  5  6  1  0
  5  7  2  0
  7  8  1  0
  8  9  2  0
  9 10  1  0
 10 11  1  0
 11 12  1  0
 12 13  2  0
 12 14  1  0
 14 15  2  0
 15 16  1  0
 16 17  2  0
 17 18  1  0
 18 19  1  0
 19 20  1  0
 19 21  1  0
 19 22  1  0
 18 23  2  0
 10 24  2  0
 24 25  1  0
 25 26  2  0
 26 27  1  0
 27 28  1  0
 28 29  1  0
 29 30  1  0
 30 31  1  0
 31 32  1  0
 32 33  1  0
 33 34  1  0
 34 35  2  0
 34 36  1  0
  7  2  1  0
 26  8  1  0
 36 30  1  0
 23 14  1  0
  1 37  1  0
  1 38  1  0
  1 39  1  0
  4 40  1  0
  9 41  1  0
 11 42  1  0
 15 43  1  0
 16 44  1  0
 17 45  1  0
 23 46  1  0
 24 47  1  0
 25 48  1  0
 28 49  1  0
 28 50  1  0
 29 51  1  0
 29 52  1  0
 30 53  1  0
 31 54  1  0
 31 55  1  0
 32 56  1  0
 32 57  1  0
 33 58  1  0
 36 59  1  0
 36 60  1  0
M  CHG  1  30   1
M  END
>  <meeko>  (2) 
{"is_sidechain": [false], "free_energy": -8.589, "intermolecular_energy": -12.515, "internal_energy": -1.657}

$$$$
LIB_CAFYZCZCHHPSHG__M_PUB_ALL__e8__s20260927
     RDKit          3D

 60 63  0  0  0  0  0  0  0  0999 V2000
    6.5700  -13.9230   -3.0940 C   0  0  0  0  0  0  0  0  0  0  0  0
    6.6000  -15.0260   -2.1600 N   0  0  0  0  0  0  0  0  0  0  0  0
    7.2450  -16.1650   -2.5030 N   0  0  0  0  0  0  0  0  0  0  0  0
    6.7840  -17.0450   -1.6050 C   0  0  0  0  0  0  0  0  0  0  0  0
    6.1270  -16.4040   -0.5390 C   0  0  0  0  0  0  0  0  0  0  0  0
    5.5980  -17.1570    0.8820 Cl  0  0  0  0  0  0  0  0  0  0  0  0
    6.1260  -15.0620   -0.8680 C   0  0  0  0  0  0  0  0  0  0  0  0
    5.7570  -13.8800   -0.0960 C   0  0  0  0  0  0  0  0  0  0  0  0
    4.4130  -13.5060    0.0380 C   0  0  0  0  0  0  0  0  0  0  0  0
    4.0570  -12.3780    0.7860 C   0  0  0  0  0  0  0  0  0  0  0  0
    2.7280  -11.9350    0.9570 N   0  0  0  0  0  0  0  0  0  0  0  0
    1.8700  -11.4680   -0.0250 C   0  0  0  0  0  0  0  0  0  0  0  0
    2.0900  -11.4320   -1.2300 O   0  0  0  0  0  0  0  0  0  0  0  0
    0.5400  -11.0050    0.4650 C   0  0  0  0  0  0  0  0  0  0  0  0
    0.4340   -9.7120    0.9880 C   0  0  0  0  0  0  0  0  0  0  0  0
   -0.7920   -9.2450    1.4620 C   0  0  0  0  0  0  0  0  0  0  0  0
   -1.9170  -10.0710    1.4220 C   0  0  0  0  0  0  0  0  0  0  0  0
   -1.8270  -11.3760    0.9120 C   0  0  0  0  0  0  0  0  0  0  0  0
   -3.0320  -12.2860    0.9060 C   0  0  0  0  0  0  0  0  0  0  0  0
   -4.0960  -11.7710    0.2320 F   0  0  0  0  0  0  0  0  0  0  0  0
   -3.4730  -12.5690    2.1600 F   0  0  0  0  0  0  0  0  0  0  0  0
   -2.7660  -13.4890    0.3220 F   0  0  0  0  0  0  0  0  0  0  0  0
   -0.5860  -11.8410    0.4440 C   0  0  0  0  0  0  0  0  0  0  0  0
    5.0660  -11.6190    1.3950 C   0  0  0  0  0  0  0  0  0  0  0  0
    6.4100  -11.9840    1.2750 C   0  0  0  0  0  0  0  0  0  0  0  0
    6.7480  -13.1220    0.5480 C   0  0  0  0  0  0  0  0  0  0  0  0
    8.0650  -13.4810    0.3940 O   0  0  0  0  0  0  0  0  0  0  0  0
    8.8380  -12.3950   -0.1360 C   0  0  0  0  0  0  0  0  0  0  0  0
    9.7220  -12.9590   -1.2560 C   0  0  0  0  0  0  0  0  0  0  0  0
   10.9810  -12.1350   -1.4720 N   0  0  0  0  0  0  0  0  0  0  0  0
   11.8970  -12.1660   -0.2630 C   0  0  0  0  0  0  0  0  0  0  0  0
   13.0920  -11.2340   -0.4840 C   0  0  0  0  0  0  0  0  0  0  0  0
   13.7470  -11.4220   -1.7640 N   0  0  0  0  0  0  0  0  0  0  0  0
   13.1340  -11.9030   -2.8890 C   0  0  0  0  0  0  0  0  0  0  0  0
   13.7120  -11.8680   -3.9700 O   0  0  0  0  0  0  0  0  0  0  0  0
   11.7530  -12.5460   -2.7300 C   0  0  0  0  0  0  0  0  0  0  0  0
    6.5442  -12.9734   -2.5393 H   0  0  0  0  0  0  0  0  0  0  0  0
    7.4693  -13.9537   -3.7267 H   0  0  0  0  0  0  0  0  0  0  0  0
    5.6737  -14.0026   -3.7267 H   0  0  0  0  0  0  0  0  0  0  0  0
    6.9043  -18.1351   -1.6904 H   0  0  0  0  0  0  0  0  0  0  0  0
    3.6300  -14.1052   -0.4497 H   0  0  0  0  0  0  0  0  0  0  0  0
    2.3540  -12.0080    1.8930 H   0  0  0  0  0  0  0  0  0  0  0  0
    1.3202   -9.0614    1.0256 H   0  0  0  0  0  0  0  0  0  0  0  0
   -0.8725   -8.2256    1.8674 H   0  0  0  0  0  0  0  0  0  0  0  0
   -2.8822   -9.6961    1.7933 H   0  0  0  0  0  0  0  0  0  0  0  0
   -0.4972  -12.8675    0.0587 H   0  0  0  0  0  0  0  0  0  0  0  0
    4.7965  -10.7241    1.9751 H   0  0  0  0  0  0  0  0  0  0  0  0
    7.1941  -11.3770    1.7511 H   0  0  0  0  0  0  0  0  0  0  0  0
    8.1693  -11.6205   -0.5398 H   0  0  0  0  0  0  0  0  0  0  0  0
    9.4559  -11.9396    0.6519 H   0  0  0  0  0  0  0  0  0  0  0  0
   10.0133  -13.9865   -0.9924 H   0  0  0  0  0  0  0  0  0  0  0  0
    9.1394  -12.9315   -2.1887 H   0  0  0  0  0  0  0  0  0  0  0  0
   10.7130  -11.1430   -1.6140 H   0  0  0  0  0  0  0  0  0  0  0  0
   11.3382  -11.8366    0.6254 H   0  0  0  0  0  0  0  0  0  0  0  0
   12.2636  -13.1926   -0.1153 H   0  0  0  0  0  0  0  0  0  0  0  0
   12.7377  -10.1943   -0.4242 H   0  0  0  0  0  0  0  0  0  0  0  0
   13.8326  -11.4695    0.2945 H   0  0  0  0  0  0  0  0  0  0  0  0
   14.6660  -11.0150   -1.9190 H   0  0  0  0  0  0  0  0  0  0  0  0
   11.1470  -12.2708   -3.6058 H   0  0  0  0  0  0  0  0  0  0  0  0
   11.9296  -13.6279   -2.6390 H   0  0  0  0  0  0  0  0  0  0  0  0
  1  2  1  0
  2  3  1  0
  3  4  2  0
  4  5  1  0
  5  6  1  0
  5  7  2  0
  7  8  1  0
  8  9  2  0
  9 10  1  0
 10 11  1  0
 11 12  1  0
 12 13  2  0
 12 14  1  0
 14 15  2  0
 15 16  1  0
 16 17  2  0
 17 18  1  0
 18 19  1  0
 19 20  1  0
 19 21  1  0
 19 22  1  0
 18 23  2  0
 10 24  2  0
 24 25  1  0
 25 26  2  0
 26 27  1  0
 27 28  1  0
 28 29  1  0
 29 30  1  0
 30 31  1  0
 31 32  1  0
 32 33  1  0
 33 34  1  0
 34 35  2  0
 34 36  1  0
  7  2  1  0
 26  8  1  0
 36 30  1  0
 23 14  1  0
  1 37  1  0
  1 38  1  0
  1 39  1  0
  4 40  1  0
  9 41  1  0
 11 42  1  0
 15 43  1  0
 16 44  1  0
 17 45  1  0
 23 46  1  0
 24 47  1  0
 25 48  1  0
 28 49  1  0
 28 50  1  0
 29 51  1  0
 29 52  1  0
 30 53  1  0
 31 54  1  0
 31 55  1  0
 32 56  1  0
 32 57  1  0
 33 58  1  0
 36 59  1  0
 36 60  1  0
M  CHG  1  30   1
M  END
>  <meeko>  (3) 
{"is_sidechain": [false], "free_energy": -8.373, "intermolecular_energy": -12.395, "internal_energy": -1.461}

$$$$
LIB_CAFYZCZCHHPSHG__M_PUB_ALL__e8__s20260927
     RDKit          3D

 60 63  0  0  0  0  0  0  0  0999 V2000
    5.8690  -16.5550   -0.9420 C   0  0  0  0  0  0  0  0  0  0  0  0
    6.1320  -15.6120   -2.0050 N   0  0  0  0  0  0  0  0  0  0  0  0
    6.2390  -16.0620   -3.2760 N   0  0  0  0  0  0  0  0  0  0  0  0
    6.8120  -15.0290   -3.9070 C   0  0  0  0  0  0  0  0  0  0  0  0
    6.7660  -13.8570   -3.1310 C   0  0  0  0  0  0  0  0  0  0  0  0
    7.1960  -12.3090   -3.6660 Cl  0  0  0  0  0  0  0  0  0  0  0  0
    6.2030  -14.2390   -1.9290 C   0  0  0  0  0  0  0  0  0  0  0  0
    5.7320  -13.4550   -0.7910 C   0  0  0  0  0  0  0  0  0  0  0  0
    4.4030  -13.0150   -0.7290 C   0  0  0  0  0  0  0  0  0  0  0  0
    3.9480  -12.2720    0.3650 C   0  0  0  0  0  0  0  0  0  0  0  0
    2.6280  -11.7860    0.4920 N   0  0  0  0  0  0  0  0  0  0  0  0
    1.5010  -12.5100    0.8440 C   0  0  0  0  0  0  0  0  0  0  0  0
    1.4670  -13.6860    1.1850 O   0  0  0  0  0  0  0  0  0  0  0  0
    0.2250  -11.7390    0.8320 C   0  0  0  0  0  0  0  0  0  0  0  0
    0.2610  -10.3840    1.1820 C   0  0  0  0  0  0  0  0  0  0  0  0
   -0.9130   -9.6310    1.1880 C   0  0  0  0  0  0  0  0  0  0  0  0
   -2.1290  -10.2280    0.8540 C   0  0  0  0  0  0  0  0  0  0  0  0
   -2.1870  -11.5890    0.5130 C   0  0  0  0  0  0  0  0  0  0  0  0
   -3.5050  -12.2490    0.1910 C   0  0  0  0  0  0  0  0  0  0  0  0
   -4.1910  -12.6560    1.2940 F   0  0  0  0  0  0  0  0  0  0  0  0
   -3.3560  -13.3480   -0.5950 F   0  0  0  0  0  0  0  0  0  0  0  0
   -4.3470  -11.4160   -0.4850 F   0  0  0  0  0  0  0  0  0  0  0  0
   -1.0000  -12.3430    0.5160 C   0  0  0  0  0  0  0  0  0  0  0  0
    4.8430  -11.9670    1.4010 C   0  0  0  0  0  0  0  0  0  0  0  0
    6.1690  -12.4060    1.3550 C   0  0  0  0  0  0  0  0  0  0  0  0
    6.6020  -13.1640    0.2710 C   0  0  0  0  0  0  0  0  0  0  0  0
    7.9090  -13.5800    0.1950 O   0  0  0  0  0  0  0  0  0  0  0  0
    8.7730  -12.5020   -0.1920 C   0  0  0  0  0  0  0  0  0  0  0  0
    9.8280  -13.0730   -1.1480 C   0  0  0  0  0  0  0  0  0  0  0  0
   11.0450  -12.1710   -1.2740 N   0  0  0  0  0  0  0  0  0  0  0  0
   11.9170  -12.2130   -0.0330 C   0  0  0  0  0  0  0  0  0  0  0  0
   13.0650  -11.2070   -0.1620 C   0  0  0  0  0  0  0  0  0  0  0  0
   13.7750  -11.2930   -1.4230 N   0  0  0  0  0  0  0  0  0  0  0  0
   13.2320  -11.7500   -2.5920 C   0  0  0  0  0  0  0  0  0  0  0  0
   13.8460  -11.6290   -3.6470 O   0  0  0  0  0  0  0  0  0  0  0  0
   11.8850  -12.4750   -2.5190 C   0  0  0  0  0  0  0  0  0  0  0  0
    6.0072  -16.0594    0.0303 H   0  0  0  0  0  0  0  0  0  0  0  0
    4.8347  -16.9204   -1.0236 H   0  0  0  0  0  0  0  0  0  0  0  0
    6.5649  -17.4030   -1.0236 H   0  0  0  0  0  0  0  0  0  0  0  0
    7.2629  -15.0897   -4.9085 H   0  0  0  0  0  0  0  0  0  0  0  0
    3.7107  -13.2564   -1.5490 H   0  0  0  0  0  0  0  0  0  0  0  0
    2.5070  -10.7920    0.3490 H   0  0  0  0  0  0  0  0  0  0  0  0
    1.2171   -9.9122    1.4528 H   0  0  0  0  0  0  0  0  0  0  0  0
   -0.8801   -8.5648    1.4565 H   0  0  0  0  0  0  0  0  0  0  0  0
   -3.0505   -9.6272    0.8578 H   0  0  0  0  0  0  0  0  0  0  0  0
   -1.0329  -13.4143    0.2686 H   0  0  0  0  0  0  0  0  0  0  0  0
    4.4967  -11.3746    2.2608 H   0  0  0  0  0  0  0  0  0  0  0  0
    6.8649  -12.1545    2.1690 H   0  0  0  0  0  0  0  0  0  0  0  0
    8.1911  -11.7189   -0.7001 H   0  0  0  0  0  0  0  0  0  0  0  0
    9.2534  -12.0560    0.6913 H   0  0  0  0  0  0  0  0  0  0  0  0
   10.1529  -14.0538   -0.7704 H   0  0  0  0  0  0  0  0  0  0  0  0
    9.3680  -13.1564   -2.1437 H   0  0  0  0  0  0  0  0  0  0  0  0
   10.7270  -11.1900   -1.3780 H   0  0  0  0  0  0  0  0  0  0  0  0
   11.3087  -11.9599    0.8478 H   0  0  0  0  0  0  0  0  0  0  0  0
   12.3353  -13.2242    0.0791 H   0  0  0  0  0  0  0  0  0  0  0  0
   12.6507  -10.1926   -0.0650 H   0  0  0  0  0  0  0  0  0  0  0  0
   13.7893  -11.4416    0.6319 H   0  0  0  0  0  0  0  0  0  0  0  0
   14.6740  -10.8280   -1.5220 H   0  0  0  0  0  0  0  0  0  0  0  0
   11.2970  -12.1897   -3.4038 H   0  0  0  0  0  0  0  0  0  0  0  0
   12.1193  -13.5488   -2.4734 H   0  0  0  0  0  0  0  0  0  0  0  0
  1  2  1  0
  2  3  1  0
  3  4  2  0
  4  5  1  0
  5  6  1  0
  5  7  2  0
  7  8  1  0
  8  9  2  0
  9 10  1  0
 10 11  1  0
 11 12  1  0
 12 13  2  0
 12 14  1  0
 14 15  2  0
 15 16  1  0
 16 17  2  0
 17 18  1  0
 18 19  1  0
 19 20  1  0
 19 21  1  0
 19 22  1  0
 18 23  2  0
 10 24  2  0
 24 25  1  0
 25 26  2  0
 26 27  1  0
 27 28  1  0
 28 29  1  0
 29 30  1  0
 30 31  1  0
 31 32  1  0
 32 33  1  0
 33 34  1  0
 34 35  2  0
 34 36  1  0
  7  2  1  0
 26  8  1  0
 36 30  1  0
 23 14  1  0
  1 37  1  0
  1 38  1  0
  1 39  1  0
  4 40  1  0
  9 41  1  0
 11 42  1  0
 15 43  1  0
 16 44  1  0
 17 45  1  0
 23 46  1  0
 24 47  1  0
 25 48  1  0
 28 49  1  0
 28 50  1  0
 29 51  1  0
 29 52  1  0
 30 53  1  0
 31 54  1  0
 31 55  1  0
 32 56  1  0
 32 57  1  0
 33 58  1  0
 36 59  1  0
 36 60  1  0
M  CHG  1  30   1
M  END
>  <meeko>  (4) 
{"is_sidechain": [false], "free_energy": -8.276, "intermolecular_energy": -12.207, "internal_energy": -1.507}

$$$$
LIB_CAFYZCZCHHPSHG__M_PUB_ALL__e8__s20260927
     RDKit          3D

 60 63  0  0  0  0  0  0  0  0999 V2000
    6.0690  -11.9150   -3.6080 C   0  0  0  0  0  0  0  0  0  0  0  0
    6.0190  -13.3600   -3.5790 N   0  0  0  0  0  0  0  0  0  0  0  0
    6.5850  -14.0600   -4.5890 N   0  0  0  0  0  0  0  0  0  0  0  0
    6.0610  -15.2820   -4.4270 C   0  0  0  0  0  0  0  0  0  0  0  0
    5.4460  -15.4220   -3.1710 C   0  0  0  0  0  0  0  0  0  0  0  0
    4.8610  -16.8720   -2.5210 Cl  0  0  0  0  0  0  0  0  0  0  0  0
    5.5390  -14.1770   -2.5800 C   0  0  0  0  0  0  0  0  0  0  0  0
    5.2500  -13.7280   -1.2220 C   0  0  0  0  0  0  0  0  0  0  0  0
    3.9410  -13.4030   -0.8410 C   0  0  0  0  0  0  0  0  0  0  0  0
    3.6610  -12.9820    0.4630 C   0  0  0  0  0  0  0  0  0  0  0  0
    2.3710  -12.6280    0.9160 N   0  0  0  0  0  0  0  0  0  0  0  0
    1.3250  -13.4850    1.2130 C   0  0  0  0  0  0  0  0  0  0  0  0
    1.3630  -14.7100    1.2110 O   0  0  0  0  0  0  0  0  0  0  0  0
    0.0530  -12.8170    1.6090 C   0  0  0  0  0  0  0  0  0  0  0  0
   -1.0460  -13.6180    1.9400 C   0  0  0  0  0  0  0  0  0  0  0  0
   -2.2560  -13.0300    2.3100 C   0  0  0  0  0  0  0  0  0  0  0  0
   -2.3770  -11.6400    2.3420 C   0  0  0  0  0  0  0  0  0  0  0  0
   -1.2890  -10.8200    2.0000 C   0  0  0  0  0  0  0  0  0  0  0  0
   -1.4280   -9.3170    1.9930 C   0  0  0  0  0  0  0  0  0  0  0  0
   -1.5280   -8.7770    3.2390 F   0  0  0  0  0  0  0  0  0  0  0  0
   -2.5240   -8.9020    1.3070 F   0  0  0  0  0  0  0  0  0  0  0  0
   -0.3620   -8.7030    1.4050 F   0  0  0  0  0  0  0  0  0  0  0  0
   -0.0750  -11.4210    1.6220 C   0  0  0  0  0  0  0  0  0  0  0  0
    4.7110  -12.8830    1.3870 C   0  0  0  0  0  0  0  0  0  0  0  0
    6.0200  -13.2100    1.0230 C   0  0  0  0  0  0  0  0  0  0  0  0
    6.2800  -13.6500   -0.2720 C   0  0  0  0  0  0  0  0  0  0  0  0
    7.5650  -13.9490   -0.6570 O   0  0  0  0  0  0  0  0  0  0  0  0
    8.3640  -12.7630   -0.7570 C   0  0  0  0  0  0  0  0  0  0  0  0
    9.3880  -12.9870   -1.8780 C   0  0  0  0  0  0  0  0  0  0  0  0
   10.6840  -12.2280   -1.6380 N   0  0  0  0  0  0  0  0  0  0  0  0
   11.3390  -12.6170   -0.3260 C   0  0  0  0  0  0  0  0  0  0  0  0
   12.5760  -11.7490   -0.0780 C   0  0  0  0  0  0  0  0  0  0  0  0
   13.4690  -11.6680   -1.2170 N   0  0  0  0  0  0  0  0  0  0  0  0
   13.0820  -11.8180   -2.5210 C   0  0  0  0  0  0  0  0  0  0  0  0
   13.8650  -11.5650   -3.4300 O   0  0  0  0  0  0  0  0  0  0  0  0
   11.6830  -12.3780   -2.7910 C   0  0  0  0  0  0  0  0  0  0  0  0
    6.0824  -11.5278   -2.5785 H   0  0  0  0  0  0  0  0  0  0  0  0
    6.9789  -11.5901   -4.1338 H   0  0  0  0  0  0  0  0  0  0  0  0
    5.1837  -11.5280   -4.1338 H   0  0  0  0  0  0  0  0  0  0  0  0
    6.1064  -16.0785   -5.1843 H   0  0  0  0  0  0  0  0  0  0  0  0
    3.1254  -13.4798   -1.5751 H   0  0  0  0  0  0  0  0  0  0  0  0
    2.2140  -11.6420    1.0780 H   0  0  0  0  0  0  0  0  0  0  0  0
   -0.9556  -14.7138    1.9084 H   0  0  0  0  0  0  0  0  0  0  0  0
   -3.1154  -13.6626    2.5767 H   0  0  0  0  0  0  0  0  0  0  0  0
   -3.3327  -11.1826    2.6376 H   0  0  0  0  0  0  0  0  0  0  0  0
    0.7800  -10.7914    1.3346 H   0  0  0  0  0  0  0  0  0  0  0  0
    4.5016  -12.5434    2.4121 H   0  0  0  0  0  0  0  0  0  0  0  0
    6.8377  -13.1205    1.7533 H   0  0  0  0  0  0  0  0  0  0  0  0
    7.7260  -11.9001   -0.9986 H   0  0  0  0  0  0  0  0  0  0  0  0
    8.8732  -12.5585    0.1964 H   0  0  0  0  0  0  0  0  0  0  0  0
    9.6141  -14.0617   -1.9406 H   0  0  0  0  0  0  0  0  0  0  0  0
    8.9482  -12.6131   -2.8143 H   0  0  0  0  0  0  0  0  0  0  0  0
   10.4740  -11.2150   -1.5740 H   0  0  0  0  0  0  0  0  0  0  0  0
   10.6221  -12.4721    0.4956 H   0  0  0  0  0  0  0  0  0  0  0  0
   11.6438  -13.6728   -0.3747 H   0  0  0  0  0  0  0  0  0  0  0  0
   12.2416  -10.7318    0.1741 H   0  0  0  0  0  0  0  0  0  0  0  0
   13.1405  -12.2202    0.7401 H   0  0  0  0  0  0  0  0  0  0  0  0
   14.4090  -11.3030   -1.0890 H   0  0  0  0  0  0  0  0  0  0  0  0
   11.2713  -11.8562   -3.6675 H   0  0  0  0  0  0  0  0  0  0  0  0
   11.8123  -13.4598   -2.9429 H   0  0  0  0  0  0  0  0  0  0  0  0
  1  2  1  0
  2  3  1  0
  3  4  2  0
  4  5  1  0
  5  6  1  0
  5  7  2  0
  7  8  1  0
  8  9  2  0
  9 10  1  0
 10 11  1  0
 11 12  1  0
 12 13  2  0
 12 14  1  0
 14 15  2  0
 15 16  1  0
 16 17  2  0
 17 18  1  0
 18 19  1  0
 19 20  1  0
 19 21  1  0
 19 22  1  0
 18 23  2  0
 10 24  2  0
 24 25  1  0
 25 26  2  0
 26 27  1  0
 27 28  1  0
 28 29  1  0
 29 30  1  0
 30 31  1  0
 31 32  1  0
 32 33  1  0
 33 34  1  0
 34 35  2  0
 34 36  1  0
  7  2  1  0
 26  8  1  0
 36 30  1  0
 23 14  1  0
  1 37  1  0
  1 38  1  0
  1 39  1  0
  4 40  1  0
  9 41  1  0
 11 42  1  0
 15 43  1  0
 16 44  1  0
 17 45  1  0
 23 46  1  0
 24 47  1  0
 25 48  1  0
 28 49  1  0
 28 50  1  0
 29 51  1  0
 29 52  1  0
 30 53  1  0
 31 54  1  0
 31 55  1  0
 32 56  1  0
 32 57  1  0
 33 58  1  0
 36 59  1  0
 36 60  1  0
M  CHG  1  30   1
M  END
>  <meeko>  (5) 
{"is_sidechain": [false], "free_energy": -8.121, "intermolecular_energy": -11.907, "internal_energy": -1.579}

$$$$
LIB_CAFYZCZCHHPSHG__M_PUB_ALL__e8__s20260927
     RDKit          3D

 60 63  0  0  0  0  0  0  0  0999 V2000
    6.8580  -14.7040   -0.0490 C   0  0  0  0  0  0  0  0  0  0  0  0
    7.3300  -13.3560    0.1720 N   0  0  0  0  0  0  0  0  0  0  0  0
    8.6340  -13.1530    0.4690 N   0  0  0  0  0  0  0  0  0  0  0  0
    8.6370  -11.8980    0.9390 C   0  0  0  0  0  0  0  0  0  0  0  0
    7.4360  -11.2300    0.6420 C   0  0  0  0  0  0  0  0  0  0  0  0
    7.1450   -9.5800    0.8850 Cl  0  0  0  0  0  0  0  0  0  0  0  0
    6.6360  -12.1750    0.0280 C   0  0  0  0  0  0  0  0  0  0  0  0
    5.3570  -12.0550   -0.6650 C   0  0  0  0  0  0  0  0  0  0  0  0
    4.1570  -12.0030    0.0570 C   0  0  0  0  0  0  0  0  0  0  0  0
    2.9310  -11.8780   -0.6040 C   0  0  0  0  0  0  0  0  0  0  0  0
    1.6830  -11.8300    0.0540 N   0  0  0  0  0  0  0  0  0  0  0  0
    1.0830  -12.8440    0.7820 C   0  0  0  0  0  0  0  0  0  0  0  0
    1.5680  -13.9370    1.0480 O   0  0  0  0  0  0  0  0  0  0  0  0
   -0.2740  -12.5250    1.3110 C   0  0  0  0  0  0  0  0  0  0  0  0
   -0.4450  -12.4360    2.6970 C   0  0  0  0  0  0  0  0  0  0  0  0
   -1.7010  -12.1440    3.2300 C   0  0  0  0  0  0  0  0  0  0  0  0
   -2.7930  -11.9490    2.3830 C   0  0  0  0  0  0  0  0  0  0  0  0
   -2.6430  -12.0460    0.9900 C   0  0  0  0  0  0  0  0  0  0  0  0
   -3.8290  -11.8760    0.0730 C   0  0  0  0  0  0  0  0  0  0  0  0
   -5.0250  -12.0740    0.6910 F   0  0  0  0  0  0  0  0  0  0  0  0
   -3.7950  -12.7350   -0.9800 F   0  0  0  0  0  0  0  0  0  0  0  0
   -3.8890  -10.6250   -0.4660 F   0  0  0  0  0  0  0  0  0  0  0  0
   -1.3750  -12.3480    0.4610 C   0  0  0  0  0  0  0  0  0  0  0  0
    2.9170  -11.8120   -2.0050 C   0  0  0  0  0  0  0  0  0  0  0  0
    4.1070  -11.8560   -2.7370 C   0  0  0  0  0  0  0  0  0  0  0  0
    5.3210  -11.9570   -2.0640 C   0  0  0  0  0  0  0  0  0  0  0  0
    6.4990  -12.0300   -2.7680 O   0  0  0  0  0  0  0  0  0  0  0  0
    6.6030  -13.2750   -3.4720 C   0  0  0  0  0  0  0  0  0  0  0  0
    8.0520  -13.4120   -3.9600 C   0  0  0  0  0  0  0  0  0  0  0  0
    9.0440  -13.4950   -2.8110 N   0  0  0  0  0  0  0  0  0  0  0  0
    9.7020  -14.8590   -2.7210 C   0  0  0  0  0  0  0  0  0  0  0  0
   10.6050  -14.9280   -1.4860 C   0  0  0  0  0  0  0  0  0  0  0  0
   11.5030  -13.7970   -1.3580 N   0  0  0  0  0  0  0  0  0  0  0  0
   11.2600  -12.5500   -1.8670 C   0  0  0  0  0  0  0  0  0  0  0  0
   11.9880  -11.6090   -1.5660 O   0  0  0  0  0  0  0  0  0  0  0  0
   10.1130  -12.3970   -2.8670 C   0  0  0  0  0  0  0  0  0  0  0  0
    6.6858  -15.1957    0.9198 H   0  0  0  0  0  0  0  0  0  0  0  0
    5.9168  -14.6743   -0.6175 H   0  0  0  0  0  0  0  0  0  0  0  0
    7.6121  -15.2680   -0.6175 H   0  0  0  0  0  0  0  0  0  0  0  0
    9.4756  -11.4463    1.4892 H   0  0  0  0  0  0  0  0  0  0  0  0
    4.1797  -12.0611    1.1552 H   0  0  0  0  0  0  0  0  0  0  0  0
    1.1990  -10.9430    0.0220 H   0  0  0  0  0  0  0  0  0  0  0  0
    0.4122  -12.5965    3.3674 H   0  0  0  0  0  0  0  0  0  0  0  0
   -1.8307  -12.0674    4.3196 H   0  0  0  0  0  0  0  0  0  0  0  0
   -3.7798  -11.7173    2.8102 H   0  0  0  0  0  0  0  0  0  0  0  0
   -1.2463  -12.4460   -0.6270 H   0  0  0  0  0  0  0  0  0  0  0  0
    1.9569  -11.7245   -2.5347 H   0  0  0  0  0  0  0  0  0  0  0  0
    4.0841  -11.8112   -3.8358 H   0  0  0  0  0  0  0  0  0  0  0  0
    6.3534  -14.1085   -2.7990 H   0  0  0  0  0  0  0  0  0  0  0  0
    5.9051  -13.2979   -4.3219 H   0  0  0  0  0  0  0  0  0  0  0  0
    8.1359  -14.3261   -4.5661 H   0  0  0  0  0  0  0  0  0  0  0  0
    8.2943  -12.5150   -4.5488 H   0  0  0  0  0  0  0  0  0  0  0  0
    8.5370  -13.3520   -1.9180 H   0  0  0  0  0  0  0  0  0  0  0  0
    8.9246  -15.6337   -2.6468 H   0  0  0  0  0  0  0  0  0  0  0  0
   10.3112  -15.0247   -3.6218 H   0  0  0  0  0  0  0  0  0  0  0  0
    9.9670  -14.9682   -0.5908 H   0  0  0  0  0  0  0  0  0  0  0  0
   11.2313  -15.8257   -1.5949 H   0  0  0  0  0  0  0  0  0  0  0  0
   12.2810  -13.8500   -0.7060 H   0  0  0  0  0  0  0  0  0  0  0  0
    9.6202  -11.4327   -2.6739 H   0  0  0  0  0  0  0  0  0  0  0  0
   10.5688  -12.4668   -3.8657 H   0  0  0  0  0  0  0  0  0  0  0  0
  1  2  1  0
  2  3  1  0
  3  4  2  0
  4  5  1  0
  5  6  1  0
  5  7  2  0
  7  8  1  0
  8  9  2  0
  9 10  1  0
 10 11  1  0
 11 12  1  0
 12 13  2  0
 12 14  1  0
 14 15  2  0
 15 16  1  0
 16 17  2  0
 17 18  1  0
 18 19  1  0
 19 20  1  0
 19 21  1  0
 19 22  1  0
 18 23  2  0
 10 24  2  0
 24 25  1  0
 25 26  2  0
 26 27  1  0
 27 28  1  0
 28 29  1  0
 29 30  1  0
 30 31  1  0
 31 32  1  0
 32 33  1  0
 33 34  1  0
 34 35  2  0
 34 36  1  0
  7  2  1  0
 26  8  1  0
 36 30  1  0
 23 14  1  0
  1 37  1  0
  1 38  1  0
  1 39  1  0
  4 40  1  0
  9 41  1  0
 11 42  1  0
 15 43  1  0
 16 44  1  0
 17 45  1  0
 23 46  1  0
 24 47  1  0
 25 48  1  0
 28 49  1  0
 28 50  1  0
 29 51  1  0
 29 52  1  0
 30 53  1  0
 31 54  1  0
 31 55  1  0
 32 56  1  0
 32 57  1  0
 33 58  1  0
 36 59  1  0
 36 60  1  0
M  CHG  1  30   1
M  END
>  <meeko>  (6) 
{"is_sidechain": [false], "free_energy": -7.885, "intermolecular_energy": -11.065, "internal_energy": -2.074}

$$$$
LIB_CAFYZCZCHHPSHG__M_PUB_ALL__e8__s20260927
     RDKit          3D

 60 63  0  0  0  0  0  0  0  0999 V2000
    6.9980  -10.2930   -1.0820 C   0  0  0  0  0  0  0  0  0  0  0  0
    6.8430  -11.3680   -2.0370 N   0  0  0  0  0  0  0  0  0  0  0  0
    7.5940  -11.3660   -3.1620 N   0  0  0  0  0  0  0  0  0  0  0  0
    6.9640  -12.2570   -3.9380 C   0  0  0  0  0  0  0  0  0  0  0  0
    6.0440  -13.0260   -3.2030 C   0  0  0  0  0  0  0  0  0  0  0  0
    5.2150  -14.3830   -3.7850 Cl  0  0  0  0  0  0  0  0  0  0  0  0
    6.0710  -12.5030   -1.9250 C   0  0  0  0  0  0  0  0  0  0  0  0
    5.4820  -12.9740   -0.6760 C   0  0  0  0  0  0  0  0  0  0  0  0
    4.1800  -12.6000   -0.3150 C   0  0  0  0  0  0  0  0  0  0  0  0
    3.6100  -13.0580    0.8770 C   0  0  0  0  0  0  0  0  0  0  0  0
    2.3100  -12.7160    1.3100 N   0  0  0  0  0  0  0  0  0  0  0  0
    1.1690  -13.4950    1.2230 C   0  0  0  0  0  0  0  0  0  0  0  0
    1.1040  -14.6520    0.8260 O   0  0  0  0  0  0  0  0  0  0  0  0
   -0.0810  -12.8410    1.7060 C   0  0  0  0  0  0  0  0  0  0  0  0
   -1.1790  -13.6500    2.0180 C   0  0  0  0  0  0  0  0  0  0  0  0
   -2.3680  -13.0750    2.4680 C   0  0  0  0  0  0  0  0  0  0  0  0
   -2.4680  -11.6890    2.5990 C   0  0  0  0  0  0  0  0  0  0  0  0
   -1.3810  -10.8610    2.2790 C   0  0  0  0  0  0  0  0  0  0  0  0
   -1.4990   -9.3590    2.3810 C   0  0  0  0  0  0  0  0  0  0  0  0
   -1.5800   -8.9080    3.6620 F   0  0  0  0  0  0  0  0  0  0  0  0
   -2.5960   -8.8820    1.7360 F   0  0  0  0  0  0  0  0  0  0  0  0
   -0.4300   -8.7190    1.8270 F   0  0  0  0  0  0  0  0  0  0  0  0
   -0.1890  -11.4480    1.8200 C   0  0  0  0  0  0  0  0  0  0  0  0
    4.3630  -13.8940    1.7140 C   0  0  0  0  0  0  0  0  0  0  0  0
    5.6600  -14.2800    1.3640 C   0  0  0  0  0  0  0  0  0  0  0  0
    6.2050  -13.8350    0.1630 C   0  0  0  0  0  0  0  0  0  0  0  0
    7.4890  -14.1800   -0.1840 O   0  0  0  0  0  0  0  0  0  0  0  0
    7.5490  -15.5310   -0.6630 C   0  0  0  0  0  0  0  0  0  0  0  0
    8.7650  -15.6390   -1.5930 C   0  0  0  0  0  0  0  0  0  0  0  0
    9.8250  -14.5940   -1.2850 N   0  0  0  0  0  0  0  0  0  0  0  0
   11.1070  -15.2170   -0.7630 C   0  0  0  0  0  0  0  0  0  0  0  0
   12.1000  -14.1220   -0.3630 C   0  0  0  0  0  0  0  0  0  0  0  0
   12.2750  -13.0970   -1.3730 N   0  0  0  0  0  0  0  0  0  0  0  0
   11.3330  -12.7540   -2.3050 C   0  0  0  0  0  0  0  0  0  0  0  0
   11.4940  -11.7630   -3.0100 O   0  0  0  0  0  0  0  0  0  0  0  0
   10.1300  -13.6840   -2.4810 C   0  0  0  0  0  0  0  0  0  0  0  0
    6.9396  -10.6983   -0.0610 H   0  0  0  0  0  0  0  0  0  0  0  0
    7.9751   -9.8097   -1.2293 H   0  0  0  0  0  0  0  0  0  0  0  0
    6.1972   -9.5534   -1.2293 H   0  0  0  0  0  0  0  0  0  0  0  0
    7.1438  -12.3731   -5.0170 H   0  0  0  0  0  0  0  0  0  0  0  0
    3.6006  -11.9392   -0.9765 H   0  0  0  0  0  0  0  0  0  0  0  0
    2.2190  -11.8200    1.7700 H   0  0  0  0  0  0  0  0  0  0  0  0
   -1.1047  -14.7420    1.9083 H   0  0  0  0  0  0  0  0  0  0  0  0
   -3.2270  -13.7143    2.7197 H   0  0  0  0  0  0  0  0  0  0  0  0
   -3.4073  -11.2417    2.9563 H   0  0  0  0  0  0  0  0  0  0  0  0
    0.6648  -10.8099    1.5484 H   0  0  0  0  0  0  0  0  0  0  0  0
    3.9271  -14.2508    2.6588 H   0  0  0  0  0  0  0  0  0  0  0  0
    6.2448  -14.9297    2.0318 H   0  0  0  0  0  0  0  0  0  0  0  0
    7.6611  -16.2246    0.1834 H   0  0  0  0  0  0  0  0  0  0  0  0
    6.6259  -15.7917   -1.2015 H   0  0  0  0  0  0  0  0  0  0  0  0
    9.2102  -16.6383   -1.4778 H   0  0  0  0  0  0  0  0  0  0  0  0
    8.4160  -15.4693   -2.6223 H   0  0  0  0  0  0  0  0  0  0  0  0
    9.4740  -13.9690   -0.5350 H   0  0  0  0  0  0  0  0  0  0  0  0
   10.8780  -15.8387    0.1151 H   0  0  0  0  0  0  0  0  0  0  0  0
   11.5541  -15.8366   -1.5543 H   0  0  0  0  0  0  0  0  0  0  0  0
   11.7366  -13.6433    0.5583 H   0  0  0  0  0  0  0  0  0  0  0  0
   13.0770  -14.6084   -0.2259 H   0  0  0  0  0  0  0  0  0  0  0  0
   13.0590  -12.4540   -1.3010 H   0  0  0  0  0  0  0  0  0  0  0  0
    9.2432  -13.0608   -2.6688 H   0  0  0  0  0  0  0  0  0  0  0  0
   10.3827  -14.3537   -3.3162 H   0  0  0  0  0  0  0  0  0  0  0  0
  1  2  1  0
  2  3  1  0
  3  4  2  0
  4  5  1  0
  5  6  1  0
  5  7  2  0
  7  8  1  0
  8  9  2  0
  9 10  1  0
 10 11  1  0
 11 12  1  0
 12 13  2  0
 12 14  1  0
 14 15  2  0
 15 16  1  0
 16 17  2  0
 17 18  1  0
 18 19  1  0
 19 20  1  0
 19 21  1  0
 19 22  1  0
 18 23  2  0
 10 24  2  0
 24 25  1  0
 25 26  2  0
 26 27  1  0
 27 28  1  0
 28 29  1  0
 29 30  1  0
 30 31  1  0
 31 32  1  0
 32 33  1  0
 33 34  1  0
 34 35  2  0
 34 36  1  0
  7  2  1  0
 26  8  1  0
 36 30  1  0
 23 14  1  0
  1 37  1  0
  1 38  1  0
  1 39  1  0
  4 40  1  0
  9 41  1  0
 11 42  1  0
 15 43  1  0
 16 44  1  0
 17 45  1  0
 23 46  1  0
 24 47  1  0
 25 48  1  0
 28 49  1  0
 28 50  1  0
 29 51  1  0
 29 52  1  0
 30 53  1  0
 31 54  1  0
 31 55  1  0
 32 56  1  0
 32 57  1  0
 33 58  1  0
 36 59  1  0
 36 60  1  0
M  CHG  1  30   1
M  END
>  <meeko>  (7) 
{"is_sidechain": [false], "free_energy": -7.76, "intermolecular_energy": -11.234, "internal_energy": -1.722}

$$$$
LIB_CAFYZCZCHHPSHG__M_PUB_ALL__e8__s20260927
     RDKit          3D

 60 63  0  0  0  0  0  0  0  0999 V2000
    7.7580  -15.8800   -1.4640 C   0  0  0  0  0  0  0  0  0  0  0  0
    7.8840  -14.4520   -1.2700 N   0  0  0  0  0  0  0  0  0  0  0  0
    8.9450  -13.9700   -0.5830 N   0  0  0  0  0  0  0  0  0  0  0  0
    8.5670  -12.7170   -0.3020 C   0  0  0  0  0  0  0  0  0  0  0  0
    7.4520  -12.3260   -1.0640 C   0  0  0  0  0  0  0  0  0  0  0  0
    6.8170  -10.7590   -1.1420 Cl  0  0  0  0  0  0  0  0  0  0  0  0
    7.0940  -13.4490   -1.7860 C   0  0  0  0  0  0  0  0  0  0  0  0
    6.1410  -13.6340   -2.8750 C   0  0  0  0  0  0  0  0  0  0  0  0
    6.5190  -13.3980   -4.2030 C   0  0  0  0  0  0  0  0  0  0  0  0
    5.6090  -13.5840   -5.2490 C   0  0  0  0  0  0  0  0  0  0  0  0
    5.9160  -13.3560   -6.6080 N   0  0  0  0  0  0  0  0  0  0  0  0
    6.6140  -14.1960   -7.4590 C   0  0  0  0  0  0  0  0  0  0  0  0
    7.0210  -15.3220   -7.2010 O   0  0  0  0  0  0  0  0  0  0  0  0
    6.8430  -13.6580   -8.8310 C   0  0  0  0  0  0  0  0  0  0  0  0
    7.1670  -14.5560   -9.8540 C   0  0  0  0  0  0  0  0  0  0  0  0
    7.3940  -14.0910  -11.1500 C   0  0  0  0  0  0  0  0  0  0  0  0
    7.3060  -12.7260  -11.4270 C   0  0  0  0  0  0  0  0  0  0  0  0
    6.9940  -11.8090  -10.4110 C   0  0  0  0  0  0  0  0  0  0  0  0
    6.9380  -10.3280  -10.6990 C   0  0  0  0  0  0  0  0  0  0  0  0
    8.0640   -9.8500  -11.2950 F   0  0  0  0  0  0  0  0  0  0  0  0
    6.7570   -9.5890   -9.5730 F   0  0  0  0  0  0  0  0  0  0  0  0
    5.9080  -10.0030  -11.5310 F   0  0  0  0  0  0  0  0  0  0  0  0
    6.7740  -12.2850   -9.1070 C   0  0  0  0  0  0  0  0  0  0  0  0
    4.3060  -14.0040   -4.9500 C   0  0  0  0  0  0  0  0  0  0  0  0
    3.9160  -14.2500   -3.6300 C   0  0  0  0  0  0  0  0  0  0  0  0
    4.8390  -14.0830   -2.6020 C   0  0  0  0  0  0  0  0  0  0  0  0
    4.4660  -14.2920   -1.2960 O   0  0  0  0  0  0  0  0  0  0  0  0
    3.4130  -13.3990   -0.9100 C   0  0  0  0  0  0  0  0  0  0  0  0
    2.5690  -14.1110    0.1560 C   0  0  0  0  0  0  0  0  0  0  0  0
    1.7640  -15.2650   -0.4180 N   0  0  0  0  0  0  0  0  0  0  0  0
    2.0760  -16.5790    0.2740 C   0  0  0  0  0  0  0  0  0  0  0  0
    1.3270  -17.7260   -0.4110 C   0  0  0  0  0  0  0  0  0  0  0  0
   -0.0810  -17.4570   -0.6240 N   0  0  0  0  0  0  0  0  0  0  0  0
   -0.6220  -16.2070   -0.7630 C   0  0  0  0  0  0  0  0  0  0  0  0
   -1.7910  -16.0750   -1.1110 O   0  0  0  0  0  0  0  0  0  0  0  0
    0.2530  -15.0050   -0.3980 C   0  0  0  0  0  0  0  0  0  0  0  0
    7.7138  -16.3805   -0.4854 H   0  0  0  0  0  0  0  0  0  0  0  0
    6.8375  -16.0937   -2.0270 H   0  0  0  0  0  0  0  0  0  0  0  0
    8.6268  -16.2516   -2.0270 H   0  0  0  0  0  0  0  0  0  0  0  0
    9.0676  -12.0720    0.4351 H   0  0  0  0  0  0  0  0  0  0  0  0
    7.5427  -13.0627   -4.4258 H   0  0  0  0  0  0  0  0  0  0  0  0
    5.5460  -12.5040   -7.0080 H   0  0  0  0  0  0  0  0  0  0  0  0
    7.2430  -15.6315   -9.6360 H   0  0  0  0  0  0  0  0  0  0  0  0
    7.6423  -14.8003  -11.9532 H   0  0  0  0  0  0  0  0  0  0  0  0
    7.4828  -12.3653  -12.4510 H   0  0  0  0  0  0  0  0  0  0  0  0
    6.5462  -11.5758   -8.2976 H   0  0  0  0  0  0  0  0  0  0  0  0
    3.5801  -14.1420   -5.7649 H   0  0  0  0  0  0  0  0  0  0  0  0
    2.8885  -14.5727   -3.4061 H   0  0  0  0  0  0  0  0  0  0  0  0
    3.8390  -12.4737   -0.4949 H   0  0  0  0  0  0  0  0  0  0  0  0
    2.7936  -13.1330   -1.7793 H   0  0  0  0  0  0  0  0  0  0  0  0
    3.2401  -14.5015    0.9351 H   0  0  0  0  0  0  0  0  0  0  0  0
    1.8588  -13.3780    0.5661 H   0  0  0  0  0  0  0  0  0  0  0  0
    2.0170  -15.3890   -1.4160 H   0  0  0  0  0  0  0  0  0  0  0  0
    3.1582  -16.7692    0.2225 H   0  0  0  0  0  0  0  0  0  0  0  0
    1.7562  -16.5172    1.3247 H   0  0  0  0  0  0  0  0  0  0  0  0
    1.7966  -17.9129   -1.3880 H   0  0  0  0  0  0  0  0  0  0  0  0
    1.3904  -18.5965    0.2584 H   0  0  0  0  0  0  0  0  0  0  0  0
   -0.7040  -18.2220   -0.8680 H   0  0  0  0  0  0  0  0  0  0  0  0
    0.0375  -14.1978   -1.1136 H   0  0  0  0  0  0  0  0  0  0  0  0
    0.0017  -14.7502    0.6422 H   0  0  0  0  0  0  0  0  0  0  0  0
  1  2  1  0
  2  3  1  0
  3  4  2  0
  4  5  1  0
  5  6  1  0
  5  7  2  0
  7  8  1  0
  8  9  2  0
  9 10  1  0
 10 11  1  0
 11 12  1  0
 12 13  2  0
 12 14  1  0
 14 15  2  0
 15 16  1  0
 16 17  2  0
 17 18  1  0
 18 19  1  0
 19 20  1  0
 19 21  1  0
 19 22  1  0
 18 23  2  0
 10 24  2  0
 24 25  1  0
 25 26  2  0
 26 27  1  0
 27 28  1  0
 28 29  1  0
 29 30  1  0
 30 31  1  0
 31 32  1  0
 32 33  1  0
 33 34  1  0
 34 35  2  0
 34 36  1  0
  7  2  1  0
 26  8  1  0
 36 30  1  0
 23 14  1  0
  1 37  1  0
  1 38  1  0
  1 39  1  0
  4 40  1  0
  9 41  1  0
 11 42  1  0
 15 43  1  0
 16 44  1  0
 17 45  1  0
 23 46  1  0
 24 47  1  0
 25 48  1  0
 28 49  1  0
 28 50  1  0
 29 51  1  0
 29 52  1  0
 30 53  1  0
 31 54  1  0
 31 55  1  0
 32 56  1  0
 32 57  1  0
 33 58  1  0
 36 59  1  0
 36 60  1  0
M  CHG  1  30   1
M  END
>  <meeko>  (8) 
{"is_sidechain": [false], "free_energy": -7.66, "intermolecular_energy": -11.285, "internal_energy": -1.524}

$$$$
LIB_CAFYZCZCHHPSHG__M_PUB_ALL__e8__s20260927
     RDKit          3D

 60 63  0  0  0  0  0  0  0  0999 V2000
    5.3990  -14.9810   -0.0160 C   0  0  0  0  0  0  0  0  0  0  0  0
    6.1610  -13.7690    0.1830 N   0  0  0  0  0  0  0  0  0  0  0  0
    7.1230  -13.7420    1.1340 N   0  0  0  0  0  0  0  0  0  0  0  0
    7.3580  -12.4320    1.2770 C   0  0  0  0  0  0  0  0  0  0  0  0
    6.8000  -11.6850    0.2250 C   0  0  0  0  0  0  0  0  0  0  0  0
    7.0600  -10.0360   -0.0550 Cl  0  0  0  0  0  0  0  0  0  0  0  0
    6.1190  -12.6040   -0.5510 C   0  0  0  0  0  0  0  0  0  0  0  0
    5.4890  -12.4840   -1.8620 C   0  0  0  0  0  0  0  0  0  0  0  0
    6.2150  -12.7560   -3.0290 C   0  0  0  0  0  0  0  0  0  0  0  0
    5.6110  -12.6510   -4.2860 C   0  0  0  0  0  0  0  0  0  0  0  0
    6.2800  -12.8990   -5.5040 N   0  0  0  0  0  0  0  0  0  0  0  0
    6.3260  -14.0930   -6.2040 C   0  0  0  0  0  0  0  0  0  0  0  0
    5.7260  -15.1240   -5.9270 O   0  0  0  0  0  0  0  0  0  0  0  0
    7.1690  -14.0740   -7.4330 C   0  0  0  0  0  0  0  0  0  0  0  0
    8.4960  -14.5100   -7.3390 C   0  0  0  0  0  0  0  0  0  0  0  0
    9.3180  -14.5010   -8.4660 C   0  0  0  0  0  0  0  0  0  0  0  0
    8.8220  -14.0490   -9.6900 C   0  0  0  0  0  0  0  0  0  0  0  0
    7.4980  -13.5960   -9.8010 C   0  0  0  0  0  0  0  0  0  0  0  0
    6.9710  -13.0680  -11.1130 C   0  0  0  0  0  0  0  0  0  0  0  0
    6.7350  -11.7270  -11.1020 F   0  0  0  0  0  0  0  0  0  0  0  0
    5.8020  -13.6590  -11.4760 F   0  0  0  0  0  0  0  0  0  0  0  0
    7.8380  -13.2850  -12.1430 F   0  0  0  0  0  0  0  0  0  0  0  0
    6.6780  -13.6010   -8.6590 C   0  0  0  0  0  0  0  0  0  0  0  0
    4.2660  -12.2600   -4.3640 C   0  0  0  0  0  0  0  0  0  0  0  0
    3.5290  -11.9920   -3.2080 C   0  0  0  0  0  0  0  0  0  0  0  0
    4.1370  -12.1240   -1.9630 C   0  0  0  0  0  0  0  0  0  0  0  0
    3.4360  -11.8360   -0.8160 O   0  0  0  0  0  0  0  0  0  0  0  0
    2.0280  -12.0180   -1.0110 C   0  0  0  0  0  0  0  0  0  0  0  0
    1.4360  -12.5160    0.3140 C   0  0  0  0  0  0  0  0  0  0  0  0
    0.0660  -11.9200    0.5970 N   0  0  0  0  0  0  0  0  0  0  0  0
   -0.8060  -12.8570    1.4120 C   0  0  0  0  0  0  0  0  0  0  0  0
   -2.2080  -12.2620    1.5740 C   0  0  0  0  0  0  0  0  0  0  0  0
   -2.2070  -10.8790    2.0100 N   0  0  0  0  0  0  0  0  0  0  0  0
   -1.1920   -9.9910    1.7780 C   0  0  0  0  0  0  0  0  0  0  0  0
   -1.3440   -8.8000    2.0280 O   0  0  0  0  0  0  0  0  0  0  0  0
    0.1430  -10.5470    1.2750 C   0  0  0  0  0  0  0  0  0  0  0  0
    5.1297  -15.4093    0.9607 H   0  0  0  0  0  0  0  0  0  0  0  0
    4.4833  -14.7500   -0.5801 H   0  0  0  0  0  0  0  0  0  0  0  0
    6.0040  -15.7061   -0.5801 H   0  0  0  0  0  0  0  0  0  0  0  0
    7.9192  -11.9936    2.1153 H   0  0  0  0  0  0  0  0  0  0  0  0
    7.2710  -13.0552   -2.9558 H   0  0  0  0  0  0  0  0  0  0  0  0
    6.7390  -12.1030   -5.9270 H   0  0  0  0  0  0  0  0  0  0  0  0
    8.8914  -14.8605   -6.3742 H   0  0  0  0  0  0  0  0  0  0  0  0
   10.3582  -14.8505   -8.3901 H   0  0  0  0  0  0  0  0  0  0  0  0
    9.4745  -14.0478  -10.5756 H   0  0  0  0  0  0  0  0  0  0  0  0
    5.6442  -13.2314   -8.7273 H   0  0  0  0  0  0  0  0  0  0  0  0
    3.7853  -12.1632   -5.3486 H   0  0  0  0  0  0  0  0  0  0  0  0
    2.4769  -11.6793   -3.2811 H   0  0  0  0  0  0  0  0  0  0  0  0
    1.5621  -11.0627   -1.2943 H   0  0  0  0  0  0  0  0  0  0  0  0
    1.8404  -12.7449   -1.8150 H   0  0  0  0  0  0  0  0  0  0  0  0
    1.3425  -13.6111    0.2697 H   0  0  0  0  0  0  0  0  0  0  0  0
    2.1121  -12.2016    1.1227 H   0  0  0  0  0  0  0  0  0  0  0  0
   -0.4260  -11.7650   -0.3020 H   0  0  0  0  0  0  0  0  0  0  0  0
   -0.8792  -13.8263    0.8971 H   0  0  0  0  0  0  0  0  0  0  0  0
   -0.3559  -12.9950    2.4062 H   0  0  0  0  0  0  0  0  0  0  0  0
   -2.7242  -12.3202    0.6044 H   0  0  0  0  0  0  0  0  0  0  0  0
   -2.7167  -12.8453    2.3557 H   0  0  0  0  0  0  0  0  0  0  0  0
   -3.0690  -10.4630    2.3530 H   0  0  0  0  0  0  0  0  0  0  0  0
    0.5572   -9.8320    0.5489 H   0  0  0  0  0  0  0  0  0  0  0  0
    0.7720  -10.6826    2.1671 H   0  0  0  0  0  0  0  0  0  0  0  0
  1  2  1  0
  2  3  1  0
  3  4  2  0
  4  5  1  0
  5  6  1  0
  5  7  2  0
  7  8  1  0
  8  9  2  0
  9 10  1  0
 10 11  1  0
 11 12  1  0
 12 13  2  0
 12 14  1  0
 14 15  2  0
 15 16  1  0
 16 17  2  0
 17 18  1  0
 18 19  1  0
 19 20  1  0
 19 21  1  0
 19 22  1  0
 18 23  2  0
 10 24  2  0
 24 25  1  0
 25 26  2  0
 26 27  1  0
 27 28  1  0
 28 29  1  0
 29 30  1  0
 30 31  1  0
 31 32  1  0
 32 33  1  0
 33 34  1  0
 34 35  2  0
 34 36  1  0
  7  2  1  0
 26  8  1  0
 36 30  1  0
 23 14  1  0
  1 37  1  0
  1 38  1  0
  1 39  1  0
  4 40  1  0
  9 41  1  0
 11 42  1  0
 15 43  1  0
 16 44  1  0
 17 45  1  0
 23 46  1  0
 24 47  1  0
 25 48  1  0
 28 49  1  0
 28 50  1  0
 29 51  1  0
 29 52  1  0
 30 53  1  0
 31 54  1  0
 31 55  1  0
 32 56  1  0
 32 57  1  0
 33 58  1  0
 36 59  1  0
 36 60  1  0
M  CHG  1  30   1
M  END
>  <meeko>  (9) 
{"is_sidechain": [false], "free_energy": -7.538, "intermolecular_energy": -11.289, "internal_energy": -1.34}

$$$$
