LIB_RWVZCSBFQAARFN__M_PUB_ALL__e8__s20260927
     RDKit          3D

 90 96  0  0  0  0  0  0  0  0999 V2000
    0.0600  -14.4470    5.8680 C   0  0  0  0  0  0  0  0  0  0  0  0
    1.0370  -14.9960    4.8740 C   0  0  0  0  0  0  0  0  0  0  0  0
    1.5920  -16.0770    4.9860 O   0  0  0  0  0  0  0  0  0  0  0  0
    1.2050  -14.1060    3.8620 O   0  0  0  0  0  0  0  0  0  0  0  0
    0.5430  -14.2770    2.5690 C   0  0  0  0  0  0  0  0  0  0  0  0
   -0.2840  -12.9840    2.4140 C   0  0  0  0  0  0  0  0  0  0  0  0
   -0.4440  -15.4560    2.6390 C   0  0  0  0  0  0  0  0  0  0  0  0
    1.5910  -14.4700    1.4360 C   0  0  1  0  0  0  0  0  0  0  0  0
    2.6260  -13.3440    1.3070 C   0  0  0  0  0  0  0  0  0  0  0  0
    3.9300  -14.0950    1.0490 C   0  0  1  0  0  0  0  0  0  0  0  0
    3.7680  -15.2470    1.8960 O   0  0  0  0  0  0  0  0  0  0  0  0
    2.4530  -15.7340    1.5950 C   0  0  2  0  0  0  0  0  0  0  0  0
    2.5960  -16.5570    0.3120 C   0  0  0  0  0  0  0  0  0  0  0  0
    3.2920  -15.8220   -0.8530 C   0  0  1  0  0  0  0  0  0  0  0  0
    2.2770  -15.4980   -1.9640 C   0  0  0  0  0  0  0  0  0  0  0  0
    4.0690  -14.5450   -0.4410 C   0  0  2  0  0  0  0  0  0  0  0  0
    5.6150  -14.5400   -0.6620 C   0  0  1  0  0  0  0  0  0  0  0  0
    6.2500  -15.8360   -0.0640 C   0  0  0  0  0  0  0  0  0  0  0  0
    6.0440  -14.4450   -2.1270 C   0  0  0  0  0  0  0  0  0  0  0  0
    7.4440  -13.8480   -2.3410 C   0  0  0  0  0  0  0  0  0  0  0  0
    8.3110  -13.5600   -1.1070 C   0  0  1  0  0  0  0  0  0  0  0  0
    9.5430  -14.4350   -0.9190 C   0  0  0  0  0  0  0  0  0  0  0  0
    9.7450  -13.0090   -1.3590 C   0  0  1  0  0  0  0  0  0  0  0  0
   10.2530  -12.8060   -2.7790 C   0  0  0  0  0  0  0  0  0  0  0  0
   11.7750  -12.8340   -2.8170 C   0  0  0  0  0  0  0  0  0  0  0  0
   12.3840  -11.8090   -1.8610 C   0  0  2  0  0  0  0  0  0  0  0  0
   13.8070  -11.9100   -1.9230 O   0  0  0  0  0  0  0  0  0  0  0  0
   11.8850  -11.9630   -0.3900 C   0  0  0  0  0  0  0  0  0  0  0  0
   12.4250  -10.7610    0.4220 C   0  0  0  0  0  0  0  0  0  0  0  0
   12.4650  -13.2390    0.2590 C   0  0  0  0  0  0  0  0  0  0  0  0
   10.3160  -11.9490   -0.4030 C   0  0  2  0  0  0  0  0  0  0  0  0
    9.6550  -11.9740    0.9830 C   0  0  0  0  0  0  0  0  0  0  0  0
    8.1380  -11.8990    0.8360 C   0  0  0  0  0  0  0  0  0  0  0  0
    7.5810  -13.1890    0.2170 C   0  0  1  0  0  0  0  0  0  0  0  0
    6.0310  -13.2150    0.0780 C   0  0  1  0  0  0  0  0  0  0  0  0
    5.5390  -11.9040   -0.6160 C   0  0  0  0  0  0  0  0  0  0  0  0
    5.2680  -13.3850    1.4220 C   0  0  1  0  0  0  0  0  0  0  0  0
    5.0850  -12.1580    2.1160 O   0  0  0  0  0  0  0  0  0  0  0  0
    0.4208  -14.6497    6.8872 H   0  0  0  0  0  0  0  0  0  0  0  0
   -0.0391  -13.3611    5.7234 H   0  0  0  0  0  0  0  0  0  0  0  0
   -0.9191  -14.9271    5.7234 H   0  0  0  0  0  0  0  0  0  0  0  0
   -0.5367  -12.5889    3.4090 H   0  0  0  0  0  0  0  0  0  0  0  0
    0.3041  -12.2366    1.8612 H   0  0  0  0  0  0  0  0  0  0  0  0
   -1.2091  -13.2045    1.8612 H   0  0  0  0  0  0  0  0  0  0  0  0
   -0.6488  -15.7007    3.6917 H   0  0  0  0  0  0  0  0  0  0  0  0
   -1.3829  -15.1784    2.1377 H   0  0  0  0  0  0  0  0  0  0  0  0
   -0.0056  -16.3315    2.1377 H   0  0  0  0  0  0  0  0  0  0  0  0
    0.9314  -14.5123    0.5567 H   0  0  0  0  0  0  0  0  0  0  0  0
    2.3815  -12.6782    0.4662 H   0  0  0  0  0  0  0  0  0  0  0  0
    2.6704  -12.6958    2.1946 H   0  0  0  0  0  0  0  0  0  0  0  0
    1.9868  -16.3804    2.3531 H   0  0  0  0  0  0  0  0  0  0  0  0
    3.1814  -17.4582    0.5468 H   0  0  0  0  0  0  0  0  0  0  0  0
    1.5742  -16.7804   -0.0286 H   0  0  0  0  0  0  0  0  0  0  0  0
    4.0549  -16.5205   -1.2272 H   0  0  0  0  0  0  0  0  0  0  0  0
    1.3222  -15.1932   -1.5108 H   0  0  0  0  0  0  0  0  0  0  0  0
    2.6649  -14.6790   -2.5876 H   0  0  0  0  0  0  0  0  0  0  0  0
    2.1186  -16.3902   -2.5876 H   0  0  0  0  0  0  0  0  0  0  0  0
    3.5583  -13.8650   -1.1387 H   0  0  0  0  0  0  0  0  0  0  0  0
    6.2244  -15.7837    1.0345 H   0  0  0  0  0  0  0  0  0  0  0  0
    5.6798  -16.7136   -0.4027 H   0  0  0  0  0  0  0  0  0  0  0  0
    7.2929  -15.9233   -0.4027 H   0  0  0  0  0  0  0  0  0  0  0  0
    6.0329  -15.4582   -2.5552 H   0  0  0  0  0  0  0  0  0  0  0  0
    5.3337  -13.7640   -2.6186 H   0  0  0  0  0  0  0  0  0  0  0  0
    8.0040  -14.5511   -2.9751 H   0  0  0  0  0  0  0  0  0  0  0  0
    7.2515  -12.8553   -2.7741 H   0  0  0  0  0  0  0  0  0  0  0  0
    9.8448  -14.7406    0.0937 H   0  0  0  0  0  0  0  0  0  0  0  0
    9.8576  -15.4116   -1.3155 H   0  0  0  0  0  0  0  0  0  0  0  0
    9.8612  -13.6090   -3.4206 H   0  0  0  0  0  0  0  0  0  0  0  0
    9.9089  -11.8256   -3.1402 H   0  0  0  0  0  0  0  0  0  0  0  0
   12.1202  -13.8382   -2.5299 H   0  0  0  0  0  0  0  0  0  0  0  0
   12.0968  -12.5832   -3.8385 H   0  0  0  0  0  0  0  0  0  0  0  0
   12.0534  -10.8113   -2.1857 H   0  0  0  0  0  0  0  0  0  0  0  0
   14.0350  -12.8550   -1.9310 H   0  0  0  0  0  0  0  0  0  0  0  0
   12.3300  -10.9725    1.4973 H   0  0  0  0  0  0  0  0  0  0  0  0
   13.4837  -10.5962    0.1729 H   0  0  0  0  0  0  0  0  0  0  0  0
   11.8451   -9.8601    0.1729 H   0  0  0  0  0  0  0  0  0  0  0  0
   12.4224  -13.1452    1.3542 H   0  0  0  0  0  0  0  0  0  0  0  0
   11.8752  -14.1119   -0.0575 H   0  0  0  0  0  0  0  0  0  0  0  0
   13.5105  -13.3686   -0.0575 H   0  0  0  0  0  0  0  0  0  0  0  0
   10.0422  -10.9613   -0.8023 H   0  0  0  0  0  0  0  0  0  0  0  0
    9.9258  -12.9067    1.4995 H   0  0  0  0  0  0  0  0  0  0  0  0
   10.0055  -11.1104    1.5672 H   0  0  0  0  0  0  0  0  0  0  0  0
    7.6872  -11.7524    1.8286 H   0  0  0  0  0  0  0  0  0  0  0  0
    7.8913  -11.0569    0.1727 H   0  0  0  0  0  0  0  0  0  0  0  0
    7.8037  -13.9829    0.9451 H   0  0  0  0  0  0  0  0  0  0  0  0
    5.2618  -11.1652    0.1504 H   0  0  0  0  0  0  0  0  0  0  0  0
    6.3454  -11.4964   -1.2434 H   0  0  0  0  0  0  0  0  0  0  0  0
    4.6636  -12.1276   -1.2434 H   0  0  0  0  0  0  0  0  0  0  0  0
    5.8453  -13.9876    2.1386 H   0  0  0  0  0  0  0  0  0  0  0  0
    4.3200  -12.2850    2.7060 H   0  0  0  0  0  0  0  0  0  0  0  0
  1  2  1  0
  2  3  2  0
  2  4  1  0
  4  5  1  0
  5  6  1  0
  5  7  1  0
  5  8  1  0
  8  9  1  0
 10  9  1  6
 10 11  1  0
 11 12  1  0
 12 13  1  0
 13 14  1  0
 14 15  1  0
 14 16  1  0
 16 17  1  0
 17 18  1  1
 17 19  1  0
 19 20  1  0
 21 20  1  6
 21 22  1  0
 23 22  1  1
 23 24  1  0
 24 25  1  0
 25 26  1  0
 26 27  1  0
 26 28  1  0
 28 29  1  0
 28 30  1  0
 28 31  1  0
 31 32  1  0
 32 33  1  0
 33 34  1  0
 34 35  1  0
 35 36  1  6
 35 37  1  0
 37 38  1  0
 12  8  1  0
 35 17  1  0
 16 10  1  0
 23 21  1  0
 37 10  1  0
 34 21  1  0
 31 23  1  0
  1 39  1  0
  1 40  1  0
  1 41  1  0
  6 42  1  0
  6 43  1  0
  6 44  1  0
  7 45  1  0
  7 46  1  0
  7 47  1  0
  8 48  1  6
  9 49  1  0
  9 50  1  0
 12 51  1  1
 13 52  1  0
 13 53  1  0
 14 54  1  6
 15 55  1  0
 15 56  1  0
 15 57  1  0
 16 58  1  6
 18 59  1  0
 18 60  1  0
 18 61  1  0
 19 62  1  0
 19 63  1  0
 20 64  1  0
 20 65  1  0
 22 66  1  0
 22 67  1  0
 24 68  1  0
 24 69  1  0
 25 70  1  0
 25 71  1  0
 26 72  1  6
 27 73  1  0
 29 74  1  0
 29 75  1  0
 29 76  1  0
 30 77  1  0
 30 78  1  0
 30 79  1  0
 31 80  1  6
 32 81  1  0
 32 82  1  0
 33 83  1  0
 33 84  1  0
 34 85  1  1
 36 86  1  0
 36 87  1  0
 36 88  1  0
 37 89  1  1
 38 90  1  0
M  END
>  <meeko>  (1) 
{"is_sidechain": [false], "free_energy": -8.811, "intermolecular_energy": -10.871, "internal_energy": -0.436}

$$$$
LIB_RWVZCSBFQAARFN__M_PUB_ALL__e8__s20260927
     RDKit          3D

 90 96  0  0  0  0  0  0  0  0999 V2000
   -0.7530  -17.4540    1.1970 C   0  0  0  0  0  0  0  0  0  0  0  0
    0.2860  -17.0020    0.2160 C   0  0  0  0  0  0  0  0  0  0  0  0
    0.8400  -17.7410   -0.5810 O   0  0  0  0  0  0  0  0  0  0  0  0
    0.5090  -15.6710    0.3710 O   0  0  0  0  0  0  0  0  0  0  0  0
   -0.0230  -14.6880   -0.5710 C   0  0  0  0  0  0  0  0  0  0  0  0
   -0.8960  -13.7760    0.3160 C   0  0  0  0  0  0  0  0  0  0  0  0
   -0.9520  -15.3820   -1.5830 C   0  0  0  0  0  0  0  0  0  0  0  0
    1.1320  -13.9240   -1.2800 C   0  0  1  0  0  0  0  0  0  0  0  0
    2.4850  -13.9710   -0.5570 C   0  0  0  0  0  0  0  0  0  0  0  0
    3.4830  -14.1740   -1.6930 C   0  0  1  0  0  0  0  0  0  0  0  0
    2.7520  -15.0610   -2.5600 O   0  0  0  0  0  0  0  0  0  0  0  0
    1.4590  -14.4560   -2.6860 C   0  0  2  0  0  0  0  0  0  0  0  0
    1.6100  -13.3630   -3.7470 C   0  0  0  0  0  0  0  0  0  0  0  0
    2.7630  -12.3690   -3.4900 C   0  0  1  0  0  0  0  0  0  0  0  0
    2.2030  -10.9880   -3.1030 C   0  0  0  0  0  0  0  0  0  0  0  0
    3.8060  -12.8420   -2.4440 C   0  0  2  0  0  0  0  0  0  0  0  0
    5.2700  -13.0680   -2.9380 C   0  0  1  0  0  0  0  0  0  0  0  0
    5.2760  -13.9570   -4.2210 C   0  0  0  0  0  0  0  0  0  0  0  0
    6.0330  -11.7810   -3.2590 C   0  0  0  0  0  0  0  0  0  0  0  0
    7.5610  -11.9080   -3.1550 C   0  0  0  0  0  0  0  0  0  0  0  0
    8.1630  -13.2970   -2.9010 C   0  0  1  0  0  0  0  0  0  0  0  0
    8.9510  -13.9190   -4.0460 C   0  0  0  0  0  0  0  0  0  0  0  0
    9.7160  -13.4020   -2.8570 C   0  0  1  0  0  0  0  0  0  0  0  0
   10.5770  -12.1700   -3.0920 C   0  0  0  0  0  0  0  0  0  0  0  0
   11.9670  -12.5660   -3.5740 C   0  0  0  0  0  0  0  0  0  0  0  0
   12.6440  -13.5380   -2.6080 C   0  0  2  0  0  0  0  0  0  0  0  0
   13.9240  -13.8910   -3.1340 O   0  0  0  0  0  0  0  0  0  0  0  0
   11.7950  -14.8160   -2.3210 C   0  0  0  0  0  0  0  0  0  0  0  0
   12.5040  -15.6120   -1.1980 C   0  0  0  0  0  0  0  0  0  0  0  0
   11.7460  -15.7360   -3.5600 C   0  0  0  0  0  0  0  0  0  0  0  0
   10.3700  -14.3600   -1.8480 C   0  0  2  0  0  0  0  0  0  0  0  0
    9.4370  -15.4970   -1.4080 C   0  0  0  0  0  0  0  0  0  0  0  0
    8.1120  -14.9200   -0.9200 C   0  0  0  0  0  0  0  0  0  0  0  0
    7.3140  -14.3130   -2.0830 C   0  0  1  0  0  0  0  0  0  0  0  0
    5.9230  -13.7460   -1.6770 C   0  0  1  0  0  0  0  0  0  0  0  0
    6.0740  -12.8040   -0.4400 C   0  0  0  0  0  0  0  0  0  0  0  0
    4.8570  -14.8300   -1.3500 C   0  0  1  0  0  0  0  0  0  0  0  0
    4.9400  -15.3070   -0.0140 O   0  0  0  0  0  0  0  0  0  0  0  0
   -0.3847  -17.2938    2.2211 H   0  0  0  0  0  0  0  0  0  0  0  0
   -1.6767  -16.8764    1.0450 H   0  0  0  0  0  0  0  0  0  0  0  0
   -0.9601  -18.5236    1.0450 H   0  0  0  0  0  0  0  0  0  0  0  0
   -0.6912  -13.9900    1.3754 H   0  0  0  0  0  0  0  0  0  0  0  0
   -0.6608  -12.7229    0.1025 H   0  0  0  0  0  0  0  0  0  0  0  0
   -1.9584  -13.9650    0.1025 H   0  0  0  0  0  0  0  0  0  0  0  0
   -1.7196  -15.9554   -1.0427 H   0  0  0  0  0  0  0  0  0  0  0  0
   -1.4377  -14.6237   -2.2148 H   0  0  0  0  0  0  0  0  0  0  0  0
   -0.3626  -16.0628   -2.2148 H   0  0  0  0  0  0  0  0  0  0  0  0
    0.7187  -12.9047   -1.2951 H   0  0  0  0  0  0  0  0  0  0  0  0
    2.6803  -13.0284   -0.0246 H   0  0  0  0  0  0  0  0  0  0  0  0
    2.5372  -14.7597    0.2080 H   0  0  0  0  0  0  0  0  0  0  0  0
    0.6408  -15.1178   -3.0064 H   0  0  0  0  0  0  0  0  0  0  0  0
    1.7872  -13.8497   -4.7174 H   0  0  0  0  0  0  0  0  0  0  0  0
    0.6810  -12.7745   -3.7210 H   0  0  0  0  0  0  0  0  0  0  0  0
    3.3118  -12.3041   -4.4411 H   0  0  0  0  0  0  0  0  0  0  0  0
    2.1676  -10.9007   -2.0070 H   0  0  0  0  0  0  0  0  0  0  0  0
    2.8530  -10.2008   -3.5127 H   0  0  0  0  0  0  0  0  0  0  0  0
    1.1883  -10.8758   -3.5127 H   0  0  0  0  0  0  0  0  0  0  0  0
    3.7314  -11.9586   -1.7927 H   0  0  0  0  0  0  0  0  0  0  0  0
    5.2832  -15.0183   -3.9317 H   0  0  0  0  0  0  0  0  0  0  0  0
    4.3764  -13.7457   -4.8177 H   0  0  0  0  0  0  0  0  0  0  0  0
    6.1727  -13.7336   -4.8177 H   0  0  0  0  0  0  0  0  0  0  0  0
    5.7817  -11.4789   -4.2864 H   0  0  0  0  0  0  0  0  0  0  0  0
    5.7272  -11.0382   -2.5076 H   0  0  0  0  0  0  0  0  0  0  0  0
    7.9831  -11.5389   -4.1014 H   0  0  0  0  0  0  0  0  0  0  0  0
    7.8192  -11.3327   -2.2537 H   0  0  0  0  0  0  0  0  0  0  0  0
    8.8889  -15.0026   -4.2245 H   0  0  0  0  0  0  0  0  0  0  0  0
    9.0027  -13.7358   -5.1294 H   0  0  0  0  0  0  0  0  0  0  0  0
   10.0987  -11.5353   -3.8525 H   0  0  0  0  0  0  0  0  0  0  0  0
   10.6754  -11.6221   -2.1433 H   0  0  0  0  0  0  0  0  0  0  0  0
   11.8793  -13.0461   -4.5598 H   0  0  0  0  0  0  0  0  0  0  0  0
   12.5822  -11.6560   -3.6324 H   0  0  0  0  0  0  0  0  0  0  0  0
   12.7515  -13.0279   -1.6394 H   0  0  0  0  0  0  0  0  0  0  0  0
   13.8010  -14.6580   -3.7190 H   0  0  0  0  0  0  0  0  0  0  0  0
   12.1716  -15.2388   -0.2181 H   0  0  0  0  0  0  0  0  0  0  0  0
   12.2514  -16.6787   -1.2891 H   0  0  0  0  0  0  0  0  0  0  0  0
   13.5927  -15.4840   -1.2891 H   0  0  0  0  0  0  0  0  0  0  0  0
   11.6901  -16.7855   -3.2354 H   0  0  0  0  0  0  0  0  0  0  0  0
   10.8596  -15.4912   -4.1637 H   0  0  0  0  0  0  0  0  0  0  0  0
   12.6534  -15.5867   -4.1637 H   0  0  0  0  0  0  0  0  0  0  0  0
   10.5429  -13.7956   -0.9198 H   0  0  0  0  0  0  0  0  0  0  0  0
    9.2514  -16.1673   -2.2602 H   0  0  0  0  0  0  0  0  0  0  0  0
    9.9111  -16.0592   -0.5899 H   0  0  0  0  0  0  0  0  0  0  0  0
    7.5190  -15.7225   -0.4571 H   0  0  0  0  0  0  0  0  0  0  0  0
    8.3238  -14.1262   -0.1886 H   0  0  0  0  0  0  0  0  0  0  0  0
    7.0819  -15.1558   -2.7507 H   0  0  0  0  0  0  0  0  0  0  0  0
    5.9795  -13.3938    0.4837 H   0  0  0  0  0  0  0  0  0  0  0  0
    7.0613  -12.3196   -0.4663 H   0  0  0  0  0  0  0  0  0  0  0  0
    5.2876  -12.0353   -0.4663 H   0  0  0  0  0  0  0  0  0  0  0  0
    5.0161  -15.7415   -1.9448 H   0  0  0  0  0  0  0  0  0  0  0  0
    4.0820  -15.7220    0.1850 H   0  0  0  0  0  0  0  0  0  0  0  0
  1  2  1  0
  2  3  2  0
  2  4  1  0
  4  5  1  0
  5  6  1  0
  5  7  1  0
  5  8  1  0
  8  9  1  0
 10  9  1  1
 10 11  1  0
 11 12  1  0
 12 13  1  0
 13 14  1  0
 14 15  1  0
 14 16  1  0
 16 17  1  0
 17 18  1  6
 17 19  1  0
 19 20  1  0
 21 20  1  6
 21 22  1  0
 23 22  1  6
 23 24  1  0
 24 25  1  0
 25 26  1  0
 26 27  1  0
 26 28  1  0
 28 29  1  0
 28 30  1  0
 28 31  1  0
 31 32  1  0
 32 33  1  0
 33 34  1  0
 34 35  1  0
 35 36  1  1
 35 37  1  0
 37 38  1  0
 12  8  1  0
 35 17  1  0
 16 10  1  0
 23 21  1  0
 37 10  1  0
 34 21  1  0
 31 23  1  0
  1 39  1  0
  1 40  1  0
  1 41  1  0
  6 42  1  0
  6 43  1  0
  6 44  1  0
  7 45  1  0
  7 46  1  0
  7 47  1  0
  8 48  1  6
  9 49  1  0
  9 50  1  0
 12 51  1  6
 13 52  1  0
 13 53  1  0
 14 54  1  6
 15 55  1  0
 15 56  1  0
 15 57  1  0
 16 58  1  1
 18 59  1  0
 18 60  1  0
 18 61  1  0
 19 62  1  0
 19 63  1  0
 20 64  1  0
 20 65  1  0
 22 66  1  0
 22 67  1  0
 24 68  1  0
 24 69  1  0
 25 70  1  0
 25 71  1  0
 26 72  1  1
 27 73  1  0
 29 74  1  0
 29 75  1  0
 29 76  1  0
 30 77  1  0
 30 78  1  0
 30 79  1  0
 31 80  1  1
 32 81  1  0
 32 82  1  0
 33 83  1  0
 33 84  1  0
 34 85  1  6
 36 86  1  0
 36 87  1  0
 36 88  1  0
 37 89  1  6
 38 90  1  0
M  END
>  <meeko>  (2) 
{"is_sidechain": [false], "free_energy": -8.58, "intermolecular_energy": -10.516, "internal_energy": -0.507}

$$$$
LIB_RWVZCSBFQAARFN__M_PUB_ALL__e8__s20260927
     RDKit          3D

 90 96  0  0  0  0  0  0  0  0999 V2000
   -0.1590   -9.4440    1.2580 C   0  0  0  0  0  0  0  0  0  0  0  0
   -1.1370  -10.5750    1.3400 C   0  0  0  0  0  0  0  0  0  0  0  0
   -1.9830  -10.6860    2.2130 O   0  0  0  0  0  0  0  0  0  0  0  0
   -0.9210  -11.4390    0.3140 O   0  0  0  0  0  0  0  0  0  0  0  0
   -0.4080  -12.7880    0.5410 C   0  0  0  0  0  0  0  0  0  0  0  0
   -1.6650  -13.6760    0.4280 C   0  0  0  0  0  0  0  0  0  0  0  0
    0.1220  -12.9110    1.9800 C   0  0  0  0  0  0  0  0  0  0  0  0
    0.6850  -13.1440   -0.5070 C   0  0  1  0  0  0  0  0  0  0  0  0
    1.9490  -12.2740   -0.4520 C   0  0  0  0  0  0  0  0  0  0  0  0
    3.0770  -13.2830   -0.6550 C   0  0  1  0  0  0  0  0  0  0  0  0
    2.5800  -14.4180    0.0770 O   0  0  0  0  0  0  0  0  0  0  0  0
    1.2300  -14.5770   -0.3770 C   0  0  2  0  0  0  0  0  0  0  0  0
    1.3220  -15.3310   -1.7060 C   0  0  0  0  0  0  0  0  0  0  0  0
    2.2800  -14.7030   -2.7410 C   0  0  1  0  0  0  0  0  0  0  0  0
    1.4820  -14.0930   -3.9070 C   0  0  0  0  0  0  0  0  0  0  0  0
    3.2700  -13.6610   -2.1580 C   0  0  2  0  0  0  0  0  0  0  0  0
    4.7940  -13.9910   -2.2410 C   0  0  1  0  0  0  0  0  0  0  0  0
    5.0650  -15.4300   -1.6980 C   0  0  0  0  0  0  0  0  0  0  0  0
    5.3840  -13.9070   -3.6500 C   0  0  0  0  0  0  0  0  0  0  0  0
    6.8950  -13.6290   -3.6890 C   0  0  0  0  0  0  0  0  0  0  0  0
    7.6700  -13.6180   -2.3640 C   0  0  1  0  0  0  0  0  0  0  0  0
    8.6550  -14.7580   -2.1400 C   0  0  0  0  0  0  0  0  0  0  0  0
    9.2080  -13.3910   -2.4420 C   0  0  1  0  0  0  0  0  0  0  0  0
    9.8930  -13.2220   -3.7900 C   0  0  0  0  0  0  0  0  0  0  0  0
   11.3690  -13.5900   -3.6960 C   0  0  0  0  0  0  0  0  0  0  0  0
   12.0830  -12.7870   -2.6090 C   0  0  2  0  0  0  0  0  0  0  0  0
   13.4480  -13.2020   -2.5530 O   0  0  0  0  0  0  0  0  0  0  0  0
   11.4110  -12.9140   -1.2060 C   0  0  0  0  0  0  0  0  0  0  0  0
   12.1130  -11.9160   -0.2530 C   0  0  0  0  0  0  0  0  0  0  0  0
   11.6280  -14.3240   -0.6150 C   0  0  0  0  0  0  0  0  0  0  0  0
    9.8930  -12.5460   -1.3550 C   0  0  2  0  0  0  0  0  0  0  0  0
    9.1020  -12.5050   -0.0410 C   0  0  0  0  0  0  0  0  0  0  0  0
    7.6620  -12.0820   -0.3140 C   0  0  0  0  0  0  0  0  0  0  0  0
    6.9050  -13.1730   -1.0840 C   0  0  1  0  0  0  0  0  0  0  0  0
    5.4100  -12.8410   -1.3610 C   0  0  1  0  0  0  0  0  0  0  0  0
    5.2900  -11.4140   -1.9850 C   0  0  0  0  0  0  0  0  0  0  0  0
    4.4920  -12.9150   -0.1080 C   0  0  1  0  0  0  0  0  0  0  0  0
    4.5090  -11.7230    0.6650 O   0  0  0  0  0  0  0  0  0  0  0  0
    0.1176   -9.1241    2.2735 H   0  0  0  0  0  0  0  0  0  0  0  0
    0.7413   -9.7760    0.7202 H   0  0  0  0  0  0  0  0  0  0  0  0
   -0.6175   -8.6011    0.7202 H   0  0  0  0  0  0  0  0  0  0  0  0
   -2.0257  -13.9308    1.4355 H   0  0  0  0  0  0  0  0  0  0  0  0
   -2.4509  -13.1315   -0.1160 H   0  0  0  0  0  0  0  0  0  0  0  0
   -1.4144  -14.5986   -0.1160 H   0  0  0  0  0  0  0  0  0  0  0  0
   -0.6966  -12.7210    2.6897 H   0  0  0  0  0  0  0  0  0  0  0  0
    0.5178  -13.9249    2.1396 H   0  0  0  0  0  0  0  0  0  0  0  0
    0.9238  -12.1751    2.1396 H   0  0  0  0  0  0  0  0  0  0  0  0
    0.1265  -12.9842   -1.4411 H   0  0  0  0  0  0  0  0  0  0  0  0
    1.9446  -11.5209   -1.2538 H   0  0  0  0  0  0  0  0  0  0  0  0
    2.0415  -11.7069    0.4860 H   0  0  0  0  0  0  0  0  0  0  0  0
    0.5585  -15.1468    0.2821 H   0  0  0  0  0  0  0  0  0  0  0  0
    1.6678  -16.3539   -1.4960 H   0  0  0  0  0  0  0  0  0  0  0  0
    0.3173  -15.2959   -2.1524 H   0  0  0  0  0  0  0  0  0  0  0  0
    2.9071  -15.5313   -3.1025 H   0  0  0  0  0  0  0  0  0  0  0  0
    0.6676  -13.4705   -3.5079 H   0  0  0  0  0  0  0  0  0  0  0  0
    2.1494  -13.4727   -4.5232 H   0  0  0  0  0  0  0  0  0  0  0  0
    1.0586  -14.8998   -4.5232 H   0  0  0  0  0  0  0  0  0  0  0  0
    2.9965  -12.8419   -2.8394 H   0  0  0  0  0  0  0  0  0  0  0  0
    5.0619  -15.4135   -0.5981 H   0  0  0  0  0  0  0  0  0  0  0  0
    4.2794  -16.1113   -2.0567 H   0  0  0  0  0  0  0  0  0  0  0  0
    6.0446  -15.7788   -2.0567 H   0  0  0  0  0  0  0  0  0  0  0  0
    5.1968  -14.8639   -4.1592 H   0  0  0  0  0  0  0  0  0  0  0  0
    4.8948  -13.0554   -4.1454 H   0  0  0  0  0  0  0  0  0  0  0  0
    7.3513  -14.4009   -4.3262 H   0  0  0  0  0  0  0  0  0  0  0  0
    6.9701  -12.5942   -4.0546 H   0  0  0  0  0  0  0  0  0  0  0  0
    8.7753  -15.1841   -1.1330 H   0  0  0  0  0  0  0  0  0  0  0  0
    8.7884  -15.7547   -2.5858 H   0  0  0  0  0  0  0  0  0  0  0  0
    9.4044  -13.8758   -4.5275 H   0  0  0  0  0  0  0  0  0  0  0  0
    9.8107  -12.1693   -4.0982 H   0  0  0  0  0  0  0  0  0  0  0  0
   11.4552  -14.6615   -3.4625 H   0  0  0  0  0  0  0  0  0  0  0  0
   11.8427  -13.3579   -4.6612 H   0  0  0  0  0  0  0  0  0  0  0  0
   12.0138  -11.7227   -2.8782 H   0  0  0  0  0  0  0  0  0  0  0  0
   13.4600  -14.1730   -2.5200 H   0  0  0  0  0  0  0  0  0  0  0  0
   11.9120  -12.2018    0.7900 H   0  0  0  0  0  0  0  0  0  0  0  0
   13.1975  -11.9353   -0.4360 H   0  0  0  0  0  0  0  0  0  0  0  0
   11.7283  -10.9018   -0.4360 H   0  0  0  0  0  0  0  0  0  0  0  0
   11.6192  -14.2665    0.4835 H   0  0  0  0  0  0  0  0  0  0  0  0
   10.8220  -14.9916   -0.9537 H   0  0  0  0  0  0  0  0  0  0  0  0
   12.5974  -14.7183   -0.9537 H   0  0  0  0  0  0  0  0  0  0  0  0
    9.8841  -11.4993   -1.6930 H   0  0  0  0  0  0  0  0  0  0  0  0
    9.1075  -13.5041    0.4192 H   0  0  0  0  0  0  0  0  0  0  0  0
    9.5695  -11.7788    0.6403 H   0  0  0  0  0  0  0  0  0  0  0  0
    7.1531  -11.8988    0.6438 H   0  0  0  0  0  0  0  0  0  0  0  0
    7.6751  -11.1670   -0.9245 H   0  0  0  0  0  0  0  0  0  0  0  0
    6.8723  -14.0392   -0.4068 H   0  0  0  0  0  0  0  0  0  0  0  0
    5.2271  -10.6662   -1.1807 H   0  0  0  0  0  0  0  0  0  0  0  0
    6.1742  -11.2102   -2.6068 H   0  0  0  0  0  0  0  0  0  0  0  0
    4.3842  -11.3607   -2.6068 H   0  0  0  0  0  0  0  0  0  0  0  0
    4.8465  -13.6735    0.6054 H   0  0  0  0  0  0  0  0  0  0  0  0
    4.2540  -11.0000    0.0640 H   0  0  0  0  0  0  0  0  0  0  0  0
  1  2  1  0
  2  3  2  0
  2  4  1  0
  4  5  1  0
  5  6  1  0
  5  7  1  0
  5  8  1  0
  8  9  1  0
 10  9  1  6
 10 11  1  0
 11 12  1  0
 12 13  1  0
 13 14  1  0
 14 15  1  0
 14 16  1  0
 16 17  1  0
 17 18  1  1
 17 19  1  0
 19 20  1  0
 21 20  1  6
 21 22  1  0
 23 22  1  1
 23 24  1  0
 24 25  1  0
 25 26  1  0
 26 27  1  0
 26 28  1  0
 28 29  1  0
 28 30  1  0
 28 31  1  0
 31 32  1  0
 32 33  1  0
 33 34  1  0
 34 35  1  0
 35 36  1  6
 35 37  1  0
 37 38  1  0
 12  8  1  0
 35 17  1  0
 16 10  1  0
 23 21  1  0
 37 10  1  0
 34 21  1  0
 31 23  1  0
  1 39  1  0
  1 40  1  0
  1 41  1  0
  6 42  1  0
  6 43  1  0
  6 44  1  0
  7 45  1  0
  7 46  1  0
  7 47  1  0
  8 48  1  6
  9 49  1  0
  9 50  1  0
 12 51  1  1
 13 52  1  0
 13 53  1  0
 14 54  1  6
 15 55  1  0
 15 56  1  0
 15 57  1  0
 16 58  1  6
 18 59  1  0
 18 60  1  0
 18 61  1  0
 19 62  1  0
 19 63  1  0
 20 64  1  0
 20 65  1  0
 22 66  1  0
 22 67  1  0
 24 68  1  0
 24 69  1  0
 25 70  1  0
 25 71  1  0
 26 72  1  6
 27 73  1  0
 29 74  1  0
 29 75  1  0
 29 76  1  0
 30 77  1  0
 30 78  1  0
 30 79  1  0
 31 80  1  6
 32 81  1  0
 32 82  1  0
 33 83  1  0
 33 84  1  0
 34 85  1  1
 36 86  1  0
 36 87  1  0
 36 88  1  0
 37 89  1  1
 38 90  1  0
M  END
>  <meeko>  (3) 
{"is_sidechain": [false], "free_energy": -8.561, "intermolecular_energy": -10.55, "internal_energy": -0.449}

$$$$
LIB_RWVZCSBFQAARFN__M_PUB_ALL__e8__s20260927
     RDKit          3D

 90 96  0  0  0  0  0  0  0  0999 V2000
    4.9110  -12.6460   -6.9250 C   0  0  0  0  0  0  0  0  0  0  0  0
    5.9020  -13.5530   -6.2630 C   0  0  0  0  0  0  0  0  0  0  0  0
    6.0450  -14.7320   -6.5460 O   0  0  0  0  0  0  0  0  0  0  0  0
    6.5860  -12.8650   -5.3130 O   0  0  0  0  0  0  0  0  0  0  0  0
    6.3980  -13.1290   -3.8870 C   0  0  0  0  0  0  0  0  0  0  0  0
    6.8520  -11.8180   -3.2150 C   0  0  0  0  0  0  0  0  0  0  0  0
    7.3570  -14.2440   -3.4310 C   0  0  0  0  0  0  0  0  0  0  0  0
    4.9150  -13.4880   -3.5860 C   0  0  1  0  0  0  0  0  0  0  0  0
    4.7110  -14.6790   -2.6410 C   0  0  0  0  0  0  0  0  0  0  0  0
    3.5670  -14.2200   -1.7400 C   0  0  1  0  0  0  0  0  0  0  0  0
    3.8730  -12.8230   -1.5790 O   0  0  0  0  0  0  0  0  0  0  0  0
    4.1250  -12.3530   -2.9100 C   0  0  2  0  0  0  0  0  0  0  0  0
    2.7500  -12.0960   -3.5300 C   0  0  0  0  0  0  0  0  0  0  0  0
    1.7680  -13.2840   -3.4420 C   0  0  1  0  0  0  0  0  0  0  0  0
    1.5440  -13.8970   -4.8360 C   0  0  0  0  0  0  0  0  0  0  0  0
    2.1720  -14.3840   -2.4250 C   0  0  2  0  0  0  0  0  0  0  0  0
    1.2170  -14.6310   -1.2150 C   0  0  1  0  0  0  0  0  0  0  0  0
    0.8720  -13.2780   -0.5150 C   0  0  0  0  0  0  0  0  0  0  0  0
   -0.1010  -15.3160   -1.5790 C   0  0  0  0  0  0  0  0  0  0  0  0
   -0.7550  -16.0900   -0.4230 C   0  0  0  0  0  0  0  0  0  0  0  0
   -0.1300  -15.9790    0.9750 C   0  0  1  0  0  0  0  0  0  0  0  0
   -0.9380  -15.2300    2.0260 C   0  0  0  0  0  0  0  0  0  0  0  0
   -0.8470  -16.7280    2.1360 C   0  0  1  0  0  0  0  0  0  0  0  0
   -2.1300  -17.5040    1.8740 C   0  0  0  0  0  0  0  0  0  0  0  0
   -2.9440  -17.6490    3.1530 C   0  0  0  0  0  0  0  0  0  0  0  0
   -2.1270  -18.2940    4.2730 C   0  0  2  0  0  0  0  0  0  0  0  0
   -2.9360  -18.3720    5.4460 O   0  0  0  0  0  0  0  0  0  0  0  0
   -0.7910  -17.5450    4.5730 C   0  0  0  0  0  0  0  0  0  0  0  0
    0.0150  -18.4000    5.5810 C   0  0  0  0  0  0  0  0  0  0  0  0
   -1.0610  -16.1860    5.2540 C   0  0  0  0  0  0  0  0  0  0  0  0
    0.0020  -17.4010    3.2260 C   0  0  2  0  0  0  0  0  0  0  0  0
    1.4020  -16.7870    3.3600 C   0  0  0  0  0  0  0  0  0  0  0  0
    2.0870  -16.7550    1.9960 C   0  0  0  0  0  0  0  0  0  0  0  0
    1.4060  -15.7440    1.0630 C   0  0  1  0  0  0  0  0  0  0  0  0
    2.0760  -15.6140   -0.3360 C   0  0  1  0  0  0  0  0  0  0  0  0
    2.2800  -17.0310   -0.9610 C   0  0  0  0  0  0  0  0  0  0  0  0
    3.4420  -14.8710   -0.3280 C   0  0  1  0  0  0  0  0  0  0  0  0
    4.5340  -15.7190    0.0040 O   0  0  0  0  0  0  0  0  0  0  0  0
    4.3302  -12.1144   -6.1568 H   0  0  0  0  0  0  0  0  0  0  0  0
    5.4438  -11.9161   -7.5522 H   0  0  0  0  0  0  0  0  0  0  0  0
    4.2311  -13.2412   -7.5522 H   0  0  0  0  0  0  0  0  0  0  0  0
    6.8120  -11.9334   -2.1218 H   0  0  0  0  0  0  0  0  0  0  0  0
    7.8827  -11.5865   -3.5218 H   0  0  0  0  0  0  0  0  0  0  0  0
    6.1853  -10.9987   -3.5218 H   0  0  0  0  0  0  0  0  0  0  0  0
    7.3851  -14.2767   -2.3318 H   0  0  0  0  0  0  0  0  0  0  0  0
    7.0046  -15.2116   -3.8177 H   0  0  0  0  0  0  0  0  0  0  0  0
    8.3664  -14.0403   -3.8177 H   0  0  0  0  0  0  0  0  0  0  0  0
    4.5533  -13.7137   -4.6000 H   0  0  0  0  0  0  0  0  0  0  0  0
    4.4326  -15.5836   -3.2015 H   0  0  0  0  0  0  0  0  0  0  0  0
    5.6198  -14.9452   -2.0813 H   0  0  0  0  0  0  0  0  0  0  0  0
    4.7065  -11.4233   -2.9969 H   0  0  0  0  0  0  0  0  0  0  0  0
    2.2963  -11.2379   -3.0126 H   0  0  0  0  0  0  0  0  0  0  0  0
    2.9222  -11.9152   -4.6013 H   0  0  0  0  0  0  0  0  0  0  0  0
    0.8281  -12.8613   -3.0575 H   0  0  0  0  0  0  0  0  0  0  0  0
    1.1683  -14.9252   -4.7283 H   0  0  0  0  0  0  0  0  0  0  0  0
    0.8082  -13.2937   -5.3879 H   0  0  0  0  0  0  0  0  0  0  0  0
    2.4954  -13.9102   -5.3879 H   0  0  0  0  0  0  0  0  0  0  0  0
    2.1457  -15.2215   -3.1377 H   0  0  0  0  0  0  0  0  0  0  0  0
    0.9059  -13.4108    0.5764 H   0  0  0  0  0  0  0  0  0  0  0  0
    1.6039  -12.5133   -0.8142 H   0  0  0  0  0  0  0  0  0  0  0  0
   -0.1367  -12.9571   -0.8142 H   0  0  0  0  0  0  0  0  0  0  0  0
   -0.8072  -14.5444   -1.9193 H   0  0  0  0  0  0  0  0  0  0  0  0
    0.1345  -16.0557   -2.3584 H   0  0  0  0  0  0  0  0  0  0  0  0
   -1.7945  -15.7391   -0.3435 H   0  0  0  0  0  0  0  0  0  0  0  0
   -0.6221  -17.1473   -0.6958 H   0  0  0  0  0  0  0  0  0  0  0  0
   -0.4205  -14.5973    2.7621 H   0  0  0  0  0  0  0  0  0  0  0  0
   -1.7717  -14.5136    1.9851 H   0  0  0  0  0  0  0  0  0  0  0  0
   -2.7294  -16.9675    1.1237 H   0  0  0  0  0  0  0  0  0  0  0  0
   -1.8671  -18.5072    1.5073 H   0  0  0  0  0  0  0  0  0  0  0  0
   -3.2735  -16.6520    3.4808 H   0  0  0  0  0  0  0  0  0  0  0  0
   -3.8057  -18.2984    2.9394 H   0  0  0  0  0  0  0  0  0  0  0  0
   -1.8356  -19.3005    3.9383 H   0  0  0  0  0  0  0  0  0  0  0  0
   -2.3680  -18.6670    6.1780 H   0  0  0  0  0  0  0  0  0  0  0  0
   -0.2573  -18.1111    6.6069 H   0  0  0  0  0  0  0  0  0  0  0  0
   -0.2160  -19.4643    5.4262 H   0  0  0  0  0  0  0  0  0  0  0  0
    1.0910  -18.2321    5.4262 H   0  0  0  0  0  0  0  0  0  0  0  0
   -1.0360  -16.3119    6.3465 H   0  0  0  0  0  0  0  0  0  0  0  0
   -0.2888  -15.4639    4.9504 H   0  0  0  0  0  0  0  0  0  0  0  0
   -2.0506  -15.8139    4.9504 H   0  0  0  0  0  0  0  0  0  0  0  0
    0.2028  -18.4321    2.8997 H   0  0  0  0  0  0  0  0  0  0  0  0
    1.3151  -15.7617    3.7488 H   0  0  0  0  0  0  0  0  0  0  0  0
    2.0008  -17.3972    4.0522 H   0  0  0  0  0  0  0  0  0  0  0  0
    3.1407  -16.4688    2.1291 H   0  0  0  0  0  0  0  0  0  0  0  0
    2.0139  -17.7548    1.5432 H   0  0  0  0  0  0  0  0  0  0  0  0
    1.5587  -14.7614    1.5333 H   0  0  0  0  0  0  0  0  0  0  0  0
    2.3870  -17.7743   -0.1572 H   0  0  0  0  0  0  0  0  0  0  0  0
    1.4093  -17.2862   -1.5829 H   0  0  0  0  0  0  0  0  0  0  0  0
    3.1873  -17.0303   -1.5829 H   0  0  0  0  0  0  0  0  0  0  0  0
    3.4773  -14.1053    0.4610 H   0  0  0  0  0  0  0  0  0  0  0  0
    5.3130  -15.3620   -0.4590 H   0  0  0  0  0  0  0  0  0  0  0  0
  1  2  1  0
  2  3  2  0
  2  4  1  0
  4  5  1  0
  5  6  1  0
  5  7  1  0
  5  8  1  0
  8  9  1  0
 10  9  1  6
 10 11  1  0
 11 12  1  0
 12 13  1  0
 13 14  1  0
 14 15  1  0
 14 16  1  0
 16 17  1  0
 17 18  1  1
 17 19  1  0
 19 20  1  0
 21 20  1  6
 21 22  1  0
 23 22  1  1
 23 24  1  0
 24 25  1  0
 25 26  1  0
 26 27  1  0
 26 28  1  0
 28 29  1  0
 28 30  1  0
 28 31  1  0
 31 32  1  0
 32 33  1  0
 33 34  1  0
 34 35  1  0
 35 36  1  6
 35 37  1  0
 37 38  1  0
 12  8  1  0
 35 17  1  0
 16 10  1  0
 23 21  1  0
 37 10  1  0
 34 21  1  0
 31 23  1  0
  1 39  1  0
  1 40  1  0
  1 41  1  0
  6 42  1  0
  6 43  1  0
  6 44  1  0
  7 45  1  0
  7 46  1  0
  7 47  1  0
  8 48  1  6
  9 49  1  0
  9 50  1  0
 12 51  1  1
 13 52  1  0
 13 53  1  0
 14 54  1  1
 15 55  1  0
 15 56  1  0
 15 57  1  0
 16 58  1  6
 18 59  1  0
 18 60  1  0
 18 61  1  0
 19 62  1  0
 19 63  1  0
 20 64  1  0
 20 65  1  0
 22 66  1  0
 22 67  1  0
 24 68  1  0
 24 69  1  0
 25 70  1  0
 25 71  1  0
 26 72  1  6
 27 73  1  0
 29 74  1  0
 29 75  1  0
 29 76  1  0
 30 77  1  0
 30 78  1  0
 30 79  1  0
 31 80  1  6
 32 81  1  0
 32 82  1  0
 33 83  1  0
 33 84  1  0
 34 85  1  1
 36 86  1  0
 36 87  1  0
 36 88  1  0
 37 89  1  1
 38 90  1  0
M  END
>  <meeko>  (4) 
{"is_sidechain": [false], "free_energy": -8.438, "intermolecular_energy": -10.101, "internal_energy": -0.746}

$$$$
LIB_RWVZCSBFQAARFN__M_PUB_ALL__e8__s20260927
     RDKit          3D

 90 96  0  0  0  0  0  0  0  0999 V2000
   13.6270  -11.8410   -2.8370 C   0  0  0  0  0  0  0  0  0  0  0  0
   12.9070  -11.5330   -1.5600 C   0  0  0  0  0  0  0  0  0  0  0  0
   13.4480  -11.0890   -0.5600 O   0  0  0  0  0  0  0  0  0  0  0  0
   11.5900  -11.8380   -1.6940 O   0  0  0  0  0  0  0  0  0  0  0  0
   10.9550  -12.8770   -0.8850 C   0  0  0  0  0  0  0  0  0  0  0  0
   10.8050  -12.2140    0.4990 C   0  0  0  0  0  0  0  0  0  0  0  0
   11.9090  -14.0740   -0.7280 C   0  0  0  0  0  0  0  0  0  0  0  0
    9.5940  -13.3030   -1.5080 C   0  0  1  0  0  0  0  0  0  0  0  0
    8.6830  -14.1240   -0.5860 C   0  0  0  0  0  0  0  0  0  0  0  0
    7.2980  -13.5420   -0.8530 C   0  0  1  0  0  0  0  0  0  0  0  0
    7.6010  -12.1440   -1.0160 O   0  0  0  0  0  0  0  0  0  0  0  0
    8.7050  -12.1200   -1.9310 C   0  0  2  0  0  0  0  0  0  0  0  0
    8.0960  -12.2660   -3.3270 C   0  0  0  0  0  0  0  0  0  0  0  0
    7.1480  -13.4730   -3.4950 C   0  0  1  0  0  0  0  0  0  0  0  0
    7.7960  -14.5420   -4.3930 C   0  0  0  0  0  0  0  0  0  0  0  0
    6.6620  -14.1060   -2.1650 C   0  0  2  0  0  0  0  0  0  0  0  0
    5.1320  -14.0540   -1.8590 C   0  0  1  0  0  0  0  0  0  0  0  0
    4.5910  -12.6020   -2.0540 C   0  0  0  0  0  0  0  0  0  0  0  0
    4.2830  -14.9870   -2.7250 C   0  0  0  0  0  0  0  0  0  0  0  0
    2.9490  -15.4060   -2.0860 C   0  0  0  0  0  0  0  0  0  0  0  0
    2.5380  -14.7520   -0.7590 C   0  0  1  0  0  0  0  0  0  0  0  0
    1.3460  -13.8060   -0.8060 C   0  0  0  0  0  0  0  0  0  0  0  0
    1.1560  -15.1550   -0.1660 C   0  0  1  0  0  0  0  0  0  0  0  0
    0.2570  -16.1330   -0.9080 C   0  0  0  0  0  0  0  0  0  0  0  0
   -1.1990  -15.9450   -0.4990 C   0  0  0  0  0  0  0  0  0  0  0  0
   -1.3800  -16.0660    1.0150 C   0  0  2  0  0  0  0  0  0  0  0  0
   -2.7560  -15.8490    1.3310 O   0  0  0  0  0  0  0  0  0  0  0  0
   -0.4690  -15.0930    1.8250 C   0  0  0  0  0  0  0  0  0  0  0  0
   -0.6140  -15.4470    3.3260 C   0  0  0  0  0  0  0  0  0  0  0  0
   -0.9400  -13.6310    1.6640 C   0  0  0  0  0  0  0  0  0  0  0  0
    1.0130  -15.3070    1.3570 C   0  0  2  0  0  0  0  0  0  0  0  0
    2.0640  -14.5070    2.1400 C   0  0  0  0  0  0  0  0  0  0  0  0
    3.4610  -14.8460    1.6280 C   0  0  0  0  0  0  0  0  0  0  0  0
    3.6730  -14.3040    0.2080 C   0  0  1  0  0  0  0  0  0  0  0  0
    5.0940  -14.5650   -0.3710 C   0  0  1  0  0  0  0  0  0  0  0  0
    5.4720  -16.0700   -0.1930 C   0  0  0  0  0  0  0  0  0  0  0  0
    6.2150  -13.6910    0.2600 C   0  0  1  0  0  0  0  0  0  0  0  0
    6.7200  -14.2290    1.4750 O   0  0  0  0  0  0  0  0  0  0  0  0
   14.6161  -12.2641   -2.6074 H   0  0  0  0  0  0  0  0  0  0  0  0
   13.0436  -12.5683   -3.4207 H   0  0  0  0  0  0  0  0  0  0  0  0
   13.7501  -10.9168   -3.4207 H   0  0  0  0  0  0  0  0  0  0  0  0
   10.9747  -12.9643    1.2853 H   0  0  0  0  0  0  0  0  0  0  0  0
   11.5426  -11.4042    0.5995 H   0  0  0  0  0  0  0  0  0  0  0  0
    9.7906  -11.8006    0.5995 H   0  0  0  0  0  0  0  0  0  0  0  0
   12.0704  -14.2765    0.3411 H   0  0  0  0  0  0  0  0  0  0  0  0
   11.4670  -14.9604   -1.2064 H   0  0  0  0  0  0  0  0  0  0  0  0
   12.8717  -13.8408   -1.2064 H   0  0  0  0  0  0  0  0  0  0  0  0
    9.9435  -13.9002   -2.3631 H   0  0  0  0  0  0  0  0  0  0  0  0
    8.7185  -15.1922   -0.8462 H   0  0  0  0  0  0  0  0  0  0  0  0
    8.9774  -14.0670    0.4723 H   0  0  0  0  0  0  0  0  0  0  0  0
    9.3173  -11.2062   -1.9315 H   0  0  0  0  0  0  0  0  0  0  0  0
    7.5281  -11.3508   -3.5504 H   0  0  0  0  0  0  0  0  0  0  0  0
    8.9367  -12.4333   -4.0164 H   0  0  0  0  0  0  0  0  0  0  0  0
    6.2435  -13.0709   -3.9748 H   0  0  0  0  0  0  0  0  0  0  0  0
    8.2640  -15.3141   -3.7646 H   0  0  0  0  0  0  0  0  0  0  0  0
    7.0255  -15.0035   -5.0281 H   0  0  0  0  0  0  0  0  0  0  0  0
    8.5616  -14.0724   -5.0281 H   0  0  0  0  0  0  0  0  0  0  0  0
    6.9937  -15.1300   -2.3919 H   0  0  0  0  0  0  0  0  0  0  0  0
    4.4188  -12.1398   -1.0708 H   0  0  0  0  0  0  0  0  0  0  0  0
    5.3282  -12.0082   -2.6143 H   0  0  0  0  0  0  0  0  0  0  0  0
    3.6450  -12.6353   -2.6143 H   0  0  0  0  0  0  0  0  0  0  0  0
    4.0643  -14.4730   -3.6726 H   0  0  0  0  0  0  0  0  0  0  0  0
    4.8687  -15.9079   -2.8625 H   0  0  0  0  0  0  0  0  0  0  0  0
    2.1557  -15.1871   -2.8159 H   0  0  0  0  0  0  0  0  0  0  0  0
    3.0921  -16.4667   -1.8319 H   0  0  0  0  0  0  0  0  0  0  0  0
    1.3437  -12.9012   -0.1805 H   0  0  0  0  0  0  0  0  0  0  0  0
    0.8319  -13.2601   -1.6108 H   0  0  0  0  0  0  0  0  0  0  0  0
    0.3528  -15.9614   -1.9903 H   0  0  0  0  0  0  0  0  0  0  0  0
    0.5654  -17.1580   -0.6547 H   0  0  0  0  0  0  0  0  0  0  0  0
   -1.5337  -14.9474   -0.8197 H   0  0  0  0  0  0  0  0  0  0  0  0
   -1.7956  -16.7338   -0.9804 H   0  0  0  0  0  0  0  0  0  0  0  0
   -1.0707  -17.0794    1.3105 H   0  0  0  0  0  0  0  0  0  0  0  0
   -3.2880  -16.3710    0.7060 H   0  0  0  0  0  0  0  0  0  0  0  0
   -0.2674  -14.6008    3.9374 H   0  0  0  0  0  0  0  0  0  0  0  0
   -1.6699  -15.6554    3.5532 H   0  0  0  0  0  0  0  0  0  0  0  0
   -0.0077  -16.3362    3.5532 H   0  0  0  0  0  0  0  0  0  0  0  0
   -1.0850  -13.1810    2.6572 H   0  0  0  0  0  0  0  0  0  0  0  0
   -0.1804  -13.0599    1.1101 H   0  0  0  0  0  0  0  0  0  0  0  0
   -1.8901  -13.6108    1.1101 H   0  0  0  0  0  0  0  0  0  0  0  0
    1.2441  -16.3525    1.6093 H   0  0  0  0  0  0  0  0  0  0  0  0
    1.8776  -13.4312    2.0066 H   0  0  0  0  0  0  0  0  0  0  0  0
    1.9961  -14.7662    3.2069 H   0  0  0  0  0  0  0  0  0  0  0  0
    4.2086  -14.3982    2.2993 H   0  0  0  0  0  0  0  0  0  0  0  0
    3.5698  -15.9404    1.6052 H   0  0  0  0  0  0  0  0  0  0  0  0
    3.6110  -13.2096    0.2998 H   0  0  0  0  0  0  0  0  0  0  0  0
    5.5319  -16.3087    0.8791 H   0  0  0  0  0  0  0  0  0  0  0  0
    4.7040  -16.6994   -0.6664 H   0  0  0  0  0  0  0  0  0  0  0  0
    6.4462  -16.2618   -0.6664 H   0  0  0  0  0  0  0  0  0  0  0  0
    5.8322  -12.7068    0.5680 H   0  0  0  0  0  0  0  0  0  0  0  0
    7.0610  -15.1170    1.2630 H   0  0  0  0  0  0  0  0  0  0  0  0
  1  2  1  0
  2  3  2  0
  2  4  1  0
  4  5  1  0
  5  6  1  0
  5  7  1  0
  5  8  1  0
  8  9  1  0
 10  9  1  1
 10 11  1  0
 11 12  1  0
 12 13  1  0
 13 14  1  0
 14 15  1  0
 14 16  1  0
 16 17  1  0
 17 18  1  1
 17 19  1  0
 19 20  1  0
 21 20  1  6
 21 22  1  0
 23 22  1  6
 23 24  1  0
 24 25  1  0
 25 26  1  0
 26 27  1  0
 26 28  1  0
 28 29  1  0
 28 30  1  0
 28 31  1  0
 31 32  1  0
 32 33  1  0
 33 34  1  0
 34 35  1  0
 35 36  1  6
 35 37  1  0
 37 38  1  0
 12  8  1  0
 35 17  1  0
 16 10  1  0
 23 21  1  0
 37 10  1  0
 34 21  1  0
 31 23  1  0
  1 39  1  0
  1 40  1  0
  1 41  1  0
  6 42  1  0
  6 43  1  0
  6 44  1  0
  7 45  1  0
  7 46  1  0
  7 47  1  0
  8 48  1  6
  9 49  1  0
  9 50  1  0
 12 51  1  6
 13 52  1  0
 13 53  1  0
 14 54  1  6
 15 55  1  0
 15 56  1  0
 15 57  1  0
 16 58  1  6
 18 59  1  0
 18 60  1  0
 18 61  1  0
 19 62  1  0
 19 63  1  0
 20 64  1  0
 20 65  1  0
 22 66  1  0
 22 67  1  0
 24 68  1  0
 24 69  1  0
 25 70  1  0
 25 71  1  0
 26 72  1  1
 27 73  1  0
 29 74  1  0
 29 75  1  0
 29 76  1  0
 30 77  1  0
 30 78  1  0
 30 79  1  0
 31 80  1  6
 32 81  1  0
 32 82  1  0
 33 83  1  0
 33 84  1  0
 34 85  1  1
 36 86  1  0
 36 87  1  0
 36 88  1  0
 37 89  1  1
 38 90  1  0
M  END
>  <meeko>  (5) 
{"is_sidechain": [false], "free_energy": -8.073, "intermolecular_energy": -10.163, "internal_energy": -0.234}

$$$$
LIB_RWVZCSBFQAARFN__M_PUB_ALL__e8__s20260927
     RDKit          3D

 90 96  0  0  0  0  0  0  0  0999 V2000
    4.6020  -17.8470   11.4000 C   0  0  0  0  0  0  0  0  0  0  0  0
    4.1640  -17.6600    9.9800 C   0  0  0  0  0  0  0  0  0  0  0  0
    4.8370  -17.1090    9.1240 O   0  0  0  0  0  0  0  0  0  0  0  0
    2.9200  -18.1800    9.8150 O   0  0  0  0  0  0  0  0  0  0  0  0
    2.7040  -19.4530    9.1290 C   0  0  0  0  0  0  0  0  0  0  0  0
    2.2700  -20.4040   10.2630 C   0  0  0  0  0  0  0  0  0  0  0  0
    4.0380  -19.9770    8.5660 C   0  0  0  0  0  0  0  0  0  0  0  0
    1.6290  -19.3020    8.0150 C   0  0  1  0  0  0  0  0  0  0  0  0
    0.9850  -17.9130    7.9150 C   0  0  0  0  0  0  0  0  0  0  0  0
    0.9010  -17.6730    6.4100 C   0  0  1  0  0  0  0  0  0  0  0  0
    2.1300  -18.2680    5.9560 O   0  0  0  0  0  0  0  0  0  0  0  0
    2.1660  -19.5520    6.5940 C   0  0  2  0  0  0  0  0  0  0  0  0
    1.2790  -20.4650    5.7450 C   0  0  0  0  0  0  0  0  0  0  0  0
   -0.1410  -19.9200    5.4750 C   0  0  1  0  0  0  0  0  0  0  0  0
   -1.1860  -20.7390    6.2540 C   0  0  0  0  0  0  0  0  0  0  0  0
   -0.3170  -18.4060    5.7610 C   0  0  2  0  0  0  0  0  0  0  0  0
   -0.6750  -17.4830    4.5530 C   0  0  1  0  0  0  0  0  0  0  0  0
    0.3000  -17.7490    3.3630 C   0  0  0  0  0  0  0  0  0  0  0  0
   -2.1030  -17.6490    4.0320 C   0  0  0  0  0  0  0  0  0  0  0  0
   -2.6630  -16.4140    3.3080 C   0  0  0  0  0  0  0  0  0  0  0  0
   -1.7200  -15.2310    3.0480 C   0  0  1  0  0  0  0  0  0  0  0  0
   -1.3390  -14.9680    1.5970 C   0  0  0  0  0  0  0  0  0  0  0  0
   -2.3000  -14.0190    2.2630 C   0  0  1  0  0  0  0  0  0  0  0  0
   -3.7350  -14.0460    1.7570 C   0  0  0  0  0  0  0  0  0  0  0  0
   -3.9100  -13.0960    0.5780 C   0  0  0  0  0  0  0  0  0  0  0  0
   -3.4740  -11.6730    0.9290 C   0  0  2  0  0  0  0  0  0  0  0  0
   -3.6340  -10.8470   -0.2240 O   0  0  0  0  0  0  0  0  0  0  0  0
   -2.0120  -11.5910    1.4670 C   0  0  0  0  0  0  0  0  0  0  0  0
   -1.7680  -10.1420    1.9550 C   0  0  0  0  0  0  0  0  0  0  0  0
   -0.9920  -11.8610    0.3390 C   0  0  0  0  0  0  0  0  0  0  0  0
   -1.8730  -12.5970    2.6630 C   0  0  2  0  0  0  0  0  0  0  0  0
   -0.5220  -12.5600    3.3910 C   0  0  0  0  0  0  0  0  0  0  0  0
   -0.5360  -13.5380    4.5620 C   0  0  0  0  0  0  0  0  0  0  0  0
   -0.5670  -14.9900    4.0650 C   0  0  1  0  0  0  0  0  0  0  0  0
   -0.5320  -16.0550    5.2000 C   0  0  1  0  0  0  0  0  0  0  0  0
   -1.6150  -15.7200    6.2750 C   0  0  0  0  0  0  0  0  0  0  0  0
    0.8450  -16.1970    5.9070 C   0  0  1  0  0  0  0  0  0  0  0  0
    1.0420  -15.2390    6.9380 O   0  0  0  0  0  0  0  0  0  0  0  0
    3.8049  -17.5067   12.0774 H   0  0  0  0  0  0  0  0  0  0  0  0
    4.8087  -18.9118   11.5828 H   0  0  0  0  0  0  0  0  0  0  0  0
    5.5140  -17.2598   11.5828 H   0  0  0  0  0  0  0  0  0  0  0  0
    2.4834  -19.9364   11.2355 H   0  0  0  0  0  0  0  0  0  0  0  0
    1.1914  -20.6041   10.1811 H   0  0  0  0  0  0  0  0  0  0  0  0
    2.8256  -21.3498   10.1811 H   0  0  0  0  0  0  0  0  0  0  0  0
    4.7086  -20.2404    9.3972 H   0  0  0  0  0  0  0  0  0  0  0  0
    3.8508  -20.8684    7.9493 H   0  0  0  0  0  0  0  0  0  0  0  0
    4.5076  -19.1965    7.9493 H   0  0  0  0  0  0  0  0  0  0  0  0
    0.9000  -20.0612    8.3347 H   0  0  0  0  0  0  0  0  0  0  0  0
   -0.0159  -17.9089    8.3712 H   0  0  0  0  0  0  0  0  0  0  0  0
    1.5549  -17.1350    8.4440 H   0  0  0  0  0  0  0  0  0  0  0  0
    3.1538  -20.0295    6.6734 H   0  0  0  0  0  0  0  0  0  0  0  0
    1.7759  -20.6202    4.7760 H   0  0  0  0  0  0  0  0  0  0  0  0
    1.1501  -21.3937    6.3203 H   0  0  0  0  0  0  0  0  0  0  0  0
   -0.2997  -20.0344    4.3925 H   0  0  0  0  0  0  0  0  0  0  0  0
   -1.0218  -20.6103    7.3340 H   0  0  0  0  0  0  0  0  0  0  0  0
   -2.1955  -20.3890    5.9923 H   0  0  0  0  0  0  0  0  0  0  0  0
   -1.0874  -21.8029    5.9923 H   0  0  0  0  0  0  0  0  0  0  0  0
   -1.1646  -18.5130    6.4539 H   0  0  0  0  0  0  0  0  0  0  0  0
    1.2916  -18.0195    3.7549 H   0  0  0  0  0  0  0  0  0  0  0  0
   -0.0887  -18.5739    2.7479 H   0  0  0  0  0  0  0  0  0  0  0  0
    0.3841  -16.8410    2.7479 H   0  0  0  0  0  0  0  0  0  0  0  0
   -2.1165  -18.4952    3.3293 H   0  0  0  0  0  0  0  0  0  0  0  0
   -2.7413  -17.8125    4.9129 H   0  0  0  0  0  0  0  0  0  0  0  0
   -3.0380  -16.7520    2.3307 H   0  0  0  0  0  0  0  0  0  0  0  0
   -3.4165  -16.0122    4.0014 H   0  0  0  0  0  0  0  0  0  0  0  0
   -0.3207  -14.6306    1.3536 H   0  0  0  0  0  0  0  0  0  0  0  0
   -1.3684  -15.5680    0.6755 H   0  0  0  0  0  0  0  0  0  0  0  0
   -3.9856  -15.0682    1.4370 H   0  0  0  0  0  0  0  0  0  0  0  0
   -4.4023  -13.7256    2.5706 H   0  0  0  0  0  0  0  0  0  0  0  0
   -3.3021  -13.4576   -0.2645 H   0  0  0  0  0  0  0  0  0  0  0  0
   -4.9772  -13.0721    0.3123 H   0  0  0  0  0  0  0  0  0  0  0  0
   -4.1142  -11.3181    1.7501 H   0  0  0  0  0  0  0  0  0  0  0  0
   -4.4060  -11.1730   -0.7170 H   0  0  0  0  0  0  0  0  0  0  0  0
   -1.7645  -10.1212    3.0548 H   0  0  0  0  0  0  0  0  0  0  0  0
   -0.7974   -9.7868    1.5785 H   0  0  0  0  0  0  0  0  0  0  0  0
   -2.5688   -9.4885    1.5785 H   0  0  0  0  0  0  0  0  0  0  0  0
   -0.0177  -12.1189    0.7797 H   0  0  0  0  0  0  0  0  0  0  0  0
   -1.3458  -12.6964   -0.2830 H   0  0  0  0  0  0  0  0  0  0  0  0
   -0.8861  -10.9599   -0.2830 H   0  0  0  0  0  0  0  0  0  0  0  0
   -2.5840  -12.2379    3.4216 H   0  0  0  0  0  0  0  0  0  0  0  0
    0.2778  -12.8416    2.6902 H   0  0  0  0  0  0  0  0  0  0  0  0
   -0.3429  -11.5432    3.7706 H   0  0  0  0  0  0  0  0  0  0  0  0
    0.3681  -13.3849    5.1695 H   0  0  0  0  0  0  0  0  0  0  0  0
   -1.4391  -13.3534    5.1623 H   0  0  0  0  0  0  0  0  0  0  0  0
    0.3795  -15.1350    3.5237 H   0  0  0  0  0  0  0  0  0  0  0  0
   -1.1874  -15.8523    7.2798 H   0  0  0  0  0  0  0  0  0  0  0  0
   -1.9446  -14.6779    6.1510 H   0  0  0  0  0  0  0  0  0  0  0  0
   -2.4755  -16.3940    6.1510 H   0  0  0  0  0  0  0  0  0  0  0  0
    1.6743  -15.9866    5.2156 H   0  0  0  0  0  0  0  0  0  0  0  0
    0.4450  -15.4890    7.6660 H   0  0  0  0  0  0  0  0  0  0  0  0
  1  2  1  0
  2  3  2  0
  2  4  1  0
  4  5  1  0
  5  6  1  0
  5  7  1  0
  5  8  1  0
  8  9  1  0
 10  9  1  1
 10 11  1  0
 11 12  1  0
 12 13  1  0
 13 14  1  0
 14 15  1  0
 14 16  1  0
 16 17  1  0
 17 18  1  6
 17 19  1  0
 19 20  1  0
 21 20  1  6
 21 22  1  0
 23 22  1  6
 23 24  1  0
 24 25  1  0
 25 26  1  0
 26 27  1  0
 26 28  1  0
 28 29  1  0
 28 30  1  0
 28 31  1  0
 31 32  1  0
 32 33  1  0
 33 34  1  0
 34 35  1  0
 35 36  1  1
 35 37  1  0
 37 38  1  0
 12  8  1  0
 35 17  1  0
 16 10  1  0
 23 21  1  0
 37 10  1  0
 34 21  1  0
 31 23  1  0
  1 39  1  0
  1 40  1  0
  1 41  1  0
  6 42  1  0
  6 43  1  0
  6 44  1  0
  7 45  1  0
  7 46  1  0
  7 47  1  0
  8 48  1  1
  9 49  1  0
  9 50  1  0
 12 51  1  1
 13 52  1  0
 13 53  1  0
 14 54  1  6
 15 55  1  0
 15 56  1  0
 15 57  1  0
 16 58  1  1
 18 59  1  0
 18 60  1  0
 18 61  1  0
 19 62  1  0
 19 63  1  0
 20 64  1  0
 20 65  1  0
 22 66  1  0
 22 67  1  0
 24 68  1  0
 24 69  1  0
 25 70  1  0
 25 71  1  0
 26 72  1  1
 27 73  1  0
 29 74  1  0
 29 75  1  0
 29 76  1  0
 30 77  1  0
 30 78  1  0
 30 79  1  0
 31 80  1  1
 32 81  1  0
 32 82  1  0
 33 83  1  0
 33 84  1  0
 34 85  1  6
 36 86  1  0
 36 87  1  0
 36 88  1  0
 37 89  1  6
 38 90  1  0
M  END
>  <meeko>  (6) 
{"is_sidechain": [false], "free_energy": -7.816, "intermolecular_energy": -9.694, "internal_energy": -0.386}

$$$$
LIB_RWVZCSBFQAARFN__M_PUB_ALL__e8__s20260927
     RDKit          3D

 90 96  0  0  0  0  0  0  0  0999 V2000
    6.7430  -17.0890   -7.4780 C   0  0  0  0  0  0  0  0  0  0  0  0
    7.6890  -17.8250   -6.5800 C   0  0  0  0  0  0  0  0  0  0  0  0
    8.0180  -18.9890   -6.7420 O   0  0  0  0  0  0  0  0  0  0  0  0
    8.0960  -17.0050   -5.5770 O   0  0  0  0  0  0  0  0  0  0  0  0
    7.4610  -17.0280   -4.2600 C   0  0  0  0  0  0  0  0  0  0  0  0
    8.6400  -17.2690   -3.2950 C   0  0  0  0  0  0  0  0  0  0  0  0
    6.5170  -18.2390   -4.1550 C   0  0  0  0  0  0  0  0  0  0  0  0
    6.7140  -15.6910   -3.9870 C   0  0  1  0  0  0  0  0  0  0  0  0
    5.2070  -15.8270   -3.7260 C   0  0  0  0  0  0  0  0  0  0  0  0
    4.9610  -14.8500   -2.5800 C   0  0  1  0  0  0  0  0  0  0  0  0
    6.1570  -15.0190   -1.7980 O   0  0  0  0  0  0  0  0  0  0  0  0
    7.2260  -14.9330   -2.7500 C   0  0  2  0  0  0  0  0  0  0  0  0
    7.4560  -13.4390   -2.9860 C   0  0  0  0  0  0  0  0  0  0  0  0
    6.1900  -12.6410   -3.3660 C   0  0  1  0  0  0  0  0  0  0  0  0
    6.2550  -12.2050   -4.8410 C   0  0  0  0  0  0  0  0  0  0  0  0
    4.8530  -13.3720   -3.0760 C   0  0  2  0  0  0  0  0  0  0  0  0
    3.8910  -12.7240   -2.0300 C   0  0  1  0  0  0  0  0  0  0  0  0
    4.6710  -12.3770   -0.7220 C   0  0  0  0  0  0  0  0  0  0  0  0
    3.2000  -11.4470   -2.5130 C   0  0  0  0  0  0  0  0  0  0  0  0
    1.8680  -11.1420   -1.8090 C   0  0  0  0  0  0  0  0  0  0  0  0
    1.4480  -12.0260   -0.6260 C   0  0  1  0  0  0  0  0  0  0  0  0
    1.4510  -11.3720    0.7490 C   0  0  0  0  0  0  0  0  0  0  0  0
    0.1230  -11.6570    0.1020 C   0  0  1  0  0  0  0  0  0  0  0  0
   -0.6860  -10.4460   -0.3410 C   0  0  0  0  0  0  0  0  0  0  0  0
   -1.5640   -9.9380    0.7960 C   0  0  0  0  0  0  0  0  0  0  0  0
   -2.4720  -11.0390    1.3450 C   0  0  2  0  0  0  0  0  0  0  0  0
   -3.2400  -10.5050    2.4240 O   0  0  0  0  0  0  0  0  0  0  0  0
   -1.6920  -12.3120    1.8010 C   0  0  0  0  0  0  0  0  0  0  0  0
   -2.7320  -13.4030    2.1540 C   0  0  0  0  0  0  0  0  0  0  0  0
   -0.8830  -12.0330    3.0870 C   0  0  0  0  0  0  0  0  0  0  0  0
   -0.7900  -12.7860    0.6090 C   0  0  2  0  0  0  0  0  0  0  0  0
   -0.0370  -14.1020    0.8470 C   0  0  0  0  0  0  0  0  0  0  0  0
    0.7540  -14.4810   -0.4020 C   0  0  0  0  0  0  0  0  0  0  0  0
    1.9200  -13.5090   -0.6290 C   0  0  1  0  0  0  0  0  0  0  0  0
    2.8110  -13.8550   -1.8590 C   0  0  1  0  0  0  0  0  0  0  0  0
    1.9120  -14.0880   -3.1160 C   0  0  0  0  0  0  0  0  0  0  0  0
    3.7240  -15.0970   -1.6620 C   0  0  1  0  0  0  0  0  0  0  0  0
    3.0580  -16.3240   -1.9260 O   0  0  0  0  0  0  0  0  0  0  0  0
    6.0206  -16.5270   -6.8679 H   0  0  0  0  0  0  0  0  0  0  0  0
    7.3083  -16.3909   -8.1128 H   0  0  0  0  0  0  0  0  0  0  0  0
    6.2053  -17.8086   -8.1128 H   0  0  0  0  0  0  0  0  0  0  0  0
    8.2846  -17.1964   -2.2565 H   0  0  0  0  0  0  0  0  0  0  0  0
    9.0582  -18.2712   -3.4702 H   0  0  0  0  0  0  0  0  0  0  0  0
    9.4180  -16.5113   -3.4702 H   0  0  0  0  0  0  0  0  0  0  0  0
    6.3356  -18.4717   -3.0953 H   0  0  0  0  0  0  0  0  0  0  0  0
    5.5620  -18.0032   -4.6473 H   0  0  0  0  0  0  0  0  0  0  0  0
    6.9787  -19.1076   -4.6473 H   0  0  0  0  0  0  0  0  0  0  0  0
    6.9123  -15.1551   -4.9269 H   0  0  0  0  0  0  0  0  0  0  0  0
    4.6256  -15.5450   -4.6162 H   0  0  0  0  0  0  0  0  0  0  0  0
    4.9021  -16.8566   -3.4875 H   0  0  0  0  0  0  0  0  0  0  0  0
    8.1873  -15.3721   -2.4450 H   0  0  0  0  0  0  0  0  0  0  0  0
    7.8689  -13.0063   -2.0628 H   0  0  0  0  0  0  0  0  0  0  0  0
    8.1394  -13.3628   -3.8446 H   0  0  0  0  0  0  0  0  0  0  0  0
    6.1897  -11.7588   -2.7089 H   0  0  0  0  0  0  0  0  0  0  0  0
    6.4170  -11.1184   -4.8953 H   0  0  0  0  0  0  0  0  0  0  0  0
    7.0855  -12.7250   -5.3408 H   0  0  0  0  0  0  0  0  0  0  0  0
    5.3089  -12.4601   -5.3408 H   0  0  0  0  0  0  0  0  0  0  0  0
    4.4509  -13.2959   -4.0970 H   0  0  0  0  0  0  0  0  0  0  0  0
    4.0606  -12.6485    0.1519 H   0  0  0  0  0  0  0  0  0  0  0  0
    5.6159  -12.9396   -0.6984 H   0  0  0  0  0  0  0  0  0  0  0  0
    4.8858  -11.2984   -0.6984 H   0  0  0  0  0  0  0  0  0  0  0  0
    3.8816  -10.6008   -2.3416 H   0  0  0  0  0  0  0  0  0  0  0  0
    2.9657  -11.5994   -3.5769 H   0  0  0  0  0  0  0  0  0  0  0  0
    1.9256  -10.1081   -1.4380 H   0  0  0  0  0  0  0  0  0  0  0  0
    1.1053  -11.3379   -2.5770 H   0  0  0  0  0  0  0  0  0  0  0  0
    1.7646  -11.9538    1.6283 H   0  0  0  0  0  0  0  0  0  0  0  0
    1.9218  -10.4706    1.1682 H   0  0  0  0  0  0  0  0  0  0  0  0
    0.0024   -9.6458   -0.6506 H   0  0  0  0  0  0  0  0  0  0  0  0
   -1.3319  -10.7409   -1.1812 H   0  0  0  0  0  0  0  0  0  0  0  0
   -0.9189   -9.5703    1.6076 H   0  0  0  0  0  0  0  0  0  0  0  0
   -2.2014   -9.1322    0.4031 H   0  0  0  0  0  0  0  0  0  0  0  0
   -3.1309  -11.3692    0.5284 H   0  0  0  0  0  0  0  0  0  0  0  0
   -4.1510  -10.8310    2.3270 H   0  0  0  0  0  0  0  0  0  0  0  0
   -2.8152  -13.4902    3.2474 H   0  0  0  0  0  0  0  0  0  0  0  0
   -3.7100  -13.1273    1.7327 H   0  0  0  0  0  0  0  0  0  0  0  0
   -2.4098  -14.3667    1.7327 H   0  0  0  0  0  0  0  0  0  0  0  0
   -1.5072  -12.2483    3.9668 H   0  0  0  0  0  0  0  0  0  0  0  0
    0.0100  -12.6751    3.1050 H   0  0  0  0  0  0  0  0  0  0  0  0
   -0.5757  -10.9770    3.1050 H   0  0  0  0  0  0  0  0  0  0  0  0
   -1.4933  -13.0331   -0.1999 H   0  0  0  0  0  0  0  0  0  0  0  0
    0.6547  -13.9785    1.6933 H   0  0  0  0  0  0  0  0  0  0  0  0
   -0.7617  -14.8983    1.0723 H   0  0  0  0  0  0  0  0  0  0  0  0
    1.1525  -15.4991   -0.2806 H   0  0  0  0  0  0  0  0  0  0  0  0
    0.0819  -14.4321   -1.2714 H   0  0  0  0  0  0  0  0  0  0  0  0
    2.5848  -13.6410    0.2374 H   0  0  0  0  0  0  0  0  0  0  0  0
    0.8936  -14.3519   -2.7946 H   0  0  0  0  0  0  0  0  0  0  0  0
    1.8795  -13.1686   -3.7190 H   0  0  0  0  0  0  0  0  0  0  0  0
    2.3301  -14.9074   -3.7190 H   0  0  0  0  0  0  0  0  0  0  0  0
    4.0311  -15.2066   -0.6114 H   0  0  0  0  0  0  0  0  0  0  0  0
    2.8110  -16.3080   -2.8680 H   0  0  0  0  0  0  0  0  0  0  0  0
  1  2  1  0
  2  3  2  0
  2  4  1  0
  4  5  1  0
  5  6  1  0
  5  7  1  0
  5  8  1  0
  8  9  1  0
 10  9  1  6
 10 11  1  0
 11 12  1  0
 12 13  1  0
 13 14  1  0
 14 15  1  0
 14 16  1  0
 16 17  1  0
 17 18  1  1
 17 19  1  0
 19 20  1  0
 21 20  1  6
 21 22  1  0
 23 22  1  1
 23 24  1  0
 24 25  1  0
 25 26  1  0
 26 27  1  0
 26 28  1  0
 28 29  1  0
 28 30  1  0
 28 31  1  0
 31 32  1  0
 32 33  1  0
 33 34  1  0
 34 35  1  0
 35 36  1  6
 35 37  1  0
 37 38  1  0
 12  8  1  0
 35 17  1  0
 16 10  1  0
 23 21  1  0
 37 10  1  0
 34 21  1  0
 31 23  1  0
  1 39  1  0
  1 40  1  0
  1 41  1  0
  6 42  1  0
  6 43  1  0
  6 44  1  0
  7 45  1  0
  7 46  1  0
  7 47  1  0
  8 48  1  6
  9 49  1  0
  9 50  1  0
 12 51  1  1
 13 52  1  0
 13 53  1  0
 14 54  1  1
 15 55  1  0
 15 56  1  0
 15 57  1  0
 16 58  1  6
 18 59  1  0
 18 60  1  0
 18 61  1  0
 19 62  1  0
 19 63  1  0
 20 64  1  0
 20 65  1  0
 22 66  1  0
 22 67  1  0
 24 68  1  0
 24 69  1  0
 25 70  1  0
 25 71  1  0
 26 72  1  6
 27 73  1  0
 29 74  1  0
 29 75  1  0
 29 76  1  0
 30 77  1  0
 30 78  1  0
 30 79  1  0
 31 80  1  6
 32 81  1  0
 32 82  1  0
 33 83  1  0
 33 84  1  0
 34 85  1  1
 36 86  1  0
 36 87  1  0
 36 88  1  0
 37 89  1  1
 38 90  1  0
M  END
>  <meeko>  (7) 
{"is_sidechain": [false], "free_energy": -7.736, "intermolecular_energy": -9.547, "internal_energy": -0.435}

$$$$
LIB_RWVZCSBFQAARFN__M_PUB_ALL__e8__s20260927
     RDKit          3D

 90 96  0  0  0  0  0  0  0  0999 V2000
   -1.1750  -13.3540    2.0900 C   0  0  0  0  0  0  0  0  0  0  0  0
   -0.8570  -14.8180    2.1100 C   0  0  0  0  0  0  0  0  0  0  0  0
   -0.2930  -15.3820    3.0330 O   0  0  0  0  0  0  0  0  0  0  0  0
   -1.2790  -15.3910    0.9530 O   0  0  0  0  0  0  0  0  0  0  0  0
   -0.3360  -15.9300   -0.0260 C   0  0  0  0  0  0  0  0  0  0  0  0
   -1.1430  -15.9310   -1.3410 C   0  0  0  0  0  0  0  0  0  0  0  0
   -0.0040  -17.3930    0.3180 C   0  0  0  0  0  0  0  0  0  0  0  0
    0.9450  -15.0510   -0.0970 C   0  0  1  0  0  0  0  0  0  0  0  0
    2.2430  -15.7550    0.3190 C   0  0  0  0  0  0  0  0  0  0  0  0
    3.2550  -15.2620   -0.7120 C   0  0  1  0  0  0  0  0  0  0  0  0
    2.4500  -15.2160   -1.9040 O   0  0  0  0  0  0  0  0  0  0  0  0
    1.2590  -14.5220   -1.5070 C   0  0  2  0  0  0  0  0  0  0  0  0
    1.6090  -13.0330   -1.5500 C   0  0  0  0  0  0  0  0  0  0  0  0
    2.8760  -12.6430   -0.7570 C   0  0  1  0  0  0  0  0  0  0  0  0
    2.4940  -11.8360    0.4970 C   0  0  0  0  0  0  0  0  0  0  0  0
    3.7930  -13.8340   -0.3770 C   0  0  2  0  0  0  0  0  0  0  0  0
    5.2330  -13.8540   -0.9800 C   0  0  1  0  0  0  0  0  0  0  0  0
    5.1760  -13.6240   -2.5230 C   0  0  0  0  0  0  0  0  0  0  0  0
    6.1810  -12.8100   -0.3880 C   0  0  0  0  0  0  0  0  0  0  0  0
    7.6710  -13.1740   -0.4910 C   0  0  0  0  0  0  0  0  0  0  0  0
    8.0620  -14.4290   -1.2840 C   0  0  1  0  0  0  0  0  0  0  0  0
    8.8090  -14.2030   -2.5930 C   0  0  0  0  0  0  0  0  0  0  0  0
    9.5820  -14.7400   -1.4180 C   0  0  1  0  0  0  0  0  0  0  0  0
   10.6150  -13.8060   -0.8060 C   0  0  0  0  0  0  0  0  0  0  0  0
   11.9580  -13.9480   -1.5120 C   0  0  0  0  0  0  0  0  0  0  0  0
   12.4490  -15.3950   -1.5060 C   0  0  2  0  0  0  0  0  0  0  0  0
   13.6900  -15.4620   -2.2080 O   0  0  0  0  0  0  0  0  0  0  0  0
   11.4190  -16.4000   -2.1110 C   0  0  0  0  0  0  0  0  0  0  0  0
   11.9580  -17.8310   -1.8730 C   0  0  0  0  0  0  0  0  0  0  0  0
   11.3010  -16.2150   -3.6400 C   0  0  0  0  0  0  0  0  0  0  0  0
   10.0510  -16.2030   -1.3690 C   0  0  2  0  0  0  0  0  0  0  0  0
    8.9500  -17.1980   -1.7630 C   0  0  0  0  0  0  0  0  0  0  0  0
    7.6960  -16.9390   -0.9330 C   0  0  0  0  0  0  0  0  0  0  0  0
    7.0440  -15.6050   -1.3240 C   0  0  1  0  0  0  0  0  0  0  0  0
    5.7270  -15.2870   -0.5570 C   0  0  1  0  0  0  0  0  0  0  0  0
    5.9500  -15.4690    0.9780 C   0  0  0  0  0  0  0  0  0  0  0  0
    4.5080  -16.1500   -0.9900 C   0  0  1  0  0  0  0  0  0  0  0  0
    4.4630  -17.4130   -0.3400 O   0  0  0  0  0  0  0  0  0  0  0  0
   -1.2558  -12.9822    3.1221 H   0  0  0  0  0  0  0  0  0  0  0  0
   -0.3737  -12.8118    1.5666 H   0  0  0  0  0  0  0  0  0  0  0  0
   -2.1290  -13.1931    1.5666 H   0  0  0  0  0  0  0  0  0  0  0  0
   -2.2187  -15.9323   -1.1111 H   0  0  0  0  0  0  0  0  0  0  0  0
   -0.8939  -15.0325   -1.9247 H   0  0  0  0  0  0  0  0  0  0  0  0
   -0.8917  -16.8288   -1.9247 H   0  0  0  0  0  0  0  0  0  0  0  0
    0.0238  -17.5155    1.4108 H   0  0  0  0  0  0  0  0  0  0  0  0
   -0.7751  -18.0533   -0.1055 H   0  0  0  0  0  0  0  0  0  0  0  0
    0.9766  -17.6558   -0.1055 H   0  0  0  0  0  0  0  0  0  0  0  0
    0.6784  -14.2505    0.6088 H   0  0  0  0  0  0  0  0  0  0  0  0
    2.5419  -15.4618    1.3362 H   0  0  0  0  0  0  0  0  0  0  0  0
    2.1504  -16.8509    0.3418 H   0  0  0  0  0  0  0  0  0  0  0  0
    0.3729  -14.6727   -2.1411 H   0  0  0  0  0  0  0  0  0  0  0  0
    1.7617  -12.7474   -2.6013 H   0  0  0  0  0  0  0  0  0  0  0  0
    0.7703  -12.5036   -1.0743 H   0  0  0  0  0  0  0  0  0  0  0  0
    3.4729  -12.0217   -1.4408 H   0  0  0  0  0  0  0  0  0  0  0  0
    2.7645  -12.4074    1.3972 H   0  0  0  0  0  0  0  0  0  0  0  0
    3.0341  -10.8777    0.4949 H   0  0  0  0  0  0  0  0  0  0  0  0
    1.4105  -11.6462    0.4949 H   0  0  0  0  0  0  0  0  0  0  0  0
    3.8103  -13.6312    0.7040 H   0  0  0  0  0  0  0  0  0  0  0  0
    4.9160  -12.5750   -2.7280 H   0  0  0  0  0  0  0  0  0  0  0  0
    6.1577  -13.8514   -2.9641 H   0  0  0  0  0  0  0  0  0  0  0  0
    4.4141  -14.2835   -2.9641 H   0  0  0  0  0  0  0  0  0  0  0  0
    6.0215  -11.8600   -0.9191 H   0  0  0  0  0  0  0  0  0  0  0  0
    5.9470  -12.7461    0.6849 H   0  0  0  0  0  0  0  0  0  0  0  0
    8.1828  -12.3205   -0.9595 H   0  0  0  0  0  0  0  0  0  0  0  0
    7.9655  -13.4047    0.5434 H   0  0  0  0  0  0  0  0  0  0  0  0
    8.6062  -14.8549   -3.4555 H   0  0  0  0  0  0  0  0  0  0  0  0
    8.9355  -13.3411   -3.2646 H   0  0  0  0  0  0  0  0  0  0  0  0
   10.2647  -12.7678   -0.9027 H   0  0  0  0  0  0  0  0  0  0  0  0
   10.7443  -14.0692    0.2542 H   0  0  0  0  0  0  0  0  0  0  0  0
   11.8503  -13.6123   -2.5540 H   0  0  0  0  0  0  0  0  0  0  0  0
   12.6950  -13.3334   -0.9742 H   0  0  0  0  0  0  0  0  0  0  0  0
   12.5816  -15.6992   -0.4573 H   0  0  0  0  0  0  0  0  0  0  0  0
   13.6090  -14.9090   -3.0040 H   0  0  0  0  0  0  0  0  0  0  0  0
   12.0295  -18.0208   -0.7919 H   0  0  0  0  0  0  0  0  0  0  0  0
   11.2733  -18.5613   -2.3290 H   0  0  0  0  0  0  0  0  0  0  0  0
   12.9543  -17.9281   -2.3290 H   0  0  0  0  0  0  0  0  0  0  0  0
   10.7209  -15.3056   -3.8556 H   0  0  0  0  0  0  0  0  0  0  0  0
   12.3062  -16.1208   -4.0766 H   0  0  0  0  0  0  0  0  0  0  0  0
   10.7918  -17.0868   -4.0766 H   0  0  0  0  0  0  0  0  0  0  0  0
   10.2584  -16.4491   -0.3171 H   0  0  0  0  0  0  0  0  0  0  0  0
    8.7129  -17.0761   -2.8302 H   0  0  0  0  0  0  0  0  0  0  0  0
    9.3035  -18.2227   -1.5758 H   0  0  0  0  0  0  0  0  0  0  0  0
    6.9773  -17.7542   -1.1029 H   0  0  0  0  0  0  0  0  0  0  0  0
    7.9813  -16.8922    0.1283 H   0  0  0  0  0  0  0  0  0  0  0  0
    6.7286  -15.7286   -2.3705 H   0  0  0  0  0  0  0  0  0  0  0  0
    5.2127  -14.8672    1.5295 H   0  0  0  0  0  0  0  0  0  0  0  0
    5.8293  -16.5298    1.2428 H   0  0  0  0  0  0  0  0  0  0  0  0
    6.9651  -15.1382    1.2428 H   0  0  0  0  0  0  0  0  0  0  0  0
    4.5669  -16.4238   -2.0538 H   0  0  0  0  0  0  0  0  0  0  0  0
    5.2210  -17.9240   -0.6770 H   0  0  0  0  0  0  0  0  0  0  0  0
  1  2  1  0
  2  3  2  0
  2  4  1  0
  4  5  1  0
  5  6  1  0
  5  7  1  0
  5  8  1  0
  8  9  1  0
 10  9  1  1
 10 11  1  0
 11 12  1  0
 12 13  1  0
 13 14  1  0
 14 15  1  0
 14 16  1  0
 16 17  1  0
 17 18  1  6
 17 19  1  0
 19 20  1  0
 21 20  1  1
 21 22  1  0
 23 22  1  6
 23 24  1  0
 24 25  1  0
 25 26  1  0
 26 27  1  0
 26 28  1  0
 28 29  1  0
 28 30  1  0
 28 31  1  0
 31 32  1  0
 32 33  1  0
 33 34  1  0
 34 35  1  0
 35 36  1  1
 35 37  1  0
 37 38  1  0
 12  8  1  0
 35 17  1  0
 16 10  1  0
 23 21  1  0
 37 10  1  0
 34 21  1  0
 31 23  1  0
  1 39  1  0
  1 40  1  0
  1 41  1  0
  6 42  1  0
  6 43  1  0
  6 44  1  0
  7 45  1  0
  7 46  1  0
  7 47  1  0
  8 48  1  1
  9 49  1  0
  9 50  1  0
 12 51  1  6
 13 52  1  0
 13 53  1  0
 14 54  1  6
 15 55  1  0
 15 56  1  0
 15 57  1  0
 16 58  1  1
 18 59  1  0
 18 60  1  0
 18 61  1  0
 19 62  1  0
 19 63  1  0
 20 64  1  0
 20 65  1  0
 22 66  1  0
 22 67  1  0
 24 68  1  0
 24 69  1  0
 25 70  1  0
 25 71  1  0
 26 72  1  1
 27 73  1  0
 29 74  1  0
 29 75  1  0
 29 76  1  0
 30 77  1  0
 30 78  1  0
 30 79  1  0
 31 80  1  1
 32 81  1  0
 32 82  1  0
 33 83  1  0
 33 84  1  0
 34 85  1  6
 36 86  1  0
 36 87  1  0
 36 88  1  0
 37 89  1  6
 38 90  1  0
M  END
>  <meeko>  (8) 
{"is_sidechain": [false], "free_energy": -7.486, "intermolecular_energy": -8.958, "internal_energy": -0.716}

$$$$
LIB_RWVZCSBFQAARFN__M_PUB_ALL__e8__s20260927
     RDKit          3D

 90 96  0  0  0  0  0  0  0  0999 V2000
   11.6750  -12.2920   -0.4430 C   0  0  0  0  0  0  0  0  0  0  0  0
   10.3710  -12.7900    0.1010 C   0  0  0  0  0  0  0  0  0  0  0  0
    9.7320  -12.2210    0.9710 O   0  0  0  0  0  0  0  0  0  0  0  0
   10.0380  -13.9550   -0.5110 O   0  0  0  0  0  0  0  0  0  0  0  0
    9.0260  -14.0090   -1.5650 C   0  0  0  0  0  0  0  0  0  0  0  0
    9.7530  -14.7160   -2.7270 C   0  0  0  0  0  0  0  0  0  0  0  0
    8.6800  -12.5830   -2.0300 C   0  0  0  0  0  0  0  0  0  0  0  0
    7.7650  -14.7770   -1.0770 C   0  0  1  0  0  0  0  0  0  0  0  0
    6.8260  -13.9760   -0.1650 C   0  0  0  0  0  0  0  0  0  0  0  0
    5.4370  -14.3620   -0.6670 C   0  0  1  0  0  0  0  0  0  0  0  0
    5.6600  -14.4490   -2.0860 O   0  0  0  0  0  0  0  0  0  0  0  0
    6.8430  -15.2480   -2.2160 C   0  0  2  0  0  0  0  0  0  0  0  0
    6.3840  -16.7020   -2.0850 C   0  0  0  0  0  0  0  0  0  0  0  0
    5.5400  -17.0020   -0.8270 C   0  0  1  0  0  0  0  0  0  0  0  0
    6.3430  -17.8640    0.1630 C   0  0  0  0  0  0  0  0  0  0  0  0
    4.9710  -15.7470   -0.1150 C   0  0  2  0  0  0  0  0  0  0  0  0
    3.4180  -15.5940   -0.0570 C   0  0  1  0  0  0  0  0  0  0  0  0
    2.8020  -15.7960   -1.4780 C   0  0  0  0  0  0  0  0  0  0  0  0
    2.7220  -16.5690    0.8950 C   0  0  0  0  0  0  0  0  0  0  0  0
    1.3640  -16.0800    1.4220 C   0  0  0  0  0  0  0  0  0  0  0  0
    0.7820  -14.7800    0.8470 C   0  0  1  0  0  0  0  0  0  0  0  0
   -0.4610  -14.9150   -0.0230 C   0  0  0  0  0  0  0  0  0  0  0  0
   -0.6200  -14.3410    1.3590 C   0  0  1  0  0  0  0  0  0  0  0  0
   -1.3760  -15.1990    2.3640 C   0  0  0  0  0  0  0  0  0  0  0  0
   -2.8730  -14.9310    2.2850 C   0  0  0  0  0  0  0  0  0  0  0  0
   -3.1930  -13.4480    2.4750 C   0  0  2  0  0  0  0  0  0  0  0  0
   -4.6040  -13.2630    2.3590 O   0  0  0  0  0  0  0  0  0  0  0  0
   -2.4320  -12.5200    1.4770 C   0  0  0  0  0  0  0  0  0  0  0  0
   -2.6980  -11.0540    1.8970 C   0  0  0  0  0  0  0  0  0  0  0  0
   -2.9820  -12.6820    0.0430 C   0  0  0  0  0  0  0  0  0  0  0  0
   -0.9000  -12.8450    1.5780 C   0  0  2  0  0  0  0  0  0  0  0  0
    0.0130  -11.9370    0.7430 C   0  0  0  0  0  0  0  0  0  0  0  0
    1.4730  -12.3170    0.9720 C   0  0  0  0  0  0  0  0  0  0  0  0
    1.7850  -13.6920    0.3650 C   0  0  1  0  0  0  0  0  0  0  0  0
    3.2700  -14.1340    0.5120 C   0  0  1  0  0  0  0  0  0  0  0  0
    3.7290  -13.9670    1.9960 C   0  0  0  0  0  0  0  0  0  0  0  0
    4.2630  -13.3670   -0.4070 C   0  0  1  0  0  0  0  0  0  0  0  0
    4.6830  -12.1260    0.1440 O   0  0  0  0  0  0  0  0  0  0  0  0
   12.3460  -12.0358    0.3902 H   0  0  0  0  0  0  0  0  0  0  0  0
   12.1387  -13.0763   -1.0593 H   0  0  0  0  0  0  0  0  0  0  0  0
   11.4978  -11.3983   -1.0593 H   0  0  0  0  0  0  0  0  0  0  0  0
   10.4860  -15.4288   -2.3213 H   0  0  0  0  0  0  0  0  0  0  0  0
    9.0196  -15.2556   -3.3442 H   0  0  0  0  0  0  0  0  0  0  0  0
   10.2719  -13.9678   -3.3442 H   0  0  0  0  0  0  0  0  0  0  0  0
    8.5237  -11.9389   -1.1521 H   0  0  0  0  0  0  0  0  0  0  0  0
    9.5073  -12.1838   -2.6351 H   0  0  0  0  0  0  0  0  0  0  0  0
    7.7617  -12.6073   -2.6351 H   0  0  0  0  0  0  0  0  0  0  0  0
    8.2353  -15.6117   -0.5366 H   0  0  0  0  0  0  0  0  0  0  0  0
    6.9587  -14.2643    0.8882 H   0  0  0  0  0  0  0  0  0  0  0  0
    7.0114  -12.8923   -0.2009 H   0  0  0  0  0  0  0  0  0  0  0  0
    7.3890  -15.1580   -3.1667 H   0  0  0  0  0  0  0  0  0  0  0  0
    5.7804  -16.9517   -2.9700 H   0  0  0  0  0  0  0  0  0  0  0  0
    7.2971  -17.3092   -1.9982 H   0  0  0  0  0  0  0  0  0  0  0  0
    4.6614  -17.5571   -1.1874 H   0  0  0  0  0  0  0  0  0  0  0  0
    6.0795  -17.5812    1.1929 H   0  0  0  0  0  0  0  0  0  0  0  0
    6.1046  -18.9257    0.0019 H   0  0  0  0  0  0  0  0  0  0  0  0
    7.4189  -17.7013    0.0019 H   0  0  0  0  0  0  0  0  0  0  0  0
    5.3920  -15.9713    0.8762 H   0  0  0  0  0  0  0  0  0  0  0  0
    1.7608  -16.1374   -1.3811 H   0  0  0  0  0  0  0  0  0  0  0  0
    2.8258  -14.8430   -2.0268 H   0  0  0  0  0  0  0  0  0  0  0  0
    3.3855  -16.5498   -2.0268 H   0  0  0  0  0  0  0  0  0  0  0  0
    2.5626  -17.5172    0.3606 H   0  0  0  0  0  0  0  0  0  0  0  0
    3.3789  -16.6760    1.7708 H   0  0  0  0  0  0  0  0  0  0  0  0
    0.6328  -16.8781    1.2262 H   0  0  0  0  0  0  0  0  0  0  0  0
    1.5530  -15.8466    2.4802 H   0  0  0  0  0  0  0  0  0  0  0  0
   -0.5849  -14.2640   -0.9010 H   0  0  0  0  0  0  0  0  0  0  0  0
   -0.9303  -15.7487   -0.5658 H   0  0  0  0  0  0  0  0  0  0  0  0
   -1.1876  -16.2606    2.1459 H   0  0  0  0  0  0  0  0  0  0  0  0
   -1.0256  -14.9483    3.3761 H   0  0  0  0  0  0  0  0  0  0  0  0
   -3.2410  -15.2516    1.2992 H   0  0  0  0  0  0  0  0  0  0  0  0
   -3.3651  -15.4940    3.0918 H   0  0  0  0  0  0  0  0  0  0  0  0
   -2.8472  -13.1563    3.4777 H   0  0  0  0  0  0  0  0  0  0  0  0
   -4.9970  -13.4440    3.2290 H   0  0  0  0  0  0  0  0  0  0  0  0
   -2.7108  -10.9836    2.9947 H   0  0  0  0  0  0  0  0  0  0  0  0
   -1.9024  -10.4080    1.4974 H   0  0  0  0  0  0  0  0  0  0  0  0
   -3.6698  -10.7287    1.4974 H   0  0  0  0  0  0  0  0  0  0  0  0
   -4.0363  -12.9925    0.0876 H   0  0  0  0  0  0  0  0  0  0  0  0
   -2.9045  -11.7229   -0.4900 H   0  0  0  0  0  0  0  0  0  0  0  0
   -2.3970  -13.4460   -0.4900 H   0  0  0  0  0  0  0  0  0  0  0  0
   -0.6248  -12.6044    2.6155 H   0  0  0  0  0  0  0  0  0  0  0  0
   -0.2317  -12.0547   -0.3230 H   0  0  0  0  0  0  0  0  0  0  0  0
   -0.1409  -10.8909    1.0464 H   0  0  0  0  0  0  0  0  0  0  0  0
    2.1194  -11.5612    0.5020 H   0  0  0  0  0  0  0  0  0  0  0  0
    1.6577  -12.3620    2.0554 H   0  0  0  0  0  0  0  0  0  0  0  0
    1.6407  -13.5736   -0.7190 H   0  0  0  0  0  0  0  0  0  0  0  0
    2.9110  -14.2646    2.6685 H   0  0  0  0  0  0  0  0  0  0  0  0
    4.6067  -14.6034    2.1822 H   0  0  0  0  0  0  0  0  0  0  0  0
    3.9925  -12.9154    2.1822 H   0  0  0  0  0  0  0  0  0  0  0  0
    3.7867  -13.0672   -1.3521 H   0  0  0  0  0  0  0  0  0  0  0  0
    4.3020  -12.0770    1.0390 H   0  0  0  0  0  0  0  0  0  0  0  0
  1  2  1  0
  2  3  2  0
  2  4  1  0
  4  5  1  0
  5  6  1  0
  5  7  1  0
  5  8  1  0
  8  9  1  0
 10  9  1  1
 10 11  1  0
 11 12  1  0
 12 13  1  0
 13 14  1  0
 14 15  1  0
 14 16  1  0
 16 17  1  0
 17 18  1  6
 17 19  1  0
 19 20  1  0
 21 20  1  1
 21 22  1  0
 23 22  1  6
 23 24  1  0
 24 25  1  0
 25 26  1  0
 26 27  1  0
 26 28  1  0
 28 29  1  0
 28 30  1  0
 28 31  1  0
 31 32  1  0
 32 33  1  0
 33 34  1  0
 34 35  1  0
 35 36  1  1
 35 37  1  0
 37 38  1  0
 12  8  1  0
 35 17  1  0
 16 10  1  0
 23 21  1  0
 37 10  1  0
 34 21  1  0
 31 23  1  0
  1 39  1  0
  1 40  1  0
  1 41  1  0
  6 42  1  0
  6 43  1  0
  6 44  1  0
  7 45  1  0
  7 46  1  0
  7 47  1  0
  8 48  1  1
  9 49  1  0
  9 50  1  0
 12 51  1  6
 13 52  1  0
 13 53  1  0
 14 54  1  6
 15 55  1  0
 15 56  1  0
 15 57  1  0
 16 58  1  1
 18 59  1  0
 18 60  1  0
 18 61  1  0
 19 62  1  0
 19 63  1  0
 20 64  1  0
 20 65  1  0
 22 66  1  0
 22 67  1  0
 24 68  1  0
 24 69  1  0
 25 70  1  0
 25 71  1  0
 26 72  1  1
 27 73  1  0
 29 74  1  0
 29 75  1  0
 29 76  1  0
 30 77  1  0
 30 78  1  0
 30 79  1  0
 31 80  1  1
 32 81  1  0
 32 82  1  0
 33 83  1  0
 33 84  1  0
 34 85  1  6
 36 86  1  0
 36 87  1  0
 36 88  1  0
 37 89  1  6
 38 90  1  0
M  END
>  <meeko>  (9) 
{"is_sidechain": [false], "free_energy": -7.472, "intermolecular_energy": -9.179, "internal_energy": -0.476}

$$$$
