LIB_UXACRXVBPVXVBZ__M_PUB_ALL__e8__s20260927
     RDKit          3D

 47 50  0  0  0  0  0  0  0  0999 V2000
    4.6020  -10.9910   -2.9470 N   0  0  0  0  0  0  0  0  0  0  0  0
    3.1360  -11.0250   -3.7640 S   0  0  0  0  0  0  0  0  0  0  0  0
    2.4490   -9.8090   -3.3930 O   0  0  0  0  0  0  0  0  0  0  0  0
    3.4580  -11.3400   -5.1370 O   0  0  0  0  0  0  0  0  0  0  0  0
    2.3150  -12.4010   -3.0190 C   0  0  0  0  0  0  0  0  0  0  0  0
    2.0570  -12.3840   -1.6460 C   0  0  0  0  0  0  0  0  0  0  0  0
    1.3590  -13.4440   -1.0640 C   0  0  0  0  0  0  0  0  0  0  0  0
    0.9050  -14.5170   -1.8480 C   0  0  0  0  0  0  0  0  0  0  0  0
    0.1380  -15.6550   -1.2140 C   0  0  0  0  0  0  0  0  0  0  0  0
    0.9770  -16.3410    0.2430 S   0  0  0  0  0  0  0  0  0  0  0  0
   -0.3810  -16.6110    1.2830 C   0  0  0  0  0  0  0  0  0  0  0  0
   -0.9620  -17.7750    1.4560 N   0  0  0  0  0  0  0  0  0  0  0  0
   -1.9670  -17.5420    2.3580 C   0  0  0  0  0  0  0  0  0  0  0  0
   -2.9000  -18.4410    2.8970 C   0  0  0  0  0  0  0  0  0  0  0  0
   -3.8440  -17.9650    3.8140 C   0  0  0  0  0  0  0  0  0  0  0  0
   -3.8600  -16.6210    4.1870 C   0  0  0  0  0  0  0  0  0  0  0  0
   -2.9380  -15.7090    3.6600 C   0  0  0  0  0  0  0  0  0  0  0  0
   -2.0020  -16.2030    2.7430 C   0  0  0  0  0  0  0  0  0  0  0  0
   -0.9730  -15.6200    2.0260 N   0  0  0  0  0  0  0  0  0  0  0  0
   -0.5920  -14.2170    2.0830 C   0  0  0  0  0  0  0  0  0  0  0  0
   -1.5920  -13.3170    1.3950 C   0  0  0  0  0  0  0  0  0  0  0  0
   -2.4000  -13.8220    0.3620 C   0  0  0  0  0  0  0  0  0  0  0  0
   -3.3260  -13.0010   -0.2840 C   0  0  0  0  0  0  0  0  0  0  0  0
   -3.4480  -11.6660    0.0910 C   0  0  0  0  0  0  0  0  0  0  0  0
   -4.5930  -10.6550   -0.7020 Cl  0  0  0  0  0  0  0  0  0  0  0  0
   -2.6490  -11.1460    1.1050 C   0  0  0  0  0  0  0  0  0  0  0  0
   -1.7230  -11.9660    1.7530 C   0  0  0  0  0  0  0  0  0  0  0  0
    1.1810  -14.5210   -3.2250 C   0  0  0  0  0  0  0  0  0  0  0  0
    1.8800  -13.4640   -3.8120 C   0  0  0  0  0  0  0  0  0  0  0  0
    4.8750  -11.9460   -2.7010 H   0  0  0  0  0  0  0  0  0  0  0  0
    5.2930  -10.4910   -3.5060 H   0  0  0  0  0  0  0  0  0  0  0  0
    2.4013  -11.5416   -1.0280 H   0  0  0  0  0  0  0  0  0  0  0  0
    1.1630  -13.4386    0.0184 H   0  0  0  0  0  0  0  0  0  0  0  0
   -0.8517  -15.2849   -0.9082 H   0  0  0  0  0  0  0  0  0  0  0  0
    0.0593  -16.4588   -1.9608 H   0  0  0  0  0  0  0  0  0  0  0  0
   -2.8896  -19.5012    2.6039 H   0  0  0  0  0  0  0  0  0  0  0  0
   -4.5813  -18.6582    4.2452 H   0  0  0  0  0  0  0  0  0  0  0  0
   -4.6119  -16.2709    4.9095 H   0  0  0  0  0  0  0  0  0  0  0  0
   -2.9483  -14.6490    3.9538 H   0  0  0  0  0  0  0  0  0  0  0  0
   -0.5135  -13.9154    3.1379 H   0  0  0  0  0  0  0  0  0  0  0  0
    0.3693  -14.1103    1.5590 H   0  0  0  0  0  0  0  0  0  0  0  0
   -2.3018  -14.8750    0.0594 H   0  0  0  0  0  0  0  0  0  0  0  0
   -3.9577  -13.4080   -1.0873 H   0  0  0  0  0  0  0  0  0  0  0  0
   -2.7469  -10.0897    1.3958 H   0  0  0  0  0  0  0  0  0  0  0  0
   -1.0906  -11.5497    2.5510 H   0  0  0  0  0  0  0  0  0  0  0  0
    0.8438  -15.3637   -3.8464 H   0  0  0  0  0  0  0  0  0  0  0  0
    2.0864  -13.4692   -4.8924 H   0  0  0  0  0  0  0  0  0  0  0  0
  1  2  1  0
  2  3  2  0
  2  4  2  0
  2  5  1  0
  5  6  2  0
  6  7  1  0
  7  8  2  0
  8  9  1  0
  9 10  1  0
 10 11  1  0
 11 12  2  0
 12 13  1  0
 13 14  2  0
 14 15  1  0
 15 16  2  0
 16 17  1  0
 17 18  2  0
 18 19  1  0
 19 20  1  0
 20 21  1  0
 21 22  2  0
 22 23  1  0
 23 24  2  0
 24 25  1  0
 24 26  1  0
 26 27  2  0
  8 28  1  0
 28 29  2  0
 29  5  1  0
 19 11  1  0
 27 21  1  0
 18 13  1  0
  1 30  1  0
  1 31  1  0
  6 32  1  0
  7 33  1  0
  9 34  1  0
  9 35  1  0
 14 36  1  0
 15 37  1  0
 16 38  1  0
 17 39  1  0
 20 40  1  0
 20 41  1  0
 22 42  1  0
 23 43  1  0
 26 44  1  0
 27 45  1  0
 28 46  1  0
 29 47  1  0
M  END
>  <meeko>  (1) 
{"is_sidechain": [false], "free_energy": -7.628, "intermolecular_energy": -10.526, "internal_energy": -1.303}

$$$$
LIB_UXACRXVBPVXVBZ__M_PUB_ALL__e8__s20260927
     RDKit          3D

 47 50  0  0  0  0  0  0  0  0999 V2000
  -14.0230  -25.0740    9.1410 N   0  0  0  0  0  0  0  0  0  0  0  0
  -13.2070  -24.1610   10.2890 S   0  0  0  0  0  0  0  0  0  0  0  0
  -14.2290  -23.5130   11.0790 O   0  0  0  0  0  0  0  0  0  0  0  0
  -12.2280  -25.0480   10.8740 O   0  0  0  0  0  0  0  0  0  0  0  0
  -12.3880  -22.9460    9.3000 C   0  0  0  0  0  0  0  0  0  0  0  0
  -11.1490  -23.2490    8.7310 C   0  0  0  0  0  0  0  0  0  0  0  0
  -10.5250  -22.3130    7.9040 C   0  0  0  0  0  0  0  0  0  0  0  0
  -11.1380  -21.0800    7.6300 C   0  0  0  0  0  0  0  0  0  0  0  0
  -10.4630  -20.0770    6.7230 C   0  0  0  0  0  0  0  0  0  0  0  0
  -11.3460  -18.4920    6.6470 S   0  0  0  0  0  0  0  0  0  0  0  0
  -10.0090  -17.4000    6.5050 C   0  0  0  0  0  0  0  0  0  0  0  0
   -9.4310  -17.0780    5.3720 N   0  0  0  0  0  0  0  0  0  0  0  0
   -8.4450  -16.1910    5.7130 C   0  0  0  0  0  0  0  0  0  0  0  0
   -7.5230  -15.5300    4.8870 C   0  0  0  0  0  0  0  0  0  0  0  0
   -6.5980  -14.6570    5.4710 C   0  0  0  0  0  0  0  0  0  0  0  0
   -6.5900  -14.4460    6.8500 C   0  0  0  0  0  0  0  0  0  0  0  0
   -7.5000  -15.0970    7.6910 C   0  0  0  0  0  0  0  0  0  0  0  0
   -8.4180  -15.9670    7.0890 C   0  0  0  0  0  0  0  0  0  0  0  0
   -9.4320  -16.7690    7.5790 N   0  0  0  0  0  0  0  0  0  0  0  0
   -9.8150  -16.8870    8.9780 C   0  0  0  0  0  0  0  0  0  0  0  0
   -9.4180  -18.2180    9.5760 C   0  0  0  0  0  0  0  0  0  0  0  0
  -10.2800  -18.8720   10.4710 C   0  0  0  0  0  0  0  0  0  0  0  0
   -9.9260  -20.1000   11.0330 C   0  0  0  0  0  0  0  0  0  0  0  0
   -8.7030  -20.6820   10.7100 C   0  0  0  0  0  0  0  0  0  0  0  0
   -8.2670  -22.1980   11.3980 Cl  0  0  0  0  0  0  0  0  0  0  0  0
   -7.8310  -20.0430    9.8330 C   0  0  0  0  0  0  0  0  0  0  0  0
   -8.1850  -18.8150    9.2690 C   0  0  0  0  0  0  0  0  0  0  0  0
  -12.3800  -20.7900    8.2170 C   0  0  0  0  0  0  0  0  0  0  0  0
  -13.0080  -21.7220    9.0470 C   0  0  0  0  0  0  0  0  0  0  0  0
  -14.7000  -25.6810    9.6100 H   0  0  0  0  0  0  0  0  0  0  0  0
  -14.4320  -24.4560    8.4420 H   0  0  0  0  0  0  0  0  0  0  0  0
  -10.6685  -24.2177    8.9329 H   0  0  0  0  0  0  0  0  0  0  0  0
   -9.5440  -22.5438    7.4630 H   0  0  0  0  0  0  0  0  0  0  0  0
   -9.4447  -19.8945    7.0968 H   0  0  0  0  0  0  0  0  0  0  0  0
  -10.4550  -20.5009    5.7080 H   0  0  0  0  0  0  0  0  0  0  0  0
   -7.5272  -15.6951    3.7995 H   0  0  0  0  0  0  0  0  0  0  0  0
   -5.8695  -14.1316    4.8359 H   0  0  0  0  0  0  0  0  0  0  0  0
   -5.8538  -13.7542    7.2851 H   0  0  0  0  0  0  0  0  0  0  0  0
   -7.4945  -14.9324    8.7786 H   0  0  0  0  0  0  0  0  0  0  0  0
   -9.3241  -16.0839    9.5472 H   0  0  0  0  0  0  0  0  0  0  0  0
  -10.9109  -16.8092    9.0326 H   0  0  0  0  0  0  0  0  0  0  0  0
  -11.2444  -18.4119   10.7321 H   0  0  0  0  0  0  0  0  0  0  0  0
  -10.6112  -20.6062   11.7289 H   0  0  0  0  0  0  0  0  0  0  0  0
   -6.8640  -20.5046    9.5843 H   0  0  0  0  0  0  0  0  0  0  0  0
   -7.4920  -18.3117    8.5787 H   0  0  0  0  0  0  0  0  0  0  0  0
  -12.8626  -19.8210    8.0218 H   0  0  0  0  0  0  0  0  0  0  0  0
  -13.9847  -21.4923    9.4980 H   0  0  0  0  0  0  0  0  0  0  0  0
  1  2  1  0
  2  3  2  0
  2  4  2  0
  2  5  1  0
  5  6  2  0
  6  7  1  0
  7  8  2  0
  8  9  1  0
  9 10  1  0
 10 11  1  0
 11 12  2  0
 12 13  1  0
 13 14  2  0
 14 15  1  0
 15 16  2  0
 16 17  1  0
 17 18  2  0
 18 19  1  0
 19 20  1  0
 20 21  1  0
 21 22  2  0
 22 23  1  0
 23 24  2  0
 24 25  1  0
 24 26  1  0
 26 27  2  0
  8 28  1  0
 28 29  2  0
 29  5  1  0
 19 11  1  0
 27 21  1  0
 18 13  1  0
  1 30  1  0
  1 31  1  0
  6 32  1  0
  7 33  1  0
  9 34  1  0
  9 35  1  0
 14 36  1  0
 15 37  1  0
 16 38  1  0
 17 39  1  0
 20 40  1  0
 20 41  1  0
 22 42  1  0
 23 43  1  0
 26 44  1  0
 27 45  1  0
 28 46  1  0
 29 47  1  0
M  END
>  <meeko>  (2) 
{"is_sidechain": [false], "free_energy": -7.378, "intermolecular_energy": -9.369, "internal_energy": -2.115}

$$$$
LIB_UXACRXVBPVXVBZ__M_PUB_ALL__e8__s20260927
     RDKit          3D

 47 50  0  0  0  0  0  0  0  0999 V2000
    0.7250  -20.1120    6.8510 N   0  0  0  0  0  0  0  0  0  0  0  0
   -0.8150  -19.5790    6.4490 S   0  0  0  0  0  0  0  0  0  0  0  0
   -1.2580  -20.4290    5.3680 O   0  0  0  0  0  0  0  0  0  0  0  0
   -1.5360  -19.4820    7.6970 O   0  0  0  0  0  0  0  0  0  0  0  0
   -0.5070  -17.9570    5.8170 C   0  0  0  0  0  0  0  0  0  0  0  0
    0.3100  -17.8030    4.6950 C   0  0  0  0  0  0  0  0  0  0  0  0
    0.5120  -16.5290    4.1610 C   0  0  0  0  0  0  0  0  0  0  0  0
   -0.1100  -15.4070    4.7330 C   0  0  0  0  0  0  0  0  0  0  0  0
    0.1010  -14.0330    4.1400 C   0  0  0  0  0  0  0  0  0  0  0  0
    0.6890  -14.0920    2.4230 S   0  0  0  0  0  0  0  0  0  0  0  0
   -0.5660  -13.1960    1.6350 C   0  0  0  0  0  0  0  0  0  0  0  0
   -0.5800  -11.8890    1.5140 N   0  0  0  0  0  0  0  0  0  0  0  0
   -1.7290  -11.6060    0.8230 C   0  0  0  0  0  0  0  0  0  0  0  0
   -2.2370  -10.3620    0.4190 C   0  0  0  0  0  0  0  0  0  0  0  0
   -3.4450  -10.3230   -0.2870 C   0  0  0  0  0  0  0  0  0  0  0  0
   -4.1340  -11.4990   -0.5850 C   0  0  0  0  0  0  0  0  0  0  0  0
   -3.6440  -12.7490   -0.1890 C   0  0  0  0  0  0  0  0  0  0  0  0
   -2.4340  -12.7690    0.5170 C   0  0  0  0  0  0  0  0  0  0  0  0
   -1.6670  -13.7810    1.0620 N   0  0  0  0  0  0  0  0  0  0  0  0
   -1.9780  -15.2020    1.0060 C   0  0  0  0  0  0  0  0  0  0  0  0
   -2.7930  -15.6630    2.1920 C   0  0  0  0  0  0  0  0  0  0  0  0
   -3.5260  -14.7330    2.9480 C   0  0  0  0  0  0  0  0  0  0  0  0
   -4.2810  -15.1450    4.0480 C   0  0  0  0  0  0  0  0  0  0  0  0
   -4.3050  -16.4900    4.4060 C   0  0  0  0  0  0  0  0  0  0  0  0
   -5.2380  -17.0000    5.7590 Cl  0  0  0  0  0  0  0  0  0  0  0  0
   -3.5760  -17.4250    3.6760 C   0  0  0  0  0  0  0  0  0  0  0  0
   -2.8210  -17.0140    2.5750 C   0  0  0  0  0  0  0  0  0  0  0  0
   -0.9230  -15.5810    5.8650 C   0  0  0  0  0  0  0  0  0  0  0  0
   -1.1250  -16.8530    6.4050 C   0  0  0  0  0  0  0  0  0  0  0  0
    1.2020  -20.4360    6.0060 H   0  0  0  0  0  0  0  0  0  0  0  0
    1.2200  -19.3750    7.3530 H   0  0  0  0  0  0  0  0  0  0  0  0
    0.7909  -18.6791    4.2353 H   0  0  0  0  0  0  0  0  0  0  0  0
    1.1642  -16.4027    3.2843 H   0  0  0  0  0  0  0  0  0  0  0  0
   -0.8543  -13.4882    4.1661 H   0  0  0  0  0  0  0  0  0  0  0  0
    0.8741  -13.5286    4.7383 H   0  0  0  0  0  0  0  0  0  0  0  0
   -1.6954   -9.4336    0.6530 H   0  0  0  0  0  0  0  0  0  0  0  0
   -3.8554   -9.3550   -0.6103 H   0  0  0  0  0  0  0  0  0  0  0  0
   -5.0808  -11.4428   -1.1421 H   0  0  0  0  0  0  0  0  0  0  0  0
   -4.1864  -13.6771   -0.4224 H   0  0  0  0  0  0  0  0  0  0  0  0
   -2.5481  -15.4024    0.0869 H   0  0  0  0  0  0  0  0  0  0  0  0
   -1.0262  -15.7533    1.0198 H   0  0  0  0  0  0  0  0  0  0  0  0
   -3.5049  -13.6688    2.6704 H   0  0  0  0  0  0  0  0  0  0  0  0
   -4.8551  -14.4089    4.6299 H   0  0  0  0  0  0  0  0  0  0  0  0
   -3.5946  -18.4859    3.9659 H   0  0  0  0  0  0  0  0  0  0  0  0
   -2.2433  -17.7549    2.0029 H   0  0  0  0  0  0  0  0  0  0  0  0
   -1.4046  -14.7082    6.3301 H   0  0  0  0  0  0  0  0  0  0  0  0
   -1.7673  -16.9836    7.2884 H   0  0  0  0  0  0  0  0  0  0  0  0
  1  2  1  0
  2  3  2  0
  2  4  2  0
  2  5  1  0
  5  6  2  0
  6  7  1  0
  7  8  2  0
  8  9  1  0
  9 10  1  0
 10 11  1  0
 11 12  2  0
 12 13  1  0
 13 14  2  0
 14 15  1  0
 15 16  2  0
 16 17  1  0
 17 18  2  0
 18 19  1  0
 19 20  1  0
 20 21  1  0
 21 22  2  0
 22 23  1  0
 23 24  2  0
 24 25  1  0
 24 26  1  0
 26 27  2  0
  8 28  1  0
 28 29  2  0
 29  5  1  0
 19 11  1  0
 27 21  1  0
 18 13  1  0
  1 30  1  0
  1 31  1  0
  6 32  1  0
  7 33  1  0
  9 34  1  0
  9 35  1  0
 14 36  1  0
 15 37  1  0
 16 38  1  0
 17 39  1  0
 20 40  1  0
 20 41  1  0
 22 42  1  0
 23 43  1  0
 26 44  1  0
 27 45  1  0
 28 46  1  0
 29 47  1  0
M  END
>  <meeko>  (3) 
{"is_sidechain": [false], "free_energy": -7.372, "intermolecular_energy": -9.047, "internal_energy": -2.428}

$$$$
LIB_UXACRXVBPVXVBZ__M_PUB_ALL__e8__s20260927
     RDKit          3D

 47 50  0  0  0  0  0  0  0  0999 V2000
   -2.0550  -19.4680    4.8970 N   0  0  0  0  0  0  0  0  0  0  0  0
   -2.6290  -17.9110    4.6460 S   0  0  0  0  0  0  0  0  0  0  0  0
   -4.0580  -18.0380    4.4780 O   0  0  0  0  0  0  0  0  0  0  0  0
   -2.0460  -17.1030    5.6930 O   0  0  0  0  0  0  0  0  0  0  0  0
   -1.9020  -17.4800    3.0930 C   0  0  0  0  0  0  0  0  0  0  0  0
   -0.5320  -17.6660    2.9040 C   0  0  0  0  0  0  0  0  0  0  0  0
    0.0360  -17.3800    1.6610 C   0  0  0  0  0  0  0  0  0  0  0  0
   -0.7610  -16.9200    0.6000 C   0  0  0  0  0  0  0  0  0  0  0  0
   -0.1410  -16.6250   -0.7470 C   0  0  0  0  0  0  0  0  0  0  0  0
    1.6690  -16.5020   -0.6750 S   0  0  0  0  0  0  0  0  0  0  0  0
    1.9080  -14.9910   -1.4890 C   0  0  0  0  0  0  0  0  0  0  0  0
    2.0160  -14.8590   -2.7900 N   0  0  0  0  0  0  0  0  0  0  0  0
    2.1780  -13.5150   -3.0010 C   0  0  0  0  0  0  0  0  0  0  0  0
    2.3390  -12.8200   -4.2090 C   0  0  0  0  0  0  0  0  0  0  0  0
    2.4870  -11.4290   -4.1740 C   0  0  0  0  0  0  0  0  0  0  0  0
    2.4750  -10.7420   -2.9590 C   0  0  0  0  0  0  0  0  0  0  0  0
    2.3160  -11.4180   -1.7430 C   0  0  0  0  0  0  0  0  0  0  0  0
    2.1700  -12.8100   -1.7980 C   0  0  0  0  0  0  0  0  0  0  0  0
    2.0050  -13.7880   -0.8360 N   0  0  0  0  0  0  0  0  0  0  0  0
    1.9280  -13.5580    0.5990 C   0  0  0  0  0  0  0  0  0  0  0  0
    0.5030  -13.4170    1.0860 C   0  0  0  0  0  0  0  0  0  0  0  0
    0.1880  -13.6850    2.4280 C   0  0  0  0  0  0  0  0  0  0  0  0
   -1.1240  -13.5620    2.8910 C   0  0  0  0  0  0  0  0  0  0  0  0
   -2.1330  -13.1760    2.0140 C   0  0  0  0  0  0  0  0  0  0  0  0
   -3.7490  -13.0190    2.5830 Cl  0  0  0  0  0  0  0  0  0  0  0  0
   -1.8420  -12.9160    0.6770 C   0  0  0  0  0  0  0  0  0  0  0  0
   -0.5300  -13.0380    0.2140 C   0  0  0  0  0  0  0  0  0  0  0  0
   -2.1360  -16.7320    0.8110 C   0  0  0  0  0  0  0  0  0  0  0  0
   -2.7090  -17.0150    2.0530 C   0  0  0  0  0  0  0  0  0  0  0  0
   -1.2730  -19.4380    5.5550 H   0  0  0  0  0  0  0  0  0  0  0  0
   -2.8230  -20.0720    5.1880 H   0  0  0  0  0  0  0  0  0  0  0  0
    0.0959  -18.0352    3.7283 H   0  0  0  0  0  0  0  0  0  0  0  0
    1.1172  -17.5162    1.5114 H   0  0  0  0  0  0  0  0  0  0  0  0
   -0.4112  -17.4328   -1.4430 H   0  0  0  0  0  0  0  0  0  0  0  0
   -0.5265  -15.6513   -1.0835 H   0  0  0  0  0  0  0  0  0  0  0  0
    2.3487  -13.3595   -5.1676 H   0  0  0  0  0  0  0  0  0  0  0  0
    2.6141  -10.8712   -5.1135 H   0  0  0  0  0  0  0  0  0  0  0  0
    2.5927   -9.6483   -2.9567 H   0  0  0  0  0  0  0  0  0  0  0  0
    2.3062  -10.8783   -0.7845 H   0  0  0  0  0  0  0  0  0  0  0  0
    2.3961  -14.4073    1.1183 H   0  0  0  0  0  0  0  0  0  0  0  0
    2.4507  -12.6146    0.8154 H   0  0  0  0  0  0  0  0  0  0  0  0
    0.9831  -13.9951    3.1220 H   0  0  0  0  0  0  0  0  0  0  0  0
   -1.3588  -13.7696    3.9454 H   0  0  0  0  0  0  0  0  0  0  0  0
   -2.6441  -12.6151   -0.0130 H   0  0  0  0  0  0  0  0  0  0  0  0
   -0.3040  -12.8353   -0.8433 H   0  0  0  0  0  0  0  0  0  0  0  0
   -2.7675  -16.3587   -0.0086 H   0  0  0  0  0  0  0  0  0  0  0  0
   -3.7883  -16.8725    2.2105 H   0  0  0  0  0  0  0  0  0  0  0  0
  1  2  1  0
  2  3  2  0
  2  4  2  0
  2  5  1  0
  5  6  2  0
  6  7  1  0
  7  8  2  0
  8  9  1  0
  9 10  1  0
 10 11  1  0
 11 12  2  0
 12 13  1  0
 13 14  2  0
 14 15  1  0
 15 16  2  0
 16 17  1  0
 17 18  2  0
 18 19  1  0
 19 20  1  0
 20 21  1  0
 21 22  2  0
 22 23  1  0
 23 24  2  0
 24 25  1  0
 24 26  1  0
 26 27  2  0
  8 28  1  0
 28 29  2  0
 29  5  1  0
 19 11  1  0
 27 21  1  0
 18 13  1  0
  1 30  1  0
  1 31  1  0
  6 32  1  0
  7 33  1  0
  9 34  1  0
  9 35  1  0
 14 36  1  0
 15 37  1  0
 16 38  1  0
 17 39  1  0
 20 40  1  0
 20 41  1  0
 22 42  1  0
 23 43  1  0
 26 44  1  0
 27 45  1  0
 28 46  1  0
 29 47  1  0
M  END
>  <meeko>  (4) 
{"is_sidechain": [false], "free_energy": -7.358, "intermolecular_energy": -9.119, "internal_energy": -2.338}

$$$$
LIB_UXACRXVBPVXVBZ__M_PUB_ALL__e8__s20260927
     RDKit          3D

 47 50  0  0  0  0  0  0  0  0999 V2000
    3.1140  -20.0420    0.3740 N   0  0  0  0  0  0  0  0  0  0  0  0
    3.1160  -18.3880    0.0910 S   0  0  0  0  0  0  0  0  0  0  0  0
    4.0330  -17.8220    1.0530 O   0  0  0  0  0  0  0  0  0  0  0  0
    3.3010  -18.2330   -1.3340 O   0  0  0  0  0  0  0  0  0  0  0  0
    1.4660  -17.9240    0.5260 C   0  0  0  0  0  0  0  0  0  0  0  0
    1.0570  -18.0160    1.8570 C   0  0  0  0  0  0  0  0  0  0  0  0
   -0.2270  -17.5980    2.2130 C   0  0  0  0  0  0  0  0  0  0  0  0
   -1.1020  -17.0760    1.2470 C   0  0  0  0  0  0  0  0  0  0  0  0
   -2.4850  -16.6120    1.6420 C   0  0  0  0  0  0  0  0  0  0  0  0
   -2.4560  -15.3250    2.9230 S   0  0  0  0  0  0  0  0  0  0  0  0
   -2.8510  -13.9330    1.9710 C   0  0  0  0  0  0  0  0  0  0  0  0
   -3.9560  -13.8010    1.2750 N   0  0  0  0  0  0  0  0  0  0  0  0
   -3.8670  -12.5620    0.6960 C   0  0  0  0  0  0  0  0  0  0  0  0
   -4.7780  -11.9120   -0.1500 C   0  0  0  0  0  0  0  0  0  0  0  0
   -4.4660  -10.6310   -0.6220 C   0  0  0  0  0  0  0  0  0  0  0  0
   -3.2720  -10.0090   -0.2570 C   0  0  0  0  0  0  0  0  0  0  0  0
   -2.3500  -10.6420    0.5860 C   0  0  0  0  0  0  0  0  0  0  0  0
   -2.6790  -11.9230    1.0470 C   0  0  0  0  0  0  0  0  0  0  0  0
   -2.0350  -12.8350    1.8630 N   0  0  0  0  0  0  0  0  0  0  0  0
   -0.7410  -12.6350    2.4980 C   0  0  0  0  0  0  0  0  0  0  0  0
    0.3980  -13.2020    1.6810 C   0  0  0  0  0  0  0  0  0  0  0  0
    0.5270  -12.8650    0.3230 C   0  0  0  0  0  0  0  0  0  0  0  0
    1.5730  -13.3840   -0.4430 C   0  0  0  0  0  0  0  0  0  0  0  0
    2.4940  -14.2510    0.1390 C   0  0  0  0  0  0  0  0  0  0  0  0
    3.7850  -14.8870   -0.8040 Cl  0  0  0  0  0  0  0  0  0  0  0  0
    2.3750  -14.6040    1.4800 C   0  0  0  0  0  0  0  0  0  0  0  0
    1.3310  -14.0850    2.2480 C   0  0  0  0  0  0  0  0  0  0  0  0
   -0.6760  -16.9980   -0.0890 C   0  0  0  0  0  0  0  0  0  0  0  0
    0.6070  -17.4160   -0.4500 C   0  0  0  0  0  0  0  0  0  0  0  0
    3.9980  -20.3110    0.8130 H   0  0  0  0  0  0  0  0  0  0  0  0
    2.2870  -20.2950    0.9130 H   0  0  0  0  0  0  0  0  0  0  0  0
    1.7412  -18.4150    2.6204 H   0  0  0  0  0  0  0  0  0  0  0  0
   -0.5558  -17.6784    3.2596 H   0  0  0  0  0  0  0  0  0  0  0  0
   -2.9886  -16.2095    0.7507 H   0  0  0  0  0  0  0  0  0  0  0  0
   -3.0199  -17.4795    2.0560 H   0  0  0  0  0  0  0  0  0  0  0  0
   -5.7209  -12.4000   -0.4376 H   0  0  0  0  0  0  0  0  0  0  0  0
   -5.1699  -10.1098   -1.2876 H   0  0  0  0  0  0  0  0  0  0  0  0
   -3.0502   -9.0015   -0.6388 H   0  0  0  0  0  0  0  0  0  0  0  0
   -1.4073  -10.1537    0.8739 H   0  0  0  0  0  0  0  0  0  0  0  0
   -0.5764  -11.5556    2.6314 H   0  0  0  0  0  0  0  0  0  0  0  0
   -0.7564  -13.1637    3.4625 H   0  0  0  0  0  0  0  0  0  0  0  0
   -0.2031  -12.1857   -0.1413 H   0  0  0  0  0  0  0  0  0  0  0  0
    1.6691  -13.1085   -1.5036 H   0  0  0  0  0  0  0  0  0  0  0  0
    3.1033  -15.2917    1.9346 H   0  0  0  0  0  0  0  0  0  0  0  0
    1.2385  -14.3702    3.3063 H   0  0  0  0  0  0  0  0  0  0  0  0
   -1.3581  -16.6046   -0.8571 H   0  0  0  0  0  0  0  0  0  0  0  0
    0.9383  -17.3453   -1.4965 H   0  0  0  0  0  0  0  0  0  0  0  0
  1  2  1  0
  2  3  2  0
  2  4  2  0
  2  5  1  0
  5  6  2  0
  6  7  1  0
  7  8  2  0
  8  9  1  0
  9 10  1  0
 10 11  1  0
 11 12  2  0
 12 13  1  0
 13 14  2  0
 14 15  1  0
 15 16  2  0
 16 17  1  0
 17 18  2  0
 18 19  1  0
 19 20  1  0
 20 21  1  0
 21 22  2  0
 22 23  1  0
 23 24  2  0
 24 25  1  0
 24 26  1  0
 26 27  2  0
  8 28  1  0
 28 29  2  0
 29  5  1  0
 19 11  1  0
 27 21  1  0
 18 13  1  0
  1 30  1  0
  1 31  1  0
  6 32  1  0
  7 33  1  0
  9 34  1  0
  9 35  1  0
 14 36  1  0
 15 37  1  0
 16 38  1  0
 17 39  1  0
 20 40  1  0
 20 41  1  0
 22 42  1  0
 23 43  1  0
 26 44  1  0
 27 45  1  0
 28 46  1  0
 29 47  1  0
M  END
>  <meeko>  (5) 
{"is_sidechain": [false], "free_energy": -7.347, "intermolecular_energy": -9.125, "internal_energy": -2.316}

$$$$
LIB_UXACRXVBPVXVBZ__M_PUB_ALL__e8__s20260927
     RDKit          3D

 47 50  0  0  0  0  0  0  0  0999 V2000
   -2.1430  -18.6310    2.4530 N   0  0  0  0  0  0  0  0  0  0  0  0
   -1.3420  -17.7210    3.6140 S   0  0  0  0  0  0  0  0  0  0  0  0
   -2.2260  -16.6240    3.9360 O   0  0  0  0  0  0  0  0  0  0  0  0
   -0.8900  -18.6640    4.6110 O   0  0  0  0  0  0  0  0  0  0  0  0
    0.0480  -17.0960    2.7190 C   0  0  0  0  0  0  0  0  0  0  0  0
    0.8090  -16.0620    3.2690 C   0  0  0  0  0  0  0  0  0  0  0  0
    1.9390  -15.6040    2.5910 C   0  0  0  0  0  0  0  0  0  0  0  0
    2.3240  -16.1820    1.3700 C   0  0  0  0  0  0  0  0  0  0  0  0
    3.5570  -15.6900    0.6480 C   0  0  0  0  0  0  0  0  0  0  0  0
    4.0730  -14.0340    1.1860 S   0  0  0  0  0  0  0  0  0  0  0  0
    3.8480  -13.1480   -0.2850 C   0  0  0  0  0  0  0  0  0  0  0  0
    4.6530  -13.2110   -1.3190 N   0  0  0  0  0  0  0  0  0  0  0  0
    4.1010  -12.3750   -2.2540 C   0  0  0  0  0  0  0  0  0  0  0  0
    4.5530  -12.0690   -3.5460 C   0  0  0  0  0  0  0  0  0  0  0  0
    3.8110  -11.1760   -4.3280 C   0  0  0  0  0  0  0  0  0  0  0  0
    2.6420  -10.5980   -3.8320 C   0  0  0  0  0  0  0  0  0  0  0  0
    2.1750  -10.8900   -2.5450 C   0  0  0  0  0  0  0  0  0  0  0  0
    2.9310  -11.7850   -1.7780 C   0  0  0  0  0  0  0  0  0  0  0  0
    2.7960  -12.2930   -0.4990 N   0  0  0  0  0  0  0  0  0  0  0  0
    1.7140  -11.9820    0.4240 C   0  0  0  0  0  0  0  0  0  0  0  0
    0.5790  -12.9770    0.3410 C   0  0  0  0  0  0  0  0  0  0  0  0
   -0.3910  -13.0250    1.3560 C   0  0  0  0  0  0  0  0  0  0  0  0
   -1.4430  -13.9410    1.2940 C   0  0  0  0  0  0  0  0  0  0  0  0
   -1.5300  -14.8230    0.2200 C   0  0  0  0  0  0  0  0  0  0  0  0
   -2.8290  -15.9490    0.1400 Cl  0  0  0  0  0  0  0  0  0  0  0  0
   -0.5720  -14.7970   -0.7900 C   0  0  0  0  0  0  0  0  0  0  0  0
    0.4800  -13.8800   -0.7290 C   0  0  0  0  0  0  0  0  0  0  0  0
    1.5420  -17.2150    0.8280 C   0  0  0  0  0  0  0  0  0  0  0  0
    0.4090  -17.6760    1.5020 C   0  0  0  0  0  0  0  0  0  0  0  0
   -1.6120  -19.4850    2.2690 H   0  0  0  0  0  0  0  0  0  0  0  0
   -3.1040  -18.7920    2.7500 H   0  0  0  0  0  0  0  0  0  0  0  0
    0.5194  -15.6119    4.2300 H   0  0  0  0  0  0  0  0  0  0  0  0
    2.5341  -14.7825    3.0166 H   0  0  0  0  0  0  0  0  0  0  0  0
    4.3804  -16.3940    0.8386 H   0  0  0  0  0  0  0  0  0  0  0  0
    3.3120  -15.6293   -0.4227 H   0  0  0  0  0  0  0  0  0  0  0  0
    5.4750  -12.5231   -3.9382 H   0  0  0  0  0  0  0  0  0  0  0  0
    4.1529  -10.9275   -5.3435 H   0  0  0  0  0  0  0  0  0  0  0  0
    2.0759   -9.8988   -4.4650 H   0  0  0  0  0  0  0  0  0  0  0  0
    1.2532  -10.4356   -2.1528 H   0  0  0  0  0  0  0  0  0  0  0  0
    2.1126  -11.9861    1.4492 H   0  0  0  0  0  0  0  0  0  0  0  0
    1.3139  -10.9947    0.1499 H   0  0  0  0  0  0  0  0  0  0  0  0
   -0.3210  -12.3336    2.2087 H   0  0  0  0  0  0  0  0  0  0  0  0
   -2.2007  -13.9658    2.0911 H   0  0  0  0  0  0  0  0  0  0  0  0
   -0.6435  -15.4977   -1.6349 H   0  0  0  0  0  0  0  0  0  0  0  0
    1.2375  -13.8654   -1.5265 H   0  0  0  0  0  0  0  0  0  0  0  0
    1.8242  -17.6647   -0.1354 H   0  0  0  0  0  0  0  0  0  0  0  0
   -0.1949  -18.4909    1.0764 H   0  0  0  0  0  0  0  0  0  0  0  0
  1  2  1  0
  2  3  2  0
  2  4  2  0
  2  5  1  0
  5  6  2  0
  6  7  1  0
  7  8  2  0
  8  9  1  0
  9 10  1  0
 10 11  1  0
 11 12  2  0
 12 13  1  0
 13 14  2  0
 14 15  1  0
 15 16  2  0
 16 17  1  0
 17 18  2  0
 18 19  1  0
 19 20  1  0
 20 21  1  0
 21 22  2  0
 22 23  1  0
 23 24  2  0
 24 25  1  0
 24 26  1  0
 26 27  2  0
  8 28  1  0
 28 29  2  0
 29  5  1  0
 19 11  1  0
 27 21  1  0
 18 13  1  0
  1 30  1  0
  1 31  1  0
  6 32  1  0
  7 33  1  0
  9 34  1  0
  9 35  1  0
 14 36  1  0
 15 37  1  0
 16 38  1  0
 17 39  1  0
 20 40  1  0
 20 41  1  0
 22 42  1  0
 23 43  1  0
 26 44  1  0
 27 45  1  0
 28 46  1  0
 29 47  1  0
M  END
>  <meeko>  (6) 
{"is_sidechain": [false], "free_energy": -7.259, "intermolecular_energy": -8.738, "internal_energy": -2.582}

$$$$
LIB_UXACRXVBPVXVBZ__M_PUB_ALL__e8__s20260927
     RDKit          3D

 47 50  0  0  0  0  0  0  0  0999 V2000
   13.7120  -13.3120   -2.8120 N   0  0  0  0  0  0  0  0  0  0  0  0
   12.8710  -11.9110   -2.4330 S   0  0  0  0  0  0  0  0  0  0  0  0
   13.3860  -11.4720   -1.1570 O   0  0  0  0  0  0  0  0  0  0  0  0
   12.9340  -11.0820   -3.6160 O   0  0  0  0  0  0  0  0  0  0  0  0
   11.2200  -12.5030   -2.2150 C   0  0  0  0  0  0  0  0  0  0  0  0
   10.8650  -13.1140   -1.0110 C   0  0  0  0  0  0  0  0  0  0  0  0
    9.5480  -13.5330   -0.8140 C   0  0  0  0  0  0  0  0  0  0  0  0
    8.5780  -13.3330   -1.8100 C   0  0  0  0  0  0  0  0  0  0  0  0
    7.1510  -13.7770   -1.5840 C   0  0  0  0  0  0  0  0  0  0  0  0
    6.0250  -12.3880   -1.2670 S   0  0  0  0  0  0  0  0  0  0  0  0
    4.5950  -12.9620   -2.0560 C   0  0  0  0  0  0  0  0  0  0  0  0
    3.6900  -13.7250   -1.4890 N   0  0  0  0  0  0  0  0  0  0  0  0
    2.7370  -13.9270   -2.4520 C   0  0  0  0  0  0  0  0  0  0  0  0
    1.5480  -14.6670   -2.3800 C   0  0  0  0  0  0  0  0  0  0  0  0
    0.7210  -14.7280   -3.5080 C   0  0  0  0  0  0  0  0  0  0  0  0
    1.0710  -14.0640   -4.6850 C   0  0  0  0  0  0  0  0  0  0  0  0
    2.2540  -13.3210   -4.7760 C   0  0  0  0  0  0  0  0  0  0  0  0
    3.0690  -13.2730   -3.6370 C   0  0  0  0  0  0  0  0  0  0  0  0
    4.2790  -12.6660   -3.3590 N   0  0  0  0  0  0  0  0  0  0  0  0
    5.0480  -11.8480   -4.2850 C   0  0  0  0  0  0  0  0  0  0  0  0
    5.6200  -12.6520   -5.4300 C   0  0  0  0  0  0  0  0  0  0  0  0
    5.3390  -12.2860   -6.7570 C   0  0  0  0  0  0  0  0  0  0  0  0
    5.8580  -13.0220   -7.8240 C   0  0  0  0  0  0  0  0  0  0  0  0
    6.6570  -14.1340   -7.5740 C   0  0  0  0  0  0  0  0  0  0  0  0
    7.3010  -15.0390   -8.8880 Cl  0  0  0  0  0  0  0  0  0  0  0  0
    6.9370  -14.5190   -6.2660 C   0  0  0  0  0  0  0  0  0  0  0  0
    6.4190  -13.7830   -5.1970 C   0  0  0  0  0  0  0  0  0  0  0  0
    8.9550  -12.7240   -3.0170 C   0  0  0  0  0  0  0  0  0  0  0  0
   10.2710  -12.3050   -3.2200 C   0  0  0  0  0  0  0  0  0  0  0  0
   13.4250  -13.6400   -3.7380 H   0  0  0  0  0  0  0  0  0  0  0  0
   14.7140  -13.1440   -2.7220 H   0  0  0  0  0  0  0  0  0  0  0  0
   11.6177  -13.2642   -0.2231 H   0  0  0  0  0  0  0  0  0  0  0  0
    9.2675  -14.0241    0.1295 H   0  0  0  0  0  0  0  0  0  0  0  0
    6.8038  -14.3139   -2.4791 H   0  0  0  0  0  0  0  0  0  0  0  0
    7.1415  -14.4217   -0.6928 H   0  0  0  0  0  0  0  0  0  0  0  0
    1.2699  -15.1904   -1.4533 H   0  0  0  0  0  0  0  0  0  0  0  0
   -0.2144  -15.3052   -3.4664 H   0  0  0  0  0  0  0  0  0  0  0  0
    0.4044  -14.1258   -5.5578 H   0  0  0  0  0  0  0  0  0  0  0  0
    2.5320  -12.7970   -5.7024 H   0  0  0  0  0  0  0  0  0  0  0  0
    4.3907  -11.0675   -4.6958 H   0  0  0  0  0  0  0  0  0  0  0  0
    5.8911  -11.4144   -3.7271 H   0  0  0  0  0  0  0  0  0  0  0  0
    4.7036  -11.4107   -6.9574 H   0  0  0  0  0  0  0  0  0  0  0  0
    5.6361  -12.7239   -8.8593 H   0  0  0  0  0  0  0  0  0  0  0  0
    7.5652  -15.4014   -6.0741 H   0  0  0  0  0  0  0  0  0  0  0  0
    6.6390  -14.0922   -4.1645 H   0  0  0  0  0  0  0  0  0  0  0  0
    8.2070  -12.5756   -3.8098 H   0  0  0  0  0  0  0  0  0  0  0  0
   10.5586  -11.8220   -4.1655 H   0  0  0  0  0  0  0  0  0  0  0  0
  1  2  1  0
  2  3  2  0
  2  4  2  0
  2  5  1  0
  5  6  2  0
  6  7  1  0
  7  8  2  0
  8  9  1  0
  9 10  1  0
 10 11  1  0
 11 12  2  0
 12 13  1  0
 13 14  2  0
 14 15  1  0
 15 16  2  0
 16 17  1  0
 17 18  2  0
 18 19  1  0
 19 20  1  0
 20 21  1  0
 21 22  2  0
 22 23  1  0
 23 24  2  0
 24 25  1  0
 24 26  1  0
 26 27  2  0
  8 28  1  0
 28 29  2  0
 29  5  1  0
 19 11  1  0
 27 21  1  0
 18 13  1  0
  1 30  1  0
  1 31  1  0
  6 32  1  0
  7 33  1  0
  9 34  1  0
  9 35  1  0
 14 36  1  0
 15 37  1  0
 16 38  1  0
 17 39  1  0
 20 40  1  0
 20 41  1  0
 22 42  1  0
 23 43  1  0
 26 44  1  0
 27 45  1  0
 28 46  1  0
 29 47  1  0
M  END
>  <meeko>  (7) 
{"is_sidechain": [false], "free_energy": -7.224, "intermolecular_energy": -9.958, "internal_energy": -1.314}

$$$$
LIB_UXACRXVBPVXVBZ__M_PUB_ALL__e8__s20260927
     RDKit          3D

 47 50  0  0  0  0  0  0  0  0999 V2000
   -0.3260   -8.9080    1.8590 N   0  0  0  0  0  0  0  0  0  0  0  0
   -1.4620  -10.1370    1.7330 S   0  0  0  0  0  0  0  0  0  0  0  0
   -2.1800  -10.1420    2.9860 O   0  0  0  0  0  0  0  0  0  0  0  0
   -2.1250   -9.9320    0.4650 O   0  0  0  0  0  0  0  0  0  0  0  0
   -0.4510  -11.5850    1.6420 C   0  0  0  0  0  0  0  0  0  0  0  0
    0.4740  -11.7100    0.6050 C   0  0  0  0  0  0  0  0  0  0  0  0
    1.3130  -12.8250    0.5610 C   0  0  0  0  0  0  0  0  0  0  0  0
    1.2410  -13.8120    1.5570 C   0  0  0  0  0  0  0  0  0  0  0  0
    2.1620  -15.0100    1.5110 C   0  0  0  0  0  0  0  0  0  0  0  0
    1.2930  -16.5480    1.0900 S   0  0  0  0  0  0  0  0  0  0  0  0
    0.7550  -17.0400    2.6610 C   0  0  0  0  0  0  0  0  0  0  0  0
    1.5070  -17.0360    3.7370 N   0  0  0  0  0  0  0  0  0  0  0  0
    0.6920  -17.4800    4.7450 C   0  0  0  0  0  0  0  0  0  0  0  0
    0.9850  -17.6670    6.1040 C   0  0  0  0  0  0  0  0  0  0  0  0
   -0.0240  -18.1350    6.9540 C   0  0  0  0  0  0  0  0  0  0  0  0
   -1.3000  -18.4110    6.4610 C   0  0  0  0  0  0  0  0  0  0  0  0
   -1.6110  -18.2320    5.1080 C   0  0  0  0  0  0  0  0  0  0  0  0
   -0.5880  -17.7640    4.2720 C   0  0  0  0  0  0  0  0  0  0  0  0
   -0.5180  -17.4820    2.9210 N   0  0  0  0  0  0  0  0  0  0  0  0
   -1.6130  -17.6130    1.9720 C   0  0  0  0  0  0  0  0  0  0  0  0
   -2.3100  -16.2980    1.7070 C   0  0  0  0  0  0  0  0  0  0  0  0
   -3.0380  -15.6680    2.7300 C   0  0  0  0  0  0  0  0  0  0  0  0
   -3.6890  -14.4550    2.4980 C   0  0  0  0  0  0  0  0  0  0  0  0
   -3.6240  -13.8640    1.2390 C   0  0  0  0  0  0  0  0  0  0  0  0
   -4.4220  -12.3660    0.9540 Cl  0  0  0  0  0  0  0  0  0  0  0  0
   -2.9170  -14.4790    0.2100 C   0  0  0  0  0  0  0  0  0  0  0  0
   -2.2640  -15.6920    0.4410 C   0  0  0  0  0  0  0  0  0  0  0  0
    0.2980  -13.6740    2.5890 C   0  0  0  0  0  0  0  0  0  0  0  0
   -0.5440  -12.5610    2.6360 C   0  0  0  0  0  0  0  0  0  0  0  0
   -0.6870   -8.0660    1.4040 H   0  0  0  0  0  0  0  0  0  0  0  0
   -0.0720   -8.7780    2.8380 H   0  0  0  0  0  0  0  0  0  0  0  0
    0.5418  -10.9351   -0.1728 H   0  0  0  0  0  0  0  0  0  0  0  0
    2.0365  -12.9311   -0.2608 H   0  0  0  0  0  0  0  0  0  0  0  0
    2.9395  -14.8270    0.7547 H   0  0  0  0  0  0  0  0  0  0  0  0
    2.5924  -15.1364    2.5154 H   0  0  0  0  0  0  0  0  0  0  0  0
    1.9900  -17.4497    6.4949 H   0  0  0  0  0  0  0  0  0  0  0  0
    0.1913  -18.2868    8.0220 H   0  0  0  0  0  0  0  0  0  0  0  0
   -2.0766  -18.7764    7.1491 H   0  0  0  0  0  0  0  0  0  0  0  0
   -2.6160  -18.4495    4.7173 H   0  0  0  0  0  0  0  0  0  0  0  0
   -1.2127  -17.9977    1.0224 H   0  0  0  0  0  0  0  0  0  0  0  0
   -2.3523  -18.3012    2.4077 H   0  0  0  0  0  0  0  0  0  0  0  0
   -3.0957  -16.1353    3.7241 H   0  0  0  0  0  0  0  0  0  0  0  0
   -4.2518  -13.9675    3.3077 H   0  0  0  0  0  0  0  0  0  0  0  0
   -2.8725  -14.0103   -0.7842 H   0  0  0  0  0  0  0  0  0  0  0  0
   -1.7090  -16.1767   -0.3757 H   0  0  0  0  0  0  0  0  0  0  0  0
    0.2223  -14.4488    3.3662 H   0  0  0  0  0  0  0  0  0  0  0  0
   -1.2755  -12.4540    3.4505 H   0  0  0  0  0  0  0  0  0  0  0  0
  1  2  1  0
  2  3  2  0
  2  4  2  0
  2  5  1  0
  5  6  2  0
  6  7  1  0
  7  8  2  0
  8  9  1  0
  9 10  1  0
 10 11  1  0
 11 12  2  0
 12 13  1  0
 13 14  2  0
 14 15  1  0
 15 16  2  0
 16 17  1  0
 17 18  2  0
 18 19  1  0
 19 20  1  0
 20 21  1  0
 21 22  2  0
 22 23  1  0
 23 24  2  0
 24 25  1  0
 24 26  1  0
 26 27  2  0
  8 28  1  0
 28 29  2  0
 29  5  1  0
 19 11  1  0
 27 21  1  0
 18 13  1  0
  1 30  1  0
  1 31  1  0
  6 32  1  0
  7 33  1  0
  9 34  1  0
  9 35  1  0
 14 36  1  0
 15 37  1  0
 16 38  1  0
 17 39  1  0
 20 40  1  0
 20 41  1  0
 22 42  1  0
 23 43  1  0
 26 44  1  0
 27 45  1  0
 28 46  1  0
 29 47  1  0
M  END
>  <meeko>  (8) 
{"is_sidechain": [false], "free_energy": -7.024, "intermolecular_energy": -8.842, "internal_energy": -2.154}

$$$$
LIB_UXACRXVBPVXVBZ__M_PUB_ALL__e8__s20260927
     RDKit          3D

 47 50  0  0  0  0  0  0  0  0999 V2000
   -0.0530   -8.8510    1.6910 N   0  0  0  0  0  0  0  0  0  0  0  0
   -1.5280   -9.3260    2.3350 S   0  0  0  0  0  0  0  0  0  0  0  0
   -1.5040   -8.9170    3.7200 O   0  0  0  0  0  0  0  0  0  0  0  0
   -2.5320   -8.8530    1.4090 O   0  0  0  0  0  0  0  0  0  0  0  0
   -1.4320  -11.0890    2.2530 C   0  0  0  0  0  0  0  0  0  0  0  0
   -1.5680  -11.7250    1.0180 C   0  0  0  0  0  0  0  0  0  0  0  0
   -1.4370  -13.1130    0.9400 C   0  0  0  0  0  0  0  0  0  0  0  0
   -1.1580  -13.8700    2.0900 C   0  0  0  0  0  0  0  0  0  0  0  0
   -1.0040  -15.3700    1.9970 C   0  0  0  0  0  0  0  0  0  0  0  0
   -0.0580  -16.0670    3.3820 S   0  0  0  0  0  0  0  0  0  0  0  0
    1.2220  -16.8520    2.5180 C   0  0  0  0  0  0  0  0  0  0  0  0
    1.2540  -18.1350    2.2450 N   0  0  0  0  0  0  0  0  0  0  0  0
    2.4180  -18.3230    1.5480 C   0  0  0  0  0  0  0  0  0  0  0  0
    2.9480  -19.5050    1.0100 C   0  0  0  0  0  0  0  0  0  0  0  0
    4.1690  -19.4500    0.3280 C   0  0  0  0  0  0  0  0  0  0  0  0
    4.8490  -18.2400    0.1840 C   0  0  0  0  0  0  0  0  0  0  0  0
    4.3370  -17.0500    0.7140 C   0  0  0  0  0  0  0  0  0  0  0  0
    3.1150  -17.1250    1.3930 C   0  0  0  0  0  0  0  0  0  0  0  0
    2.3260  -16.1920    2.0390 N   0  0  0  0  0  0  0  0  0  0  0  0
    2.6200  -14.7720    2.1560 C   0  0  0  0  0  0  0  0  0  0  0  0
    2.5050  -14.0470    0.8340 C   0  0  0  0  0  0  0  0  0  0  0  0
    3.2130  -12.8520    0.6210 C   0  0  0  0  0  0  0  0  0  0  0  0
    3.1140  -12.1710   -0.5930 C   0  0  0  0  0  0  0  0  0  0  0  0
    2.3000  -12.6740   -1.6040 C   0  0  0  0  0  0  0  0  0  0  0  0
    2.1800  -11.8380   -3.1030 Cl  0  0  0  0  0  0  0  0  0  0  0  0
    1.5820  -13.8510   -1.4080 C   0  0  0  0  0  0  0  0  0  0  0  0
    1.6810  -14.5330   -0.1940 C   0  0  0  0  0  0  0  0  0  0  0  0
   -1.0320  -13.2130    3.3250 C   0  0  0  0  0  0  0  0  0  0  0  0
   -1.1640  -11.8250    3.4080 C   0  0  0  0  0  0  0  0  0  0  0  0
    0.3660   -8.1390    2.2930 H   0  0  0  0  0  0  0  0  0  0  0  0
    0.5350   -9.6710    1.5430 H   0  0  0  0  0  0  0  0  0  0  0  0
   -1.7770  -11.1368    0.1123 H   0  0  0  0  0  0  0  0  0  0  0  0
   -1.5533  -13.6180   -0.0303 H   0  0  0  0  0  0  0  0  0  0  0  0
   -2.0048  -15.8264    1.9899 H   0  0  0  0  0  0  0  0  0  0  0  0
   -0.4491  -15.5895    1.0729 H   0  0  0  0  0  0  0  0  0  0  0  0
    2.4128  -20.4595    1.1222 H   0  0  0  0  0  0  0  0  0  0  0  0
    4.5966  -20.3693   -0.0985 H   0  0  0  0  0  0  0  0  0  0  0  0
    5.8066  -18.2210   -0.3569 H   0  0  0  0  0  0  0  0  0  0  0  0
    4.8724  -16.0957    0.6017 H   0  0  0  0  0  0  0  0  0  0  0  0
    1.9120  -14.3225    2.8678 H   0  0  0  0  0  0  0  0  0  0  0  0
    3.6592  -14.6729    2.5028 H   0  0  0  0  0  0  0  0  0  0  0  0
    3.8524  -12.4489    1.4201 H   0  0  0  0  0  0  0  0  0  0  0  0
    3.6775  -11.2395   -0.7506 H   0  0  0  0  0  0  0  0  0  0  0  0
    0.9376  -14.2428   -2.2088 H   0  0  0  0  0  0  0  0  0  0  0  0
    1.1083  -15.4596   -0.0412 H   0  0  0  0  0  0  0  0  0  0  0  0
   -0.8276  -13.7966    4.2347 H   0  0  0  0  0  0  0  0  0  0  0  0
   -1.0574  -11.3155    4.3771 H   0  0  0  0  0  0  0  0  0  0  0  0
  1  2  1  0
  2  3  2  0
  2  4  2  0
  2  5  1  0
  5  6  2  0
  6  7  1  0
  7  8  2  0
  8  9  1  0
  9 10  1  0
 10 11  1  0
 11 12  2  0
 12 13  1  0
 13 14  2  0
 14 15  1  0
 15 16  2  0
 16 17  1  0
 17 18  2  0
 18 19  1  0
 19 20  1  0
 20 21  1  0
 21 22  2  0
 22 23  1  0
 23 24  2  0
 24 25  1  0
 24 26  1  0
 26 27  2  0
  8 28  1  0
 28 29  2  0
 29  5  1  0
 19 11  1  0
 27 21  1  0
 18 13  1  0
  1 30  1  0
  1 31  1  0
  6 32  1  0
  7 33  1  0
  9 34  1  0
  9 35  1  0
 14 36  1  0
 15 37  1  0
 16 38  1  0
 17 39  1  0
 20 40  1  0
 20 41  1  0
 22 42  1  0
 23 43  1  0
 26 44  1  0
 27 45  1  0
 28 46  1  0
 29 47  1  0
M  END
>  <meeko>  (9) 
{"is_sidechain": [false], "free_energy": -7.018, "intermolecular_energy": -9.383, "internal_energy": -1.604}

$$$$
