LIB_CVVGRHFARKYNNE__M_PUB_ALL__e8__s20260927
     RDKit          3D

 59 62  0  0  0  0  0  0  0  0999 V2000
   10.9120  -11.8090  -11.0940 C   0  0  0  0  0  0  0  0  0  0  0  0
   12.3750  -11.4460  -11.3560 C   0  0  0  0  0  0  0  0  0  0  0  0
   12.9710  -10.7780  -10.1150 C   0  0  0  0  0  0  0  0  0  0  0  0
   13.2190  -12.6730  -11.7450 C   0  0  0  0  0  0  0  0  0  0  0  0
   12.7050  -13.9830  -11.1360 C   0  0  0  0  0  0  0  0  0  0  0  0
   13.5030  -14.3990   -9.9800 N   0  0  0  0  0  0  0  0  0  0  0  0
   12.9760  -14.1960   -8.7240 C   0  0  0  0  0  0  0  0  0  0  0  0
   11.8610  -13.7030   -8.5100 O   0  0  0  0  0  0  0  0  0  0  0  0
   13.7840  -14.5890   -7.5410 C   0  0  0  0  0  0  0  0  0  0  0  0
   13.1290  -14.2880   -6.1100 C   0  0  0  0  0  0  0  0  0  0  0  0
   12.1030  -14.9890   -5.7120 N   0  0  0  0  0  0  0  0  0  0  0  0
   11.4020  -14.8030   -4.3030 S   0  0  0  0  0  0  0  0  0  0  0  0
   10.0540  -14.3030   -4.4640 O   0  0  0  0  0  0  0  0  0  0  0  0
   11.6460  -15.9570   -3.4600 O   0  0  0  0  0  0  0  0  0  0  0  0
   12.2700  -13.5070   -3.5040 C   0  0  0  0  0  0  0  0  0  0  0  0
   11.9080  -13.1040   -2.2070 C   0  0  0  0  0  0  0  0  0  0  0  0
   12.6220  -12.0760   -1.5760 C   0  0  0  0  0  0  0  0  0  0  0  0
   12.2530  -11.6190   -0.1830 C   0  0  0  0  0  0  0  0  0  0  0  0
   11.7690  -12.7520    0.7270 C   0  0  0  0  0  0  0  0  0  0  0  0
   10.6930  -12.2820    1.6410 N   0  0  0  0  0  0  0  0  0  0  0  0
   13.6790  -11.4720   -2.2710 C   0  0  0  0  0  0  0  0  0  0  0  0
   14.0220  -11.9020   -3.5600 C   0  0  0  0  0  0  0  0  0  0  0  0
   13.3190  -12.9340   -4.1880 C   0  0  0  0  0  0  0  0  0  0  0  0
   13.7000  -13.3290   -5.4100 N   0  0  0  0  0  0  0  0  0  0  0  0
   15.0030  -15.1810   -7.5990 C   0  0  0  0  0  0  0  0  0  0  0  0
   15.6880  -15.5250   -6.5820 O   0  0  0  0  0  0  0  0  0  0  0  0
   15.5070  -15.4140   -9.0030 C   0  0  0  0  0  0  0  0  0  0  0  0
   16.7620  -16.0370   -9.1940 C   0  0  0  0  0  0  0  0  0  0  0  0
   17.2780  -16.2810  -10.4660 C   0  0  0  0  0  0  0  0  0  0  0  0
   16.5480  -15.9070  -11.5820 C   0  0  0  0  0  0  0  0  0  0  0  0
   15.3060  -15.2890  -11.4230 C   0  0  0  0  0  0  0  0  0  0  0  0
   14.7710  -15.0310  -10.1440 C   0  0  0  0  0  0  0  0  0  0  0  0
   10.7338  -11.8532  -10.0094 H   0  0  0  0  0  0  0  0  0  0  0  0
   10.2589  -11.0457  -11.5421 H   0  0  0  0  0  0  0  0  0  0  0  0
   10.6915  -12.7891  -11.5421 H   0  0  0  0  0  0  0  0  0  0  0  0
   12.3965  -10.7489  -12.2066 H   0  0  0  0  0  0  0  0  0  0  0  0
   12.5539  -11.2455   -9.2109 H   0  0  0  0  0  0  0  0  0  0  0  0
   14.0640  -10.9021  -10.1210 H   0  0  0  0  0  0  0  0  0  0  0  0
   12.7236   -9.7062  -10.1210 H   0  0  0  0  0  0  0  0  0  0  0  0
   13.2088  -12.7701  -12.8407 H   0  0  0  0  0  0  0  0  0  0  0  0
   14.2330  -12.5078  -11.3519 H   0  0  0  0  0  0  0  0  0  0  0  0
   11.6623  -13.8410  -10.8156 H   0  0  0  0  0  0  0  0  0  0  0  0
   12.7813  -14.7680  -11.9028 H   0  0  0  0  0  0  0  0  0  0  0  0
   11.7550  -15.6930   -6.3550 H   0  0  0  0  0  0  0  0  0  0  0  0
   11.0690  -13.5927   -1.6900 H   0  0  0  0  0  0  0  0  0  0  0  0
   13.1390  -11.1577    0.2776 H   0  0  0  0  0  0  0  0  0  0  0  0
   11.4181  -10.9104   -0.2870 H   0  0  0  0  0  0  0  0  0  0  0  0
   11.3795  -13.5712    0.1047 H   0  0  0  0  0  0  0  0  0  0  0  0
   12.6176  -13.0985    1.3352 H   0  0  0  0  0  0  0  0  0  0  0  0
   11.0040  -12.3090    2.6220 H   0  0  0  0  0  0  0  0  0  0  0  0
   10.4190  -11.3100    1.4410 H   0  0  0  0  0  0  0  0  0  0  0  0
    9.8480  -12.8640    1.5770 H   0  0  0  0  0  0  0  0  0  0  0  0
   14.2439  -10.6537   -1.8007 H   0  0  0  0  0  0  0  0  0  0  0  0
   14.8586  -11.4192   -4.0864 H   0  0  0  0  0  0  0  0  0  0  0  0
   14.5160  -12.9070   -5.9170 H   0  0  0  0  0  0  0  0  0  0  0  0
   17.3483  -16.3379   -8.3132 H   0  0  0  0  0  0  0  0  0  0  0  0
   18.2579  -16.7671  -10.5824 H   0  0  0  0  0  0  0  0  0  0  0  0
   16.9453  -16.0962  -12.5902 H   0  0  0  0  0  0  0  0  0  0  0  0
   14.7323  -14.9970  -12.3150 H   0  0  0  0  0  0  0  0  0  0  0  0
  1  2  1  0
  2  3  1  0
  2  4  1  0
  4  5  1  0
  5  6  1  0
  6  7  1  0
  7  8  2  0
  7  9  1  0
  9 10  1  0
 10 11  2  0
 11 12  1  0
 12 13  2  0
 12 14  2  0
 12 15  1  0
 15 16  2  0
 16 17  1  0
 17 18  1  0
 18 19  1  0
 19 20  1  0
 17 21  2  0
 21 22  1  0
 22 23  2  0
 23 24  1  0
  9 25  2  0
 25 26  1  0
 25 27  1  0
 27 28  2  0
 28 29  1  0
 29 30  2  0
 30 31  1  0
 31 32  2  0
 32  6  1  0
 24 10  1  0
 32 27  1  0
 23 15  1  0
  1 33  1  0
  1 34  1  0
  1 35  1  0
  2 36  1  0
  3 37  1  0
  3 38  1  0
  3 39  1  0
  4 40  1  0
  4 41  1  0
  5 42  1  0
  5 43  1  0
 11 44  1  0
 16 45  1  0
 18 46  1  0
 18 47  1  0
 19 48  1  0
 19 49  1  0
 20 50  1  0
 20 51  1  0
 20 52  1  0
 21 53  1  0
 22 54  1  0
 24 55  1  0
 28 56  1  0
 29 57  1  0
 30 58  1  0
 31 59  1  0
M  CHG  3  11   1  20   1  26  -1
M  END
>  <meeko>  (1) 
{"is_sidechain": [false], "free_energy": -8.135, "intermolecular_energy": -11.227, "internal_energy": -1.458}

$$$$
LIB_CVVGRHFARKYNNE__M_PUB_ALL__e8__s20260927
     RDKit          3D

 59 62  0  0  0  0  0  0  0  0999 V2000
   -3.3020  -10.6530   -0.0880 C   0  0  0  0  0  0  0  0  0  0  0  0
   -2.3310  -10.8460    1.0790 C   0  0  0  0  0  0  0  0  0  0  0  0
   -2.1390   -9.5170    1.8140 C   0  0  0  0  0  0  0  0  0  0  0  0
   -2.8120  -11.9240    2.0670 C   0  0  0  0  0  0  0  0  0  0  0  0
   -3.6780  -13.0070    1.4110 C   0  0  0  0  0  0  0  0  0  0  0  0
   -3.6070  -14.2770    2.1380 N   0  0  0  0  0  0  0  0  0  0  0  0
   -4.4840  -14.4760    3.1810 C   0  0  0  0  0  0  0  0  0  0  0  0
   -5.3440  -13.6570    3.5310 O   0  0  0  0  0  0  0  0  0  0  0  0
   -4.4070  -15.7480    3.9430 C   0  0  0  0  0  0  0  0  0  0  0  0
   -5.4280  -15.8980    5.1690 C   0  0  0  0  0  0  0  0  0  0  0  0
   -4.9660  -15.9620    6.3870 N   0  0  0  0  0  0  0  0  0  0  0  0
   -5.8840  -16.0720    7.6740 S   0  0  0  0  0  0  0  0  0  0  0  0
   -5.6960  -17.3470    8.3300 O   0  0  0  0  0  0  0  0  0  0  0  0
   -5.8200  -14.8480    8.4470 O   0  0  0  0  0  0  0  0  0  0  0  0
   -7.5340  -16.1110    7.0830 C   0  0  0  0  0  0  0  0  0  0  0  0
   -8.6090  -16.1830    7.9840 C   0  0  0  0  0  0  0  0  0  0  0  0
   -9.9230  -16.1970    7.4960 C   0  0  0  0  0  0  0  0  0  0  0  0
  -11.1000  -16.2780    8.4400 C   0  0  0  0  0  0  0  0  0  0  0  0
  -12.1760  -15.2210    8.1730 C   0  0  0  0  0  0  0  0  0  0  0  0
  -13.2330  -15.2560    9.2200 N   0  0  0  0  0  0  0  0  0  0  0  0
  -10.1210  -16.1470    6.1090 C   0  0  0  0  0  0  0  0  0  0  0  0
   -9.0280  -16.0660    5.2350 C   0  0  0  0  0  0  0  0  0  0  0  0
   -7.7170  -16.0410    5.7190 C   0  0  0  0  0  0  0  0  0  0  0  0
   -6.7050  -15.9370    4.8480 N   0  0  0  0  0  0  0  0  0  0  0  0
   -3.5560  -16.7670    3.6640 C   0  0  0  0  0  0  0  0  0  0  0  0
   -3.5000  -17.8600    4.3150 O   0  0  0  0  0  0  0  0  0  0  0  0
   -2.6490  -16.5050    2.4860 C   0  0  0  0  0  0  0  0  0  0  0  0
   -1.7250  -17.4980    2.0880 C   0  0  0  0  0  0  0  0  0  0  0  0
   -0.8640  -17.3160    1.0070 C   0  0  0  0  0  0  0  0  0  0  0  0
   -0.9090  -16.1290    0.2930 C   0  0  0  0  0  0  0  0  0  0  0  0
   -1.8120  -15.1300    0.6630 C   0  0  0  0  0  0  0  0  0  0  0  0
   -2.6850  -15.2980    1.7570 C   0  0  0  0  0  0  0  0  0  0  0  0
   -4.3103  -10.4526    0.3033 H   0  0  0  0  0  0  0  0  0  0  0  0
   -2.9717   -9.8029   -0.7031 H   0  0  0  0  0  0  0  0  0  0  0  0
   -3.3219  -11.5648   -0.7031 H   0  0  0  0  0  0  0  0  0  0  0  0
   -1.3734  -11.1887    0.6601 H   0  0  0  0  0  0  0  0  0  0  0  0
   -2.1642   -9.6915    2.8998 H   0  0  0  0  0  0  0  0  0  0  0  0
   -1.1685   -9.0807    1.5352 H   0  0  0  0  0  0  0  0  0  0  0  0
   -2.9463   -8.8238    1.5352 H   0  0  0  0  0  0  0  0  0  0  0  0
   -1.9301  -12.4059    2.5142 H   0  0  0  0  0  0  0  0  0  0  0  0
   -3.4361  -11.4201    2.8197 H   0  0  0  0  0  0  0  0  0  0  0  0
   -4.7233  -12.6648    1.3940 H   0  0  0  0  0  0  0  0  0  0  0  0
   -3.2997  -13.1756    0.3920 H   0  0  0  0  0  0  0  0  0  0  0  0
   -3.9560  -15.9310    6.4940 H   0  0  0  0  0  0  0  0  0  0  0  0
   -8.4208  -16.2282    9.0668 H   0  0  0  0  0  0  0  0  0  0  0  0
  -11.5580  -17.2731    8.3398 H   0  0  0  0  0  0  0  0  0  0  0  0
  -10.7132  -16.0948    9.4533 H   0  0  0  0  0  0  0  0  0  0  0  0
  -11.7082  -14.2254    8.1680 H   0  0  0  0  0  0  0  0  0  0  0  0
  -12.6414  -15.4345    7.1994 H   0  0  0  0  0  0  0  0  0  0  0  0
  -12.8390  -15.5230   10.1320 H   0  0  0  0  0  0  0  0  0  0  0  0
  -13.6790  -14.3360    9.3440 H   0  0  0  0  0  0  0  0  0  0  0  0
  -13.9740  -15.9350    9.0000 H   0  0  0  0  0  0  0  0  0  0  0  0
  -11.1430  -16.1715    5.7030 H   0  0  0  0  0  0  0  0  0  0  0  0
   -9.2050  -16.0214    4.1503 H   0  0  0  0  0  0  0  0  0  0  0  0
   -6.8510  -15.8580    3.8120 H   0  0  0  0  0  0  0  0  0  0  0  0
   -1.6842  -18.4435    2.6487 H   0  0  0  0  0  0  0  0  0  0  0  0
   -0.1550  -18.1076    0.7231 H   0  0  0  0  0  0  0  0  0  0  0  0
   -0.2354  -15.9742   -0.5627 H   0  0  0  0  0  0  0  0  0  0  0  0
   -1.8427  -14.1923    0.0887 H   0  0  0  0  0  0  0  0  0  0  0  0
  1  2  1  0
  2  3  1  0
  2  4  1  0
  4  5  1  0
  5  6  1  0
  6  7  1  0
  7  8  2  0
  7  9  1  0
  9 10  1  0
 10 11  2  0
 11 12  1  0
 12 13  2  0
 12 14  2  0
 12 15  1  0
 15 16  2  0
 16 17  1  0
 17 18  1  0
 18 19  1  0
 19 20  1  0
 17 21  2  0
 21 22  1  0
 22 23  2  0
 23 24  1  0
  9 25  2  0
 25 26  1  0
 25 27  1  0
 27 28  2  0
 28 29  1  0
 29 30  2  0
 30 31  1  0
 31 32  2  0
 32  6  1  0
 24 10  1  0
 32 27  1  0
 23 15  1  0
  1 33  1  0
  1 34  1  0
  1 35  1  0
  2 36  1  0
  3 37  1  0
  3 38  1  0
  3 39  1  0
  4 40  1  0
  4 41  1  0
  5 42  1  0
  5 43  1  0
 11 44  1  0
 16 45  1  0
 18 46  1  0
 18 47  1  0
 19 48  1  0
 19 49  1  0
 20 50  1  0
 20 51  1  0
 20 52  1  0
 21 53  1  0
 22 54  1  0
 24 55  1  0
 28 56  1  0
 29 57  1  0
 30 58  1  0
 31 59  1  0
M  CHG  3  11   1  20   1  26  -1
M  END
>  <meeko>  (2) 
{"is_sidechain": [false], "free_energy": -7.727, "intermolecular_energy": -10.8, "internal_energy": -1.321}

$$$$
LIB_CVVGRHFARKYNNE__M_PUB_ALL__e8__s20260927
     RDKit          3D

 59 62  0  0  0  0  0  0  0  0999 V2000
   11.5090  -19.0780    0.3280 C   0  0  0  0  0  0  0  0  0  0  0  0
   11.1670  -18.3050   -0.9460 C   0  0  0  0  0  0  0  0  0  0  0  0
    9.6470  -18.2590   -1.1290 C   0  0  0  0  0  0  0  0  0  0  0  0
   11.7340  -16.8740   -0.9320 C   0  0  0  0  0  0  0  0  0  0  0  0
   10.8490  -15.8610   -1.6690 C   0  0  0  0  0  0  0  0  0  0  0  0
   11.6420  -14.8230   -2.3320 N   0  0  0  0  0  0  0  0  0  0  0  0
   11.9980  -15.0210   -3.6470 C   0  0  0  0  0  0  0  0  0  0  0  0
   11.6720  -16.0130   -4.3130 O   0  0  0  0  0  0  0  0  0  0  0  0
   12.8240  -13.9890   -4.3250 C   0  0  0  0  0  0  0  0  0  0  0  0
   13.2370  -14.3020   -5.8410 C   0  0  0  0  0  0  0  0  0  0  0  0
   14.1810  -15.1690   -6.0850 N   0  0  0  0  0  0  0  0  0  0  0  0
   14.6430  -15.5820   -7.5430 S   0  0  0  0  0  0  0  0  0  0  0  0
   16.0010  -15.1500   -7.7920 O   0  0  0  0  0  0  0  0  0  0  0  0
   14.2590  -16.9510   -7.8270 O   0  0  0  0  0  0  0  0  0  0  0  0
   13.6620  -14.6330   -8.6430 C   0  0  0  0  0  0  0  0  0  0  0  0
   13.8090  -14.7800  -10.0330 C   0  0  0  0  0  0  0  0  0  0  0  0
   13.0050  -14.0260  -10.8980 C   0  0  0  0  0  0  0  0  0  0  0  0
   13.1430  -14.1600  -12.3980 C   0  0  0  0  0  0  0  0  0  0  0  0
   13.6080  -12.8750  -13.0900 C   0  0  0  0  0  0  0  0  0  0  0  0
   14.8940  -12.3930  -12.5170 N   0  0  0  0  0  0  0  0  0  0  0  0
   12.0780  -13.1320  -10.3420 C   0  0  0  0  0  0  0  0  0  0  0  0
   11.9490  -13.0150   -8.9520 C   0  0  0  0  0  0  0  0  0  0  0  0
   12.7410  -13.7740   -8.0850 C   0  0  0  0  0  0  0  0  0  0  0  0
   12.5640  -13.6460   -6.7640 N   0  0  0  0  0  0  0  0  0  0  0  0
   13.2290  -12.8260   -3.7560 C   0  0  0  0  0  0  0  0  0  0  0  0
   13.9290  -11.9400   -4.3440 O   0  0  0  0  0  0  0  0  0  0  0  0
   12.7730  -12.6490   -2.3280 C   0  0  0  0  0  0  0  0  0  0  0  0
   13.1200  -11.4700   -1.6310 C   0  0  0  0  0  0  0  0  0  0  0  0
   12.7260  -11.2480   -0.3120 C   0  0  0  0  0  0  0  0  0  0  0  0
   11.9690  -12.2060    0.3430 C   0  0  0  0  0  0  0  0  0  0  0  0
   11.6110  -13.3810   -0.3210 C   0  0  0  0  0  0  0  0  0  0  0  0
   12.0060  -13.6220   -1.6520 C   0  0  0  0  0  0  0  0  0  0  0  0
   11.2414  -18.4731    1.2069 H   0  0  0  0  0  0  0  0  0  0  0  0
   10.9445  -20.0219    0.3469 H   0  0  0  0  0  0  0  0  0  0  0  0
   12.5872  -19.2951    0.3469 H   0  0  0  0  0  0  0  0  0  0  0  0
   11.6341  -18.8348   -1.7893 H   0  0  0  0  0  0  0  0  0  0  0  0
    9.1593  -18.2442   -0.1431 H   0  0  0  0  0  0  0  0  0  0  0  0
    9.3722  -17.3521   -1.6876 H   0  0  0  0  0  0  0  0  0  0  0  0
    9.3179  -19.1476   -1.6876 H   0  0  0  0  0  0  0  0  0  0  0  0
   11.8377  -16.5502    0.1141 H   0  0  0  0  0  0  0  0  0  0  0  0
   12.7007  -16.9025   -1.4561 H   0  0  0  0  0  0  0  0  0  0  0  0
   10.2549  -16.3929   -2.4267 H   0  0  0  0  0  0  0  0  0  0  0  0
   10.2001  -15.3724   -0.9273 H   0  0  0  0  0  0  0  0  0  0  0  0
   14.6270  -15.5960   -5.2790 H   0  0  0  0  0  0  0  0  0  0  0  0
   14.5510  -15.4830  -10.4395 H   0  0  0  0  0  0  0  0  0  0  0  0
   13.8750  -14.9532  -12.6101 H   0  0  0  0  0  0  0  0  0  0  0  0
   12.1438  -14.3949  -12.7934 H   0  0  0  0  0  0  0  0  0  0  0  0
   13.7451  -13.0743  -14.1631 H   0  0  0  0  0  0  0  0  0  0  0  0
   12.8440  -12.0989  -12.9354 H   0  0  0  0  0  0  0  0  0  0  0  0
   15.4150  -13.1650  -12.0800 H   0  0  0  0  0  0  0  0  0  0  0  0
   15.5060  -11.9890  -13.2390 H   0  0  0  0  0  0  0  0  0  0  0  0
   14.7510  -11.6780  -11.7920 H   0  0  0  0  0  0  0  0  0  0  0  0
   11.4477  -12.5183  -11.0024 H   0  0  0  0  0  0  0  0  0  0  0  0
   11.2114  -12.3134   -8.5351 H   0  0  0  0  0  0  0  0  0  0  0  0
   11.8430  -13.0090   -6.3450 H   0  0  0  0  0  0  0  0  0  0  0  0
   13.7193  -10.7038   -2.1446 H   0  0  0  0  0  0  0  0  0  0  0  0
   13.0137  -10.3202    0.2042 H   0  0  0  0  0  0  0  0  0  0  0  0
   11.6510  -12.0414    1.3831 H   0  0  0  0  0  0  0  0  0  0  0  0
   11.0077  -14.1347    0.2062 H   0  0  0  0  0  0  0  0  0  0  0  0
  1  2  1  0
  2  3  1  0
  2  4  1  0
  4  5  1  0
  5  6  1  0
  6  7  1  0
  7  8  2  0
  7  9  1  0
  9 10  1  0
 10 11  2  0
 11 12  1  0
 12 13  2  0
 12 14  2  0
 12 15  1  0
 15 16  2  0
 16 17  1  0
 17 18  1  0
 18 19  1  0
 19 20  1  0
 17 21  2  0
 21 22  1  0
 22 23  2  0
 23 24  1  0
  9 25  2  0
 25 26  1  0
 25 27  1  0
 27 28  2  0
 28 29  1  0
 29 30  2  0
 30 31  1  0
 31 32  2  0
 32  6  1  0
 24 10  1  0
 32 27  1  0
 23 15  1  0
  1 33  1  0
  1 34  1  0
  1 35  1  0
  2 36  1  0
  3 37  1  0
  3 38  1  0
  3 39  1  0
  4 40  1  0
  4 41  1  0
  5 42  1  0
  5 43  1  0
 11 44  1  0
 16 45  1  0
 18 46  1  0
 18 47  1  0
 19 48  1  0
 19 49  1  0
 20 50  1  0
 20 51  1  0
 20 52  1  0
 21 53  1  0
 22 54  1  0
 24 55  1  0
 28 56  1  0
 29 57  1  0
 30 58  1  0
 31 59  1  0
M  CHG  3  11   1  20   1  26  -1
M  END
>  <meeko>  (3) 
{"is_sidechain": [false], "free_energy": -7.599, "intermolecular_energy": -10.631, "internal_energy": -1.313}

$$$$
LIB_CVVGRHFARKYNNE__M_PUB_ALL__e8__s20260927
     RDKit          3D

 59 62  0  0  0  0  0  0  0  0999 V2000
   12.8340  -13.8090   -5.7410 C   0  0  0  0  0  0  0  0  0  0  0  0
   12.4360  -15.0330   -4.9140 C   0  0  0  0  0  0  0  0  0  0  0  0
   13.4750  -15.2740   -3.8150 C   0  0  0  0  0  0  0  0  0  0  0  0
   11.0380  -14.8850   -4.2870 C   0  0  0  0  0  0  0  0  0  0  0  0
   10.6050  -13.4250   -4.1070 C   0  0  0  0  0  0  0  0  0  0  0  0
   10.4400  -13.0750   -2.6940 N   0  0  0  0  0  0  0  0  0  0  0  0
    9.2870  -13.4770   -2.0570 C   0  0  0  0  0  0  0  0  0  0  0  0
    8.3880  -14.1350   -2.5990 O   0  0  0  0  0  0  0  0  0  0  0  0
    9.0940  -13.1070   -0.6320 C   0  0  0  0  0  0  0  0  0  0  0  0
    7.7130  -13.5720    0.0360 C   0  0  0  0  0  0  0  0  0  0  0  0
    6.9850  -12.7000    0.6790 N   0  0  0  0  0  0  0  0  0  0  0  0
    5.5880  -13.0400    1.3440 S   0  0  0  0  0  0  0  0  0  0  0  0
    5.6650  -12.9270    2.7840 O   0  0  0  0  0  0  0  0  0  0  0  0
    4.5130  -12.3820    0.6270 O   0  0  0  0  0  0  0  0  0  0  0  0
    5.3140  -14.7440    1.0410 C   0  0  0  0  0  0  0  0  0  0  0  0
    4.1350  -15.3650    1.4870 C   0  0  0  0  0  0  0  0  0  0  0  0
    3.9240  -16.7250    1.2220 C   0  0  0  0  0  0  0  0  0  0  0  0
    2.6670  -17.4200    1.6920 C   0  0  0  0  0  0  0  0  0  0  0  0
    2.2480  -18.5970    0.8060 C   0  0  0  0  0  0  0  0  0  0  0  0
    1.5790  -18.1230   -0.4350 N   0  0  0  0  0  0  0  0  0  0  0  0
    4.9130  -17.4310    0.5220 C   0  0  0  0  0  0  0  0  0  0  0  0
    6.0750  -16.7820    0.0820 C   0  0  0  0  0  0  0  0  0  0  0  0
    6.2830  -15.4230    0.3350 C   0  0  0  0  0  0  0  0  0  0  0  0
    7.3970  -14.8400   -0.1270 N   0  0  0  0  0  0  0  0  0  0  0  0
    9.9970  -12.4300    0.1200 C   0  0  0  0  0  0  0  0  0  0  0  0
    9.8310  -12.1230    1.3450 O   0  0  0  0  0  0  0  0  0  0  0  0
   11.2560  -12.0530   -0.6220 C   0  0  0  0  0  0  0  0  0  0  0  0
   12.2790  -11.3550    0.0590 C   0  0  0  0  0  0  0  0  0  0  0  0
   13.4650  -10.9820   -0.5720 C   0  0  0  0  0  0  0  0  0  0  0  0
   13.6580  -11.3030   -1.9060 C   0  0  0  0  0  0  0  0  0  0  0  0
   12.6640  -11.9930   -2.6040 C   0  0  0  0  0  0  0  0  0  0  0  0
   11.4570  -12.3720   -1.9810 C   0  0  0  0  0  0  0  0  0  0  0  0
   13.1027  -12.9825   -5.0667 H   0  0  0  0  0  0  0  0  0  0  0  0
   13.6968  -14.0599   -6.3755 H   0  0  0  0  0  0  0  0  0  0  0  0
   11.9886  -13.5045   -6.3755 H   0  0  0  0  0  0  0  0  0  0  0  0
   12.4005  -15.8953   -5.5960 H   0  0  0  0  0  0  0  0  0  0  0  0
   12.9988  -15.1635   -2.8296 H   0  0  0  0  0  0  0  0  0  0  0  0
   13.8833  -16.2907   -3.9130 H   0  0  0  0  0  0  0  0  0  0  0  0
   14.2892  -14.5409   -3.9130 H   0  0  0  0  0  0  0  0  0  0  0  0
   10.3082  -15.3877   -4.9386 H   0  0  0  0  0  0  0  0  0  0  0  0
   11.0807  -15.3378   -3.2854 H   0  0  0  0  0  0  0  0  0  0  0  0
   11.3703  -12.7699   -4.5487 H   0  0  0  0  0  0  0  0  0  0  0  0
    9.6340  -13.2930   -4.6068 H   0  0  0  0  0  0  0  0  0  0  0  0
    7.3520  -11.7550    0.7390 H   0  0  0  0  0  0  0  0  0  0  0  0
    3.3813  -14.7865    2.0414 H   0  0  0  0  0  0  0  0  0  0  0  0
    2.8382  -17.7961    2.7114 H   0  0  0  0  0  0  0  0  0  0  0  0
    1.8545  -16.6797    1.6496 H   0  0  0  0  0  0  0  0  0  0  0  0
    3.1420  -19.1769    0.5329 H   0  0  0  0  0  0  0  0  0  0  0  0
    1.5382  -19.2215    1.3682 H   0  0  0  0  0  0  0  0  0  0  0  0
    2.1880  -17.4820   -0.9610 H   0  0  0  0  0  0  0  0  0  0  0  0
    1.3480  -18.9020   -1.0670 H   0  0  0  0  0  0  0  0  0  0  0  0
    0.7070  -17.6150   -0.2350 H   0  0  0  0  0  0  0  0  0  0  0  0
    4.7758  -18.5029    0.3165 H   0  0  0  0  0  0  0  0  0  0  0  0
    6.8359  -17.3517   -0.4716 H   0  0  0  0  0  0  0  0  0  0  0  0
    8.1200  -15.3550   -0.6870 H   0  0  0  0  0  0  0  0  0  0  0  0
   12.1351  -11.0983    1.1189 H   0  0  0  0  0  0  0  0  0  0  0  0
   14.2415  -10.4371   -0.0151 H   0  0  0  0  0  0  0  0  0  0  0  0
   14.5906  -11.0155   -2.4136 H   0  0  0  0  0  0  0  0  0  0  0  0
   12.8262  -12.2461   -3.6621 H   0  0  0  0  0  0  0  0  0  0  0  0
  1  2  1  0
  2  3  1  0
  2  4  1  0
  4  5  1  0
  5  6  1  0
  6  7  1  0
  7  8  2  0
  7  9  1  0
  9 10  1  0
 10 11  2  0
 11 12  1  0
 12 13  2  0
 12 14  2  0
 12 15  1  0
 15 16  2  0
 16 17  1  0
 17 18  1  0
 18 19  1  0
 19 20  1  0
 17 21  2  0
 21 22  1  0
 22 23  2  0
 23 24  1  0
  9 25  2  0
 25 26  1  0
 25 27  1  0
 27 28  2  0
 28 29  1  0
 29 30  2  0
 30 31  1  0
 31 32  2  0
 32  6  1  0
 24 10  1  0
 32 27  1  0
 23 15  1  0
  1 33  1  0
  1 34  1  0
  1 35  1  0
  2 36  1  0
  3 37  1  0
  3 38  1  0
  3 39  1  0
  4 40  1  0
  4 41  1  0
  5 42  1  0
  5 43  1  0
 11 44  1  0
 16 45  1  0
 18 46  1  0
 18 47  1  0
 19 48  1  0
 19 49  1  0
 20 50  1  0
 20 51  1  0
 20 52  1  0
 21 53  1  0
 22 54  1  0
 24 55  1  0
 28 56  1  0
 29 57  1  0
 30 58  1  0
 31 59  1  0
M  CHG  3  11   1  20   1  26  -1
M  END
>  <meeko>  (4) 
{"is_sidechain": [false], "free_energy": -7.458, "intermolecular_energy": -10.288, "internal_energy": -1.462}

$$$$
LIB_CVVGRHFARKYNNE__M_PUB_ALL__e8__s20260927
     RDKit          3D

 59 62  0  0  0  0  0  0  0  0999 V2000
   12.7390  -13.8260   -5.5460 C   0  0  0  0  0  0  0  0  0  0  0  0
   12.1830  -15.0050   -4.7450 C   0  0  0  0  0  0  0  0  0  0  0  0
   13.1200  -15.3220   -3.5770 C   0  0  0  0  0  0  0  0  0  0  0  0
   10.7630  -14.7340   -4.2160 C   0  0  0  0  0  0  0  0  0  0  0  0
   10.4520  -13.2420   -4.0460 C   0  0  0  0  0  0  0  0  0  0  0  0
   10.2280  -12.8880   -2.6430 N   0  0  0  0  0  0  0  0  0  0  0  0
    8.9970  -13.1700   -2.0920 C   0  0  0  0  0  0  0  0  0  0  0  0
    8.0740  -13.7250   -2.7040 O   0  0  0  0  0  0  0  0  0  0  0  0
    8.7460  -12.7930   -0.6780 C   0  0  0  0  0  0  0  0  0  0  0  0
    7.2810  -13.1140   -0.1130 C   0  0  0  0  0  0  0  0  0  0  0  0
    7.1530  -13.7980    0.9900 N   0  0  0  0  0  0  0  0  0  0  0  0
    5.7580  -14.1400    1.6590 S   0  0  0  0  0  0  0  0  0  0  0  0
    5.5070  -15.5640    1.6230 O   0  0  0  0  0  0  0  0  0  0  0  0
    5.6000  -13.4120    2.9020 O   0  0  0  0  0  0  0  0  0  0  0  0
    4.5400  -13.4440    0.6070 C   0  0  0  0  0  0  0  0  0  0  0  0
    3.1770  -13.5510    0.9310 C   0  0  0  0  0  0  0  0  0  0  0  0
    2.2170  -12.9750    0.0870 C   0  0  0  0  0  0  0  0  0  0  0  0
    0.7440  -13.0760    0.4070 C   0  0  0  0  0  0  0  0  0  0  0  0
    0.0250  -11.7240    0.4280 C   0  0  0  0  0  0  0  0  0  0  0  0
    0.5300  -10.8650    1.5320 N   0  0  0  0  0  0  0  0  0  0  0  0
    2.6540  -12.3130   -1.0690 C   0  0  0  0  0  0  0  0  0  0  0  0
    4.0210  -12.2160   -1.3610 C   0  0  0  0  0  0  0  0  0  0  0  0
    4.9820  -12.7790   -0.5160 C   0  0  0  0  0  0  0  0  0  0  0  0
    6.2780  -12.6380   -0.8220 N   0  0  0  0  0  0  0  0  0  0  0  0
    9.6610  -12.2210    0.1450 C   0  0  0  0  0  0  0  0  0  0  0  0
    9.4440  -11.9080    1.3590 O   0  0  0  0  0  0  0  0  0  0  0  0
   11.0010  -11.9740   -0.5040 C   0  0  0  0  0  0  0  0  0  0  0  0
   12.0430  -11.3940    0.2550 C   0  0  0  0  0  0  0  0  0  0  0  0
   13.3020  -11.1450   -0.2880 C   0  0  0  0  0  0  0  0  0  0  0  0
   13.5520  -11.4730   -1.6100 C   0  0  0  0  0  0  0  0  0  0  0  0
   12.5420  -12.0480   -2.3850 C   0  0  0  0  0  0  0  0  0  0  0  0
   11.2620  -12.3020   -1.8520 C   0  0  0  0  0  0  0  0  0  0  0  0
   13.1038  -13.0524   -4.8544 H   0  0  0  0  0  0  0  0  0  0  0  0
   13.5688  -14.1721   -6.1798 H   0  0  0  0  0  0  0  0  0  0  0  0
   11.9441  -13.4059   -6.1798 H   0  0  0  0  0  0  0  0  0  0  0  0
   12.1210  -15.8674   -5.4251 H   0  0  0  0  0  0  0  0  0  0  0  0
   12.5948  -15.1443   -2.6270 H   0  0  0  0  0  0  0  0  0  0  0  0
   13.4315  -16.3755   -3.6323 H   0  0  0  0  0  0  0  0  0  0  0  0
   14.0071  -14.6740   -3.6323 H   0  0  0  0  0  0  0  0  0  0  0  0
   10.0390  -15.1628   -4.9245 H   0  0  0  0  0  0  0  0  0  0  0  0
   10.6932  -15.1962   -3.2203 H   0  0  0  0  0  0  0  0  0  0  0  0
   11.3000  -12.6559   -4.4298 H   0  0  0  0  0  0  0  0  0  0  0  0
    9.5312  -13.0195   -4.6052 H   0  0  0  0  0  0  0  0  0  0  0  0
    8.0110  -14.1150    1.4330 H   0  0  0  0  0  0  0  0  0  0  0  0
    2.8649  -14.0836    1.8415 H   0  0  0  0  0  0  0  0  0  0  0  0
    0.2662  -13.7118   -0.3530 H   0  0  0  0  0  0  0  0  0  0  0  0
    0.6630  -13.4992    1.4191 H   0  0  0  0  0  0  0  0  0  0  0  0
    0.1941  -11.2125   -0.5310 H   0  0  0  0  0  0  0  0  0  0  0  0
   -1.0487  -11.9022    0.5877 H   0  0  0  0  0  0  0  0  0  0  0  0
    0.9800  -11.4320    2.2650 H   0  0  0  0  0  0  0  0  0  0  0  0
    1.2350  -10.1910    1.2010 H   0  0  0  0  0  0  0  0  0  0  0  0
   -0.2230  -10.3310    1.9850 H   0  0  0  0  0  0  0  0  0  0  0  0
    1.9173  -11.8659   -1.7527 H   0  0  0  0  0  0  0  0  0  0  0  0
    4.3435  -11.6879   -2.2705 H   0  0  0  0  0  0  0  0  0  0  0  0
    6.6110  -12.1080   -1.6640 H   0  0  0  0  0  0  0  0  0  0  0  0
   11.8543  -11.1312    1.3063 H   0  0  0  0  0  0  0  0  0  0  0  0
   14.0915  -10.6912    0.3290 H   0  0  0  0  0  0  0  0  0  0  0  0
   14.5425  -11.2814   -2.0483 H   0  0  0  0  0  0  0  0  0  0  0  0
   12.7499  -12.3081   -3.4334 H   0  0  0  0  0  0  0  0  0  0  0  0
  1  2  1  0
  2  3  1  0
  2  4  1  0
  4  5  1  0
  5  6  1  0
  6  7  1  0
  7  8  2  0
  7  9  1  0
  9 10  1  0
 10 11  2  0
 11 12  1  0
 12 13  2  0
 12 14  2  0
 12 15  1  0
 15 16  2  0
 16 17  1  0
 17 18  1  0
 18 19  1  0
 19 20  1  0
 17 21  2  0
 21 22  1  0
 22 23  2  0
 23 24  1  0
  9 25  2  0
 25 26  1  0
 25 27  1  0
 27 28  2  0
 28 29  1  0
 29 30  2  0
 30 31  1  0
 31 32  2  0
 32  6  1  0
 24 10  1  0
 32 27  1  0
 23 15  1  0
  1 33  1  0
  1 34  1  0
  1 35  1  0
  2 36  1  0
  3 37  1  0
  3 38  1  0
  3 39  1  0
  4 40  1  0
  4 41  1  0
  5 42  1  0
  5 43  1  0
 11 44  1  0
 16 45  1  0
 18 46  1  0
 18 47  1  0
 19 48  1  0
 19 49  1  0
 20 50  1  0
 20 51  1  0
 20 52  1  0
 21 53  1  0
 22 54  1  0
 24 55  1  0
 28 56  1  0
 29 57  1  0
 30 58  1  0
 31 59  1  0
M  CHG  3  11   1  20   1  26  -1
M  END
>  <meeko>  (5) 
{"is_sidechain": [false], "free_energy": -7.396, "intermolecular_energy": -10.092, "internal_energy": -1.573}

$$$$
LIB_CVVGRHFARKYNNE__M_PUB_ALL__e8__s20260927
     RDKit          3D

 59 62  0  0  0  0  0  0  0  0999 V2000
   -2.8840  -10.4010    0.4430 C   0  0  0  0  0  0  0  0  0  0  0  0
   -1.6080   -9.6250    0.7770 C   0  0  0  0  0  0  0  0  0  0  0  0
   -1.5310   -9.3870    2.2880 C   0  0  0  0  0  0  0  0  0  0  0  0
   -0.3400  -10.3540    0.2980 C   0  0  0  0  0  0  0  0  0  0  0  0
    0.2480  -11.3060    1.3470 C   0  0  0  0  0  0  0  0  0  0  0  0
   -0.1270  -12.6990    1.0920 N   0  0  0  0  0  0  0  0  0  0  0  0
   -1.0520  -13.2840    1.9270 C   0  0  0  0  0  0  0  0  0  0  0  0
   -1.6040  -12.7000    2.8690 O   0  0  0  0  0  0  0  0  0  0  0  0
   -1.4230  -14.7030    1.6960 C   0  0  0  0  0  0  0  0  0  0  0  0
   -2.4740  -15.3340    2.7290 C   0  0  0  0  0  0  0  0  0  0  0  0
   -2.1990  -16.4660    3.3150 N   0  0  0  0  0  0  0  0  0  0  0  0
   -3.1450  -17.1600    4.3800 S   0  0  0  0  0  0  0  0  0  0  0  0
   -3.6660  -18.4080    3.8660 O   0  0  0  0  0  0  0  0  0  0  0  0
   -2.5410  -17.1210    5.6970 O   0  0  0  0  0  0  0  0  0  0  0  0
   -4.5460  -16.1160    4.5280 C   0  0  0  0  0  0  0  0  0  0  0  0
   -5.5800  -16.4390    5.4220 C   0  0  0  0  0  0  0  0  0  0  0  0
   -6.6860  -15.5850    5.5400 C   0  0  0  0  0  0  0  0  0  0  0  0
   -7.8150  -15.9070    6.4910 C   0  0  0  0  0  0  0  0  0  0  0  0
   -7.4260  -15.7940    7.9680 C   0  0  0  0  0  0  0  0  0  0  0  0
   -7.1300  -14.3840    8.3380 N   0  0  0  0  0  0  0  0  0  0  0  0
   -6.7270  -14.4310    4.7460 C   0  0  0  0  0  0  0  0  0  0  0  0
   -5.6750  -14.1310    3.8700 C   0  0  0  0  0  0  0  0  0  0  0  0
   -4.5650  -14.9750    3.7570 C   0  0  0  0  0  0  0  0  0  0  0  0
   -3.5730  -14.6340    2.9250 N   0  0  0  0  0  0  0  0  0  0  0  0
   -0.9470  -15.4730    0.6860 C   0  0  0  0  0  0  0  0  0  0  0  0
   -1.2750  -16.6860    0.4860 O   0  0  0  0  0  0  0  0  0  0  0  0
    0.0310  -14.7630   -0.2190 C   0  0  0  0  0  0  0  0  0  0  0  0
    0.5870  -15.4560   -1.3180 C   0  0  0  0  0  0  0  0  0  0  0  0
    1.4930  -14.8530   -2.1900 C   0  0  0  0  0  0  0  0  0  0  0  0
    1.8640  -13.5350   -1.9820 C   0  0  0  0  0  0  0  0  0  0  0  0
    1.3310  -12.8250   -0.9040 C   0  0  0  0  0  0  0  0  0  0  0  0
    0.4180  -13.4220   -0.0110 C   0  0  0  0  0  0  0  0  0  0  0  0
   -3.3831  -10.7045    1.3751 H   0  0  0  0  0  0  0  0  0  0  0  0
   -3.5597   -9.7607   -0.1431 H   0  0  0  0  0  0  0  0  0  0  0  0
   -2.6264  -11.2955   -0.1431 H   0  0  0  0  0  0  0  0  0  0  0  0
   -1.6550   -8.6636    0.2446 H   0  0  0  0  0  0  0  0  0  0  0  0
   -1.8275  -10.3035    2.8191 H   0  0  0  0  0  0  0  0  0  0  0  0
   -0.5006   -9.1197    2.5651 H   0  0  0  0  0  0  0  0  0  0  0  0
   -2.2096   -8.5668    2.5651 H   0  0  0  0  0  0  0  0  0  0  0  0
   -0.5913  -10.9371   -0.6002 H   0  0  0  0  0  0  0  0  0  0  0  0
    0.4198   -9.5849    0.0951 H   0  0  0  0  0  0  0  0  0  0  0  0
    1.3447  -11.2236    1.3269 H   0  0  0  0  0  0  0  0  0  0  0  0
   -0.1534  -11.0195    2.3303 H   0  0  0  0  0  0  0  0  0  0  0  0
   -1.3190  -16.9070    3.0650 H   0  0  0  0  0  0  0  0  0  0  0  0
   -5.5226  -17.3565    6.0261 H   0  0  0  0  0  0  0  0  0  0  0  0
   -8.6433  -15.2101    6.2956 H   0  0  0  0  0  0  0  0  0  0  0  0
   -8.0976  -16.9549    6.3119 H   0  0  0  0  0  0  0  0  0  0  0  0
   -8.2576  -16.1609    8.5875 H   0  0  0  0  0  0  0  0  0  0  0  0
   -6.5217  -16.3968    8.1380 H   0  0  0  0  0  0  0  0  0  0  0  0
   -7.2970  -14.2220    9.3410 H   0  0  0  0  0  0  0  0  0  0  0  0
   -6.1470  -14.1390    8.1550 H   0  0  0  0  0  0  0  0  0  0  0  0
   -7.7180  -13.7160    7.8230 H   0  0  0  0  0  0  0  0  0  0  0  0
   -7.5923  -13.7549    4.8109 H   0  0  0  0  0  0  0  0  0  0  0  0
   -5.7229  -13.2163    3.2609 H   0  0  0  0  0  0  0  0  0  0  0  0
   -3.5810  -13.7500    2.3600 H   0  0  0  0  0  0  0  0  0  0  0  0
    0.2963  -16.5027   -1.4908 H   0  0  0  0  0  0  0  0  0  0  0  0
    1.9095  -15.4195   -3.0360 H   0  0  0  0  0  0  0  0  0  0  0  0
    2.5767  -13.0486   -2.6642 H   0  0  0  0  0  0  0  0  0  0  0  0
    1.6299  -11.7779   -0.7484 H   0  0  0  0  0  0  0  0  0  0  0  0
  1  2  1  0
  2  3  1  0
  2  4  1  0
  4  5  1  0
  5  6  1  0
  6  7  1  0
  7  8  2  0
  7  9  1  0
  9 10  1  0
 10 11  2  0
 11 12  1  0
 12 13  2  0
 12 14  2  0
 12 15  1  0
 15 16  2  0
 16 17  1  0
 17 18  1  0
 18 19  1  0
 19 20  1  0
 17 21  2  0
 21 22  1  0
 22 23  2  0
 23 24  1  0
  9 25  2  0
 25 26  1  0
 25 27  1  0
 27 28  2  0
 28 29  1  0
 29 30  2  0
 30 31  1  0
 31 32  2  0
 32  6  1  0
 24 10  1  0
 32 27  1  0
 23 15  1  0
  1 33  1  0
  1 34  1  0
  1 35  1  0
  2 36  1  0
  3 37  1  0
  3 38  1  0
  3 39  1  0
  4 40  1  0
  4 41  1  0
  5 42  1  0
  5 43  1  0
 11 44  1  0
 16 45  1  0
 18 46  1  0
 18 47  1  0
 19 48  1  0
 19 49  1  0
 20 50  1  0
 20 51  1  0
 20 52  1  0
 21 53  1  0
 22 54  1  0
 24 55  1  0
 28 56  1  0
 29 57  1  0
 30 58  1  0
 31 59  1  0
M  CHG  3  11   1  20   1  26  -1
M  END
>  <meeko>  (6) 
{"is_sidechain": [false], "free_energy": -7.373, "intermolecular_energy": -10.292, "internal_energy": -1.341}

$$$$
LIB_CVVGRHFARKYNNE__M_PUB_ALL__e8__s20260927
     RDKit          3D

 59 62  0  0  0  0  0  0  0  0999 V2000
   -2.7700  -16.5980    2.6630 C   0  0  0  0  0  0  0  0  0  0  0  0
   -1.9130  -16.8790    1.4270 C   0  0  0  0  0  0  0  0  0  0  0  0
   -2.6340  -16.3710    0.1750 C   0  0  0  0  0  0  0  0  0  0  0  0
   -0.5190  -16.2340    1.5240 C   0  0  0  0  0  0  0  0  0  0  0  0
   -0.4810  -15.0020    2.4360 C   0  0  0  0  0  0  0  0  0  0  0  0
   -0.1190  -13.7880    1.7010 N   0  0  0  0  0  0  0  0  0  0  0  0
    1.2030  -13.6070    1.3610 C   0  0  0  0  0  0  0  0  0  0  0  0
    2.1030  -14.4170    1.6200 O   0  0  0  0  0  0  0  0  0  0  0  0
    1.5900  -12.3690    0.6370 C   0  0  0  0  0  0  0  0  0  0  0  0
    3.1490  -12.2030    0.3080 C   0  0  0  0  0  0  0  0  0  0  0  0
    4.0130  -12.1740    1.2860 N   0  0  0  0  0  0  0  0  0  0  0  0
    5.5780  -12.0520    1.0760 S   0  0  0  0  0  0  0  0  0  0  0  0
    6.0690  -10.7940    1.5950 O   0  0  0  0  0  0  0  0  0  0  0  0
    6.2370  -13.2890    1.4450 O   0  0  0  0  0  0  0  0  0  0  0  0
    5.8220  -11.9480   -0.6570 C   0  0  0  0  0  0  0  0  0  0  0  0
    7.1200  -11.8520   -1.1880 C   0  0  0  0  0  0  0  0  0  0  0  0
    7.2980  -11.7850   -2.5760 C   0  0  0  0  0  0  0  0  0  0  0  0
    8.6810  -11.6790   -3.1760 C   0  0  0  0  0  0  0  0  0  0  0  0
    9.6610  -12.7310   -2.6500 C   0  0  0  0  0  0  0  0  0  0  0  0
   10.7030  -12.1110   -1.7870 N   0  0  0  0  0  0  0  0  0  0  0  0
    6.1620  -11.8070   -3.3980 C   0  0  0  0  0  0  0  0  0  0  0  0
    4.8810  -11.9120   -2.8400 C   0  0  0  0  0  0  0  0  0  0  0  0
    4.7000  -11.9900   -1.4550 C   0  0  0  0  0  0  0  0  0  0  0  0
    3.4580  -12.1150   -0.9690 N   0  0  0  0  0  0  0  0  0  0  0  0
    0.7240  -11.4030    0.2390 C   0  0  0  0  0  0  0  0  0  0  0  0
    1.0590  -10.3480   -0.3890 O   0  0  0  0  0  0  0  0  0  0  0  0
   -0.7140  -11.6780    0.6050 C   0  0  0  0  0  0  0  0  0  0  0  0
   -1.7140  -10.7510    0.2330 C   0  0  0  0  0  0  0  0  0  0  0  0
   -3.0590  -10.9520    0.5400 C   0  0  0  0  0  0  0  0  0  0  0  0
   -3.4380  -12.0920    1.2290 C   0  0  0  0  0  0  0  0  0  0  0  0
   -2.4720  -13.0260    1.6100 C   0  0  0  0  0  0  0  0  0  0  0  0
   -1.1080  -12.8350    1.3110 C   0  0  0  0  0  0  0  0  0  0  0  0
   -2.1793  -16.7917    3.5705 H   0  0  0  0  0  0  0  0  0  0  0  0
   -3.0936  -15.5467    2.6535 H   0  0  0  0  0  0  0  0  0  0  0  0
   -3.6532  -17.2536    2.6535 H   0  0  0  0  0  0  0  0  0  0  0  0
   -1.7672  -17.9675    1.3649 H   0  0  0  0  0  0  0  0  0  0  0  0
   -3.4997  -15.7610    0.4725 H   0  0  0  0  0  0  0  0  0  0  0  0
   -1.9428  -15.7593   -0.4234 H   0  0  0  0  0  0  0  0  0  0  0  0
   -2.9774  -17.2277   -0.4234 H   0  0  0  0  0  0  0  0  0  0  0  0
    0.1847  -16.9818    1.9185 H   0  0  0  0  0  0  0  0  0  0  0  0
   -0.2450  -15.8985    0.5129 H   0  0  0  0  0  0  0  0  0  0  0  0
   -1.4750  -14.8620    2.8859 H   0  0  0  0  0  0  0  0  0  0  0  0
    0.2837  -15.1734    3.2079 H   0  0  0  0  0  0  0  0  0  0  0  0
    3.6380  -12.2410    2.2280 H   0  0  0  0  0  0  0  0  0  0  0  0
    7.9915  -11.8296   -0.5172 H   0  0  0  0  0  0  0  0  0  0  0  0
    8.5967  -11.7970   -4.2664 H   0  0  0  0  0  0  0  0  0  0  0  0
    9.0812  -10.6949   -2.8907 H   0  0  0  0  0  0  0  0  0  0  0  0
    9.1056  -13.4770   -2.0625 H   0  0  0  0  0  0  0  0  0  0  0  0
   10.1572  -13.2057   -3.5093 H   0  0  0  0  0  0  0  0  0  0  0  0
   11.6160  -12.0980   -2.2620 H   0  0  0  0  0  0  0  0  0  0  0  0
   10.4740  -11.1350   -1.5530 H   0  0  0  0  0  0  0  0  0  0  0  0
   10.8290  -12.6220   -0.9040 H   0  0  0  0  0  0  0  0  0  0  0  0
    6.2775  -11.7413   -4.4899 H   0  0  0  0  0  0  0  0  0  0  0  0
    4.0029  -11.9335   -3.5021 H   0  0  0  0  0  0  0  0  0  0  0  0
    2.6090  -12.1730   -1.5820 H   0  0  0  0  0  0  0  0  0  0  0  0
   -1.4221   -9.8433   -0.3155 H   0  0  0  0  0  0  0  0  0  0  0  0
   -3.8134  -10.2108    0.2373 H   0  0  0  0  0  0  0  0  0  0  0  0
   -4.4966  -12.2613    1.4754 H   0  0  0  0  0  0  0  0  0  0  0  0
   -2.7823  -13.9297    2.1549 H   0  0  0  0  0  0  0  0  0  0  0  0
  1  2  1  0
  2  3  1  0
  2  4  1  0
  4  5  1  0
  5  6  1  0
  6  7  1  0
  7  8  2  0
  7  9  1  0
  9 10  1  0
 10 11  2  0
 11 12  1  0
 12 13  2  0
 12 14  2  0
 12 15  1  0
 15 16  2  0
 16 17  1  0
 17 18  1  0
 18 19  1  0
 19 20  1  0
 17 21  2  0
 21 22  1  0
 22 23  2  0
 23 24  1  0
  9 25  2  0
 25 26  1  0
 25 27  1  0
 27 28  2  0
 28 29  1  0
 29 30  2  0
 30 31  1  0
 31 32  2  0
 32  6  1  0
 24 10  1  0
 32 27  1  0
 23 15  1  0
  1 33  1  0
  1 34  1  0
  1 35  1  0
  2 36  1  0
  3 37  1  0
  3 38  1  0
  3 39  1  0
  4 40  1  0
  4 41  1  0
  5 42  1  0
  5 43  1  0
 11 44  1  0
 16 45  1  0
 18 46  1  0
 18 47  1  0
 19 48  1  0
 19 49  1  0
 20 50  1  0
 20 51  1  0
 20 52  1  0
 21 53  1  0
 22 54  1  0
 24 55  1  0
 28 56  1  0
 29 57  1  0
 30 58  1  0
 31 59  1  0
M  CHG  3  11   1  20   1  26  -1
M  END
>  <meeko>  (7) 
{"is_sidechain": [false], "free_energy": -7.265, "intermolecular_energy": -9.923, "internal_energy": -1.56}

$$$$
LIB_CVVGRHFARKYNNE__M_PUB_ALL__e8__s20260927
     RDKit          3D

 59 62  0  0  0  0  0  0  0  0999 V2000
   -0.9470  -15.2080    4.8980 C   0  0  0  0  0  0  0  0  0  0  0  0
   -1.3490  -15.7730    3.5350 C   0  0  0  0  0  0  0  0  0  0  0  0
   -2.7920  -15.3720    3.2160 C   0  0  0  0  0  0  0  0  0  0  0  0
   -0.4150  -15.2980    2.4070 C   0  0  0  0  0  0  0  0  0  0  0  0
    0.5120  -14.1510    2.8290 C   0  0  0  0  0  0  0  0  0  0  0  0
    0.6150  -13.1220    1.7910 N   0  0  0  0  0  0  0  0  0  0  0  0
    1.6420  -13.2240    0.8790 C   0  0  0  0  0  0  0  0  0  0  0  0
    2.4730  -14.1420    0.8680 O   0  0  0  0  0  0  0  0  0  0  0  0
    1.7750  -12.1740   -0.1640 C   0  0  0  0  0  0  0  0  0  0  0  0
    3.0150  -12.3310   -1.1670 C   0  0  0  0  0  0  0  0  0  0  0  0
    4.2310  -12.2180   -0.7080 N   0  0  0  0  0  0  0  0  0  0  0  0
    5.5290  -12.3910   -1.6010 S   0  0  0  0  0  0  0  0  0  0  0  0
    6.2490  -11.1410   -1.7070 O   0  0  0  0  0  0  0  0  0  0  0  0
    6.2380  -13.6010   -1.2340 O   0  0  0  0  0  0  0  0  0  0  0  0
    4.9530  -12.7170   -3.2240 C   0  0  0  0  0  0  0  0  0  0  0  0
    5.8660  -12.9460   -4.2690 C   0  0  0  0  0  0  0  0  0  0  0  0
    5.3890  -13.2210   -5.5570 C   0  0  0  0  0  0  0  0  0  0  0  0
    6.3460  -13.4680   -6.7010 C   0  0  0  0  0  0  0  0  0  0  0  0
    5.8640  -12.8980   -8.0390 C   0  0  0  0  0  0  0  0  0  0  0  0
    6.6300  -11.6780   -8.4090 N   0  0  0  0  0  0  0  0  0  0  0  0
    4.0030  -13.2490   -5.7660 C   0  0  0  0  0  0  0  0  0  0  0  0
    3.1180  -13.0260   -4.7020 C   0  0  0  0  0  0  0  0  0  0  0  0
    3.5900  -12.7620   -3.4130 C   0  0  0  0  0  0  0  0  0  0  0  0
    2.7060  -12.5810   -2.4230 N   0  0  0  0  0  0  0  0  0  0  0  0
    0.9270  -11.1270   -0.3200 C   0  0  0  0  0  0  0  0  0  0  0  0
    1.0400  -10.2350   -1.2200 O   0  0  0  0  0  0  0  0  0  0  0  0
   -0.2000  -11.0940    0.6840 C   0  0  0  0  0  0  0  0  0  0  0  0
   -1.1580  -10.0570    0.6170 C   0  0  0  0  0  0  0  0  0  0  0  0
   -2.2220   -9.9750    1.5140 C   0  0  0  0  0  0  0  0  0  0  0  0
   -2.3550  -10.9350    2.5030 C   0  0  0  0  0  0  0  0  0  0  0  0
   -1.4230  -11.9710    2.5950 C   0  0  0  0  0  0  0  0  0  0  0  0
   -0.3390  -12.0650    1.6980 C   0  0  0  0  0  0  0  0  0  0  0  0
   -1.3865  -15.8257    5.6951 H   0  0  0  0  0  0  0  0  0  0  0  0
    0.1491  -15.2166    4.9897 H   0  0  0  0  0  0  0  0  0  0  0  0
   -1.3145  -14.1753    4.9897 H   0  0  0  0  0  0  0  0  0  0  0  0
   -1.2641  -16.8682    3.5929 H   0  0  0  0  0  0  0  0  0  0  0  0
   -3.3457  -15.2181    4.1540 H   0  0  0  0  0  0  0  0  0  0  0  0
   -2.7930  -14.4395    2.6324 H   0  0  0  0  0  0  0  0  0  0  0  0
   -3.2739  -16.1703    2.6324 H   0  0  0  0  0  0  0  0  0  0  0  0
    0.2051  -16.1480    2.0861 H   0  0  0  0  0  0  0  0  0  0  0  0
   -1.0523  -14.9195    1.5942 H   0  0  0  0  0  0  0  0  0  0  0  0
    0.1151  -13.6921    3.7466 H   0  0  0  0  0  0  0  0  0  0  0  0
    1.5160  -14.5680    2.9966 H   0  0  0  0  0  0  0  0  0  0  0  0
    4.3280  -12.0130    0.2820 H   0  0  0  0  0  0  0  0  0  0  0  0
    6.9483  -12.9094   -4.0760 H   0  0  0  0  0  0  0  0  0  0  0  0
    7.3117  -13.0033   -6.4529 H   0  0  0  0  0  0  0  0  0  0  0  0
    6.4254  -14.5581   -6.8250 H   0  0  0  0  0  0  0  0  0  0  0  0
    5.9988  -13.6581   -8.8226 H   0  0  0  0  0  0  0  0  0  0  0  0
    4.8023  -12.6273   -7.9410 H   0  0  0  0  0  0  0  0  0  0  0  0
    6.6830  -11.5720   -9.4310 H   0  0  0  0  0  0  0  0  0  0  0  0
    6.1880  -10.8230   -8.0420 H   0  0  0  0  0  0  0  0  0  0  0  0
    7.5960  -11.7050   -8.0580 H   0  0  0  0  0  0  0  0  0  0  0  0
    3.6069  -13.4475   -6.7728 H   0  0  0  0  0  0  0  0  0  0  0  0
    2.0338  -13.0593   -4.8845 H   0  0  0  0  0  0  0  0  0  0  0  0
    1.6690  -12.6420   -2.5660 H   0  0  0  0  0  0  0  0  0  0  0  0
   -1.0611   -9.2913   -0.1668 H   0  0  0  0  0  0  0  0  0  0  0  0
   -2.9502   -9.1541    1.4367 H   0  0  0  0  0  0  0  0  0  0  0  0
   -3.1924  -10.8818    3.2142 H   0  0  0  0  0  0  0  0  0  0  0  0
   -1.5369  -12.7294    3.3836 H   0  0  0  0  0  0  0  0  0  0  0  0
  1  2  1  0
  2  3  1  0
  2  4  1  0
  4  5  1  0
  5  6  1  0
  6  7  1  0
  7  8  2  0
  7  9  1  0
  9 10  1  0
 10 11  2  0
 11 12  1  0
 12 13  2  0
 12 14  2  0
 12 15  1  0
 15 16  2  0
 16 17  1  0
 17 18  1  0
 18 19  1  0
 19 20  1  0
 17 21  2  0
 21 22  1  0
 22 23  2  0
 23 24  1  0
  9 25  2  0
 25 26  1  0
 25 27  1  0
 27 28  2  0
 28 29  1  0
 29 30  2  0
 30 31  1  0
 31 32  2  0
 32  6  1  0
 24 10  1  0
 32 27  1  0
 23 15  1  0
  1 33  1  0
  1 34  1  0
  1 35  1  0
  2 36  1  0
  3 37  1  0
  3 38  1  0
  3 39  1  0
  4 40  1  0
  4 41  1  0
  5 42  1  0
  5 43  1  0
 11 44  1  0
 16 45  1  0
 18 46  1  0
 18 47  1  0
 19 48  1  0
 19 49  1  0
 20 50  1  0
 20 51  1  0
 20 52  1  0
 21 53  1  0
 22 54  1  0
 24 55  1  0
 28 56  1  0
 29 57  1  0
 30 58  1  0
 31 59  1  0
M  CHG  3  11   1  20   1  26  -1
M  END
>  <meeko>  (8) 
{"is_sidechain": [false], "free_energy": -7.18, "intermolecular_energy": -9.846, "internal_energy": -1.52}

$$$$
LIB_CVVGRHFARKYNNE__M_PUB_ALL__e8__s20260927
     RDKit          3D

 59 62  0  0  0  0  0  0  0  0999 V2000
   -1.0150   -9.2230    1.7080 C   0  0  0  0  0  0  0  0  0  0  0  0
   -2.3090  -10.0340    1.6190 C   0  0  0  0  0  0  0  0  0  0  0  0
   -2.6150  -10.3580    0.1550 C   0  0  0  0  0  0  0  0  0  0  0  0
   -2.2400  -11.3350    2.4380 C   0  0  0  0  0  0  0  0  0  0  0  0
   -0.8180  -11.8950    2.5700 C   0  0  0  0  0  0  0  0  0  0  0  0
   -0.4880  -12.8110    1.4750 N   0  0  0  0  0  0  0  0  0  0  0  0
    0.5740  -12.4890    0.6590 C   0  0  0  0  0  0  0  0  0  0  0  0
    1.2810  -11.4820    0.8050 O   0  0  0  0  0  0  0  0  0  0  0  0
    0.9040  -13.3940   -0.4710 C   0  0  0  0  0  0  0  0  0  0  0  0
    2.1250  -12.9380   -1.4040 C   0  0  0  0  0  0  0  0  0  0  0  0
    1.8910  -12.5700   -2.6340 N   0  0  0  0  0  0  0  0  0  0  0  0
    3.0140  -12.0660   -3.6320 S   0  0  0  0  0  0  0  0  0  0  0  0
    3.1800  -12.9950   -4.7290 O   0  0  0  0  0  0  0  0  0  0  0  0
    2.8510  -10.6510   -3.9040 O   0  0  0  0  0  0  0  0  0  0  0  0
    4.5200  -12.1520   -2.7400 C   0  0  0  0  0  0  0  0  0  0  0  0
    5.7250  -11.7470   -3.3390 C   0  0  0  0  0  0  0  0  0  0  0  0
    6.9180  -11.8070   -2.6070 C   0  0  0  0  0  0  0  0  0  0  0  0
    8.2300  -11.3820   -3.2260 C   0  0  0  0  0  0  0  0  0  0  0  0
    9.3210  -12.4540   -3.1530 C   0  0  0  0  0  0  0  0  0  0  0  0
   10.3260  -12.1260   -2.1060 N   0  0  0  0  0  0  0  0  0  0  0  0
    6.8710  -12.2830   -1.2890 C   0  0  0  0  0  0  0  0  0  0  0  0
    5.6530  -12.6710   -0.7150 C   0  0  0  0  0  0  0  0  0  0  0  0
    4.4580  -12.6020   -1.4390 C   0  0  0  0  0  0  0  0  0  0  0  0
    3.3150  -12.9600   -0.8410 N   0  0  0  0  0  0  0  0  0  0  0  0
    0.2610  -14.5560   -0.7450 C   0  0  0  0  0  0  0  0  0  0  0  0
    0.5540  -15.3340   -1.7090 O   0  0  0  0  0  0  0  0  0  0  0  0
   -0.8660  -14.8740    0.2080 C   0  0  0  0  0  0  0  0  0  0  0  0
   -1.6040  -16.0670    0.0340 C   0  0  0  0  0  0  0  0  0  0  0  0
   -2.6530  -16.4160    0.8840 C   0  0  0  0  0  0  0  0  0  0  0  0
   -2.9880  -15.5770    1.9340 C   0  0  0  0  0  0  0  0  0  0  0  0
   -2.2760  -14.3920    2.1300 C   0  0  0  0  0  0  0  0  0  0  0  0
   -1.2160  -14.0220    1.2770 C   0  0  0  0  0  0  0  0  0  0  0  0
   -0.7560   -9.0607    2.7647 H   0  0  0  0  0  0  0  0  0  0  0  0
   -0.2023   -9.7736    1.2117 H   0  0  0  0  0  0  0  0  0  0  0  0
   -1.1562   -8.2516    1.2117 H   0  0  0  0  0  0  0  0  0  0  0  0
   -3.1149   -9.4192    2.0463 H   0  0  0  0  0  0  0  0  0  0  0  0
   -3.3695  -11.1569    0.1062 H   0  0  0  0  0  0  0  0  0  0  0  0
   -3.0007   -9.4583   -0.3468 H   0  0  0  0  0  0  0  0  0  0  0  0
   -1.6947  -10.6917   -0.3468 H   0  0  0  0  0  0  0  0  0  0  0  0
   -2.6309  -11.1338    3.4463 H   0  0  0  0  0  0  0  0  0  0  0  0
   -2.8381  -12.0880    1.9039 H   0  0  0  0  0  0  0  0  0  0  0  0
   -0.1040  -11.0583    2.5612 H   0  0  0  0  0  0  0  0  0  0  0  0
   -0.7589  -12.4566    3.5140 H   0  0  0  0  0  0  0  0  0  0  0  0
    0.9250  -12.6110   -2.9460 H   0  0  0  0  0  0  0  0  0  0  0  0
    5.7315  -11.3846   -4.3776 H   0  0  0  0  0  0  0  0  0  0  0  0
    8.0522  -11.1389   -4.2840 H   0  0  0  0  0  0  0  0  0  0  0  0
    8.5910  -10.5163   -2.6514 H   0  0  0  0  0  0  0  0  0  0  0  0
    8.8573  -13.4227   -2.9148 H   0  0  0  0  0  0  0  0  0  0  0  0
    9.8323  -12.4985   -4.1259 H   0  0  0  0  0  0  0  0  0  0  0  0
   11.2830  -12.2550   -2.4610 H   0  0  0  0  0  0  0  0  0  0  0  0
   10.2510  -11.1460   -1.7980 H   0  0  0  0  0  0  0  0  0  0  0  0
   10.2300  -12.7230   -1.2750 H   0  0  0  0  0  0  0  0  0  0  0  0
    7.7979  -12.3524   -0.7007 H   0  0  0  0  0  0  0  0  0  0  0  0
    5.6362  -13.0360    0.3225 H   0  0  0  0  0  0  0  0  0  0  0  0
    3.2700  -13.2770    0.1580 H   0  0  0  0  0  0  0  0  0  0  0  0
   -1.3432  -16.7398   -0.7962 H   0  0  0  0  0  0  0  0  0  0  0  0
   -3.2102  -17.3505    0.7219 H   0  0  0  0  0  0  0  0  0  0  0  0
   -3.8126  -15.8435    2.6115 H   0  0  0  0  0  0  0  0  0  0  0  0
   -2.5478  -13.7330    2.9678 H   0  0  0  0  0  0  0  0  0  0  0  0
  1  2  1  0
  2  3  1  0
  2  4  1  0
  4  5  1  0
  5  6  1  0
  6  7  1  0
  7  8  2  0
  7  9  1  0
  9 10  1  0
 10 11  2  0
 11 12  1  0
 12 13  2  0
 12 14  2  0
 12 15  1  0
 15 16  2  0
 16 17  1  0
 17 18  1  0
 18 19  1  0
 19 20  1  0
 17 21  2  0
 21 22  1  0
 22 23  2  0
 23 24  1  0
  9 25  2  0
 25 26  1  0
 25 27  1  0
 27 28  2  0
 28 29  1  0
 29 30  2  0
 30 31  1  0
 31 32  2  0
 32  6  1  0
 24 10  1  0
 32 27  1  0
 23 15  1  0
  1 33  1  0
  1 34  1  0
  1 35  1  0
  2 36  1  0
  3 37  1  0
  3 38  1  0
  3 39  1  0
  4 40  1  0
  4 41  1  0
  5 42  1  0
  5 43  1  0
 11 44  1  0
 16 45  1  0
 18 46  1  0
 18 47  1  0
 19 48  1  0
 19 49  1  0
 20 50  1  0
 20 51  1  0
 20 52  1  0
 21 53  1  0
 22 54  1  0
 24 55  1  0
 28 56  1  0
 29 57  1  0
 30 58  1  0
 31 59  1  0
M  CHG  3  11   1  20   1  26  -1
M  END
>  <meeko>  (9) 
{"is_sidechain": [false], "free_energy": -7.112, "intermolecular_energy": -10.058, "internal_energy": -1.214}

$$$$
