LIB_WVOIILLAZREIKO__M_PUB_ALL__e8__s20260927
     RDKit          3D

 41 42  0  0  0  0  0  0  0  0999 V2000
   12.5590   -8.0020   12.8490 O   0  0  0  0  0  0  0  0  0  0  0  0
   13.8040   -8.5710   12.3610 S   0  0  0  0  0  0  0  0  0  0  0  0
   13.9300   -8.9500   10.9670 O   0  0  0  0  0  0  0  0  0  0  0  0
   14.2550   -9.9770   13.3930 C   0  0  0  0  0  0  0  0  0  0  0  0
   13.5630  -11.2160   12.8710 C   0  0  0  0  0  0  0  0  0  0  0  0
   14.1940  -12.0350   11.9250 C   0  0  0  0  0  0  0  0  0  0  0  0
   13.5560  -13.1770   11.4360 C   0  0  0  0  0  0  0  0  0  0  0  0
   12.2750  -13.5250   11.8870 C   0  0  0  0  0  0  0  0  0  0  0  0
   11.5750  -14.7430   11.3410 C   0  0  0  0  0  0  0  0  0  0  0  0
   12.1440  -15.2230   10.1980 F   0  0  0  0  0  0  0  0  0  0  0  0
   11.5730  -15.7850   12.2180 F   0  0  0  0  0  0  0  0  0  0  0  0
   10.2660  -14.5190   11.0280 F   0  0  0  0  0  0  0  0  0  0  0  0
   11.6380  -12.6970   12.8240 C   0  0  0  0  0  0  0  0  0  0  0  0
   12.2780  -11.5560   13.3130 C   0  0  0  0  0  0  0  0  0  0  0  0
   15.0260   -7.4540   12.6910 N   0  0  0  0  0  0  0  0  0  0  0  0
   15.0210   -6.1990   11.9130 C   0  0  0  0  0  0  0  0  0  0  0  0
   16.1670   -6.2120   10.9000 C   0  0  0  0  0  0  0  0  0  0  0  0
   17.5740   -6.0440   11.4840 C   0  0  0  0  0  0  0  0  0  0  0  0
   18.4930   -7.2560   11.3410 C   0  0  0  0  0  0  0  0  0  0  0  0
   18.3720   -8.2110   12.4700 C   0  0  0  0  0  0  0  0  0  0  0  0
   18.9490   -8.1780   13.7270 C   0  0  0  0  0  0  0  0  0  0  0  0
   18.5660   -9.2870   14.3900 N   0  0  0  0  0  0  0  0  0  0  0  0
   17.8400  -10.0280   13.5370 C   0  0  0  0  0  0  0  0  0  0  0  0
   17.6100   -9.3340   12.3970 N   0  0  0  0  0  0  0  0  0  0  0  0
   15.3448  -10.1227   13.3612 H   0  0  0  0  0  0  0  0  0  0  0  0
   13.9449   -9.7890   14.4315 H   0  0  0  0  0  0  0  0  0  0  0  0
   15.2005  -11.7761   11.5645 H   0  0  0  0  0  0  0  0  0  0  0  0
   14.0625  -13.8084   10.6912 H   0  0  0  0  0  0  0  0  0  0  0  0
   10.6267  -12.9486   13.1761 H   0  0  0  0  0  0  0  0  0  0  0  0
   11.7688  -10.9191   14.0513 H   0  0  0  0  0  0  0  0  0  0  0  0
   15.0110   -7.2280   13.7240 H   0  0  0  0  0  0  0  0  0  0  0  0
   14.0636   -6.1038   11.3799 H   0  0  0  0  0  0  0  0  0  0  0  0
   15.1510   -5.3474   12.5971 H   0  0  0  0  0  0  0  0  0  0  0  0
   16.1353   -7.1735   10.3666 H   0  0  0  0  0  0  0  0  0  0  0  0
   16.0049   -5.3369   10.2536 H   0  0  0  0  0  0  0  0  0  0  0  0
   18.0526   -5.1936   10.9763 H   0  0  0  0  0  0  0  0  0  0  0  0
   17.4370   -5.8940   12.5651 H   0  0  0  0  0  0  0  0  0  0  0  0
   18.2382   -7.7812   10.4087 H   0  0  0  0  0  0  0  0  0  0  0  0
   19.5285   -6.8850   11.3331 H   0  0  0  0  0  0  0  0  0  0  0  0
   19.6051   -7.3858   14.1168 H   0  0  0  0  0  0  0  0  0  0  0  0
   17.4841  -11.0497   13.7354 H   0  0  0  0  0  0  0  0  0  0  0  0
  1  2  2  0
  2  3  2  0
  2  4  1  0
  4  5  1  0
  5  6  2  0
  6  7  1  0
  7  8  2  0
  8  9  1  0
  9 10  1  0
  9 11  1  0
  9 12  1  0
  8 13  1  0
 13 14  2  0
  2 15  1  0
 15 16  1  0
 16 17  1  0
 17 18  1  0
 18 19  1  0
 19 20  1  0
 20 21  2  0
 21 22  1  0
 22 23  1  0
 23 24  2  0
 14  5  1  0
 24 20  1  0
  4 25  1  0
  4 26  1  0
  6 27  1  0
  7 28  1  0
 13 29  1  0
 14 30  1  0
 15 31  1  0
 16 32  1  0
 16 33  1  0
 17 34  1  0
 17 35  1  0
 18 36  1  0
 18 37  1  0
 19 38  1  0
 19 39  1  0
 21 40  1  0
 23 41  1  0
M  CHG  1  22  -1
M  END
>  <meeko>  (1) 
{"is_sidechain": [false], "free_energy": -6.138, "intermolecular_energy": -9.368, "internal_energy": -1.017}

$$$$
LIB_WVOIILLAZREIKO__M_PUB_ALL__e8__s20260927
     RDKit          3D

 41 42  0  0  0  0  0  0  0  0999 V2000
   -2.7900  -15.5380   -0.1590 O   0  0  0  0  0  0  0  0  0  0  0  0
   -2.0380  -15.9790    1.0030 S   0  0  0  0  0  0  0  0  0  0  0  0
   -1.8530  -17.3960    1.2520 O   0  0  0  0  0  0  0  0  0  0  0  0
   -2.7270  -15.2100    2.4790 C   0  0  0  0  0  0  0  0  0  0  0  0
   -2.4210  -13.7290    2.4530 C   0  0  0  0  0  0  0  0  0  0  0  0
   -1.3780  -13.2070    3.2300 C   0  0  0  0  0  0  0  0  0  0  0  0
   -1.0970  -11.8390    3.2130 C   0  0  0  0  0  0  0  0  0  0  0  0
   -1.8490  -10.9660    2.4150 C   0  0  0  0  0  0  0  0  0  0  0  0
   -1.5630   -9.4870    2.4150 C   0  0  0  0  0  0  0  0  0  0  0  0
   -2.5100   -8.7560    1.7590 F   0  0  0  0  0  0  0  0  0  0  0  0
   -1.4990   -8.9640    3.6710 F   0  0  0  0  0  0  0  0  0  0  0  0
   -0.3790   -9.1660    1.8190 F   0  0  0  0  0  0  0  0  0  0  0  0
   -2.9010  -11.4890    1.6480 C   0  0  0  0  0  0  0  0  0  0  0  0
   -3.1820  -12.8560    1.6640 C   0  0  0  0  0  0  0  0  0  0  0  0
   -0.5030  -15.2830    0.8970 N   0  0  0  0  0  0  0  0  0  0  0  0
   -0.1390  -14.6460   -0.3840 C   0  0  0  0  0  0  0  0  0  0  0  0
    0.1030  -13.1510   -0.1690 C   0  0  0  0  0  0  0  0  0  0  0  0
    1.5260  -12.6580   -0.4580 C   0  0  0  0  0  0  0  0  0  0  0  0
    1.6250  -11.2650   -1.0750 C   0  0  0  0  0  0  0  0  0  0  0  0
    2.1330  -11.2840   -2.4690 C   0  0  0  0  0  0  0  0  0  0  0  0
    2.3100  -12.3460   -3.3360 C   0  0  0  0  0  0  0  0  0  0  0  0
    2.8310  -11.8670   -4.4820 N   0  0  0  0  0  0  0  0  0  0  0  0
    3.0500  -10.5540   -4.3000 C   0  0  0  0  0  0  0  0  0  0  0  0
    2.5210  -10.1540   -3.1190 N   0  0  0  0  0  0  0  0  0  0  0  0
   -3.8164  -15.3609    2.4988 H   0  0  0  0  0  0  0  0  0  0  0  0
   -2.2824  -15.6650    3.3764 H   0  0  0  0  0  0  0  0  0  0  0  0
   -0.7759  -13.8800    3.8582 H   0  0  0  0  0  0  0  0  0  0  0  0
   -0.2780  -11.4431    3.8315 H   0  0  0  0  0  0  0  0  0  0  0  0
   -3.5103  -10.8150    1.0279 H   0  0  0  0  0  0  0  0  0  0  0  0
   -4.0069  -13.2510    1.0528 H   0  0  0  0  0  0  0  0  0  0  0  0
   -0.3910  -14.5840    1.6820 H   0  0  0  0  0  0  0  0  0  0  0  0
    0.7773  -15.1116   -0.7760 H   0  0  0  0  0  0  0  0  0  0  0  0
   -0.9603  -14.7812   -1.1031 H   0  0  0  0  0  0  0  0  0  0  0  0
   -0.5854  -12.5995   -0.8262 H   0  0  0  0  0  0  0  0  0  0  0  0
   -0.0636  -12.9721    0.9035 H   0  0  0  0  0  0  0  0  0  0  0  0
    2.0811  -12.6485    0.4916 H   0  0  0  0  0  0  0  0  0  0  0  0
    1.9400  -13.3503   -1.2059 H   0  0  0  0  0  0  0  0  0  0  0  0
    0.6242  -10.8085   -1.0727 H   0  0  0  0  0  0  0  0  0  0  0  0
    2.3407  -10.6875   -0.4714 H   0  0  0  0  0  0  0  0  0  0  0  0
    2.0677  -13.3984   -3.1266 H   0  0  0  0  0  0  0  0  0  0  0  0
    3.5812   -9.8995   -5.0067 H   0  0  0  0  0  0  0  0  0  0  0  0
  1  2  2  0
  2  3  2  0
  2  4  1  0
  4  5  1  0
  5  6  2  0
  6  7  1  0
  7  8  2  0
  8  9  1  0
  9 10  1  0
  9 11  1  0
  9 12  1  0
  8 13  1  0
 13 14  2  0
  2 15  1  0
 15 16  1  0
 16 17  1  0
 17 18  1  0
 18 19  1  0
 19 20  1  0
 20 21  2  0
 21 22  1  0
 22 23  1  0
 23 24  2  0
 14  5  1  0
 24 20  1  0
  4 25  1  0
  4 26  1  0
  6 27  1  0
  7 28  1  0
 13 29  1  0
 14 30  1  0
 15 31  1  0
 16 32  1  0
 16 33  1  0
 17 34  1  0
 17 35  1  0
 18 36  1  0
 18 37  1  0
 19 38  1  0
 19 39  1  0
 21 40  1  0
 23 41  1  0
M  CHG  1  22  -1
M  END
>  <meeko>  (2) 
{"is_sidechain": [false], "free_energy": -6.136, "intermolecular_energy": -9.212, "internal_energy": -1.17}

$$$$
LIB_WVOIILLAZREIKO__M_PUB_ALL__e8__s20260927
     RDKit          3D

 41 42  0  0  0  0  0  0  0  0999 V2000
   13.4590  -10.3430   14.8560 O   0  0  0  0  0  0  0  0  0  0  0  0
   12.5790  -10.9340   13.8620 S   0  0  0  0  0  0  0  0  0  0  0  0
   11.9050  -12.1870   14.1430 O   0  0  0  0  0  0  0  0  0  0  0  0
   13.4670  -11.0840   12.3020 C   0  0  0  0  0  0  0  0  0  0  0  0
   14.3170   -9.8500   12.0970 C   0  0  0  0  0  0  0  0  0  0  0  0
   13.7690   -8.7010   11.5110 C   0  0  0  0  0  0  0  0  0  0  0  0
   14.5530   -7.5620   11.3150 C   0  0  0  0  0  0  0  0  0  0  0  0
   15.8990   -7.5470   11.7050 C   0  0  0  0  0  0  0  0  0  0  0  0
   16.7520   -6.3270   11.4710 C   0  0  0  0  0  0  0  0  0  0  0  0
   17.9690   -6.3970   12.0840 F   0  0  0  0  0  0  0  0  0  0  0  0
   17.0150   -6.1150   10.1520 F   0  0  0  0  0  0  0  0  0  0  0  0
   16.1820   -5.1740   11.9250 F   0  0  0  0  0  0  0  0  0  0  0  0
   16.4490   -8.7020   12.2800 C   0  0  0  0  0  0  0  0  0  0  0  0
   15.6650   -9.8410   12.4770 C   0  0  0  0  0  0  0  0  0  0  0  0
   11.3870   -9.7910   13.5100 N   0  0  0  0  0  0  0  0  0  0  0  0
   11.2400   -8.6590   14.4460 C   0  0  0  0  0  0  0  0  0  0  0  0
   10.3610   -7.5770   13.8170 C   0  0  0  0  0  0  0  0  0  0  0  0
    8.8870   -7.5870   14.2380 C   0  0  0  0  0  0  0  0  0  0  0  0
    8.0260   -6.4780   13.6380 C   0  0  0  0  0  0  0  0  0  0  0  0
    6.5730   -6.7730   13.7030 C   0  0  0  0  0  0  0  0  0  0  0  0
    5.9100   -7.8570   14.2480 C   0  0  0  0  0  0  0  0  0  0  0  0
    4.5910   -7.6910   14.0330 N   0  0  0  0  0  0  0  0  0  0  0  0
    4.4470   -6.5740   13.3000 C   0  0  0  0  0  0  0  0  0  0  0  0
    5.6350   -5.9340   13.1890 N   0  0  0  0  0  0  0  0  0  0  0  0
   14.1114  -11.9751   12.3290 H   0  0  0  0  0  0  0  0  0  0  0  0
   12.7491  -11.1817   11.4743 H   0  0  0  0  0  0  0  0  0  0  0  0
   12.7130   -8.6962   11.2030 H   0  0  0  0  0  0  0  0  0  0  0  0
   14.1101   -6.6687   10.8504 H   0  0  0  0  0  0  0  0  0  0  0  0
   17.5077   -8.7109   12.5786 H   0  0  0  0  0  0  0  0  0  0  0  0
   16.1095  -10.7375   12.9339 H   0  0  0  0  0  0  0  0  0  0  0  0
   11.5490   -9.4200   12.5320 H   0  0  0  0  0  0  0  0  0  0  0  0
   10.7731   -9.0132   15.3769 H   0  0  0  0  0  0  0  0  0  0  0  0
   12.2324   -8.2383   14.6656 H   0  0  0  0  0  0  0  0  0  0  0  0
   10.7832   -6.5985   14.0895 H   0  0  0  0  0  0  0  0  0  0  0  0
   10.3644   -7.7803   12.7360 H   0  0  0  0  0  0  0  0  0  0  0  0
    8.4547   -8.5526   13.9367 H   0  0  0  0  0  0  0  0  0  0  0  0
    8.8816   -7.4196   15.3252 H   0  0  0  0  0  0  0  0  0  0  0  0
    8.2196   -5.5464   14.1899 H   0  0  0  0  0  0  0  0  0  0  0  0
    8.2967   -6.3895   12.5755 H   0  0  0  0  0  0  0  0  0  0  0  0
    6.3782   -8.7066   14.7666 H   0  0  0  0  0  0  0  0  0  0  0  0
    3.5018   -6.2298   12.8550 H   0  0  0  0  0  0  0  0  0  0  0  0
  1  2  2  0
  2  3  2  0
  2  4  1  0
  4  5  1  0
  5  6  2  0
  6  7  1  0
  7  8  2  0
  8  9  1  0
  9 10  1  0
  9 11  1  0
  9 12  1  0
  8 13  1  0
 13 14  2  0
  2 15  1  0
 15 16  1  0
 16 17  1  0
 17 18  1  0
 18 19  1  0
 19 20  1  0
 20 21  2  0
 21 22  1  0
 22 23  1  0
 23 24  2  0
 14  5  1  0
 24 20  1  0
  4 25  1  0
  4 26  1  0
  6 27  1  0
  7 28  1  0
 13 29  1  0
 14 30  1  0
 15 31  1  0
 16 32  1  0
 16 33  1  0
 17 34  1  0
 17 35  1  0
 18 36  1  0
 18 37  1  0
 19 38  1  0
 19 39  1  0
 21 40  1  0
 23 41  1  0
M  CHG  1  22  -1
M  END
>  <meeko>  (3) 
{"is_sidechain": [false], "free_energy": -6.018, "intermolecular_energy": -9.699, "internal_energy": -0.503}

$$$$
LIB_WVOIILLAZREIKO__M_PUB_ALL__e8__s20260927
     RDKit          3D

 41 42  0  0  0  0  0  0  0  0999 V2000
   -1.3010  -14.4390   -0.2480 O   0  0  0  0  0  0  0  0  0  0  0  0
   -1.8940  -15.5800    0.4280 S   0  0  0  0  0  0  0  0  0  0  0  0
   -2.8900  -16.3870   -0.2510 O   0  0  0  0  0  0  0  0  0  0  0  0
   -2.5550  -15.0480    2.0170 C   0  0  0  0  0  0  0  0  0  0  0  0
   -2.2990  -13.5680    2.1880 C   0  0  0  0  0  0  0  0  0  0  0  0
   -1.1830  -13.1200    2.9080 C   0  0  0  0  0  0  0  0  0  0  0  0
   -0.9460  -11.7540    3.0730 C   0  0  0  0  0  0  0  0  0  0  0  0
   -1.8180  -10.8070    2.5170 C   0  0  0  0  0  0  0  0  0  0  0  0
   -1.5770   -9.3330    2.7160 C   0  0  0  0  0  0  0  0  0  0  0  0
   -2.5160   -8.5490    2.1110 F   0  0  0  0  0  0  0  0  0  0  0  0
   -1.5850   -8.9710    4.0290 F   0  0  0  0  0  0  0  0  0  0  0  0
   -0.3780   -8.9100    2.2220 F   0  0  0  0  0  0  0  0  0  0  0  0
   -2.9410  -11.2570    1.8070 C   0  0  0  0  0  0  0  0  0  0  0  0
   -3.1780  -12.6230    1.6420 C   0  0  0  0  0  0  0  0  0  0  0  0
   -0.6310  -16.6090    0.8710 N   0  0  0  0  0  0  0  0  0  0  0  0
    0.7030  -16.0010    1.0520 C   0  0  0  0  0  0  0  0  0  0  0  0
    1.3550  -16.5520    2.3200 C   0  0  0  0  0  0  0  0  0  0  0  0
    0.5530  -16.3720    3.6150 C   0  0  0  0  0  0  0  0  0  0  0  0
    0.0910  -17.6650    4.2840 C   0  0  0  0  0  0  0  0  0  0  0  0
   -1.3800  -17.8520    4.2260 C   0  0  0  0  0  0  0  0  0  0  0  0
   -2.3470  -17.5870    5.1780 C   0  0  0  0  0  0  0  0  0  0  0  0
   -3.5410  -17.9560    4.6740 N   0  0  0  0  0  0  0  0  0  0  0  0
   -3.3090  -18.5140    3.4740 C   0  0  0  0  0  0  0  0  0  0  0  0
   -2.0090  -18.3540    3.1300 N   0  0  0  0  0  0  0  0  0  0  0  0
   -3.6375  -15.2408    2.0489 H   0  0  0  0  0  0  0  0  0  0  0  0
   -2.0640  -15.6055    2.8283 H   0  0  0  0  0  0  0  0  0  0  0  0
   -0.4879  -13.8509    3.3468 H   0  0  0  0  0  0  0  0  0  0  0  0
   -0.0679  -11.4179    3.6439 H   0  0  0  0  0  0  0  0  0  0  0  0
   -3.6416  -10.5266    1.3761 H   0  0  0  0  0  0  0  0  0  0  0  0
   -4.0611  -12.9599    1.0793 H   0  0  0  0  0  0  0  0  0  0  0  0
   -0.9040  -17.1250    1.7520 H   0  0  0  0  0  0  0  0  0  0  0  0
    1.3342  -16.2399    0.1833 H   0  0  0  0  0  0  0  0  0  0  0  0
    0.5957  -14.9100    1.1432 H   0  0  0  0  0  0  0  0  0  0  0  0
    1.5216  -17.6293    2.1731 H   0  0  0  0  0  0  0  0  0  0  0  0
    2.2790  -15.9712    2.4575 H   0  0  0  0  0  0  0  0  0  0  0  0
    1.1837  -15.8256    4.3317 H   0  0  0  0  0  0  0  0  0  0  0  0
   -0.3631  -15.8329    3.3320 H   0  0  0  0  0  0  0  0  0  0  0  0
    0.5729  -18.5140    3.7771 H   0  0  0  0  0  0  0  0  0  0  0  0
    0.3746  -17.6070    5.3452 H   0  0  0  0  0  0  0  0  0  0  0  0
   -2.1722  -17.1512    6.1728 H   0  0  0  0  0  0  0  0  0  0  0  0
   -4.0648  -19.0261    2.8604 H   0  0  0  0  0  0  0  0  0  0  0  0
  1  2  2  0
  2  3  2  0
  2  4  1  0
  4  5  1  0
  5  6  2  0
  6  7  1  0
  7  8  2  0
  8  9  1  0
  9 10  1  0
  9 11  1  0
  9 12  1  0
  8 13  1  0
 13 14  2  0
  2 15  1  0
 15 16  1  0
 16 17  1  0
 17 18  1  0
 18 19  1  0
 19 20  1  0
 20 21  2  0
 21 22  1  0
 22 23  1  0
 23 24  2  0
 14  5  1  0
 24 20  1  0
  4 25  1  0
  4 26  1  0
  6 27  1  0
  7 28  1  0
 13 29  1  0
 14 30  1  0
 15 31  1  0
 16 32  1  0
 16 33  1  0
 17 34  1  0
 17 35  1  0
 18 36  1  0
 18 37  1  0
 19 38  1  0
 19 39  1  0
 21 40  1  0
 23 41  1  0
M  CHG  1  22  -1
M  END
>  <meeko>  (4) 
{"is_sidechain": [false], "free_energy": -5.851, "intermolecular_energy": -8.481, "internal_energy": -1.466}

$$$$
LIB_WVOIILLAZREIKO__M_PUB_ALL__e8__s20260927
     RDKit          3D

 41 42  0  0  0  0  0  0  0  0999 V2000
   12.3870   -7.9470   12.9870 O   0  0  0  0  0  0  0  0  0  0  0  0
   13.6350   -8.2590   12.3120 S   0  0  0  0  0  0  0  0  0  0  0  0
   13.6470   -8.4930   10.8800 O   0  0  0  0  0  0  0  0  0  0  0  0
   14.4220   -9.6520   13.1390 C   0  0  0  0  0  0  0  0  0  0  0  0
   13.7310  -10.9300   12.7210 C   0  0  0  0  0  0  0  0  0  0  0  0
   14.3130  -11.7680   11.7610 C   0  0  0  0  0  0  0  0  0  0  0  0
   13.6750  -12.9470   11.3680 C   0  0  0  0  0  0  0  0  0  0  0  0
   12.4440  -13.3130   11.9310 C   0  0  0  0  0  0  0  0  0  0  0  0
   11.7430  -14.5710   11.4890 C   0  0  0  0  0  0  0  0  0  0  0  0
   12.2790  -15.1170   10.3590 F   0  0  0  0  0  0  0  0  0  0  0  0
   11.7860  -15.5550   12.4300 F   0  0  0  0  0  0  0  0  0  0  0  0
   10.4210  -14.3840   11.2090 F   0  0  0  0  0  0  0  0  0  0  0  0
   11.8570  -12.4660   12.8820 C   0  0  0  0  0  0  0  0  0  0  0  0
   12.4960  -11.2880   13.2760 C   0  0  0  0  0  0  0  0  0  0  0  0
   14.7000   -6.9860   12.6210 N   0  0  0  0  0  0  0  0  0  0  0  0
   15.4460   -6.4350   11.4720 C   0  0  0  0  0  0  0  0  0  0  0  0
   16.8660   -7.0030   11.4560 C   0  0  0  0  0  0  0  0  0  0  0  0
   17.9490   -6.1080   12.0690 C   0  0  0  0  0  0  0  0  0  0  0  0
   19.3880   -6.5450   11.8030 C   0  0  0  0  0  0  0  0  0  0  0  0
   20.0430   -5.7600   10.7280 C   0  0  0  0  0  0  0  0  0  0  0  0
   20.5810   -6.1780    9.5250 C   0  0  0  0  0  0  0  0  0  0  0  0
   21.0940   -5.1000    8.9000 N   0  0  0  0  0  0  0  0  0  0  0  0
   20.9530   -4.0550    9.7330 C   0  0  0  0  0  0  0  0  0  0  0  0
   20.2070   -4.4130   10.8060 N   0  0  0  0  0  0  0  0  0  0  0  0
   15.4837   -9.6973   12.8547 H   0  0  0  0  0  0  0  0  0  0  0  0
   14.3440   -9.5280   14.2292 H   0  0  0  0  0  0  0  0  0  0  0  0
   15.2800  -11.4955   11.3131 H   0  0  0  0  0  0  0  0  0  0  0  0
   14.1422  -13.5936   10.6106 H   0  0  0  0  0  0  0  0  0  0  0  0
   10.8844  -12.7317   13.3218 H   0  0  0  0  0  0  0  0  0  0  0  0
   12.0258  -10.6368   14.0276 H   0  0  0  0  0  0  0  0  0  0  0  0
   14.1700   -6.2070   13.1020 H   0  0  0  0  0  0  0  0  0  0  0  0
   14.9327   -6.7084   10.5383 H   0  0  0  0  0  0  0  0  0  0  0  0
   15.4939   -5.3397   11.5615 H   0  0  0  0  0  0  0  0  0  0  0  0
   16.8565   -7.9514   12.0132 H   0  0  0  0  0  0  0  0  0  0  0  0
   17.1329   -7.1108   10.3943 H   0  0  0  0  0  0  0  0  0  0  0  0
   17.8216   -5.0940   11.6622 H   0  0  0  0  0  0  0  0  0  0  0  0
   17.8106   -6.1678   13.1586 H   0  0  0  0  0  0  0  0  0  0  0  0
   19.9683   -6.4229   12.7295 H   0  0  0  0  0  0  0  0  0  0  0  0
   19.3576   -7.5938   11.4726 H   0  0  0  0  0  0  0  0  0  0  0  0
   20.5889   -7.2101    9.1445 H   0  0  0  0  0  0  0  0  0  0  0  0
   21.3807   -3.0551    9.5679 H   0  0  0  0  0  0  0  0  0  0  0  0
  1  2  2  0
  2  3  2  0
  2  4  1  0
  4  5  1  0
  5  6  2  0
  6  7  1  0
  7  8  2  0
  8  9  1  0
  9 10  1  0
  9 11  1  0
  9 12  1  0
  8 13  1  0
 13 14  2  0
  2 15  1  0
 15 16  1  0
 16 17  1  0
 17 18  1  0
 18 19  1  0
 19 20  1  0
 20 21  2  0
 21 22  1  0
 22 23  1  0
 23 24  2  0
 14  5  1  0
 24 20  1  0
  4 25  1  0
  4 26  1  0
  6 27  1  0
  7 28  1  0
 13 29  1  0
 14 30  1  0
 15 31  1  0
 16 32  1  0
 16 33  1  0
 17 34  1  0
 17 35  1  0
 18 36  1  0
 18 37  1  0
 19 38  1  0
 19 39  1  0
 21 40  1  0
 23 41  1  0
M  CHG  1  22  -1
M  END
>  <meeko>  (5) 
{"is_sidechain": [false], "free_energy": -5.799, "intermolecular_energy": -9.302, "internal_energy": -0.565}

$$$$
LIB_WVOIILLAZREIKO__M_PUB_ALL__e8__s20260927
     RDKit          3D

 41 42  0  0  0  0  0  0  0  0999 V2000
   16.6100   -9.6470   13.2360 O   0  0  0  0  0  0  0  0  0  0  0  0
   15.4440   -9.2050   13.9830 S   0  0  0  0  0  0  0  0  0  0  0  0
   15.0690   -9.8850   15.2090 O   0  0  0  0  0  0  0  0  0  0  0  0
   14.0210   -9.1550   12.8810 C   0  0  0  0  0  0  0  0  0  0  0  0
   13.5670  -10.5690   12.5950 C   0  0  0  0  0  0  0  0  0  0  0  0
   14.2480  -11.3550   11.6560 C   0  0  0  0  0  0  0  0  0  0  0  0
   13.8280  -12.6600   11.3850 C   0  0  0  0  0  0  0  0  0  0  0  0
   12.7230  -13.2050   12.0510 C   0  0  0  0  0  0  0  0  0  0  0  0
   12.2540  -14.6030   11.7410 C   0  0  0  0  0  0  0  0  0  0  0  0
   10.9350  -14.8050   12.0290 F   0  0  0  0  0  0  0  0  0  0  0  0
   12.3970  -14.9260   10.4250 F   0  0  0  0  0  0  0  0  0  0  0  0
   12.9280  -15.5660   12.4340 F   0  0  0  0  0  0  0  0  0  0  0  0
   12.0340  -12.4130   12.9820 C   0  0  0  0  0  0  0  0  0  0  0  0
   12.4540  -11.1090   13.2530 C   0  0  0  0  0  0  0  0  0  0  0  0
   15.6840   -7.5780   14.3640 N   0  0  0  0  0  0  0  0  0  0  0  0
   14.7720   -6.5980   13.7430 C   0  0  0  0  0  0  0  0  0  0  0  0
   15.5350   -5.3140   13.4160 C   0  0  0  0  0  0  0  0  0  0  0  0
   15.7200   -5.0100   11.9250 C   0  0  0  0  0  0  0  0  0  0  0  0
   16.0930   -6.2070   11.0530 C   0  0  0  0  0  0  0  0  0  0  0  0
   17.5490   -6.4920   11.0530 C   0  0  0  0  0  0  0  0  0  0  0  0
   18.4680   -6.4230   10.0230 C   0  0  0  0  0  0  0  0  0  0  0  0
   19.6660   -6.8100   10.5040 N   0  0  0  0  0  0  0  0  0  0  0  0
   19.4760   -7.1890   11.7790 C   0  0  0  0  0  0  0  0  0  0  0  0
   18.2140   -6.8920   12.1700 N   0  0  0  0  0  0  0  0  0  0  0  0
   13.2038   -8.5954   13.3597 H   0  0  0  0  0  0  0  0  0  0  0  0
   14.2981   -8.6572   11.9401 H   0  0  0  0  0  0  0  0  0  0  0  0
   15.1200  -10.9416   11.1280 H   0  0  0  0  0  0  0  0  0  0  0  0
   14.3698  -13.2642   10.6424 H   0  0  0  0  0  0  0  0  0  0  0  0
   11.1558  -12.8226   13.5027 H   0  0  0  0  0  0  0  0  0  0  0  0
   11.9069  -10.5011   13.9886 H   0  0  0  0  0  0  0  0  0  0  0  0
   15.6570   -7.4670   15.4160 H   0  0  0  0  0  0  0  0  0  0  0  0
   14.3567   -7.0218   12.8168 H   0  0  0  0  0  0  0  0  0  0  0  0
   13.9562   -6.3668   14.4437 H   0  0  0  0  0  0  0  0  0  0  0  0
   14.9886   -4.4725   13.8669 H   0  0  0  0  0  0  0  0  0  0  0  0
   16.5481   -5.4571   13.8200 H   0  0  0  0  0  0  0  0  0  0  0  0
   14.7757   -4.5939   11.5439 H   0  0  0  0  0  0  0  0  0  0  0  0
   16.5685   -4.3129   11.8612 H   0  0  0  0  0  0  0  0  0  0  0  0
   15.5621   -7.0939   11.4292 H   0  0  0  0  0  0  0  0  0  0  0  0
   15.8049   -5.9641   10.0195 H   0  0  0  0  0  0  0  0  0  0  0  0
   18.2581   -6.1072    8.9904 H   0  0  0  0  0  0  0  0  0  0  0  0
   20.2351   -7.6705   12.4129 H   0  0  0  0  0  0  0  0  0  0  0  0
  1  2  2  0
  2  3  2  0
  2  4  1  0
  4  5  1  0
  5  6  2  0
  6  7  1  0
  7  8  2  0
  8  9  1  0
  9 10  1  0
  9 11  1  0
  9 12  1  0
  8 13  1  0
 13 14  2  0
  2 15  1  0
 15 16  1  0
 16 17  1  0
 17 18  1  0
 18 19  1  0
 19 20  1  0
 20 21  2  0
 21 22  1  0
 22 23  1  0
 23 24  2  0
 14  5  1  0
 24 20  1  0
  4 25  1  0
  4 26  1  0
  6 27  1  0
  7 28  1  0
 13 29  1  0
 14 30  1  0
 15 31  1  0
 16 32  1  0
 16 33  1  0
 17 34  1  0
 17 35  1  0
 18 36  1  0
 18 37  1  0
 19 38  1  0
 19 39  1  0
 21 40  1  0
 23 41  1  0
M  CHG  1  22  -1
M  END
>  <meeko>  (6) 
{"is_sidechain": [false], "free_energy": -5.791, "intermolecular_energy": -8.926, "internal_energy": -0.929}

$$$$
LIB_WVOIILLAZREIKO__M_PUB_ALL__e8__s20260927
     RDKit          3D

 41 42  0  0  0  0  0  0  0  0999 V2000
    6.1310  -12.8600   -3.8650 O   0  0  0  0  0  0  0  0  0  0  0  0
    6.6620  -12.4390   -2.5800 S   0  0  0  0  0  0  0  0  0  0  0  0
    7.3160  -11.1510   -2.4530 O   0  0  0  0  0  0  0  0  0  0  0  0
    7.7600  -13.7190   -1.9470 C   0  0  0  0  0  0  0  0  0  0  0  0
    9.0800  -13.0910   -1.5600 C   0  0  0  0  0  0  0  0  0  0  0  0
   10.0670  -12.8620   -2.5280 C   0  0  0  0  0  0  0  0  0  0  0  0
   11.2900  -12.2870   -2.1740 C   0  0  0  0  0  0  0  0  0  0  0  0
   11.5480  -11.9250   -0.8450 C   0  0  0  0  0  0  0  0  0  0  0  0
   12.8750  -11.3280   -0.4570 C   0  0  0  0  0  0  0  0  0  0  0  0
   12.7650  -10.0830    0.0930 F   0  0  0  0  0  0  0  0  0  0  0  0
   13.5410  -12.0790    0.4640 F   0  0  0  0  0  0  0  0  0  0  0  0
   13.7320  -11.1850   -1.5090 F   0  0  0  0  0  0  0  0  0  0  0  0
   10.5630  -12.1650    0.1260 C   0  0  0  0  0  0  0  0  0  0  0  0
    9.3410  -12.7400   -0.2290 C   0  0  0  0  0  0  0  0  0  0  0  0
    5.3810  -12.4630   -1.4800 N   0  0  0  0  0  0  0  0  0  0  0  0
    5.3070  -13.6120   -0.5550 C   0  0  0  0  0  0  0  0  0  0  0  0
    5.3140  -13.1140    0.8910 C   0  0  0  0  0  0  0  0  0  0  0  0
    6.2350  -11.9230    1.1820 C   0  0  0  0  0  0  0  0  0  0  0  0
    5.5520  -10.7000    1.7910 C   0  0  0  0  0  0  0  0  0  0  0  0
    6.3910   -9.4770    1.7280 C   0  0  0  0  0  0  0  0  0  0  0  0
    7.4520   -9.1690    0.8970 C   0  0  0  0  0  0  0  0  0  0  0  0
    7.9140   -7.9520    1.2440 N   0  0  0  0  0  0  0  0  0  0  0  0
    7.2120   -7.5530    2.3170 C   0  0  0  0  0  0  0  0  0  0  0  0
    6.1970   -8.4170    2.5570 N   0  0  0  0  0  0  0  0  0  0  0  0
    7.3043  -14.1920   -1.0646 H   0  0  0  0  0  0  0  0  0  0  0  0
    7.9255  -14.4820   -2.7219 H   0  0  0  0  0  0  0  0  0  0  0  0
    9.8771  -13.1374   -3.5759 H   0  0  0  0  0  0  0  0  0  0  0  0
   12.0565  -12.1171   -2.9445 H   0  0  0  0  0  0  0  0  0  0  0  0
   10.7554  -11.8978    1.1756 H   0  0  0  0  0  0  0  0  0  0  0  0
    8.5774  -12.9187    0.5423 H   0  0  0  0  0  0  0  0  0  0  0  0
    5.3930  -11.5640   -0.9230 H   0  0  0  0  0  0  0  0  0  0  0  0
    4.3800  -14.1734   -0.7434 H   0  0  0  0  0  0  0  0  0  0  0  0
    6.1761  -14.2662   -0.7181 H   0  0  0  0  0  0  0  0  0  0  0  0
    4.2870  -12.8179    1.1510 H   0  0  0  0  0  0  0  0  0  0  0  0
    5.7049  -13.9480    1.4924 H   0  0  0  0  0  0  0  0  0  0  0  0
    7.0145  -12.2597    1.8813 H   0  0  0  0  0  0  0  0  0  0  0  0
    6.6265  -11.5973    0.2070 H   0  0  0  0  0  0  0  0  0  0  0  0
    4.6164  -10.5120    1.2439 H   0  0  0  0  0  0  0  0  0  0  0  0
    5.3689  -10.9196    2.8532 H   0  0  0  0  0  0  0  0  0  0  0  0
    7.8494   -9.8061    0.0932 H   0  0  0  0  0  0  0  0  0  0  0  0
    7.4296   -6.6552    2.9141 H   0  0  0  0  0  0  0  0  0  0  0  0
  1  2  2  0
  2  3  2  0
  2  4  1  0
  4  5  1  0
  5  6  2  0
  6  7  1  0
  7  8  2  0
  8  9  1  0
  9 10  1  0
  9 11  1  0
  9 12  1  0
  8 13  1  0
 13 14  2  0
  2 15  1  0
 15 16  1  0
 16 17  1  0
 17 18  1  0
 18 19  1  0
 19 20  1  0
 20 21  2  0
 21 22  1  0
 22 23  1  0
 23 24  2  0
 14  5  1  0
 24 20  1  0
  4 25  1  0
  4 26  1  0
  6 27  1  0
  7 28  1  0
 13 29  1  0
 14 30  1  0
 15 31  1  0
 16 32  1  0
 16 33  1  0
 17 34  1  0
 17 35  1  0
 18 36  1  0
 18 37  1  0
 19 38  1  0
 19 39  1  0
 21 40  1  0
 23 41  1  0
M  CHG  1  22  -1
M  END
>  <meeko>  (7) 
{"is_sidechain": [false], "free_energy": -5.783, "intermolecular_energy": -8.734, "internal_energy": -1.108}

$$$$
LIB_WVOIILLAZREIKO__M_PUB_ALL__e8__s20260927
     RDKit          3D

 41 42  0  0  0  0  0  0  0  0999 V2000
   -1.5870  -16.9010    0.3540 O   0  0  0  0  0  0  0  0  0  0  0  0
   -1.7530  -17.1040    1.7840 S   0  0  0  0  0  0  0  0  0  0  0  0
   -1.8780  -18.4480    2.3150 O   0  0  0  0  0  0  0  0  0  0  0  0
   -3.1390  -16.1120    2.3650 C   0  0  0  0  0  0  0  0  0  0  0  0
   -3.0020  -14.7070    1.8240 C   0  0  0  0  0  0  0  0  0  0  0  0
   -2.4890  -13.6840    2.6330 C   0  0  0  0  0  0  0  0  0  0  0  0
   -2.3660  -12.3830    2.1390 C   0  0  0  0  0  0  0  0  0  0  0  0
   -2.7490  -12.0800    0.8250 C   0  0  0  0  0  0  0  0  0  0  0  0
   -2.6410  -10.6720    0.3000 C   0  0  0  0  0  0  0  0  0  0  0  0
   -1.4140  -10.3880   -0.2260 F   0  0  0  0  0  0  0  0  0  0  0  0
   -3.5360  -10.4110   -0.6920 F   0  0  0  0  0  0  0  0  0  0  0  0
   -2.8570   -9.7210    1.2540 F   0  0  0  0  0  0  0  0  0  0  0  0
   -3.2750  -13.1030    0.0210 C   0  0  0  0  0  0  0  0  0  0  0  0
   -3.3970  -14.4030    0.5150 C   0  0  0  0  0  0  0  0  0  0  0  0
   -0.4290  -16.3840    2.5450 N   0  0  0  0  0  0  0  0  0  0  0  0
    0.7260  -16.0280    1.6970 C   0  0  0  0  0  0  0  0  0  0  0  0
    1.2010  -14.6140    2.0370 C   0  0  0  0  0  0  0  0  0  0  0  0
    0.9310  -13.5460    0.9710 C   0  0  0  0  0  0  0  0  0  0  0  0
    0.3330  -14.0610   -0.3370 C   0  0  0  0  0  0  0  0  0  0  0  0
    1.3130  -14.0890   -1.4500 C   0  0  0  0  0  0  0  0  0  0  0  0
    1.1720  -14.5480   -2.7470 C   0  0  0  0  0  0  0  0  0  0  0  0
    2.3530  -14.3940   -3.3760 N   0  0  0  0  0  0  0  0  0  0  0  0
    3.2270  -13.9280   -2.4670 C   0  0  0  0  0  0  0  0  0  0  0  0
    2.5830  -13.6240   -1.3160 N   0  0  0  0  0  0  0  0  0  0  0  0
   -4.0822  -16.5531    2.0102 H   0  0  0  0  0  0  0  0  0  0  0  0
   -3.1422  -16.0873    3.4647 H   0  0  0  0  0  0  0  0  0  0  0  0
   -2.1808  -13.9072    3.6651 H   0  0  0  0  0  0  0  0  0  0  0  0
   -1.9651  -11.5895    2.7868 H   0  0  0  0  0  0  0  0  0  0  0  0
   -3.5940  -12.8785   -1.0075 H   0  0  0  0  0  0  0  0  0  0  0  0
   -3.8067  -15.1951   -0.1290 H   0  0  0  0  0  0  0  0  0  0  0  0
   -0.7610  -15.5260    3.0670 H   0  0  0  0  0  0  0  0  0  0  0  0
    1.5442  -16.7412    1.8759 H   0  0  0  0  0  0  0  0  0  0  0  0
    0.4261  -16.0664    0.6394 H   0  0  0  0  0  0  0  0  0  0  0  0
    0.6962  -14.3018    2.9632 H   0  0  0  0  0  0  0  0  0  0  0  0
    2.2956  -14.6791    2.1246 H   0  0  0  0  0  0  0  0  0  0  0  0
    0.2326  -12.8106    1.3969 H   0  0  0  0  0  0  0  0  0  0  0  0
    1.9127  -13.1242    0.7096 H   0  0  0  0  0  0  0  0  0  0  0  0
   -0.0411  -15.0824   -0.1734 H   0  0  0  0  0  0  0  0  0  0  0  0
   -0.4730  -13.3702   -0.6252 H   0  0  0  0  0  0  0  0  0  0  0  0
    0.2551  -14.9660   -3.1880 H   0  0  0  0  0  0  0  0  0  0  0  0
    4.3079  -13.8109   -2.6343 H   0  0  0  0  0  0  0  0  0  0  0  0
  1  2  2  0
  2  3  2  0
  2  4  1  0
  4  5  1  0
  5  6  2  0
  6  7  1  0
  7  8  2  0
  8  9  1  0
  9 10  1  0
  9 11  1  0
  9 12  1  0
  8 13  1  0
 13 14  2  0
  2 15  1  0
 15 16  1  0
 16 17  1  0
 17 18  1  0
 18 19  1  0
 19 20  1  0
 20 21  2  0
 21 22  1  0
 22 23  1  0
 23 24  2  0
 14  5  1  0
 24 20  1  0
  4 25  1  0
  4 26  1  0
  6 27  1  0
  7 28  1  0
 13 29  1  0
 14 30  1  0
 15 31  1  0
 16 32  1  0
 16 33  1  0
 17 34  1  0
 17 35  1  0
 18 36  1  0
 18 37  1  0
 19 38  1  0
 19 39  1  0
 21 40  1  0
 23 41  1  0
M  CHG  1  22  -1
M  END
>  <meeko>  (8) 
{"is_sidechain": [false], "free_energy": -5.726, "intermolecular_energy": -8.007, "internal_energy": -1.75}

$$$$
LIB_WVOIILLAZREIKO__M_PUB_ALL__e8__s20260927
     RDKit          3D

 41 42  0  0  0  0  0  0  0  0999 V2000
    7.6660  -13.5860   -0.8030 O   0  0  0  0  0  0  0  0  0  0  0  0
    7.2200  -13.1610    0.5130 S   0  0  0  0  0  0  0  0  0  0  0  0
    6.6660  -14.1310    1.4390 O   0  0  0  0  0  0  0  0  0  0  0  0
    6.0590  -11.7970    0.3310 C   0  0  0  0  0  0  0  0  0  0  0  0
    5.1580  -12.0680   -0.8530 C   0  0  0  0  0  0  0  0  0  0  0  0
    4.0840  -12.9610   -0.7360 C   0  0  0  0  0  0  0  0  0  0  0  0
    3.2540  -13.2190   -1.8290 C   0  0  0  0  0  0  0  0  0  0  0  0
    3.4780  -12.5850   -3.0600 C   0  0  0  0  0  0  0  0  0  0  0  0
    2.5980  -12.8820   -4.2460 C   0  0  0  0  0  0  0  0  0  0  0  0
    2.1790  -11.7590   -4.8990 F   0  0  0  0  0  0  0  0  0  0  0  0
    3.2230  -13.6430   -5.1870 F   0  0  0  0  0  0  0  0  0  0  0  0
    1.4590  -13.5580   -3.9190 F   0  0  0  0  0  0  0  0  0  0  0  0
    4.5610  -11.7020   -3.1780 C   0  0  0  0  0  0  0  0  0  0  0  0
    5.3910  -11.4440   -2.0850 C   0  0  0  0  0  0  0  0  0  0  0  0
    8.5390  -12.4350    1.2770 N   0  0  0  0  0  0  0  0  0  0  0  0
    9.6220  -11.9250    0.4120 C   0  0  0  0  0  0  0  0  0  0  0  0
   10.9490  -11.9540    1.1720 C   0  0  0  0  0  0  0  0  0  0  0  0
   12.1500  -12.5060    0.3940 C   0  0  0  0  0  0  0  0  0  0  0  0
   12.9230  -11.4800   -0.4320 C   0  0  0  0  0  0  0  0  0  0  0  0
   12.9570  -11.8090   -1.8780 C   0  0  0  0  0  0  0  0  0  0  0  0
   13.8590  -11.4280   -2.8540 C   0  0  0  0  0  0  0  0  0  0  0  0
   13.4510  -11.9510   -4.0270 N   0  0  0  0  0  0  0  0  0  0  0  0
   12.2810  -12.5700   -3.7980 C   0  0  0  0  0  0  0  0  0  0  0  0
   12.0210  -12.5960   -2.4700 N   0  0  0  0  0  0  0  0  0  0  0  0
    5.4511  -11.7066    1.2433 H   0  0  0  0  0  0  0  0  0  0  0  0
    6.6113  -10.8596    0.1692 H   0  0  0  0  0  0  0  0  0  0  0  0
    3.8934  -13.4625    0.2243 H   0  0  0  0  0  0  0  0  0  0  0  0
    2.4174  -13.9254   -1.7237 H   0  0  0  0  0  0  0  0  0  0  0  0
    4.7586  -11.2079   -4.1407 H   0  0  0  0  0  0  0  0  0  0  0  0
    6.2340  -10.7455   -2.1925 H   0  0  0  0  0  0  0  0  0  0  0  0
    8.1860  -11.6540    1.8970 H   0  0  0  0  0  0  0  0  0  0  0  0
    9.7010  -12.5567   -0.4851 H   0  0  0  0  0  0  0  0  0  0  0  0
    9.3946  -10.8898    0.1174 H   0  0  0  0  0  0  0  0  0  0  0  0
   11.1874  -10.9238    1.4750 H   0  0  0  0  0  0  0  0  0  0  0  0
   10.7961  -12.6434    2.0154 H   0  0  0  0  0  0  0  0  0  0  0  0
   12.8469  -12.9533    1.1181 H   0  0  0  0  0  0  0  0  0  0  0  0
   11.7383  -13.2275   -0.3271 H   0  0  0  0  0  0  0  0  0  0  0  0
   12.4451  -10.4972   -0.3070 H   0  0  0  0  0  0  0  0  0  0  0  0
   13.9615  -11.4799   -0.0695 H   0  0  0  0  0  0  0  0  0  0  0  0
   14.7534  -10.8065   -2.7000 H   0  0  0  0  0  0  0  0  0  0  0  0
   11.6293  -12.9939   -4.5762 H   0  0  0  0  0  0  0  0  0  0  0  0
  1  2  2  0
  2  3  2  0
  2  4  1  0
  4  5  1  0
  5  6  2  0
  6  7  1  0
  7  8  2  0
  8  9  1  0
  9 10  1  0
  9 11  1  0
  9 12  1  0
  8 13  1  0
 13 14  2  0
  2 15  1  0
 15 16  1  0
 16 17  1  0
 17 18  1  0
 18 19  1  0
 19 20  1  0
 20 21  2  0
 21 22  1  0
 22 23  1  0
 23 24  2  0
 14  5  1  0
 24 20  1  0
  4 25  1  0
  4 26  1  0
  6 27  1  0
  7 28  1  0
 13 29  1  0
 14 30  1  0
 15 31  1  0
 16 32  1  0
 16 33  1  0
 17 34  1  0
 17 35  1  0
 18 36  1  0
 18 37  1  0
 19 38  1  0
 19 39  1  0
 21 40  1  0
 23 41  1  0
M  CHG  1  22  -1
M  END
>  <meeko>  (9) 
{"is_sidechain": [false], "free_energy": -5.723, "intermolecular_energy": -9.08, "internal_energy": -0.671}

$$$$
