LIB_KYBJEPGFZBUXMW__M_PUB_ALL__e8__s20260927
     RDKit          3D

 48 52  0  0  0  0  0  0  0  0999 V2000
   -7.9300  -15.3720    7.7010 C   0  0  0  0  0  0  0  0  0  0  0  0
   -7.6570  -16.4020    6.6020 C   0  0  0  0  0  0  0  0  0  0  0  0
   -8.9660  -16.8150    5.9250 C   0  0  0  0  0  0  0  0  0  0  0  0
   -7.1350  -17.5850    7.2180 O   0  0  0  0  0  0  0  0  0  0  0  0
   -6.6300  -15.8790    5.6140 C   0  0  0  0  0  0  0  0  0  0  0  0
   -6.6850  -14.7400    4.8330 C   0  0  0  0  0  0  0  0  0  0  0  0
   -5.5210  -14.5470    4.0340 C   0  0  0  0  0  0  0  0  0  0  0  0
   -5.3490  -13.5180    3.1780 N   0  0  0  0  0  0  0  0  0  0  0  0
   -4.2120  -13.5280    2.4830 C   0  0  0  0  0  0  0  0  0  0  0  0
   -3.9410  -12.4450    1.5310 C   0  0  0  0  0  0  0  0  0  0  0  0
   -4.6530  -12.2920    0.3110 C   0  0  0  0  0  0  0  0  0  0  0  0
   -4.3890  -11.2550   -0.5970 C   0  0  0  0  0  0  0  0  0  0  0  0
   -3.4020  -10.3060   -0.3360 C   0  0  0  0  0  0  0  0  0  0  0  0
   -2.6820  -10.4170    0.8630 C   0  0  0  0  0  0  0  0  0  0  0  0
   -1.6940   -9.6250    1.3370 N   0  0  0  0  0  0  0  0  0  0  0  0
   -1.3150  -10.1140    2.5350 N   0  0  0  0  0  0  0  0  0  0  0  0
   -2.0750  -11.1980    2.7650 C   0  0  0  0  0  0  0  0  0  0  0  0
   -2.9630  -11.4640    1.7510 C   0  0  0  0  0  0  0  0  0  0  0  0
   -3.2370  -14.4550    2.6230 N   0  0  0  0  0  0  0  0  0  0  0  0
   -3.3680  -15.4710    3.5070 C   0  0  0  0  0  0  0  0  0  0  0  0
   -2.3370  -16.4030    3.6240 N   0  0  0  0  0  0  0  0  0  0  0  0
   -1.5940  -16.3800    4.8910 C   0  0  0  0  0  0  0  0  0  0  0  0
   -0.6670  -17.6040    4.9660 C   0  0  0  0  0  0  0  0  0  0  0  0
    0.2110  -17.6800    3.8310 O   0  0  0  0  0  0  0  0  0  0  0  0
   -0.5570  -17.7630    2.6170 C   0  0  0  0  0  0  0  0  0  0  0  0
   -1.4760  -16.5460    2.4400 C   0  0  0  0  0  0  0  0  0  0  0  0
   -4.5680  -15.5340    4.2310 C   0  0  0  0  0  0  0  0  0  0  0  0
   -5.1350  -16.6940    5.3720 S   0  0  0  0  0  0  0  0  0  0  0  0
   -7.8046  -15.8450    8.6862 H   0  0  0  0  0  0  0  0  0  0  0  0
   -7.2226  -14.5353    7.6033 H   0  0  0  0  0  0  0  0  0  0  0  0
   -8.9589  -14.9955    7.6033 H   0  0  0  0  0  0  0  0  0  0  0  0
   -9.7171  -17.0520    6.6929 H   0  0  0  0  0  0  0  0  0  0  0  0
   -9.3311  -15.9884    5.2978 H   0  0  0  0  0  0  0  0  0  0  0  0
   -8.7906  -17.7015    5.2978 H   0  0  0  0  0  0  0  0  0  0  0  0
   -6.3120  -17.8070    6.7490 H   0  0  0  0  0  0  0  0  0  0  0  0
   -7.5423  -14.0508    4.8286 H   0  0  0  0  0  0  0  0  0  0  0  0
   -5.4442  -13.0166    0.0680 H   0  0  0  0  0  0  0  0  0  0  0  0
   -4.9698  -11.1901   -1.5289 H   0  0  0  0  0  0  0  0  0  0  0  0
   -3.1939   -9.4944   -1.0487 H   0  0  0  0  0  0  0  0  0  0  0  0
   -1.9942  -11.8113    3.6746 H   0  0  0  0  0  0  0  0  0  0  0  0
   -0.9923  -15.4608    4.9461 H   0  0  0  0  0  0  0  0  0  0  0  0
   -2.3031  -16.4061    5.7315 H   0  0  0  0  0  0  0  0  0  0  0  0
   -0.0605  -17.5355    5.8811 H   0  0  0  0  0  0  0  0  0  0  0  0
   -1.2944  -18.5075    4.9735 H   0  0  0  0  0  0  0  0  0  0  0  0
    0.1330  -17.8156    1.7619 H   0  0  0  0  0  0  0  0  0  0  0  0
   -1.1875  -18.6627    2.6719 H   0  0  0  0  0  0  0  0  0  0  0  0
   -0.8645  -15.6395    2.3202 H   0  0  0  0  0  0  0  0  0  0  0  0
   -2.1025  -16.6875    1.5470 H   0  0  0  0  0  0  0  0  0  0  0  0
  1  2  1  0
  2  3  1  0
  2  4  1  0
  2  5  1  0
  5  6  2  0
  6  7  1  0
  7  8  2  0
  8  9  1  0
  9 10  1  0
 10 11  2  0
 11 12  1  0
 12 13  2  0
 13 14  1  0
 14 15  1  0
 15 16  1  0
 16 17  2  0
 17 18  1  0
  9 19  2  0
 19 20  1  0
 20 21  1  0
 21 22  1  0
 22 23  1  0
 23 24  1  0
 24 25  1  0
 25 26  1  0
 20 27  2  0
 27 28  1  0
 28  5  1  0
 27  7  1  0
 18 10  1  0
 26 21  1  0
 18 14  2  0
  1 29  1  0
  1 30  1  0
  1 31  1  0
  3 32  1  0
  3 33  1  0
  3 34  1  0
  4 35  1  0
  6 36  1  0
 11 37  1  0
 12 38  1  0
 13 39  1  0
 17 40  1  0
 22 41  1  0
 22 42  1  0
 23 43  1  0
 23 44  1  0
 25 45  1  0
 25 46  1  0
 26 47  1  0
 26 48  1  0
M  CHG  1  15  -1
M  END
>  <meeko>  (1) 
{"is_sidechain": [false], "free_energy": -8.034, "intermolecular_energy": -9.677, "internal_energy": -0.649}

$$$$
LIB_KYBJEPGFZBUXMW__M_PUB_ALL__e8__s20260927
     RDKit          3D

 48 52  0  0  0  0  0  0  0  0999 V2000
   -2.4070   -9.5410    1.0850 C   0  0  0  0  0  0  0  0  0  0  0  0
   -1.1510   -9.9910    1.8360 C   0  0  0  0  0  0  0  0  0  0  0  0
   -1.5350  -10.6730    3.1500 C   0  0  0  0  0  0  0  0  0  0  0  0
   -0.4020   -8.8240    2.1940 O   0  0  0  0  0  0  0  0  0  0  0  0
   -0.2820  -10.8710    0.9550 C   0  0  0  0  0  0  0  0  0  0  0  0
    0.5470  -10.5010   -0.0860 C   0  0  0  0  0  0  0  0  0  0  0  0
    1.2360  -11.5990   -0.6780 C   0  0  0  0  0  0  0  0  0  0  0  0
    2.0850  -11.4900   -1.7200 N   0  0  0  0  0  0  0  0  0  0  0  0
    2.6030  -12.6350   -2.1660 C   0  0  0  0  0  0  0  0  0  0  0  0
    3.5390  -12.6090   -3.2960 C   0  0  0  0  0  0  0  0  0  0  0  0
    3.1590  -12.9420   -4.6230 C   0  0  0  0  0  0  0  0  0  0  0  0
    4.0590  -12.9170   -5.7000 C   0  0  0  0  0  0  0  0  0  0  0  0
    5.3910  -12.5520   -5.5140 C   0  0  0  0  0  0  0  0  0  0  0  0
    5.8050  -12.2080   -4.2180 C   0  0  0  0  0  0  0  0  0  0  0  0
    7.0270  -11.8180   -3.7920 N   0  0  0  0  0  0  0  0  0  0  0  0
    6.9440  -11.5790   -2.4670 N   0  0  0  0  0  0  0  0  0  0  0  0
    5.6730  -11.8330   -2.1110 C   0  0  0  0  0  0  0  0  0  0  0  0
    4.8870  -12.2430   -3.1600 C   0  0  0  0  0  0  0  0  0  0  0  0
    2.3660  -13.8470   -1.6170 N   0  0  0  0  0  0  0  0  0  0  0  0
    1.5520  -13.9760   -0.5430 C   0  0  0  0  0  0  0  0  0  0  0  0
    1.3390  -15.2430   -0.0030 N   0  0  0  0  0  0  0  0  0  0  0  0
    2.2210  -15.6230    1.1090 C   0  0  0  0  0  0  0  0  0  0  0  0
    1.7110  -16.9250    1.7470 C   0  0  0  0  0  0  0  0  0  0  0  0
    1.5850  -17.9810    0.7800 O   0  0  0  0  0  0  0  0  0  0  0  0
    0.6670  -17.5930   -0.2580 C   0  0  0  0  0  0  0  0  0  0  0  0
    1.1320  -16.3210   -0.9830 C   0  0  0  0  0  0  0  0  0  0  0  0
    0.9440  -12.8060   -0.0630 C   0  0  0  0  0  0  0  0  0  0  0  0
   -0.1920  -12.5700    1.2100 S   0  0  0  0  0  0  0  0  0  0  0  0
   -3.1867   -9.2616    1.8089 H   0  0  0  0  0  0  0  0  0  0  0  0
   -2.1654   -8.6735    0.4533 H   0  0  0  0  0  0  0  0  0  0  0  0
   -2.7713  -10.3645    0.4533 H   0  0  0  0  0  0  0  0  0  0  0  0
   -1.1899  -10.0601    3.9957 H   0  0  0  0  0  0  0  0  0  0  0  0
   -2.6283  -10.7840    3.1997 H   0  0  0  0  0  0  0  0  0  0  0  0
   -1.0630  -11.6654    3.1997 H   0  0  0  0  0  0  0  0  0  0  0  0
   -0.0670   -8.4390    1.3660 H   0  0  0  0  0  0  0  0  0  0  0  0
    0.6639   -9.4610   -0.4248 H   0  0  0  0  0  0  0  0  0  0  0  0
    2.1154  -13.2318   -4.8152 H   0  0  0  0  0  0  0  0  0  0  0  0
    3.7075  -13.1897   -6.7060 H   0  0  0  0  0  0  0  0  0  0  0  0
    6.0966  -12.5341   -6.3577 H   0  0  0  0  0  0  0  0  0  0  0  0
    5.2996  -11.7234   -1.0821 H   0  0  0  0  0  0  0  0  0  0  0  0
    3.2425  -15.7759    0.7307 H   0  0  0  0  0  0  0  0  0  0  0  0
    2.2248  -14.8225    1.8634 H   0  0  0  0  0  0  0  0  0  0  0  0
    2.4192  -17.2399    2.5276 H   0  0  0  0  0  0  0  0  0  0  0  0
    0.7150  -16.7300    2.1712 H   0  0  0  0  0  0  0  0  0  0  0  0
    0.5891  -18.4114   -0.9889 H   0  0  0  0  0  0  0  0  0  0  0  0
   -0.3079  -17.3850    0.2072 H   0  0  0  0  0  0  0  0  0  0  0  0
    2.0764  -16.5239   -1.5092 H   0  0  0  0  0  0  0  0  0  0  0  0
    0.3652  -16.0129   -1.7090 H   0  0  0  0  0  0  0  0  0  0  0  0
  1  2  1  0
  2  3  1  0
  2  4  1  0
  2  5  1  0
  5  6  2  0
  6  7  1  0
  7  8  2  0
  8  9  1  0
  9 10  1  0
 10 11  2  0
 11 12  1  0
 12 13  2  0
 13 14  1  0
 14 15  1  0
 15 16  1  0
 16 17  2  0
 17 18  1  0
  9 19  2  0
 19 20  1  0
 20 21  1  0
 21 22  1  0
 22 23  1  0
 23 24  1  0
 24 25  1  0
 25 26  1  0
 20 27  2  0
 27 28  1  0
 28  5  1  0
 27  7  1  0
 18 10  1  0
 26 21  1  0
 18 14  2  0
  1 29  1  0
  1 30  1  0
  1 31  1  0
  3 32  1  0
  3 33  1  0
  3 34  1  0
  4 35  1  0
  6 36  1  0
 11 37  1  0
 12 38  1  0
 13 39  1  0
 17 40  1  0
 22 41  1  0
 22 42  1  0
 23 43  1  0
 23 44  1  0
 25 45  1  0
 25 46  1  0
 26 47  1  0
 26 48  1  0
M  CHG  1  15  -1
M  END
>  <meeko>  (2) 
{"is_sidechain": [false], "free_energy": -7.559, "intermolecular_energy": -8.964, "internal_energy": -0.79}

$$$$
LIB_KYBJEPGFZBUXMW__M_PUB_ALL__e8__s20260927
     RDKit          3D

 48 52  0  0  0  0  0  0  0  0999 V2000
    2.5730  -12.0410   -4.5890 C   0  0  0  0  0  0  0  0  0  0  0  0
    3.1280  -11.3570   -3.3370 C   0  0  0  0  0  0  0  0  0  0  0  0
    2.0940  -11.3930   -2.2100 C   0  0  0  0  0  0  0  0  0  0  0  0
    3.3420   -9.9740   -3.6410 O   0  0  0  0  0  0  0  0  0  0  0  0
    4.4550  -11.9720   -2.9300 C   0  0  0  0  0  0  0  0  0  0  0  0
    5.6020  -11.3390   -2.4890 C   0  0  0  0  0  0  0  0  0  0  0  0
    6.6580  -12.2400   -2.1690 C   0  0  0  0  0  0  0  0  0  0  0  0
    7.8780  -11.8590   -1.7370 N   0  0  0  0  0  0  0  0  0  0  0  0
    8.7510  -12.8440   -1.5290 C   0  0  0  0  0  0  0  0  0  0  0  0
   10.1020  -12.5200   -1.0550 C   0  0  0  0  0  0  0  0  0  0  0  0
   10.4570  -12.5090    0.3200 C   0  0  0  0  0  0  0  0  0  0  0  0
   11.7500  -12.1970    0.7680 C   0  0  0  0  0  0  0  0  0  0  0  0
   12.7660  -11.8830   -0.1340 C   0  0  0  0  0  0  0  0  0  0  0  0
   12.4570  -11.8910   -1.5020 C   0  0  0  0  0  0  0  0  0  0  0  0
   13.2630  -11.6300   -2.5560 N   0  0  0  0  0  0  0  0  0  0  0  0
   12.5300  -11.7740   -3.6790 N   0  0  0  0  0  0  0  0  0  0  0  0
   11.2910  -12.1150   -3.2870 C   0  0  0  0  0  0  0  0  0  0  0  0
   11.1580  -12.2030   -1.9230 C   0  0  0  0  0  0  0  0  0  0  0  0
    8.4730  -14.1590   -1.6780 N   0  0  0  0  0  0  0  0  0  0  0  0
    7.2420  -14.5680   -2.0680 C   0  0  0  0  0  0  0  0  0  0  0  0
    6.9950  -15.9330   -2.2030 N   0  0  0  0  0  0  0  0  0  0  0  0
    7.6540  -16.8050   -1.2220 C   0  0  0  0  0  0  0  0  0  0  0  0
    7.0990  -18.2320   -1.3480 C   0  0  0  0  0  0  0  0  0  0  0  0
    7.2270  -18.7400   -2.6860 O   0  0  0  0  0  0  0  0  0  0  0  0
    6.5170  -17.8930   -3.6070 C   0  0  0  0  0  0  0  0  0  0  0  0
    7.0480  -16.4520   -3.5790 C   0  0  0  0  0  0  0  0  0  0  0  0
    6.2980  -13.5670   -2.3450 C   0  0  0  0  0  0  0  0  0  0  0  0
    4.6810  -13.6780   -2.9280 S   0  0  0  0  0  0  0  0  0  0  0  0
    1.9056  -12.8635   -4.2921 H   0  0  0  0  0  0  0  0  0  0  0  0
    2.0098  -11.3096   -5.1873 H   0  0  0  0  0  0  0  0  0  0  0  0
    3.4047  -12.4414   -5.1873 H   0  0  0  0  0  0  0  0  0  0  0  0
    2.6097  -11.3750   -1.2385 H   0  0  0  0  0  0  0  0  0  0  0  0
    1.4332  -10.5173   -2.2906 H   0  0  0  0  0  0  0  0  0  0  0  0
    1.4957  -12.3125   -2.2906 H   0  0  0  0  0  0  0  0  0  0  0  0
    4.2990   -9.8580   -3.7710 H   0  0  0  0  0  0  0  0  0  0  0  0
    5.6906  -10.2467   -2.3944 H   0  0  0  0  0  0  0  0  0  0  0  0
    9.6863  -12.7553    1.0652 H   0  0  0  0  0  0  0  0  0  0  0  0
   11.9651  -12.2002    1.8468 H   0  0  0  0  0  0  0  0  0  0  0  0
   13.7790  -11.6365    0.2167 H   0  0  0  0  0  0  0  0  0  0  0  0
   10.4654  -12.3048   -3.9887 H   0  0  0  0  0  0  0  0  0  0  0  0
    8.7376  -16.8154   -1.4108 H   0  0  0  0  0  0  0  0  0  0  0  0
    7.4612  -16.4257   -0.2076 H   0  0  0  0  0  0  0  0  0  0  0  0
    7.6527  -18.8908   -0.6629 H   0  0  0  0  0  0  0  0  0  0  0  0
    6.0290  -18.2055   -1.0941 H   0  0  0  0  0  0  0  0  0  0  0  0
    6.6332  -18.2960   -4.6239 H   0  0  0  0  0  0  0  0  0  0  0  0
    5.4583  -17.8740   -3.3089 H   0  0  0  0  0  0  0  0  0  0  0  0
    8.0885  -16.4383   -3.9356 H   0  0  0  0  0  0  0  0  0  0  0  0
    6.4267  -15.8210   -4.2316 H   0  0  0  0  0  0  0  0  0  0  0  0
  1  2  1  0
  2  3  1  0
  2  4  1  0
  2  5  1  0
  5  6  2  0
  6  7  1  0
  7  8  2  0
  8  9  1  0
  9 10  1  0
 10 11  2  0
 11 12  1  0
 12 13  2  0
 13 14  1  0
 14 15  1  0
 15 16  1  0
 16 17  2  0
 17 18  1  0
  9 19  2  0
 19 20  1  0
 20 21  1  0
 21 22  1  0
 22 23  1  0
 23 24  1  0
 24 25  1  0
 25 26  1  0
 20 27  2  0
 27 28  1  0
 28  5  1  0
 27  7  1  0
 18 10  1  0
 26 21  1  0
 18 14  2  0
  1 29  1  0
  1 30  1  0
  1 31  1  0
  3 32  1  0
  3 33  1  0
  3 34  1  0
  4 35  1  0
  6 36  1  0
 11 37  1  0
 12 38  1  0
 13 39  1  0
 17 40  1  0
 22 41  1  0
 22 42  1  0
 23 43  1  0
 23 44  1  0
 25 45  1  0
 25 46  1  0
 26 47  1  0
 26 48  1  0
M  CHG  1  15  -1
M  END
>  <meeko>  (3) 
{"is_sidechain": [false], "free_energy": -7.383, "intermolecular_energy": -8.784, "internal_energy": -0.759}

$$$$
LIB_KYBJEPGFZBUXMW__M_PUB_ALL__e8__s20260927
     RDKit          3D

 48 52  0  0  0  0  0  0  0  0999 V2000
    2.2650  -12.4900   -4.1150 C   0  0  0  0  0  0  0  0  0  0  0  0
    2.9230  -11.4840   -3.1670 C   0  0  0  0  0  0  0  0  0  0  0  0
    1.9340  -11.0490   -2.0850 C   0  0  0  0  0  0  0  0  0  0  0  0
    3.2410  -10.3050   -3.9170 O   0  0  0  0  0  0  0  0  0  0  0  0
    4.2080  -12.0490   -2.5890 C   0  0  0  0  0  0  0  0  0  0  0  0
    5.4200  -11.4130   -2.3930 C   0  0  0  0  0  0  0  0  0  0  0  0
    6.4080  -12.2520   -1.7990 C   0  0  0  0  0  0  0  0  0  0  0  0
    7.6710  -11.8630   -1.5280 N   0  0  0  0  0  0  0  0  0  0  0  0
    8.4660  -12.7990   -1.0110 C   0  0  0  0  0  0  0  0  0  0  0  0
    9.8560  -12.4620   -0.6820 C   0  0  0  0  0  0  0  0  0  0  0  0
   10.3220  -12.3190    0.6520 C   0  0  0  0  0  0  0  0  0  0  0  0
   11.6530  -11.9950    0.9600 C   0  0  0  0  0  0  0  0  0  0  0  0
   12.5960  -11.8000   -0.0470 C   0  0  0  0  0  0  0  0  0  0  0  0
   12.1770  -11.9410   -1.3780 C   0  0  0  0  0  0  0  0  0  0  0  0
   12.8980  -11.8100   -2.5150 N   0  0  0  0  0  0  0  0  0  0  0  0
   12.0740  -12.0510   -3.5550 N   0  0  0  0  0  0  0  0  0  0  0  0
   10.8650  -12.3180   -3.0320 C   0  0  0  0  0  0  0  0  0  0  0  0
   10.8420  -12.2620   -1.6590 C   0  0  0  0  0  0  0  0  0  0  0  0
    8.0720  -14.0570   -0.7110 N   0  0  0  0  0  0  0  0  0  0  0  0
    6.7980  -14.4580   -0.9330 C   0  0  0  0  0  0  0  0  0  0  0  0
    6.4320  -15.7620   -0.6050 N   0  0  0  0  0  0  0  0  0  0  0  0
    5.8010  -15.9380    0.7100 C   0  0  0  0  0  0  0  0  0  0  0  0
    5.2410  -17.3650    0.8240 C   0  0  0  0  0  0  0  0  0  0  0  0
    6.2500  -18.3570    0.5770 O   0  0  0  0  0  0  0  0  0  0  0  0
    6.7990  -18.1870   -0.7420 C   0  0  0  0  0  0  0  0  0  0  0  0
    7.4270  -16.7970   -0.9230 C   0  0  0  0  0  0  0  0  0  0  0  0
    5.9320  -13.5230   -1.5200 C   0  0  0  0  0  0  0  0  0  0  0  0
    4.2900  -13.6710   -2.0210 S   0  0  0  0  0  0  0  0  0  0  0  0
    1.7559  -13.2684   -3.5277 H   0  0  0  0  0  0  0  0  0  0  0  0
    1.5315  -11.9706   -4.7492 H   0  0  0  0  0  0  0  0  0  0  0  0
    3.0348  -12.9539   -4.7492 H   0  0  0  0  0  0  0  0  0  0  0  0
    2.3686  -11.2402   -1.0927 H   0  0  0  0  0  0  0  0  0  0  0  0
    1.7226   -9.9748   -2.1919 H   0  0  0  0  0  0  0  0  0  0  0  0
    0.9994  -11.6191   -2.1919 H   0  0  0  0  0  0  0  0  0  0  0  0
    2.9590  -10.4700   -4.8330 H   0  0  0  0  0  0  0  0  0  0  0  0
    5.6037  -10.3639   -2.6680 H   0  0  0  0  0  0  0  0  0  0  0  0
    9.6109  -12.4682    1.4779 H   0  0  0  0  0  0  0  0  0  0  0  0
   11.9560  -11.8935    2.0126 H   0  0  0  0  0  0  0  0  0  0  0  0
   13.6379  -11.5431    0.1947 H   0  0  0  0  0  0  0  0  0  0  0  0
    9.9817  -12.5575   -3.6423 H   0  0  0  0  0  0  0  0  0  0  0  0
    6.5484  -15.7734    1.5001 H   0  0  0  0  0  0  0  0  0  0  0  0
    4.9815  -15.2129    0.8230 H   0  0  0  0  0  0  0  0  0  0  0  0
    4.8403  -17.5100    1.8381 H   0  0  0  0  0  0  0  0  0  0  0  0
    4.4529  -17.4838    0.0659 H   0  0  0  0  0  0  0  0  0  0  0  0
    7.5725  -18.9515   -0.9071 H   0  0  0  0  0  0  0  0  0  0  0  0
    5.9802  -18.2899   -1.4693 H   0  0  0  0  0  0  0  0  0  0  0  0
    8.2903  -16.6945   -0.2490 H   0  0  0  0  0  0  0  0  0  0  0  0
    7.7580  -16.6781   -1.9653 H   0  0  0  0  0  0  0  0  0  0  0  0
  1  2  1  0
  2  3  1  0
  2  4  1  0
  2  5  1  0
  5  6  2  0
  6  7  1  0
  7  8  2  0
  8  9  1  0
  9 10  1  0
 10 11  2  0
 11 12  1  0
 12 13  2  0
 13 14  1  0
 14 15  1  0
 15 16  1  0
 16 17  2  0
 17 18  1  0
  9 19  2  0
 19 20  1  0
 20 21  1  0
 21 22  1  0
 22 23  1  0
 23 24  1  0
 24 25  1  0
 25 26  1  0
 20 27  2  0
 27 28  1  0
 28  5  1  0
 27  7  1  0
 18 10  1  0
 26 21  1  0
 18 14  2  0
  1 29  1  0
  1 30  1  0
  1 31  1  0
  3 32  1  0
  3 33  1  0
  3 34  1  0
  4 35  1  0
  6 36  1  0
 11 37  1  0
 12 38  1  0
 13 39  1  0
 17 40  1  0
 22 41  1  0
 22 42  1  0
 23 43  1  0
 23 44  1  0
 25 45  1  0
 25 46  1  0
 26 47  1  0
 26 48  1  0
M  CHG  1  15  -1
M  END
>  <meeko>  (4) 
{"is_sidechain": [false], "free_energy": -7.348, "intermolecular_energy": -8.741, "internal_energy": -0.76}

$$$$
LIB_KYBJEPGFZBUXMW__M_PUB_ALL__e8__s20260927
     RDKit          3D

 48 52  0  0  0  0  0  0  0  0999 V2000
   12.4590  -12.8860   -1.6840 C   0  0  0  0  0  0  0  0  0  0  0  0
   12.2190  -12.7650   -3.1900 C   0  0  0  0  0  0  0  0  0  0  0  0
   13.1050  -13.7550   -3.9500 C   0  0  0  0  0  0  0  0  0  0  0  0
   12.6340  -11.4580   -3.6050 O   0  0  0  0  0  0  0  0  0  0  0  0
   10.7470  -12.9310   -3.5180 C   0  0  0  0  0  0  0  0  0  0  0  0
    9.6760  -12.1640   -3.0990 C   0  0  0  0  0  0  0  0  0  0  0  0
    8.4260  -12.6010   -3.6270 C   0  0  0  0  0  0  0  0  0  0  0  0
    7.2400  -12.0230   -3.3480 N   0  0  0  0  0  0  0  0  0  0  0  0
    6.1730  -12.5970   -3.9020 C   0  0  0  0  0  0  0  0  0  0  0  0
    4.8410  -12.0330   -3.6530 C   0  0  0  0  0  0  0  0  0  0  0  0
    4.0880  -11.3590   -4.6520 C   0  0  0  0  0  0  0  0  0  0  0  0
    2.8150  -10.8200   -4.4070 C   0  0  0  0  0  0  0  0  0  0  0  0
    2.2190  -10.9270   -3.1520 C   0  0  0  0  0  0  0  0  0  0  0  0
    2.9270  -11.5930   -2.1410 C   0  0  0  0  0  0  0  0  0  0  0  0
    2.5610  -11.8290   -0.8610 N   0  0  0  0  0  0  0  0  0  0  0  0
    3.5580  -12.5170   -0.2680 N   0  0  0  0  0  0  0  0  0  0  0  0
    4.5150  -12.6820   -1.1970 C   0  0  0  0  0  0  0  0  0  0  0  0
    4.1970  -12.1200   -2.4100 C   0  0  0  0  0  0  0  0  0  0  0  0
    6.2220  -13.6590   -4.7370 N   0  0  0  0  0  0  0  0  0  0  0  0
    7.4050  -14.2280   -5.0680 C   0  0  0  0  0  0  0  0  0  0  0  0
    7.4120  -15.3180   -5.9370 N   0  0  0  0  0  0  0  0  0  0  0  0
    7.1190  -15.0160   -7.3450 C   0  0  0  0  0  0  0  0  0  0  0  0
    7.4010  -16.2590   -8.2060 C   0  0  0  0  0  0  0  0  0  0  0  0
    6.6730  -17.4070   -7.7420 O   0  0  0  0  0  0  0  0  0  0  0  0
    7.0350  -17.7050   -6.3810 C   0  0  0  0  0  0  0  0  0  0  0  0
    6.7360  -16.5260   -5.4420 C   0  0  0  0  0  0  0  0  0  0  0  0
    8.5570  -13.6900   -4.4740 C   0  0  0  0  0  0  0  0  0  0  0  0
   10.2070  -14.1740   -4.5790 S   0  0  0  0  0  0  0  0  0  0  0  0
   11.6049  -12.4554   -1.1408 H   0  0  0  0  0  0  0  0  0  0  0  0
   12.5680  -13.9468   -1.4141 H   0  0  0  0  0  0  0  0  0  0  0  0
   13.3767  -12.3428   -1.4141 H   0  0  0  0  0  0  0  0  0  0  0  0
   13.6607  -14.3759   -3.2319 H   0  0  0  0  0  0  0  0  0  0  0  0
   12.4763  -14.3993   -4.5822 H   0  0  0  0  0  0  0  0  0  0  0  0
   13.8148  -13.2013   -4.5822 H   0  0  0  0  0  0  0  0  0  0  0  0
   12.0030  -10.8270   -3.2170 H   0  0  0  0  0  0  0  0  0  0  0  0
    9.7782  -11.3012   -2.4244 H   0  0  0  0  0  0  0  0  0  0  0  0
    4.5201  -11.2553   -5.6583 H   0  0  0  0  0  0  0  0  0  0  0  0
    2.2797  -10.3052   -5.2184 H   0  0  0  0  0  0  0  0  0  0  0  0
    1.2229  -10.5018   -2.9600 H   0  0  0  0  0  0  0  0  0  0  0  0
    5.4587  -13.2138   -1.0055 H   0  0  0  0  0  0  0  0  0  0  0  0
    6.0611  -14.7321   -7.4465 H   0  0  0  0  0  0  0  0  0  0  0  0
    7.7560  -14.1848   -7.6817 H   0  0  0  0  0  0  0  0  0  0  0  0
    7.1066  -16.0468   -9.2444 H   0  0  0  0  0  0  0  0  0  0  0  0
    8.4753  -16.4853   -8.1373 H   0  0  0  0  0  0  0  0  0  0  0  0
    6.4638  -18.5826   -6.0442 H   0  0  0  0  0  0  0  0  0  0  0  0
    8.1166  -17.9027   -6.3494 H   0  0  0  0  0  0  0  0  0  0  0  0
    5.6506  -16.3506   -5.4087 H   0  0  0  0  0  0  0  0  0  0  0  0
    7.1019  -16.7615   -4.4317 H   0  0  0  0  0  0  0  0  0  0  0  0
  1  2  1  0
  2  3  1  0
  2  4  1  0
  2  5  1  0
  5  6  2  0
  6  7  1  0
  7  8  2  0
  8  9  1  0
  9 10  1  0
 10 11  2  0
 11 12  1  0
 12 13  2  0
 13 14  1  0
 14 15  1  0
 15 16  1  0
 16 17  2  0
 17 18  1  0
  9 19  2  0
 19 20  1  0
 20 21  1  0
 21 22  1  0
 22 23  1  0
 23 24  1  0
 24 25  1  0
 25 26  1  0
 20 27  2  0
 27 28  1  0
 28  5  1  0
 27  7  1  0
 18 10  1  0
 26 21  1  0
 18 14  2  0
  1 29  1  0
  1 30  1  0
  1 31  1  0
  3 32  1  0
  3 33  1  0
  3 34  1  0
  4 35  1  0
  6 36  1  0
 11 37  1  0
 12 38  1  0
 13 39  1  0
 17 40  1  0
 22 41  1  0
 22 42  1  0
 23 43  1  0
 23 44  1  0
 25 45  1  0
 25 46  1  0
 26 47  1  0
 26 48  1  0
M  CHG  1  15  -1
M  END
>  <meeko>  (5) 
{"is_sidechain": [false], "free_energy": -7.277, "intermolecular_energy": -8.656, "internal_energy": -0.759}

$$$$
LIB_KYBJEPGFZBUXMW__M_PUB_ALL__e8__s20260927
     RDKit          3D

 48 52  0  0  0  0  0  0  0  0999 V2000
   12.2290  -13.1150    0.5430 C   0  0  0  0  0  0  0  0  0  0  0  0
   12.0820  -12.2390   -0.7040 C   0  0  0  0  0  0  0  0  0  0  0  0
   13.0550  -11.0590   -0.6400 C   0  0  0  0  0  0  0  0  0  0  0  0
   10.7660  -11.6730   -0.7000 O   0  0  0  0  0  0  0  0  0  0  0  0
   12.2500  -13.0640   -1.9670 C   0  0  0  0  0  0  0  0  0  0  0  0
   12.6120  -12.6430   -3.2320 C   0  0  0  0  0  0  0  0  0  0  0  0
   12.6950  -13.7050   -4.1790 C   0  0  0  0  0  0  0  0  0  0  0  0
   13.0110  -13.5400   -5.4800 N   0  0  0  0  0  0  0  0  0  0  0  0
   12.9970  -14.6460   -6.2230 C   0  0  0  0  0  0  0  0  0  0  0  0
   13.3310  -14.5590   -7.6490 C   0  0  0  0  0  0  0  0  0  0  0  0
   12.4400  -14.0290   -8.6220 C   0  0  0  0  0  0  0  0  0  0  0  0
   12.7650  -13.9490   -9.9850 C   0  0  0  0  0  0  0  0  0  0  0  0
   14.0020  -14.3890  -10.4550 C   0  0  0  0  0  0  0  0  0  0  0  0
   14.9130  -14.9100   -9.5250 C   0  0  0  0  0  0  0  0  0  0  0  0
   16.1600  -15.3880   -9.7340 N   0  0  0  0  0  0  0  0  0  0  0  0
   16.6600  -15.7670   -8.5400 N   0  0  0  0  0  0  0  0  0  0  0  0
   15.7060  -15.5190   -7.6280 C   0  0  0  0  0  0  0  0  0  0  0  0
   14.5630  -14.9820   -8.1700 C   0  0  0  0  0  0  0  0  0  0  0  0
   12.7380  -15.8850   -5.7480 N   0  0  0  0  0  0  0  0  0  0  0  0
   12.4620  -16.0810   -4.4370 C   0  0  0  0  0  0  0  0  0  0  0  0
   12.2070  -17.3750   -3.9860 N   0  0  0  0  0  0  0  0  0  0  0  0
   13.3420  -18.0720   -3.3640 C   0  0  0  0  0  0  0  0  0  0  0  0
   12.8490  -19.3720   -2.7080 C   0  0  0  0  0  0  0  0  0  0  0  0
   12.1510  -20.2120   -3.6430 O   0  0  0  0  0  0  0  0  0  0  0  0
   11.0140  -19.5140   -4.1810 C   0  0  0  0  0  0  0  0  0  0  0  0
   11.4270  -18.2220   -4.9010 C   0  0  0  0  0  0  0  0  0  0  0  0
   12.4180  -14.9420   -3.6190 C   0  0  0  0  0  0  0  0  0  0  0  0
   12.0340  -14.7710   -1.9490 S   0  0  0  0  0  0  0  0  0  0  0  0
   12.1244  -12.4917    1.4433 H   0  0  0  0  0  0  0  0  0  0  0  0
   11.4483  -13.8900    0.5408 H   0  0  0  0  0  0  0  0  0  0  0  0
   13.2199  -13.5927    0.5408 H   0  0  0  0  0  0  0  0  0  0  0  0
   13.2605  -10.8098    0.4115 H   0  0  0  0  0  0  0  0  0  0  0  0
   13.9948  -11.3310   -1.1428 H   0  0  0  0  0  0  0  0  0  0  0  0
   12.6089  -10.1882   -1.1428 H   0  0  0  0  0  0  0  0  0  0  0  0
   10.2120  -12.2540   -0.1520 H   0  0  0  0  0  0  0  0  0  0  0  0
   12.8161  -11.5918   -3.4836 H   0  0  0  0  0  0  0  0  0  0  0  0
   11.4550  -13.6666   -8.2928 H   0  0  0  0  0  0  0  0  0  0  0  0
   12.0331  -13.5331  -10.6930 H   0  0  0  0  0  0  0  0  0  0  0  0
   14.2556  -14.3291  -11.5237 H   0  0  0  0  0  0  0  0  0  0  0  0
   15.8273  -15.7251   -6.5543 H   0  0  0  0  0  0  0  0  0  0  0  0
   14.0914  -18.3108   -4.1330 H   0  0  0  0  0  0  0  0  0  0  0  0
   13.7948  -17.4244   -2.5988 H   0  0  0  0  0  0  0  0  0  0  0  0
   13.7158  -19.9224   -2.3135 H   0  0  0  0  0  0  0  0  0  0  0  0
   12.1499  -19.1039   -1.9021 H   0  0  0  0  0  0  0  0  0  0  0  0
   10.4985  -20.1713   -4.8966 H   0  0  0  0  0  0  0  0  0  0  0  0
   10.3519  -19.2433   -3.3453 H   0  0  0  0  0  0  0  0  0  0  0  0
   12.0395  -18.4724   -5.7798 H   0  0  0  0  0  0  0  0  0  0  0  0
   10.5260  -17.6791   -5.2227 H   0  0  0  0  0  0  0  0  0  0  0  0
  1  2  1  0
  2  3  1  0
  2  4  1  0
  2  5  1  0
  5  6  2  0
  6  7  1  0
  7  8  2  0
  8  9  1  0
  9 10  1  0
 10 11  2  0
 11 12  1  0
 12 13  2  0
 13 14  1  0
 14 15  1  0
 15 16  1  0
 16 17  2  0
 17 18  1  0
  9 19  2  0
 19 20  1  0
 20 21  1  0
 21 22  1  0
 22 23  1  0
 23 24  1  0
 24 25  1  0
 25 26  1  0
 20 27  2  0
 27 28  1  0
 28  5  1  0
 27  7  1  0
 18 10  1  0
 26 21  1  0
 18 14  2  0
  1 29  1  0
  1 30  1  0
  1 31  1  0
  3 32  1  0
  3 33  1  0
  3 34  1  0
  4 35  1  0
  6 36  1  0
 11 37  1  0
 12 38  1  0
 13 39  1  0
 17 40  1  0
 22 41  1  0
 22 42  1  0
 23 43  1  0
 23 44  1  0
 25 45  1  0
 25 46  1  0
 26 47  1  0
 26 48  1  0
M  CHG  1  15  -1
M  END
>  <meeko>  (6) 
{"is_sidechain": [false], "free_energy": -7.274, "intermolecular_energy": -8.649, "internal_energy": -0.763}

$$$$
LIB_KYBJEPGFZBUXMW__M_PUB_ALL__e8__s20260927
     RDKit          3D

 48 52  0  0  0  0  0  0  0  0999 V2000
    4.4360  -13.5330   -6.4330 C   0  0  0  0  0  0  0  0  0  0  0  0
    4.8490  -12.2110   -5.7840 C   0  0  0  0  0  0  0  0  0  0  0  0
    4.4110  -11.0320   -6.6550 C   0  0  0  0  0  0  0  0  0  0  0  0
    6.2800  -12.1640   -5.7380 O   0  0  0  0  0  0  0  0  0  0  0  0
    4.3170  -12.1160   -4.3660 C   0  0  0  0  0  0  0  0  0  0  0  0
    3.0860  -11.6600   -3.9330 C   0  0  0  0  0  0  0  0  0  0  0  0
    2.9190  -11.7380   -2.5200 C   0  0  0  0  0  0  0  0  0  0  0  0
    1.8120  -11.3360   -1.8630 N   0  0  0  0  0  0  0  0  0  0  0  0
    1.8550  -11.4460   -0.5350 C   0  0  0  0  0  0  0  0  0  0  0  0
    0.6930  -11.0340    0.2600 C   0  0  0  0  0  0  0  0  0  0  0  0
    0.4990   -9.7020    0.7130 C   0  0  0  0  0  0  0  0  0  0  0  0
   -0.6150   -9.3130    1.4740 C   0  0  0  0  0  0  0  0  0  0  0  0
   -1.6030  -10.2330    1.8220 C   0  0  0  0  0  0  0  0  0  0  0  0
   -1.4520  -11.5580    1.3860 C   0  0  0  0  0  0  0  0  0  0  0  0
   -2.2680  -12.6170    1.5880 N   0  0  0  0  0  0  0  0  0  0  0  0
   -1.7200  -13.6830    0.9690 N   0  0  0  0  0  0  0  0  0  0  0  0
   -0.5780  -13.2530    0.4070 C   0  0  0  0  0  0  0  0  0  0  0  0
   -0.3300  -11.9210    0.6300 C   0  0  0  0  0  0  0  0  0  0  0  0
    2.8950  -11.9660    0.1560 N   0  0  0  0  0  0  0  0  0  0  0  0
    3.9990  -12.4170   -0.4850 C   0  0  0  0  0  0  0  0  0  0  0  0
    5.0450  -12.9510    0.2640 N   0  0  0  0  0  0  0  0  0  0  0  0
    4.7580  -14.2130    0.9600 C   0  0  0  0  0  0  0  0  0  0  0  0
    6.0610  -14.7930    1.5330 C   0  0  0  0  0  0  0  0  0  0  0  0
    6.7340  -13.8530    2.3870 O   0  0  0  0  0  0  0  0  0  0  0  0
    7.0520  -12.6570    1.6520 C   0  0  0  0  0  0  0  0  0  0  0  0
    5.7930  -11.9850    1.0850 C   0  0  0  0  0  0  0  0  0  0  0  0
    4.0230  -12.2810   -1.8810 C   0  0  0  0  0  0  0  0  0  0  0  0
    5.2530  -12.6560   -3.0270 S   0  0  0  0  0  0  0  0  0  0  0  0
    4.2058  -14.2699   -5.6495 H   0  0  0  0  0  0  0  0  0  0  0  0
    3.5453  -13.3721   -7.0581 H   0  0  0  0  0  0  0  0  0  0  0  0
    5.2599  -13.9077   -7.0581 H   0  0  0  0  0  0  0  0  0  0  0  0
    4.1004  -10.1959   -6.0111 H   0  0  0  0  0  0  0  0  0  0  0  0
    5.2508  -10.7134   -7.2901 H   0  0  0  0  0  0  0  0  0  0  0  0
    3.5669  -11.3389   -7.2901 H   0  0  0  0  0  0  0  0  0  0  0  0
    6.6010  -12.4950   -6.5940 H   0  0  0  0  0  0  0  0  0  0  0  0
    2.3114  -11.2748   -4.6124 H   0  0  0  0  0  0  0  0  0  0  0  0
    1.2531   -8.9433    0.4569 H   0  0  0  0  0  0  0  0  0  0  0  0
   -0.7096   -8.2668    1.8005 H   0  0  0  0  0  0  0  0  0  0  0  0
   -2.4746   -9.9292    2.4203 H   0  0  0  0  0  0  0  0  0  0  0  0
    0.0920  -13.9036   -0.1742 H   0  0  0  0  0  0  0  0  0  0  0  0
    4.0488  -14.0260    1.7798 H   0  0  0  0  0  0  0  0  0  0  0  0
    4.3195  -14.9302    0.2505 H   0  0  0  0  0  0  0  0  0  0  0  0
    5.8232  -15.6957    2.1149 H   0  0  0  0  0  0  0  0  0  0  0  0
    6.7290  -15.0293    0.6916 H   0  0  0  0  0  0  0  0  0  0  0  0
    7.5607  -11.9505    2.3243 H   0  0  0  0  0  0  0  0  0  0  0  0
    7.7003  -12.9361    0.8083 H   0  0  0  0  0  0  0  0  0  0  0  0
    5.1576  -11.6395    1.9138 H   0  0  0  0  0  0  0  0  0  0  0  0
    6.0858  -11.1263    0.4629 H   0  0  0  0  0  0  0  0  0  0  0  0
  1  2  1  0
  2  3  1  0
  2  4  1  0
  2  5  1  0
  5  6  2  0
  6  7  1  0
  7  8  2  0
  8  9  1  0
  9 10  1  0
 10 11  2  0
 11 12  1  0
 12 13  2  0
 13 14  1  0
 14 15  1  0
 15 16  1  0
 16 17  2  0
 17 18  1  0
  9 19  2  0
 19 20  1  0
 20 21  1  0
 21 22  1  0
 22 23  1  0
 23 24  1  0
 24 25  1  0
 25 26  1  0
 20 27  2  0
 27 28  1  0
 28  5  1  0
 27  7  1  0
 18 10  1  0
 26 21  1  0
 18 14  2  0
  1 29  1  0
  1 30  1  0
  1 31  1  0
  3 32  1  0
  3 33  1  0
  3 34  1  0
  4 35  1  0
  6 36  1  0
 11 37  1  0
 12 38  1  0
 13 39  1  0
 17 40  1  0
 22 41  1  0
 22 42  1  0
 23 43  1  0
 23 44  1  0
 25 45  1  0
 25 46  1  0
 26 47  1  0
 26 48  1  0
M  CHG  1  15  -1
M  END
>  <meeko>  (7) 
{"is_sidechain": [false], "free_energy": -7.253, "intermolecular_energy": -8.59, "internal_energy": -0.796}

$$$$
LIB_KYBJEPGFZBUXMW__M_PUB_ALL__e8__s20260927
     RDKit          3D

 48 52  0  0  0  0  0  0  0  0999 V2000
   -1.3910  -18.1320    4.5550 C   0  0  0  0  0  0  0  0  0  0  0  0
   -2.3310  -17.8710    3.3760 C   0  0  0  0  0  0  0  0  0  0  0  0
   -3.7290  -17.5100    3.8820 C   0  0  0  0  0  0  0  0  0  0  0  0
   -2.4740  -19.0910    2.6400 O   0  0  0  0  0  0  0  0  0  0  0  0
   -1.7560  -16.8140    2.4500 C   0  0  0  0  0  0  0  0  0  0  0  0
   -0.9650  -16.9840    1.3300 C   0  0  0  0  0  0  0  0  0  0  0  0
   -0.6260  -15.7590    0.6850 C   0  0  0  0  0  0  0  0  0  0  0  0
    0.1490  -15.6680   -0.4150 N   0  0  0  0  0  0  0  0  0  0  0  0
    0.3910  -14.4330   -0.8510 C   0  0  0  0  0  0  0  0  0  0  0  0
    1.2240  -14.2410   -2.0440 C   0  0  0  0  0  0  0  0  0  0  0  0
    0.7340  -14.4190   -3.3660 C   0  0  0  0  0  0  0  0  0  0  0  0
    1.5360  -14.2350   -4.5040 C   0  0  0  0  0  0  0  0  0  0  0  0
    2.8730  -13.8580   -4.3860 C   0  0  0  0  0  0  0  0  0  0  0  0
    3.3920  -13.6640   -3.0980 C   0  0  0  0  0  0  0  0  0  0  0  0
    4.6400  -13.2940   -2.7320 N   0  0  0  0  0  0  0  0  0  0  0  0
    4.6690  -13.2230   -1.3850 N   0  0  0  0  0  0  0  0  0  0  0  0
    3.4400  -13.5550   -0.9570 C   0  0  0  0  0  0  0  0  0  0  0  0
    2.5720  -13.8560   -1.9790 C   0  0  0  0  0  0  0  0  0  0  0  0
   -0.1210  -13.3110   -0.2970 N   0  0  0  0  0  0  0  0  0  0  0  0
   -0.9380  -13.3800    0.7810 C   0  0  0  0  0  0  0  0  0  0  0  0
   -1.4500  -12.2000    1.3180 N   0  0  0  0  0  0  0  0  0  0  0  0
   -1.8230  -11.1620    0.3470 C   0  0  0  0  0  0  0  0  0  0  0  0
   -2.5860  -10.0370    1.0660 C   0  0  0  0  0  0  0  0  0  0  0  0
   -1.8330   -9.4970    2.1640 O   0  0  0  0  0  0  0  0  0  0  0  0
   -1.5410  -10.5320    3.1200 C   0  0  0  0  0  0  0  0  0  0  0  0
   -0.7330  -11.6760    2.4910 C   0  0  0  0  0  0  0  0  0  0  0  0
   -1.1880  -14.6560    1.3080 C   0  0  0  0  0  0  0  0  0  0  0  0
   -2.0930  -15.1440    2.6900 S   0  0  0  0  0  0  0  0  0  0  0  0
   -1.9357  -17.9808    5.4986 H   0  0  0  0  0  0  0  0  0  0  0  0
   -1.0211  -19.1668    4.5069 H   0  0  0  0  0  0  0  0  0  0  0  0
   -0.5405  -17.4360    4.5069 H   0  0  0  0  0  0  0  0  0  0  0  0
   -3.7319  -17.5092    4.9820 H   0  0  0  0  0  0  0  0  0  0  0  0
   -4.0055  -16.5110    3.5139 H   0  0  0  0  0  0  0  0  0  0  0  0
   -4.4547  -18.2502    3.5139 H   0  0  0  0  0  0  0  0  0  0  0  0
   -2.5970  -18.8450    1.7070 H   0  0  0  0  0  0  0  0  0  0  0  0
   -0.6297  -17.9683    0.9712 H   0  0  0  0  0  0  0  0  0  0  0  0
   -0.3170  -14.7131   -3.5036 H   0  0  0  0  0  0  0  0  0  0  0  0
    1.1029  -14.3906   -5.5031 H   0  0  0  0  0  0  0  0  0  0  0  0
    3.5022  -13.7169   -5.2772 H   0  0  0  0  0  0  0  0  0  0  0  0
    3.1565  -13.5832    0.1055 H   0  0  0  0  0  0  0  0  0  0  0  0
   -0.9144  -10.7504   -0.1168 H   0  0  0  0  0  0  0  0  0  0  0  0
   -2.4651  -11.6014   -0.4306 H   0  0  0  0  0  0  0  0  0  0  0  0
   -2.7933   -9.2313    0.3464 H   0  0  0  0  0  0  0  0  0  0  0  0
   -3.5190  -10.4596    1.4671 H   0  0  0  0  0  0  0  0  0  0  0  0
   -0.9604  -10.0989    3.9478 H   0  0  0  0  0  0  0  0  0  0  0  0
   -2.4950  -10.9444    3.4804 H   0  0  0  0  0  0  0  0  0  0  0  0
    0.2527  -11.2999    2.1796 H   0  0  0  0  0  0  0  0  0  0  0  0
   -0.6036  -12.4809    3.2296 H   0  0  0  0  0  0  0  0  0  0  0  0
  1  2  1  0
  2  3  1  0
  2  4  1  0
  2  5  1  0
  5  6  2  0
  6  7  1  0
  7  8  2  0
  8  9  1  0
  9 10  1  0
 10 11  2  0
 11 12  1  0
 12 13  2  0
 13 14  1  0
 14 15  1  0
 15 16  1  0
 16 17  2  0
 17 18  1  0
  9 19  2  0
 19 20  1  0
 20 21  1  0
 21 22  1  0
 22 23  1  0
 23 24  1  0
 24 25  1  0
 25 26  1  0
 20 27  2  0
 27 28  1  0
 28  5  1  0
 27  7  1  0
 18 10  1  0
 26 21  1  0
 18 14  2  0
  1 29  1  0
  1 30  1  0
  1 31  1  0
  3 32  1  0
  3 33  1  0
  3 34  1  0
  4 35  1  0
  6 36  1  0
 11 37  1  0
 12 38  1  0
 13 39  1  0
 17 40  1  0
 22 41  1  0
 22 42  1  0
 23 43  1  0
 23 44  1  0
 25 45  1  0
 25 46  1  0
 26 47  1  0
 26 48  1  0
M  CHG  1  15  -1
M  END
>  <meeko>  (8) 
{"is_sidechain": [false], "free_energy": -7.134, "intermolecular_energy": -8.488, "internal_energy": -0.754}

$$$$
LIB_KYBJEPGFZBUXMW__M_PUB_ALL__e8__s20260927
     RDKit          3D

 48 52  0  0  0  0  0  0  0  0999 V2000
    0.3230  -19.0010    5.4130 C   0  0  0  0  0  0  0  0  0  0  0  0
   -1.0700  -18.4200    5.1570 C   0  0  0  0  0  0  0  0  0  0  0  0
   -1.6850  -17.9230    6.4670 C   0  0  0  0  0  0  0  0  0  0  0  0
   -1.9170  -19.4780    4.6930 O   0  0  0  0  0  0  0  0  0  0  0  0
   -1.0180  -17.3410    4.0910 C   0  0  0  0  0  0  0  0  0  0  0  0
   -1.8930  -16.2920    3.8810 C   0  0  0  0  0  0  0  0  0  0  0  0
   -1.5160  -15.4520    2.7920 C   0  0  0  0  0  0  0  0  0  0  0  0
   -2.2200  -14.3770    2.3830 N   0  0  0  0  0  0  0  0  0  0  0  0
   -1.7340  -13.7370    1.3200 C   0  0  0  0  0  0  0  0  0  0  0  0
   -2.4360  -12.5550    0.8090 C   0  0  0  0  0  0  0  0  0  0  0  0
   -3.4940  -12.6320   -0.1360 C   0  0  0  0  0  0  0  0  0  0  0  0
   -4.1620  -11.4970   -0.6230 C   0  0  0  0  0  0  0  0  0  0  0  0
   -3.8140  -10.2190   -0.1900 C   0  0  0  0  0  0  0  0  0  0  0  0
   -2.7790  -10.1000    0.7500 C   0  0  0  0  0  0  0  0  0  0  0  0
   -2.2720   -8.9840    1.3190 N   0  0  0  0  0  0  0  0  0  0  0  0
   -1.2990   -9.3630    2.1720 N   0  0  0  0  0  0  0  0  0  0  0  0
   -1.2280  -10.7030    2.1020 C   0  0  0  0  0  0  0  0  0  0  0  0
   -2.1270  -11.2490    1.2180 C   0  0  0  0  0  0  0  0  0  0  0  0
   -0.5880  -14.0700    0.6840 N   0  0  0  0  0  0  0  0  0  0  0  0
    0.1590  -15.1180    1.1040 C   0  0  0  0  0  0  0  0  0  0  0  0
    1.3370  -15.4250    0.4240 N   0  0  0  0  0  0  0  0  0  0  0  0
    2.5610  -14.8070    0.9530 C   0  0  0  0  0  0  0  0  0  0  0  0
    3.7870  -15.4240    0.2610 C   0  0  0  0  0  0  0  0  0  0  0  0
    3.7060  -15.3120   -1.1690 O   0  0  0  0  0  0  0  0  0  0  0  0
    2.5280  -15.9820   -1.6520 C   0  0  0  0  0  0  0  0  0  0  0  0
    1.2480  -15.3890   -1.0440 C   0  0  0  0  0  0  0  0  0  0  0  0
   -0.3330  -15.8550    2.1920 C   0  0  0  0  0  0  0  0  0  0  0  0
    0.2750  -17.2730    2.9580 S   0  0  0  0  0  0  0  0  0  0  0  0
    0.4966  -19.0734    6.4968 H   0  0  0  0  0  0  0  0  0  0  0  0
    0.3909  -20.0025    4.9631 H   0  0  0  0  0  0  0  0  0  0  0  0
    1.0824  -18.3446    4.9631 H   0  0  0  0  0  0  0  0  0  0  0  0
   -1.1418  -18.3620    7.3168 H   0  0  0  0  0  0  0  0  0  0  0  0
   -1.6131  -16.8263    6.5130 H   0  0  0  0  0  0  0  0  0  0  0  0
   -2.7422  -18.2234    6.5130 H   0  0  0  0  0  0  0  0  0  0  0  0
   -2.4840  -19.7330    5.4420 H   0  0  0  0  0  0  0  0  0  0  0  0
   -2.7910  -16.1219    4.4931 H   0  0  0  0  0  0  0  0  0  0  0  0
   -3.8029  -13.6224   -0.5016 H   0  0  0  0  0  0  0  0  0  0  0  0
   -4.9720  -11.6185   -1.3572 H   0  0  0  0  0  0  0  0  0  0  0  0
   -4.3353   -9.3296   -0.5738 H   0  0  0  0  0  0  0  0  0  0  0  0
   -0.5207  -11.3030    2.6934 H   0  0  0  0  0  0  0  0  0  0  0  0
    2.5377  -13.7242    0.7606 H   0  0  0  0  0  0  0  0  0  0  0  0
    2.6231  -14.9857    2.0366 H   0  0  0  0  0  0  0  0  0  0  0  0
    4.6914  -14.9029    0.6082 H   0  0  0  0  0  0  0  0  0  0  0  0
    3.8227  -16.4929    0.5184 H   0  0  0  0  0  0  0  0  0  0  0  0
    2.4833  -15.8801   -2.7464 H   0  0  0  0  0  0  0  0  0  0  0  0
    2.5897  -17.0399   -1.3570 H   0  0  0  0  0  0  0  0  0  0  0  0
    1.1322  -14.3475   -1.3784 H   0  0  0  0  0  0  0  0  0  0  0  0
    0.3799  -15.9795   -1.3722 H   0  0  0  0  0  0  0  0  0  0  0  0
  1  2  1  0
  2  3  1  0
  2  4  1  0
  2  5  1  0
  5  6  2  0
  6  7  1  0
  7  8  2  0
  8  9  1  0
  9 10  1  0
 10 11  2  0
 11 12  1  0
 12 13  2  0
 13 14  1  0
 14 15  1  0
 15 16  1  0
 16 17  2  0
 17 18  1  0
  9 19  2  0
 19 20  1  0
 20 21  1  0
 21 22  1  0
 22 23  1  0
 23 24  1  0
 24 25  1  0
 25 26  1  0
 20 27  2  0
 27 28  1  0
 28  5  1  0
 27  7  1  0
 18 10  1  0
 26 21  1  0
 18 14  2  0
  1 29  1  0
  1 30  1  0
  1 31  1  0
  3 32  1  0
  3 33  1  0
  3 34  1  0
  4 35  1  0
  6 36  1  0
 11 37  1  0
 12 38  1  0
 13 39  1  0
 17 40  1  0
 22 41  1  0
 22 42  1  0
 23 43  1  0
 23 44  1  0
 25 45  1  0
 25 46  1  0
 26 47  1  0
 26 48  1  0
M  CHG  1  15  -1
M  END
>  <meeko>  (9) 
{"is_sidechain": [false], "free_energy": -7.117, "intermolecular_energy": -8.42, "internal_energy": -0.801}

$$$$
