LIB_RUMZIRSAOXCPII__M_PUB_ALL__e8__s20260927
     RDKit          3D

 48 50  0  0  0  0  0  0  0  0999 V2000
   12.8170   -1.6580  -12.8690 N   0  0  0  0  0  0  0  0  0  0  0  0
   12.5030   -3.0000  -12.7610 C   0  0  0  0  0  0  0  0  0  0  0  0
   11.3060   -3.4070  -12.1750 C   0  0  0  0  0  0  0  0  0  0  0  0
   11.0060   -4.7670  -12.0300 C   0  0  0  0  0  0  0  0  0  0  0  0
   11.9070   -5.7470  -12.4600 C   0  0  0  0  0  0  0  0  0  0  0  0
   11.5340   -7.0940  -12.2750 N   0  0  0  0  0  0  0  0  0  0  0  0
   11.2390   -7.7270  -11.0810 C   0  0  0  0  0  0  0  0  0  0  0  0
   11.3270   -7.2550   -9.9530 O   0  0  0  0  0  0  0  0  0  0  0  0
   10.8090   -9.1470  -11.2170 C   0  0  0  0  0  0  0  0  0  0  0  0
   11.6810  -10.2080  -10.9450 C   0  0  0  0  0  0  0  0  0  0  0  0
   11.2410  -11.5270  -11.0900 C   0  0  0  0  0  0  0  0  0  0  0  0
    9.9300  -11.8010  -11.5070 C   0  0  0  0  0  0  0  0  0  0  0  0
    9.4730  -13.2220  -11.6960 C   0  0  0  0  0  0  0  0  0  0  0  0
    8.6060  -13.6280  -10.6240 N   0  0  0  0  0  0  0  0  0  0  0  0
    7.2730  -13.8110  -10.8090 C   0  0  0  0  0  0  0  0  0  0  0  0
    6.6850  -13.6580  -11.8680 O   0  0  0  0  0  0  0  0  0  0  0  0
    6.7100  -14.1860   -9.6380 O   0  0  0  0  0  0  0  0  0  0  0  0
    7.3110  -13.6320   -8.4620 C   0  0  0  0  0  0  0  0  0  0  0  0
    6.3080  -13.6030   -7.3470 C   0  0  0  0  0  0  0  0  0  0  0  0
    5.3530  -12.5880   -7.2460 C   0  0  0  0  0  0  0  0  0  0  0  0
    4.4310  -12.6080   -6.2040 C   0  0  0  0  0  0  0  0  0  0  0  0
    4.4900  -13.6530   -5.2970 C   0  0  0  0  0  0  0  0  0  0  0  0
    5.3890  -14.6570   -5.3670 N   0  0  0  0  0  0  0  0  0  0  0  0
    6.2720  -14.6140   -6.3920 C   0  0  0  0  0  0  0  0  0  0  0  0
    9.0720  -10.7320  -11.8050 C   0  0  0  0  0  0  0  0  0  0  0  0
    9.5100   -9.4130  -11.6620 C   0  0  0  0  0  0  0  0  0  0  0  0
   13.1140   -5.3420  -13.0270 C   0  0  0  0  0  0  0  0  0  0  0  0
   13.4090   -3.9790  -13.1690 C   0  0  0  0  0  0  0  0  0  0  0  0
   12.0790   -0.9680  -12.8930 H   0  0  0  0  0  0  0  0  0  0  0  0
   13.7650   -1.3410  -12.7270 H   0  0  0  0  0  0  0  0  0  0  0  0
   10.5887   -2.6513  -11.8223 H   0  0  0  0  0  0  0  0  0  0  0  0
   10.0517   -5.0680  -11.5731 H   0  0  0  0  0  0  0  0  0  0  0  0
   11.5250   -7.6630  -13.1110 H   0  0  0  0  0  0  0  0  0  0  0  0
   12.7111  -10.0040  -10.6176 H   0  0  0  0  0  0  0  0  0  0  0  0
   11.9293  -12.3577  -10.8751 H   0  0  0  0  0  0  0  0  0  0  0  0
    8.9294  -13.3019  -12.6490 H   0  0  0  0  0  0  0  0  0  0  0  0
   10.3562  -13.8777  -11.7017 H   0  0  0  0  0  0  0  0  0  0  0  0
    8.9720  -13.7910   -9.6960 H   0  0  0  0  0  0  0  0  0  0  0  0
    8.1705  -14.2507   -8.1646 H   0  0  0  0  0  0  0  0  0  0  0  0
    7.6493  -12.6071   -8.6742 H   0  0  0  0  0  0  0  0  0  0  0  0
    5.3301  -11.7759   -7.9877 H   0  0  0  0  0  0  0  0  0  0  0  0
    3.6754  -11.8149   -6.1033 H   0  0  0  0  0  0  0  0  0  0  0  0
    3.7623  -13.6653   -4.4722 H   0  0  0  0  0  0  0  0  0  0  0  0
    7.0064  -15.4287   -6.4750 H   0  0  0  0  0  0  0  0  0  0  0  0
    8.0482  -10.9334  -12.1533 H   0  0  0  0  0  0  0  0  0  0  0  0
    8.8310   -8.5810  -11.9002 H   0  0  0  0  0  0  0  0  0  0  0  0
   13.8395   -6.0965  -13.3651 H   0  0  0  0  0  0  0  0  0  0  0  0
   14.3706   -3.6765  -13.6093 H   0  0  0  0  0  0  0  0  0  0  0  0
  1  2  1  0
  2  3  2  0
  3  4  1  0
  4  5  2  0
  5  6  1  0
  6  7  1  0
  7  8  2  0
  7  9  1  0
  9 10  2  0
 10 11  1  0
 11 12  2  0
 12 13  1  0
 13 14  1  0
 14 15  1  0
 15 16  2  0
 15 17  1  0
 17 18  1  0
 18 19  1  0
 19 20  2  0
 20 21  1  0
 21 22  2  0
 22 23  1  0
 23 24  2  0
 12 25  1  0
 25 26  2  0
  5 27  1  0
 27 28  2  0
 28  2  1  0
 26  9  1  0
 24 19  1  0
  1 29  1  0
  1 30  1  0
  3 31  1  0
  4 32  1  0
  6 33  1  0
 10 34  1  0
 11 35  1  0
 13 36  1  0
 13 37  1  0
 14 38  1  0
 18 39  1  0
 18 40  1  0
 20 41  1  0
 21 42  1  0
 22 43  1  0
 24 44  1  0
 25 45  1  0
 26 46  1  0
 27 47  1  0
 28 48  1  0
M  END
>  <meeko>  (1) 
{"is_sidechain": [false], "free_energy": -8.178, "intermolecular_energy": -11.764, "internal_energy": -0.67}

$$$$
LIB_RUMZIRSAOXCPII__M_PUB_ALL__e8__s20260927
     RDKit          3D

 48 50  0  0  0  0  0  0  0  0999 V2000
   11.7390   -2.7140  -13.8700 N   0  0  0  0  0  0  0  0  0  0  0  0
   11.8400   -3.9450  -13.2500 C   0  0  0  0  0  0  0  0  0  0  0  0
   12.5370   -4.9910  -13.8530 C   0  0  0  0  0  0  0  0  0  0  0  0
   12.6070   -6.2490  -13.2430 C   0  0  0  0  0  0  0  0  0  0  0  0
   11.9690   -6.4870  -12.0210 C   0  0  0  0  0  0  0  0  0  0  0  0
   12.0820   -7.7820  -11.4740 N   0  0  0  0  0  0  0  0  0  0  0  0
   11.1780   -8.8220  -11.5860 C   0  0  0  0  0  0  0  0  0  0  0  0
   10.0720   -8.7870  -12.1120 O   0  0  0  0  0  0  0  0  0  0  0  0
   11.6130  -10.0980  -10.9510 C   0  0  0  0  0  0  0  0  0  0  0  0
   12.7880  -10.1800  -10.1940 C   0  0  0  0  0  0  0  0  0  0  0  0
   13.1650  -11.3970   -9.6200 C   0  0  0  0  0  0  0  0  0  0  0  0
   12.3750  -12.5440   -9.7940 C   0  0  0  0  0  0  0  0  0  0  0  0
   12.8040  -13.8590   -9.2030 C   0  0  0  0  0  0  0  0  0  0  0  0
   13.1450  -13.7100   -7.8150 N   0  0  0  0  0  0  0  0  0  0  0  0
   12.3830  -14.2470   -6.8270 C   0  0  0  0  0  0  0  0  0  0  0  0
   11.3620  -14.8930   -7.0020 O   0  0  0  0  0  0  0  0  0  0  0  0
   12.9350  -13.9500   -5.6290 O   0  0  0  0  0  0  0  0  0  0  0  0
   12.0490  -14.0350   -4.5070 C   0  0  0  0  0  0  0  0  0  0  0  0
   12.4910  -13.0790   -3.4400 C   0  0  0  0  0  0  0  0  0  0  0  0
   13.6110  -12.2600   -3.6070 C   0  0  0  0  0  0  0  0  0  0  0  0
   13.9770  -11.3750   -2.5980 C   0  0  0  0  0  0  0  0  0  0  0  0
   13.2020  -11.3330   -1.4510 C   0  0  0  0  0  0  0  0  0  0  0  0
   12.1080  -12.0980   -1.2560 N   0  0  0  0  0  0  0  0  0  0  0  0
   11.7730  -12.9480   -2.2550 C   0  0  0  0  0  0  0  0  0  0  0  0
   11.2150  -12.4590  -10.5770 C   0  0  0  0  0  0  0  0  0  0  0  0
   10.8370  -11.2450  -11.1530 C   0  0  0  0  0  0  0  0  0  0  0  0
   11.2530   -5.4490  -11.4280 C   0  0  0  0  0  0  0  0  0  0  0  0
   11.1860   -4.1910  -12.0430 C   0  0  0  0  0  0  0  0  0  0  0  0
   12.5370   -2.3240  -14.3530 H   0  0  0  0  0  0  0  0  0  0  0  0
   10.8350   -2.2880  -14.0200 H   0  0  0  0  0  0  0  0  0  0  0  0
   13.0374   -4.8260  -14.8186 H   0  0  0  0  0  0  0  0  0  0  0  0
   13.1698   -7.0591  -13.7298 H   0  0  0  0  0  0  0  0  0  0  0  0
   12.9000   -7.9440  -10.9020 H   0  0  0  0  0  0  0  0  0  0  0  0
   13.4140   -9.2869  -10.0512 H   0  0  0  0  0  0  0  0  0  0  0  0
   14.0892  -11.4566   -9.0265 H   0  0  0  0  0  0  0  0  0  0  0  0
   11.9799  -14.5817   -9.2959 H   0  0  0  0  0  0  0  0  0  0  0  0
   13.6911  -14.2162   -9.7467 H   0  0  0  0  0  0  0  0  0  0  0  0
   13.9700  -13.1990   -7.5370 H   0  0  0  0  0  0  0  0  0  0  0  0
   11.0282  -13.7791   -4.8271 H   0  0  0  0  0  0  0  0  0  0  0  0
   12.0650  -15.0596   -4.1072 H   0  0  0  0  0  0  0  0  0  0  0  0
   14.2014  -12.3150   -4.5335 H   0  0  0  0  0  0  0  0  0  0  0  0
   14.8583  -10.7260   -2.7082 H   0  0  0  0  0  0  0  0  0  0  0  0
   13.4955  -10.6355   -0.6527 H   0  0  0  0  0  0  0  0  0  0  0  0
   10.8781  -13.5737   -2.1219 H   0  0  0  0  0  0  0  0  0  0  0  0
   10.5984  -13.3555  -10.7385 H   0  0  0  0  0  0  0  0  0  0  0  0
    9.9264  -11.1897  -11.7676 H   0  0  0  0  0  0  0  0  0  0  0  0
   10.7371   -5.6178  -10.4713 H   0  0  0  0  0  0  0  0  0  0  0  0
   10.6086   -3.3853  -11.5661 H   0  0  0  0  0  0  0  0  0  0  0  0
  1  2  1  0
  2  3  2  0
  3  4  1  0
  4  5  2  0
  5  6  1  0
  6  7  1  0
  7  8  2  0
  7  9  1  0
  9 10  2  0
 10 11  1  0
 11 12  2  0
 12 13  1  0
 13 14  1  0
 14 15  1  0
 15 16  2  0
 15 17  1  0
 17 18  1  0
 18 19  1  0
 19 20  2  0
 20 21  1  0
 21 22  2  0
 22 23  1  0
 23 24  2  0
 12 25  1  0
 25 26  2  0
  5 27  1  0
 27 28  2  0
 28  2  1  0
 26  9  1  0
 24 19  1  0
  1 29  1  0
  1 30  1  0
  3 31  1  0
  4 32  1  0
  6 33  1  0
 10 34  1  0
 11 35  1  0
 13 36  1  0
 13 37  1  0
 14 38  1  0
 18 39  1  0
 18 40  1  0
 20 41  1  0
 21 42  1  0
 22 43  1  0
 24 44  1  0
 25 45  1  0
 26 46  1  0
 27 47  1  0
 28 48  1  0
M  END
>  <meeko>  (2) 
{"is_sidechain": [false], "free_energy": -7.833, "intermolecular_energy": -11.171, "internal_energy": -0.766}

$$$$
LIB_RUMZIRSAOXCPII__M_PUB_ALL__e8__s20260927
     RDKit          3D

 48 50  0  0  0  0  0  0  0  0999 V2000
    3.2700  -15.3400   -2.8660 N   0  0  0  0  0  0  0  0  0  0  0  0
    3.9880  -14.7410   -3.8830 C   0  0  0  0  0  0  0  0  0  0  0  0
    3.3710  -13.8540   -4.7650 C   0  0  0  0  0  0  0  0  0  0  0  0
    4.0890  -13.2770   -5.8180 C   0  0  0  0  0  0  0  0  0  0  0  0
    5.4390  -13.5850   -6.0160 C   0  0  0  0  0  0  0  0  0  0  0  0
    6.0910  -12.9650   -7.1030 N   0  0  0  0  0  0  0  0  0  0  0  0
    6.6110  -13.5770   -8.2290 C   0  0  0  0  0  0  0  0  0  0  0  0
    6.6740  -14.7800   -8.4540 O   0  0  0  0  0  0  0  0  0  0  0  0
    7.1830  -12.6420   -9.2390 C   0  0  0  0  0  0  0  0  0  0  0  0
    6.6320  -11.3750   -9.4630 C   0  0  0  0  0  0  0  0  0  0  0  0
    7.1940  -10.5300  -10.4240 C   0  0  0  0  0  0  0  0  0  0  0  0
    8.3090  -10.9400  -11.1700 C   0  0  0  0  0  0  0  0  0  0  0  0
    8.8880  -10.0400  -12.2280 C   0  0  0  0  0  0  0  0  0  0  0  0
    9.3080   -8.7870  -11.6620 N   0  0  0  0  0  0  0  0  0  0  0  0
   10.6170   -8.5050  -11.4350 C   0  0  0  0  0  0  0  0  0  0  0  0
   11.5480   -9.2560  -11.6800 O   0  0  0  0  0  0  0  0  0  0  0  0
   10.7180   -7.2680  -10.8980 O   0  0  0  0  0  0  0  0  0  0  0  0
   12.0340   -6.7020  -10.9040 C   0  0  0  0  0  0  0  0  0  0  0  0
   12.0840   -5.5510  -11.8650 C   0  0  0  0  0  0  0  0  0  0  0  0
   12.8610   -5.5980  -13.0250 C   0  0  0  0  0  0  0  0  0  0  0  0
   12.8670   -4.5140  -13.8970 C   0  0  0  0  0  0  0  0  0  0  0  0
   12.0850   -3.4150  -13.5820 C   0  0  0  0  0  0  0  0  0  0  0  0
   11.3120   -3.3370  -12.4780 N   0  0  0  0  0  0  0  0  0  0  0  0
   11.3240   -4.4060  -11.6490 C   0  0  0  0  0  0  0  0  0  0  0  0
    8.8360  -12.2220  -10.9590 C   0  0  0  0  0  0  0  0  0  0  0  0
    8.2760  -13.0680  -10.0010 C   0  0  0  0  0  0  0  0  0  0  0  0
    6.0530  -14.4870   -5.1490 C   0  0  0  0  0  0  0  0  0  0  0  0
    5.3280  -15.0630   -4.0960 C   0  0  0  0  0  0  0  0  0  0  0  0
    3.4500  -16.3040   -2.6200 H   0  0  0  0  0  0  0  0  0  0  0  0
    2.7130  -14.7830   -2.2350 H   0  0  0  0  0  0  0  0  0  0  0  0
    2.3079  -13.6053   -4.6312 H   0  0  0  0  0  0  0  0  0  0  0  0
    3.5863  -12.5733   -6.4978 H   0  0  0  0  0  0  0  0  0  0  0  0
    6.2260  -11.9670   -7.0190 H   0  0  0  0  0  0  0  0  0  0  0  0
    5.7575  -11.0446   -8.8833 H   0  0  0  0  0  0  0  0  0  0  0  0
    6.7582   -9.5349  -10.5969 H   0  0  0  0  0  0  0  0  0  0  0  0
    9.7554  -10.5363  -12.6877 H   0  0  0  0  0  0  0  0  0  0  0  0
    8.1134   -9.8423  -12.9836 H   0  0  0  0  0  0  0  0  0  0  0  0
    8.6320   -8.0780  -11.4170 H   0  0  0  0  0  0  0  0  0  0  0  0
   12.2837   -6.3461   -9.8936 H   0  0  0  0  0  0  0  0  0  0  0  0
   12.7592   -7.4684  -11.2149 H   0  0  0  0  0  0  0  0  0  0  0  0
   13.4661   -6.4891  -13.2482 H   0  0  0  0  0  0  0  0  0  0  0  0
   13.4767   -4.5293  -14.8125 H   0  0  0  0  0  0  0  0  0  0  0  0
   12.0944   -2.5571  -14.2705 H   0  0  0  0  0  0  0  0  0  0  0  0
   10.6937   -4.3675  -10.7483 H   0  0  0  0  0  0  0  0  0  0  0  0
    9.6968  -12.5632  -11.5527 H   0  0  0  0  0  0  0  0  0  0  0  0
    8.6953  -14.0729   -9.8445 H   0  0  0  0  0  0  0  0  0  0  0  0
    7.1119  -14.7485   -5.2915 H   0  0  0  0  0  0  0  0  0  0  0  0
    5.8246  -15.7809   -3.4267 H   0  0  0  0  0  0  0  0  0  0  0  0
  1  2  1  0
  2  3  2  0
  3  4  1  0
  4  5  2  0
  5  6  1  0
  6  7  1  0
  7  8  2  0
  7  9  1  0
  9 10  2  0
 10 11  1  0
 11 12  2  0
 12 13  1  0
 13 14  1  0
 14 15  1  0
 15 16  2  0
 15 17  1  0
 17 18  1  0
 18 19  1  0
 19 20  2  0
 20 21  1  0
 21 22  2  0
 22 23  1  0
 23 24  2  0
 12 25  1  0
 25 26  2  0
  5 27  1  0
 27 28  2  0
 28  2  1  0
 26  9  1  0
 24 19  1  0
  1 29  1  0
  1 30  1  0
  3 31  1  0
  4 32  1  0
  6 33  1  0
 10 34  1  0
 11 35  1  0
 13 36  1  0
 13 37  1  0
 14 38  1  0
 18 39  1  0
 18 40  1  0
 20 41  1  0
 21 42  1  0
 22 43  1  0
 24 44  1  0
 25 45  1  0
 26 46  1  0
 27 47  1  0
 28 48  1  0
M  END
>  <meeko>  (3) 
{"is_sidechain": [false], "free_energy": -7.396, "intermolecular_energy": -10.58, "internal_energy": -0.729}

$$$$
LIB_RUMZIRSAOXCPII__M_PUB_ALL__e8__s20260927
     RDKit          3D

 48 50  0  0  0  0  0  0  0  0999 V2000
    6.7790  -13.2590   -6.9200 N   0  0  0  0  0  0  0  0  0  0  0  0
    5.8670  -12.9630   -5.9240 C   0  0  0  0  0  0  0  0  0  0  0  0
    6.2950  -12.5120   -4.6760 C   0  0  0  0  0  0  0  0  0  0  0  0
    5.3740  -12.2490   -3.6550 C   0  0  0  0  0  0  0  0  0  0  0  0
    4.0040  -12.4440   -3.8620 C   0  0  0  0  0  0  0  0  0  0  0  0
    3.1410  -12.1610   -2.7830 N   0  0  0  0  0  0  0  0  0  0  0  0
    2.3980  -11.0120   -2.5810 C   0  0  0  0  0  0  0  0  0  0  0  0
    2.4140   -9.9920   -3.2600 O   0  0  0  0  0  0  0  0  0  0  0  0
    1.5240  -11.0380   -1.3740 C   0  0  0  0  0  0  0  0  0  0  0  0
    0.6720   -9.9730   -1.0610 C   0  0  0  0  0  0  0  0  0  0  0  0
   -0.1280  -10.0330    0.0840 C   0  0  0  0  0  0  0  0  0  0  0  0
   -0.0860  -11.1550    0.9260 C   0  0  0  0  0  0  0  0  0  0  0  0
   -0.9240  -11.1980    2.1750 C   0  0  0  0  0  0  0  0  0  0  0  0
   -1.8010  -12.3370    2.1650 N   0  0  0  0  0  0  0  0  0  0  0  0
   -2.9770  -12.3300    1.4860 C   0  0  0  0  0  0  0  0  0  0  0  0
   -3.4040  -11.3910    0.8330 O   0  0  0  0  0  0  0  0  0  0  0  0
   -3.5930  -13.5220    1.6530 O   0  0  0  0  0  0  0  0  0  0  0  0
   -3.7540  -14.3020    0.4620 C   0  0  0  0  0  0  0  0  0  0  0  0
   -2.5600  -15.1910    0.2750 C   0  0  0  0  0  0  0  0  0  0  0  0
   -1.5430  -14.8710   -0.6290 C   0  0  0  0  0  0  0  0  0  0  0  0
   -0.4450  -15.7150   -0.7600 C   0  0  0  0  0  0  0  0  0  0  0  0
   -0.3960  -16.8540    0.0270 C   0  0  0  0  0  0  0  0  0  0  0  0
   -1.3510  -17.1900    0.9190 N   0  0  0  0  0  0  0  0  0  0  0  0
   -2.4060  -16.3510    1.0280 C   0  0  0  0  0  0  0  0  0  0  0  0
    0.7910  -12.2050    0.6190 C   0  0  0  0  0  0  0  0  0  0  0  0
    1.5920  -12.1470   -0.5220 C   0  0  0  0  0  0  0  0  0  0  0  0
    3.5760  -12.9150   -5.1010 C   0  0  0  0  0  0  0  0  0  0  0  0
    4.5030  -13.1780   -6.1200 C   0  0  0  0  0  0  0  0  0  0  0  0
    7.2200  -14.1680   -6.9470 H   0  0  0  0  0  0  0  0  0  0  0  0
    6.8650  -12.6620   -7.7290 H   0  0  0  0  0  0  0  0  0  0  0  0
    7.3689  -12.3611   -4.4915 H   0  0  0  0  0  0  0  0  0  0  0  0
    5.7310  -11.8854   -2.6802 H   0  0  0  0  0  0  0  0  0  0  0  0
    3.1010  -12.8670   -2.0600 H   0  0  0  0  0  0  0  0  0  0  0  0
    0.6317   -9.0895   -1.7151 H   0  0  0  0  0  0  0  0  0  0  0  0
   -0.7961   -9.1936    0.3270 H   0  0  0  0  0  0  0  0  0  0  0  0
   -0.2618  -11.2610    3.0511 H   0  0  0  0  0  0  0  0  0  0  0  0
   -1.5349  -10.2843    2.2202 H   0  0  0  0  0  0  0  0  0  0  0  0
   -1.5600  -13.1800    2.6660 H   0  0  0  0  0  0  0  0  0  0  0  0
   -4.6599  -14.9198    0.5491 H   0  0  0  0  0  0  0  0  0  0  0  0
   -3.8473  -13.6301   -0.4039 H   0  0  0  0  0  0  0  0  0  0  0  0
   -1.6107  -13.9552   -1.2346 H   0  0  0  0  0  0  0  0  0  0  0  0
    0.3630  -15.4841   -1.4698 H   0  0  0  0  0  0  0  0  0  0  0  0
    0.4708  -17.5225   -0.0815 H   0  0  0  0  0  0  0  0  0  0  0  0
   -3.1909  -16.6010    1.7570 H   0  0  0  0  0  0  0  0  0  0  0  0
    0.8480  -13.0806    1.2823 H   0  0  0  0  0  0  0  0  0  0  0  0
    2.2787  -12.9747   -0.7528 H   0  0  0  0  0  0  0  0  0  0  0  0
    2.5038  -13.0818   -5.2814 H   0  0  0  0  0  0  0  0  0  0  0  0
    4.1488  -13.5598   -7.0889 H   0  0  0  0  0  0  0  0  0  0  0  0
  1  2  1  0
  2  3  2  0
  3  4  1  0
  4  5  2  0
  5  6  1  0
  6  7  1  0
  7  8  2  0
  7  9  1  0
  9 10  2  0
 10 11  1  0
 11 12  2  0
 12 13  1  0
 13 14  1  0
 14 15  1  0
 15 16  2  0
 15 17  1  0
 17 18  1  0
 18 19  1  0
 19 20  2  0
 20 21  1  0
 21 22  2  0
 22 23  1  0
 23 24  2  0
 12 25  1  0
 25 26  2  0
  5 27  1  0
 27 28  2  0
 28  2  1  0
 26  9  1  0
 24 19  1  0
  1 29  1  0
  1 30  1  0
  3 31  1  0
  4 32  1  0
  6 33  1  0
 10 34  1  0
 11 35  1  0
 13 36  1  0
 13 37  1  0
 14 38  1  0
 18 39  1  0
 18 40  1  0
 20 41  1  0
 21 42  1  0
 22 43  1  0
 24 44  1  0
 25 45  1  0
 26 46  1  0
 27 47  1  0
 28 48  1  0
M  END
>  <meeko>  (4) 
{"is_sidechain": [false], "free_energy": -7.317, "intermolecular_energy": -9.834, "internal_energy": -1.361}

$$$$
LIB_RUMZIRSAOXCPII__M_PUB_ALL__e8__s20260927
     RDKit          3D

 48 50  0  0  0  0  0  0  0  0999 V2000
   19.3580   -5.4150   11.1160 N   0  0  0  0  0  0  0  0  0  0  0  0
   18.4020   -6.3510   11.4620 C   0  0  0  0  0  0  0  0  0  0  0  0
   18.7700   -7.6520   11.8030 C   0  0  0  0  0  0  0  0  0  0  0  0
   17.7990   -8.6110   12.1160 C   0  0  0  0  0  0  0  0  0  0  0  0
   16.4390   -8.2870   12.0840 C   0  0  0  0  0  0  0  0  0  0  0  0
   15.5230   -9.3090   12.4080 N   0  0  0  0  0  0  0  0  0  0  0  0
   14.3450   -9.6200   11.7530 C   0  0  0  0  0  0  0  0  0  0  0  0
   13.8370   -9.0120   10.8170 O   0  0  0  0  0  0  0  0  0  0  0  0
   13.6230  -10.8050   12.2950 C   0  0  0  0  0  0  0  0  0  0  0  0
   12.7850  -10.7070   13.4130 C   0  0  0  0  0  0  0  0  0  0  0  0
   12.1300  -11.8440   13.8950 C   0  0  0  0  0  0  0  0  0  0  0  0
   12.3030  -13.0870   13.2690 C   0  0  0  0  0  0  0  0  0  0  0  0
   11.6230  -14.3140   13.8130 C   0  0  0  0  0  0  0  0  0  0  0  0
   12.5780  -15.2090   14.4060 N   0  0  0  0  0  0  0  0  0  0  0  0
   12.6840  -15.3570   15.7520 C   0  0  0  0  0  0  0  0  0  0  0  0
   12.0040  -14.7690   16.5780 O   0  0  0  0  0  0  0  0  0  0  0  0
   13.6590  -16.2540   16.0250 O   0  0  0  0  0  0  0  0  0  0  0  0
   13.6830  -17.4110   15.1800 C   0  0  0  0  0  0  0  0  0  0  0  0
   15.0450  -17.5640   14.5710 C   0  0  0  0  0  0  0  0  0  0  0  0
   15.2910  -17.2390   13.2340 C   0  0  0  0  0  0  0  0  0  0  0  0
   16.5730  -17.3810   12.7130 C   0  0  0  0  0  0  0  0  0  0  0  0
   17.5740  -17.8390   13.5530 C   0  0  0  0  0  0  0  0  0  0  0  0
   17.3800  -18.1520   14.8520 N   0  0  0  0  0  0  0  0  0  0  0  0
   16.1240  -18.0020   15.3330 C   0  0  0  0  0  0  0  0  0  0  0  0
   13.1660  -13.1810   12.1670 C   0  0  0  0  0  0  0  0  0  0  0  0
   13.8230  -12.0480   11.6850 C   0  0  0  0  0  0  0  0  0  0  0  0
   16.0690   -6.9920   11.7230 C   0  0  0  0  0  0  0  0  0  0  0  0
   17.0450   -6.0370   11.4100 C   0  0  0  0  0  0  0  0  0  0  0  0
   19.2370   -4.4470   11.3810 H   0  0  0  0  0  0  0  0  0  0  0  0
   20.2640   -5.7080   10.7790 H   0  0  0  0  0  0  0  0  0  0  0  0
   19.8346   -7.9279   11.8264 H   0  0  0  0  0  0  0  0  0  0  0  0
   18.1093   -9.6302   12.3900 H   0  0  0  0  0  0  0  0  0  0  0  0
   15.7400   -9.8420   13.2400 H   0  0  0  0  0  0  0  0  0  0  0  0
   12.6425   -9.7366   13.9111 H   0  0  0  0  0  0  0  0  0  0  0  0
   11.4728  -11.7630   14.7734 H   0  0  0  0  0  0  0  0  0  0  0  0
   10.8907  -14.0115   14.5761 H   0  0  0  0  0  0  0  0  0  0  0  0
   11.1212  -14.8345   12.9840 H   0  0  0  0  0  0  0  0  0  0  0  0
   13.2000  -15.7580   13.8290 H   0  0  0  0  0  0  0  0  0  0  0  0
   13.4468  -18.3045   15.7766 H   0  0  0  0  0  0  0  0  0  0  0  0
   12.9373  -17.2933   14.3799 H   0  0  0  0  0  0  0  0  0  0  0  0
   14.4735  -16.8722   12.5959 H   0  0  0  0  0  0  0  0  0  0  0  0
   16.7858  -17.1360   11.6620 H   0  0  0  0  0  0  0  0  0  0  0  0
   18.5861  -17.9546   13.1379 H   0  0  0  0  0  0  0  0  0  0  0  0
   15.9449  -18.2410   16.3917 H   0  0  0  0  0  0  0  0  0  0  0  0
   13.3259  -14.1541   11.6796 H   0  0  0  0  0  0  0  0  0  0  0  0
   14.5004  -12.1326   10.8225 H   0  0  0  0  0  0  0  0  0  0  0  0
   15.0042   -6.7186   11.6837 H   0  0  0  0  0  0  0  0  0  0  0  0
   16.7353   -5.0226   11.1184 H   0  0  0  0  0  0  0  0  0  0  0  0
  1  2  1  0
  2  3  2  0
  3  4  1  0
  4  5  2  0
  5  6  1  0
  6  7  1  0
  7  8  2  0
  7  9  1  0
  9 10  2  0
 10 11  1  0
 11 12  2  0
 12 13  1  0
 13 14  1  0
 14 15  1  0
 15 16  2  0
 15 17  1  0
 17 18  1  0
 18 19  1  0
 19 20  2  0
 20 21  1  0
 21 22  2  0
 22 23  1  0
 23 24  2  0
 12 25  1  0
 25 26  2  0
  5 27  1  0
 27 28  2  0
 28  2  1  0
 26  9  1  0
 24 19  1  0
  1 29  1  0
  1 30  1  0
  3 31  1  0
  4 32  1  0
  6 33  1  0
 10 34  1  0
 11 35  1  0
 13 36  1  0
 13 37  1  0
 14 38  1  0
 18 39  1  0
 18 40  1  0
 20 41  1  0
 21 42  1  0
 22 43  1  0
 24 44  1  0
 25 45  1  0
 26 46  1  0
 27 47  1  0
 28 48  1  0
M  END
>  <meeko>  (5) 
{"is_sidechain": [false], "free_energy": -7.175, "intermolecular_energy": -10.38, "internal_energy": -0.612}

$$$$
LIB_RUMZIRSAOXCPII__M_PUB_ALL__e8__s20260927
     RDKit          3D

 48 50  0  0  0  0  0  0  0  0999 V2000
   13.8510  -11.4850   -1.6360 N   0  0  0  0  0  0  0  0  0  0  0  0
   12.6090  -11.8720   -1.1680 C   0  0  0  0  0  0  0  0  0  0  0  0
   11.6100  -12.2760   -2.0520 C   0  0  0  0  0  0  0  0  0  0  0  0
   10.3400  -12.6320   -1.5810 C   0  0  0  0  0  0  0  0  0  0  0  0
   10.0440  -12.5790   -0.2150 C   0  0  0  0  0  0  0  0  0  0  0  0
    8.7410  -12.9490    0.1790 N   0  0  0  0  0  0  0  0  0  0  0  0
    7.7410  -12.1200    0.6530 C   0  0  0  0  0  0  0  0  0  0  0  0
    7.8270  -10.9220    0.8960 O   0  0  0  0  0  0  0  0  0  0  0  0
    6.4430  -12.8000    0.9230 C   0  0  0  0  0  0  0  0  0  0  0  0
    6.3760  -14.1670    1.2170 C   0  0  0  0  0  0  0  0  0  0  0  0
    5.1370  -14.7680    1.4580 C   0  0  0  0  0  0  0  0  0  0  0  0
    3.9550  -14.0140    1.4080 C   0  0  0  0  0  0  0  0  0  0  0  0
    2.6220  -14.6740    1.6340 C   0  0  0  0  0  0  0  0  0  0  0  0
    1.6390  -13.7130    2.0530 N   0  0  0  0  0  0  0  0  0  0  0  0
    0.5160  -13.4740    1.3290 C   0  0  0  0  0  0  0  0  0  0  0  0
    0.2260  -14.0280    0.2800 O   0  0  0  0  0  0  0  0  0  0  0  0
   -0.2220  -12.5280    1.9530 O   0  0  0  0  0  0  0  0  0  0  0  0
   -1.6030  -12.8550    2.1450 C   0  0  0  0  0  0  0  0  0  0  0  0
   -2.4460  -12.0800    1.1760 C   0  0  0  0  0  0  0  0  0  0  0  0
   -3.4220  -12.7030    0.3930 C   0  0  0  0  0  0  0  0  0  0  0  0
   -4.1930  -11.9440   -0.4830 C   0  0  0  0  0  0  0  0  0  0  0  0
   -3.9660  -10.5790   -0.5410 C   0  0  0  0  0  0  0  0  0  0  0  0
   -3.0420   -9.9400    0.2070 N   0  0  0  0  0  0  0  0  0  0  0  0
   -2.3080  -10.7010    1.0510 C   0  0  0  0  0  0  0  0  0  0  0  0
    4.0290  -12.6510    1.0850 C   0  0  0  0  0  0  0  0  0  0  0  0
    5.2650  -12.0480    0.8420 C   0  0  0  0  0  0  0  0  0  0  0  0
   11.0360  -12.1550    0.6670 C   0  0  0  0  0  0  0  0  0  0  0  0
   12.3050  -11.7990    0.1900 C   0  0  0  0  0  0  0  0  0  0  0  0
   14.6890  -11.8800   -1.2320 H   0  0  0  0  0  0  0  0  0  0  0  0
   13.9350  -10.9680   -2.4990 H   0  0  0  0  0  0  0  0  0  0  0  0
   11.8213  -12.3156   -3.1308 H   0  0  0  0  0  0  0  0  0  0  0  0
    9.5670  -12.9568   -2.2930 H   0  0  0  0  0  0  0  0  0  0  0  0
    8.5400  -13.9390    0.1470 H   0  0  0  0  0  0  0  0  0  0  0  0
    7.2968  -14.7673    1.2583 H   0  0  0  0  0  0  0  0  0  0  0  0
    5.0884  -15.8424    1.6890 H   0  0  0  0  0  0  0  0  0  0  0  0
    2.2894  -15.1444    0.6969 H   0  0  0  0  0  0  0  0  0  0  0  0
    2.7337  -15.4305    2.4247 H   0  0  0  0  0  0  0  0  0  0  0  0
    1.7590  -13.1890    2.9080 H   0  0  0  0  0  0  0  0  0  0  0  0
   -1.7503  -13.9322    1.9776 H   0  0  0  0  0  0  0  0  0  0  0  0
   -1.8988  -12.5968    3.1725 H   0  0  0  0  0  0  0  0  0  0  0  0
   -3.5802  -13.7889    0.4687 H   0  0  0  0  0  0  0  0  0  0  0  0
   -4.9620  -12.4158   -1.1123 H   0  0  0  0  0  0  0  0  0  0  0  0
   -4.5736   -9.9814   -1.2365 H   0  0  0  0  0  0  0  0  0  0  0  0
   -1.5558  -10.1987    1.6770 H   0  0  0  0  0  0  0  0  0  0  0  0
    3.1077  -12.0533    1.0227 H   0  0  0  0  0  0  0  0  0  0  0  0
    5.3130  -10.9792    0.5863 H   0  0  0  0  0  0  0  0  0  0  0  0
   10.8218  -12.0993    1.7445 H   0  0  0  0  0  0  0  0  0  0  0  0
   13.0732  -11.4565    0.8989 H   0  0  0  0  0  0  0  0  0  0  0  0
  1  2  1  0
  2  3  2  0
  3  4  1  0
  4  5  2  0
  5  6  1  0
  6  7  1  0
  7  8  2  0
  7  9  1  0
  9 10  2  0
 10 11  1  0
 11 12  2  0
 12 13  1  0
 13 14  1  0
 14 15  1  0
 15 16  2  0
 15 17  1  0
 17 18  1  0
 18 19  1  0
 19 20  2  0
 20 21  1  0
 21 22  2  0
 22 23  1  0
 23 24  2  0
 12 25  1  0
 25 26  2  0
  5 27  1  0
 27 28  2  0
 28  2  1  0
 26  9  1  0
 24 19  1  0
  1 29  1  0
  1 30  1  0
  3 31  1  0
  4 32  1  0
  6 33  1  0
 10 34  1  0
 11 35  1  0
 13 36  1  0
 13 37  1  0
 14 38  1  0
 18 39  1  0
 18 40  1  0
 20 41  1  0
 21 42  1  0
 22 43  1  0
 24 44  1  0
 25 45  1  0
 26 46  1  0
 27 47  1  0
 28 48  1  0
M  END
>  <meeko>  (6) 
{"is_sidechain": [false], "free_energy": -7.098, "intermolecular_energy": -10.181, "internal_energy": -0.698}

$$$$
LIB_RUMZIRSAOXCPII__M_PUB_ALL__e8__s20260927
     RDKit          3D

 48 50  0  0  0  0  0  0  0  0999 V2000
   10.2400  -17.4390   12.8470 N   0  0  0  0  0  0  0  0  0  0  0  0
   10.7850  -16.1720   12.7540 C   0  0  0  0  0  0  0  0  0  0  0  0
   11.8310  -15.7830   13.5890 C   0  0  0  0  0  0  0  0  0  0  0  0
   12.3570  -14.4880   13.5210 C   0  0  0  0  0  0  0  0  0  0  0  0
   11.8380  -13.5520   12.6210 C   0  0  0  0  0  0  0  0  0  0  0  0
   12.4190  -12.2670   12.6160 N   0  0  0  0  0  0  0  0  0  0  0  0
   13.6180  -11.8910   12.0410 C   0  0  0  0  0  0  0  0  0  0  0  0
   14.4400  -12.6210   11.4990 O   0  0  0  0  0  0  0  0  0  0  0  0
   13.9320  -10.4370   12.1460 C   0  0  0  0  0  0  0  0  0  0  0  0
   13.7580   -9.5680   11.0630 C   0  0  0  0  0  0  0  0  0  0  0  0
   14.0690   -8.2120   11.2000 C   0  0  0  0  0  0  0  0  0  0  0  0
   14.5580   -7.7110   12.4160 C   0  0  0  0  0  0  0  0  0  0  0  0
   14.9250   -6.2580   12.5470 C   0  0  0  0  0  0  0  0  0  0  0  0
   16.3370   -6.1040   12.7700 N   0  0  0  0  0  0  0  0  0  0  0  0
   17.2300   -6.1050   11.7480 C   0  0  0  0  0  0  0  0  0  0  0  0
   16.9440   -6.2320   10.5670 O   0  0  0  0  0  0  0  0  0  0  0  0
   18.4770   -5.9470   12.2460 O   0  0  0  0  0  0  0  0  0  0  0  0
   19.3070   -7.1130   12.2060 C   0  0  0  0  0  0  0  0  0  0  0  0
   19.0190   -7.9800   13.3960 C   0  0  0  0  0  0  0  0  0  0  0  0
   18.3140   -9.1800   13.2760 C   0  0  0  0  0  0  0  0  0  0  0  0
   18.0830   -9.9620   14.4040 C   0  0  0  0  0  0  0  0  0  0  0  0
   18.5750   -9.5180   15.6200 C   0  0  0  0  0  0  0  0  0  0  0  0
   19.2700   -8.3710   15.7750 N   0  0  0  0  0  0  0  0  0  0  0  0
   19.4820   -7.6320   14.6620 C   0  0  0  0  0  0  0  0  0  0  0  0
   14.7560   -8.5950   13.4870 C   0  0  0  0  0  0  0  0  0  0  0  0
   14.4470   -9.9500   13.3520 C   0  0  0  0  0  0  0  0  0  0  0  0
   10.7780  -13.9330   11.7990 C   0  0  0  0  0  0  0  0  0  0  0  0
   10.2540  -15.2310   11.8730 C   0  0  0  0  0  0  0  0  0  0  0  0
    9.8760  -17.7690   13.7310 H   0  0  0  0  0  0  0  0  0  0  0  0
   10.0190  -17.9640   12.0140 H   0  0  0  0  0  0  0  0  0  0  0  0
   12.2478  -16.5021   14.3096 H   0  0  0  0  0  0  0  0  0  0  0  0
   13.1881  -14.2031   14.1830 H   0  0  0  0  0  0  0  0  0  0  0  0
   11.9130  -11.5580   13.1300 H   0  0  0  0  0  0  0  0  0  0  0  0
   13.3769   -9.9515   10.1050 H   0  0  0  0  0  0  0  0  0  0  0  0
   13.9291   -7.5317   10.3470 H   0  0  0  0  0  0  0  0  0  0  0  0
   14.6468   -5.7314   11.6222 H   0  0  0  0  0  0  0  0  0  0  0  0
   14.3850   -5.8351   13.4070 H   0  0  0  0  0  0  0  0  0  0  0  0
   16.7020   -5.9870   13.7050 H   0  0  0  0  0  0  0  0  0  0  0  0
   19.1010   -7.6770   11.2843 H   0  0  0  0  0  0  0  0  0  0  0  0
   20.3639   -6.8085   12.2245 H   0  0  0  0  0  0  0  0  0  0  0  0
   17.9426   -9.5059   12.2932 H   0  0  0  0  0  0  0  0  0  0  0  0
   17.5248  -10.9071   14.3316 H   0  0  0  0  0  0  0  0  0  0  0  0
   18.3888  -10.1355   16.5110 H   0  0  0  0  0  0  0  0  0  0  0  0
   20.0554   -6.6988   14.7634 H   0  0  0  0  0  0  0  0  0  0  0  0
   15.1573   -8.2183   14.4394 H   0  0  0  0  0  0  0  0  0  0  0  0
   14.6090  -10.6363   14.1962 H   0  0  0  0  0  0  0  0  0  0  0  0
   10.3504  -13.2106   11.0882 H   0  0  0  0  0  0  0  0  0  0  0  0
    9.4102  -15.5117   11.2255 H   0  0  0  0  0  0  0  0  0  0  0  0
  1  2  1  0
  2  3  2  0
  3  4  1  0
  4  5  2  0
  5  6  1  0
  6  7  1  0
  7  8  2  0
  7  9  1  0
  9 10  2  0
 10 11  1  0
 11 12  2  0
 12 13  1  0
 13 14  1  0
 14 15  1  0
 15 16  2  0
 15 17  1  0
 17 18  1  0
 18 19  1  0
 19 20  2  0
 20 21  1  0
 21 22  2  0
 22 23  1  0
 23 24  2  0
 12 25  1  0
 25 26  2  0
  5 27  1  0
 27 28  2  0
 28  2  1  0
 26  9  1  0
 24 19  1  0
  1 29  1  0
  1 30  1  0
  3 31  1  0
  4 32  1  0
  6 33  1  0
 10 34  1  0
 11 35  1  0
 13 36  1  0
 13 37  1  0
 14 38  1  0
 18 39  1  0
 18 40  1  0
 20 41  1  0
 21 42  1  0
 22 43  1  0
 24 44  1  0
 25 45  1  0
 26 46  1  0
 27 47  1  0
 28 48  1  0
M  END
>  <meeko>  (7) 
{"is_sidechain": [false], "free_energy": -7.095, "intermolecular_energy": -9.58, "internal_energy": -1.295}

$$$$
LIB_RUMZIRSAOXCPII__M_PUB_ALL__e8__s20260927
     RDKit          3D

 48 50  0  0  0  0  0  0  0  0999 V2000
   14.4030  -11.4720   -2.3950 N   0  0  0  0  0  0  0  0  0  0  0  0
   13.2000  -11.8260   -1.8120 C   0  0  0  0  0  0  0  0  0  0  0  0
   12.2240  -12.4990   -2.5460 C   0  0  0  0  0  0  0  0  0  0  0  0
   10.9910  -12.8230   -1.9670 C   0  0  0  0  0  0  0  0  0  0  0  0
   10.7080  -12.4690   -0.6440 C   0  0  0  0  0  0  0  0  0  0  0  0
    9.4420  -12.8270   -0.1360 N   0  0  0  0  0  0  0  0  0  0  0  0
    8.2040  -12.4920   -0.6540 C   0  0  0  0  0  0  0  0  0  0  0  0
    7.9760  -11.7530   -1.6050 O   0  0  0  0  0  0  0  0  0  0  0  0
    7.0440  -13.0800    0.0730 C   0  0  0  0  0  0  0  0  0  0  0  0
    6.5450  -14.3490   -0.2430 C   0  0  0  0  0  0  0  0  0  0  0  0
    5.4500  -14.8630    0.4580 C   0  0  0  0  0  0  0  0  0  0  0  0
    4.8430  -14.1170    1.4790 C   0  0  0  0  0  0  0  0  0  0  0  0
    3.6430  -14.6600    2.2060 C   0  0  0  0  0  0  0  0  0  0  0  0
    2.4640  -13.9000    1.8910 N   0  0  0  0  0  0  0  0  0  0  0  0
    1.6490  -14.2360    0.8580 C   0  0  0  0  0  0  0  0  0  0  0  0
    1.8180  -15.1860    0.1110 O   0  0  0  0  0  0  0  0  0  0  0  0
    0.6280  -13.3510    0.7930 O   0  0  0  0  0  0  0  0  0  0  0  0
    1.0110  -11.9840    0.6080 C   0  0  0  0  0  0  0  0  0  0  0  0
    0.0620  -11.0880    1.3480 C   0  0  0  0  0  0  0  0  0  0  0  0
   -0.7690  -11.5760    2.3600 C   0  0  0  0  0  0  0  0  0  0  0  0
   -1.6220  -10.7070    3.0320 C   0  0  0  0  0  0  0  0  0  0  0  0
   -1.6120   -9.3700    2.6720 C   0  0  0  0  0  0  0  0  0  0  0  0
   -0.8160   -8.8580    1.7100 N   0  0  0  0  0  0  0  0  0  0  0  0
    0.0060   -9.7250    1.0740 C   0  0  0  0  0  0  0  0  0  0  0  0
    5.3310  -12.8340    1.7690 C   0  0  0  0  0  0  0  0  0  0  0  0
    6.4230  -12.3190    1.0700 C   0  0  0  0  0  0  0  0  0  0  0  0
   11.6740  -11.7760    0.0840 C   0  0  0  0  0  0  0  0  0  0  0  0
   12.9070  -11.4540   -0.5010 C   0  0  0  0  0  0  0  0  0  0  0  0
   14.4150  -11.0490   -3.3130 H   0  0  0  0  0  0  0  0  0  0  0  0
   15.2500  -11.4450   -1.8450 H   0  0  0  0  0  0  0  0  0  0  0  0
   12.4248  -12.7783   -3.5908 H   0  0  0  0  0  0  0  0  0  0  0  0
   10.2367  -13.3619   -2.5592 H   0  0  0  0  0  0  0  0  0  0  0  0
    9.4510  -13.3520    0.7280 H   0  0  0  0  0  0  0  0  0  0  0  0
    7.0141  -14.9415   -1.0423 H   0  0  0  0  0  0  0  0  0  0  0  0
    5.0612  -15.8609    0.2067 H   0  0  0  0  0  0  0  0  0  0  0  0
    3.4860  -15.7075    1.9093 H   0  0  0  0  0  0  0  0  0  0  0  0
    3.8269  -14.5902    3.2883 H   0  0  0  0  0  0  0  0  0  0  0  0
    2.2100  -13.0890    2.4370 H   0  0  0  0  0  0  0  0  0  0  0  0
    2.0304  -11.8346    0.9933 H   0  0  0  0  0  0  0  0  0  0  0  0
    0.9816  -11.7395   -0.4641 H   0  0  0  0  0  0  0  0  0  0  0  0
   -0.7486  -12.6436    2.6242 H   0  0  0  0  0  0  0  0  0  0  0  0
   -2.2870  -11.0722    3.8285 H   0  0  0  0  0  0  0  0  0  0  0  0
   -2.2920   -8.6858    3.2006 H   0  0  0  0  0  0  0  0  0  0  0  0
    0.6705   -9.3277    0.2926 H   0  0  0  0  0  0  0  0  0  0  0  0
    4.8496  -12.2303    2.5525 H   0  0  0  0  0  0  0  0  0  0  0  0
    6.7973  -11.3113    1.3033 H   0  0  0  0  0  0  0  0  0  0  0  0
   11.4678  -11.4801    1.1232 H   0  0  0  0  0  0  0  0  0  0  0  0
   13.6551  -10.8989    0.0841 H   0  0  0  0  0  0  0  0  0  0  0  0
  1  2  1  0
  2  3  2  0
  3  4  1  0
  4  5  2  0
  5  6  1  0
  6  7  1  0
  7  8  2  0
  7  9  1  0
  9 10  2  0
 10 11  1  0
 11 12  2  0
 12 13  1  0
 13 14  1  0
 14 15  1  0
 15 16  2  0
 15 17  1  0
 17 18  1  0
 18 19  1  0
 19 20  2  0
 20 21  1  0
 21 22  2  0
 22 23  1  0
 23 24  2  0
 12 25  1  0
 25 26  2  0
  5 27  1  0
 27 28  2  0
 28  2  1  0
 26  9  1  0
 24 19  1  0
  1 29  1  0
  1 30  1  0
  3 31  1  0
  4 32  1  0
  6 33  1  0
 10 34  1  0
 11 35  1  0
 13 36  1  0
 13 37  1  0
 14 38  1  0
 18 39  1  0
 18 40  1  0
 20 41  1  0
 21 42  1  0
 22 43  1  0
 24 44  1  0
 25 45  1  0
 26 46  1  0
 27 47  1  0
 28 48  1  0
M  END
>  <meeko>  (8) 
{"is_sidechain": [false], "free_energy": -7.047, "intermolecular_energy": -10.062, "internal_energy": -0.744}

$$$$
LIB_RUMZIRSAOXCPII__M_PUB_ALL__e8__s20260927
     RDKit          3D

 48 50  0  0  0  0  0  0  0  0999 V2000
   -9.5120  -15.6670    8.5970 N   0  0  0  0  0  0  0  0  0  0  0  0
   -8.5170  -15.6420    7.6380 C   0  0  0  0  0  0  0  0  0  0  0  0
   -8.6190  -16.4170    6.4840 C   0  0  0  0  0  0  0  0  0  0  0  0
   -7.5930  -16.4210    5.5320 C   0  0  0  0  0  0  0  0  0  0  0  0
   -6.4380  -15.6550    5.7230 C   0  0  0  0  0  0  0  0  0  0  0  0
   -5.4480  -15.7170    4.7200 N   0  0  0  0  0  0  0  0  0  0  0  0
   -4.2940  -16.4790    4.7260 C   0  0  0  0  0  0  0  0  0  0  0  0
   -3.8750  -17.1800    5.6390 O   0  0  0  0  0  0  0  0  0  0  0  0
   -3.4750  -16.3800    3.4840 C   0  0  0  0  0  0  0  0  0  0  0  0
   -2.7680  -17.4790    2.9810 C   0  0  0  0  0  0  0  0  0  0  0  0
   -2.0060  -17.3440    1.8170 C   0  0  0  0  0  0  0  0  0  0  0  0
   -1.9420  -16.1150    1.1440 C   0  0  0  0  0  0  0  0  0  0  0  0
   -1.0930  -15.9670   -0.0890 C   0  0  0  0  0  0  0  0  0  0  0  0
   -0.7180  -14.5930   -0.2920 N   0  0  0  0  0  0  0  0  0  0  0  0
    0.5760  -14.1860   -0.2310 C   0  0  0  0  0  0  0  0  0  0  0  0
    1.5300  -14.9140   -0.0070 O   0  0  0  0  0  0  0  0  0  0  0  0
    0.6330  -12.8540   -0.4560 O   0  0  0  0  0  0  0  0  0  0  0  0
    1.0900  -12.0640    0.6480 C   0  0  0  0  0  0  0  0  0  0  0  0
   -0.0820  -11.4340    1.3390 C   0  0  0  0  0  0  0  0  0  0  0  0
   -0.6310  -11.9840    2.5000 C   0  0  0  0  0  0  0  0  0  0  0  0
   -1.7090  -11.3570    3.1190 C   0  0  0  0  0  0  0  0  0  0  0  0
   -2.1990  -10.1910    2.5560 C   0  0  0  0  0  0  0  0  0  0  0  0
   -1.6890   -9.6220    1.4440 N   0  0  0  0  0  0  0  0  0  0  0  0
   -0.6400  -10.2510    0.8640 C   0  0  0  0  0  0  0  0  0  0  0  0
   -2.6310  -15.0130    1.6710 C   0  0  0  0  0  0  0  0  0  0  0  0
   -3.3920  -15.1440    2.8340 C   0  0  0  0  0  0  0  0  0  0  0  0
   -6.3250  -14.8960    6.8860 C   0  0  0  0  0  0  0  0  0  0  0  0
   -7.3550  -14.8970    7.8370 C   0  0  0  0  0  0  0  0  0  0  0  0
   -9.3220  -16.0480    9.5130 H   0  0  0  0  0  0  0  0  0  0  0  0
  -10.3610  -15.1360    8.4670 H   0  0  0  0  0  0  0  0  0  0  0  0
   -9.5158  -17.0323    6.3196 H   0  0  0  0  0  0  0  0  0  0  0  0
   -7.6959  -17.0330    4.6238 H   0  0  0  0  0  0  0  0  0  0  0  0
   -5.5870  -15.0990    3.9320 H   0  0  0  0  0  0  0  0  0  0  0  0
   -2.8122  -18.4472    3.5012 H   0  0  0  0  0  0  0  0  0  0  0  0
   -1.4515  -18.2094    1.4252 H   0  0  0  0  0  0  0  0  0  0  0  0
   -0.1837  -16.5755    0.0246 H   0  0  0  0  0  0  0  0  0  0  0  0
   -1.6750  -16.3048   -0.9592 H   0  0  0  0  0  0  0  0  0  0  0  0
   -1.4170  -13.8910   -0.4890 H   0  0  0  0  0  0  0  0  0  0  0  0
    1.6309  -12.7067    1.3582 H   0  0  0  0  0  0  0  0  0  0  0  0
    1.7614  -11.2752    0.2778 H   0  0  0  0  0  0  0  0  0  0  0  0
   -0.2130  -12.9091    2.9236 H   0  0  0  0  0  0  0  0  0  0  0  0
   -2.1592  -11.7767    4.0307 H   0  0  0  0  0  0  0  0  0  0  0  0
   -3.0539   -9.6998    3.0437 H   0  0  0  0  0  0  0  0  0  0  0  0
   -0.2018   -9.7993   -0.0382 H   0  0  0  0  0  0  0  0  0  0  0  0
   -2.5714  -14.0385    1.1643 H   0  0  0  0  0  0  0  0  0  0  0  0
   -3.9276  -14.2733    3.2402 H   0  0  0  0  0  0  0  0  0  0  0  0
   -5.4219  -14.2922    7.0590 H   0  0  0  0  0  0  0  0  0  0  0  0
   -7.2449  -14.3007    8.7548 H   0  0  0  0  0  0  0  0  0  0  0  0
  1  2  1  0
  2  3  2  0
  3  4  1  0
  4  5  2  0
  5  6  1  0
  6  7  1  0
  7  8  2  0
  7  9  1  0
  9 10  2  0
 10 11  1  0
 11 12  2  0
 12 13  1  0
 13 14  1  0
 14 15  1  0
 15 16  2  0
 15 17  1  0
 17 18  1  0
 18 19  1  0
 19 20  2  0
 20 21  1  0
 21 22  2  0
 22 23  1  0
 23 24  2  0
 12 25  1  0
 25 26  2  0
  5 27  1  0
 27 28  2  0
 28  2  1  0
 26  9  1  0
 24 19  1  0
  1 29  1  0
  1 30  1  0
  3 31  1  0
  4 32  1  0
  6 33  1  0
 10 34  1  0
 11 35  1  0
 13 36  1  0
 13 37  1  0
 14 38  1  0
 18 39  1  0
 18 40  1  0
 20 41  1  0
 21 42  1  0
 22 43  1  0
 24 44  1  0
 25 45  1  0
 26 46  1  0
 27 47  1  0
 28 48  1  0
M  END
>  <meeko>  (9) 
{"is_sidechain": [false], "free_energy": -7.008, "intermolecular_energy": -9.473, "internal_energy": -1.278}

$$$$
