LIB_OOBVFAPEUYZCPP__M_PUB_ALL__e8__s20260927
     RDKit          3D

 52 55  0  0  0  0  0  0  0  0999 V2000
  -13.4110  -19.7510    6.0910 C   0  0  0  0  0  0  0  0  0  0  0  0
  -11.9900  -19.4800    6.5550 C   0  0  0  0  0  0  0  0  0  0  0  0
  -11.9060  -19.4030    8.0740 C   0  0  0  0  0  0  0  0  0  0  0  0
  -10.5730  -18.3270    8.5950 S   0  0  0  0  0  0  0  0  0  0  0  0
  -10.9080  -17.7940    9.8980 O   0  0  0  0  0  0  0  0  0  0  0  0
   -9.3100  -18.9810    8.3410 O   0  0  0  0  0  0  0  0  0  0  0  0
  -10.7860  -17.0280    7.5200 N   0  0  0  0  0  0  0  0  0  0  0  0
   -9.6260  -16.5750    6.8250 C   0  0  0  0  0  0  0  0  0  0  0  0
   -9.4730  -16.8640    5.4740 C   0  0  0  0  0  0  0  0  0  0  0  0
   -8.3640  -16.3740    4.7830 C   0  0  0  0  0  0  0  0  0  0  0  0
   -7.3980  -15.5780    5.4270 C   0  0  0  0  0  0  0  0  0  0  0  0
   -6.2570  -15.0840    4.6470 C   0  0  0  0  0  0  0  0  0  0  0  0
   -6.3370  -13.8640    3.9660 C   0  0  0  0  0  0  0  0  0  0  0  0
   -5.2640  -13.3640    3.2140 C   0  0  0  0  0  0  0  0  0  0  0  0
   -4.0750  -14.1140    3.1650 C   0  0  0  0  0  0  0  0  0  0  0  0
   -3.9970  -15.3620    3.7870 C   0  0  0  0  0  0  0  0  0  0  0  0
   -2.7370  -15.8670    3.4250 C   0  0  0  0  0  0  0  0  0  0  0  0
   -2.0590  -15.0420    2.6320 N   0  0  0  0  0  0  0  0  0  0  0  0
   -2.8320  -13.9200    2.5570 N   0  0  0  0  0  0  0  0  0  0  0  0
   -2.2940  -12.7600    1.9190 C   0  0  0  0  0  0  0  0  0  0  0  0
   -2.9710  -12.1000    0.8830 C   0  0  0  0  0  0  0  0  0  0  0  0
   -2.4110  -10.9640    0.2890 C   0  0  0  0  0  0  0  0  0  0  0  0
   -1.1860  -10.4810    0.7360 C   0  0  0  0  0  0  0  0  0  0  0  0
   -0.6570   -9.3920    0.1630 F   0  0  0  0  0  0  0  0  0  0  0  0
   -0.5130  -11.1050    1.7760 C   0  0  0  0  0  0  0  0  0  0  0  0
   -1.0680  -12.2380    2.3750 C   0  0  0  0  0  0  0  0  0  0  0  0
   -5.0810  -15.8440    4.5450 C   0  0  0  0  0  0  0  0  0  0  0  0
   -7.5660  -15.2730    6.7970 C   0  0  0  0  0  0  0  0  0  0  0  0
   -6.5720  -14.4150    7.5450 C   0  0  0  0  0  0  0  0  0  0  0  0
   -5.3300  -14.9690    7.6180 F   0  0  0  0  0  0  0  0  0  0  0  0
   -6.9560  -14.1540    8.8250 F   0  0  0  0  0  0  0  0  0  0  0  0
   -6.3860  -13.1910    6.9700 F   0  0  0  0  0  0  0  0  0  0  0  0
   -8.6900  -15.7790    7.4810 C   0  0  0  0  0  0  0  0  0  0  0  0
  -14.0651  -19.8757    6.9665 H   0  0  0  0  0  0  0  0  0  0  0  0
  -13.7666  -18.9045    5.4852 H   0  0  0  0  0  0  0  0  0  0  0  0
  -13.4301  -20.6690    5.4852 H   0  0  0  0  0  0  0  0  0  0  0  0
  -11.3372  -20.2916    6.2012 H   0  0  0  0  0  0  0  0  0  0  0  0
  -11.6695  -18.5125    6.1413 H   0  0  0  0  0  0  0  0  0  0  0  0
  -12.8565  -19.0126    8.4666 H   0  0  0  0  0  0  0  0  0  0  0  0
  -11.7110  -20.4130    8.4637 H   0  0  0  0  0  0  0  0  0  0  0  0
  -11.3030  -16.2950    8.0110 H   0  0  0  0  0  0  0  0  0  0  0  0
  -10.2229  -17.4763    4.9518 H   0  0  0  0  0  0  0  0  0  0  0  0
   -8.2426  -16.6140    3.7164 H   0  0  0  0  0  0  0  0  0  0  0  0
   -7.2679  -13.2807    4.0222 H   0  0  0  0  0  0  0  0  0  0  0  0
   -5.3501  -12.4086    2.6756 H   0  0  0  0  0  0  0  0  0  0  0  0
   -2.3521  -16.8410    3.7615 H   0  0  0  0  0  0  0  0  0  0  0  0
   -3.9448  -12.4766    0.5367 H   0  0  0  0  0  0  0  0  0  0  0  0
   -2.9387  -10.4537   -0.5302 H   0  0  0  0  0  0  0  0  0  0  0  0
    0.4518  -10.7100    2.1268 H   0  0  0  0  0  0  0  0  0  0  0  0
   -0.5435  -12.7265    3.2094 H   0  0  0  0  0  0  0  0  0  0  0  0
   -5.0067  -16.8149    5.0567 H   0  0  0  0  0  0  0  0  0  0  0  0
   -8.8296  -15.5422    8.5461 H   0  0  0  0  0  0  0  0  0  0  0  0
  1  2  1  0
  2  3  1  0
  3  4  1  0
  4  5  2  0
  4  6  2  0
  4  7  1  0
  7  8  1  0
  8  9  2  0
  9 10  1  0
 10 11  2  0
 11 12  1  0
 12 13  2  0
 13 14  1  0
 14 15  2  0
 15 16  1  0
 16 17  1  0
 17 18  2  0
 18 19  1  0
 19 20  1  0
 20 21  2  0
 21 22  1  0
 22 23  2  0
 23 24  1  0
 23 25  1  0
 25 26  2  0
 16 27  2  0
 11 28  1  0
 28 29  1  0
 29 30  1  0
 29 31  1  0
 29 32  1  0
 28 33  2  0
 33  8  1  0
 27 12  1  0
 19 15  1  0
 26 20  1  0
  1 34  1  0
  1 35  1  0
  1 36  1  0
  2 37  1  0
  2 38  1  0
  3 39  1  0
  3 40  1  0
  7 41  1  0
  9 42  1  0
 10 43  1  0
 13 44  1  0
 14 45  1  0
 17 46  1  0
 21 47  1  0
 22 48  1  0
 25 49  1  0
 26 50  1  0
 27 51  1  0
 33 52  1  0
M  END
>  <meeko>  (1) 
{"is_sidechain": [false], "free_energy": -8.202, "intermolecular_energy": -11.558, "internal_energy": -1.478}

$$$$
LIB_OOBVFAPEUYZCPP__M_PUB_ALL__e8__s20260927
     RDKit          3D

 52 55  0  0  0  0  0  0  0  0999 V2000
   15.8330   -3.4600   13.2610 C   0  0  0  0  0  0  0  0  0  0  0  0
   17.3390   -3.2670   13.2920 C   0  0  0  0  0  0  0  0  0  0  0  0
   18.0610   -4.5720   13.6020 C   0  0  0  0  0  0  0  0  0  0  0  0
   19.4160   -4.8480   12.4650 S   0  0  0  0  0  0  0  0  0  0  0  0
   19.8360   -3.5640   11.9440 O   0  0  0  0  0  0  0  0  0  0  0  0
   20.3540   -5.7720   13.0620 O   0  0  0  0  0  0  0  0  0  0  0  0
   18.5940   -5.5970   11.1800 N   0  0  0  0  0  0  0  0  0  0  0  0
   17.5960   -6.5540   11.5300 C   0  0  0  0  0  0  0  0  0  0  0  0
   16.2820   -6.3630   11.1170 C   0  0  0  0  0  0  0  0  0  0  0  0
   15.3180   -7.3280   11.4150 C   0  0  0  0  0  0  0  0  0  0  0  0
   15.6530   -8.5020   12.1150 C   0  0  0  0  0  0  0  0  0  0  0  0
   14.5980   -9.4840   12.3920 C   0  0  0  0  0  0  0  0  0  0  0  0
   14.4980  -10.6530   11.6280 C   0  0  0  0  0  0  0  0  0  0  0  0
   13.5030  -11.6110   11.8670 C   0  0  0  0  0  0  0  0  0  0  0  0
   12.5960  -11.3850   12.9190 C   0  0  0  0  0  0  0  0  0  0  0  0
   12.6420  -10.1970   13.6520 C   0  0  0  0  0  0  0  0  0  0  0  0
   11.5310  -10.2600   14.5100 C   0  0  0  0  0  0  0  0  0  0  0  0
   10.8160  -11.3700   14.3480 N   0  0  0  0  0  0  0  0  0  0  0  0
   11.5260  -12.1110   13.4480 N   0  0  0  0  0  0  0  0  0  0  0  0
   11.1150  -13.4560   13.1930 C   0  0  0  0  0  0  0  0  0  0  0  0
   10.4660  -13.8230   12.0060 C   0  0  0  0  0  0  0  0  0  0  0  0
   10.0850  -15.1520   11.7950 C   0  0  0  0  0  0  0  0  0  0  0  0
   10.3630  -16.1140   12.7600 C   0  0  0  0  0  0  0  0  0  0  0  0
    9.9970  -17.3850   12.5490 F   0  0  0  0  0  0  0  0  0  0  0  0
   11.0270  -15.7750   13.9300 C   0  0  0  0  0  0  0  0  0  0  0  0
   11.4110  -14.4510   14.1450 C   0  0  0  0  0  0  0  0  0  0  0  0
   13.6530   -9.2500   13.4030 C   0  0  0  0  0  0  0  0  0  0  0  0
   16.9930   -8.6990   12.5180 C   0  0  0  0  0  0  0  0  0  0  0  0
   17.4210   -9.9410   13.2630 C   0  0  0  0  0  0  0  0  0  0  0  0
   17.5320  -11.0380   12.4650 F   0  0  0  0  0  0  0  0  0  0  0  0
   16.5650  -10.2780   14.2680 F   0  0  0  0  0  0  0  0  0  0  0  0
   18.6410   -9.8090   13.8630 F   0  0  0  0  0  0  0  0  0  0  0  0
   17.9540   -7.7130   12.2130 C   0  0  0  0  0  0  0  0  0  0  0  0
   15.4484   -3.5093   14.2904 H   0  0  0  0  0  0  0  0  0  0  0  0
   15.3657   -2.6144   12.7351 H   0  0  0  0  0  0  0  0  0  0  0  0
   15.5940   -4.3961   12.7351 H   0  0  0  0  0  0  0  0  0  0  0  0
   17.6727   -2.8978   12.3110 H   0  0  0  0  0  0  0  0  0  0  0  0
   17.5786   -2.5425   14.0842 H   0  0  0  0  0  0  0  0  0  0  0  0
   18.4564   -4.5285   14.6276 H   0  0  0  0  0  0  0  0  0  0  0  0
   17.3444   -5.3999   13.4974 H   0  0  0  0  0  0  0  0  0  0  0  0
   19.2930   -5.9330   10.5130 H   0  0  0  0  0  0  0  0  0  0  0  0
   16.0037   -5.4569   10.5588 H   0  0  0  0  0  0  0  0  0  0  0  0
   14.2773   -7.1677   11.0967 H   0  0  0  0  0  0  0  0  0  0  0  0
   15.2210  -10.8246   10.8169 H   0  0  0  0  0  0  0  0  0  0  0  0
   13.4329  -12.5172   11.2474 H   0  0  0  0  0  0  0  0  0  0  0  0
   11.2793   -9.4749   15.2382 H   0  0  0  0  0  0  0  0  0  0  0  0
   10.2558  -13.0637   11.2384 H   0  0  0  0  0  0  0  0  0  0  0  0
    9.5664  -15.4359   10.8674 H   0  0  0  0  0  0  0  0  0  0  0  0
   11.2493  -16.5451   14.6833 H   0  0  0  0  0  0  0  0  0  0  0  0
   11.9494  -14.1819   15.0657 H   0  0  0  0  0  0  0  0  0  0  0  0
   13.7025   -8.3275   14.0001 H   0  0  0  0  0  0  0  0  0  0  0  0
   19.0001   -7.8617   12.5188 H   0  0  0  0  0  0  0  0  0  0  0  0
  1  2  1  0
  2  3  1  0
  3  4  1  0
  4  5  2  0
  4  6  2  0
  4  7  1  0
  7  8  1  0
  8  9  2  0
  9 10  1  0
 10 11  2  0
 11 12  1  0
 12 13  2  0
 13 14  1  0
 14 15  2  0
 15 16  1  0
 16 17  1  0
 17 18  2  0
 18 19  1  0
 19 20  1  0
 20 21  2  0
 21 22  1  0
 22 23  2  0
 23 24  1  0
 23 25  1  0
 25 26  2  0
 16 27  2  0
 11 28  1  0
 28 29  1  0
 29 30  1  0
 29 31  1  0
 29 32  1  0
 28 33  2  0
 33  8  1  0
 27 12  1  0
 19 15  1  0
 26 20  1  0
  1 34  1  0
  1 35  1  0
  1 36  1  0
  2 37  1  0
  2 38  1  0
  3 39  1  0
  3 40  1  0
  7 41  1  0
  9 42  1  0
 10 43  1  0
 13 44  1  0
 14 45  1  0
 17 46  1  0
 21 47  1  0
 22 48  1  0
 25 49  1  0
 26 50  1  0
 27 51  1  0
 33 52  1  0
M  END
>  <meeko>  (2) 
{"is_sidechain": [false], "free_energy": -8.039, "intermolecular_energy": -11.434, "internal_energy": -1.374}

$$$$
LIB_OOBVFAPEUYZCPP__M_PUB_ALL__e8__s20260927
     RDKit          3D

 52 55  0  0  0  0  0  0  0  0999 V2000
   11.6930  -13.5330   -0.3970 C   0  0  0  0  0  0  0  0  0  0  0  0
   10.9420  -12.6240   -1.3540 C   0  0  0  0  0  0  0  0  0  0  0  0
    9.4530  -12.9460   -1.3740 C   0  0  0  0  0  0  0  0  0  0  0  0
    8.6670  -12.2890   -2.8420 S   0  0  0  0  0  0  0  0  0  0  0  0
    9.6430  -11.4970   -3.5590 O   0  0  0  0  0  0  0  0  0  0  0  0
    7.9160  -13.3410   -3.4890 O   0  0  0  0  0  0  0  0  0  0  0  0
    7.6080  -11.1570   -2.1450 N   0  0  0  0  0  0  0  0  0  0  0  0
    6.2810  -11.6050   -1.8740 C   0  0  0  0  0  0  0  0  0  0  0  0
    6.0420  -12.4350   -0.7850 C   0  0  0  0  0  0  0  0  0  0  0  0
    4.7350  -12.8280   -0.4890 C   0  0  0  0  0  0  0  0  0  0  0  0
    3.6480  -12.3870   -1.2670 C   0  0  0  0  0  0  0  0  0  0  0  0
    2.2960  -12.8270   -0.9030 C   0  0  0  0  0  0  0  0  0  0  0  0
    1.5840  -12.1700    0.1080 C   0  0  0  0  0  0  0  0  0  0  0  0
    0.2910  -12.5650    0.4780 C   0  0  0  0  0  0  0  0  0  0  0  0
   -0.3010  -13.6420   -0.2050 C   0  0  0  0  0  0  0  0  0  0  0  0
    0.4150  -14.3480   -1.1740 C   0  0  0  0  0  0  0  0  0  0  0  0
   -0.4240  -15.4130   -1.5400 C   0  0  0  0  0  0  0  0  0  0  0  0
   -1.5730  -15.4180   -0.8690 N   0  0  0  0  0  0  0  0  0  0  0  0
   -1.5450  -14.2730   -0.1270 N   0  0  0  0  0  0  0  0  0  0  0  0
   -2.7270  -13.8850    0.5780 C   0  0  0  0  0  0  0  0  0  0  0  0
   -3.0100  -14.3520    1.8690 C   0  0  0  0  0  0  0  0  0  0  0  0
   -4.1760  -13.9440    2.5250 C   0  0  0  0  0  0  0  0  0  0  0  0
   -5.0500  -13.0630    1.8990 C   0  0  0  0  0  0  0  0  0  0  0  0
   -6.1630  -12.6750    2.5340 F   0  0  0  0  0  0  0  0  0  0  0  0
   -4.7760  -12.5700    0.6310 C   0  0  0  0  0  0  0  0  0  0  0  0
   -3.6120  -12.9720   -0.0270 C   0  0  0  0  0  0  0  0  0  0  0  0
    1.7100  -13.9320   -1.5390 C   0  0  0  0  0  0  0  0  0  0  0  0
    3.8950  -11.5300   -2.3630 C   0  0  0  0  0  0  0  0  0  0  0  0
    2.7720  -11.0120   -3.2310 C   0  0  0  0  0  0  0  0  0  0  0  0
    1.8070  -10.3550   -2.5300 F   0  0  0  0  0  0  0  0  0  0  0  0
    2.1410  -12.0000   -3.9260 F   0  0  0  0  0  0  0  0  0  0  0  0
    3.1970  -10.1240   -4.1780 F   0  0  0  0  0  0  0  0  0  0  0  0
    5.2210  -11.1450   -2.6500 C   0  0  0  0  0  0  0  0  0  0  0  0
   11.4581  -13.2486    0.6393 H   0  0  0  0  0  0  0  0  0  0  0  0
   11.3901  -14.5765   -0.5686 H   0  0  0  0  0  0  0  0  0  0  0  0
   12.7749  -13.4324   -0.5686 H   0  0  0  0  0  0  0  0  0  0  0  0
   11.0780  -11.5796   -1.0366 H   0  0  0  0  0  0  0  0  0  0  0  0
   11.3434  -12.7799   -2.3662 H   0  0  0  0  0  0  0  0  0  0  0  0
    9.3220  -14.0380   -1.3553 H   0  0  0  0  0  0  0  0  0  0  0  0
    8.9852  -12.4835   -0.4924 H   0  0  0  0  0  0  0  0  0  0  0  0
    7.6640  -10.2950   -2.6930 H   0  0  0  0  0  0  0  0  0  0  0  0
    6.8782  -12.7806   -0.1594 H   0  0  0  0  0  0  0  0  0  0  0  0
    4.5518  -13.4939    0.3672 H   0  0  0  0  0  0  0  0  0  0  0  0
    2.0524  -11.3203    0.6263 H   0  0  0  0  0  0  0  0  0  0  0  0
   -0.2478  -12.0447    1.2836 H   0  0  0  0  0  0  0  0  0  0  0  0
   -0.1596  -16.1629   -2.3001 H   0  0  0  0  0  0  0  0  0  0  0  0
   -2.3129  -15.0415    2.3677 H   0  0  0  0  0  0  0  0  0  0  0  0
   -4.4008  -14.3196    3.5342 H   0  0  0  0  0  0  0  0  0  0  0  0
   -5.4709  -11.8675    0.1478 H   0  0  0  0  0  0  0  0  0  0  0  0
   -3.3844  -12.5722   -1.0262 H   0  0  0  0  0  0  0  0  0  0  0  0
    2.2617  -14.4729   -2.3220 H   0  0  0  0  0  0  0  0  0  0  0  0
    5.4200  -10.4728   -3.4977 H   0  0  0  0  0  0  0  0  0  0  0  0
  1  2  1  0
  2  3  1  0
  3  4  1  0
  4  5  2  0
  4  6  2  0
  4  7  1  0
  7  8  1  0
  8  9  2  0
  9 10  1  0
 10 11  2  0
 11 12  1  0
 12 13  2  0
 13 14  1  0
 14 15  2  0
 15 16  1  0
 16 17  1  0
 17 18  2  0
 18 19  1  0
 19 20  1  0
 20 21  2  0
 21 22  1  0
 22 23  2  0
 23 24  1  0
 23 25  1  0
 25 26  2  0
 16 27  2  0
 11 28  1  0
 28 29  1  0
 29 30  1  0
 29 31  1  0
 29 32  1  0
 28 33  2  0
 33  8  1  0
 27 12  1  0
 19 15  1  0
 26 20  1  0
  1 34  1  0
  1 35  1  0
  1 36  1  0
  2 37  1  0
  2 38  1  0
  3 39  1  0
  3 40  1  0
  7 41  1  0
  9 42  1  0
 10 43  1  0
 13 44  1  0
 14 45  1  0
 17 46  1  0
 21 47  1  0
 22 48  1  0
 25 49  1  0
 26 50  1  0
 27 51  1  0
 33 52  1  0
M  END
>  <meeko>  (3) 
{"is_sidechain": [false], "free_energy": -7.88, "intermolecular_energy": -11.245, "internal_energy": -1.339}

$$$$
LIB_OOBVFAPEUYZCPP__M_PUB_ALL__e8__s20260927
     RDKit          3D

 52 55  0  0  0  0  0  0  0  0999 V2000
   -4.3300  -10.6910   -0.8630 C   0  0  0  0  0  0  0  0  0  0  0  0
   -3.0340  -10.3980   -0.1270 C   0  0  0  0  0  0  0  0  0  0  0  0
   -2.7260  -11.4730    0.9080 C   0  0  0  0  0  0  0  0  0  0  0  0
   -0.9920  -11.4660    1.3530 S   0  0  0  0  0  0  0  0  0  0  0  0
   -0.4360  -10.1830    0.9770 O   0  0  0  0  0  0  0  0  0  0  0  0
   -0.8430  -12.0000    2.6870 O   0  0  0  0  0  0  0  0  0  0  0  0
   -0.3760  -12.5640    0.2110 N   0  0  0  0  0  0  0  0  0  0  0  0
    1.0380  -12.5710    0.0280 C   0  0  0  0  0  0  0  0  0  0  0  0
    1.8670  -12.9670    1.0710 C   0  0  0  0  0  0  0  0  0  0  0  0
    3.2480  -13.0250    0.8730 C   0  0  0  0  0  0  0  0  0  0  0  0
    3.8200  -12.7020   -0.3720 C   0  0  0  0  0  0  0  0  0  0  0  0
    5.2770  -12.7890   -0.5230 C   0  0  0  0  0  0  0  0  0  0  0  0
    6.0610  -11.6300   -0.5310 C   0  0  0  0  0  0  0  0  0  0  0  0
    7.4550  -11.6800   -0.6720 C   0  0  0  0  0  0  0  0  0  0  0  0
    8.0700  -12.9390   -0.7930 C   0  0  0  0  0  0  0  0  0  0  0  0
    7.3000  -14.1020   -0.8480 C   0  0  0  0  0  0  0  0  0  0  0  0
    8.2210  -15.1330   -1.0970 C   0  0  0  0  0  0  0  0  0  0  0  0
    9.4710  -14.6920   -1.2100 N   0  0  0  0  0  0  0  0  0  0  0  0
    9.3960  -13.3610   -0.9180 N   0  0  0  0  0  0  0  0  0  0  0  0
   10.6110  -12.6230   -0.7720 C   0  0  0  0  0  0  0  0  0  0  0  0
   11.5530  -12.5290   -1.8070 C   0  0  0  0  0  0  0  0  0  0  0  0
   12.7270  -11.7920   -1.6240 C   0  0  0  0  0  0  0  0  0  0  0  0
   12.9550  -11.1400   -0.4170 C   0  0  0  0  0  0  0  0  0  0  0  0
   14.0810  -10.4340   -0.2510 F   0  0  0  0  0  0  0  0  0  0  0  0
   12.0240  -11.1990    0.6100 C   0  0  0  0  0  0  0  0  0  0  0  0
   10.8490  -11.9320    0.4310 C   0  0  0  0  0  0  0  0  0  0  0  0
    5.9020  -14.0340   -0.6960 C   0  0  0  0  0  0  0  0  0  0  0  0
    2.9710  -12.3160   -1.4340 C   0  0  0  0  0  0  0  0  0  0  0  0
    3.5200  -11.9670   -2.7980 C   0  0  0  0  0  0  0  0  0  0  0  0
    4.1990  -10.7880   -2.8200 F   0  0  0  0  0  0  0  0  0  0  0  0
    2.5500  -11.8730   -3.7500 F   0  0  0  0  0  0  0  0  0  0  0  0
    4.3990  -12.8980   -3.2730 F   0  0  0  0  0  0  0  0  0  0  0  0
    1.5800  -12.2590   -1.2160 C   0  0  0  0  0  0  0  0  0  0  0  0
   -5.1330  -10.8725   -0.1335 H   0  0  0  0  0  0  0  0  0  0  0  0
   -4.5958   -9.8303   -1.4943 H   0  0  0  0  0  0  0  0  0  0  0  0
   -4.1997  -11.5824   -1.4943 H   0  0  0  0  0  0  0  0  0  0  0  0
   -2.2106  -10.3562   -0.8552 H   0  0  0  0  0  0  0  0  0  0  0  0
   -3.1429   -9.4361    0.3954 H   0  0  0  0  0  0  0  0  0  0  0  0
   -3.3284  -11.2863    1.8093 H   0  0  0  0  0  0  0  0  0  0  0  0
   -2.9702  -12.4540    0.4743 H   0  0  0  0  0  0  0  0  0  0  0  0
   -0.9180  -12.4590   -0.6510 H   0  0  0  0  0  0  0  0  0  0  0  0
    1.4372  -13.2335    2.0479 H   0  0  0  0  0  0  0  0  0  0  0  0
    3.9006  -13.3285    1.7048 H   0  0  0  0  0  0  0  0  0  0  0  0
    5.5696  -10.6518   -0.4236 H   0  0  0  0  0  0  0  0  0  0  0  0
    8.0531  -10.7570   -0.6876 H   0  0  0  0  0  0  0  0  0  0  0  0
    7.9387  -16.1922   -1.1888 H   0  0  0  0  0  0  0  0  0  0  0  0
   11.3676  -13.0365   -2.7652 H   0  0  0  0  0  0  0  0  0  0  0  0
   13.4691  -11.7280   -2.4335 H   0  0  0  0  0  0  0  0  0  0  0  0
   12.2100  -10.6725    1.5578 H   0  0  0  0  0  0  0  0  0  0  0  0
   10.1023  -11.9698    1.2378 H   0  0  0  0  0  0  0  0  0  0  0  0
    5.3005  -14.9548   -0.7128 H   0  0  0  0  0  0  0  0  0  0  0  0
    0.9133  -11.9640   -2.0397 H   0  0  0  0  0  0  0  0  0  0  0  0
  1  2  1  0
  2  3  1  0
  3  4  1  0
  4  5  2  0
  4  6  2  0
  4  7  1  0
  7  8  1  0
  8  9  2  0
  9 10  1  0
 10 11  2  0
 11 12  1  0
 12 13  2  0
 13 14  1  0
 14 15  2  0
 15 16  1  0
 16 17  1  0
 17 18  2  0
 18 19  1  0
 19 20  1  0
 20 21  2  0
 21 22  1  0
 22 23  2  0
 23 24  1  0
 23 25  1  0
 25 26  2  0
 16 27  2  0
 11 28  1  0
 28 29  1  0
 29 30  1  0
 29 31  1  0
 29 32  1  0
 28 33  2  0
 33  8  1  0
 27 12  1  0
 19 15  1  0
 26 20  1  0
  1 34  1  0
  1 35  1  0
  1 36  1  0
  2 37  1  0
  2 38  1  0
  3 39  1  0
  3 40  1  0
  7 41  1  0
  9 42  1  0
 10 43  1  0
 13 44  1  0
 14 45  1  0
 17 46  1  0
 21 47  1  0
 22 48  1  0
 25 49  1  0
 26 50  1  0
 27 51  1  0
 33 52  1  0
M  END
>  <meeko>  (4) 
{"is_sidechain": [false], "free_energy": -7.603, "intermolecular_energy": -10.972, "internal_energy": -1.22}

$$$$
LIB_OOBVFAPEUYZCPP__M_PUB_ALL__e8__s20260927
     RDKit          3D

 52 55  0  0  0  0  0  0  0  0999 V2000
   -4.4310  -10.7360   -0.7860 C   0  0  0  0  0  0  0  0  0  0  0  0
   -3.1100  -10.5160   -0.0680 C   0  0  0  0  0  0  0  0  0  0  0  0
   -2.6040  -11.8030    0.5710 C   0  0  0  0  0  0  0  0  0  0  0  0
   -0.8670  -11.6800    0.9860 S   0  0  0  0  0  0  0  0  0  0  0  0
   -0.3470  -10.4660    0.3940 O   0  0  0  0  0  0  0  0  0  0  0  0
   -0.6920  -11.9790    2.3890 O   0  0  0  0  0  0  0  0  0  0  0  0
   -0.2330  -12.9390    0.0370 N   0  0  0  0  0  0  0  0  0  0  0  0
    1.1870  -12.9940   -0.0880 C   0  0  0  0  0  0  0  0  0  0  0  0
    1.7990  -12.4960   -1.2330 C   0  0  0  0  0  0  0  0  0  0  0  0
    3.1920  -12.5010   -1.3300 C   0  0  0  0  0  0  0  0  0  0  0  0
    3.9930  -12.9900   -0.2820 C   0  0  0  0  0  0  0  0  0  0  0  0
    5.4520  -12.9620   -0.4370 C   0  0  0  0  0  0  0  0  0  0  0  0
    6.1620  -11.7680   -0.2660 C   0  0  0  0  0  0  0  0  0  0  0  0
    7.5560  -11.7080   -0.4070 C   0  0  0  0  0  0  0  0  0  0  0  0
    8.2480  -12.8930   -0.7130 C   0  0  0  0  0  0  0  0  0  0  0  0
    7.5530  -14.0810   -0.9470 C   0  0  0  0  0  0  0  0  0  0  0  0
    8.5360  -15.0030   -1.3450 C   0  0  0  0  0  0  0  0  0  0  0  0
    9.7550  -14.4720   -1.3840 N   0  0  0  0  0  0  0  0  0  0  0  0
    9.5980  -13.2080   -0.8940 N   0  0  0  0  0  0  0  0  0  0  0  0
   10.7650  -12.4250   -0.6330 C   0  0  0  0  0  0  0  0  0  0  0  0
   10.9550  -11.7570    0.5850 C   0  0  0  0  0  0  0  0  0  0  0  0
   12.1150  -11.0060    0.8010 C   0  0  0  0  0  0  0  0  0  0  0  0
   13.0870  -10.9310   -0.1900 C   0  0  0  0  0  0  0  0  0  0  0  0
   14.1950  -10.2120    0.0250 F   0  0  0  0  0  0  0  0  0  0  0  0
   12.9290  -11.6060   -1.3920 C   0  0  0  0  0  0  0  0  0  0  0  0
   11.7740  -12.3590   -1.6120 C   0  0  0  0  0  0  0  0  0  0  0  0
    6.1540  -14.1250   -0.7930 C   0  0  0  0  0  0  0  0  0  0  0  0
    3.3670  -13.4800    0.8860 C   0  0  0  0  0  0  0  0  0  0  0  0
    4.1690  -14.0090    2.0520 C   0  0  0  0  0  0  0  0  0  0  0  0
    5.0790  -13.1160    2.5310 F   0  0  0  0  0  0  0  0  0  0  0  0
    4.8620  -15.1420    1.7480 F   0  0  0  0  0  0  0  0  0  0  0  0
    3.3930  -14.3430    3.1260 F   0  0  0  0  0  0  0  0  0  0  0  0
    1.9600  -13.4720    0.9670 C   0  0  0  0  0  0  0  0  0  0  0  0
   -5.2331  -10.8696   -0.0452 H   0  0  0  0  0  0  0  0  0  0  0  0
   -4.6556   -9.8629   -1.4163 H   0  0  0  0  0  0  0  0  0  0  0  0
   -4.3605  -11.6348   -1.4163 H   0  0  0  0  0  0  0  0  0  0  0  0
   -2.3637  -10.1588   -0.7929 H   0  0  0  0  0  0  0  0  0  0  0  0
   -3.2678   -9.7730    0.7277 H   0  0  0  0  0  0  0  0  0  0  0  0
   -3.1791  -11.9985    1.4881 H   0  0  0  0  0  0  0  0  0  0  0  0
   -2.7327  -12.6239   -0.1498 H   0  0  0  0  0  0  0  0  0  0  0  0
   -0.7410  -12.9500   -0.8520 H   0  0  0  0  0  0  0  0  0  0  0  0
    1.1889  -12.1001   -2.0582 H   0  0  0  0  0  0  0  0  0  0  0  0
    3.6715  -12.1158   -2.2420 H   0  0  0  0  0  0  0  0  0  0  0  0
    5.6107  -10.8502   -0.0137 H   0  0  0  0  0  0  0  0  0  0  0  0
    8.0947  -10.7572   -0.2813 H   0  0  0  0  0  0  0  0  0  0  0  0
    8.3205  -16.0517   -1.5973 H   0  0  0  0  0  0  0  0  0  0  0  0
   10.1900  -11.8237    1.3726 H   0  0  0  0  0  0  0  0  0  0  0  0
   12.2580  -10.4754    1.7539 H   0  0  0  0  0  0  0  0  0  0  0  0
   13.7083  -11.5483   -2.1662 H   0  0  0  0  0  0  0  0  0  0  0  0
   11.6516  -12.9055   -2.5588 H   0  0  0  0  0  0  0  0  0  0  0  0
    5.6118  -15.0689   -0.9513 H   0  0  0  0  0  0  0  0  0  0  0  0
    1.4662  -13.8481    1.8751 H   0  0  0  0  0  0  0  0  0  0  0  0
  1  2  1  0
  2  3  1  0
  3  4  1  0
  4  5  2  0
  4  6  2  0
  4  7  1  0
  7  8  1  0
  8  9  2  0
  9 10  1  0
 10 11  2  0
 11 12  1  0
 12 13  2  0
 13 14  1  0
 14 15  2  0
 15 16  1  0
 16 17  1  0
 17 18  2  0
 18 19  1  0
 19 20  1  0
 20 21  2  0
 21 22  1  0
 22 23  2  0
 23 24  1  0
 23 25  1  0
 25 26  2  0
 16 27  2  0
 11 28  1  0
 28 29  1  0
 29 30  1  0
 29 31  1  0
 29 32  1  0
 28 33  2  0
 33  8  1  0
 27 12  1  0
 19 15  1  0
 26 20  1  0
  1 34  1  0
  1 35  1  0
  1 36  1  0
  2 37  1  0
  2 38  1  0
  3 39  1  0
  3 40  1  0
  7 41  1  0
  9 42  1  0
 10 43  1  0
 13 44  1  0
 14 45  1  0
 17 46  1  0
 21 47  1  0
 22 48  1  0
 25 49  1  0
 26 50  1  0
 27 51  1  0
 33 52  1  0
M  END
>  <meeko>  (5) 
{"is_sidechain": [false], "free_energy": -7.522, "intermolecular_energy": -10.855, "internal_energy": -1.224}

$$$$
LIB_OOBVFAPEUYZCPP__M_PUB_ALL__e8__s20260927
     RDKit          3D

 52 55  0  0  0  0  0  0  0  0999 V2000
   12.9600  -10.4040    0.0300 C   0  0  0  0  0  0  0  0  0  0  0  0
   12.6190  -11.8750   -0.1350 C   0  0  0  0  0  0  0  0  0  0  0  0
   11.3530  -12.0630   -0.9620 C   0  0  0  0  0  0  0  0  0  0  0  0
    9.9790  -12.5740    0.0660 S   0  0  0  0  0  0  0  0  0  0  0  0
    9.5740  -13.9000   -0.3510 O   0  0  0  0  0  0  0  0  0  0  0  0
   10.2790  -12.2670    1.4450 O   0  0  0  0  0  0  0  0  0  0  0  0
    8.7600  -11.5400   -0.5120 N   0  0  0  0  0  0  0  0  0  0  0  0
    7.4130  -11.9180   -0.2330 C   0  0  0  0  0  0  0  0  0  0  0  0
    6.9070  -11.7680    1.0530 C   0  0  0  0  0  0  0  0  0  0  0  0
    5.5730  -12.0890    1.3120 C   0  0  0  0  0  0  0  0  0  0  0  0
    4.7230  -12.5500    0.2910 C   0  0  0  0  0  0  0  0  0  0  0  0
    3.3280  -12.8630    0.6210 C   0  0  0  0  0  0  0  0  0  0  0  0
    2.3160  -11.9220    0.3980 C   0  0  0  0  0  0  0  0  0  0  0  0
    0.9740  -12.1910    0.7020 C   0  0  0  0  0  0  0  0  0  0  0  0
    0.6480  -13.4530    1.2310 C   0  0  0  0  0  0  0  0  0  0  0  0
    1.6500  -14.3820    1.5180 C   0  0  0  0  0  0  0  0  0  0  0  0
    0.9840  -15.4500    2.1420 C   0  0  0  0  0  0  0  0  0  0  0  0
   -0.3230  -15.2390    2.2680 N   0  0  0  0  0  0  0  0  0  0  0  0
   -0.5490  -14.0620    1.6150 N   0  0  0  0  0  0  0  0  0  0  0  0
   -1.8990  -13.6420    1.4080 C   0  0  0  0  0  0  0  0  0  0  0  0
   -2.4820  -13.6110    0.1340 C   0  0  0  0  0  0  0  0  0  0  0  0
   -3.8090  -13.1970   -0.0230 C   0  0  0  0  0  0  0  0  0  0  0  0
   -4.5560  -12.8280    1.0900 C   0  0  0  0  0  0  0  0  0  0  0  0
   -5.8260  -12.4350    0.9320 F   0  0  0  0  0  0  0  0  0  0  0  0
   -4.0050  -12.8760    2.3630 C   0  0  0  0  0  0  0  0  0  0  0  0
   -2.6820  -13.2900    2.5250 C   0  0  0  0  0  0  0  0  0  0  0  0
    2.9910  -14.0980    1.1980 C   0  0  0  0  0  0  0  0  0  0  0  0
    5.2380  -12.6850   -1.0180 C   0  0  0  0  0  0  0  0  0  0  0  0
    4.3760  -13.1650   -2.1630 C   0  0  0  0  0  0  0  0  0  0  0  0
    5.0740  -13.3730   -3.3130 F   0  0  0  0  0  0  0  0  0  0  0  0
    3.3720  -12.2970   -2.4700 F   0  0  0  0  0  0  0  0  0  0  0  0
    3.7540  -14.3530   -1.9000 F   0  0  0  0  0  0  0  0  0  0  0  0
    6.5880  -12.3610   -1.2630 C   0  0  0  0  0  0  0  0  0  0  0  0
   13.0169  -10.1587    1.1008 H   0  0  0  0  0  0  0  0  0  0  0  0
   13.9300  -10.1969   -0.4456 H   0  0  0  0  0  0  0  0  0  0  0  0
   12.1801   -9.7912   -0.4456 H   0  0  0  0  0  0  0  0  0  0  0  0
   13.4547  -12.3817   -0.6398 H   0  0  0  0  0  0  0  0  0  0  0  0
   12.4475  -12.3046    0.8630 H   0  0  0  0  0  0  0  0  0  0  0  0
   11.1000  -11.1114   -1.4523 H   0  0  0  0  0  0  0  0  0  0  0  0
   11.5389  -12.8472   -1.7106 H   0  0  0  0  0  0  0  0  0  0  0  0
    8.9530  -11.3460   -1.4980 H   0  0  0  0  0  0  0  0  0  0  0  0
    7.5540  -11.3984    1.8622 H   0  0  0  0  0  0  0  0  0  0  0  0
    5.1798  -11.9793    2.3334 H   0  0  0  0  0  0  0  0  0  0  0  0
    2.5813  -10.9432   -0.0281 H   0  0  0  0  0  0  0  0  0  0  0  0
    0.1949  -11.4335    0.5310 H   0  0  0  0  0  0  0  0  0  0  0  0
    1.4895  -16.3632    2.4893 H   0  0  0  0  0  0  0  0  0  0  0  0
   -1.8943  -13.9132   -0.7454 H   0  0  0  0  0  0  0  0  0  0  0  0
   -4.2607  -13.1635   -1.0254 H   0  0  0  0  0  0  0  0  0  0  0  0
   -4.6068  -12.5897    3.2381 H   0  0  0  0  0  0  0  0  0  0  0  0
   -2.2468  -13.3419    3.5339 H   0  0  0  0  0  0  0  0  0  0  0  0
    3.7746  -14.8432    1.3998 H   0  0  0  0  0  0  0  0  0  0  0  0
    6.9944  -12.4595   -2.2804 H   0  0  0  0  0  0  0  0  0  0  0  0
  1  2  1  0
  2  3  1  0
  3  4  1  0
  4  5  2  0
  4  6  2  0
  4  7  1  0
  7  8  1  0
  8  9  2  0
  9 10  1  0
 10 11  2  0
 11 12  1  0
 12 13  2  0
 13 14  1  0
 14 15  2  0
 15 16  1  0
 16 17  1  0
 17 18  2  0
 18 19  1  0
 19 20  1  0
 20 21  2  0
 21 22  1  0
 22 23  2  0
 23 24  1  0
 23 25  1  0
 25 26  2  0
 16 27  2  0
 11 28  1  0
 28 29  1  0
 29 30  1  0
 29 31  1  0
 29 32  1  0
 28 33  2  0
 33  8  1  0
 27 12  1  0
 19 15  1  0
 26 20  1  0
  1 34  1  0
  1 35  1  0
  1 36  1  0
  2 37  1  0
  2 38  1  0
  3 39  1  0
  3 40  1  0
  7 41  1  0
  9 42  1  0
 10 43  1  0
 13 44  1  0
 14 45  1  0
 17 46  1  0
 21 47  1  0
 22 48  1  0
 25 49  1  0
 26 50  1  0
 27 51  1  0
 33 52  1  0
M  END
>  <meeko>  (6) 
{"is_sidechain": [false], "free_energy": -7.5, "intermolecular_energy": -10.656, "internal_energy": -1.391}

$$$$
LIB_OOBVFAPEUYZCPP__M_PUB_ALL__e8__s20260927
     RDKit          3D

 52 55  0  0  0  0  0  0  0  0999 V2000
    6.6140  -13.9640  -10.0950 C   0  0  0  0  0  0  0  0  0  0  0  0
    7.3900  -13.5550   -8.8550 C   0  0  0  0  0  0  0  0  0  0  0  0
    8.3030  -14.6770   -8.3750 C   0  0  0  0  0  0  0  0  0  0  0  0
    7.8430  -15.2310   -6.7370 S   0  0  0  0  0  0  0  0  0  0  0  0
    6.4920  -15.7460   -6.7990 O   0  0  0  0  0  0  0  0  0  0  0  0
    8.9280  -16.0040   -6.1760 O   0  0  0  0  0  0  0  0  0  0  0  0
    7.7100  -13.7400   -5.9320 N   0  0  0  0  0  0  0  0  0  0  0  0
    6.5930  -13.5810   -5.0590 C   0  0  0  0  0  0  0  0  0  0  0  0
    6.5130  -14.3400   -3.8970 C   0  0  0  0  0  0  0  0  0  0  0  0
    5.4470  -14.1450   -3.0170 C   0  0  0  0  0  0  0  0  0  0  0  0
    4.4550  -13.1810   -3.2760 C   0  0  0  0  0  0  0  0  0  0  0  0
    3.3630  -13.0150   -2.3100 C   0  0  0  0  0  0  0  0  0  0  0  0
    3.4200  -12.0070   -1.3400 C   0  0  0  0  0  0  0  0  0  0  0  0
    2.3930  -11.8220   -0.4040 C   0  0  0  0  0  0  0  0  0  0  0  0
    1.2720  -12.6700   -0.4640 C   0  0  0  0  0  0  0  0  0  0  0  0
    1.2240  -13.7190   -1.3840 C   0  0  0  0  0  0  0  0  0  0  0  0
    0.0460  -14.4180   -1.0740 C   0  0  0  0  0  0  0  0  0  0  0  0
   -0.6090  -13.8920   -0.0430 N   0  0  0  0  0  0  0  0  0  0  0  0
    0.0840  -12.7580    0.2660 N   0  0  0  0  0  0  0  0  0  0  0  0
   -0.4720  -11.8560    1.2260 C   0  0  0  0  0  0  0  0  0  0  0  0
   -0.7500  -12.2500    2.5420 C   0  0  0  0  0  0  0  0  0  0  0  0
   -1.2890  -11.3340    3.4510 C   0  0  0  0  0  0  0  0  0  0  0  0
   -1.5380  -10.0260    3.0510 C   0  0  0  0  0  0  0  0  0  0  0  0
   -2.0530   -9.1540    3.9280 F   0  0  0  0  0  0  0  0  0  0  0  0
   -1.2470   -9.6100    1.7600 C   0  0  0  0  0  0  0  0  0  0  0  0
   -0.7060  -10.5200    0.8490 C   0  0  0  0  0  0  0  0  0  0  0  0
    2.2610  -13.8850   -2.3220 C   0  0  0  0  0  0  0  0  0  0  0  0
    4.5500  -12.4010   -4.4500 C   0  0  0  0  0  0  0  0  0  0  0  0
    3.5250  -11.3420   -4.7830 C   0  0  0  0  0  0  0  0  0  0  0  0
    3.7060  -10.7830   -6.0120 F   0  0  0  0  0  0  0  0  0  0  0  0
    3.5140  -10.3150   -3.8880 F   0  0  0  0  0  0  0  0  0  0  0  0
    2.2460  -11.8220   -4.7910 F   0  0  0  0  0  0  0  0  0  0  0  0
    5.6310  -12.6130   -5.3310 C   0  0  0  0  0  0  0  0  0  0  0  0
    5.6777  -14.4575   -9.7954 H   0  0  0  0  0  0  0  0  0  0  0  0
    6.3824  -13.0708  -10.6938 H   0  0  0  0  0  0  0  0  0  0  0  0
    7.2199  -14.6599  -10.6938 H   0  0  0  0  0  0  0  0  0  0  0  0
    8.0019  -12.6719   -9.0909 H   0  0  0  0  0  0  0  0  0  0  0  0
    6.6698  -13.3286   -8.0550 H   0  0  0  0  0  0  0  0  0  0  0  0
    8.2290  -15.5233   -9.0738 H   0  0  0  0  0  0  0  0  0  0  0  0
    9.3336  -14.2944   -8.3362 H   0  0  0  0  0  0  0  0  0  0  0  0
    7.8180  -12.9960   -6.6270 H   0  0  0  0  0  0  0  0  0  0  0  0
    7.2855  -15.0901   -3.6722 H   0  0  0  0  0  0  0  0  0  0  0  0
    5.3812  -14.7559   -2.1046 H   0  0  0  0  0  0  0  0  0  0  0  0
    4.2954  -11.3415   -1.3116 H   0  0  0  0  0  0  0  0  0  0  0  0
    2.4619  -11.0327    0.3591 H   0  0  0  0  0  0  0  0  0  0  0  0
   -0.2981  -15.3057   -1.6250 H   0  0  0  0  0  0  0  0  0  0  0  0
   -0.5437  -13.2824    2.8607 H   0  0  0  0  0  0  0  0  0  0  0  0
   -1.5155  -11.6479    4.4806 H   0  0  0  0  0  0  0  0  0  0  0  0
   -1.4410   -8.5708    1.4560 H   0  0  0  0  0  0  0  0  0  0  0  0
   -0.4608  -10.1901   -0.1713 H   0  0  0  0  0  0  0  0  0  0  0  0
    2.2078  -14.6957   -3.0636 H   0  0  0  0  0  0  0  0  0  0  0  0
    5.7146  -12.0056   -6.2443 H   0  0  0  0  0  0  0  0  0  0  0  0
  1  2  1  0
  2  3  1  0
  3  4  1  0
  4  5  2  0
  4  6  2  0
  4  7  1  0
  7  8  1  0
  8  9  2  0
  9 10  1  0
 10 11  2  0
 11 12  1  0
 12 13  2  0
 13 14  1  0
 14 15  2  0
 15 16  1  0
 16 17  1  0
 17 18  2  0
 18 19  1  0
 19 20  1  0
 20 21  2  0
 21 22  1  0
 22 23  2  0
 23 24  1  0
 23 25  1  0
 25 26  2  0
 16 27  2  0
 11 28  1  0
 28 29  1  0
 29 30  1  0
 29 31  1  0
 29 32  1  0
 28 33  2  0
 33  8  1  0
 27 12  1  0
 19 15  1  0
 26 20  1  0
  1 34  1  0
  1 35  1  0
  1 36  1  0
  2 37  1  0
  2 38  1  0
  3 39  1  0
  3 40  1  0
  7 41  1  0
  9 42  1  0
 10 43  1  0
 13 44  1  0
 14 45  1  0
 17 46  1  0
 21 47  1  0
 22 48  1  0
 25 49  1  0
 26 50  1  0
 27 51  1  0
 33 52  1  0
M  END
>  <meeko>  (7) 
{"is_sidechain": [false], "free_energy": -7.421, "intermolecular_energy": -10.514, "internal_energy": -1.422}

$$$$
LIB_OOBVFAPEUYZCPP__M_PUB_ALL__e8__s20260927
     RDKit          3D

 52 55  0  0  0  0  0  0  0  0999 V2000
   -3.0730  -10.3150   -0.1750 C   0  0  0  0  0  0  0  0  0  0  0  0
   -2.1570  -10.0710    1.0130 C   0  0  0  0  0  0  0  0  0  0  0  0
   -2.1550  -11.2600    1.9660 C   0  0  0  0  0  0  0  0  0  0  0  0
   -0.8560  -12.4200    1.5520 S   0  0  0  0  0  0  0  0  0  0  0  0
   -0.4910  -13.1360    2.7560 O   0  0  0  0  0  0  0  0  0  0  0  0
   -1.2070  -13.1090    0.3320 O   0  0  0  0  0  0  0  0  0  0  0  0
    0.4350  -11.3500    1.2690 N   0  0  0  0  0  0  0  0  0  0  0  0
    1.4010  -11.7550    0.3010 C   0  0  0  0  0  0  0  0  0  0  0  0
    2.1810  -12.8810    0.5350 C   0  0  0  0  0  0  0  0  0  0  0  0
    3.0880  -13.3070   -0.4380 C   0  0  0  0  0  0  0  0  0  0  0  0
    3.2200  -12.6230   -1.6610 C   0  0  0  0  0  0  0  0  0  0  0  0
    4.1840  -13.1220   -2.6480 C   0  0  0  0  0  0  0  0  0  0  0  0
    3.7530  -13.8870   -3.7380 C   0  0  0  0  0  0  0  0  0  0  0  0
    4.6490  -14.3780   -4.6990 C   0  0  0  0  0  0  0  0  0  0  0  0
    6.0140  -14.0710   -4.5580 C   0  0  0  0  0  0  0  0  0  0  0  0
    6.4710  -13.3610   -3.4460 C   0  0  0  0  0  0  0  0  0  0  0  0
    7.8700  -13.3550   -3.5720 C   0  0  0  0  0  0  0  0  0  0  0  0
    8.2940  -14.0070   -4.6500 N   0  0  0  0  0  0  0  0  0  0  0  0
    7.1540  -14.3560   -5.3140 N   0  0  0  0  0  0  0  0  0  0  0  0
    7.2690  -14.9190   -6.6230 C   0  0  0  0  0  0  0  0  0  0  0  0
    7.3670  -16.3020   -6.8310 C   0  0  0  0  0  0  0  0  0  0  0  0
    7.4730  -16.8120   -8.1300 C   0  0  0  0  0  0  0  0  0  0  0  0
    7.4690  -15.9460   -9.2170 C   0  0  0  0  0  0  0  0  0  0  0  0
    7.5690  -16.4410  -10.4560 F   0  0  0  0  0  0  0  0  0  0  0  0
    7.3480  -14.5750   -9.0330 C   0  0  0  0  0  0  0  0  0  0  0  0
    7.2400  -14.0620   -7.7390 C   0  0  0  0  0  0  0  0  0  0  0  0
    5.5570  -12.8690   -2.4960 C   0  0  0  0  0  0  0  0  0  0  0  0
    2.4120  -11.4890   -1.9000 C   0  0  0  0  0  0  0  0  0  0  0  0
    2.4960  -10.7160   -3.1960 C   0  0  0  0  0  0  0  0  0  0  0  0
    3.7640  -10.3400   -3.5180 F   0  0  0  0  0  0  0  0  0  0  0  0
    1.7460   -9.5790   -3.1840 F   0  0  0  0  0  0  0  0  0  0  0  0
    2.0480  -11.4280   -4.2710 F   0  0  0  0  0  0  0  0  0  0  0  0
    1.5040  -11.0690   -0.9060 C   0  0  0  0  0  0  0  0  0  0  0  0
   -4.0773  -10.5825    0.1852 H   0  0  0  0  0  0  0  0  0  0  0  0
   -3.1335   -9.4017   -0.7850 H   0  0  0  0  0  0  0  0  0  0  0  0
   -2.6711  -11.1374   -0.7850 H   0  0  0  0  0  0  0  0  0  0  0  0
   -1.1332   -9.9036    0.6472 H   0  0  0  0  0  0  0  0  0  0  0  0
   -2.5250   -9.1899    1.5591 H   0  0  0  0  0  0  0  0  0  0  0  0
   -1.9979  -10.8968    2.9924 H   0  0  0  0  0  0  0  0  0  0  0  0
   -3.1227  -11.7761    1.8808 H   0  0  0  0  0  0  0  0  0  0  0  0
    0.8250  -11.0800    2.1760 H   0  0  0  0  0  0  0  0  0  0  0  0
    2.0847  -13.4337    1.4812 H   0  0  0  0  0  0  0  0  0  0  0  0
    3.7105  -14.1932   -0.2450 H   0  0  0  0  0  0  0  0  0  0  0  0
    2.6810  -14.1095   -3.8440 H   0  0  0  0  0  0  0  0  0  0  0  0
    4.2927  -14.9881   -5.5421 H   0  0  0  0  0  0  0  0  0  0  0  0
    8.5433  -12.8629   -2.8547 H   0  0  0  0  0  0  0  0  0  0  0  0
    7.3606  -16.9880   -5.9711 H   0  0  0  0  0  0  0  0  0  0  0  0
    7.5594  -17.8968   -8.2904 H   0  0  0  0  0  0  0  0  0  0  0  0
    7.3373  -13.8983   -9.9001 H   0  0  0  0  0  0  0  0  0  0  0  0
    7.1312  -12.9775   -7.5903 H   0  0  0  0  0  0  0  0  0  0  0  0
    5.9176  -12.2868   -1.6352 H   0  0  0  0  0  0  0  0  0  0  0  0
    0.8695  -10.1888   -1.0866 H   0  0  0  0  0  0  0  0  0  0  0  0
  1  2  1  0
  2  3  1  0
  3  4  1  0
  4  5  2  0
  4  6  2  0
  4  7  1  0
  7  8  1  0
  8  9  2  0
  9 10  1  0
 10 11  2  0
 11 12  1  0
 12 13  2  0
 13 14  1  0
 14 15  2  0
 15 16  1  0
 16 17  1  0
 17 18  2  0
 18 19  1  0
 19 20  1  0
 20 21  2  0
 21 22  1  0
 22 23  2  0
 23 24  1  0
 23 25  1  0
 25 26  2  0
 16 27  2  0
 11 28  1  0
 28 29  1  0
 29 30  1  0
 29 31  1  0
 29 32  1  0
 28 33  2  0
 33  8  1  0
 27 12  1  0
 19 15  1  0
 26 20  1  0
  1 34  1  0
  1 35  1  0
  1 36  1  0
  2 37  1  0
  2 38  1  0
  3 39  1  0
  3 40  1  0
  7 41  1  0
  9 42  1  0
 10 43  1  0
 13 44  1  0
 14 45  1  0
 17 46  1  0
 21 47  1  0
 22 48  1  0
 25 49  1  0
 26 50  1  0
 27 51  1  0
 33 52  1  0
M  END
>  <meeko>  (8) 
{"is_sidechain": [false], "free_energy": -7.353, "intermolecular_energy": -10.357, "internal_energy": -1.483}

$$$$
LIB_OOBVFAPEUYZCPP__M_PUB_ALL__e8__s20260927
     RDKit          3D

 52 55  0  0  0  0  0  0  0  0999 V2000
   -1.1200  -11.7480    3.0640 C   0  0  0  0  0  0  0  0  0  0  0  0
   -0.5720  -12.2620    1.7440 C   0  0  0  0  0  0  0  0  0  0  0  0
   -0.8140  -11.2660    0.6160 C   0  0  0  0  0  0  0  0  0  0  0  0
    0.6760  -10.3550    0.2260 S   0  0  0  0  0  0  0  0  0  0  0  0
    0.6230   -9.9810   -1.1710 O   0  0  0  0  0  0  0  0  0  0  0  0
    0.9230   -9.3820    1.2660 O   0  0  0  0  0  0  0  0  0  0  0  0
    1.8300  -11.6010    0.3040 N   0  0  0  0  0  0  0  0  0  0  0  0
    2.4790  -11.9490   -0.9170 C   0  0  0  0  0  0  0  0  0  0  0  0
    3.8200  -11.6340   -1.1000 C   0  0  0  0  0  0  0  0  0  0  0  0
    4.4680  -12.0240   -2.2730 C   0  0  0  0  0  0  0  0  0  0  0  0
    3.7910  -12.7450   -3.2740 C   0  0  0  0  0  0  0  0  0  0  0  0
    4.5260  -13.1350   -4.4830 C   0  0  0  0  0  0  0  0  0  0  0  0
    4.4600  -12.3490   -5.6390 C   0  0  0  0  0  0  0  0  0  0  0  0
    5.1510  -12.6940   -6.8090 C   0  0  0  0  0  0  0  0  0  0  0  0
    5.9420  -13.8570   -6.8010 C   0  0  0  0  0  0  0  0  0  0  0  0
    5.9730  -14.6860   -5.6780 C   0  0  0  0  0  0  0  0  0  0  0  0
    6.7430  -15.7940   -6.0680 C   0  0  0  0  0  0  0  0  0  0  0  0
    7.1660  -15.7110   -7.3260 N   0  0  0  0  0  0  0  0  0  0  0  0
    6.7660  -14.4750   -7.7450 N   0  0  0  0  0  0  0  0  0  0  0  0
    7.2280  -13.9990   -9.0110 C   0  0  0  0  0  0  0  0  0  0  0  0
    6.3630  -13.8210  -10.0990 C   0  0  0  0  0  0  0  0  0  0  0  0
    6.8560  -13.3470  -11.3190 C   0  0  0  0  0  0  0  0  0  0  0  0
    8.2060  -13.0410  -11.4490 C   0  0  0  0  0  0  0  0  0  0  0  0
    8.6700  -12.5860  -12.6200 F   0  0  0  0  0  0  0  0  0  0  0  0
    9.0740  -13.1870  -10.3770 C   0  0  0  0  0  0  0  0  0  0  0  0
    8.5870  -13.6560   -9.1560 C   0  0  0  0  0  0  0  0  0  0  0  0
    5.2790  -14.3200   -4.5090 C   0  0  0  0  0  0  0  0  0  0  0  0
    2.4320  -13.0780   -3.0760 C   0  0  0  0  0  0  0  0  0  0  0  0
    1.6500  -13.8590   -4.1060 C   0  0  0  0  0  0  0  0  0  0  0  0
    2.3760  -14.8460   -4.7010 F   0  0  0  0  0  0  0  0  0  0  0  0
    1.1660  -13.0750   -5.1100 F   0  0  0  0  0  0  0  0  0  0  0  0
    0.5550  -14.4850   -3.5820 F   0  0  0  0  0  0  0  0  0  0  0  0
    1.7910  -12.6730   -1.8870 C   0  0  0  0  0  0  0  0  0  0  0  0
   -0.5949  -12.2405    3.8957 H   0  0  0  0  0  0  0  0  0  0  0  0
   -0.9666  -10.6605    3.1262 H   0  0  0  0  0  0  0  0  0  0  0  0
   -2.1954  -11.9707    3.1262 H   0  0  0  0  0  0  0  0  0  0  0  0
    0.5102  -12.4302    1.8469 H   0  0  0  0  0  0  0  0  0  0  0  0
   -1.0908  -13.1996    1.4953 H   0  0  0  0  0  0  0  0  0  0  0  0
   -1.1455  -11.8119   -0.2796 H   0  0  0  0  0  0  0  0  0  0  0  0
   -1.5840  -10.5512    0.9419 H   0  0  0  0  0  0  0  0  0  0  0  0
    1.4090  -12.3880    0.8050 H   0  0  0  0  0  0  0  0  0  0  0  0
    4.3683  -11.0798   -0.3239 H   0  0  0  0  0  0  0  0  0  0  0  0
    5.5268  -11.7631   -2.4176 H   0  0  0  0  0  0  0  0  0  0  0  0
    3.8486  -11.4346   -5.6293 H   0  0  0  0  0  0  0  0  0  0  0  0
    5.0763  -12.0700   -7.7118 H   0  0  0  0  0  0  0  0  0  0  0  0
    6.9718  -16.6403   -5.4036 H   0  0  0  0  0  0  0  0  0  0  0  0
    5.2933  -14.0547   -9.9933 H   0  0  0  0  0  0  0  0  0  0  0  0
    6.1767  -13.2165  -12.1743 H   0  0  0  0  0  0  0  0  0  0  0  0
   10.1389  -12.9349  -10.4884 H   0  0  0  0  0  0  0  0  0  0  0  0
    9.2698  -13.7587   -8.2997 H   0  0  0  0  0  0  0  0  0  0  0  0
    5.3266  -14.9617   -3.6168 H   0  0  0  0  0  0  0  0  0  0  0  0
    0.7345  -12.9323   -1.7239 H   0  0  0  0  0  0  0  0  0  0  0  0
  1  2  1  0
  2  3  1  0
  3  4  1  0
  4  5  2  0
  4  6  2  0
  4  7  1  0
  7  8  1  0
  8  9  2  0
  9 10  1  0
 10 11  2  0
 11 12  1  0
 12 13  2  0
 13 14  1  0
 14 15  2  0
 15 16  1  0
 16 17  1  0
 17 18  2  0
 18 19  1  0
 19 20  1  0
 20 21  2  0
 21 22  1  0
 22 23  2  0
 23 24  1  0
 23 25  1  0
 25 26  2  0
 16 27  2  0
 11 28  1  0
 28 29  1  0
 29 30  1  0
 29 31  1  0
 29 32  1  0
 28 33  2  0
 33  8  1  0
 27 12  1  0
 19 15  1  0
 26 20  1  0
  1 34  1  0
  1 35  1  0
  1 36  1  0
  2 37  1  0
  2 38  1  0
  3 39  1  0
  3 40  1  0
  7 41  1  0
  9 42  1  0
 10 43  1  0
 13 44  1  0
 14 45  1  0
 17 46  1  0
 21 47  1  0
 22 48  1  0
 25 49  1  0
 26 50  1  0
 27 51  1  0
 33 52  1  0
M  END
>  <meeko>  (9) 
{"is_sidechain": [false], "free_energy": -7.322, "intermolecular_energy": -10.731, "internal_energy": -1.065}

$$$$
