LIB_OKBVEGJXRLVXHT__M_PUB_ALL__e8__s20260927
     RDKit          3D

 72 75  0  0  0  0  0  0  0  0999 V2000
    9.1110  -12.4670   -3.4040 C   0  0  0  0  0  0  0  0  0  0  0  0
    8.3290  -11.3720   -2.9470 O   0  0  0  0  0  0  0  0  0  0  0  0
    7.0220  -11.6780   -2.7390 C   0  0  0  0  0  0  0  0  0  0  0  0
    6.1170  -11.4630   -3.5400 O   0  0  0  0  0  0  0  0  0  0  0  0
    6.8310  -11.9290   -1.2920 C   0  0  0  0  0  0  0  0  0  0  0  0
    6.9640  -10.7650   -0.5190 C   0  0  0  0  0  0  0  0  0  0  0  0
    7.0100  -10.8670    0.8530 C   0  0  0  0  0  0  0  0  0  0  0  0
    7.0620   -9.7140    1.5970 O   0  0  0  0  0  0  0  0  0  0  0  0
    7.2260   -8.6110    0.7040 C   0  0  0  0  0  0  0  0  0  0  0  0
    7.0520  -12.1240    1.4510 C   0  0  0  0  0  0  0  0  0  0  0  0
    6.9120  -13.3480    0.7450 C   0  0  0  0  0  0  0  0  0  0  0  0
    6.9940  -14.4280    1.4360 O   0  0  0  0  0  0  0  0  0  0  0  0
    6.6800  -13.2120   -0.6950 C   0  0  0  0  0  0  0  0  0  0  0  0
    6.2460  -14.3940   -1.6010 C   0  0  0  0  0  0  0  0  0  0  0  0
    7.0880  -15.2230   -1.9600 O   0  0  0  0  0  0  0  0  0  0  0  0
    4.7510  -14.5230   -2.0870 C   0  0  0  0  0  0  0  0  0  0  0  0
    4.4960  -14.4600   -3.5270 C   0  0  0  0  0  0  0  0  0  0  0  0
    5.3500  -14.3240   -4.4830 O   0  0  0  0  0  0  0  0  0  0  0  0
    3.1330  -14.5110   -3.8770 C   0  0  0  0  0  0  0  0  0  0  0  0
    2.0570  -14.5310   -2.9710 C   0  0  0  0  0  0  0  0  0  0  0  0
    0.6710  -14.4660   -3.5570 C   0  0  0  0  0  0  0  0  0  0  0  0
    2.3110  -14.6000   -1.5840 C   0  0  0  0  0  0  0  0  0  0  0  0
    1.1300  -14.4140   -0.6400 C   0  0  0  0  0  0  0  0  0  0  0  0
    0.5860  -15.5770   -0.2300 C   0  0  0  0  0  0  0  0  0  0  0  0
   -0.5770  -15.6930    0.6890 C   0  0  0  0  0  0  0  0  0  0  0  0
   -0.3540  -16.8820    1.6350 C   0  0  0  0  0  0  0  0  0  0  0  0
   -1.8700  -15.9160   -0.1060 C   0  0  0  0  0  0  0  0  0  0  0  0
   -0.7670  -14.5600    1.5500 O   0  0  0  0  0  0  0  0  0  0  0  0
   -0.3520  -13.3410    1.0680 C   0  0  0  0  0  0  0  0  0  0  0  0
   -0.8590  -12.2230    1.7510 C   0  0  0  0  0  0  0  0  0  0  0  0
   -1.8180  -12.3600    2.9060 C   0  0  0  0  0  0  0  0  0  0  0  0
   -3.2640  -12.3000    2.4820 C   0  0  0  0  0  0  0  0  0  0  0  0
   -4.1940  -13.2750    2.5110 C   0  0  0  0  0  0  0  0  0  0  0  0
   -5.5900  -13.0070    2.0200 C   0  0  0  0  0  0  0  0  0  0  0  0
   -3.9490  -14.6850    2.9650 C   0  0  0  0  0  0  0  0  0  0  0  0
   -0.4470  -10.9400    1.3520 C   0  0  0  0  0  0  0  0  0  0  0  0
    0.4290  -10.6960    0.2810 C   0  0  0  0  0  0  0  0  0  0  0  0
    0.7680   -9.5050   -0.0410 O   0  0  0  0  0  0  0  0  0  0  0  0
    0.8910  -11.8710   -0.3810 C   0  0  0  0  0  0  0  0  0  0  0  0
    0.5500  -13.1930   -0.0010 C   0  0  0  0  0  0  0  0  0  0  0  0
    3.6770  -14.6460   -1.0740 C   0  0  0  0  0  0  0  0  0  0  0  0
    3.9090  -14.7690    0.1910 O   0  0  0  0  0  0  0  0  0  0  0  0
    9.5066  -13.0209   -2.5399 H   0  0  0  0  0  0  0  0  0  0  0  0
    8.4850  -13.1358   -4.0129 H   0  0  0  0  0  0  0  0  0  0  0  0
    9.9468  -12.0919   -4.0129 H   0  0  0  0  0  0  0  0  0  0  0  0
    7.0308   -9.7805   -1.0050 H   0  0  0  0  0  0  0  0  0  0  0  0
    7.3634   -7.6867    1.2843 H   0  0  0  0  0  0  0  0  0  0  0  0
    8.1088   -8.7806    0.0700 H   0  0  0  0  0  0  0  0  0  0  0  0
    6.3320   -8.5164    0.0700 H   0  0  0  0  0  0  0  0  0  0  0  0
    7.2033  -12.1717    2.5395 H   0  0  0  0  0  0  0  0  0  0  0  0
    2.8890  -14.5374   -4.9493 H   0  0  0  0  0  0  0  0  0  0  0  0
   -0.0695  -14.4313   -2.7443 H   0  0  0  0  0  0  0  0  0  0  0  0
    0.5772  -13.5625   -4.1773 H   0  0  0  0  0  0  0  0  0  0  0  0
    0.4930  -15.3568   -4.1773 H   0  0  0  0  0  0  0  0  0  0  0  0
    1.0356  -16.5091   -0.6028 H   0  0  0  0  0  0  0  0  0  0  0  0
   -0.4185  -16.5380    2.6778 H   0  0  0  0  0  0  0  0  0  0  0  0
   -1.1246  -17.6454    1.4524 H   0  0  0  0  0  0  0  0  0  0  0  0
    0.6409  -17.3143    1.4524 H   0  0  0  0  0  0  0  0  0  0  0  0
   -2.7086  -16.0606    0.5910 H   0  0  0  0  0  0  0  0  0  0  0  0
   -2.0669  -15.0386   -0.7395 H   0  0  0  0  0  0  0  0  0  0  0  0
   -1.7616  -16.8087   -0.7395 H   0  0  0  0  0  0  0  0  0  0  0  0
   -1.6371  -13.3266    3.3989 H   0  0  0  0  0  0  0  0  0  0  0  0
   -1.6388  -11.5129    3.5845 H   0  0  0  0  0  0  0  0  0  0  0  0
   -3.6062  -11.3282    2.0966 H   0  0  0  0  0  0  0  0  0  0  0  0
   -6.2629  -12.8778    2.8806 H   0  0  0  0  0  0  0  0  0  0  0  0
   -5.5948  -12.0915    1.4102 H   0  0  0  0  0  0  0  0  0  0  0  0
   -5.9334  -13.8556    1.4102 H   0  0  0  0  0  0  0  0  0  0  0  0
   -3.9429  -14.7204    4.0644 H   0  0  0  0  0  0  0  0  0  0  0  0
   -4.7472  -15.3376    2.5816 H   0  0  0  0  0  0  0  0  0  0  0  0
   -2.9774  -15.0301    2.5816 H   0  0  0  0  0  0  0  0  0  0  0  0
   -0.8334  -10.0753    1.9115 H   0  0  0  0  0  0  0  0  0  0  0  0
    1.5580  -11.7427   -1.2462 H   0  0  0  0  0  0  0  0  0  0  0  0
  1  2  1  0
  2  3  1  0
  3  4  2  0
  3  5  1  0
  5  6  2  0
  6  7  1  0
  7  8  1  0
  8  9  1  0
  7 10  2  0
 10 11  1  0
 11 12  1  0
 11 13  2  0
 13 14  1  0
 14 15  2  0
 14 16  1  0
 16 17  2  0
 17 18  1  0
 17 19  1  0
 19 20  2  0
 20 21  1  0
 20 22  1  0
 22 23  1  0
 23 24  2  0
 24 25  1  0
 25 26  1  0
 25 27  1  0
 25 28  1  0
 28 29  1  0
 29 30  2  0
 30 31  1  0
 31 32  1  0
 32 33  2  3
 33 34  1  0
 33 35  1  0
 30 36  1  0
 36 37  2  0
 37 38  1  0
 37 39  1  0
 39 40  2  0
 22 41  2  0
 41 42  1  0
 13  5  1  0
 41 16  1  0
 40 23  1  0
 40 29  1  0
  1 43  1  0
  1 44  1  0
  1 45  1  0
  6 46  1  0
  9 47  1  0
  9 48  1  0
  9 49  1  0
 10 50  1  0
 19 51  1  0
 21 52  1  0
 21 53  1  0
 21 54  1  0
 24 55  1  0
 26 56  1  0
 26 57  1  0
 26 58  1  0
 27 59  1  0
 27 60  1  0
 27 61  1  0
 31 62  1  0
 31 63  1  0
 32 64  1  0
 34 65  1  0
 34 66  1  0
 34 67  1  0
 35 68  1  0
 35 69  1  0
 35 70  1  0
 36 71  1  0
 39 72  1  0
M  CHG  4  12  -1  18  -1  38  -1  42  -1
M  END
>  <meeko>  (1) 
{"is_sidechain": [false], "free_energy": -8.259, "intermolecular_energy": -12.122, "internal_energy": -2.874}

$$$$
LIB_OKBVEGJXRLVXHT__M_PUB_ALL__e8__s20260927
     RDKit          3D

 72 75  0  0  0  0  0  0  0  0999 V2000
    7.0750  -12.6690    1.6390 C   0  0  0  0  0  0  0  0  0  0  0  0
    8.1030  -13.1120    0.7630 O   0  0  0  0  0  0  0  0  0  0  0  0
    7.6670  -13.9430   -0.2200 C   0  0  0  0  0  0  0  0  0  0  0  0
    7.1160  -15.0230   -0.0300 O   0  0  0  0  0  0  0  0  0  0  0  0
    8.3030  -13.5280   -1.4910 C   0  0  0  0  0  0  0  0  0  0  0  0
    9.3970  -14.3370   -1.8380 C   0  0  0  0  0  0  0  0  0  0  0  0
   10.2110  -13.9610   -2.8830 C   0  0  0  0  0  0  0  0  0  0  0  0
   11.2290  -14.8020   -3.2590 O   0  0  0  0  0  0  0  0  0  0  0  0
   11.9520  -15.1830   -2.0870 C   0  0  0  0  0  0  0  0  0  0  0  0
   10.0170  -12.7280   -3.5000 C   0  0  0  0  0  0  0  0  0  0  0  0
    8.9320  -11.8570   -3.2180 C   0  0  0  0  0  0  0  0  0  0  0  0
    8.9030  -10.7420   -3.8570 O   0  0  0  0  0  0  0  0  0  0  0  0
    7.9730  -12.3580   -2.2310 C   0  0  0  0  0  0  0  0  0  0  0  0
    6.5950  -11.6940   -1.9710 C   0  0  0  0  0  0  0  0  0  0  0  0
    6.5360  -10.6710   -1.2810 O   0  0  0  0  0  0  0  0  0  0  0  0
    5.2760  -12.3310   -2.5550 C   0  0  0  0  0  0  0  0  0  0  0  0
    5.0970  -12.3120   -4.0080 C   0  0  0  0  0  0  0  0  0  0  0  0
    5.8980  -11.8460   -4.9040 O   0  0  0  0  0  0  0  0  0  0  0  0
    3.8650  -12.8340   -4.4470 C   0  0  0  0  0  0  0  0  0  0  0  0
    2.8180  -13.2690   -3.6140 C   0  0  0  0  0  0  0  0  0  0  0  0
    1.5370  -13.6820   -4.2870 C   0  0  0  0  0  0  0  0  0  0  0  0
    3.0020  -13.2920   -2.2130 C   0  0  0  0  0  0  0  0  0  0  0  0
    1.7820  -13.5740   -1.3460 C   0  0  0  0  0  0  0  0  0  0  0  0
    1.4520  -14.8790   -1.2970 C   0  0  0  0  0  0  0  0  0  0  0  0
    0.3060  -15.4380   -0.5310 C   0  0  0  0  0  0  0  0  0  0  0  0
    0.7200  -16.7820    0.0850 C   0  0  0  0  0  0  0  0  0  0  0  0
   -0.9010  -15.6540   -1.4530 C   0  0  0  0  0  0  0  0  0  0  0  0
   -0.1140  -14.6300    0.5790 O   0  0  0  0  0  0  0  0  0  0  0  0
    0.0810  -13.2730    0.4660 C   0  0  0  0  0  0  0  0  0  0  0  0
   -0.6430  -12.4860    1.3760 C   0  0  0  0  0  0  0  0  0  0  0  0
   -1.5900  -13.0930    2.3800 C   0  0  0  0  0  0  0  0  0  0  0  0
   -3.0300  -12.7150    2.1330 C   0  0  0  0  0  0  0  0  0  0  0  0
   -3.9220  -13.2830    1.2980 C   0  0  0  0  0  0  0  0  0  0  0  0
   -5.3180  -12.7350    1.1910 C   0  0  0  0  0  0  0  0  0  0  0  0
   -3.6310  -14.4390    0.3850 C   0  0  0  0  0  0  0  0  0  0  0  0
   -0.4660  -11.0920    1.3590 C   0  0  0  0  0  0  0  0  0  0  0  0
    0.3790  -10.4210    0.4580 C   0  0  0  0  0  0  0  0  0  0  0  0
    0.5000   -9.1480    0.4860 O   0  0  0  0  0  0  0  0  0  0  0  0
    1.0690  -11.2760   -0.4510 C   0  0  0  0  0  0  0  0  0  0  0  0
    0.9680  -12.6890   -0.4560 C   0  0  0  0  0  0  0  0  0  0  0  0
    4.2630  -12.8650   -1.6160 C   0  0  0  0  0  0  0  0  0  0  0  0
    4.4520  -12.9420   -0.3400 O   0  0  0  0  0  0  0  0  0  0  0  0
    7.3968  -12.8077    2.6817 H   0  0  0  0  0  0  0  0  0  0  0  0
    6.8718  -11.6034    1.4566 H   0  0  0  0  0  0  0  0  0  0  0  0
    6.1609  -13.2531    1.4566 H   0  0  0  0  0  0  0  0  0  0  0  0
    9.6019  -15.2626   -1.2801 H   0  0  0  0  0  0  0  0  0  0  0  0
   11.3849  -14.8842   -1.1930 H   0  0  0  0  0  0  0  0  0  0  0  0
   12.0951  -16.2736   -2.0828 H   0  0  0  0  0  0  0  0  0  0  0  0
   12.9326  -14.6845   -2.0828 H   0  0  0  0  0  0  0  0  0  0  0  0
   10.7513  -12.4084   -4.2541 H   0  0  0  0  0  0  0  0  0  0  0  0
    3.7080  -12.9079   -5.5332 H   0  0  0  0  0  0  0  0  0  0  0  0
    0.7834  -13.9250   -3.5234 H   0  0  0  0  0  0  0  0  0  0  0  0
    1.1700  -12.8567   -4.9148 H   0  0  0  0  0  0  0  0  0  0  0  0
    1.7212  -14.5663   -4.9148 H   0  0  0  0  0  0  0  0  0  0  0  0
    2.0764  -15.5837   -1.8657 H   0  0  0  0  0  0  0  0  0  0  0  0
    0.6964  -16.7053    1.1821 H   0  0  0  0  0  0  0  0  0  0  0  0
    0.0218  -17.5662   -0.2429 H   0  0  0  0  0  0  0  0  0  0  0  0
    1.7385  -17.0374   -0.2429 H   0  0  0  0  0  0  0  0  0  0  0  0
   -1.8030  -15.8154   -0.8445 H   0  0  0  0  0  0  0  0  0  0  0  0
   -1.0409  -14.7666   -2.0878 H   0  0  0  0  0  0  0  0  0  0  0  0
   -0.7245  -16.5348   -2.0878 H   0  0  0  0  0  0  0  0  0  0  0  0
   -1.5010  -14.1882    2.3288 H   0  0  0  0  0  0  0  0  0  0  0  0
   -1.3126  -12.7054    3.3714 H   0  0  0  0  0  0  0  0  0  0  0  0
   -3.4024  -11.8585    2.7142 H   0  0  0  0  0  0  0  0  0  0  0  0
   -5.7271  -12.5744    2.1994 H   0  0  0  0  0  0  0  0  0  0  0  0
   -5.2959  -11.7788    0.6477 H   0  0  0  0  0  0  0  0  0  0  0  0
   -5.9523  -13.4509    0.6477 H   0  0  0  0  0  0  0  0  0  0  0  0
   -3.4060  -15.3328    0.9854 H   0  0  0  0  0  0  0  0  0  0  0  0
   -4.5079  -14.6348   -0.2496 H   0  0  0  0  0  0  0  0  0  0  0  0
   -2.7659  -14.1963   -0.2496 H   0  0  0  0  0  0  0  0  0  0  0  0
   -1.0213  -10.4906    2.0939 H   0  0  0  0  0  0  0  0  0  0  0  0
    1.7243  -10.8064   -1.1993 H   0  0  0  0  0  0  0  0  0  0  0  0
  1  2  1  0
  2  3  1  0
  3  4  2  0
  3  5  1  0
  5  6  2  0
  6  7  1  0
  7  8  1  0
  8  9  1  0
  7 10  2  0
 10 11  1  0
 11 12  1  0
 11 13  2  0
 13 14  1  0
 14 15  2  0
 14 16  1  0
 16 17  2  0
 17 18  1  0
 17 19  1  0
 19 20  2  0
 20 21  1  0
 20 22  1  0
 22 23  1  0
 23 24  2  0
 24 25  1  0
 25 26  1  0
 25 27  1  0
 25 28  1  0
 28 29  1  0
 29 30  2  0
 30 31  1  0
 31 32  1  0
 32 33  2  3
 33 34  1  0
 33 35  1  0
 30 36  1  0
 36 37  2  0
 37 38  1  0
 37 39  1  0
 39 40  2  0
 22 41  2  0
 41 42  1  0
 13  5  1  0
 41 16  1  0
 40 23  1  0
 40 29  1  0
  1 43  1  0
  1 44  1  0
  1 45  1  0
  6 46  1  0
  9 47  1  0
  9 48  1  0
  9 49  1  0
 10 50  1  0
 19 51  1  0
 21 52  1  0
 21 53  1  0
 21 54  1  0
 24 55  1  0
 26 56  1  0
 26 57  1  0
 26 58  1  0
 27 59  1  0
 27 60  1  0
 27 61  1  0
 31 62  1  0
 31 63  1  0
 32 64  1  0
 34 65  1  0
 34 66  1  0
 34 67  1  0
 35 68  1  0
 35 69  1  0
 35 70  1  0
 36 71  1  0
 39 72  1  0
M  CHG  4  12  -1  18  -1  38  -1  42  -1
M  END
>  <meeko>  (2) 
{"is_sidechain": [false], "free_energy": -8.258, "intermolecular_energy": -12.454, "internal_energy": -2.541}

$$$$
LIB_OKBVEGJXRLVXHT__M_PUB_ALL__e8__s20260927
     RDKit          3D

 72 75  0  0  0  0  0  0  0  0999 V2000
    4.3340  -12.4210   -5.6230 C   0  0  0  0  0  0  0  0  0  0  0  0
    4.5280  -12.5460   -4.2210 O   0  0  0  0  0  0  0  0  0  0  0  0
    3.9340  -11.5620   -3.4950 C   0  0  0  0  0  0  0  0  0  0  0  0
    3.3950  -10.5680   -3.9730 O   0  0  0  0  0  0  0  0  0  0  0  0
    4.3850  -11.6900   -2.0900 C   0  0  0  0  0  0  0  0  0  0  0  0
    5.7680  -11.4940   -1.9450 C   0  0  0  0  0  0  0  0  0  0  0  0
    6.3670  -11.7740   -0.7380 C   0  0  0  0  0  0  0  0  0  0  0  0
    7.7050  -11.5040   -0.5900 O   0  0  0  0  0  0  0  0  0  0  0  0
    8.2160  -12.3320    0.4560 C   0  0  0  0  0  0  0  0  0  0  0  0
    5.6230  -12.3620    0.2820 C   0  0  0  0  0  0  0  0  0  0  0  0
    4.2220  -12.5830    0.2220 C   0  0  0  0  0  0  0  0  0  0  0  0
    3.6830  -13.1570    1.2370 O   0  0  0  0  0  0  0  0  0  0  0  0
    3.5700  -12.1110   -1.0020 C   0  0  0  0  0  0  0  0  0  0  0  0
    2.0300  -12.0160   -1.1620 C   0  0  0  0  0  0  0  0  0  0  0  0
    1.5080  -10.9150   -1.3640 O   0  0  0  0  0  0  0  0  0  0  0  0
    1.1320  -13.3060   -1.0400 C   0  0  0  0  0  0  0  0  0  0  0  0
    1.1310  -14.2430   -2.1650 C   0  0  0  0  0  0  0  0  0  0  0  0
    1.7940  -14.1660   -3.2680 O   0  0  0  0  0  0  0  0  0  0  0  0
    0.2510  -15.3330   -2.0110 C   0  0  0  0  0  0  0  0  0  0  0  0
   -0.6410  -15.5180   -0.9390 C   0  0  0  0  0  0  0  0  0  0  0  0
   -1.5790  -16.6910   -1.0280 C   0  0  0  0  0  0  0  0  0  0  0  0
   -0.6280  -14.6140    0.1470 C   0  0  0  0  0  0  0  0  0  0  0  0
   -1.7410  -14.7350    1.1790 C   0  0  0  0  0  0  0  0  0  0  0  0
   -1.4440  -15.5750    2.1890 C   0  0  0  0  0  0  0  0  0  0  0  0
   -2.3450  -15.8850    3.3300 C   0  0  0  0  0  0  0  0  0  0  0  0
   -1.5090  -16.0080    4.6130 C   0  0  0  0  0  0  0  0  0  0  0  0
   -3.0910  -17.2030    3.0840 C   0  0  0  0  0  0  0  0  0  0  0  0
   -3.3160  -14.8640    3.6120 O   0  0  0  0  0  0  0  0  0  0  0  0
   -3.7390  -14.1030    2.5480 C   0  0  0  0  0  0  0  0  0  0  0  0
   -4.9190  -13.3740    2.7660 C   0  0  0  0  0  0  0  0  0  0  0  0
   -5.6790  -13.4530    4.0660 C   0  0  0  0  0  0  0  0  0  0  0  0
   -6.6670  -14.5930    4.1020 C   0  0  0  0  0  0  0  0  0  0  0  0
   -7.2030  -15.2140    5.1710 C   0  0  0  0  0  0  0  0  0  0  0  0
   -8.1670  -16.3530    4.9840 C   0  0  0  0  0  0  0  0  0  0  0  0
   -6.8810  -14.8940    6.6020 C   0  0  0  0  0  0  0  0  0  0  0  0
   -5.3970  -12.5330    1.7450 C   0  0  0  0  0  0  0  0  0  0  0  0
   -4.7770  -12.3950    0.4920 C   0  0  0  0  0  0  0  0  0  0  0  0
   -5.2580  -11.6160   -0.4030 O   0  0  0  0  0  0  0  0  0  0  0  0
   -3.5960  -13.1760    0.3290 C   0  0  0  0  0  0  0  0  0  0  0  0
   -3.0390  -14.0080    1.3320 C   0  0  0  0  0  0  0  0  0  0  0  0
    0.2950  -13.4840    0.1690 C   0  0  0  0  0  0  0  0  0  0  0  0
    0.3480  -12.6920    1.1890 O   0  0  0  0  0  0  0  0  0  0  0  0
    3.4237  -11.8345   -5.8163 H   0  0  0  0  0  0  0  0  0  0  0  0
    5.2005  -11.9109   -6.0690 H   0  0  0  0  0  0  0  0  0  0  0  0
    4.2276  -13.4209   -6.0690 H   0  0  0  0  0  0  0  0  0  0  0  0
    6.3670  -11.1201   -2.7884 H   0  0  0  0  0  0  0  0  0  0  0  0
    7.9484  -11.8983    1.4308 H   0  0  0  0  0  0  0  0  0  0  0  0
    7.7822  -13.3393    0.3713 H   0  0  0  0  0  0  0  0  0  0  0  0
    9.3109  -12.3959    0.3713 H   0  0  0  0  0  0  0  0  0  0  0  0
    6.1550  -12.6752    1.1924 H   0  0  0  0  0  0  0  0  0  0  0  0
    0.2626  -16.1042   -2.7953 H   0  0  0  0  0  0  0  0  0  0  0  0
   -1.8459  -17.0248   -0.0144 H   0  0  0  0  0  0  0  0  0  0  0  0
   -2.4899  -16.3920   -1.5673 H   0  0  0  0  0  0  0  0  0  0  0  0
   -1.0870  -17.5138   -1.5673 H   0  0  0  0  0  0  0  0  0  0  0  0
   -0.4612  -16.0686    2.1680 H   0  0  0  0  0  0  0  0  0  0  0  0
   -2.1664  -15.9113    5.4897 H   0  0  0  0  0  0  0  0  0  0  0  0
   -1.0118  -16.9890    4.6340 H   0  0  0  0  0  0  0  0  0  0  0  0
   -0.7503  -15.2118    4.6340 H   0  0  0  0  0  0  0  0  0  0  0  0
   -3.3512  -17.6627    4.0489 H   0  0  0  0  0  0  0  0  0  0  0  0
   -4.0100  -17.0032    2.5134 H   0  0  0  0  0  0  0  0  0  0  0  0
   -2.4467  -17.8880    2.5134 H   0  0  0  0  0  0  0  0  0  0  0  0
   -4.9582  -13.5876    4.8860 H   0  0  0  0  0  0  0  0  0  0  0  0
   -6.2500  -12.5187    4.1711 H   0  0  0  0  0  0  0  0  0  0  0  0
   -6.9945  -14.9685    3.1213 H   0  0  0  0  0  0  0  0  0  0  0  0
   -8.4853  -16.7291    5.9674 H   0  0  0  0  0  0  0  0  0  0  0  0
   -9.0459  -16.0013    4.4239 H   0  0  0  0  0  0  0  0  0  0  0  0
   -7.6748  -17.1617    4.4239 H   0  0  0  0  0  0  0  0  0  0  0  0
   -7.5035  -15.5127    7.2651 H   0  0  0  0  0  0  0  0  0  0  0  0
   -5.8187  -15.1045    6.7947 H   0  0  0  0  0  0  0  0  0  0  0  0
   -7.0849  -13.8304    6.7947 H   0  0  0  0  0  0  0  0  0  0  0  0
   -6.3091  -11.9495    1.9388 H   0  0  0  0  0  0  0  0  0  0  0  0
   -3.0814  -13.1298   -0.6421 H   0  0  0  0  0  0  0  0  0  0  0  0
  1  2  1  0
  2  3  1  0
  3  4  2  0
  3  5  1  0
  5  6  2  0
  6  7  1  0
  7  8  1  0
  8  9  1  0
  7 10  2  0
 10 11  1  0
 11 12  1  0
 11 13  2  0
 13 14  1  0
 14 15  2  0
 14 16  1  0
 16 17  2  0
 17 18  1  0
 17 19  1  0
 19 20  2  0
 20 21  1  0
 20 22  1  0
 22 23  1  0
 23 24  2  0
 24 25  1  0
 25 26  1  0
 25 27  1  0
 25 28  1  0
 28 29  1  0
 29 30  2  0
 30 31  1  0
 31 32  1  0
 32 33  2  3
 33 34  1  0
 33 35  1  0
 30 36  1  0
 36 37  2  0
 37 38  1  0
 37 39  1  0
 39 40  2  0
 22 41  2  0
 41 42  1  0
 13  5  1  0
 41 16  1  0
 40 23  1  0
 40 29  1  0
  1 43  1  0
  1 44  1  0
  1 45  1  0
  6 46  1  0
  9 47  1  0
  9 48  1  0
  9 49  1  0
 10 50  1  0
 19 51  1  0
 21 52  1  0
 21 53  1  0
 21 54  1  0
 24 55  1  0
 26 56  1  0
 26 57  1  0
 26 58  1  0
 27 59  1  0
 27 60  1  0
 27 61  1  0
 31 62  1  0
 31 63  1  0
 32 64  1  0
 34 65  1  0
 34 66  1  0
 34 67  1  0
 35 68  1  0
 35 69  1  0
 35 70  1  0
 36 71  1  0
 39 72  1  0
M  CHG  4  12  -1  18  -1  38  -1  42  -1
M  END
>  <meeko>  (3) 
{"is_sidechain": [false], "free_energy": -8.206, "intermolecular_energy": -12.684, "internal_energy": -2.234}

$$$$
LIB_OKBVEGJXRLVXHT__M_PUB_ALL__e8__s20260927
     RDKit          3D

 72 75  0  0  0  0  0  0  0  0999 V2000
   10.6000  -14.1460   -8.1780 C   0  0  0  0  0  0  0  0  0  0  0  0
   10.6130  -13.0930   -9.1330 O   0  0  0  0  0  0  0  0  0  0  0  0
   10.0770  -13.4330  -10.3340 C   0  0  0  0  0  0  0  0  0  0  0  0
   10.3870  -14.4290  -10.9810 O   0  0  0  0  0  0  0  0  0  0  0  0
    9.3900  -12.2430  -10.8860 C   0  0  0  0  0  0  0  0  0  0  0  0
   10.2860  -11.2600  -11.3370 C   0  0  0  0  0  0  0  0  0  0  0  0
    9.8070  -10.0210  -11.6930 C   0  0  0  0  0  0  0  0  0  0  0  0
   10.6850   -9.0980  -12.2040 O   0  0  0  0  0  0  0  0  0  0  0  0
   11.0590   -8.2040  -11.1530 C   0  0  0  0  0  0  0  0  0  0  0  0
    8.4640   -9.7140  -11.4850 C   0  0  0  0  0  0  0  0  0  0  0  0
    7.4910  -10.6500  -11.0450 C   0  0  0  0  0  0  0  0  0  0  0  0
    6.2960  -10.2080  -10.8800 O   0  0  0  0  0  0  0  0  0  0  0  0
    7.9860  -12.0140  -10.8460 C   0  0  0  0  0  0  0  0  0  0  0  0
    7.0530  -13.2320  -10.6230 C   0  0  0  0  0  0  0  0  0  0  0  0
    6.3260  -13.6160  -11.5460 O   0  0  0  0  0  0  0  0  0  0  0  0
    7.0060  -13.9600   -9.2250 C   0  0  0  0  0  0  0  0  0  0  0  0
    7.3570  -15.3810   -9.1860 C   0  0  0  0  0  0  0  0  0  0  0  0
    7.7240  -16.1390  -10.1620 O   0  0  0  0  0  0  0  0  0  0  0  0
    7.2230  -15.9770   -7.9170 C   0  0  0  0  0  0  0  0  0  0  0  0
    6.7180  -15.3440   -6.7660 C   0  0  0  0  0  0  0  0  0  0  0  0
    6.5470  -16.1970   -5.5380 C   0  0  0  0  0  0  0  0  0  0  0  0
    6.3890  -13.9700   -6.8100 C   0  0  0  0  0  0  0  0  0  0  0  0
    5.6600  -13.3810   -5.6100 C   0  0  0  0  0  0  0  0  0  0  0  0
    4.3200  -13.3690   -5.7530 C   0  0  0  0  0  0  0  0  0  0  0  0
    3.3620  -12.8480   -4.7420 C   0  0  0  0  0  0  0  0  0  0  0  0
    2.1210  -13.7520   -4.7120 C   0  0  0  0  0  0  0  0  0  0  0  0
    2.9370  -11.4170   -5.0910 C   0  0  0  0  0  0  0  0  0  0  0  0
    3.8620  -12.8540   -3.3950 O   0  0  0  0  0  0  0  0  0  0  0  0
    5.2210  -12.7100   -3.2390 C   0  0  0  0  0  0  0  0  0  0  0  0
    5.6410  -12.3630   -1.9450 C   0  0  0  0  0  0  0  0  0  0  0  0
    4.6620  -12.1350   -0.8210 C   0  0  0  0  0  0  0  0  0  0  0  0
    4.5910  -13.2930    0.1430 C   0  0  0  0  0  0  0  0  0  0  0  0
    3.6550  -14.2590    0.2360 C   0  0  0  0  0  0  0  0  0  0  0  0
    3.7660  -15.3240    1.2920 C   0  0  0  0  0  0  0  0  0  0  0  0
    2.4280  -14.3530   -0.6240 C   0  0  0  0  0  0  0  0  0  0  0  0
    7.0180  -12.2410   -1.6880 C   0  0  0  0  0  0  0  0  0  0  0  0
    8.0140  -12.4170   -2.6620 C   0  0  0  0  0  0  0  0  0  0  0  0
    9.2540  -12.2910   -2.3730 O   0  0  0  0  0  0  0  0  0  0  0  0
    7.5200  -12.7480   -3.9580 C   0  0  0  0  0  0  0  0  0  0  0  0
    6.1500  -12.9290   -4.2720 C   0  0  0  0  0  0  0  0  0  0  0  0
    6.5620  -13.1980   -8.0360 C   0  0  0  0  0  0  0  0  0  0  0  0
    6.3180  -11.9290   -8.0600 O   0  0  0  0  0  0  0  0  0  0  0  0
   10.6052  -13.7210   -7.1635 H   0  0  0  0  0  0  0  0  0  0  0  0
    9.6943  -14.7548   -8.3158 H   0  0  0  0  0  0  0  0  0  0  0  0
   11.4904  -14.7770   -8.3158 H   0  0  0  0  0  0  0  0  0  0  0  0
   11.3618  -11.4793  -11.4049 H   0  0  0  0  0  0  0  0  0  0  0  0
   10.8607   -8.6781  -10.1804 H   0  0  0  0  0  0  0  0  0  0  0  0
   12.1306   -7.9696  -11.2349 H   0  0  0  0  0  0  0  0  0  0  0  0
   10.4735   -7.2764  -11.2349 H   0  0  0  0  0  0  0  0  0  0  0  0
    8.1366   -8.6809  -11.6736 H   0  0  0  0  0  0  0  0  0  0  0  0
    7.5398  -17.0257   -7.8171 H   0  0  0  0  0  0  0  0  0  0  0  0
    6.6717  -15.5751   -4.6393 H   0  0  0  0  0  0  0  0  0  0  0  0
    5.5415  -16.6432   -5.5386 H   0  0  0  0  0  0  0  0  0  0  0  0
    7.3028  -16.9962   -5.5386 H   0  0  0  0  0  0  0  0  0  0  0  0
    3.9040  -13.7747   -6.6870 H   0  0  0  0  0  0  0  0  0  0  0  0
    1.8411  -13.9559   -3.6679 H   0  0  0  0  0  0  0  0  0  0  0  0
    1.2877  -13.2479   -5.2233 H   0  0  0  0  0  0  0  0  0  0  0  0
    2.3453  -14.6998   -5.2233 H   0  0  0  0  0  0  0  0  0  0  0  0
    2.7681  -10.8484   -4.1646 H   0  0  0  0  0  0  0  0  0  0  0  0
    3.7299  -10.9322   -5.6794 H   0  0  0  0  0  0  0  0  0  0  0  0
    2.0080  -11.4436   -5.6794 H   0  0  0  0  0  0  0  0  0  0  0  0
    4.9682  -11.2357   -0.2665 H   0  0  0  0  0  0  0  0  0  0  0  0
    3.6650  -12.0203   -1.2714 H   0  0  0  0  0  0  0  0  0  0  0  0
    5.4149  -13.3582    0.8689 H   0  0  0  0  0  0  0  0  0  0  0  0
    3.7176  -14.8594    2.2879 H   0  0  0  0  0  0  0  0  0  0  0  0
    2.9375  -16.0389    1.1803 H   0  0  0  0  0  0  0  0  0  0  0  0
    4.7241  -15.8527    1.1803 H   0  0  0  0  0  0  0  0  0  0  0  0
    1.5360  -14.4213    0.0160 H   0  0  0  0  0  0  0  0  0  0  0  0
    2.3559  -13.4577   -1.2591 H   0  0  0  0  0  0  0  0  0  0  0  0
    2.4931  -15.2488   -1.2591 H   0  0  0  0  0  0  0  0  0  0  0  0
    7.3335  -11.9931   -0.6638 H   0  0  0  0  0  0  0  0  0  0  0  0
    8.2523  -12.8713   -4.7695 H   0  0  0  0  0  0  0  0  0  0  0  0
  1  2  1  0
  2  3  1  0
  3  4  2  0
  3  5  1  0
  5  6  2  0
  6  7  1  0
  7  8  1  0
  8  9  1  0
  7 10  2  0
 10 11  1  0
 11 12  1  0
 11 13  2  0
 13 14  1  0
 14 15  2  0
 14 16  1  0
 16 17  2  0
 17 18  1  0
 17 19  1  0
 19 20  2  0
 20 21  1  0
 20 22  1  0
 22 23  1  0
 23 24  2  0
 24 25  1  0
 25 26  1  0
 25 27  1  0
 25 28  1  0
 28 29  1  0
 29 30  2  0
 30 31  1  0
 31 32  1  0
 32 33  2  3
 33 34  1  0
 33 35  1  0
 30 36  1  0
 36 37  2  0
 37 38  1  0
 37 39  1  0
 39 40  2  0
 22 41  2  0
 41 42  1  0
 13  5  1  0
 41 16  1  0
 40 23  1  0
 40 29  1  0
  1 43  1  0
  1 44  1  0
  1 45  1  0
  6 46  1  0
  9 47  1  0
  9 48  1  0
  9 49  1  0
 10 50  1  0
 19 51  1  0
 21 52  1  0
 21 53  1  0
 21 54  1  0
 24 55  1  0
 26 56  1  0
 26 57  1  0
 26 58  1  0
 27 59  1  0
 27 60  1  0
 27 61  1  0
 31 62  1  0
 31 63  1  0
 32 64  1  0
 34 65  1  0
 34 66  1  0
 34 67  1  0
 35 68  1  0
 35 69  1  0
 35 70  1  0
 36 71  1  0
 39 72  1  0
M  CHG  4  12  -1  18  -1  38  -1  42  -1
M  END
>  <meeko>  (4) 
{"is_sidechain": [false], "free_energy": -8.183, "intermolecular_energy": -12.536, "internal_energy": -2.349}

$$$$
LIB_OKBVEGJXRLVXHT__M_PUB_ALL__e8__s20260927
     RDKit          3D

 72 75  0  0  0  0  0  0  0  0999 V2000
    8.5410  -16.0480   -4.1780 C   0  0  0  0  0  0  0  0  0  0  0  0
    9.5360  -15.0380   -4.2800 O   0  0  0  0  0  0  0  0  0  0  0  0
    9.1290  -13.8200   -3.8350 C   0  0  0  0  0  0  0  0  0  0  0  0
    8.2400  -13.1480   -4.3500 O   0  0  0  0  0  0  0  0  0  0  0  0
   10.1660  -13.2950   -2.9180 C   0  0  0  0  0  0  0  0  0  0  0  0
   11.1300  -12.5170   -3.5790 C   0  0  0  0  0  0  0  0  0  0  0  0
   12.2620  -12.1240   -2.9020 C   0  0  0  0  0  0  0  0  0  0  0  0
   13.1570  -11.3010   -3.5380 O   0  0  0  0  0  0  0  0  0  0  0  0
   14.4740  -11.8040   -3.3060 C   0  0  0  0  0  0  0  0  0  0  0  0
   12.4970  -12.6030   -1.6150 C   0  0  0  0  0  0  0  0  0  0  0  0
   11.5720  -13.3820   -0.8720 C   0  0  0  0  0  0  0  0  0  0  0  0
   11.9450  -13.7660    0.2960 O   0  0  0  0  0  0  0  0  0  0  0  0
   10.2950  -13.6370   -1.5430 C   0  0  0  0  0  0  0  0  0  0  0  0
    9.0600  -14.2350   -0.8190 C   0  0  0  0  0  0  0  0  0  0  0  0
    8.9690  -15.4600   -0.6890 O   0  0  0  0  0  0  0  0  0  0  0  0
    7.9140  -13.2950   -0.2800 C   0  0  0  0  0  0  0  0  0  0  0  0
    8.2230  -12.4330    0.8620 C   0  0  0  0  0  0  0  0  0  0  0  0
    9.3390  -12.3210    1.4980 O   0  0  0  0  0  0  0  0  0  0  0  0
    7.1310  -11.6760    1.3300 C   0  0  0  0  0  0  0  0  0  0  0  0
    5.8120  -11.7600    0.8460 C   0  0  0  0  0  0  0  0  0  0  0  0
    4.7690  -10.9490    1.5660 C   0  0  0  0  0  0  0  0  0  0  0  0
    5.5240  -12.5880   -0.2610 C   0  0  0  0  0  0  0  0  0  0  0  0
    4.0590  -12.8040   -0.6190 C   0  0  0  0  0  0  0  0  0  0  0  0
    3.6460  -12.0500   -1.6570 C   0  0  0  0  0  0  0  0  0  0  0  0
    2.2680  -12.0550   -2.2150 C   0  0  0  0  0  0  0  0  0  0  0  0
    2.3450  -11.9310   -3.7430 C   0  0  0  0  0  0  0  0  0  0  0  0
    1.4560  -10.8810   -1.6520 C   0  0  0  0  0  0  0  0  0  0  0  0
    1.5360  -13.2660   -1.9730 O   0  0  0  0  0  0  0  0  0  0  0  0
    1.8490  -13.9600   -0.8280 C   0  0  0  0  0  0  0  0  0  0  0  0
    0.9040  -14.9200   -0.4320 C   0  0  0  0  0  0  0  0  0  0  0  0
   -0.3780  -15.1410   -1.1950 C   0  0  0  0  0  0  0  0  0  0  0  0
   -1.5580  -14.4270   -0.5840 C   0  0  0  0  0  0  0  0  0  0  0  0
   -2.5460  -14.9290    0.1830 C   0  0  0  0  0  0  0  0  0  0  0  0
   -3.6490  -14.0360    0.6800 C   0  0  0  0  0  0  0  0  0  0  0  0
   -2.6850  -16.3730    0.5700 C   0  0  0  0  0  0  0  0  0  0  0  0
    1.1680  -15.7070    0.7030 C   0  0  0  0  0  0  0  0  0  0  0  0
    2.3210  -15.5740    1.4950 C   0  0  0  0  0  0  0  0  0  0  0  0
    2.5100  -16.3170    2.5200 O   0  0  0  0  0  0  0  0  0  0  0  0
    3.2300  -14.5700    1.0490 C   0  0  0  0  0  0  0  0  0  0  0  0
    3.0430  -13.7750   -0.1090 C   0  0  0  0  0  0  0  0  0  0  0  0
    6.5760  -13.3650   -0.9100 C   0  0  0  0  0  0  0  0  0  0  0  0
    6.3240  -14.0750   -1.9590 O   0  0  0  0  0  0  0  0  0  0  0  0
    8.3366  -16.2555   -3.1173 H   0  0  0  0  0  0  0  0  0  0  0  0
    7.6184  -15.7047   -4.6689 H   0  0  0  0  0  0  0  0  0  0  0  0
    8.8980  -16.9654   -4.6689 H   0  0  0  0  0  0  0  0  0  0  0  0
   10.9817  -12.2241   -4.6289 H   0  0  0  0  0  0  0  0  0  0  0  0
   14.6547  -11.8730   -2.2231 H   0  0  0  0  0  0  0  0  0  0  0  0
   14.5702  -12.8022   -3.7581 H   0  0  0  0  0  0  0  0  0  0  0  0
   15.2111  -11.1241   -3.7581 H   0  0  0  0  0  0  0  0  0  0  0  0
   13.4616  -12.3619   -1.1444 H   0  0  0  0  0  0  0  0  0  0  0  0
    7.3254  -10.9593    2.1415 H   0  0  0  0  0  0  0  0  0  0  0  0
    4.9066  -11.0560    2.6521 H   0  0  0  0  0  0  0  0  0  0  0  0
    4.8703   -9.8900    1.2861 H   0  0  0  0  0  0  0  0  0  0  0  0
    3.7676  -11.3081    1.2861 H   0  0  0  0  0  0  0  0  0  0  0  0
    4.3830  -11.3815   -2.1260 H   0  0  0  0  0  0  0  0  0  0  0  0
    2.9080  -11.0243   -4.0094 H   0  0  0  0  0  0  0  0  0  0  0  0
    2.8541  -12.8137   -4.1573 H   0  0  0  0  0  0  0  0  0  0  0  0
    1.3281  -11.8661   -4.1573 H   0  0  0  0  0  0  0  0  0  0  0  0
    1.4784  -10.9134   -0.5527 H   0  0  0  0  0  0  0  0  0  0  0  0
    1.8924   -9.9331   -1.9999 H   0  0  0  0  0  0  0  0  0  0  0  0
    0.4151  -10.9549   -1.9999 H   0  0  0  0  0  0  0  0  0  0  0  0
   -0.2413  -14.7755   -2.2235 H   0  0  0  0  0  0  0  0  0  0  0  0
   -0.5955  -16.2189   -1.1678 H   0  0  0  0  0  0  0  0  0  0  0  0
   -1.6207  -13.3489   -0.7931 H   0  0  0  0  0  0  0  0  0  0  0  0
   -3.6515  -14.0339    1.7800 H   0  0  0  0  0  0  0  0  0  0  0  0
   -3.4860  -13.0124    0.3118 H   0  0  0  0  0  0  0  0  0  0  0  0
   -4.6163  -14.4084    0.3118 H   0  0  0  0  0  0  0  0  0  0  0  0
   -2.6933  -16.4596    1.6666 H   0  0  0  0  0  0  0  0  0  0  0  0
   -3.6258  -16.7726    0.1635 H   0  0  0  0  0  0  0  0  0  0  0  0
   -1.8377  -16.9448    0.1635 H   0  0  0  0  0  0  0  0  0  0  0  0
    0.4293  -16.4708    0.9873 H   0  0  0  0  0  0  0  0  0  0  0  0
    4.1390  -14.4010    1.6449 H   0  0  0  0  0  0  0  0  0  0  0  0
  1  2  1  0
  2  3  1  0
  3  4  2  0
  3  5  1  0
  5  6  2  0
  6  7  1  0
  7  8  1  0
  8  9  1  0
  7 10  2  0
 10 11  1  0
 11 12  1  0
 11 13  2  0
 13 14  1  0
 14 15  2  0
 14 16  1  0
 16 17  2  0
 17 18  1  0
 17 19  1  0
 19 20  2  0
 20 21  1  0
 20 22  1  0
 22 23  1  0
 23 24  2  0
 24 25  1  0
 25 26  1  0
 25 27  1  0
 25 28  1  0
 28 29  1  0
 29 30  2  0
 30 31  1  0
 31 32  1  0
 32 33  2  3
 33 34  1  0
 33 35  1  0
 30 36  1  0
 36 37  2  0
 37 38  1  0
 37 39  1  0
 39 40  2  0
 22 41  2  0
 41 42  1  0
 13  5  1  0
 41 16  1  0
 40 23  1  0
 40 29  1  0
  1 43  1  0
  1 44  1  0
  1 45  1  0
  6 46  1  0
  9 47  1  0
  9 48  1  0
  9 49  1  0
 10 50  1  0
 19 51  1  0
 21 52  1  0
 21 53  1  0
 21 54  1  0
 24 55  1  0
 26 56  1  0
 26 57  1  0
 26 58  1  0
 27 59  1  0
 27 60  1  0
 27 61  1  0
 31 62  1  0
 31 63  1  0
 32 64  1  0
 34 65  1  0
 34 66  1  0
 34 67  1  0
 35 68  1  0
 35 69  1  0
 35 70  1  0
 36 71  1  0
 39 72  1  0
M  CHG  4  12  -1  18  -1  38  -1  42  -1
M  END
>  <meeko>  (5) 
{"is_sidechain": [false], "free_energy": -8.152, "intermolecular_energy": -12.155, "internal_energy": -2.685}

$$$$
LIB_OKBVEGJXRLVXHT__M_PUB_ALL__e8__s20260927
     RDKit          3D

 72 75  0  0  0  0  0  0  0  0999 V2000
    5.9140  -15.2340   -1.4130 C   0  0  0  0  0  0  0  0  0  0  0  0
    5.7500  -14.5250   -2.6340 O   0  0  0  0  0  0  0  0  0  0  0  0
    5.9400  -13.1840   -2.5200 C   0  0  0  0  0  0  0  0  0  0  0  0
    6.7140  -12.6520   -1.7300 O   0  0  0  0  0  0  0  0  0  0  0  0
    4.8130  -12.5000   -3.1930 C   0  0  0  0  0  0  0  0  0  0  0  0
    5.0700  -12.2400   -4.5490 C   0  0  0  0  0  0  0  0  0  0  0  0
    4.2060  -11.4390   -5.2590 C   0  0  0  0  0  0  0  0  0  0  0  0
    4.4290  -11.2580   -6.6020 O   0  0  0  0  0  0  0  0  0  0  0  0
    5.1710  -12.3780   -7.0880 C   0  0  0  0  0  0  0  0  0  0  0  0
    3.1610  -10.7960   -4.6000 C   0  0  0  0  0  0  0  0  0  0  0  0
    2.8250  -11.0110   -3.2370 C   0  0  0  0  0  0  0  0  0  0  0  0
    1.8450  -10.3250   -2.7670 O   0  0  0  0  0  0  0  0  0  0  0  0
    3.6450  -12.0080   -2.5460 C   0  0  0  0  0  0  0  0  0  0  0  0
    3.2890  -12.5800   -1.1480 C   0  0  0  0  0  0  0  0  0  0  0  0
    4.0140  -12.3170   -0.1830 O   0  0  0  0  0  0  0  0  0  0  0  0
    2.0310  -13.5130   -0.9620 C   0  0  0  0  0  0  0  0  0  0  0  0
    1.9200  -14.6850   -1.8310 C   0  0  0  0  0  0  0  0  0  0  0  0
    2.7380  -15.0820   -2.7450 O   0  0  0  0  0  0  0  0  0  0  0  0
    0.7360  -15.4280   -1.6530 C   0  0  0  0  0  0  0  0  0  0  0  0
   -0.3260  -15.0810   -0.7980 C   0  0  0  0  0  0  0  0  0  0  0  0
   -1.5520  -15.9520   -0.8460 C   0  0  0  0  0  0  0  0  0  0  0  0
   -0.2070  -13.9530    0.0430 C   0  0  0  0  0  0  0  0  0  0  0  0
   -1.4510  -13.5000    0.7960 C   0  0  0  0  0  0  0  0  0  0  0  0
   -2.0030  -12.3790    0.2910 C   0  0  0  0  0  0  0  0  0  0  0  0
   -3.2190  -11.7140    0.8290 C   0  0  0  0  0  0  0  0  0  0  0  0
   -4.0630  -11.1870   -0.3410 C   0  0  0  0  0  0  0  0  0  0  0  0
   -2.8310  -10.5430    1.7410 C   0  0  0  0  0  0  0  0  0  0  0  0
   -4.0960  -12.5840    1.5610 O   0  0  0  0  0  0  0  0  0  0  0  0
   -3.5110  -13.6470    2.2100 C   0  0  0  0  0  0  0  0  0  0  0  0
   -4.3080  -14.2610    3.1900 C   0  0  0  0  0  0  0  0  0  0  0  0
   -5.6920  -13.7630    3.5220 C   0  0  0  0  0  0  0  0  0  0  0  0
   -6.0540  -13.9570    4.9740 C   0  0  0  0  0  0  0  0  0  0  0  0
   -6.9240  -14.8320    5.5180 C   0  0  0  0  0  0  0  0  0  0  0  0
   -7.1520  -14.8500    7.0040 C   0  0  0  0  0  0  0  0  0  0  0  0
   -7.7610  -15.8070    4.7430 C   0  0  0  0  0  0  0  0  0  0  0  0
   -3.8040  -15.3840    3.8690 C   0  0  0  0  0  0  0  0  0  0  0  0
   -2.5250  -15.9230    3.6490 C   0  0  0  0  0  0  0  0  0  0  0  0
   -2.1170  -16.9470    4.2990 O   0  0  0  0  0  0  0  0  0  0  0  0
   -1.7610  -15.2410    2.6570 C   0  0  0  0  0  0  0  0  0  0  0  0
   -2.2270  -14.1330    1.9070 C   0  0  0  0  0  0  0  0  0  0  0  0
    1.0020  -13.1360    0.0350 C   0  0  0  0  0  0  0  0  0  0  0  0
    1.1350  -12.1400    0.8470 O   0  0  0  0  0  0  0  0  0  0  0  0
    5.7555  -14.5489   -0.5671 H   0  0  0  0  0  0  0  0  0  0  0  0
    5.1816  -16.0533   -1.3635 H   0  0  0  0  0  0  0  0  0  0  0  0
    6.9317  -15.6485   -1.3635 H   0  0  0  0  0  0  0  0  0  0  0  0
    5.9545  -12.6731   -5.0390 H   0  0  0  0  0  0  0  0  0  0  0  0
    5.5563  -12.9595   -6.2375 H   0  0  0  0  0  0  0  0  0  0  0  0
    4.5153  -13.0144   -7.7004 H   0  0  0  0  0  0  0  0  0  0  0  0
    6.0127  -12.0224   -7.7004 H   0  0  0  0  0  0  0  0  0  0  0  0
    2.5574  -10.0757   -5.1717 H   0  0  0  0  0  0  0  0  0  0  0  0
    0.6334  -16.3580   -2.2315 H   0  0  0  0  0  0  0  0  0  0  0  0
   -1.8777  -16.1834    0.1789 H   0  0  0  0  0  0  0  0  0  0  0  0
   -2.3574  -15.4225   -1.3760 H   0  0  0  0  0  0  0  0  0  0  0  0
   -1.3171  -16.8869   -1.3760 H   0  0  0  0  0  0  0  0  0  0  0  0
   -1.5178  -11.9222   -0.5842 H   0  0  0  0  0  0  0  0  0  0  0  0
   -4.9346  -10.6428    0.0516 H   0  0  0  0  0  0  0  0  0  0  0  0
   -3.4537  -10.5086   -0.9563 H   0  0  0  0  0  0  0  0  0  0  0  0
   -4.4051  -12.0322   -0.9563 H   0  0  0  0  0  0  0  0  0  0  0  0
   -2.9322  -10.8484    2.7929 H   0  0  0  0  0  0  0  0  0  0  0  0
   -1.7887  -10.2530    1.5420 H   0  0  0  0  0  0  0  0  0  0  0  0
   -3.4939   -9.6880    1.5420 H   0  0  0  0  0  0  0  0  0  0  0  0
   -5.7442  -12.6895    3.2878 H   0  0  0  0  0  0  0  0  0  0  0  0
   -6.4055  -14.3481    2.9232 H   0  0  0  0  0  0  0  0  0  0  0  0
   -5.5383  -13.2949    5.6851 H   0  0  0  0  0  0  0  0  0  0  0  0
   -6.1858  -14.7737    7.5242 H   0  0  0  0  0  0  0  0  0  0  0  0
   -7.7892  -13.9994    7.2875 H   0  0  0  0  0  0  0  0  0  0  0  0
   -7.6478  -15.7901    7.2875 H   0  0  0  0  0  0  0  0  0  0  0  0
   -8.3144  -16.4516    5.4417 H   0  0  0  0  0  0  0  0  0  0  0  0
   -8.4726  -15.2570    4.1096 H   0  0  0  0  0  0  0  0  0  0  0  0
   -7.1096  -16.4271    4.1096 H   0  0  0  0  0  0  0  0  0  0  0  0
   -4.4487  -15.8694    4.6165 H   0  0  0  0  0  0  0  0  0  0  0  0
   -0.7398  -15.5996    2.4605 H   0  0  0  0  0  0  0  0  0  0  0  0
  1  2  1  0
  2  3  1  0
  3  4  2  0
  3  5  1  0
  5  6  2  0
  6  7  1  0
  7  8  1  0
  8  9  1  0
  7 10  2  0
 10 11  1  0
 11 12  1  0
 11 13  2  0
 13 14  1  0
 14 15  2  0
 14 16  1  0
 16 17  2  0
 17 18  1  0
 17 19  1  0
 19 20  2  0
 20 21  1  0
 20 22  1  0
 22 23  1  0
 23 24  2  0
 24 25  1  0
 25 26  1  0
 25 27  1  0
 25 28  1  0
 28 29  1  0
 29 30  2  0
 30 31  1  0
 31 32  1  0
 32 33  2  3
 33 34  1  0
 33 35  1  0
 30 36  1  0
 36 37  2  0
 37 38  1  0
 37 39  1  0
 39 40  2  0
 22 41  2  0
 41 42  1  0
 13  5  1  0
 41 16  1  0
 40 23  1  0
 40 29  1  0
  1 43  1  0
  1 44  1  0
  1 45  1  0
  6 46  1  0
  9 47  1  0
  9 48  1  0
  9 49  1  0
 10 50  1  0
 19 51  1  0
 21 52  1  0
 21 53  1  0
 21 54  1  0
 24 55  1  0
 26 56  1  0
 26 57  1  0
 26 58  1  0
 27 59  1  0
 27 60  1  0
 27 61  1  0
 31 62  1  0
 31 63  1  0
 32 64  1  0
 34 65  1  0
 34 66  1  0
 34 67  1  0
 35 68  1  0
 35 69  1  0
 35 70  1  0
 36 71  1  0
 39 72  1  0
M  CHG  4  12  -1  18  -1  38  -1  42  -1
M  END
>  <meeko>  (6) 
{"is_sidechain": [false], "free_energy": -8.049, "intermolecular_energy": -13.107, "internal_energy": -1.58}

$$$$
LIB_OKBVEGJXRLVXHT__M_PUB_ALL__e8__s20260927
     RDKit          3D

 72 75  0  0  0  0  0  0  0  0999 V2000
    1.4090  -16.0540    4.0960 C   0  0  0  0  0  0  0  0  0  0  0  0
    0.7120  -14.9970    3.4500 O   0  0  0  0  0  0  0  0  0  0  0  0
   -0.5760  -14.8560    3.8590 C   0  0  0  0  0  0  0  0  0  0  0  0
   -1.1870  -15.6760    4.5390 O   0  0  0  0  0  0  0  0  0  0  0  0
   -1.2050  -13.7920    3.0450 C   0  0  0  0  0  0  0  0  0  0  0  0
   -0.9540  -12.5050    3.5500 C   0  0  0  0  0  0  0  0  0  0  0  0
   -1.6310  -11.4290    3.0220 C   0  0  0  0  0  0  0  0  0  0  0  0
   -1.3180  -10.1710    3.4720 O   0  0  0  0  0  0  0  0  0  0  0  0
   -1.6200   -9.2350    2.4350 C   0  0  0  0  0  0  0  0  0  0  0  0
   -2.6400  -11.6400    2.0860 C   0  0  0  0  0  0  0  0  0  0  0  0
   -2.9490  -12.9030    1.5150 C   0  0  0  0  0  0  0  0  0  0  0  0
   -3.9240  -12.9380    0.6800 O   0  0  0  0  0  0  0  0  0  0  0  0
   -2.0950  -14.0080    1.9560 C   0  0  0  0  0  0  0  0  0  0  0  0
   -2.0880  -15.4010    1.2730 C   0  0  0  0  0  0  0  0  0  0  0  0
   -3.1190  -16.0820    1.2760 O   0  0  0  0  0  0  0  0  0  0  0  0
   -0.7730  -15.9600    0.6060 C   0  0  0  0  0  0  0  0  0  0  0  0
   -0.3770  -17.3320    0.9280 C   0  0  0  0  0  0  0  0  0  0  0  0
   -0.9790  -18.1770    1.6920 O   0  0  0  0  0  0  0  0  0  0  0  0
    0.8440  -17.7330    0.3500 C   0  0  0  0  0  0  0  0  0  0  0  0
    1.7000  -16.9110   -0.4050 C   0  0  0  0  0  0  0  0  0  0  0  0
    3.0160  -17.5060   -0.8300 C   0  0  0  0  0  0  0  0  0  0  0  0
    1.3070  -15.5910   -0.7180 C   0  0  0  0  0  0  0  0  0  0  0  0
    2.3450  -14.6780   -1.3570 C   0  0  0  0  0  0  0  0  0  0  0  0
    2.1150  -14.4410   -2.6640 C   0  0  0  0  0  0  0  0  0  0  0  0
    2.9690  -13.5910   -3.5350 C   0  0  0  0  0  0  0  0  0  0  0  0
    2.0720  -12.7950   -4.4940 C   0  0  0  0  0  0  0  0  0  0  0  0
    3.9370  -14.4580   -4.3500 C   0  0  0  0  0  0  0  0  0  0  0  0
    3.7340  -12.6010   -2.8300 O   0  0  0  0  0  0  0  0  0  0  0  0
    4.1040  -12.9080   -1.5420 C   0  0  0  0  0  0  0  0  0  0  0  0
    5.1290  -12.1100   -1.0080 C   0  0  0  0  0  0  0  0  0  0  0  0
    5.7930  -11.0190   -1.8100 C   0  0  0  0  0  0  0  0  0  0  0  0
    7.2480  -11.3010   -2.0950 C   0  0  0  0  0  0  0  0  0  0  0  0
    7.7940  -11.9460   -3.1450 C   0  0  0  0  0  0  0  0  0  0  0  0
    9.2840  -12.1340   -3.2290 C   0  0  0  0  0  0  0  0  0  0  0  0
    7.0190  -12.5660   -4.2710 C   0  0  0  0  0  0  0  0  0  0  0  0
    5.5360  -12.3260    0.3200 C   0  0  0  0  0  0  0  0  0  0  0  0
    4.9970  -13.3230    1.1510 C   0  0  0  0  0  0  0  0  0  0  0  0
    5.4080  -13.4770    2.3530 O   0  0  0  0  0  0  0  0  0  0  0  0
    3.9760  -14.1090    0.5420 C   0  0  0  0  0  0  0  0  0  0  0  0
    3.4910  -13.9130   -0.7750 C   0  0  0  0  0  0  0  0  0  0  0  0
    0.0240  -15.0640   -0.2640 C   0  0  0  0  0  0  0  0  0  0  0  0
   -0.3620  -13.8780   -0.6000 O   0  0  0  0  0  0  0  0  0  0  0  0
    1.3293  -15.9332    5.1864 H   0  0  0  0  0  0  0  0  0  0  0  0
    0.9687  -17.0178    3.8007 H   0  0  0  0  0  0  0  0  0  0  0  0
    2.4683  -16.0290    3.8007 H   0  0  0  0  0  0  0  0  0  0  0  0
   -0.2236  -12.3587    4.3594 H   0  0  0  0  0  0  0  0  0  0  0  0
   -1.9285   -8.2787    2.8826 H   0  0  0  0  0  0  0  0  0  0  0  0
   -0.7272   -9.0771    1.8121 H   0  0  0  0  0  0  0  0  0  0  0  0
   -2.4367   -9.6287    1.8121 H   0  0  0  0  0  0  0  0  0  0  0  0
   -3.2365  -10.7721    1.7682 H   0  0  0  0  0  0  0  0  0  0  0  0
    1.1540  -18.7774    0.5021 H   0  0  0  0  0  0  0  0  0  0  0  0
    3.6033  -17.7715    0.0614 H   0  0  0  0  0  0  0  0  0  0  0  0
    2.8331  -18.4090   -1.4310 H   0  0  0  0  0  0  0  0  0  0  0  0
    3.5731  -16.7722   -1.4310 H   0  0  0  0  0  0  0  0  0  0  0  0
    1.2308  -14.9109   -3.1194 H   0  0  0  0  0  0  0  0  0  0  0  0
    1.3734  -12.1750   -3.9130 H   0  0  0  0  0  0  0  0  0  0  0  0
    2.6962  -12.1481   -5.1280 H   0  0  0  0  0  0  0  0  0  0  0  0
    1.5039  -13.4917   -5.1280 H   0  0  0  0  0  0  0  0  0  0  0  0
    4.5788  -15.0329   -3.6662 H   0  0  0  0  0  0  0  0  0  0  0  0
    3.3639  -15.1505   -4.9841 H   0  0  0  0  0  0  0  0  0  0  0  0
    4.5624  -13.8124   -4.9841 H   0  0  0  0  0  0  0  0  0  0  0  0
    5.2618  -10.9146   -2.7676 H   0  0  0  0  0  0  0  0  0  0  0  0
    5.7468  -10.0963   -1.2130 H   0  0  0  0  0  0  0  0  0  0  0  0
    7.9600  -10.9295   -1.3433 H   0  0  0  0  0  0  0  0  0  0  0  0
    9.7047  -12.1871   -2.2140 H   0  0  0  0  0  0  0  0  0  0  0  0
    9.5061  -13.0673   -3.7672 H   0  0  0  0  0  0  0  0  0  0  0  0
    9.7309  -11.2851   -3.7672 H   0  0  0  0  0  0  0  0  0  0  0  0
    6.2222  -13.2035   -3.8603 H   0  0  0  0  0  0  0  0  0  0  0  0
    6.5724  -11.7731   -4.8889 H   0  0  0  0  0  0  0  0  0  0  0  0
    7.6945  -13.1758   -4.8889 H   0  0  0  0  0  0  0  0  0  0  0  0
    6.3222  -11.6768    0.7329 H   0  0  0  0  0  0  0  0  0  0  0  0
    3.5342  -14.9235    1.1348 H   0  0  0  0  0  0  0  0  0  0  0  0
  1  2  1  0
  2  3  1  0
  3  4  2  0
  3  5  1  0
  5  6  2  0
  6  7  1  0
  7  8  1  0
  8  9  1  0
  7 10  2  0
 10 11  1  0
 11 12  1  0
 11 13  2  0
 13 14  1  0
 14 15  2  0
 14 16  1  0
 16 17  2  0
 17 18  1  0
 17 19  1  0
 19 20  2  0
 20 21  1  0
 20 22  1  0
 22 23  1  0
 23 24  2  0
 24 25  1  0
 25 26  1  0
 25 27  1  0
 25 28  1  0
 28 29  1  0
 29 30  2  0
 30 31  1  0
 31 32  1  0
 32 33  2  3
 33 34  1  0
 33 35  1  0
 30 36  1  0
 36 37  2  0
 37 38  1  0
 37 39  1  0
 39 40  2  0
 22 41  2  0
 41 42  1  0
 13  5  1  0
 41 16  1  0
 40 23  1  0
 40 29  1  0
  1 43  1  0
  1 44  1  0
  1 45  1  0
  6 46  1  0
  9 47  1  0
  9 48  1  0
  9 49  1  0
 10 50  1  0
 19 51  1  0
 21 52  1  0
 21 53  1  0
 21 54  1  0
 24 55  1  0
 26 56  1  0
 26 57  1  0
 26 58  1  0
 27 59  1  0
 27 60  1  0
 27 61  1  0
 31 62  1  0
 31 63  1  0
 32 64  1  0
 34 65  1  0
 34 66  1  0
 34 67  1  0
 35 68  1  0
 35 69  1  0
 35 70  1  0
 36 71  1  0
 39 72  1  0
M  CHG  4  12  -1  18  -1  38  -1  42  -1
M  END
>  <meeko>  (7) 
{"is_sidechain": [false], "free_energy": -8.0, "intermolecular_energy": -12.014, "internal_energy": -2.602}

$$$$
LIB_OKBVEGJXRLVXHT__M_PUB_ALL__e8__s20260927
     RDKit          3D

 72 75  0  0  0  0  0  0  0  0999 V2000
   13.3430  -10.7380    0.1980 C   0  0  0  0  0  0  0  0  0  0  0  0
   12.0370  -11.2250   -0.0780 O   0  0  0  0  0  0  0  0  0  0  0  0
   11.9630  -12.5790   -0.1670 C   0  0  0  0  0  0  0  0  0  0  0  0
   12.4100  -13.3600    0.6670 O   0  0  0  0  0  0  0  0  0  0  0  0
   11.6290  -12.9320   -1.5660 C   0  0  0  0  0  0  0  0  0  0  0  0
   12.6700  -12.6380   -2.4620 C   0  0  0  0  0  0  0  0  0  0  0  0
   12.4400  -12.7240   -3.8160 C   0  0  0  0  0  0  0  0  0  0  0  0
   13.4890  -12.5090   -4.6760 O   0  0  0  0  0  0  0  0  0  0  0  0
   14.6680  -12.2900   -3.8990 C   0  0  0  0  0  0  0  0  0  0  0  0
   11.1530  -12.9780   -4.2830 C   0  0  0  0  0  0  0  0  0  0  0  0
   10.0490  -13.2960   -3.4480 C   0  0  0  0  0  0  0  0  0  0  0  0
    8.9190  -13.4820   -4.0290 O   0  0  0  0  0  0  0  0  0  0  0  0
   10.3560  -13.3790   -2.0180 C   0  0  0  0  0  0  0  0  0  0  0  0
    9.3710  -13.9610   -0.9700 C   0  0  0  0  0  0  0  0  0  0  0  0
    9.5240  -15.1200   -0.5730 O   0  0  0  0  0  0  0  0  0  0  0  0
    8.1660  -13.0940   -0.4370 C   0  0  0  0  0  0  0  0  0  0  0  0
    8.3850  -12.2950    0.7700 C   0  0  0  0  0  0  0  0  0  0  0  0
    9.4630  -12.1860    1.4700 O   0  0  0  0  0  0  0  0  0  0  0  0
    7.2440  -11.6060    1.2240 C   0  0  0  0  0  0  0  0  0  0  0  0
    5.9560  -11.7030    0.6670 C   0  0  0  0  0  0  0  0  0  0  0  0
    4.8490  -10.9720    1.3790 C   0  0  0  0  0  0  0  0  0  0  0  0
    5.7540  -12.4700   -0.5020 C   0  0  0  0  0  0  0  0  0  0  0  0
    4.3180  -12.7110   -0.9480 C   0  0  0  0  0  0  0  0  0  0  0  0
    3.9300  -11.9050   -1.9570 C   0  0  0  0  0  0  0  0  0  0  0  0
    2.5830  -11.9210   -2.5860 C   0  0  0  0  0  0  0  0  0  0  0  0
    2.7310  -11.6960   -4.0970 C   0  0  0  0  0  0  0  0  0  0  0  0
    1.7010  -10.8140   -1.9940 C   0  0  0  0  0  0  0  0  0  0  0  0
    1.8840  -13.1690   -2.4600 O   0  0  0  0  0  0  0  0  0  0  0  0
    2.1660  -13.9250   -1.3460 C   0  0  0  0  0  0  0  0  0  0  0  0
    1.2380  -14.9400   -1.0610 C   0  0  0  0  0  0  0  0  0  0  0  0
    0.0050  -15.1540   -1.9020 C   0  0  0  0  0  0  0  0  0  0  0  0
   -1.1650  -15.6830   -1.1100 C   0  0  0  0  0  0  0  0  0  0  0  0
   -1.9700  -15.0260   -0.2520 C   0  0  0  0  0  0  0  0  0  0  0  0
   -3.0810  -15.7530    0.4550 C   0  0  0  0  0  0  0  0  0  0  0  0
   -1.8320  -13.5780    0.1210 C   0  0  0  0  0  0  0  0  0  0  0  0
    1.4740  -15.7890    0.0340 C   0  0  0  0  0  0  0  0  0  0  0  0
    2.5800  -15.6700    0.8920 C   0  0  0  0  0  0  0  0  0  0  0  0
    2.7440  -16.4700    1.8770 O   0  0  0  0  0  0  0  0  0  0  0  0
    3.4730  -14.6090    0.5590 C   0  0  0  0  0  0  0  0  0  0  0  0
    3.3150  -13.7470   -0.5550 C   0  0  0  0  0  0  0  0  0  0  0  0
    6.8650  -13.1690   -1.1390 C   0  0  0  0  0  0  0  0  0  0  0  0
    6.6920  -13.8210   -2.2410 O   0  0  0  0  0  0  0  0  0  0  0  0
   13.4913  -10.6827    1.2866 H   0  0  0  0  0  0  0  0  0  0  0  0
   14.0882  -11.4187   -0.2394 H   0  0  0  0  0  0  0  0  0  0  0  0
   13.4606   -9.7356   -0.2394 H   0  0  0  0  0  0  0  0  0  0  0  0
   13.6599  -12.3418   -2.0848 H   0  0  0  0  0  0  0  0  0  0  0  0
   14.4161  -12.3368   -2.8293 H   0  0  0  0  0  0  0  0  0  0  0  0
   15.4118  -13.0653   -4.1348 H   0  0  0  0  0  0  0  0  0  0  0  0
   15.0838  -11.2993   -4.1348 H   0  0  0  0  0  0  0  0  0  0  0  0
   10.9803  -12.9292   -5.3683 H   0  0  0  0  0  0  0  0  0  0  0  0
    7.3705  -10.9355    2.0868 H   0  0  0  0  0  0  0  0  0  0  0  0
    4.9887  -11.0642    2.4662 H   0  0  0  0  0  0  0  0  0  0  0  0
    4.8697   -9.9094    1.0955 H   0  0  0  0  0  0  0  0  0  0  0  0
    3.8799  -11.4083    1.0955 H   0  0  0  0  0  0  0  0  0  0  0  0
    4.6641  -11.1825   -2.3431 H   0  0  0  0  0  0  0  0  0  0  0  0
    3.3274  -10.7892   -4.2760 H   0  0  0  0  0  0  0  0  0  0  0  0
    3.2362  -12.5623   -4.5490 H   0  0  0  0  0  0  0  0  0  0  0  0
    1.7354  -11.5752   -4.5490 H   0  0  0  0  0  0  0  0  0  0  0  0
    1.7396  -10.8624   -0.8957 H   0  0  0  0  0  0  0  0  0  0  0  0
    2.0680   -9.8333   -2.3309 H   0  0  0  0  0  0  0  0  0  0  0  0
    0.6631  -10.9526   -2.3309 H   0  0  0  0  0  0  0  0  0  0  0  0
   -0.2829  -14.1928   -2.3527 H   0  0  0  0  0  0  0  0  0  0  0  0
    0.2536  -15.9072   -2.6641 H   0  0  0  0  0  0  0  0  0  0  0  0
   -1.3918  -16.7499   -1.2522 H   0  0  0  0  0  0  0  0  0  0  0  0
   -2.9439  -15.6633    1.5427 H   0  0  0  0  0  0  0  0  0  0  0  0
   -4.0475  -15.3121    0.1696 H   0  0  0  0  0  0  0  0  0  0  0  0
   -3.0640  -16.8152    0.1696 H   0  0  0  0  0  0  0  0  0  0  0  0
   -1.8227  -13.4809    1.2167 H   0  0  0  0  0  0  0  0  0  0  0  0
   -0.8920  -13.1814   -0.2902 H   0  0  0  0  0  0  0  0  0  0  0  0
   -2.6802  -13.0110   -0.2902 H   0  0  0  0  0  0  0  0  0  0  0  0
    0.7503  -16.5937    0.2307 H   0  0  0  0  0  0  0  0  0  0  0  0
    4.3440  -14.4487    1.2114 H   0  0  0  0  0  0  0  0  0  0  0  0
  1  2  1  0
  2  3  1  0
  3  4  2  0
  3  5  1  0
  5  6  2  0
  6  7  1  0
  7  8  1  0
  8  9  1  0
  7 10  2  0
 10 11  1  0
 11 12  1  0
 11 13  2  0
 13 14  1  0
 14 15  2  0
 14 16  1  0
 16 17  2  0
 17 18  1  0
 17 19  1  0
 19 20  2  0
 20 21  1  0
 20 22  1  0
 22 23  1  0
 23 24  2  0
 24 25  1  0
 25 26  1  0
 25 27  1  0
 25 28  1  0
 28 29  1  0
 29 30  2  0
 30 31  1  0
 31 32  1  0
 32 33  2  3
 33 34  1  0
 33 35  1  0
 30 36  1  0
 36 37  2  0
 37 38  1  0
 37 39  1  0
 39 40  2  0
 22 41  2  0
 41 42  1  0
 13  5  1  0
 41 16  1  0
 40 23  1  0
 40 29  1  0
  1 43  1  0
  1 44  1  0
  1 45  1  0
  6 46  1  0
  9 47  1  0
  9 48  1  0
  9 49  1  0
 10 50  1  0
 19 51  1  0
 21 52  1  0
 21 53  1  0
 21 54  1  0
 24 55  1  0
 26 56  1  0
 26 57  1  0
 26 58  1  0
 27 59  1  0
 27 60  1  0
 27 61  1  0
 31 62  1  0
 31 63  1  0
 32 64  1  0
 34 65  1  0
 34 66  1  0
 34 67  1  0
 35 68  1  0
 35 69  1  0
 35 70  1  0
 36 71  1  0
 39 72  1  0
M  CHG  4  12  -1  18  -1  38  -1  42  -1
M  END
>  <meeko>  (8) 
{"is_sidechain": [false], "free_energy": -7.965, "intermolecular_energy": -12.765, "internal_energy": -1.799}

$$$$
LIB_OKBVEGJXRLVXHT__M_PUB_ALL__e8__s20260927
     RDKit          3D

 72 75  0  0  0  0  0  0  0  0999 V2000
    1.5080  -16.4540    3.9280 C   0  0  0  0  0  0  0  0  0  0  0  0
    1.1530  -16.4040    2.5530 O   0  0  0  0  0  0  0  0  0  0  0  0
    1.4730  -15.2320    1.9450 C   0  0  0  0  0  0  0  0  0  0  0  0
    2.3490  -14.4610    2.3290 O   0  0  0  0  0  0  0  0  0  0  0  0
    0.3680  -14.8700    1.0280 C   0  0  0  0  0  0  0  0  0  0  0  0
   -0.5940  -14.0480    1.6370 C   0  0  0  0  0  0  0  0  0  0  0  0
   -1.7750  -13.7900    0.9810 C   0  0  0  0  0  0  0  0  0  0  0  0
   -2.6710  -12.9230    1.5550 O   0  0  0  0  0  0  0  0  0  0  0  0
   -2.1530  -11.5970    1.4340 C   0  0  0  0  0  0  0  0  0  0  0  0
   -2.0560  -14.4430   -0.2170 C   0  0  0  0  0  0  0  0  0  0  0  0
   -1.1370  -15.2780   -0.9050 C   0  0  0  0  0  0  0  0  0  0  0  0
   -1.5530  -15.8280   -1.9900 O   0  0  0  0  0  0  0  0  0  0  0  0
    0.1830  -15.3950   -0.2810 C   0  0  0  0  0  0  0  0  0  0  0  0
    1.4040  -16.0380   -0.9900 C   0  0  0  0  0  0  0  0  0  0  0  0
    1.5480  -17.2650   -0.9570 O   0  0  0  0  0  0  0  0  0  0  0  0
    2.4710  -15.1370   -1.7230 C   0  0  0  0  0  0  0  0  0  0  0  0
    2.0660  -14.4770   -2.9650 C   0  0  0  0  0  0  0  0  0  0  0  0
    0.9200  -14.5200   -3.5540 O   0  0  0  0  0  0  0  0  0  0  0  0
    3.0930  -13.7480   -3.5960 C   0  0  0  0  0  0  0  0  0  0  0  0
    4.4330  -13.6910   -3.1720 C   0  0  0  0  0  0  0  0  0  0  0  0
    5.3970  -12.9500   -4.0590 C   0  0  0  0  0  0  0  0  0  0  0  0
    4.8140  -14.3240   -1.9680 C   0  0  0  0  0  0  0  0  0  0  0  0
    6.3030  -14.4090   -1.6560 C   0  0  0  0  0  0  0  0  0  0  0  0
    6.9430  -15.3620   -2.3620 C   0  0  0  0  0  0  0  0  0  0  0  0
    8.3940  -15.6670   -2.2570 C   0  0  0  0  0  0  0  0  0  0  0  0
    8.9420  -15.9930   -3.6530 C   0  0  0  0  0  0  0  0  0  0  0  0
    8.6250  -16.8670   -1.3300 C   0  0  0  0  0  0  0  0  0  0  0  0
    9.1960  -14.5730   -1.7850 O   0  0  0  0  0  0  0  0  0  0  0  0
    8.5860  -13.6800   -0.9360 C   0  0  0  0  0  0  0  0  0  0  0  0
    9.4580  -12.8450   -0.2180 C   0  0  0  0  0  0  0  0  0  0  0  0
   10.9560  -12.9520   -0.3510 C   0  0  0  0  0  0  0  0  0  0  0  0
   11.6840  -11.7570    0.2130 C   0  0  0  0  0  0  0  0  0  0  0  0
   12.7020  -11.0560   -0.3260 C   0  0  0  0  0  0  0  0  0  0  0  0
   13.3010   -9.8950    0.4190 C   0  0  0  0  0  0  0  0  0  0  0  0
   13.3580  -11.3640   -1.6400 C   0  0  0  0  0  0  0  0  0  0  0  0
    8.9160  -11.8720    0.6380 C   0  0  0  0  0  0  0  0  0  0  0  0
    7.5370  -11.6950    0.8480 C   0  0  0  0  0  0  0  0  0  0  0  0
    7.0980  -10.7930    1.6420 O   0  0  0  0  0  0  0  0  0  0  0  0
    6.7090  -12.5860    0.1050 C   0  0  0  0  0  0  0  0  0  0  0  0
    7.1910  -13.5580   -0.8060 C   0  0  0  0  0  0  0  0  0  0  0  0
    3.8370  -15.0420   -1.1580 C   0  0  0  0  0  0  0  0  0  0  0  0
    4.1720  -15.5700   -0.0270 O   0  0  0  0  0  0  0  0  0  0  0  0
    0.6059  -16.3269    4.5445 H   0  0  0  0  0  0  0  0  0  0  0  0
    1.9712  -17.4263    4.1520 H   0  0  0  0  0  0  0  0  0  0  0  0
    2.2217  -15.6475    4.1520 H   0  0  0  0  0  0  0  0  0  0  0  0
   -0.4047  -13.6143    2.6300 H   0  0  0  0  0  0  0  0  0  0  0  0
   -1.9881  -11.1749    2.4363 H   0  0  0  0  0  0  0  0  0  0  0  0
   -1.1995  -11.6244    0.8863 H   0  0  0  0  0  0  0  0  0  0  0  0
   -2.8726  -10.9708    0.8863 H   0  0  0  0  0  0  0  0  0  0  0  0
   -3.0539  -14.3026   -0.6581 H   0  0  0  0  0  0  0  0  0  0  0  0
    2.8245  -13.1752   -4.4959 H   0  0  0  0  0  0  0  0  0  0  0  0
    6.1164  -12.3970   -3.4373 H   0  0  0  0  0  0  0  0  0  0  0  0
    5.9369  -13.6678   -4.6940 H   0  0  0  0  0  0  0  0  0  0  0  0
    4.8422  -12.2436   -4.6940 H   0  0  0  0  0  0  0  0  0  0  0  0
    6.3472  -15.9586   -3.0685 H   0  0  0  0  0  0  0  0  0  0  0  0
    9.8837  -16.5532   -3.5556 H   0  0  0  0  0  0  0  0  0  0  0  0
    8.2084  -16.6016   -4.2020 H   0  0  0  0  0  0  0  0  0  0  0  0
    9.1267  -15.0578   -4.2020 H   0  0  0  0  0  0  0  0  0  0  0  0
    8.5617  -16.5384   -0.2821 H   0  0  0  0  0  0  0  0  0  0  0  0
    7.8575  -17.6314   -1.5215 H   0  0  0  0  0  0  0  0  0  0  0  0
    9.6214  -17.2918   -1.5215 H   0  0  0  0  0  0  0  0  0  0  0  0
   11.2922  -13.8522    0.1844 H   0  0  0  0  0  0  0  0  0  0  0  0
   11.1885  -13.0026   -1.4250 H   0  0  0  0  0  0  0  0  0  0  0  0
   11.3372  -11.4105    1.1977 H   0  0  0  0  0  0  0  0  0  0  0  0
   13.2115  -10.0685    1.5015 H   0  0  0  0  0  0  0  0  0  0  0  0
   14.3630   -9.7955    0.1502 H   0  0  0  0  0  0  0  0  0  0  0  0
   12.7666   -8.9718    0.1502 H   0  0  0  0  0  0  0  0  0  0  0  0
   14.3403  -11.8252   -1.4602 H   0  0  0  0  0  0  0  0  0  0  0  0
   12.7256  -12.0593   -2.2115 H   0  0  0  0  0  0  0  0  0  0  0  0
   13.4890  -10.4333   -2.2115 H   0  0  0  0  0  0  0  0  0  0  0  0
    9.6109  -11.2099    1.1754 H   0  0  0  0  0  0  0  0  0  0  0  0
    5.6208  -12.5140    0.2488 H   0  0  0  0  0  0  0  0  0  0  0  0
  1  2  1  0
  2  3  1  0
  3  4  2  0
  3  5  1  0
  5  6  2  0
  6  7  1  0
  7  8  1  0
  8  9  1  0
  7 10  2  0
 10 11  1  0
 11 12  1  0
 11 13  2  0
 13 14  1  0
 14 15  2  0
 14 16  1  0
 16 17  2  0
 17 18  1  0
 17 19  1  0
 19 20  2  0
 20 21  1  0
 20 22  1  0
 22 23  1  0
 23 24  2  0
 24 25  1  0
 25 26  1  0
 25 27  1  0
 25 28  1  0
 28 29  1  0
 29 30  2  0
 30 31  1  0
 31 32  1  0
 32 33  2  3
 33 34  1  0
 33 35  1  0
 30 36  1  0
 36 37  2  0
 37 38  1  0
 37 39  1  0
 39 40  2  0
 22 41  2  0
 41 42  1  0
 13  5  1  0
 41 16  1  0
 40 23  1  0
 40 29  1  0
  1 43  1  0
  1 44  1  0
  1 45  1  0
  6 46  1  0
  9 47  1  0
  9 48  1  0
  9 49  1  0
 10 50  1  0
 19 51  1  0
 21 52  1  0
 21 53  1  0
 21 54  1  0
 24 55  1  0
 26 56  1  0
 26 57  1  0
 26 58  1  0
 27 59  1  0
 27 60  1  0
 27 61  1  0
 31 62  1  0
 31 63  1  0
 32 64  1  0
 34 65  1  0
 34 66  1  0
 34 67  1  0
 35 68  1  0
 35 69  1  0
 35 70  1  0
 36 71  1  0
 39 72  1  0
M  CHG  4  12  -1  18  -1  38  -1  42  -1
M  END
>  <meeko>  (9) 
{"is_sidechain": [false], "free_energy": -7.827, "intermolecular_energy": -12.066, "internal_energy": -2.295}

$$$$
