LIB_HHPJXWDHFALHCL__M_PUB_ALL__e8__s20260927
     RDKit          3D

 53 55  0  0  0  0  0  0  0  0999 V2000
   18.0880  -17.3610  -11.3140 C   0  0  0  0  0  0  0  0  0  0  0  0
   17.2510  -16.6460  -12.0780 C   0  0  0  0  0  0  0  0  0  0  0  0
   15.8240  -16.3150  -11.7170 C   0  0  0  0  0  0  0  0  0  0  0  0
   15.8530  -15.0430  -11.0730 O   0  0  0  0  0  0  0  0  0  0  0  0
   15.2050  -14.9600   -9.8540 C   0  0  0  0  0  0  0  0  0  0  0  0
   13.9340  -14.3600   -9.9700 C   0  0  0  0  0  0  0  0  0  0  0  0
   13.4830  -13.9590  -11.1710 F   0  0  0  0  0  0  0  0  0  0  0  0
   13.1060  -14.1700   -8.8740 C   0  0  0  0  0  0  0  0  0  0  0  0
   13.5390  -14.5910   -7.6240 C   0  0  0  0  0  0  0  0  0  0  0  0
   12.7210  -14.3790   -6.4200 C   0  0  0  0  0  0  0  0  0  0  0  0
   11.7960  -15.2220   -5.9170 C   0  0  0  0  0  0  0  0  0  0  0  0
   11.4720  -16.5960   -6.4220 C   0  0  0  0  0  0  0  0  0  0  0  0
   11.0630  -14.8280   -4.6750 C   0  0  0  0  0  0  0  0  0  0  0  0
    9.8520  -14.9780   -4.5640 O   0  0  0  0  0  0  0  0  0  0  0  0
   11.8330  -14.2390   -3.7080 N   0  0  0  0  0  0  0  0  0  0  0  0
   11.2780  -13.6540   -2.4830 C   0  0  2  0  0  0  0  0  0  0  0  0
   11.6970  -12.1650   -2.3500 C   0  0  2  0  0  0  0  0  0  0  0  0
   12.1430  -11.6450   -3.6180 O   0  0  0  0  0  0  0  0  0  0  0  0
   12.7940  -11.9480   -1.3010 C   0  0  1  0  0  0  0  0  0  0  0  0
   13.1170  -10.5440   -1.2630 O   0  0  0  0  0  0  0  0  0  0  0  0
   12.3630  -12.4370    0.0900 C   0  0  1  0  0  0  0  0  0  0  0  0
   11.5810  -11.4060    0.7330 O   0  0  0  0  0  0  0  0  0  0  0  0
   10.2960  -11.9740    0.9720 C   0  0  0  0  0  0  0  0  0  0  0  0
   10.1410  -13.1400    0.1740 O   0  0  0  0  0  0  0  0  0  0  0  0
   11.4660  -13.6650    0.0570 C   0  0  1  0  0  0  0  0  0  0  0  0
   11.6250  -14.4860   -1.2190 C   0  0  2  0  0  0  0  0  0  0  0  0
   12.9810  -14.9510   -1.2680 O   0  0  0  0  0  0  0  0  0  0  0  0
   14.8270  -15.1520   -7.5030 C   0  0  0  0  0  0  0  0  0  0  0  0
   15.2180  -15.5000   -6.2570 F   0  0  0  0  0  0  0  0  0  0  0  0
   15.7280  -15.3640   -8.5890 C   0  0  0  0  0  0  0  0  0  0  0  0
   16.8980  -15.8500   -8.3930 O   0  0  0  0  0  0  0  0  0  0  0  0
   19.1152  -17.5552  -11.6564 H   0  0  0  0  0  0  0  0  0  0  0  0
   17.7480  -17.7538  -10.3444 H   0  0  0  0  0  0  0  0  0  0  0  0
   17.6326  -16.2727  -13.0398 H   0  0  0  0  0  0  0  0  0  0  0  0
   15.2039  -16.2674  -12.6243 H   0  0  0  0  0  0  0  0  0  0  0  0
   15.3919  -17.0836  -11.0594 H   0  0  0  0  0  0  0  0  0  0  0  0
   12.1218  -13.6933   -8.9931 H   0  0  0  0  0  0  0  0  0  0  0  0
   12.8798  -13.4372   -5.8743 H   0  0  0  0  0  0  0  0  0  0  0  0
   11.3126  -17.2720   -5.5690 H   0  0  0  0  0  0  0  0  0  0  0  0
   10.5587  -16.5559   -7.0337 H   0  0  0  0  0  0  0  0  0  0  0  0
   12.3070  -16.9682   -7.0337 H   0  0  0  0  0  0  0  0  0  0  0  0
   12.7930  -13.9770   -3.9190 H   0  0  0  0  0  0  0  0  0  0  0  0
   10.1814  -13.6846   -2.5642 H   0  0  0  0  0  0  0  0  0  0  0  0
   10.8003  -11.6225   -2.0159 H   0  0  0  0  0  0  0  0  0  0  0  0
   11.4460  -11.0110   -3.8900 H   0  0  0  0  0  0  0  0  0  0  0  0
   13.6784  -12.5373   -1.5848 H   0  0  0  0  0  0  0  0  0  0  0  0
   13.7740  -10.4070   -1.9760 H   0  0  0  0  0  0  0  0  0  0  0  0
   13.2956  -12.6832    0.6188 H   0  0  0  0  0  0  0  0  0  0  0  0
   10.2047  -12.2417    2.0350 H   0  0  0  0  0  0  0  0  0  0  0  0
    9.5163  -11.2432    0.7113 H   0  0  0  0  0  0  0  0  0  0  0  0
   11.7224  -14.3663    0.8647 H   0  0  0  0  0  0  0  0  0  0  0  0
   10.9257  -15.3350   -1.2055 H   0  0  0  0  0  0  0  0  0  0  0  0
   13.4880  -14.3480   -0.6870 H   0  0  0  0  0  0  0  0  0  0  0  0
  1  2  2  0
  2  3  1  0
  3  4  1  0
  4  5  1  0
  5  6  2  0
  6  7  1  0
  6  8  1  0
  8  9  2  0
  9 10  1  0
 10 11  2  0
 11 12  1  0
 11 13  1  0
 13 14  2  0
 13 15  1  0
 15 16  1  0
 16 17  1  0
 17 18  1  0
 17 19  1  0
 19 20  1  0
 19 21  1  0
 21 22  1  0
 22 23  1  0
 23 24  1  0
 24 25  1  0
 25 26  1  0
 26 27  1  0
  9 28  1  0
 28 29  1  0
 28 30  2  0
 30 31  1  0
 30  5  1  0
 26 16  1  0
 25 21  1  0
  1 32  1  0
  1 33  1  0
  2 34  1  0
  3 35  1  0
  3 36  1  0
  8 37  1  0
 10 38  1  0
 12 39  1  0
 12 40  1  0
 12 41  1  0
 15 42  1  0
 16 43  1  6
 17 44  1  1
 18 45  1  0
 19 46  1  6
 20 47  1  0
 21 48  1  1
 23 49  1  0
 23 50  1  0
 25 51  1  1
 26 52  1  1
 27 53  1  0
M  CHG  1  31  -1
M  END
>  <meeko>  (1) 
{"is_sidechain": [false], "free_energy": -7.065, "intermolecular_energy": -10.163, "internal_energy": -1.174}

$$$$
LIB_HHPJXWDHFALHCL__M_PUB_ALL__e8__s20260927
     RDKit          3D

 53 55  0  0  0  0  0  0  0  0999 V2000
    9.4080  -11.8220    1.0590 C   0  0  0  0  0  0  0  0  0  0  0  0
   10.7110  -11.8210    1.3680 C   0  0  0  0  0  0  0  0  0  0  0  0
   11.8060  -12.3790    0.4920 C   0  0  0  0  0  0  0  0  0  0  0  0
   11.9610  -11.4680   -0.5930 O   0  0  0  0  0  0  0  0  0  0  0  0
   12.0980  -12.0310   -1.8500 C   0  0  0  0  0  0  0  0  0  0  0  0
   13.3710  -11.7850   -2.4040 C   0  0  0  0  0  0  0  0  0  0  0  0
   14.2860  -11.0840   -1.7110 F   0  0  0  0  0  0  0  0  0  0  0  0
   13.7320  -12.2530   -3.6590 C   0  0  0  0  0  0  0  0  0  0  0  0
   12.8140  -12.9930   -4.3890 C   0  0  0  0  0  0  0  0  0  0  0  0
   13.1260  -13.4810   -5.7410 C   0  0  0  0  0  0  0  0  0  0  0  0
   13.5820  -14.7070   -6.0690 C   0  0  0  0  0  0  0  0  0  0  0  0
   13.7770  -15.8660   -5.1380 C   0  0  0  0  0  0  0  0  0  0  0  0
   13.8430  -15.0170   -7.5080 C   0  0  0  0  0  0  0  0  0  0  0  0
   14.4860  -16.0020   -7.8520 O   0  0  0  0  0  0  0  0  0  0  0  0
   13.3630  -14.0920   -8.3980 N   0  0  0  0  0  0  0  0  0  0  0  0
   13.6410  -14.1400   -9.8370 C   0  0  2  0  0  0  0  0  0  0  0  0
   13.6040  -12.7140  -10.4480 C   0  0  2  0  0  0  0  0  0  0  0  0
   13.7280  -11.7130   -9.4180 O   0  0  0  0  0  0  0  0  0  0  0  0
   12.3320  -12.4480  -11.2610 C   0  0  1  0  0  0  0  0  0  0  0  0
   12.3910  -11.1020  -11.7730 O   0  0  0  0  0  0  0  0  0  0  0  0
   12.1650  -13.4520  -12.4110 C   0  0  1  0  0  0  0  0  0  0  0  0
   12.9480  -13.0110  -13.5430 O   0  0  0  0  0  0  0  0  0  0  0  0
   13.8980  -14.0420  -13.7920 C   0  0  0  0  0  0  0  0  0  0  0  0
   13.9850  -14.8890  -12.6540 O   0  0  0  0  0  0  0  0  0  0  0  0
   12.6740  -14.8480  -12.0840 C   0  0  1  0  0  0  0  0  0  0  0  0
   12.7130  -15.1340  -10.5870 C   0  0  2  0  0  0  0  0  0  0  0  0
   11.3680  -15.0480  -10.0950 O   0  0  0  0  0  0  0  0  0  0  0  0
   11.5270  -13.2040   -3.8510 C   0  0  0  0  0  0  0  0  0  0  0  0
   10.6550  -13.8890   -4.6240 F   0  0  0  0  0  0  0  0  0  0  0  0
   11.0930  -12.7400   -2.5740 C   0  0  0  0  0  0  0  0  0  0  0  0
    9.8940  -12.9440   -2.1680 O   0  0  0  0  0  0  0  0  0  0  0  0
    8.6764  -11.3926    1.7592 H   0  0  0  0  0  0  0  0  0  0  0  0
    9.0693  -12.2522    0.1049 H   0  0  0  0  0  0  0  0  0  0  0  0
   11.0051  -11.3807    2.3321 H   0  0  0  0  0  0  0  0  0  0  0  0
   12.7447  -12.4563    1.0602 H   0  0  0  0  0  0  0  0  0  0  0  0
   11.5520  -13.3868    0.1316 H   0  0  0  0  0  0  0  0  0  0  0  0
   14.7305  -12.0405   -4.0686 H   0  0  0  0  0  0  0  0  0  0  0  0
   12.9716  -12.7737   -6.5692 H   0  0  0  0  0  0  0  0  0  0  0  0
   13.7178  -15.5144   -4.0974 H   0  0  0  0  0  0  0  0  0  0  0  0
   12.9924  -16.6160   -5.3168 H   0  0  0  0  0  0  0  0  0  0  0  0
   14.7638  -16.3179   -5.3168 H   0  0  0  0  0  0  0  0  0  0  0  0
   12.9940  -13.2080   -8.0550 H   0  0  0  0  0  0  0  0  0  0  0  0
   14.6605  -14.5317   -9.9685 H   0  0  0  0  0  0  0  0  0  0  0  0
   14.4606  -12.6533  -11.1355 H   0  0  0  0  0  0  0  0  0  0  0  0
   12.8960  -11.1960   -9.4670 H   0  0  0  0  0  0  0  0  0  0  0  0
   11.4587  -12.5702  -10.6035 H   0  0  0  0  0  0  0  0  0  0  0  0
   12.3010  -10.5200  -10.9910 H   0  0  0  0  0  0  0  0  0  0  0  0
   11.0839  -13.4974  -12.6092 H   0  0  0  0  0  0  0  0  0  0  0  0
   13.5797  -14.6313  -14.6646 H   0  0  0  0  0  0  0  0  0  0  0  0
   14.8824  -13.5938  -13.9924 H   0  0  0  0  0  0  0  0  0  0  0  0
   12.0044  -15.6206  -12.4899 H   0  0  0  0  0  0  0  0  0  0  0  0
   13.1264  -16.1380  -10.4105 H   0  0  0  0  0  0  0  0  0  0  0  0
   11.1530  -14.0940  -10.0790 H   0  0  0  0  0  0  0  0  0  0  0  0
  1  2  2  0
  2  3  1  0
  3  4  1  0
  4  5  1  0
  5  6  2  0
  6  7  1  0
  6  8  1  0
  8  9  2  0
  9 10  1  0
 10 11  2  0
 11 12  1  0
 11 13  1  0
 13 14  2  0
 13 15  1  0
 15 16  1  0
 16 17  1  0
 17 18  1  0
 17 19  1  0
 19 20  1  0
 19 21  1  0
 21 22  1  0
 22 23  1  0
 23 24  1  0
 24 25  1  0
 25 26  1  0
 26 27  1  0
  9 28  1  0
 28 29  1  0
 28 30  2  0
 30 31  1  0
 30  5  1  0
 26 16  1  0
 25 21  1  0
  1 32  1  0
  1 33  1  0
  2 34  1  0
  3 35  1  0
  3 36  1  0
  8 37  1  0
 10 38  1  0
 12 39  1  0
 12 40  1  0
 12 41  1  0
 15 42  1  0
 16 43  1  1
 17 44  1  6
 18 45  1  0
 19 46  1  1
 20 47  1  0
 21 48  1  6
 23 49  1  0
 23 50  1  0
 25 51  1  6
 26 52  1  6
 27 53  1  0
M  CHG  1  31  -1
M  END
>  <meeko>  (2) 
{"is_sidechain": [false], "free_energy": -6.955, "intermolecular_energy": -10.132, "internal_energy": -1.046}

$$$$
LIB_HHPJXWDHFALHCL__M_PUB_ALL__e8__s20260927
     RDKit          3D

 53 55  0  0  0  0  0  0  0  0999 V2000
   -3.9720  -10.7140   -0.7330 C   0  0  0  0  0  0  0  0  0  0  0  0
   -2.8910  -10.4720    0.0200 C   0  0  0  0  0  0  0  0  0  0  0  0
   -1.8810  -11.5120    0.4390 C   0  0  0  0  0  0  0  0  0  0  0  0
   -0.6700  -10.8130    0.7140 O   0  0  0  0  0  0  0  0  0  0  0  0
    0.4980  -11.4220    0.2890 C   0  0  0  0  0  0  0  0  0  0  0  0
    1.0290  -10.8030   -0.8620 C   0  0  0  0  0  0  0  0  0  0  0  0
    0.4090   -9.7410   -1.4050 F   0  0  0  0  0  0  0  0  0  0  0  0
    2.1960  -11.2470   -1.4660 C   0  0  0  0  0  0  0  0  0  0  0  0
    2.8660  -12.3300   -0.9160 C   0  0  0  0  0  0  0  0  0  0  0  0
    4.0860  -12.8700   -1.5370 C   0  0  0  0  0  0  0  0  0  0  0  0
    5.3570  -12.6110   -1.1700 C   0  0  0  0  0  0  0  0  0  0  0  0
    5.7990  -11.7920    0.0050 C   0  0  0  0  0  0  0  0  0  0  0  0
    6.4710  -13.2590   -1.9280 C   0  0  0  0  0  0  0  0  0  0  0  0
    6.2740  -14.1970   -2.6930 O   0  0  0  0  0  0  0  0  0  0  0  0
    7.7210  -12.7680   -1.6590 N   0  0  0  0  0  0  0  0  0  0  0  0
    8.9520  -13.3640   -2.1880 C   0  0  2  0  0  0  0  0  0  0  0  0
   10.0710  -13.3530   -1.1120 C   0  0  2  0  0  0  0  0  0  0  0  0
    9.5130  -13.1630    0.2030 O   0  0  0  0  0  0  0  0  0  0  0  0
   11.1330  -12.2780   -1.3700 C   0  0  1  0  0  0  0  0  0  0  0  0
   12.1140  -12.3450   -0.3160 O   0  0  0  0  0  0  0  0  0  0  0  0
   11.8050  -12.4530   -2.7400 C   0  0  1  0  0  0  0  0  0  0  0  0
   12.8620  -13.4330   -2.6280 O   0  0  0  0  0  0  0  0  0  0  0  0
   12.5140  -14.4940   -3.5130 C   0  0  0  0  0  0  0  0  0  0  0  0
   11.1380  -14.3900   -3.8550 O   0  0  0  0  0  0  0  0  0  0  0  0
   10.8720  -12.9850   -3.8180 C   0  0  1  0  0  0  0  0  0  0  0  0
    9.4010  -12.7100   -3.5220 C   0  0  2  0  0  0  0  0  0  0  0  0
    9.2280  -11.2860   -3.4770 O   0  0  0  0  0  0  0  0  0  0  0  0
    2.3120  -12.9750    0.2100 C   0  0  0  0  0  0  0  0  0  0  0  0
    2.9780  -14.0540    0.6760 F   0  0  0  0  0  0  0  0  0  0  0  0
    1.1120  -12.5730    0.8690 C   0  0  0  0  0  0  0  0  0  0  0  0
    0.6540  -13.2300    1.8690 O   0  0  0  0  0  0  0  0  0  0  0  0
   -4.6572   -9.8932   -0.9914 H   0  0  0  0  0  0  0  0  0  0  0  0
   -4.1745  -11.7335   -1.0930 H   0  0  0  0  0  0  0  0  0  0  0  0
   -2.7273   -9.4382    0.3582 H   0  0  0  0  0  0  0  0  0  0  0  0
   -2.2290  -12.0382    1.3401 H   0  0  0  0  0  0  0  0  0  0  0  0
   -1.7352  -12.2649   -0.3496 H   0  0  0  0  0  0  0  0  0  0  0  0
    2.5839  -10.7484   -2.3665 H   0  0  0  0  0  0  0  0  0  0  0  0
    3.9467  -13.5544   -2.3868 H   0  0  0  0  0  0  0  0  0  0  0  0
    5.5210  -12.3071    0.9363 H   0  0  0  0  0  0  0  0  0  0  0  0
    6.8906  -11.6605   -0.0295 H   0  0  0  0  0  0  0  0  0  0  0  0
    5.3098  -10.8074   -0.0295 H   0  0  0  0  0  0  0  0  0  0  0  0
    7.8500  -12.1150   -0.8890 H   0  0  0  0  0  0  0  0  0  0  0  0
    8.7372  -14.4147   -2.4326 H   0  0  0  0  0  0  0  0  0  0  0  0
   10.5643  -14.3343   -1.1727 H   0  0  0  0  0  0  0  0  0  0  0  0
    9.9030  -13.8780    0.7490 H   0  0  0  0  0  0  0  0  0  0  0  0
   10.6461  -11.2916   -1.3786 H   0  0  0  0  0  0  0  0  0  0  0  0
   12.9600  -12.0740   -0.7280 H   0  0  0  0  0  0  0  0  0  0  0  0
   12.1557  -11.4505   -3.0264 H   0  0  0  0  0  0  0  0  0  0  0  0
   13.1252  -14.4268   -4.4251 H   0  0  0  0  0  0  0  0  0  0  0  0
   12.6986  -15.4599   -3.0200 H   0  0  0  0  0  0  0  0  0  0  0  0
   11.0537  -12.4875   -4.7821 H   0  0  0  0  0  0  0  0  0  0  0  0
    8.7738  -13.1518   -4.3103 H   0  0  0  0  0  0  0  0  0  0  0  0
    8.6510  -11.1150   -2.7060 H   0  0  0  0  0  0  0  0  0  0  0  0
  1  2  2  0
  2  3  1  0
  3  4  1  0
  4  5  1  0
  5  6  2  0
  6  7  1  0
  6  8  1  0
  8  9  2  0
  9 10  1  0
 10 11  2  0
 11 12  1  0
 11 13  1  0
 13 14  2  0
 13 15  1  0
 15 16  1  0
 16 17  1  0
 17 18  1  0
 17 19  1  0
 19 20  1  0
 19 21  1  0
 21 22  1  0
 22 23  1  0
 23 24  1  0
 24 25  1  0
 25 26  1  0
 26 27  1  0
  9 28  1  0
 28 29  1  0
 28 30  2  0
 30 31  1  0
 30  5  1  0
 26 16  1  0
 25 21  1  0
  1 32  1  0
  1 33  1  0
  2 34  1  0
  3 35  1  0
  3 36  1  0
  8 37  1  0
 10 38  1  0
 12 39  1  0
 12 40  1  0
 12 41  1  0
 15 42  1  0
 16 43  1  6
 17 44  1  1
 18 45  1  0
 19 46  1  6
 20 47  1  0
 21 48  1  6
 23 49  1  0
 23 50  1  0
 25 51  1  6
 26 52  1  6
 27 53  1  0
M  CHG  1  31  -1
M  END
>  <meeko>  (3) 
{"is_sidechain": [false], "free_energy": -6.831, "intermolecular_energy": -9.986, "internal_energy": -1.014}

$$$$
LIB_HHPJXWDHFALHCL__M_PUB_ALL__e8__s20260927
     RDKit          3D

 53 55  0  0  0  0  0  0  0  0999 V2000
   -6.4460  -14.1780    7.8080 C   0  0  0  0  0  0  0  0  0  0  0  0
   -6.0310  -15.2710    7.1540 C   0  0  0  0  0  0  0  0  0  0  0  0
   -4.7160  -15.9710    7.3910 C   0  0  0  0  0  0  0  0  0  0  0  0
   -4.5400  -16.8810    6.3080 O   0  0  0  0  0  0  0  0  0  0  0  0
   -3.3200  -16.8290    5.6570 C   0  0  0  0  0  0  0  0  0  0  0  0
   -3.3900  -16.0880    4.4590 C   0  0  0  0  0  0  0  0  0  0  0  0
   -4.5490  -15.5230    4.0810 F   0  0  0  0  0  0  0  0  0  0  0  0
   -2.2860  -15.9060    3.6400 C   0  0  0  0  0  0  0  0  0  0  0  0
   -1.0720  -16.4630    4.0150 C   0  0  0  0  0  0  0  0  0  0  0  0
    0.1230  -16.3370    3.1660 C   0  0  0  0  0  0  0  0  0  0  0  0
    1.1840  -15.5340    3.3850 C   0  0  0  0  0  0  0  0  0  0  0  0
    1.4170  -14.6700    4.5880 C   0  0  0  0  0  0  0  0  0  0  0  0
    2.3100  -15.5450    2.4010 C   0  0  0  0  0  0  0  0  0  0  0  0
    2.5730  -16.5360    1.7300 O   0  0  0  0  0  0  0  0  0  0  0  0
    3.0520  -14.3950    2.3530 N   0  0  0  0  0  0  0  0  0  0  0  0
    4.2790  -14.2600    1.5630 C   0  0  2  0  0  0  0  0  0  0  0  0
    5.2070  -13.1770    2.1740 C   0  0  2  0  0  0  0  0  0  0  0  0
    4.8380  -12.9000    3.5390 O   0  0  0  0  0  0  0  0  0  0  0  0
    5.2030  -11.8700    1.3740 C   0  0  1  0  0  0  0  0  0  0  0  0
    6.0830  -10.9330    2.0270 O   0  0  0  0  0  0  0  0  0  0  0  0
    5.6380  -12.0870   -0.0830 C   0  0  1  0  0  0  0  0  0  0  0  0
    7.0810  -12.0930   -0.1510 O   0  0  0  0  0  0  0  0  0  0  0  0
    7.4490  -13.3760   -0.6490 C   0  0  0  0  0  0  0  0  0  0  0  0
    6.3480  -14.2650   -0.5190 O   0  0  0  0  0  0  0  0  0  0  0  0
    5.1990  -13.4240   -0.6600 C   0  0  1  0  0  0  0  0  0  0  0  0
    3.9900  -14.0160    0.0570 C   0  0  2  0  0  0  0  0  0  0  0  0
    2.8970  -13.1030   -0.1130 O   0  0  0  0  0  0  0  0  0  0  0  0
   -1.0130  -17.2390    5.1910 C   0  0  0  0  0  0  0  0  0  0  0  0
    0.1810  -17.8000    5.4850 F   0  0  0  0  0  0  0  0  0  0  0  0
   -2.1140  -17.4720    6.0680 C   0  0  0  0  0  0  0  0  0  0  0  0
   -1.9890  -18.2170    7.1040 O   0  0  0  0  0  0  0  0  0  0  0  0
   -7.4230  -13.7323    7.5697 H   0  0  0  0  0  0  0  0  0  0  0  0
   -5.8097  -13.7262    8.5833 H   0  0  0  0  0  0  0  0  0  0  0  0
   -6.6991  -15.6893    6.3868 H   0  0  0  0  0  0  0  0  0  0  0  0
   -3.8945  -15.2398    7.4101 H   0  0  0  0  0  0  0  0  0  0  0  0
   -4.7145  -16.4975    8.3568 H   0  0  0  0  0  0  0  0  0  0  0  0
   -2.3714  -15.3289    2.7074 H   0  0  0  0  0  0  0  0  0  0  0  0
    0.1541  -16.9611    2.2608 H   0  0  0  0  0  0  0  0  0  0  0  0
    1.2573  -15.2621    5.5012 H   0  0  0  0  0  0  0  0  0  0  0  0
    2.4495  -14.2909    4.5727 H   0  0  0  0  0  0  0  0  0  0  0  0
    0.7151  -13.8231    4.5727 H   0  0  0  0  0  0  0  0  0  0  0  0
    2.9030  -13.6710    3.0530 H   0  0  0  0  0  0  0  0  0  0  0  0
    4.8140  -15.2200    1.6096 H   0  0  0  0  0  0  0  0  0  0  0  0
    6.2259  -13.5898    2.1365 H   0  0  0  0  0  0  0  0  0  0  0  0
    4.2620  -12.1080    3.4900 H   0  0  0  0  0  0  0  0  0  0  0  0
    4.1766  -11.4756    1.3438 H   0  0  0  0  0  0  0  0  0  0  0  0
    6.9660  -11.0830    1.6310 H   0  0  0  0  0  0  0  0  0  0  0  0
    5.1695  -11.2731   -0.6558 H   0  0  0  0  0  0  0  0  0  0  0  0
    7.7297  -13.2917   -1.7092 H   0  0  0  0  0  0  0  0  0  0  0  0
    8.3038  -13.7624   -0.0745 H   0  0  0  0  0  0  0  0  0  0  0  0
    4.8697  -13.3173   -1.7041 H   0  0  0  0  0  0  0  0  0  0  0  0
    3.7447  -14.9977   -0.3744 H   0  0  0  0  0  0  0  0  0  0  0  0
    2.3280  -13.2230    0.6750 H   0  0  0  0  0  0  0  0  0  0  0  0
  1  2  2  0
  2  3  1  0
  3  4  1  0
  4  5  1  0
  5  6  2  0
  6  7  1  0
  6  8  1  0
  8  9  2  0
  9 10  1  0
 10 11  2  0
 11 12  1  0
 11 13  1  0
 13 14  2  0
 13 15  1  0
 15 16  1  0
 16 17  1  0
 17 18  1  0
 17 19  1  0
 19 20  1  0
 19 21  1  0
 21 22  1  0
 22 23  1  0
 23 24  1  0
 24 25  1  0
 25 26  1  0
 26 27  1  0
  9 28  1  0
 28 29  1  0
 28 30  2  0
 30 31  1  0
 30  5  1  0
 26 16  1  0
 25 21  1  0
  1 32  1  0
  1 33  1  0
  2 34  1  0
  3 35  1  0
  3 36  1  0
  8 37  1  0
 10 38  1  0
 12 39  1  0
 12 40  1  0
 12 41  1  0
 15 42  1  0
 16 43  1  6
 17 44  1  1
 18 45  1  0
 19 46  1  6
 20 47  1  0
 21 48  1  6
 23 49  1  0
 23 50  1  0
 25 51  1  6
 26 52  1  6
 27 53  1  0
M  CHG  1  31  -1
M  END
>  <meeko>  (4) 
{"is_sidechain": [false], "free_energy": -6.735, "intermolecular_energy": -9.885, "internal_energy": -0.977}

$$$$
LIB_HHPJXWDHFALHCL__M_PUB_ALL__e8__s20260927
     RDKit          3D

 53 55  0  0  0  0  0  0  0  0999 V2000
    7.2460  -11.8780  -10.6550 C   0  0  0  0  0  0  0  0  0  0  0  0
    6.7770  -13.1300  -10.7490 C   0  0  0  0  0  0  0  0  0  0  0  0
    6.3200  -13.9700   -9.5820 C   0  0  0  0  0  0  0  0  0  0  0  0
    6.7980  -13.3240   -8.4050 O   0  0  0  0  0  0  0  0  0  0  0  0
    6.0480  -13.5090   -7.2570 C   0  0  0  0  0  0  0  0  0  0  0  0
    5.2670  -12.3770   -6.9470 C   0  0  0  0  0  0  0  0  0  0  0  0
    5.3030  -11.2930   -7.7420 F   0  0  0  0  0  0  0  0  0  0  0  0
    4.4380  -12.3350   -5.8370 C   0  0  0  0  0  0  0  0  0  0  0  0
    4.3680  -13.4470   -5.0090 C   0  0  0  0  0  0  0  0  0  0  0  0
    3.5370  -13.4460   -3.7950 C   0  0  0  0  0  0  0  0  0  0  0  0
    2.2200  -13.7270   -3.7220 C   0  0  0  0  0  0  0  0  0  0  0  0
    1.3420  -14.1920   -4.8450 C   0  0  0  0  0  0  0  0  0  0  0  0
    1.5460  -13.6720   -2.3890 C   0  0  0  0  0  0  0  0  0  0  0  0
    1.6160  -12.6840   -1.6680 O   0  0  0  0  0  0  0  0  0  0  0  0
    0.9020  -14.8230   -2.0160 N   0  0  0  0  0  0  0  0  0  0  0  0
    0.3060  -15.0180   -0.6900 C   0  0  2  0  0  0  0  0  0  0  0  0
    1.1520  -16.0150    0.1470 C   0  0  2  0  0  0  0  0  0  0  0  0
    2.4750  -16.1530   -0.4080 O   0  0  0  0  0  0  0  0  0  0  0  0
    0.5040  -17.3990    0.2570 C   0  0  1  0  0  0  0  0  0  0  0  0
    1.3680  -18.2460    1.0400 O   0  0  0  0  0  0  0  0  0  0  0  0
   -0.8940  -17.3300    0.8890 C   0  0  1  0  0  0  0  0  0  0  0  0
   -0.7630  -17.3060    2.3280 O   0  0  0  0  0  0  0  0  0  0  0  0
   -1.3400  -16.0770    2.7580 C   0  0  0  0  0  0  0  0  0  0  0  0
   -1.4590  -15.1980    1.6480 O   0  0  0  0  0  0  0  0  0  0  0  0
   -1.6660  -16.0680    0.5320 C   0  0  1  0  0  0  0  0  0  0  0  0
   -1.1900  -15.4250   -0.7670 C   0  0  2  0  0  0  0  0  0  0  0  0
   -1.4100  -16.3700   -1.8240 O   0  0  0  0  0  0  0  0  0  0  0  0
    5.1820  -14.5630   -5.2970 C   0  0  0  0  0  0  0  0  0  0  0  0
    5.1120  -15.5990   -4.4310 F   0  0  0  0  0  0  0  0  0  0  0  0
    6.0620  -14.6610   -6.4150 C   0  0  0  0  0  0  0  0  0  0  0  0
    6.7940  -15.6980   -6.5910 O   0  0  0  0  0  0  0  0  0  0  0  0
    7.5578  -11.3380  -11.5612 H   0  0  0  0  0  0  0  0  0  0  0  0
    7.3191  -11.3904   -9.6717 H   0  0  0  0  0  0  0  0  0  0  0  0
    6.7211  -13.5786  -11.7518 H   0  0  0  0  0  0  0  0  0  0  0  0
    5.2217  -14.0289   -9.5635 H   0  0  0  0  0  0  0  0  0  0  0  0
    6.7067  -14.9971   -9.6563 H   0  0  0  0  0  0  0  0  0  0  0  0
    3.8452  -11.4352   -5.6158 H   0  0  0  0  0  0  0  0  0  0  0  0
    4.0409  -13.1901   -2.8513 H   0  0  0  0  0  0  0  0  0  0  0  0
    0.4409  -14.6692   -4.4324 H   0  0  0  0  0  0  0  0  0  0  0  0
    1.0501  -13.3302   -5.4632 H   0  0  0  0  0  0  0  0  0  0  0  0
    1.8909  -14.9176   -5.4632 H   0  0  0  0  0  0  0  0  0  0  0  0
    1.0230  -15.6690   -2.5680 H   0  0  0  0  0  0  0  0  0  0  0  0
    0.3217  -14.0491   -0.1694 H   0  0  0  0  0  0  0  0  0  0  0  0
    1.2114  -15.5908    1.1602 H   0  0  0  0  0  0  0  0  0  0  0  0
    2.3340  -16.4690   -1.3250 H   0  0  0  0  0  0  0  0  0  0  0  0
    0.3755  -17.8119   -0.7544 H   0  0  0  0  0  0  0  0  0  0  0  0
    1.1710  -19.1610    0.7500 H   0  0  0  0  0  0  0  0  0  0  0  0
   -1.4350  -18.2078    0.5058 H   0  0  0  0  0  0  0  0  0  0  0  0
   -2.3363  -16.2682    3.1833 H   0  0  0  0  0  0  0  0  0  0  0  0
   -0.6977  -15.6174    3.5236 H   0  0  0  0  0  0  0  0  0  0  0  0
   -2.7284  -16.2890    0.3519 H   0  0  0  0  0  0  0  0  0  0  0  0
   -1.7541  -14.4992   -0.9531 H   0  0  0  0  0  0  0  0  0  0  0  0
   -2.1420  -16.0010   -2.3590 H   0  0  0  0  0  0  0  0  0  0  0  0
  1  2  2  0
  2  3  1  0
  3  4  1  0
  4  5  1  0
  5  6  2  0
  6  7  1  0
  6  8  1  0
  8  9  2  0
  9 10  1  0
 10 11  2  0
 11 12  1  0
 11 13  1  0
 13 14  2  0
 13 15  1  0
 15 16  1  0
 16 17  1  0
 17 18  1  0
 17 19  1  0
 19 20  1  0
 19 21  1  0
 21 22  1  0
 22 23  1  0
 23 24  1  0
 24 25  1  0
 25 26  1  0
 26 27  1  0
  9 28  1  0
 28 29  1  0
 28 30  2  0
 30 31  1  0
 30  5  1  0
 26 16  1  0
 25 21  1  0
  1 32  1  0
  1 33  1  0
  2 34  1  0
  3 35  1  0
  3 36  1  0
  8 37  1  0
 10 38  1  0
 12 39  1  0
 12 40  1  0
 12 41  1  0
 15 42  1  0
 16 43  1  1
 17 44  1  1
 18 45  1  0
 19 46  1  6
 20 47  1  0
 21 48  1  1
 23 49  1  0
 23 50  1  0
 25 51  1  6
 26 52  1  6
 27 53  1  0
M  CHG  1  31  -1
M  END
>  <meeko>  (5) 
{"is_sidechain": [false], "free_energy": -6.733, "intermolecular_energy": -9.803, "internal_energy": -1.055}

$$$$
LIB_HHPJXWDHFALHCL__M_PUB_ALL__e8__s20260927
     RDKit          3D

 53 55  0  0  0  0  0  0  0  0999 V2000
   12.9420  -10.7140   -0.2100 C   0  0  0  0  0  0  0  0  0  0  0  0
   12.3770  -11.8890    0.1010 C   0  0  0  0  0  0  0  0  0  0  0  0
   11.3460  -12.6000   -0.7420 C   0  0  0  0  0  0  0  0  0  0  0  0
   10.3950  -13.1540    0.1630 O   0  0  0  0  0  0  0  0  0  0  0  0
    9.0650  -13.0480   -0.2050 C   0  0  0  0  0  0  0  0  0  0  0  0
    8.4530  -11.9060    0.3500 C   0  0  0  0  0  0  0  0  0  0  0  0
    9.1620  -11.0670    1.1250 F   0  0  0  0  0  0  0  0  0  0  0  0
    7.1200  -11.5990    0.1170 C   0  0  0  0  0  0  0  0  0  0  0  0
    6.3690  -12.4380   -0.6930 C   0  0  0  0  0  0  0  0  0  0  0  0
    4.9410  -12.1840   -0.9420 C   0  0  0  0  0  0  0  0  0  0  0  0
    3.9080  -12.5840   -0.1740 C   0  0  0  0  0  0  0  0  0  0  0  0
    3.9960  -13.2900    1.1460 C   0  0  0  0  0  0  0  0  0  0  0  0
    2.5180  -12.2270   -0.5950 C   0  0  0  0  0  0  0  0  0  0  0  0
    2.1840  -12.2070   -1.7740 O   0  0  0  0  0  0  0  0  0  0  0  0
    1.6750  -11.8710    0.4250 N   0  0  0  0  0  0  0  0  0  0  0  0
    0.3220  -11.3510    0.2060 C   0  0  2  0  0  0  0  0  0  0  0  0
    0.1300   -9.9980    0.9430 C   0  0  2  0  0  0  0  0  0  0  0  0
    1.4050   -9.4160    1.2810 O   0  0  0  0  0  0  0  0  0  0  0  0
   -0.7180  -10.1280    2.2130 C   0  0  1  0  0  0  0  0  0  0  0  0
   -0.8260   -8.8270    2.8240 O   0  0  0  0  0  0  0  0  0  0  0  0
   -2.1130  -10.6980    1.9150 C   0  0  1  0  0  0  0  0  0  0  0  0
   -2.9790   -9.6270    1.4780 O   0  0  0  0  0  0  0  0  0  0  0  0
   -3.3930   -9.9660    0.1580 C   0  0  0  0  0  0  0  0  0  0  0  0
   -2.5320  -10.9700   -0.3620 O   0  0  0  0  0  0  0  0  0  0  0  0
   -2.1300  -11.7200    0.7880 C   0  0  1  0  0  0  0  0  0  0  0  0
   -0.7770  -12.3870    0.5670 C   0  0  2  0  0  0  0  0  0  0  0  0
   -0.4400  -13.0910    1.7710 O   0  0  0  0  0  0  0  0  0  0  0  0
    6.9720  -13.6020   -1.2130 C   0  0  0  0  0  0  0  0  0  0  0  0
    6.1830  -14.4090   -1.9560 F   0  0  0  0  0  0  0  0  0  0  0  0
    8.3320  -13.9780   -1.0020 C   0  0  0  0  0  0  0  0  0  0  0  0
    8.7990  -15.0700   -1.4830 O   0  0  0  0  0  0  0  0  0  0  0  0
   13.6870  -10.2664    0.4642 H   0  0  0  0  0  0  0  0  0  0  0  0
   12.6607  -10.1973   -1.1395 H   0  0  0  0  0  0  0  0  0  0  0  0
   12.6875  -12.3708    1.0398 H   0  0  0  0  0  0  0  0  0  0  0  0
   10.8542  -11.8882   -1.4213 H   0  0  0  0  0  0  0  0  0  0  0  0
   11.8093  -13.3829   -1.3604 H   0  0  0  0  0  0  0  0  0  0  0  0
    6.6659  -10.7042    0.5676 H   0  0  0  0  0  0  0  0  0  0  0  0
    4.6914  -11.6096   -1.8463 H   0  0  0  0  0  0  0  0  0  0  0  0
    3.9046  -12.5567    1.9608 H   0  0  0  0  0  0  0  0  0  0  0  0
    3.1827  -14.0267    1.2227 H   0  0  0  0  0  0  0  0  0  0  0  0
    4.9652  -13.8045    1.2227 H   0  0  0  0  0  0  0  0  0  0  0  0
    2.0490  -11.7330    1.3610 H   0  0  0  0  0  0  0  0  0  0  0  0
    0.2068  -11.1618   -0.8715 H   0  0  0  0  0  0  0  0  0  0  0  0
   -0.4099   -9.3419    0.2444 H   0  0  0  0  0  0  0  0  0  0  0  0
    1.6850   -8.9360    0.4730 H   0  0  0  0  0  0  0  0  0  0  0  0
   -0.2260  -10.8337    2.8985 H   0  0  0  0  0  0  0  0  0  0  0  0
    0.0940   -8.5440    3.0010 H   0  0  0  0  0  0  0  0  0  0  0  0
   -2.4398  -11.1817    2.8473 H   0  0  0  0  0  0  0  0  0  0  0  0
   -4.4256  -10.3444    0.1827 H   0  0  0  0  0  0  0  0  0  0  0  0
   -3.3466   -9.0733   -0.4830 H   0  0  0  0  0  0  0  0  0  0  0  0
   -2.8094  -12.5543    1.0169 H   0  0  0  0  0  0  0  0  0  0  0  0
   -0.8394  -13.0818   -0.2835 H   0  0  0  0  0  0  0  0  0  0  0  0
   -0.0560  -12.4200    2.3710 H   0  0  0  0  0  0  0  0  0  0  0  0
  1  2  2  0
  2  3  1  0
  3  4  1  0
  4  5  1  0
  5  6  2  0
  6  7  1  0
  6  8  1  0
  8  9  2  0
  9 10  1  0
 10 11  2  0
 11 12  1  0
 11 13  1  0
 13 14  2  0
 13 15  1  0
 15 16  1  0
 16 17  1  0
 17 18  1  0
 17 19  1  0
 19 20  1  0
 19 21  1  0
 21 22  1  0
 22 23  1  0
 23 24  1  0
 24 25  1  0
 25 26  1  0
 26 27  1  0
  9 28  1  0
 28 29  1  0
 28 30  2  0
 30 31  1  0
 30  5  1  0
 26 16  1  0
 25 21  1  0
  1 32  1  0
  1 33  1  0
  2 34  1  0
  3 35  1  0
  3 36  1  0
  8 37  1  0
 10 38  1  0
 12 39  1  0
 12 40  1  0
 12 41  1  0
 15 42  1  0
 16 43  1  6
 17 44  1  6
 18 45  1  0
 19 46  1  1
 20 47  1  0
 21 48  1  1
 23 49  1  0
 23 50  1  0
 25 51  1  1
 26 52  1  6
 27 53  1  0
M  CHG  1  31  -1
M  END
>  <meeko>  (6) 
{"is_sidechain": [false], "free_energy": -6.712, "intermolecular_energy": -9.781, "internal_energy": -1.047}

$$$$
LIB_HHPJXWDHFALHCL__M_PUB_ALL__e8__s20260927
     RDKit          3D

 53 55  0  0  0  0  0  0  0  0999 V2000
   -1.8910  -10.4740    2.9970 C   0  0  0  0  0  0  0  0  0  0  0  0
   -1.4560   -9.3620    2.3900 C   0  0  0  0  0  0  0  0  0  0  0  0
   -0.3760   -9.3200    1.3370 C   0  0  0  0  0  0  0  0  0  0  0  0
   -0.5670  -10.4690    0.5140 O   0  0  0  0  0  0  0  0  0  0  0  0
    0.5510  -10.9340   -0.1570 C   0  0  0  0  0  0  0  0  0  0  0  0
    1.1690  -12.0030    0.5230 C   0  0  0  0  0  0  0  0  0  0  0  0
    0.6530  -12.4590    1.6780 F   0  0  0  0  0  0  0  0  0  0  0  0
    2.3080  -12.6260    0.0360 C   0  0  0  0  0  0  0  0  0  0  0  0
    2.8520  -12.1870   -1.1630 C   0  0  0  0  0  0  0  0  0  0  0  0
    4.0830  -12.7820   -1.7080 C   0  0  0  0  0  0  0  0  0  0  0  0
    5.3420  -12.5580   -1.2810 C   0  0  0  0  0  0  0  0  0  0  0  0
    5.7510  -11.7280   -0.1010 C   0  0  0  0  0  0  0  0  0  0  0  0
    6.4700  -13.2610   -1.9660 C   0  0  0  0  0  0  0  0  0  0  0  0
    6.3000  -14.3020   -2.5890 O   0  0  0  0  0  0  0  0  0  0  0  0
    7.7020  -12.6880   -1.7940 N   0  0  0  0  0  0  0  0  0  0  0  0
    8.9480  -13.3030   -2.2620 C   0  0  2  0  0  0  0  0  0  0  0  0
   10.0280  -13.2670   -1.1470 C   0  0  2  0  0  0  0  0  0  0  0  0
    9.4230  -13.0410    0.1410 O   0  0  0  0  0  0  0  0  0  0  0  0
   11.1040  -12.2040   -1.3950 C   0  0  1  0  0  0  0  0  0  0  0  0
   12.0450  -12.2470   -0.3040 O   0  0  0  0  0  0  0  0  0  0  0  0
   11.8250  -12.4180   -2.7340 C   0  0  1  0  0  0  0  0  0  0  0  0
   12.8710  -13.3980   -2.5580 O   0  0  0  0  0  0  0  0  0  0  0  0
   12.5510  -14.4800   -3.4270 C   0  0  0  0  0  0  0  0  0  0  0  0
   11.1890  -14.3800   -3.8220 O   0  0  0  0  0  0  0  0  0  0  0  0
   10.9280  -12.9740   -3.8310 C   0  0  1  0  0  0  0  0  0  0  0  0
    9.4490  -12.6850   -3.5960 C   0  0  2  0  0  0  0  0  0  0  0  0
    9.2820  -11.2600   -3.5950 O   0  0  0  0  0  0  0  0  0  0  0  0
    2.2570  -11.0900   -1.8200 C   0  0  0  0  0  0  0  0  0  0  0  0
    2.8560  -10.6720   -2.9580 F   0  0  0  0  0  0  0  0  0  0  0  0
    1.0930  -10.4020   -1.3650 C   0  0  0  0  0  0  0  0  0  0  0  0
    0.6300   -9.3910   -2.0030 O   0  0  0  0  0  0  0  0  0  0  0  0
   -2.6851  -10.4118    3.7557 H   0  0  0  0  0  0  0  0  0  0  0  0
   -1.4542  -11.4494    2.7368 H   0  0  0  0  0  0  0  0  0  0  0  0
   -1.9207   -8.4083    2.6808 H   0  0  0  0  0  0  0  0  0  0  0  0
   -0.4667   -8.4030    0.7362 H   0  0  0  0  0  0  0  0  0  0  0  0
    0.6247   -9.3201    1.7937 H   0  0  0  0  0  0  0  0  0  0  0  0
    2.7727  -13.4544    0.5907 H   0  0  0  0  0  0  0  0  0  0  0  0
    3.9636  -13.4805   -2.5493 H   0  0  0  0  0  0  0  0  0  0  0  0
    5.4903  -12.2571    0.8275 H   0  0  0  0  0  0  0  0  0  0  0  0
    6.8370  -11.5560   -0.1324 H   0  0  0  0  0  0  0  0  0  0  0  0
    5.2257  -10.7620   -0.1324 H   0  0  0  0  0  0  0  0  0  0  0  0
    7.8150  -11.9290   -1.1250 H   0  0  0  0  0  0  0  0  0  0  0  0
    8.7366  -14.3590   -2.4862 H   0  0  0  0  0  0  0  0  0  0  0  0
   10.5197  -14.2508   -1.1637 H   0  0  0  0  0  0  0  0  0  0  0  0
    9.3090  -12.0680    0.2000 H   0  0  0  0  0  0  0  0  0  0  0  0
   10.6228  -11.2163   -1.4486 H   0  0  0  0  0  0  0  0  0  0  0  0
   11.5760  -12.6950    0.4290 H   0  0  0  0  0  0  0  0  0  0  0  0
   12.1920  -11.4253   -3.0337 H   0  0  0  0  0  0  0  0  0  0  0  0
   13.1955  -14.4388   -4.3174 H   0  0  0  0  0  0  0  0  0  0  0  0
   12.7130  -15.4333   -2.9027 H   0  0  0  0  0  0  0  0  0  0  0  0
   11.1458  -12.5025   -4.8006 H   0  0  0  0  0  0  0  0  0  0  0  0
    8.8481  -13.1444   -4.3947 H   0  0  0  0  0  0  0  0  0  0  0  0
    9.3880  -10.9810   -4.5270 H   0  0  0  0  0  0  0  0  0  0  0  0
  1  2  2  0
  2  3  1  0
  3  4  1  0
  4  5  1  0
  5  6  2  0
  6  7  1  0
  6  8  1  0
  8  9  2  0
  9 10  1  0
 10 11  2  0
 11 12  1  0
 11 13  1  0
 13 14  2  0
 13 15  1  0
 15 16  1  0
 16 17  1  0
 17 18  1  0
 17 19  1  0
 19 20  1  0
 19 21  1  0
 21 22  1  0
 22 23  1  0
 23 24  1  0
 24 25  1  0
 25 26  1  0
 26 27  1  0
  9 28  1  0
 28 29  1  0
 28 30  2  0
 30 31  1  0
 30  5  1  0
 26 16  1  0
 25 21  1  0
  1 32  1  0
  1 33  1  0
  2 34  1  0
  3 35  1  0
  3 36  1  0
  8 37  1  0
 10 38  1  0
 12 39  1  0
 12 40  1  0
 12 41  1  0
 15 42  1  0
 16 43  1  6
 17 44  1  1
 18 45  1  0
 19 46  1  6
 20 47  1  0
 21 48  1  6
 23 49  1  0
 23 50  1  0
 25 51  1  6
 26 52  1  6
 27 53  1  0
M  CHG  1  31  -1
M  END
>  <meeko>  (7) 
{"is_sidechain": [false], "free_energy": -6.691, "intermolecular_energy": -9.731, "internal_energy": -1.068}

$$$$
LIB_HHPJXWDHFALHCL__M_PUB_ALL__e8__s20260927
     RDKit          3D

 53 55  0  0  0  0  0  0  0  0999 V2000
  -12.8100  -15.4160    8.8110 C   0  0  0  0  0  0  0  0  0  0  0  0
  -11.6420  -15.5930    8.1790 C   0  0  0  0  0  0  0  0  0  0  0  0
  -10.4450  -16.3020    8.7630 C   0  0  0  0  0  0  0  0  0  0  0  0
   -9.9240  -17.1350    7.7310 O   0  0  0  0  0  0  0  0  0  0  0  0
   -8.7360  -16.7240    7.1530 C   0  0  0  0  0  0  0  0  0  0  0  0
   -8.9130  -16.3120    5.8160 C   0  0  0  0  0  0  0  0  0  0  0  0
  -10.1350  -16.3390    5.2570 F   0  0  0  0  0  0  0  0  0  0  0  0
   -7.8570  -15.8610    5.0380 C   0  0  0  0  0  0  0  0  0  0  0  0
   -6.5880  -15.8060    5.5950 C   0  0  0  0  0  0  0  0  0  0  0  0
   -5.4240  -15.3750    4.8050 C   0  0  0  0  0  0  0  0  0  0  0  0
   -4.4700  -16.1690    4.2790 C   0  0  0  0  0  0  0  0  0  0  0  0
   -4.4420  -17.6680    4.3050 C   0  0  0  0  0  0  0  0  0  0  0  0
   -3.3580  -15.5410    3.5020 C   0  0  0  0  0  0  0  0  0  0  0  0
   -3.5390  -14.5580    2.7930 O   0  0  0  0  0  0  0  0  0  0  0  0
   -2.1490  -16.1790    3.5980 N   0  0  0  0  0  0  0  0  0  0  0  0
   -0.9770  -15.8050    2.8010 C   0  0  2  0  0  0  0  0  0  0  0  0
   -0.3510  -17.0560    2.1280 C   0  0  2  0  0  0  0  0  0  0  0  0
   -1.2910  -18.1490    2.1090 O   0  0  0  0  0  0  0  0  0  0  0  0
    0.9430  -17.5140    2.8100 C   0  0  1  0  0  0  0  0  0  0  0  0
    1.4340  -18.6800    2.1200 O   0  0  0  0  0  0  0  0  0  0  0  0
    2.0090  -16.4080    2.8190 C   0  0  1  0  0  0  0  0  0  0  0  0
    2.7060  -16.4120    1.5530 O   0  0  0  0  0  0  0  0  0  0  0  0
    2.4760  -15.1320    0.9700 C   0  0  0  0  0  0  0  0  0  0  0  0
    1.3780  -14.5080    1.6230 O   0  0  0  0  0  0  0  0  0  0  0  0
    1.4360  -15.0060    2.9630 C   0  0  1  0  0  0  0  0  0  0  0  0
    0.0600  -14.9880    3.6190 C   0  0  2  0  0  0  0  0  0  0  0  0
    0.2040  -15.5230    4.9420 O   0  0  0  0  0  0  0  0  0  0  0  0
   -6.4050  -16.2580    6.9190 C   0  0  0  0  0  0  0  0  0  0  0  0
   -5.1410  -16.2290    7.3960 F   0  0  0  0  0  0  0  0  0  0  0  0
   -7.4460  -16.7420    7.7650 C   0  0  0  0  0  0  0  0  0  0  0  0
   -7.1950  -17.1660    8.9480 O   0  0  0  0  0  0  0  0  0  0  0  0
  -13.6323  -14.8856    8.3086 H   0  0  0  0  0  0  0  0  0  0  0  0
  -12.9466  -15.8011    9.8323 H   0  0  0  0  0  0  0  0  0  0  0  0
  -11.5488  -15.1918    7.1590 H   0  0  0  0  0  0  0  0  0  0  0  0
   -9.6871  -15.5702    9.0794 H   0  0  0  0  0  0  0  0  0  0  0  0
  -10.7255  -16.8931    9.6473 H   0  0  0  0  0  0  0  0  0  0  0  0
   -8.0234  -15.5518    3.9955 H   0  0  0  0  0  0  0  0  0  0  0  0
   -5.3218  -14.2946    4.6252 H   0  0  0  0  0  0  0  0  0  0  0  0
   -4.4355  -18.0166    5.3483 H   0  0  0  0  0  0  0  0  0  0  0  0
   -5.3330  -18.0603    3.7929 H   0  0  0  0  0  0  0  0  0  0  0  0
   -3.5370  -18.0268    3.7929 H   0  0  0  0  0  0  0  0  0  0  0  0
   -2.0940  -17.0870    4.0540 H   0  0  0  0  0  0  0  0  0  0  0  0
   -1.3183  -15.1324    2.0003 H   0  0  0  0  0  0  0  0  0  0  0  0
   -0.1002  -16.7576    1.0994 H   0  0  0  0  0  0  0  0  0  0  0  0
   -1.8640  -18.0030    2.8920 H   0  0  0  0  0  0  0  0  0  0  0  0
    0.7249  -17.7541    3.8611 H   0  0  0  0  0  0  0  0  0  0  0  0
    0.7290  -19.3540    2.2120 H   0  0  0  0  0  0  0  0  0  0  0  0
    2.6544  -16.6261    3.6827 H   0  0  0  0  0  0  0  0  0  0  0  0
    3.3749  -14.5087    1.0860 H   0  0  0  0  0  0  0  0  0  0  0  0
    2.2494  -15.2501   -0.0999 H   0  0  0  0  0  0  0  0  0  0  0  0
    2.0600  -14.3874    3.6249 H   0  0  0  0  0  0  0  0  0  0  0  0
   -0.3197  -13.9564    3.6582 H   0  0  0  0  0  0  0  0  0  0  0  0
   -0.7060  -15.6130    5.2910 H   0  0  0  0  0  0  0  0  0  0  0  0
  1  2  2  0
  2  3  1  0
  3  4  1  0
  4  5  1  0
  5  6  2  0
  6  7  1  0
  6  8  1  0
  8  9  2  0
  9 10  1  0
 10 11  2  0
 11 12  1  0
 11 13  1  0
 13 14  2  0
 13 15  1  0
 15 16  1  0
 16 17  1  0
 17 18  1  0
 17 19  1  0
 19 20  1  0
 19 21  1  0
 21 22  1  0
 22 23  1  0
 23 24  1  0
 24 25  1  0
 25 26  1  0
 26 27  1  0
  9 28  1  0
 28 29  1  0
 28 30  2  0
 30 31  1  0
 30  5  1  0
 26 16  1  0
 25 21  1  0
  1 32  1  0
  1 33  1  0
  2 34  1  0
  3 35  1  0
  3 36  1  0
  8 37  1  0
 10 38  1  0
 12 39  1  0
 12 40  1  0
 12 41  1  0
 15 42  1  0
 16 43  1  6
 17 44  1  6
 18 45  1  0
 19 46  1  1
 20 47  1  0
 21 48  1  1
 23 49  1  0
 23 50  1  0
 25 51  1  1
 26 52  1  1
 27 53  1  0
M  CHG  1  31  -1
M  END
>  <meeko>  (8) 
{"is_sidechain": [false], "free_energy": -6.687, "intermolecular_energy": -9.83, "internal_energy": -0.962}

$$$$
LIB_HHPJXWDHFALHCL__M_PUB_ALL__e8__s20260927
     RDKit          3D

 53 55  0  0  0  0  0  0  0  0999 V2000
   -3.3880  -11.9250    0.2210 C   0  0  0  0  0  0  0  0  0  0  0  0
   -3.6470  -13.2390    0.1670 C   0  0  0  0  0  0  0  0  0  0  0  0
   -3.0950  -14.2660    1.1240 C   0  0  0  0  0  0  0  0  0  0  0  0
   -3.2740  -13.7360    2.4350 O   0  0  0  0  0  0  0  0  0  0  0  0
   -4.1510  -14.4210    3.2590 C   0  0  0  0  0  0  0  0  0  0  0  0
   -5.3670  -13.7280    3.4270 C   0  0  0  0  0  0  0  0  0  0  0  0
   -5.5660  -12.5510    2.8090 F   0  0  0  0  0  0  0  0  0  0  0  0
   -6.3950  -14.2250    4.2140 C   0  0  0  0  0  0  0  0  0  0  0  0
   -6.2240  -15.4470    4.8500 C   0  0  0  0  0  0  0  0  0  0  0  0
   -7.2630  -16.0040    5.7290 C   0  0  0  0  0  0  0  0  0  0  0  0
   -7.4750  -15.6900    7.0230 C   0  0  0  0  0  0  0  0  0  0  0  0
   -6.7590  -14.6380    7.8160 C   0  0  0  0  0  0  0  0  0  0  0  0
   -8.5880  -16.3680    7.7550 C   0  0  0  0  0  0  0  0  0  0  0  0
   -9.4820  -15.7340    8.3050 O   0  0  0  0  0  0  0  0  0  0  0  0
   -8.5000  -17.7330    7.8130 N   0  0  0  0  0  0  0  0  0  0  0  0
   -9.4110  -18.5660    8.6040 C   0  0  2  0  0  0  0  0  0  0  0  0
   -8.6600  -19.7910    9.1920 C   0  0  2  0  0  0  0  0  0  0  0  0
   -7.2350  -19.5750    9.1700 O   0  0  0  0  0  0  0  0  0  0  0  0
   -8.9850  -21.0970    8.4580 C   0  0  1  0  0  0  0  0  0  0  0  0
   -8.2340  -22.1630    9.0710 O   0  0  0  0  0  0  0  0  0  0  0  0
  -10.4880  -21.4130    8.4890 C   0  0  1  0  0  0  0  0  0  0  0  0
  -10.8090  -22.0660    9.7370 O   0  0  0  0  0  0  0  0  0  0  0  0
  -11.7490  -21.2220   10.3950 C   0  0  0  0  0  0  0  0  0  0  0  0
  -11.7170  -19.9300    9.8020 O   0  0  0  0  0  0  0  0  0  0  0  0
  -11.3750  -20.1790    8.4360 C   0  0  1  0  0  0  0  0  0  0  0  0
  -10.6830  -18.9720    7.8110 C   0  0  2  0  0  0  0  0  0  0  0  0
  -10.3540  -19.3150    6.4570 O   0  0  0  0  0  0  0  0  0  0  0  0
   -4.9910  -16.1180    4.7140 C   0  0  0  0  0  0  0  0  0  0  0  0
   -4.8590  -17.2790    5.3930 F   0  0  0  0  0  0  0  0  0  0  0  0
   -3.8940  -15.6540    3.9290 C   0  0  0  0  0  0  0  0  0  0  0  0
   -2.7910  -16.3060    3.8810 O   0  0  0  0  0  0  0  0  0  0  0  0
   -3.8345  -11.2455   -0.5199 H   0  0  0  0  0  0  0  0  0  0  0  0
   -2.7289  -11.5261    1.0062 H   0  0  0  0  0  0  0  0  0  0  0  0
   -4.3112  -13.5947   -0.6344 H   0  0  0  0  0  0  0  0  0  0  0  0
   -3.6417  -15.2148    1.0199 H   0  0  0  0  0  0  0  0  0  0  0  0
   -2.0337  -14.4701    0.9193 H   0  0  0  0  0  0  0  0  0  0  0  0
   -7.3312  -13.6598    4.3324 H   0  0  0  0  0  0  0  0  0  0  0  0
   -7.9357  -16.7530    5.2858 H   0  0  0  0  0  0  0  0  0  0  0  0
   -6.8925  -14.8342    8.8901 H   0  0  0  0  0  0  0  0  0  0  0  0
   -5.6871  -14.6594    7.5698 H   0  0  0  0  0  0  0  0  0  0  0  0
   -7.1721  -13.6487    7.5698 H   0  0  0  0  0  0  0  0  0  0  0  0
   -7.6510  -18.1960    7.4960 H   0  0  0  0  0  0  0  0  0  0  0  0
   -9.7707  -17.9595    9.4483 H   0  0  0  0  0  0  0  0  0  0  0  0
   -9.0084  -19.8944   10.2302 H   0  0  0  0  0  0  0  0  0  0  0  0
   -6.9110  -20.1050    8.4100 H   0  0  0  0  0  0  0  0  0  0  0  0
   -8.7043  -20.9899    7.3998 H   0  0  0  0  0  0  0  0  0  0  0  0
   -7.5660  -22.4290    8.4060 H   0  0  0  0  0  0  0  0  0  0  0  0
  -10.6778  -22.0336    7.6008 H   0  0  0  0  0  0  0  0  0  0  0  0
  -12.7583  -21.6476   10.2942 H   0  0  0  0  0  0  0  0  0  0  0  0
  -11.4907  -21.1442   11.4614 H   0  0  0  0  0  0  0  0  0  0  0  0
  -12.2539  -20.3486    7.7967 H   0  0  0  0  0  0  0  0  0  0  0  0
  -11.3557  -18.1021    7.8372 H   0  0  0  0  0  0  0  0  0  0  0  0
  -10.5250  -18.5070    5.9320 H   0  0  0  0  0  0  0  0  0  0  0  0
  1  2  2  0
  2  3  1  0
  3  4  1  0
  4  5  1  0
  5  6  2  0
  6  7  1  0
  6  8  1  0
  8  9  2  0
  9 10  1  0
 10 11  2  0
 11 12  1  0
 11 13  1  0
 13 14  2  0
 13 15  1  0
 15 16  1  0
 16 17  1  0
 17 18  1  0
 17 19  1  0
 19 20  1  0
 19 21  1  0
 21 22  1  0
 22 23  1  0
 23 24  1  0
 24 25  1  0
 25 26  1  0
 26 27  1  0
  9 28  1  0
 28 29  1  0
 28 30  2  0
 30 31  1  0
 30  5  1  0
 26 16  1  0
 25 21  1  0
  1 32  1  0
  1 33  1  0
  2 34  1  0
  3 35  1  0
  3 36  1  0
  8 37  1  0
 10 38  1  0
 12 39  1  0
 12 40  1  0
 12 41  1  0
 15 42  1  0
 16 43  1  1
 17 44  1  1
 18 45  1  0
 19 46  1  6
 20 47  1  0
 21 48  1  6
 23 49  1  0
 23 50  1  0
 25 51  1  6
 26 52  1  6
 27 53  1  0
M  CHG  1  31  -1
M  END
>  <meeko>  (9) 
{"is_sidechain": [false], "free_energy": -6.619, "intermolecular_energy": -9.549, "internal_energy": -1.145}

$$$$
