LIB_BPLOGUVUEKYGFE__M_PUB_ALL__e8__s20260927
     RDKit          3D

 77 83  0  0  0  0  0  0  0  0999 V2000
   -1.6390   -9.3110    2.6440 C   0  0  0  0  0  0  0  0  0  0  0  0
   -1.1740  -10.7430    2.7320 C   0  0  0  0  0  0  0  0  0  0  0  0
   -1.1960  -11.3380    3.8100 O   0  0  0  0  0  0  0  0  0  0  0  0
   -0.6450  -11.3660    1.5080 C   0  0  0  0  0  0  0  0  0  0  0  0
    0.5590  -10.9960    1.0380 N   0  0  0  0  0  0  0  0  0  0  0  0
    0.8180  -11.8250    0.0000 N   0  0  0  0  0  0  0  0  0  0  0  0
    2.0460  -11.7400   -0.7150 C   0  0  0  0  0  0  0  0  0  0  0  0
    3.2070  -12.3060   -0.1620 C   0  0  0  0  0  0  0  0  0  0  0  0
    4.4220  -12.2330   -0.8460 C   0  0  0  0  0  0  0  0  0  0  0  0
    4.4880  -11.5980   -2.0850 C   0  0  0  0  0  0  0  0  0  0  0  0
    3.3410  -11.0340   -2.6410 C   0  0  0  0  0  0  0  0  0  0  0  0
    2.1210  -11.1030   -1.9610 C   0  0  0  0  0  0  0  0  0  0  0  0
   -0.2290  -12.6830   -0.2200 C   0  0  0  0  0  0  0  0  0  0  0  0
   -1.2160  -12.3950    0.7070 C   0  0  0  0  0  0  0  0  0  0  0  0
   -2.5080  -13.0740    0.7500 C   0  0  0  0  0  0  0  0  0  0  0  0
   -3.5090  -12.5640    0.2460 O   0  0  0  0  0  0  0  0  0  0  0  0
   -2.5990  -14.3230    1.5180 C   0  0  0  0  0  0  0  0  0  0  0  0
   -3.0560  -14.3240    2.7870 N   0  0  0  0  0  0  0  0  0  0  0  0
   -3.0570  -15.6240    3.1700 N   0  0  0  0  0  0  0  0  0  0  0  0
   -3.4180  -15.9880    4.4980 C   0  0  0  0  0  0  0  0  0  0  0  0
   -4.7730  -16.0020    4.8660 C   0  0  0  0  0  0  0  0  0  0  0  0
   -5.1470  -16.3530    6.1650 C   0  0  0  0  0  0  0  0  0  0  0  0
   -4.1760  -16.6910    7.1040 C   0  0  0  0  0  0  0  0  0  0  0  0
   -2.8280  -16.6800    6.7460 C   0  0  0  0  0  0  0  0  0  0  0  0
   -2.4450  -16.3290    5.4480 C   0  0  0  0  0  0  0  0  0  0  0  0
   -2.7050  -16.4480    2.1320 C   0  0  0  0  0  0  0  0  0  0  0  0
   -2.3680  -15.6490    1.0530 C   0  0  0  0  0  0  0  0  0  0  0  0
   -1.9270  -16.1660   -0.2390 C   0  0  0  0  0  0  0  0  0  0  0  0
   -2.7190  -16.7300   -0.9890 O   0  0  0  0  0  0  0  0  0  0  0  0
   -0.5060  -16.0310   -0.5990 C   0  0  0  0  0  0  0  0  0  0  0  0
   -0.1170  -15.4410   -1.7450 N   0  0  0  0  0  0  0  0  0  0  0  0
    1.2390  -15.4120   -1.7030 N   0  0  0  0  0  0  0  0  0  0  0  0
    1.9900  -14.8840   -2.7900 C   0  0  0  0  0  0  0  0  0  0  0  0
    3.3730  -15.1040   -2.8440 C   0  0  0  0  0  0  0  0  0  0  0  0
    4.1330  -14.5810   -3.8920 C   0  0  0  0  0  0  0  0  0  0  0  0
    3.5220  -13.8420   -4.9110 C   0  0  0  0  0  0  0  0  0  0  0  0
    4.3440  -13.2520   -6.0190 C   0  0  0  0  0  0  0  0  0  0  0  0
    2.1430  -13.6170   -4.8520 C   0  0  0  0  0  0  0  0  0  0  0  0
    1.3760  -14.1380   -3.8040 C   0  0  0  0  0  0  0  0  0  0  0  0
    1.7090  -15.9520   -0.5330 C   0  0  0  0  0  0  0  0  0  0  0  0
    0.6210  -16.3980    0.1900 C   0  0  0  0  0  0  0  0  0  0  0  0
    0.7100  -17.0580    1.4820 C   0  0  0  0  0  0  0  0  0  0  0  0
    0.6310  -18.2800    1.5850 O   0  0  0  0  0  0  0  0  0  0  0  0
    0.8380  -16.2430    2.7170 C   0  0  0  0  0  0  0  0  0  0  0  0
    0.9870  -16.9010    3.9440 C   0  0  0  0  0  0  0  0  0  0  0  0
    1.1000  -16.1620    5.1230 C   0  0  0  0  0  0  0  0  0  0  0  0
    1.0520  -14.7690    5.0820 C   0  0  0  0  0  0  0  0  0  0  0  0
    0.8820  -14.1100    3.8650 C   0  0  0  0  0  0  0  0  0  0  0  0
    0.7670  -14.8440    2.6820 C   0  0  0  0  0  0  0  0  0  0  0  0
   -1.7707   -8.9053    3.6579 H   0  0  0  0  0  0  0  0  0  0  0  0
   -0.8885   -8.7142    2.1049 H   0  0  0  0  0  0  0  0  0  0  0  0
   -2.5969   -9.2690    2.1049 H   0  0  0  0  0  0  0  0  0  0  0  0
    3.1585  -12.8093    0.8149 H   0  0  0  0  0  0  0  0  0  0  0  0
    5.3276  -12.6769   -0.4068 H   0  0  0  0  0  0  0  0  0  0  0  0
    5.4452  -11.5420   -2.6240 H   0  0  0  0  0  0  0  0  0  0  0  0
    3.3957  -10.5326   -3.6186 H   0  0  0  0  0  0  0  0  0  0  0  0
    1.2189  -10.6566   -2.4048 H   0  0  0  0  0  0  0  0  0  0  0  0
   -0.2762  -13.4618   -0.9954 H   0  0  0  0  0  0  0  0  0  0  0  0
   -5.5435  -15.7353    4.1277 H   0  0  0  0  0  0  0  0  0  0  0  0
   -6.2103  -16.3625    6.4467 H   0  0  0  0  0  0  0  0  0  0  0  0
   -4.4717  -16.9664    8.1271 H   0  0  0  0  0  0  0  0  0  0  0  0
   -2.0624  -16.9488    7.4886 H   0  0  0  0  0  0  0  0  0  0  0  0
   -1.3802  -16.3204    5.1721 H   0  0  0  0  0  0  0  0  0  0  0  0
   -2.6926  -17.5477    2.1530 H   0  0  0  0  0  0  0  0  0  0  0  0
    3.8634  -15.6930   -2.0550 H   0  0  0  0  0  0  0  0  0  0  0  0
    5.2195  -14.7511   -3.9167 H   0  0  0  0  0  0  0  0  0  0  0  0
    5.1670  -12.6613   -5.5904 H   0  0  0  0  0  0  0  0  0  0  0  0
    4.7575  -14.0607   -6.6394 H   0  0  0  0  0  0  0  0  0  0  0  0
    3.7101  -12.6015   -6.6394 H   0  0  0  0  0  0  0  0  0  0  0  0
    1.6553  -13.0232   -5.6391 H   0  0  0  0  0  0  0  0  0  0  0  0
    0.2906  -13.9616   -3.7765 H   0  0  0  0  0  0  0  0  0  0  0  0
    2.7633  -16.0178   -0.2261 H   0  0  0  0  0  0  0  0  0  0  0  0
    1.0150  -18.0001    3.9789 H   0  0  0  0  0  0  0  0  0  0  0  0
    1.2271  -16.6792    6.0855 H   0  0  0  0  0  0  0  0  0  0  0  0
    1.1484  -14.1888    6.0116 H   0  0  0  0  0  0  0  0  0  0  0  0
    0.8384  -13.0112    3.8364 H   0  0  0  0  0  0  0  0  0  0  0  0
    0.6208  -14.3241    1.7237 H   0  0  0  0  0  0  0  0  0  0  0  0
  1  2  1  0
  2  3  2  0
  2  4  1  0
  4  5  2  0
  5  6  1  0
  6  7  1  0
  7  8  2  0
  8  9  1  0
  9 10  2  0
 10 11  1  0
 11 12  2  0
  6 13  1  0
 13 14  2  0
 14 15  1  0
 15 16  2  0
 15 17  1  0
 17 18  2  0
 18 19  1  0
 19 20  1  0
 20 21  2  0
 21 22  1  0
 22 23  2  0
 23 24  1  0
 24 25  2  0
 19 26  1  0
 26 27  2  0
 27 28  1  0
 28 29  2  0
 28 30  1  0
 30 31  2  0
 31 32  1  0
 32 33  1  0
 33 34  2  0
 34 35  1  0
 35 36  2  0
 36 37  1  0
 36 38  1  0
 38 39  2  0
 32 40  1  0
 40 41  2  0
 41 42  1  0
 42 43  2  0
 42 44  1  0
 44 45  2  0
 45 46  1  0
 46 47  2  0
 47 48  1  0
 48 49  2  0
 14  4  1  0
 27 17  1  0
 41 30  1  0
 49 44  1  0
 12  7  1  0
 25 20  1  0
 39 33  1  0
  1 50  1  0
  1 51  1  0
  1 52  1  0
  8 53  1  0
  9 54  1  0
 10 55  1  0
 11 56  1  0
 12 57  1  0
 13 58  1  0
 21 59  1  0
 22 60  1  0
 23 61  1  0
 24 62  1  0
 25 63  1  0
 26 64  1  0
 34 65  1  0
 35 66  1  0
 37 67  1  0
 37 68  1  0
 37 69  1  0
 38 70  1  0
 39 71  1  0
 40 72  1  0
 45 73  1  0
 46 74  1  0
 47 75  1  0
 48 76  1  0
 49 77  1  0
M  END
>  <meeko>  (1) 
{"is_sidechain": [false], "free_energy": -9.013, "intermolecular_energy": -14.282, "internal_energy": -5.897}

$$$$
LIB_BPLOGUVUEKYGFE__M_PUB_ALL__e8__s20260927
     RDKit          3D

 77 83  0  0  0  0  0  0  0  0999 V2000
   13.7670  -13.3680   -3.7860 C   0  0  0  0  0  0  0  0  0  0  0  0
   12.6630  -12.3490   -3.6540 C   0  0  0  0  0  0  0  0  0  0  0  0
   12.9230  -11.1450   -3.6820 O   0  0  0  0  0  0  0  0  0  0  0  0
   11.2960  -12.8470   -3.4330 C   0  0  0  0  0  0  0  0  0  0  0  0
   10.4950  -12.2260   -2.5490 N   0  0  0  0  0  0  0  0  0  0  0  0
    9.2870  -12.8250   -2.6670 N   0  0  0  0  0  0  0  0  0  0  0  0
    8.1750  -12.3830   -1.8950 C   0  0  0  0  0  0  0  0  0  0  0  0
    7.7950  -13.1100   -0.7550 C   0  0  0  0  0  0  0  0  0  0  0  0
    6.7070  -12.6950    0.0170 C   0  0  0  0  0  0  0  0  0  0  0  0
    5.9920  -11.5550   -0.3430 C   0  0  0  0  0  0  0  0  0  0  0  0
    6.3620  -10.8270   -1.4720 C   0  0  0  0  0  0  0  0  0  0  0  0
    7.4510  -11.2360   -2.2490 C   0  0  0  0  0  0  0  0  0  0  0  0
    9.3280  -13.8460   -3.5800 C   0  0  0  0  0  0  0  0  0  0  0  0
   10.6200  -13.9240   -4.0720 C   0  0  0  0  0  0  0  0  0  0  0  0
   11.0600  -14.9300   -5.0340 C   0  0  0  0  0  0  0  0  0  0  0  0
   11.5150  -16.0110   -4.6580 O   0  0  0  0  0  0  0  0  0  0  0  0
   11.0540  -14.5640   -6.4570 C   0  0  0  0  0  0  0  0  0  0  0  0
   12.1530  -14.0470   -7.0430 N   0  0  0  0  0  0  0  0  0  0  0  0
   11.8220  -13.8770   -8.3460 N   0  0  0  0  0  0  0  0  0  0  0  0
   12.7380  -13.2740   -9.2540 C   0  0  0  0  0  0  0  0  0  0  0  0
   13.7620  -14.0500   -9.8190 C   0  0  0  0  0  0  0  0  0  0  0  0
   14.6730  -13.4760  -10.7090 C   0  0  0  0  0  0  0  0  0  0  0  0
   14.5690  -12.1270  -11.0410 C   0  0  0  0  0  0  0  0  0  0  0  0
   13.5550  -11.3490  -10.4830 C   0  0  0  0  0  0  0  0  0  0  0  0
   12.6400  -11.9170   -9.5910 C   0  0  0  0  0  0  0  0  0  0  0  0
   10.5700  -14.3720   -8.6100 C   0  0  0  0  0  0  0  0  0  0  0  0
   10.0230  -14.7960   -7.4110 C   0  0  0  0  0  0  0  0  0  0  0  0
    8.6880  -15.3750   -7.2830 C   0  0  0  0  0  0  0  0  0  0  0  0
    8.5400  -16.5930   -7.2240 O   0  0  0  0  0  0  0  0  0  0  0  0
    7.5300  -14.4670   -7.2710 C   0  0  0  0  0  0  0  0  0  0  0  0
    6.8970  -14.1420   -6.1280 N   0  0  0  0  0  0  0  0  0  0  0  0
    5.9520  -13.2320   -6.4770 N   0  0  0  0  0  0  0  0  0  0  0  0
    5.0620  -12.6980   -5.5040 C   0  0  0  0  0  0  0  0  0  0  0  0
    4.9430  -13.3280   -4.2580 C   0  0  0  0  0  0  0  0  0  0  0  0
    4.0620  -12.8320   -3.2940 C   0  0  0  0  0  0  0  0  0  0  0  0
    3.2970  -11.6890   -3.5540 C   0  0  0  0  0  0  0  0  0  0  0  0
    2.3270  -11.1770   -2.5310 C   0  0  0  0  0  0  0  0  0  0  0  0
    3.4100  -11.0660   -4.8010 C   0  0  0  0  0  0  0  0  0  0  0  0
    4.2900  -11.5600   -5.7710 C   0  0  0  0  0  0  0  0  0  0  0  0
    6.0000  -12.9590   -7.8200 C   0  0  0  0  0  0  0  0  0  0  0  0
    6.9760  -13.7630   -8.3760 C   0  0  0  0  0  0  0  0  0  0  0  0
    7.3110  -13.7840   -9.7910 C   0  0  0  0  0  0  0  0  0  0  0  0
    7.2670  -14.8250  -10.4430 O   0  0  0  0  0  0  0  0  0  0  0  0
    7.7770  -12.5410  -10.4560 C   0  0  0  0  0  0  0  0  0  0  0  0
    9.0720  -12.5070  -10.9860 C   0  0  0  0  0  0  0  0  0  0  0  0
    9.5420  -11.3500  -11.6090 C   0  0  0  0  0  0  0  0  0  0  0  0
    8.7270  -10.2220  -11.6920 C   0  0  0  0  0  0  0  0  0  0  0  0
    7.4440  -10.2430  -11.1450 C   0  0  0  0  0  0  0  0  0  0  0  0
    6.9680  -11.3980  -10.5200 C   0  0  0  0  0  0  0  0  0  0  0  0
   14.1021  -13.6773   -2.7850 H   0  0  0  0  0  0  0  0  0  0  0  0
   13.3929  -14.2449   -4.3346 H   0  0  0  0  0  0  0  0  0  0  0  0
   14.6112  -12.9250   -4.3346 H   0  0  0  0  0  0  0  0  0  0  0  0
    8.3571  -14.0111   -0.4684 H   0  0  0  0  0  0  0  0  0  0  0  0
    6.4150  -13.2685    0.9091 H   0  0  0  0  0  0  0  0  0  0  0  0
    5.1347  -11.2293    0.2644 H   0  0  0  0  0  0  0  0  0  0  0  0
    5.7955   -9.9271   -1.7534 H   0  0  0  0  0  0  0  0  0  0  0  0
    7.7395  -10.6570   -3.1387 H   0  0  0  0  0  0  0  0  0  0  0  0
    8.4844  -14.4894   -3.8705 H   0  0  0  0  0  0  0  0  0  0  0  0
   13.8476  -15.1156   -9.5597 H   0  0  0  0  0  0  0  0  0  0  0  0
   15.4733  -14.0898  -11.1481 H   0  0  0  0  0  0  0  0  0  0  0  0
   15.2861  -11.6759  -11.7427 H   0  0  0  0  0  0  0  0  0  0  0  0
   13.4746  -10.2839  -10.7457 H   0  0  0  0  0  0  0  0  0  0  0  0
   11.8427  -11.2983   -9.1534 H   0  0  0  0  0  0  0  0  0  0  0  0
   10.0874  -14.4229   -9.5972 H   0  0  0  0  0  0  0  0  0  0  0  0
    5.5479  -14.2199   -4.0373 H   0  0  0  0  0  0  0  0  0  0  0  0
    3.9689  -13.3430   -2.3243 H   0  0  0  0  0  0  0  0  0  0  0  0
    2.7154  -11.3820   -1.5225 H   0  0  0  0  0  0  0  0  0  0  0  0
    2.1963  -10.0924   -2.6601 H   0  0  0  0  0  0  0  0  0  0  0  0
    1.3578  -11.6810   -2.6601 H   0  0  0  0  0  0  0  0  0  0  0  0
    2.8003  -10.1775   -5.0221 H   0  0  0  0  0  0  0  0  0  0  0  0
    4.3754  -11.0540   -6.7440 H   0  0  0  0  0  0  0  0  0  0  0  0
    5.3743  -12.2312   -8.3575 H   0  0  0  0  0  0  0  0  0  0  0  0
    9.7198  -13.3929  -10.9114 H   0  0  0  0  0  0  0  0  0  0  0  0
   10.5560  -11.3281  -12.0348 H   0  0  0  0  0  0  0  0  0  0  0  0
    9.0965   -9.3134  -12.1899 H   0  0  0  0  0  0  0  0  0  0  0  0
    6.8062   -9.3488  -11.2059 H   0  0  0  0  0  0  0  0  0  0  0  0
    5.9604  -11.4106  -10.0789 H   0  0  0  0  0  0  0  0  0  0  0  0
  1  2  1  0
  2  3  2  0
  2  4  1  0
  4  5  2  0
  5  6  1  0
  6  7  1  0
  7  8  2  0
  8  9  1  0
  9 10  2  0
 10 11  1  0
 11 12  2  0
  6 13  1  0
 13 14  2  0
 14 15  1  0
 15 16  2  0
 15 17  1  0
 17 18  2  0
 18 19  1  0
 19 20  1  0
 20 21  2  0
 21 22  1  0
 22 23  2  0
 23 24  1  0
 24 25  2  0
 19 26  1  0
 26 27  2  0
 27 28  1  0
 28 29  2  0
 28 30  1  0
 30 31  2  0
 31 32  1  0
 32 33  1  0
 33 34  2  0
 34 35  1  0
 35 36  2  0
 36 37  1  0
 36 38  1  0
 38 39  2  0
 32 40  1  0
 40 41  2  0
 41 42  1  0
 42 43  2  0
 42 44  1  0
 44 45  2  0
 45 46  1  0
 46 47  2  0
 47 48  1  0
 48 49  2  0
 14  4  1  0
 27 17  1  0
 41 30  1  0
 49 44  1  0
 12  7  1  0
 25 20  1  0
 39 33  1  0
  1 50  1  0
  1 51  1  0
  1 52  1  0
  8 53  1  0
  9 54  1  0
 10 55  1  0
 11 56  1  0
 12 57  1  0
 13 58  1  0
 21 59  1  0
 22 60  1  0
 23 61  1  0
 24 62  1  0
 25 63  1  0
 26 64  1  0
 34 65  1  0
 35 66  1  0
 37 67  1  0
 37 68  1  0
 37 69  1  0
 38 70  1  0
 39 71  1  0
 40 72  1  0
 45 73  1  0
 46 74  1  0
 47 75  1  0
 48 76  1  0
 49 77  1  0
M  END
>  <meeko>  (2) 
{"is_sidechain": [false], "free_energy": -8.912, "intermolecular_energy": -15.874, "internal_energy": -4.145}

$$$$
LIB_BPLOGUVUEKYGFE__M_PUB_ALL__e8__s20260927
     RDKit          3D

 77 83  0  0  0  0  0  0  0  0999 V2000
   -0.0230  -13.9630    5.2720 C   0  0  0  0  0  0  0  0  0  0  0  0
    1.0190  -15.0310    5.0450 C   0  0  0  0  0  0  0  0  0  0  0  0
    1.4380  -15.6990    5.9910 O   0  0  0  0  0  0  0  0  0  0  0  0
    1.5460  -15.1920    3.6820 C   0  0  0  0  0  0  0  0  0  0  0  0
    2.5990  -14.4570    3.2820 N   0  0  0  0  0  0  0  0  0  0  0  0
    2.9240  -14.9190    2.0520 N   0  0  0  0  0  0  0  0  0  0  0  0
    4.0350  -14.3850    1.3400 C   0  0  0  0  0  0  0  0  0  0  0  0
    5.0650  -15.2440    0.9250 C   0  0  0  0  0  0  0  0  0  0  0  0
    6.1650  -14.7420    0.2260 C   0  0  0  0  0  0  0  0  0  0  0  0
    6.2430  -13.3810   -0.0650 C   0  0  0  0  0  0  0  0  0  0  0  0
    5.2250  -12.5220    0.3420 C   0  0  0  0  0  0  0  0  0  0  0  0
    4.1210  -13.0180    1.0430 C   0  0  0  0  0  0  0  0  0  0  0  0
    2.0600  -15.9060    1.6510 C   0  0  0  0  0  0  0  0  0  0  0  0
    1.1260  -16.0870    2.6580 C   0  0  0  0  0  0  0  0  0  0  0  0
    0.0110  -17.0260    2.5670 C   0  0  0  0  0  0  0  0  0  0  0  0
    0.2080  -18.2340    2.4420 O   0  0  0  0  0  0  0  0  0  0  0  0
   -1.3470  -16.4690    2.5100 C   0  0  0  0  0  0  0  0  0  0  0  0
   -2.0990  -16.3620    3.6250 N   0  0  0  0  0  0  0  0  0  0  0  0
   -3.2520  -15.7710    3.2280 N   0  0  0  0  0  0  0  0  0  0  0  0
   -4.3180  -15.5680    4.1500 C   0  0  0  0  0  0  0  0  0  0  0  0
   -5.2570  -14.5540    3.9070 C   0  0  0  0  0  0  0  0  0  0  0  0
   -6.3070  -14.3360    4.8010 C   0  0  0  0  0  0  0  0  0  0  0  0
   -6.4290  -15.1270    5.9410 C   0  0  0  0  0  0  0  0  0  0  0  0
   -5.5000  -16.1370    6.1900 C   0  0  0  0  0  0  0  0  0  0  0  0
   -4.4450  -16.3600    5.3000 C   0  0  0  0  0  0  0  0  0  0  0  0
   -3.1980  -15.4140    1.9050 C   0  0  0  0  0  0  0  0  0  0  0  0
   -1.9980  -15.8740    1.3910 C   0  0  0  0  0  0  0  0  0  0  0  0
   -1.5820  -15.6960    0.0030 C   0  0  0  0  0  0  0  0  0  0  0  0
   -2.1070  -16.3480   -0.8950 O   0  0  0  0  0  0  0  0  0  0  0  0
   -0.4920  -14.7490   -0.2840 C   0  0  0  0  0  0  0  0  0  0  0  0
    0.5160  -15.0610   -1.1200 N   0  0  0  0  0  0  0  0  0  0  0  0
    1.2750  -13.9410   -1.2170 N   0  0  0  0  0  0  0  0  0  0  0  0
    2.4620  -13.9300   -2.0010 C   0  0  0  0  0  0  0  0  0  0  0  0
    2.9190  -12.7220   -2.5450 C   0  0  0  0  0  0  0  0  0  0  0  0
    4.0720  -12.6900   -3.3320 C   0  0  0  0  0  0  0  0  0  0  0  0
    4.7950  -13.8630   -3.5770 C   0  0  0  0  0  0  0  0  0  0  0  0
    6.0150  -13.8330   -4.4510 C   0  0  0  0  0  0  0  0  0  0  0  0
    4.3340  -15.0700   -3.0410 C   0  0  0  0  0  0  0  0  0  0  0  0
    3.1780  -15.1070   -2.2520 C   0  0  0  0  0  0  0  0  0  0  0  0
    0.7440  -12.9170   -0.4730 C   0  0  0  0  0  0  0  0  0  0  0  0
   -0.3730  -13.4070    0.1750 C   0  0  0  0  0  0  0  0  0  0  0  0
   -1.2000  -12.6300    1.0830 C   0  0  0  0  0  0  0  0  0  0  0  0
   -1.0300  -12.6710    2.2990 O   0  0  0  0  0  0  0  0  0  0  0  0
   -2.3170  -11.8120    0.5440 C   0  0  0  0  0  0  0  0  0  0  0  0
   -3.4180  -12.4680   -0.0200 C   0  0  0  0  0  0  0  0  0  0  0  0
   -4.4790  -11.7270   -0.5430 C   0  0  0  0  0  0  0  0  0  0  0  0
   -4.4370  -10.3340   -0.5180 C   0  0  0  0  0  0  0  0  0  0  0  0
   -3.3320   -9.6760    0.0220 C   0  0  0  0  0  0  0  0  0  0  0  0
   -2.2670  -10.4120    0.5460 C   0  0  0  0  0  0  0  0  0  0  0  0
   -0.1672  -13.8152    6.3524 H   0  0  0  0  0  0  0  0  0  0  0  0
    0.3123  -13.0205    4.8145 H   0  0  0  0  0  0  0  0  0  0  0  0
   -0.9735  -14.2749    4.8145 H   0  0  0  0  0  0  0  0  0  0  0  0
    5.0053  -16.3187    1.1517 H   0  0  0  0  0  0  0  0  0  0  0  0
    6.9694  -15.4203   -0.0947 H   0  0  0  0  0  0  0  0  0  0  0  0
    7.1088  -12.9853   -0.6162 H   0  0  0  0  0  0  0  0  0  0  0  0
    5.2896  -11.4485    0.1110 H   0  0  0  0  0  0  0  0  0  0  0  0
    3.3198  -12.3348    1.3614 H   0  0  0  0  0  0  0  0  0  0  0  0
    2.1014  -16.4559    0.6992 H   0  0  0  0  0  0  0  0  0  0  0  0
   -5.1654  -13.9276    3.0074 H   0  0  0  0  0  0  0  0  0  0  0  0
   -7.0389  -13.5386    4.6048 H   0  0  0  0  0  0  0  0  0  0  0  0
   -7.2572  -14.9552    6.6442 H   0  0  0  0  0  0  0  0  0  0  0  0
   -5.5977  -16.7609    7.0906 H   0  0  0  0  0  0  0  0  0  0  0  0
   -3.7144  -17.1571    5.5021 H   0  0  0  0  0  0  0  0  0  0  0  0
   -3.9706  -14.8607    1.3510 H   0  0  0  0  0  0  0  0  0  0  0  0
    2.3651  -11.7918   -2.3505 H   0  0  0  0  0  0  0  0  0  0  0  0
    4.4141  -11.7371   -3.7620 H   0  0  0  0  0  0  0  0  0  0  0  0
    6.9167  -13.8108   -3.8213 H   0  0  0  0  0  0  0  0  0  0  0  0
    6.0333  -14.7310   -5.0861 H   0  0  0  0  0  0  0  0  0  0  0  0
    5.9891  -12.9352   -5.0861 H   0  0  0  0  0  0  0  0  0  0  0  0
    4.8857  -16.0002   -3.2416 H   0  0  0  0  0  0  0  0  0  0  0  0
    2.8319  -16.0615   -1.8289 H   0  0  0  0  0  0  0  0  0  0  0  0
    1.1369  -11.8918   -0.4051 H   0  0  0  0  0  0  0  0  0  0  0  0
   -3.4468  -13.5672   -0.0509 H   0  0  0  0  0  0  0  0  0  0  0  0
   -5.3491  -12.2428   -0.9753 H   0  0  0  0  0  0  0  0  0  0  0  0
   -5.2772   -9.7523   -0.9250 H   0  0  0  0  0  0  0  0  0  0  0  0
   -3.2994   -8.5766    0.0351 H   0  0  0  0  0  0  0  0  0  0  0  0
   -1.3899   -9.8930    0.9598 H   0  0  0  0  0  0  0  0  0  0  0  0
  1  2  1  0
  2  3  2  0
  2  4  1  0
  4  5  2  0
  5  6  1  0
  6  7  1  0
  7  8  2  0
  8  9  1  0
  9 10  2  0
 10 11  1  0
 11 12  2  0
  6 13  1  0
 13 14  2  0
 14 15  1  0
 15 16  2  0
 15 17  1  0
 17 18  2  0
 18 19  1  0
 19 20  1  0
 20 21  2  0
 21 22  1  0
 22 23  2  0
 23 24  1  0
 24 25  2  0
 19 26  1  0
 26 27  2  0
 27 28  1  0
 28 29  2  0
 28 30  1  0
 30 31  2  0
 31 32  1  0
 32 33  1  0
 33 34  2  0
 34 35  1  0
 35 36  2  0
 36 37  1  0
 36 38  1  0
 38 39  2  0
 32 40  1  0
 40 41  2  0
 41 42  1  0
 42 43  2  0
 42 44  1  0
 44 45  2  0
 45 46  1  0
 46 47  2  0
 47 48  1  0
 48 49  2  0
 14  4  1  0
 27 17  1  0
 41 30  1  0
 49 44  1  0
 12  7  1  0
 25 20  1  0
 39 33  1  0
  1 50  1  0
  1 51  1  0
  1 52  1  0
  8 53  1  0
  9 54  1  0
 10 55  1  0
 11 56  1  0
 12 57  1  0
 13 58  1  0
 21 59  1  0
 22 60  1  0
 23 61  1  0
 24 62  1  0
 25 63  1  0
 26 64  1  0
 34 65  1  0
 35 66  1  0
 37 67  1  0
 37 68  1  0
 37 69  1  0
 38 70  1  0
 39 71  1  0
 40 72  1  0
 45 73  1  0
 46 74  1  0
 47 75  1  0
 48 76  1  0
 49 77  1  0
M  END
>  <meeko>  (3) 
{"is_sidechain": [false], "free_energy": -8.702, "intermolecular_energy": -14.361, "internal_energy": -5.326}

$$$$
LIB_BPLOGUVUEKYGFE__M_PUB_ALL__e8__s20260927
     RDKit          3D

 77 83  0  0  0  0  0  0  0  0999 V2000
   13.3840  -11.5030   -1.9580 C   0  0  0  0  0  0  0  0  0  0  0  0
   12.9230  -12.0400   -3.2910 C   0  0  0  0  0  0  0  0  0  0  0  0
   13.6410  -11.9290   -4.2860 O   0  0  0  0  0  0  0  0  0  0  0  0
   11.5800  -12.6350   -3.3610 C   0  0  0  0  0  0  0  0  0  0  0  0
   10.5400  -12.0030   -2.7890 N   0  0  0  0  0  0  0  0  0  0  0  0
    9.4430  -12.7180   -3.1320 N   0  0  0  0  0  0  0  0  0  0  0  0
    8.1430  -12.3040   -2.7230 C   0  0  0  0  0  0  0  0  0  0  0  0
    7.8640  -12.1590   -1.3550 C   0  0  0  0  0  0  0  0  0  0  0  0
    6.5960  -11.7540   -0.9310 C   0  0  0  0  0  0  0  0  0  0  0  0
    5.6000  -11.4910   -1.8690 C   0  0  0  0  0  0  0  0  0  0  0  0
    5.8680  -11.6310   -3.2300 C   0  0  0  0  0  0  0  0  0  0  0  0
    7.1360  -12.0360   -3.6600 C   0  0  0  0  0  0  0  0  0  0  0  0
    9.7830  -13.8200   -3.8740 C   0  0  0  0  0  0  0  0  0  0  0  0
   11.1600  -13.8290   -4.0130 C   0  0  0  0  0  0  0  0  0  0  0  0
   11.8970  -14.8830   -4.7050 C   0  0  0  0  0  0  0  0  0  0  0  0
   12.5890  -15.6870   -4.0800 O   0  0  0  0  0  0  0  0  0  0  0  0
   11.8810  -14.8780   -6.1740 C   0  0  0  0  0  0  0  0  0  0  0  0
   12.7270  -14.0940   -6.8720 N   0  0  0  0  0  0  0  0  0  0  0  0
   12.4840  -14.3710   -8.1760 N   0  0  0  0  0  0  0  0  0  0  0  0
   13.1590  -13.6580   -9.2070 C   0  0  0  0  0  0  0  0  0  0  0  0
   14.1560  -14.3060   -9.9550 C   0  0  0  0  0  0  0  0  0  0  0  0
   14.8330  -13.6230  -10.9680 C   0  0  0  0  0  0  0  0  0  0  0  0
   14.5220  -12.2940  -11.2420 C   0  0  0  0  0  0  0  0  0  0  0  0
   13.5350  -11.6430  -10.5040 C   0  0  0  0  0  0  0  0  0  0  0  0
   12.8530  -12.3190   -9.4880 C   0  0  0  0  0  0  0  0  0  0  0  0
   11.5710  -15.3860   -8.3070 C   0  0  0  0  0  0  0  0  0  0  0  0
   11.1290  -15.7230   -7.0390 C   0  0  0  0  0  0  0  0  0  0  0  0
   10.1380  -16.7610   -6.7690 C   0  0  0  0  0  0  0  0  0  0  0  0
   10.4530  -17.9480   -6.8030 O   0  0  0  0  0  0  0  0  0  0  0  0
    8.7510  -16.3500   -6.5000 C   0  0  0  0  0  0  0  0  0  0  0  0
    8.2860  -16.2040   -5.2450 N   0  0  0  0  0  0  0  0  0  0  0  0
    7.0180  -15.7370   -5.3740 N   0  0  0  0  0  0  0  0  0  0  0  0
    6.2070  -15.5060   -4.2280 C   0  0  0  0  0  0  0  0  0  0  0  0
    4.8800  -15.0860   -4.3950 C   0  0  0  0  0  0  0  0  0  0  0  0
    4.0710  -14.8360   -3.2850 C   0  0  0  0  0  0  0  0  0  0  0  0
    4.5690  -15.0150   -1.9900 C   0  0  0  0  0  0  0  0  0  0  0  0
    3.7100  -14.7130   -0.7970 C   0  0  0  0  0  0  0  0  0  0  0  0
    5.8960  -15.4260   -1.8230 C   0  0  0  0  0  0  0  0  0  0  0  0
    6.7120  -15.6770   -2.9330 C   0  0  0  0  0  0  0  0  0  0  0  0
    6.6870  -15.5610   -6.6930 C   0  0  0  0  0  0  0  0  0  0  0  0
    7.7610  -15.9820   -7.4540 C   0  0  0  0  0  0  0  0  0  0  0  0
    7.7870  -15.9760   -8.9070 C   0  0  0  0  0  0  0  0  0  0  0  0
    7.8050  -17.0230   -9.5510 O   0  0  0  0  0  0  0  0  0  0  0  0
    7.8560  -14.6840   -9.6370 C   0  0  0  0  0  0  0  0  0  0  0  0
    6.7220  -14.2440  -10.3310 C   0  0  0  0  0  0  0  0  0  0  0  0
    6.7580  -13.0390  -11.0340 C   0  0  0  0  0  0  0  0  0  0  0  0
    7.9280  -12.2790  -11.0580 C   0  0  0  0  0  0  0  0  0  0  0  0
    9.0660  -12.7260  -10.3880 C   0  0  0  0  0  0  0  0  0  0  0  0
    9.0360  -13.9310   -9.6830 C   0  0  0  0  0  0  0  0  0  0  0  0
   12.8993  -12.0676   -1.1478 H   0  0  0  0  0  0  0  0  0  0  0  0
   14.4758  -11.6101   -1.8773 H   0  0  0  0  0  0  0  0  0  0  0  0
   13.1129  -10.4400   -1.8773 H   0  0  0  0  0  0  0  0  0  0  0  0
    8.6486  -12.3655   -0.6122 H   0  0  0  0  0  0  0  0  0  0  0  0
    6.3841  -11.6428    0.1427 H   0  0  0  0  0  0  0  0  0  0  0  0
    4.6013  -11.1726   -1.5355 H   0  0  0  0  0  0  0  0  0  0  0  0
    5.0797  -11.4223   -3.9682 H   0  0  0  0  0  0  0  0  0  0  0  0
    7.3429  -12.1442   -4.7349 H   0  0  0  0  0  0  0  0  0  0  0  0
    9.0854  -14.5644   -4.2855 H   0  0  0  0  0  0  0  0  0  0  0  0
   14.4047  -15.3561   -9.7420 H   0  0  0  0  0  0  0  0  0  0  0  0
   15.6129  -14.1359  -11.5500 H   0  0  0  0  0  0  0  0  0  0  0  0
   15.0552  -11.7577  -12.0408 H   0  0  0  0  0  0  0  0  0  0  0  0
   13.2916  -10.5926  -10.7220 H   0  0  0  0  0  0  0  0  0  0  0  0
   12.0755  -11.7998   -8.9084 H   0  0  0  0  0  0  0  0  0  0  0  0
   11.2477  -15.8495   -9.2508 H   0  0  0  0  0  0  0  0  0  0  0  0
    4.4731  -14.9524   -5.4082 H   0  0  0  0  0  0  0  0  0  0  0  0
    3.0349  -14.4960   -3.4297 H   0  0  0  0  0  0  0  0  0  0  0  0
    4.2779  -14.9126    0.1237 H   0  0  0  0  0  0  0  0  0  0  0  0
    3.4091  -13.6552   -0.8201 H   0  0  0  0  0  0  0  0  0  0  0  0
    2.8134  -15.3498   -0.8201 H   0  0  0  0  0  0  0  0  0  0  0  0
    6.3026  -15.5533   -0.8089 H   0  0  0  0  0  0  0  0  0  0  0  0
    7.7506  -16.0088   -2.7876 H   0  0  0  0  0  0  0  0  0  0  0  0
    5.7381  -15.1576   -7.0761 H   0  0  0  0  0  0  0  0  0  0  0  0
    5.8029  -14.8482  -10.3220 H   0  0  0  0  0  0  0  0  0  0  0  0
    5.8635  -12.6881  -11.5695 H   0  0  0  0  0  0  0  0  0  0  0  0
    7.9525  -11.3258  -11.6064 H   0  0  0  0  0  0  0  0  0  0  0  0
    9.9891  -12.1284  -10.4148 H   0  0  0  0  0  0  0  0  0  0  0  0
    9.9379  -14.2883   -9.1645 H   0  0  0  0  0  0  0  0  0  0  0  0
  1  2  1  0
  2  3  2  0
  2  4  1  0
  4  5  2  0
  5  6  1  0
  6  7  1  0
  7  8  2  0
  8  9  1  0
  9 10  2  0
 10 11  1  0
 11 12  2  0
  6 13  1  0
 13 14  2  0
 14 15  1  0
 15 16  2  0
 15 17  1  0
 17 18  2  0
 18 19  1  0
 19 20  1  0
 20 21  2  0
 21 22  1  0
 22 23  2  0
 23 24  1  0
 24 25  2  0
 19 26  1  0
 26 27  2  0
 27 28  1  0
 28 29  2  0
 28 30  1  0
 30 31  2  0
 31 32  1  0
 32 33  1  0
 33 34  2  0
 34 35  1  0
 35 36  2  0
 36 37  1  0
 36 38  1  0
 38 39  2  0
 32 40  1  0
 40 41  2  0
 41 42  1  0
 42 43  2  0
 42 44  1  0
 44 45  2  0
 45 46  1  0
 46 47  2  0
 47 48  1  0
 48 49  2  0
 14  4  1  0
 27 17  1  0
 41 30  1  0
 49 44  1  0
 12  7  1  0
 25 20  1  0
 39 33  1  0
  1 50  1  0
  1 51  1  0
  1 52  1  0
  8 53  1  0
  9 54  1  0
 10 55  1  0
 11 56  1  0
 12 57  1  0
 13 58  1  0
 21 59  1  0
 22 60  1  0
 23 61  1  0
 24 62  1  0
 25 63  1  0
 26 64  1  0
 34 65  1  0
 35 66  1  0
 37 67  1  0
 37 68  1  0
 37 69  1  0
 38 70  1  0
 39 71  1  0
 40 72  1  0
 45 73  1  0
 46 74  1  0
 47 75  1  0
 48 76  1  0
 49 77  1  0
M  END
>  <meeko>  (4) 
{"is_sidechain": [false], "free_energy": -8.389, "intermolecular_energy": -13.951, "internal_energy": -5.239}

$$$$
LIB_BPLOGUVUEKYGFE__M_PUB_ALL__e8__s20260927
     RDKit          3D

 77 83  0  0  0  0  0  0  0  0999 V2000
    5.3640  -14.9930   -3.4280 C   0  0  0  0  0  0  0  0  0  0  0  0
    6.0750  -16.3060   -3.6410 C   0  0  0  0  0  0  0  0  0  0  0  0
    5.5890  -17.1610   -4.3830 O   0  0  0  0  0  0  0  0  0  0  0  0
    7.3180  -16.5400   -2.8910 C   0  0  0  0  0  0  0  0  0  0  0  0
    8.5030  -16.2490   -3.4570 N   0  0  0  0  0  0  0  0  0  0  0  0
    9.4290  -16.4450   -2.4880 N   0  0  0  0  0  0  0  0  0  0  0  0
   10.8080  -16.1880   -2.7330 C   0  0  0  0  0  0  0  0  0  0  0  0
   11.6910  -16.0690   -1.6470 C   0  0  0  0  0  0  0  0  0  0  0  0
   13.0470  -15.8160   -1.8640 C   0  0  0  0  0  0  0  0  0  0  0  0
   13.5320  -15.6820   -3.1630 C   0  0  0  0  0  0  0  0  0  0  0  0
   12.6640  -15.8000   -4.2470 C   0  0  0  0  0  0  0  0  0  0  0  0
   11.3040  -16.0520   -4.0370 C   0  0  0  0  0  0  0  0  0  0  0  0
    8.8480  -16.9020   -1.3330 C   0  0  0  0  0  0  0  0  0  0  0  0
    7.4870  -17.0170   -1.5610 C   0  0  0  0  0  0  0  0  0  0  0  0
    6.5420  -17.5240   -0.5700 C   0  0  0  0  0  0  0  0  0  0  0  0
    6.6670  -18.6520   -0.0920 O   0  0  0  0  0  0  0  0  0  0  0  0
    5.3730  -16.6920   -0.2530 C   0  0  0  0  0  0  0  0  0  0  0  0
    4.1240  -17.1170   -0.5340 N   0  0  0  0  0  0  0  0  0  0  0  0
    3.2990  -16.1480   -0.0700 N   0  0  0  0  0  0  0  0  0  0  0  0
    1.8920  -16.2360   -0.2690 C   0  0  0  0  0  0  0  0  0  0  0  0
    1.2880  -15.4710   -1.2790 C   0  0  0  0  0  0  0  0  0  0  0  0
   -0.0910  -15.5400   -1.4880 C   0  0  0  0  0  0  0  0  0  0  0  0
   -0.8760  -16.3710   -0.6920 C   0  0  0  0  0  0  0  0  0  0  0  0
   -0.2840  -17.1340    0.3150 C   0  0  0  0  0  0  0  0  0  0  0  0
    1.0960  -17.0690    0.5290 C   0  0  0  0  0  0  0  0  0  0  0  0
    4.0010  -15.1690    0.5860 C   0  0  0  0  0  0  0  0  0  0  0  0
    5.3480  -15.4620    0.4660 C   0  0  0  0  0  0  0  0  0  0  0  0
    6.4160  -14.6410    1.0280 C   0  0  0  0  0  0  0  0  0  0  0  0
    6.7230  -14.7410    2.2130 O   0  0  0  0  0  0  0  0  0  0  0  0
    7.0820  -13.6640    0.1510 C   0  0  0  0  0  0  0  0  0  0  0  0
    8.3750  -13.7940   -0.2020 N   0  0  0  0  0  0  0  0  0  0  0  0
    8.6220  -12.7830   -1.0720 N   0  0  0  0  0  0  0  0  0  0  0  0
    9.9220  -12.5960   -1.6210 C   0  0  0  0  0  0  0  0  0  0  0  0
   11.0140  -12.4140   -0.7610 C   0  0  0  0  0  0  0  0  0  0  0  0
   12.2960  -12.2120   -1.2760 C   0  0  0  0  0  0  0  0  0  0  0  0
   12.5100  -12.2020   -2.6590 C   0  0  0  0  0  0  0  0  0  0  0  0
   13.8820  -11.9500   -3.2130 C   0  0  0  0  0  0  0  0  0  0  0  0
   11.4190  -12.3750   -3.5170 C   0  0  0  0  0  0  0  0  0  0  0  0
   10.1320  -12.5770   -3.0050 C   0  0  0  0  0  0  0  0  0  0  0  0
    7.4950  -12.0330   -1.2930 C   0  0  0  0  0  0  0  0  0  0  0  0
    6.4910  -12.5420   -0.4940 C   0  0  0  0  0  0  0  0  0  0  0  0
    5.1440  -11.9980   -0.4260 C   0  0  0  0  0  0  0  0  0  0  0  0
    4.6450  -11.6550    0.6440 O   0  0  0  0  0  0  0  0  0  0  0  0
    4.3230  -11.9080   -1.6600 C   0  0  0  0  0  0  0  0  0  0  0  0
    2.9880  -12.3300   -1.6110 C   0  0  0  0  0  0  0  0  0  0  0  0
    2.1940  -12.2660   -2.7570 C   0  0  0  0  0  0  0  0  0  0  0  0
    2.7320  -11.7960   -3.9540 C   0  0  0  0  0  0  0  0  0  0  0  0
    4.0670  -11.3970   -4.0130 C   0  0  0  0  0  0  0  0  0  0  0  0
    4.8670  -11.4590   -2.8700 C   0  0  0  0  0  0  0  0  0  0  0  0
    5.2609  -14.8026   -2.3495 H   0  0  0  0  0  0  0  0  0  0  0  0
    5.9461  -14.1817   -3.8896 H   0  0  0  0  0  0  0  0  0  0  0  0
    4.3665  -15.0371   -3.8896 H   0  0  0  0  0  0  0  0  0  0  0  0
   11.3121  -16.1757   -0.6198 H   0  0  0  0  0  0  0  0  0  0  0  0
   13.7325  -15.7225   -1.0088 H   0  0  0  0  0  0  0  0  0  0  0  0
   14.6004  -15.4830   -3.3332 H   0  0  0  0  0  0  0  0  0  0  0  0
   13.0498  -15.6946   -5.2717 H   0  0  0  0  0  0  0  0  0  0  0  0
   10.6231  -16.1435   -4.8961 H   0  0  0  0  0  0  0  0  0  0  0  0
    9.3699  -17.1355   -0.3932 H   0  0  0  0  0  0  0  0  0  0  0  0
    1.9044  -14.8134   -1.9095 H   0  0  0  0  0  0  0  0  0  0  0  0
   -0.5576  -14.9379   -2.2816 H   0  0  0  0  0  0  0  0  0  0  0  0
   -1.9621  -16.4256   -0.8573 H   0  0  0  0  0  0  0  0  0  0  0  0
   -0.9055  -17.7892    0.9430 H   0  0  0  0  0  0  0  0  0  0  0  0
    1.5576  -17.6723    1.3246 H   0  0  0  0  0  0  0  0  0  0  0  0
    3.5700  -14.3052    1.1133 H   0  0  0  0  0  0  0  0  0  0  0  0
   10.8597  -12.4305    0.3280 H   0  0  0  0  0  0  0  0  0  0  0  0
   13.1428  -12.0598   -0.5906 H   0  0  0  0  0  0  0  0  0  0  0  0
   14.5937  -11.8193   -2.3845 H   0  0  0  0  0  0  0  0  0  0  0  0
   14.1912  -12.8064   -3.8303 H   0  0  0  0  0  0  0  0  0  0  0  0
   13.8667  -11.0396   -3.8303 H   0  0  0  0  0  0  0  0  0  0  0  0
   11.5740  -12.3521   -4.6058 H   0  0  0  0  0  0  0  0  0  0  0  0
    9.2844  -12.7210   -3.6911 H   0  0  0  0  0  0  0  0  0  0  0  0
    7.4072  -11.1802   -1.9822 H   0  0  0  0  0  0  0  0  0  0  0  0
    2.5658  -12.7116   -0.6697 H   0  0  0  0  0  0  0  0  0  0  0  0
    1.1426  -12.5868   -2.7156 H   0  0  0  0  0  0  0  0  0  0  0  0
    2.1021  -11.7397   -4.8541 H   0  0  0  0  0  0  0  0  0  0  0  0
    4.4903  -11.0331   -4.9608 H   0  0  0  0  0  0  0  0  0  0  0  0
    5.9231  -11.1556   -2.9200 H   0  0  0  0  0  0  0  0  0  0  0  0
  1  2  1  0
  2  3  2  0
  2  4  1  0
  4  5  2  0
  5  6  1  0
  6  7  1  0
  7  8  2  0
  8  9  1  0
  9 10  2  0
 10 11  1  0
 11 12  2  0
  6 13  1  0
 13 14  2  0
 14 15  1  0
 15 16  2  0
 15 17  1  0
 17 18  2  0
 18 19  1  0
 19 20  1  0
 20 21  2  0
 21 22  1  0
 22 23  2  0
 23 24  1  0
 24 25  2  0
 19 26  1  0
 26 27  2  0
 27 28  1  0
 28 29  2  0
 28 30  1  0
 30 31  2  0
 31 32  1  0
 32 33  1  0
 33 34  2  0
 34 35  1  0
 35 36  2  0
 36 37  1  0
 36 38  1  0
 38 39  2  0
 32 40  1  0
 40 41  2  0
 41 42  1  0
 42 43  2  0
 42 44  1  0
 44 45  2  0
 45 46  1  0
 46 47  2  0
 47 48  1  0
 48 49  2  0
 14  4  1  0
 27 17  1  0
 41 30  1  0
 49 44  1  0
 12  7  1  0
 25 20  1  0
 39 33  1  0
  1 50  1  0
  1 51  1  0
  1 52  1  0
  8 53  1  0
  9 54  1  0
 10 55  1  0
 11 56  1  0
 12 57  1  0
 13 58  1  0
 21 59  1  0
 22 60  1  0
 23 61  1  0
 24 62  1  0
 25 63  1  0
 26 64  1  0
 34 65  1  0
 35 66  1  0
 37 67  1  0
 37 68  1  0
 37 69  1  0
 38 70  1  0
 39 71  1  0
 40 72  1  0
 45 73  1  0
 46 74  1  0
 47 75  1  0
 48 76  1  0
 49 77  1  0
M  END
>  <meeko>  (5) 
{"is_sidechain": [false], "free_energy": -8.386, "intermolecular_energy": -13.417, "internal_energy": -5.768}

$$$$
LIB_BPLOGUVUEKYGFE__M_PUB_ALL__e8__s20260927
     RDKit          3D

 77 83  0  0  0  0  0  0  0  0999 V2000
    3.7860  -11.5300   -5.0480 C   0  0  0  0  0  0  0  0  0  0  0  0
    3.9950  -13.0220   -5.1290 C   0  0  0  0  0  0  0  0  0  0  0  0
    3.3500  -13.7790   -4.4020 O   0  0  0  0  0  0  0  0  0  0  0  0
    5.0280  -13.5180   -6.0510 C   0  0  0  0  0  0  0  0  0  0  0  0
    5.1230  -13.0000   -7.2880 N   0  0  0  0  0  0  0  0  0  0  0  0
    6.2290  -13.5560   -7.8350 N   0  0  0  0  0  0  0  0  0  0  0  0
    6.6570  -13.1960   -9.1440 C   0  0  0  0  0  0  0  0  0  0  0  0
    6.7150  -14.1790  -10.1460 C   0  0  0  0  0  0  0  0  0  0  0  0
    7.1330  -13.8470  -11.4370 C   0  0  0  0  0  0  0  0  0  0  0  0
    7.4940  -12.5350  -11.7370 C   0  0  0  0  0  0  0  0  0  0  0  0
    7.4390  -11.5540  -10.7490 C   0  0  0  0  0  0  0  0  0  0  0  0
    7.0220  -11.8790   -9.4540 C   0  0  0  0  0  0  0  0  0  0  0  0
    6.8070  -14.4550   -6.9750 C   0  0  0  0  0  0  0  0  0  0  0  0
    6.0400  -14.4940   -5.8230 C   0  0  0  0  0  0  0  0  0  0  0  0
    6.3180  -15.3780   -4.6950 C   0  0  0  0  0  0  0  0  0  0  0  0
    5.8990  -16.5350   -4.6780 O   0  0  0  0  0  0  0  0  0  0  0  0
    7.0100  -14.8050   -3.5320 C   0  0  0  0  0  0  0  0  0  0  0  0
    6.3640  -13.9830   -2.6790 N   0  0  0  0  0  0  0  0  0  0  0  0
    7.2650  -13.6880   -1.7110 N   0  0  0  0  0  0  0  0  0  0  0  0
    6.9380  -12.7720   -0.6710 C   0  0  0  0  0  0  0  0  0  0  0  0
    7.9410  -11.9450   -0.1400 C   0  0  0  0  0  0  0  0  0  0  0  0
    7.6420  -11.0430    0.8840 C   0  0  0  0  0  0  0  0  0  0  0  0
    6.3440  -10.9590    1.3820 C   0  0  0  0  0  0  0  0  0  0  0  0
    5.3430  -11.7770    0.8600 C   0  0  0  0  0  0  0  0  0  0  0  0
    5.6350  -12.6830   -0.1630 C   0  0  0  0  0  0  0  0  0  0  0  0
    8.4310  -14.3880   -1.8860 C   0  0  0  0  0  0  0  0  0  0  0  0
    8.3240  -15.0990   -3.0690 C   0  0  0  0  0  0  0  0  0  0  0  0
    9.3760  -15.9580   -3.6040 C   0  0  0  0  0  0  0  0  0  0  0  0
    9.4190  -17.1500   -3.3060 O   0  0  0  0  0  0  0  0  0  0  0  0
   10.4030  -15.3540   -4.4680 C   0  0  0  0  0  0  0  0  0  0  0  0
   10.1620  -15.0700   -5.7610 N   0  0  0  0  0  0  0  0  0  0  0  0
   11.2800  -14.4500   -6.2170 N   0  0  0  0  0  0  0  0  0  0  0  0
   11.3850  -14.0420   -7.5760 C   0  0  0  0  0  0  0  0  0  0  0  0
   12.6330  -13.6610   -8.0870 C   0  0  0  0  0  0  0  0  0  0  0  0
   12.7570  -13.2400   -9.4140 C   0  0  0  0  0  0  0  0  0  0  0  0
   11.6390  -13.2090  -10.2540 C   0  0  0  0  0  0  0  0  0  0  0  0
   11.7670  -12.7250  -11.6690 C   0  0  0  0  0  0  0  0  0  0  0  0
   10.3920  -13.5820   -9.7410 C   0  0  0  0  0  0  0  0  0  0  0  0
   10.2620  -14.0030   -8.4120 C   0  0  0  0  0  0  0  0  0  0  0  0
   12.2130  -14.3160   -5.2190 C   0  0  0  0  0  0  0  0  0  0  0  0
   11.7040  -14.9200   -4.0870 C   0  0  0  0  0  0  0  0  0  0  0  0
   12.4090  -15.0100   -2.8190 C   0  0  0  0  0  0  0  0  0  0  0  0
   13.0820  -15.9970   -2.5290 O   0  0  0  0  0  0  0  0  0  0  0  0
   12.2710  -13.9200   -1.8200 C   0  0  0  0  0  0  0  0  0  0  0  0
   11.7630  -14.2300   -0.5530 C   0  0  0  0  0  0  0  0  0  0  0  0
   11.6130  -13.2250    0.4040 C   0  0  0  0  0  0  0  0  0  0  0  0
   11.9550  -11.9090    0.0940 C   0  0  0  0  0  0  0  0  0  0  0  0
   12.4400  -11.5910   -1.1750 C   0  0  0  0  0  0  0  0  0  0  0  0
   12.5910  -12.5930   -2.1370 C   0  0  0  0  0  0  0  0  0  0  0  0
    3.7429  -11.2225   -3.9927 H   0  0  0  0  0  0  0  0  0  0  0  0
    4.6208  -11.0152   -5.5461 H   0  0  0  0  0  0  0  0  0  0  0  0
    2.8419  -11.2644   -5.5461 H   0  0  0  0  0  0  0  0  0  0  0  0
    6.4298  -15.2155   -9.9128 H   0  0  0  0  0  0  0  0  0  0  0  0
    7.1772  -14.6215  -12.2169 H   0  0  0  0  0  0  0  0  0  0  0  0
    7.8224  -12.2737  -12.7538 H   0  0  0  0  0  0  0  0  0  0  0  0
    7.7248  -10.5192  -10.9885 H   0  0  0  0  0  0  0  0  0  0  0  0
    6.9805  -11.1002   -8.6783 H   0  0  0  0  0  0  0  0  0  0  0  0
    7.7181  -15.0409   -7.1666 H   0  0  0  0  0  0  0  0  0  0  0  0
    8.9668  -12.0077   -0.5321 H   0  0  0  0  0  0  0  0  0  0  0  0
    8.4321  -10.3988    1.2972 H   0  0  0  0  0  0  0  0  0  0  0  0
    6.1087  -10.2473    2.1871 H   0  0  0  0  0  0  0  0  0  0  0  0
    4.3187  -11.7089    1.2552 H   0  0  0  0  0  0  0  0  0  0  0  0
    4.8414  -13.3269   -0.5699 H   0  0  0  0  0  0  0  0  0  0  0  0
    9.2968  -14.3851   -1.2075 H   0  0  0  0  0  0  0  0  0  0  0  0
   13.5214  -13.6935   -7.4391 H   0  0  0  0  0  0  0  0  0  0  0  0
   13.7397  -12.9312   -9.8001 H   0  0  0  0  0  0  0  0  0  0  0  0
   12.0482  -11.6616  -11.6687 H   0  0  0  0  0  0  0  0  0  0  0  0
   12.5416  -13.3090  -12.1876 H   0  0  0  0  0  0  0  0  0  0  0  0
   10.8050  -12.8497  -12.1876 H   0  0  0  0  0  0  0  0  0  0  0  0
    9.5039  -13.5441  -10.3889 H   0  0  0  0  0  0  0  0  0  0  0  0
    9.2774  -14.3033   -8.0243 H   0  0  0  0  0  0  0  0  0  0  0  0
   13.1897  -13.8174   -5.3057 H   0  0  0  0  0  0  0  0  0  0  0  0
   11.4820  -15.2657   -0.3115 H   0  0  0  0  0  0  0  0  0  0  0  0
   11.2248  -13.4712    1.4033 H   0  0  0  0  0  0  0  0  0  0  0  0
   11.8421  -11.1197    0.8518 H   0  0  0  0  0  0  0  0  0  0  0  0
   12.7036  -10.5511   -1.4182 H   0  0  0  0  0  0  0  0  0  0  0  0
   12.9606  -12.3406   -3.1418 H   0  0  0  0  0  0  0  0  0  0  0  0
  1  2  1  0
  2  3  2  0
  2  4  1  0
  4  5  2  0
  5  6  1  0
  6  7  1  0
  7  8  2  0
  8  9  1  0
  9 10  2  0
 10 11  1  0
 11 12  2  0
  6 13  1  0
 13 14  2  0
 14 15  1  0
 15 16  2  0
 15 17  1  0
 17 18  2  0
 18 19  1  0
 19 20  1  0
 20 21  2  0
 21 22  1  0
 22 23  2  0
 23 24  1  0
 24 25  2  0
 19 26  1  0
 26 27  2  0
 27 28  1  0
 28 29  2  0
 28 30  1  0
 30 31  2  0
 31 32  1  0
 32 33  1  0
 33 34  2  0
 34 35  1  0
 35 36  2  0
 36 37  1  0
 36 38  1  0
 38 39  2  0
 32 40  1  0
 40 41  2  0
 41 42  1  0
 42 43  2  0
 42 44  1  0
 44 45  2  0
 45 46  1  0
 46 47  2  0
 47 48  1  0
 48 49  2  0
 14  4  1  0
 27 17  1  0
 41 30  1  0
 49 44  1  0
 12  7  1  0
 25 20  1  0
 39 33  1  0
  1 50  1  0
  1 51  1  0
  1 52  1  0
  8 53  1  0
  9 54  1  0
 10 55  1  0
 11 56  1  0
 12 57  1  0
 13 58  1  0
 21 59  1  0
 22 60  1  0
 23 61  1  0
 24 62  1  0
 25 63  1  0
 26 64  1  0
 34 65  1  0
 35 66  1  0
 37 67  1  0
 37 68  1  0
 37 69  1  0
 38 70  1  0
 39 71  1  0
 40 72  1  0
 45 73  1  0
 46 74  1  0
 47 75  1  0
 48 76  1  0
 49 77  1  0
M  END
>  <meeko>  (6) 
{"is_sidechain": [false], "free_energy": -8.307, "intermolecular_energy": -14.414, "internal_energy": -4.646}

$$$$
LIB_BPLOGUVUEKYGFE__M_PUB_ALL__e8__s20260927
     RDKit          3D

 77 83  0  0  0  0  0  0  0  0999 V2000
    3.2450  -14.4750    1.8200 C   0  0  0  0  0  0  0  0  0  0  0  0
    4.5810  -13.8490    1.5070 C   0  0  0  0  0  0  0  0  0  0  0  0
    5.3300  -13.4970    2.4200 O   0  0  0  0  0  0  0  0  0  0  0  0
    4.9170  -13.6260    0.0930 C   0  0  0  0  0  0  0  0  0  0  0  0
    4.1020  -12.8830   -0.6770 N   0  0  0  0  0  0  0  0  0  0  0  0
    4.7370  -12.7540   -1.8660 N   0  0  0  0  0  0  0  0  0  0  0  0
    4.1680  -11.9830   -2.9180 C   0  0  0  0  0  0  0  0  0  0  0  0
    4.5890  -12.2030   -4.2400 C   0  0  0  0  0  0  0  0  0  0  0  0
    4.0440  -11.4580   -5.2880 C   0  0  0  0  0  0  0  0  0  0  0  0
    3.0770  -10.4900   -5.0260 C   0  0  0  0  0  0  0  0  0  0  0  0
    2.6530  -10.2650   -3.7180 C   0  0  0  0  0  0  0  0  0  0  0  0
    3.1940  -11.0080   -2.6630 C   0  0  0  0  0  0  0  0  0  0  0  0
    5.9210  -13.4450   -1.8710 C   0  0  0  0  0  0  0  0  0  0  0  0
    6.0600  -14.0590   -0.6370 C   0  0  0  0  0  0  0  0  0  0  0  0
    7.1800  -14.9270   -0.2870 C   0  0  0  0  0  0  0  0  0  0  0  0
    7.0180  -15.9100    0.4370 O   0  0  0  0  0  0  0  0  0  0  0  0
    8.5220  -14.5230   -0.7280 C   0  0  0  0  0  0  0  0  0  0  0  0
    9.1470  -13.4690   -0.1650 N   0  0  0  0  0  0  0  0  0  0  0  0
   10.3630  -13.4100   -0.7590 N   0  0  0  0  0  0  0  0  0  0  0  0
   11.2710  -12.3570   -0.4510 C   0  0  0  0  0  0  0  0  0  0  0  0
   12.3830  -12.1400   -1.2790 C   0  0  0  0  0  0  0  0  0  0  0  0
   13.2870  -11.1150   -0.9930 C   0  0  0  0  0  0  0  0  0  0  0  0
   13.0890  -10.3010    0.1190 C   0  0  0  0  0  0  0  0  0  0  0  0
   11.9870  -10.5100    0.9480 C   0  0  0  0  0  0  0  0  0  0  0  0
   11.0780  -11.5340    0.6670 C   0  0  0  0  0  0  0  0  0  0  0  0
   10.5520  -14.4680   -1.6110 C   0  0  0  0  0  0  0  0  0  0  0  0
    9.3750  -15.1960   -1.6490 C   0  0  0  0  0  0  0  0  0  0  0  0
    9.1820  -16.3940   -2.4590 C   0  0  0  0  0  0  0  0  0  0  0  0
    9.7590  -17.4410   -2.1730 O   0  0  0  0  0  0  0  0  0  0  0  0
    8.3170  -16.3050   -3.6460 C   0  0  0  0  0  0  0  0  0  0  0  0
    8.5190  -15.3800   -4.6030 N   0  0  0  0  0  0  0  0  0  0  0  0
    7.6070  -15.6460   -5.5710 N   0  0  0  0  0  0  0  0  0  0  0  0
    7.5130  -14.8240   -6.7290 C   0  0  0  0  0  0  0  0  0  0  0  0
    6.3700  -14.0370   -6.9260 C   0  0  0  0  0  0  0  0  0  0  0  0
    6.2480  -13.2360   -8.0630 C   0  0  0  0  0  0  0  0  0  0  0  0
    7.2730  -13.1970   -9.0160 C   0  0  0  0  0  0  0  0  0  0  0  0
    7.1260  -12.3620  -10.2540 C   0  0  0  0  0  0  0  0  0  0  0  0
    8.4090  -13.9900   -8.8230 C   0  0  0  0  0  0  0  0  0  0  0  0
    8.5360  -14.7950   -7.6850 C   0  0  0  0  0  0  0  0  0  0  0  0
    6.8490  -16.7430   -5.2500 C   0  0  0  0  0  0  0  0  0  0  0  0
    7.2470  -17.1750   -4.0000 C   0  0  0  0  0  0  0  0  0  0  0  0
    6.6600  -18.3040   -3.2980 C   0  0  0  0  0  0  0  0  0  0  0  0
    6.9000  -19.4620   -3.6330 O   0  0  0  0  0  0  0  0  0  0  0  0
    5.7010  -18.0650   -2.1890 C   0  0  0  0  0  0  0  0  0  0  0  0
    5.7930  -18.8570   -1.0390 C   0  0  0  0  0  0  0  0  0  0  0  0
    4.9000  -18.6620    0.0160 C   0  0  0  0  0  0  0  0  0  0  0  0
    3.9070  -17.6870   -0.0810 C   0  0  0  0  0  0  0  0  0  0  0  0
    3.7980  -16.9110   -1.2340 C   0  0  0  0  0  0  0  0  0  0  0  0
    4.6880  -17.1020   -2.2930 C   0  0  0  0  0  0  0  0  0  0  0  0
    3.1151  -14.5359    2.9106 H   0  0  0  0  0  0  0  0  0  0  0  0
    2.4417  -13.8596    1.3888 H   0  0  0  0  0  0  0  0  0  0  0  0
    3.2038  -15.4861    1.3888 H   0  0  0  0  0  0  0  0  0  0  0  0
    5.3523  -12.9664   -4.4509 H   0  0  0  0  0  0  0  0  0  0  0  0
    4.3784  -11.6356   -6.3208 H   0  0  0  0  0  0  0  0  0  0  0  0
    2.6482   -9.9033   -5.8518 H   0  0  0  0  0  0  0  0  0  0  0  0
    1.8895   -9.4998   -3.5138 H   0  0  0  0  0  0  0  0  0  0  0  0
    2.8546  -10.8267   -1.6325 H   0  0  0  0  0  0  0  0  0  0  0  0
    6.6341  -13.5018   -2.7066 H   0  0  0  0  0  0  0  0  0  0  0  0
   12.5434  -12.7811   -2.1584 H   0  0  0  0  0  0  0  0  0  0  0  0
   14.1562  -10.9505   -1.6467 H   0  0  0  0  0  0  0  0  0  0  0  0
   13.8013   -9.4934    0.3437 H   0  0  0  0  0  0  0  0  0  0  0  0
   11.8326   -9.8663    1.8266 H   0  0  0  0  0  0  0  0  0  0  0  0
   10.2103  -11.6941    1.3239 H   0  0  0  0  0  0  0  0  0  0  0  0
   11.4741  -14.6972   -2.1652 H   0  0  0  0  0  0  0  0  0  0  0  0
    5.5627  -14.0506   -6.1789 H   0  0  0  0  0  0  0  0  0  0  0  0
    5.3408  -12.6317   -8.2110 H   0  0  0  0  0  0  0  0  0  0  0  0
    6.9417  -11.3153   -9.9705 H   0  0  0  0  0  0  0  0  0  0  0  0
    8.0488  -12.4236  -10.8495 H   0  0  0  0  0  0  0  0  0  0  0  0
    6.2797  -12.7350  -10.8495 H   0  0  0  0  0  0  0  0  0  0  0  0
    9.2122  -13.9809   -9.5746 H   0  0  0  0  0  0  0  0  0  0  0  0
    9.4399  -15.4052   -7.5415 H   0  0  0  0  0  0  0  0  0  0  0  0
    6.0658  -17.1967   -5.8750 H   0  0  0  0  0  0  0  0  0  0  0  0
    6.5690  -19.6332   -0.9664 H   0  0  0  0  0  0  0  0  0  0  0  0
    4.9793  -19.2774    0.9243 H   0  0  0  0  0  0  0  0  0  0  0  0
    3.2085  -17.5302    0.7541 H   0  0  0  0  0  0  0  0  0  0  0  0
    3.0099  -16.1473   -1.3097 H   0  0  0  0  0  0  0  0  0  0  0  0
    4.5942  -16.4976   -3.2073 H   0  0  0  0  0  0  0  0  0  0  0  0
  1  2  1  0
  2  3  2  0
  2  4  1  0
  4  5  2  0
  5  6  1  0
  6  7  1  0
  7  8  2  0
  8  9  1  0
  9 10  2  0
 10 11  1  0
 11 12  2  0
  6 13  1  0
 13 14  2  0
 14 15  1  0
 15 16  2  0
 15 17  1  0
 17 18  2  0
 18 19  1  0
 19 20  1  0
 20 21  2  0
 21 22  1  0
 22 23  2  0
 23 24  1  0
 24 25  2  0
 19 26  1  0
 26 27  2  0
 27 28  1  0
 28 29  2  0
 28 30  1  0
 30 31  2  0
 31 32  1  0
 32 33  1  0
 33 34  2  0
 34 35  1  0
 35 36  2  0
 36 37  1  0
 36 38  1  0
 38 39  2  0
 32 40  1  0
 40 41  2  0
 41 42  1  0
 42 43  2  0
 42 44  1  0
 44 45  2  0
 45 46  1  0
 46 47  2  0
 47 48  1  0
 48 49  2  0
 14  4  1  0
 27 17  1  0
 41 30  1  0
 49 44  1  0
 12  7  1  0
 25 20  1  0
 39 33  1  0
  1 50  1  0
  1 51  1  0
  1 52  1  0
  8 53  1  0
  9 54  1  0
 10 55  1  0
 11 56  1  0
 12 57  1  0
 13 58  1  0
 21 59  1  0
 22 60  1  0
 23 61  1  0
 24 62  1  0
 25 63  1  0
 26 64  1  0
 34 65  1  0
 35 66  1  0
 37 67  1  0
 37 68  1  0
 37 69  1  0
 38 70  1  0
 39 71  1  0
 40 72  1  0
 45 73  1  0
 46 74  1  0
 47 75  1  0
 48 76  1  0
 49 77  1  0
M  END
>  <meeko>  (7) 
{"is_sidechain": [false], "free_energy": -8.198, "intermolecular_energy": -14.334, "internal_energy": -4.554}

$$$$
LIB_BPLOGUVUEKYGFE__M_PUB_ALL__e8__s20260927
     RDKit          3D

 77 83  0  0  0  0  0  0  0  0999 V2000
   -2.5950  -11.7820    2.3790 C   0  0  0  0  0  0  0  0  0  0  0  0
   -1.2810  -12.5230    2.3790 C   0  0  0  0  0  0  0  0  0  0  0  0
   -0.6020  -12.5820    3.4050 O   0  0  0  0  0  0  0  0  0  0  0  0
   -0.8260  -13.1070    1.1080 C   0  0  0  0  0  0  0  0  0  0  0  0
    0.2070  -12.5500    0.4500 N   0  0  0  0  0  0  0  0  0  0  0  0
    0.4660  -13.3760   -0.5910 N   0  0  0  0  0  0  0  0  0  0  0  0
    1.5390  -13.1080   -1.4870 C   0  0  0  0  0  0  0  0  0  0  0  0
    2.0000  -14.1280   -2.3350 C   0  0  0  0  0  0  0  0  0  0  0  0
    3.0530  -13.8880   -3.2220 C   0  0  0  0  0  0  0  0  0  0  0  0
    3.6510  -12.6300   -3.2680 C   0  0  0  0  0  0  0  0  0  0  0  0
    3.1990  -11.6120   -2.4310 C   0  0  0  0  0  0  0  0  0  0  0  0
    2.1460  -11.8460   -1.5410 C   0  0  0  0  0  0  0  0  0  0  0  0
   -0.4200  -14.4220   -0.6250 C   0  0  0  0  0  0  0  0  0  0  0  0
   -1.3000  -14.2670    0.4330 C   0  0  0  0  0  0  0  0  0  0  0  0
   -2.4210  -15.1670    0.6920 C   0  0  0  0  0  0  0  0  0  0  0  0
   -3.1860  -15.5030   -0.2120 O   0  0  0  0  0  0  0  0  0  0  0  0
   -2.6740  -15.5590    2.0850 C   0  0  0  0  0  0  0  0  0  0  0  0
   -3.8350  -15.2380    2.6930 N   0  0  0  0  0  0  0  0  0  0  0  0
   -3.7590  -15.7900    3.9290 N   0  0  0  0  0  0  0  0  0  0  0  0
   -4.7980  -15.5830    4.8800 C   0  0  0  0  0  0  0  0  0  0  0  0
   -4.8010  -16.3270    6.0710 C   0  0  0  0  0  0  0  0  0  0  0  0
   -5.8140  -16.1420    7.0150 C   0  0  0  0  0  0  0  0  0  0  0  0
   -6.8270  -15.2170    6.7790 C   0  0  0  0  0  0  0  0  0  0  0  0
   -6.8320  -14.4750    5.5980 C   0  0  0  0  0  0  0  0  0  0  0  0
   -5.8220  -14.6550    4.6490 C   0  0  0  0  0  0  0  0  0  0  0  0
   -2.6160  -16.5340    4.0720 C   0  0  0  0  0  0  0  0  0  0  0  0
   -1.8690  -16.3880    2.9160 C   0  0  0  0  0  0  0  0  0  0  0  0
   -0.5730  -17.0230    2.6960 C   0  0  0  0  0  0  0  0  0  0  0  0
   -0.5020  -18.2220    2.4370 O   0  0  0  0  0  0  0  0  0  0  0  0
    0.6420  -16.2030    2.8330 C   0  0  0  0  0  0  0  0  0  0  0  0
    1.4320  -15.9250    1.7800 N   0  0  0  0  0  0  0  0  0  0  0  0
    2.3900  -15.0870    2.2500 N   0  0  0  0  0  0  0  0  0  0  0  0
    3.4300  -14.6200    1.3980 C   0  0  0  0  0  0  0  0  0  0  0  0
    4.0160  -15.5000    0.4780 C   0  0  0  0  0  0  0  0  0  0  0  0
    5.0500  -15.0680   -0.3560 C   0  0  0  0  0  0  0  0  0  0  0  0
    5.5050  -13.7460   -0.2940 C   0  0  0  0  0  0  0  0  0  0  0  0
    6.6390  -13.2930   -1.1660 C   0  0  0  0  0  0  0  0  0  0  0  0
    4.9250  -12.8710    0.6300 C   0  0  0  0  0  0  0  0  0  0  0  0
    3.8890  -13.2990    1.4690 C   0  0  0  0  0  0  0  0  0  0  0  0
    2.1980  -14.8120    3.5800 C   0  0  0  0  0  0  0  0  0  0  0  0
    1.1060  -15.5420    4.0050 C   0  0  0  0  0  0  0  0  0  0  0  0
    0.5990  -15.5390    5.3680 C   0  0  0  0  0  0  0  0  0  0  0  0
    0.2700  -14.4950    5.9260 O   0  0  0  0  0  0  0  0  0  0  0  0
    0.5300  -16.8120    6.1300 C   0  0  0  0  0  0  0  0  0  0  0  0
   -0.3610  -16.9020    7.2070 C   0  0  0  0  0  0  0  0  0  0  0  0
   -0.4420  -18.0820    7.9480 C   0  0  0  0  0  0  0  0  0  0  0  0
    0.3740  -19.1670    7.6260 C   0  0  0  0  0  0  0  0  0  0  0  0
    1.2780  -19.0730    6.5680 C   0  0  0  0  0  0  0  0  0  0  0  0
    1.3640  -17.8950    5.8230 C   0  0  0  0  0  0  0  0  0  0  0  0
   -2.9144  -11.6019    3.4161 H   0  0  0  0  0  0  0  0  0  0  0  0
   -2.4732  -10.8196    1.8605 H   0  0  0  0  0  0  0  0  0  0  0  0
   -3.3556  -12.3842    1.8605 H   0  0  0  0  0  0  0  0  0  0  0  0
    1.5295  -15.1217   -2.3009 H   0  0  0  0  0  0  0  0  0  0  0  0
    3.4095  -14.6914   -3.8833 H   0  0  0  0  0  0  0  0  0  0  0  0
    4.4803  -12.4407   -3.9655 H   0  0  0  0  0  0  0  0  0  0  0  0
    3.6725  -10.6199   -2.4704 H   0  0  0  0  0  0  0  0  0  0  0  0
    1.7937  -11.0384   -0.8824 H   0  0  0  0  0  0  0  0  0  0  0  0
   -0.4300  -15.2389   -1.3616 H   0  0  0  0  0  0  0  0  0  0  0  0
   -4.0021  -17.0588    6.2615 H   0  0  0  0  0  0  0  0  0  0  0  0
   -5.8111  -16.7280    7.9459 H   0  0  0  0  0  0  0  0  0  0  0  0
   -7.6234  -15.0712    7.5237 H   0  0  0  0  0  0  0  0  0  0  0  0
   -7.6340  -13.7453    5.4128 H   0  0  0  0  0  0  0  0  0  0  0  0
   -5.8310  -14.0672    3.7193 H   0  0  0  0  0  0  0  0  0  0  0  0
   -2.3418  -17.1389    4.9489 H   0  0  0  0  0  0  0  0  0  0  0  0
    3.6591  -16.5384    0.4122 H   0  0  0  0  0  0  0  0  0  0  0  0
    5.5095  -15.7714   -1.0660 H   0  0  0  0  0  0  0  0  0  0  0  0
    7.4758  -12.9587   -0.5351 H   0  0  0  0  0  0  0  0  0  0  0  0
    6.9694  -14.1282   -1.8011 H   0  0  0  0  0  0  0  0  0  0  0  0
    6.3031  -12.4600   -1.8011 H   0  0  0  0  0  0  0  0  0  0  0  0
    5.2869  -11.8345    0.6984 H   0  0  0  0  0  0  0  0  0  0  0  0
    3.4354  -12.5971    2.1843 H   0  0  0  0  0  0  0  0  0  0  0  0
    2.8046  -14.1325    4.1967 H   0  0  0  0  0  0  0  0  0  0  0  0
   -0.9966  -16.0432    7.4687 H   0  0  0  0  0  0  0  0  0  0  0  0
   -1.1498  -18.1567    8.7867 H   0  0  0  0  0  0  0  0  0  0  0  0
    0.3043  -20.0981    8.2075 H   0  0  0  0  0  0  0  0  0  0  0  0
    1.9241  -19.9280    6.3201 H   0  0  0  0  0  0  0  0  0  0  0  0
    2.0855  -17.8175    4.9963 H   0  0  0  0  0  0  0  0  0  0  0  0
  1  2  1  0
  2  3  2  0
  2  4  1  0
  4  5  2  0
  5  6  1  0
  6  7  1  0
  7  8  2  0
  8  9  1  0
  9 10  2  0
 10 11  1  0
 11 12  2  0
  6 13  1  0
 13 14  2  0
 14 15  1  0
 15 16  2  0
 15 17  1  0
 17 18  2  0
 18 19  1  0
 19 20  1  0
 20 21  2  0
 21 22  1  0
 22 23  2  0
 23 24  1  0
 24 25  2  0
 19 26  1  0
 26 27  2  0
 27 28  1  0
 28 29  2  0
 28 30  1  0
 30 31  2  0
 31 32  1  0
 32 33  1  0
 33 34  2  0
 34 35  1  0
 35 36  2  0
 36 37  1  0
 36 38  1  0
 38 39  2  0
 32 40  1  0
 40 41  2  0
 41 42  1  0
 42 43  2  0
 42 44  1  0
 44 45  2  0
 45 46  1  0
 46 47  2  0
 47 48  1  0
 48 49  2  0
 14  4  1  0
 27 17  1  0
 41 30  1  0
 49 44  1  0
 12  7  1  0
 25 20  1  0
 39 33  1  0
  1 50  1  0
  1 51  1  0
  1 52  1  0
  8 53  1  0
  9 54  1  0
 10 55  1  0
 11 56  1  0
 12 57  1  0
 13 58  1  0
 21 59  1  0
 22 60  1  0
 23 61  1  0
 24 62  1  0
 25 63  1  0
 26 64  1  0
 34 65  1  0
 35 66  1  0
 37 67  1  0
 37 68  1  0
 37 69  1  0
 38 70  1  0
 39 71  1  0
 40 72  1  0
 45 73  1  0
 46 74  1  0
 47 75  1  0
 48 76  1  0
 49 77  1  0
M  END
>  <meeko>  (8) 
{"is_sidechain": [false], "free_energy": -8.159, "intermolecular_energy": -13.119, "internal_energy": -5.708}

$$$$
LIB_BPLOGUVUEKYGFE__M_PUB_ALL__e8__s20260927
     RDKit          3D

 77 83  0  0  0  0  0  0  0  0999 V2000
    2.7130  -13.8230   -4.6770 C   0  0  0  0  0  0  0  0  0  0  0  0
    4.0950  -13.5030   -5.1890 C   0  0  0  0  0  0  0  0  0  0  0  0
    4.2650  -13.2100   -6.3740 O   0  0  0  0  0  0  0  0  0  0  0  0
    5.2170  -13.6150   -4.2450 C   0  0  0  0  0  0  0  0  0  0  0  0
    5.3470  -12.7140   -3.2540 N   0  0  0  0  0  0  0  0  0  0  0  0
    6.3760  -13.1540   -2.4920 N   0  0  0  0  0  0  0  0  0  0  0  0
    6.7670  -12.4520   -1.3160 C   0  0  0  0  0  0  0  0  0  0  0  0
    6.6950  -11.0500   -1.2950 C   0  0  0  0  0  0  0  0  0  0  0  0
    7.0740  -10.3410   -0.1520 C   0  0  0  0  0  0  0  0  0  0  0  0
    7.5250  -11.0250    0.9750 C   0  0  0  0  0  0  0  0  0  0  0  0
    7.5980  -12.4170    0.9630 C   0  0  0  0  0  0  0  0  0  0  0  0
    7.2200  -13.1330   -0.1780 C   0  0  0  0  0  0  0  0  0  0  0  0
    6.9270  -14.2950   -3.0160 C   0  0  0  0  0  0  0  0  0  0  0  0
    6.2340  -14.6070   -4.1730 C   0  0  0  0  0  0  0  0  0  0  0  0
    6.5700  -15.7360   -5.0370 C   0  0  0  0  0  0  0  0  0  0  0  0
    6.1730  -16.8730   -4.7780 O   0  0  0  0  0  0  0  0  0  0  0  0
    7.4930  -15.4920   -6.1540 C   0  0  0  0  0  0  0  0  0  0  0  0
    7.0660  -14.8970   -7.2870 N   0  0  0  0  0  0  0  0  0  0  0  0
    8.1650  -14.7810   -8.0700 N   0  0  0  0  0  0  0  0  0  0  0  0
    8.0640  -14.2550   -9.3890 C   0  0  0  0  0  0  0  0  0  0  0  0
    9.2310  -13.8940  -10.0800 C   0  0  0  0  0  0  0  0  0  0  0  0
    9.1530  -13.3720  -11.3730 C   0  0  0  0  0  0  0  0  0  0  0  0
    7.9120  -13.2070  -11.9850 C   0  0  0  0  0  0  0  0  0  0  0  0
    6.7480  -13.5620  -11.3050 C   0  0  0  0  0  0  0  0  0  0  0  0
    6.8180  -14.0850  -10.0110 C   0  0  0  0  0  0  0  0  0  0  0  0
    9.2920  -15.2000   -7.4110 C   0  0  0  0  0  0  0  0  0  0  0  0
    8.9020  -15.6990   -6.1800 C   0  0  0  0  0  0  0  0  0  0  0  0
    9.8240  -16.2520   -5.1930 C   0  0  0  0  0  0  0  0  0  0  0  0
    9.6510  -17.3810   -4.7410 O   0  0  0  0  0  0  0  0  0  0  0  0
   10.9360  -15.4090   -4.7250 C   0  0  0  0  0  0  0  0  0  0  0  0
   10.7910  -14.5500   -3.6990 N   0  0  0  0  0  0  0  0  0  0  0  0
   12.0210  -14.0180   -3.4880 N   0  0  0  0  0  0  0  0  0  0  0  0
   12.2240  -13.0270   -2.4870 C   0  0  0  0  0  0  0  0  0  0  0  0
   13.2580  -12.0930   -2.6400 C   0  0  0  0  0  0  0  0  0  0  0  0
   13.4860  -11.1220   -1.6620 C   0  0  0  0  0  0  0  0  0  0  0  0
   12.6770  -11.0590   -0.5230 C   0  0  0  0  0  0  0  0  0  0  0  0
   12.9450  -10.0380    0.5430 C   0  0  0  0  0  0  0  0  0  0  0  0
   11.6510  -11.9970   -0.3660 C   0  0  0  0  0  0  0  0  0  0  0  0
   11.4180  -12.9730   -1.3430 C   0  0  0  0  0  0  0  0  0  0  0  0
   12.9460  -14.5510   -4.3490 C   0  0  0  0  0  0  0  0  0  0  0  0
   12.2810  -15.4220   -5.1890 C   0  0  0  0  0  0  0  0  0  0  0  0
   12.9160  -16.1690   -6.2630 C   0  0  0  0  0  0  0  0  0  0  0  0
   13.0240  -17.3920   -6.2150 O   0  0  0  0  0  0  0  0  0  0  0  0
   13.5040  -15.4430   -7.4180 C   0  0  0  0  0  0  0  0  0  0  0  0
   12.6780  -14.5990   -8.1710 C   0  0  0  0  0  0  0  0  0  0  0  0
   13.1990  -13.9100   -9.2670 C   0  0  0  0  0  0  0  0  0  0  0  0
   14.5380  -14.0720   -9.6220 C   0  0  0  0  0  0  0  0  0  0  0  0
   15.3580  -14.9300   -8.8890 C   0  0  0  0  0  0  0  0  0  0  0  0
   14.8420  -15.6220   -7.7910 C   0  0  0  0  0  0  0  0  0  0  0  0
    2.7200  -13.8214   -3.5770 H   0  0  0  0  0  0  0  0  0  0  0  0
    2.0029  -13.0655   -5.0403 H   0  0  0  0  0  0  0  0  0  0  0  0
    2.4081  -14.8155   -5.0403 H   0  0  0  0  0  0  0  0  0  0  0  0
    6.3385  -10.5070   -2.1827 H   0  0  0  0  0  0  0  0  0  0  0  0
    7.0163   -9.2426   -0.1420 H   0  0  0  0  0  0  0  0  0  0  0  0
    7.8235  -10.4664    1.8744 H   0  0  0  0  0  0  0  0  0  0  0  0
    7.9542  -12.9546    1.8541 H   0  0  0  0  0  0  0  0  0  0  0  0
    7.2784  -14.2314   -0.1819 H   0  0  0  0  0  0  0  0  0  0  0  0
    7.7695  -14.8614   -2.5925 H   0  0  0  0  0  0  0  0  0  0  0  0
   10.2126  -14.0229   -9.6005 H   0  0  0  0  0  0  0  0  0  0  0  0
   10.0717  -13.0909  -11.9086 H   0  0  0  0  0  0  0  0  0  0  0  0
    7.8509  -12.7969  -13.0039 H   0  0  0  0  0  0  0  0  0  0  0  0
    5.7693  -13.4298  -11.7895 H   0  0  0  0  0  0  0  0  0  0  0  0
    5.8958  -14.3635   -9.4799 H   0  0  0  0  0  0  0  0  0  0  0  0
   10.3225  -15.1488   -7.7925 H   0  0  0  0  0  0  0  0  0  0  0  0
   13.8944  -12.1249   -3.5366 H   0  0  0  0  0  0  0  0  0  0  0  0
   14.3077  -10.4018   -1.7887 H   0  0  0  0  0  0  0  0  0  0  0  0
   12.8234  -10.5012    1.5333 H   0  0  0  0  0  0  0  0  0  0  0  0
   13.9728   -9.6601    0.4387 H   0  0  0  0  0  0  0  0  0  0  0  0
   12.2353   -9.2040    0.4387 H   0  0  0  0  0  0  0  0  0  0  0  0
   11.0203  -11.9676    0.5348 H   0  0  0  0  0  0  0  0  0  0  0  0
   10.6011  -13.6979   -1.2117 H   0  0  0  0  0  0  0  0  0  0  0  0
   14.0225  -14.3255   -4.3671 H   0  0  0  0  0  0  0  0  0  0  0  0
   11.6190  -14.4793   -7.8986 H   0  0  0  0  0  0  0  0  0  0  0  0
   12.5530  -13.2385   -9.8515 H   0  0  0  0  0  0  0  0  0  0  0  0
   14.9483  -13.5220  -10.4818 H   0  0  0  0  0  0  0  0  0  0  0  0
   16.4117  -15.0617   -9.1759 H   0  0  0  0  0  0  0  0  0  0  0  0
   15.4859  -16.3069   -7.2198 H   0  0  0  0  0  0  0  0  0  0  0  0
  1  2  1  0
  2  3  2  0
  2  4  1  0
  4  5  2  0
  5  6  1  0
  6  7  1  0
  7  8  2  0
  8  9  1  0
  9 10  2  0
 10 11  1  0
 11 12  2  0
  6 13  1  0
 13 14  2  0
 14 15  1  0
 15 16  2  0
 15 17  1  0
 17 18  2  0
 18 19  1  0
 19 20  1  0
 20 21  2  0
 21 22  1  0
 22 23  2  0
 23 24  1  0
 24 25  2  0
 19 26  1  0
 26 27  2  0
 27 28  1  0
 28 29  2  0
 28 30  1  0
 30 31  2  0
 31 32  1  0
 32 33  1  0
 33 34  2  0
 34 35  1  0
 35 36  2  0
 36 37  1  0
 36 38  1  0
 38 39  2  0
 32 40  1  0
 40 41  2  0
 41 42  1  0
 42 43  2  0
 42 44  1  0
 44 45  2  0
 45 46  1  0
 46 47  2  0
 47 48  1  0
 48 49  2  0
 14  4  1  0
 27 17  1  0
 41 30  1  0
 49 44  1  0
 12  7  1  0
 25 20  1  0
 39 33  1  0
  1 50  1  0
  1 51  1  0
  1 52  1  0
  8 53  1  0
  9 54  1  0
 10 55  1  0
 11 56  1  0
 12 57  1  0
 13 58  1  0
 21 59  1  0
 22 60  1  0
 23 61  1  0
 24 62  1  0
 25 63  1  0
 26 64  1  0
 34 65  1  0
 35 66  1  0
 37 67  1  0
 37 68  1  0
 37 69  1  0
 38 70  1  0
 39 71  1  0
 40 72  1  0
 45 73  1  0
 46 74  1  0
 47 75  1  0
 48 76  1  0
 49 77  1  0
M  END
>  <meeko>  (9) 
{"is_sidechain": [false], "free_energy": -8.087, "intermolecular_energy": -14.834, "internal_energy": -3.878}

$$$$
