LIB_YLSOYKKCZWGOAL__M_PUB_ALL__e8__s20260927
     RDKit          3D

 61 62  0  0  0  0  0  0  0  0999 V2000
   -3.7830  -13.8650    1.4670 C   0  0  0  0  0  0  0  0  0  0  0  0
   -3.8430  -13.3280    0.1440 O   0  0  0  0  0  0  0  0  0  0  0  0
   -4.0420  -11.9820    0.1020 C   0  0  0  0  0  0  0  0  0  0  0  0
   -4.9070  -11.4170   -0.5530 O   0  0  0  0  0  0  0  0  0  0  0  0
   -3.0300  -11.2790    0.9800 C   0  0  0  0  0  0  0  0  0  0  0  0
   -2.0020  -10.5080    0.1520 C   0  0  0  0  0  0  0  0  0  0  0  0
   -0.6790  -10.3360    0.9040 C   0  0  0  0  0  0  0  0  0  0  0  0
    0.5140  -10.5670    0.0120 C   0  0  0  0  0  0  0  0  0  0  0  0
    1.1470  -11.7400   -0.2210 C   0  0  0  0  0  0  0  0  0  0  0  0
    2.3200  -11.7270   -1.1320 C   0  0  0  0  0  0  0  0  0  0  0  0
    2.1960  -11.1950   -2.4230 C   0  0  0  0  0  0  0  0  0  0  0  0
    3.2880  -11.1820   -3.2960 C   0  0  0  0  0  0  0  0  0  0  0  0
    3.0640  -10.5060   -4.8700 Cl  0  0  0  0  0  0  0  0  0  0  0  0
    4.5250  -11.6990   -2.8940 C   0  0  0  0  0  0  0  0  0  0  0  0
    5.5960  -11.6740   -3.7480 O   0  0  0  0  0  0  0  0  0  0  0  0
    5.5630  -12.7960   -4.6330 C   0  0  0  0  0  0  0  0  0  0  0  0
    4.6340  -12.2890   -1.6300 C   0  0  0  0  0  0  0  0  0  0  0  0
    5.8860  -12.8990   -1.1530 C   0  0  0  0  0  0  0  0  0  0  0  0
    6.0660  -14.1040   -1.2670 O   0  0  0  0  0  0  0  0  0  0  0  0
    7.1040  -11.7980   -0.5340 S   0  0  0  0  0  0  0  0  0  0  0  0
    6.6180  -11.7710    1.2040 C   0  0  0  0  0  0  0  0  0  0  0  0
    3.5460  -12.2830   -0.7440 C   0  0  0  0  0  0  0  0  0  0  0  0
    0.6900  -12.9700    0.4640 C   0  0  0  0  0  0  0  0  0  0  0  0
   -0.1220  -13.8810   -0.2240 C   0  0  0  0  0  0  0  0  0  0  0  0
   -0.5250  -15.0730    0.3850 C   0  0  0  0  0  0  0  0  0  0  0  0
   -1.5680  -16.1240   -0.5060 Cl  0  0  0  0  0  0  0  0  0  0  0  0
   -0.1060  -15.3780    1.6860 C   0  0  0  0  0  0  0  0  0  0  0  0
   -0.5080  -16.5330    2.3070 O   0  0  0  0  0  0  0  0  0  0  0  0
    0.3420  -17.6210    1.9300 C   0  0  0  0  0  0  0  0  0  0  0  0
    0.6550  -14.4400    2.3910 C   0  0  0  0  0  0  0  0  0  0  0  0
    1.0750  -14.7100    3.7750 C   0  0  0  0  0  0  0  0  0  0  0  0
    2.1260  -15.2850    4.0240 O   0  0  0  0  0  0  0  0  0  0  0  0
   -0.0100  -14.1070    5.0170 S   0  0  0  0  0  0  0  0  0  0  0  0
   -0.3430  -15.6550    5.8850 C   0  0  0  0  0  0  0  0  0  0  0  0
    1.0570  -13.2410    1.7850 C   0  0  0  0  0  0  0  0  0  0  0  0
   -3.8742  -13.0486    2.1986 H   0  0  0  0  0  0  0  0  0  0  0  0
   -4.6069  -14.5796    1.6104 H   0  0  0  0  0  0  0  0  0  0  0  0
   -2.8217  -14.3801    1.6104 H   0  0  0  0  0  0  0  0  0  0  0  0
   -3.5583  -10.5740    1.6387 H   0  0  0  0  0  0  0  0  0  0  0  0
   -2.4960  -12.0415    1.5660 H   0  0  0  0  0  0  0  0  0  0  0  0
   -1.8120  -11.0580   -0.7815 H   0  0  0  0  0  0  0  0  0  0  0  0
   -2.4103   -9.5077   -0.0544 H   0  0  0  0  0  0  0  0  0  0  0  0
   -0.6293   -9.3129    1.3050 H   0  0  0  0  0  0  0  0  0  0  0  0
   -0.6484  -11.0828    1.7111 H   0  0  0  0  0  0  0  0  0  0  0  0
    0.9145   -9.6838   -0.5072 H   0  0  0  0  0  0  0  0  0  0  0  0
    1.2303  -10.7838   -2.7523 H   0  0  0  0  0  0  0  0  0  0  0  0
    5.5357  -13.7256   -4.0456 H   0  0  0  0  0  0  0  0  0  0  0  0
    4.6662  -12.7365   -5.2672 H   0  0  0  0  0  0  0  0  0  0  0  0
    6.4617  -12.7893   -5.2672 H   0  0  0  0  0  0  0  0  0  0  0  0
    7.5164  -11.8209    1.8368 H   0  0  0  0  0  0  0  0  0  0  0  0
    6.0705  -10.8411    1.4172 H   0  0  0  0  0  0  0  0  0  0  0  0
    5.9709  -12.6346    1.4172 H   0  0  0  0  0  0  0  0  0  0  0  0
    3.6563  -12.7172    0.2607 H   0  0  0  0  0  0  0  0  0  0  0  0
   -0.4449  -13.6566   -1.2513 H   0  0  0  0  0  0  0  0  0  0  0  0
    0.7279  -18.1150    2.8339 H   0  0  0  0  0  0  0  0  0  0  0  0
   -0.2321  -18.3450    1.3332 H   0  0  0  0  0  0  0  0  0  0  0  0
    1.1834  -17.2392    1.3332 H   0  0  0  0  0  0  0  0  0  0  0  0
   -0.3058  -15.4820    6.9707 H   0  0  0  0  0  0  0  0  0  0  0  0
   -1.3411  -16.0241    5.6065 H   0  0  0  0  0  0  0  0  0  0  0  0
    0.4150  -16.4019    5.6065 H   0  0  0  0  0  0  0  0  0  0  0  0
    1.6606  -12.5145    2.3488 H   0  0  0  0  0  0  0  0  0  0  0  0
  1  2  1  0
  2  3  1  0
  3  4  2  0
  3  5  1  0
  5  6  1  0
  6  7  1  0
  7  8  1  0
  8  9  2  3
  9 10  1  0
 10 11  2  0
 11 12  1  0
 12 13  1  0
 12 14  2  0
 14 15  1  0
 15 16  1  0
 14 17  1  0
 17 18  1  0
 18 19  2  0
 18 20  1  0
 20 21  1  0
 17 22  2  0
  9 23  1  0
 23 24  2  0
 24 25  1  0
 25 26  1  0
 25 27  2  0
 27 28  1  0
 28 29  1  0
 27 30  1  0
 30 31  1  0
 31 32  2  0
 31 33  1  0
 33 34  1  0
 30 35  2  0
 22 10  1  0
 35 23  1  0
  1 36  1  0
  1 37  1  0
  1 38  1  0
  5 39  1  0
  5 40  1  0
  6 41  1  0
  6 42  1  0
  7 43  1  0
  7 44  1  0
  8 45  1  0
 11 46  1  0
 16 47  1  0
 16 48  1  0
 16 49  1  0
 21 50  1  0
 21 51  1  0
 21 52  1  0
 22 53  1  0
 24 54  1  0
 29 55  1  0
 29 56  1  0
 29 57  1  0
 34 58  1  0
 34 59  1  0
 34 60  1  0
 35 61  1  0
M  END
>  <meeko>  (1) 
{"is_sidechain": [false], "free_energy": -6.298, "intermolecular_energy": -11.084, "internal_energy": -2.358}

$$$$
LIB_YLSOYKKCZWGOAL__M_PUB_ALL__e8__s20260927
     RDKit          3D

 61 62  0  0  0  0  0  0  0  0999 V2000
    5.3020  -12.9130   -7.1900 C   0  0  0  0  0  0  0  0  0  0  0  0
    4.8250  -12.4240   -5.9360 O   0  0  0  0  0  0  0  0  0  0  0  0
    4.0270  -13.3000   -5.2670 C   0  0  0  0  0  0  0  0  0  0  0  0
    4.2680  -14.4880   -5.1000 O   0  0  0  0  0  0  0  0  0  0  0  0
    2.7890  -12.5930   -4.7610 C   0  0  0  0  0  0  0  0  0  0  0  0
    3.0630  -11.1200   -4.4580 C   0  0  0  0  0  0  0  0  0  0  0  0
    3.3180  -10.8830   -2.9670 C   0  0  0  0  0  0  0  0  0  0  0  0
    2.0840  -11.1280   -2.1350 C   0  0  0  0  0  0  0  0  0  0  0  0
    1.9510  -11.9900   -1.1020 C   0  0  0  0  0  0  0  0  0  0  0  0
    0.6280  -12.0750   -0.4330 C   0  0  0  0  0  0  0  0  0  0  0  0
    0.0580  -10.9280    0.1350 C   0  0  0  0  0  0  0  0  0  0  0  0
   -1.1850  -10.9910    0.7750 C   0  0  0  0  0  0  0  0  0  0  0  0
   -1.8290   -9.5370    1.4470 Cl  0  0  0  0  0  0  0  0  0  0  0  0
   -1.8800  -12.2040    0.8560 C   0  0  0  0  0  0  0  0  0  0  0  0
   -3.1030  -12.2600    1.4720 O   0  0  0  0  0  0  0  0  0  0  0  0
   -4.1560  -12.0810    0.5230 C   0  0  0  0  0  0  0  0  0  0  0  0
   -1.2840  -13.3630    0.3460 C   0  0  0  0  0  0  0  0  0  0  0  0
   -1.9290  -14.6830    0.4370 C   0  0  0  0  0  0  0  0  0  0  0  0
   -2.5970  -15.1060   -0.4960 O   0  0  0  0  0  0  0  0  0  0  0  0
   -1.5910  -15.6170    1.8840 S   0  0  0  0  0  0  0  0  0  0  0  0
   -0.4390  -16.8210    1.1920 C   0  0  0  0  0  0  0  0  0  0  0  0
   -0.0480  -13.2960   -0.3160 C   0  0  0  0  0  0  0  0  0  0  0  0
    3.0950  -12.8430   -0.7050 C   0  0  0  0  0  0  0  0  0  0  0  0
    3.3080  -14.0600   -1.3630 C   0  0  0  0  0  0  0  0  0  0  0  0
    4.4090  -14.8590   -1.0390 C   0  0  0  0  0  0  0  0  0  0  0  0
    4.5800  -16.3710   -1.8570 Cl  0  0  0  0  0  0  0  0  0  0  0  0
    5.3220  -14.4410   -0.0630 C   0  0  0  0  0  0  0  0  0  0  0  0
    6.3970  -15.2200    0.2820 O   0  0  0  0  0  0  0  0  0  0  0  0
    7.4290  -15.1070   -0.7040 C   0  0  0  0  0  0  0  0  0  0  0  0
    5.0730  -13.2530    0.6340 C   0  0  0  0  0  0  0  0  0  0  0  0
    5.9890  -12.8070    1.6960 C   0  0  0  0  0  0  0  0  0  0  0  0
    5.7510  -13.0190    2.8770 O   0  0  0  0  0  0  0  0  0  0  0  0
    7.4490  -12.0080    1.1360 S   0  0  0  0  0  0  0  0  0  0  0  0
    6.8720  -10.2970    1.1730 C   0  0  0  0  0  0  0  0  0  0  0  0
    3.9680  -12.4520    0.3160 C   0  0  0  0  0  0  0  0  0  0  0  0
    6.0604  -13.6905   -7.0159 H   0  0  0  0  0  0  0  0  0  0  0  0
    4.4636  -13.3397   -7.7601 H   0  0  0  0  0  0  0  0  0  0  0  0
    5.7494  -12.0854   -7.7601 H   0  0  0  0  0  0  0  0  0  0  0  0
    2.0026  -12.6590   -5.5273 H   0  0  0  0  0  0  0  0  0  0  0  0
    2.4723  -13.0818   -3.8279 H   0  0  0  0  0  0  0  0  0  0  0  0
    3.9485  -10.7986   -5.0260 H   0  0  0  0  0  0  0  0  0  0  0  0
    2.1744  -10.5405   -4.7488 H   0  0  0  0  0  0  0  0  0  0  0  0
    4.1137  -11.5639   -2.6305 H   0  0  0  0  0  0  0  0  0  0  0  0
    3.6116   -9.8310   -2.8363 H   0  0  0  0  0  0  0  0  0  0  0  0
    1.1926  -10.5396   -2.3981 H   0  0  0  0  0  0  0  0  0  0  0  0
    0.5928   -9.9685    0.0773 H   0  0  0  0  0  0  0  0  0  0  0  0
   -5.1053  -11.9196    1.0547 H   0  0  0  0  0  0  0  0  0  0  0  0
   -3.9362  -11.2073   -0.1082 H   0  0  0  0  0  0  0  0  0  0  0  0
   -4.2372  -12.9782   -0.1082 H   0  0  0  0  0  0  0  0  0  0  0  0
    0.0701  -17.3531    2.0092 H   0  0  0  0  0  0  0  0  0  0  0  0
   -0.9913  -17.5429    0.5725 H   0  0  0  0  0  0  0  0  0  0  0  0
    0.3066  -16.3011    0.5725 H   0  0  0  0  0  0  0  0  0  0  0  0
    0.3923  -14.2080   -0.7455 H   0  0  0  0  0  0  0  0  0  0  0  0
    2.6039  -14.3904   -2.1409 H   0  0  0  0  0  0  0  0  0  0  0  0
    8.4032  -15.0003   -0.2045 H   0  0  0  0  0  0  0  0  0  0  0  0
    7.4361  -16.0097   -1.3325 H   0  0  0  0  0  0  0  0  0  0  0  0
    7.2406  -14.2241   -1.3325 H   0  0  0  0  0  0  0  0  0  0  0  0
    6.7616   -9.9698    2.2174 H   0  0  0  0  0  0  0  0  0  0  0  0
    7.6025   -9.6526    0.6621 H   0  0  0  0  0  0  0  0  0  0  0  0
    5.9004  -10.2266    0.6621 H   0  0  0  0  0  0  0  0  0  0  0  0
    3.7874  -11.5178    0.8680 H   0  0  0  0  0  0  0  0  0  0  0  0
  1  2  1  0
  2  3  1  0
  3  4  2  0
  3  5  1  0
  5  6  1  0
  6  7  1  0
  7  8  1  0
  8  9  2  3
  9 10  1  0
 10 11  2  0
 11 12  1  0
 12 13  1  0
 12 14  2  0
 14 15  1  0
 15 16  1  0
 14 17  1  0
 17 18  1  0
 18 19  2  0
 18 20  1  0
 20 21  1  0
 17 22  2  0
  9 23  1  0
 23 24  2  0
 24 25  1  0
 25 26  1  0
 25 27  2  0
 27 28  1  0
 28 29  1  0
 27 30  1  0
 30 31  1  0
 31 32  2  0
 31 33  1  0
 33 34  1  0
 30 35  2  0
 22 10  1  0
 35 23  1  0
  1 36  1  0
  1 37  1  0
  1 38  1  0
  5 39  1  0
  5 40  1  0
  6 41  1  0
  6 42  1  0
  7 43  1  0
  7 44  1  0
  8 45  1  0
 11 46  1  0
 16 47  1  0
 16 48  1  0
 16 49  1  0
 21 50  1  0
 21 51  1  0
 21 52  1  0
 22 53  1  0
 24 54  1  0
 29 55  1  0
 29 56  1  0
 29 57  1  0
 34 58  1  0
 34 59  1  0
 34 60  1  0
 35 61  1  0
M  END
>  <meeko>  (2) 
{"is_sidechain": [false], "free_energy": -6.229, "intermolecular_energy": -11.184, "internal_energy": -2.137}

$$$$
LIB_YLSOYKKCZWGOAL__M_PUB_ALL__e8__s20260927
     RDKit          3D

 61 62  0  0  0  0  0  0  0  0999 V2000
    7.6550   -6.6910    4.1090 C   0  0  0  0  0  0  0  0  0  0  0  0
    6.7670   -7.2950    3.1670 O   0  0  0  0  0  0  0  0  0  0  0  0
    7.3150   -7.4870    1.9360 C   0  0  0  0  0  0  0  0  0  0  0  0
    8.0870   -6.7180    1.3800 O   0  0  0  0  0  0  0  0  0  0  0  0
    6.8230   -8.7900    1.3460 C   0  0  0  0  0  0  0  0  0  0  0  0
    7.9550   -9.8070    1.2000 C   0  0  0  0  0  0  0  0  0  0  0  0
    7.4360  -11.2470    1.2500 C   0  0  0  0  0  0  0  0  0  0  0  0
    6.4860  -11.5480    0.1180 C   0  0  0  0  0  0  0  0  0  0  0  0
    6.6930  -12.3850   -0.9230 C   0  0  0  0  0  0  0  0  0  0  0  0
    5.6140  -12.5140   -1.9360 C   0  0  0  0  0  0  0  0  0  0  0  0
    4.3450  -11.9820   -1.6750 C   0  0  0  0  0  0  0  0  0  0  0  0
    3.3150  -12.1010   -2.6150 C   0  0  0  0  0  0  0  0  0  0  0  0
    1.7770  -11.4160   -2.2280 Cl  0  0  0  0  0  0  0  0  0  0  0  0
    3.5380  -12.7530   -3.8330 C   0  0  0  0  0  0  0  0  0  0  0  0
    2.5300  -12.8570   -4.7560 O   0  0  0  0  0  0  0  0  0  0  0  0
    1.7100  -13.9950   -4.4810 C   0  0  0  0  0  0  0  0  0  0  0  0
    4.7850  -13.3420   -4.0690 C   0  0  0  0  0  0  0  0  0  0  0  0
    5.0810  -14.0860   -5.3030 C   0  0  0  0  0  0  0  0  0  0  0  0
    4.9830  -15.3060   -5.3240 O   0  0  0  0  0  0  0  0  0  0  0  0
    5.4640  -13.1260   -6.7200 S   0  0  0  0  0  0  0  0  0  0  0  0
    6.8550  -14.0840   -7.3570 C   0  0  0  0  0  0  0  0  0  0  0  0
    5.8250  -13.2030   -3.1370 C   0  0  0  0  0  0  0  0  0  0  0  0
    7.9840  -13.1000   -1.0470 C   0  0  0  0  0  0  0  0  0  0  0  0
    7.9980  -14.5000   -1.0630 C   0  0  0  0  0  0  0  0  0  0  0  0
    9.1990  -15.1960   -1.2280 C   0  0  0  0  0  0  0  0  0  0  0  0
    9.1460  -16.9220   -1.1860 Cl  0  0  0  0  0  0  0  0  0  0  0  0
   10.4020  -14.4990   -1.3970 C   0  0  0  0  0  0  0  0  0  0  0  0
   11.5930  -15.1650   -1.5400 O   0  0  0  0  0  0  0  0  0  0  0  0
   11.8090  -15.5040   -2.9130 C   0  0  0  0  0  0  0  0  0  0  0  0
   10.3920  -13.1020   -1.3210 C   0  0  0  0  0  0  0  0  0  0  0  0
   11.6450  -12.3410   -1.4510 C   0  0  0  0  0  0  0  0  0  0  0  0
   11.9880  -11.8500   -2.5180 O   0  0  0  0  0  0  0  0  0  0  0  0
   12.5630  -12.1540    0.0340 S   0  0  0  0  0  0  0  0  0  0  0  0
   12.7910  -10.3630    0.0070 C   0  0  0  0  0  0  0  0  0  0  0  0
    9.1900  -12.4010   -1.1510 C   0  0  0  0  0  0  0  0  0  0  0  0
    7.3175   -6.9206    5.1304 H   0  0  0  0  0  0  0  0  0  0  0  0
    8.6708   -7.0863    3.9610 H   0  0  0  0  0  0  0  0  0  0  0  0
    7.6605   -5.6010    3.9610 H   0  0  0  0  0  0  0  0  0  0  0  0
    6.0490   -9.2101    2.0051 H   0  0  0  0  0  0  0  0  0  0  0  0
    6.4174   -8.5819    0.3449 H   0  0  0  0  0  0  0  0  0  0  0  0
    8.4585   -9.6433    0.2358 H   0  0  0  0  0  0  0  0  0  0  0  0
    8.6520   -9.6655    2.0391 H   0  0  0  0  0  0  0  0  0  0  0  0
    8.2921  -11.9348    1.1868 H   0  0  0  0  0  0  0  0  0  0  0  0
    6.8882  -11.3767    2.1951 H   0  0  0  0  0  0  0  0  0  0  0  0
    5.5167  -11.0285    0.1422 H   0  0  0  0  0  0  0  0  0  0  0  0
    4.1561  -11.4658   -0.7222 H   0  0  0  0  0  0  0  0  0  0  0  0
    1.6163  -14.1250   -3.3927 H   0  0  0  0  0  0  0  0  0  0  0  0
    0.7126  -13.8428   -4.9193 H   0  0  0  0  0  0  0  0  0  0  0  0
    2.1700  -14.8929   -4.9193 H   0  0  0  0  0  0  0  0  0  0  0  0
    7.4390  -14.4862   -6.5160 H   0  0  0  0  0  0  0  0  0  0  0  0
    6.4774  -14.9145   -7.9716 H   0  0  0  0  0  0  0  0  0  0  0  0
    7.4963  -13.4351   -7.9716 H   0  0  0  0  0  0  0  0  0  0  0  0
    6.8124  -13.6380   -3.3511 H   0  0  0  0  0  0  0  0  0  0  0  0
    7.0566  -15.0565   -0.9448 H   0  0  0  0  0  0  0  0  0  0  0  0
   12.3992  -16.4303   -2.9735 H   0  0  0  0  0  0  0  0  0  0  0  0
   10.8395  -15.6538   -3.4106 H   0  0  0  0  0  0  0  0  0  0  0  0
   12.3544  -14.6886   -3.4106 H   0  0  0  0  0  0  0  0  0  0  0  0
   12.8393   -9.9839    1.0385 H   0  0  0  0  0  0  0  0  0  0  0  0
   13.7273  -10.1204   -0.5170 H   0  0  0  0  0  0  0  0  0  0  0  0
   11.9454   -9.8936   -0.5170 H   0  0  0  0  0  0  0  0  0  0  0  0
    9.1959  -11.3022   -1.0995 H   0  0  0  0  0  0  0  0  0  0  0  0
  1  2  1  0
  2  3  1  0
  3  4  2  0
  3  5  1  0
  5  6  1  0
  6  7  1  0
  7  8  1  0
  8  9  2  3
  9 10  1  0
 10 11  2  0
 11 12  1  0
 12 13  1  0
 12 14  2  0
 14 15  1  0
 15 16  1  0
 14 17  1  0
 17 18  1  0
 18 19  2  0
 18 20  1  0
 20 21  1  0
 17 22  2  0
  9 23  1  0
 23 24  2  0
 24 25  1  0
 25 26  1  0
 25 27  2  0
 27 28  1  0
 28 29  1  0
 27 30  1  0
 30 31  1  0
 31 32  2  0
 31 33  1  0
 33 34  1  0
 30 35  2  0
 22 10  1  0
 35 23  1  0
  1 36  1  0
  1 37  1  0
  1 38  1  0
  5 39  1  0
  5 40  1  0
  6 41  1  0
  6 42  1  0
  7 43  1  0
  7 44  1  0
  8 45  1  0
 11 46  1  0
 16 47  1  0
 16 48  1  0
 16 49  1  0
 21 50  1  0
 21 51  1  0
 21 52  1  0
 22 53  1  0
 24 54  1  0
 29 55  1  0
 29 56  1  0
 29 57  1  0
 34 58  1  0
 34 59  1  0
 34 60  1  0
 35 61  1  0
M  END
>  <meeko>  (3) 
{"is_sidechain": [false], "free_energy": -6.205, "intermolecular_energy": -11.882, "internal_energy": -1.397}

$$$$
LIB_YLSOYKKCZWGOAL__M_PUB_ALL__e8__s20260927
     RDKit          3D

 61 62  0  0  0  0  0  0  0  0999 V2000
    5.3010  -12.8330   -7.1690 C   0  0  0  0  0  0  0  0  0  0  0  0
    5.0120  -12.4910   -5.8120 O   0  0  0  0  0  0  0  0  0  0  0  0
    4.1830  -13.3690   -5.1840 C   0  0  0  0  0  0  0  0  0  0  0  0
    4.4370  -14.5460   -4.9660 O   0  0  0  0  0  0  0  0  0  0  0  0
    2.8920  -12.6810   -4.7990 C   0  0  0  0  0  0  0  0  0  0  0  0
    3.0770  -11.1700   -4.6600 C   0  0  0  0  0  0  0  0  0  0  0  0
    3.2790  -10.7530   -3.2010 C   0  0  0  0  0  0  0  0  0  0  0  0
    2.2510  -11.3700   -2.2860 C   0  0  0  0  0  0  0  0  0  0  0  0
    2.4760  -12.2140   -1.2540 C   0  0  0  0  0  0  0  0  0  0  0  0
    1.3000  -12.7120   -0.4950 C   0  0  0  0  0  0  0  0  0  0  0  0
    0.7880  -11.9610    0.5720 C   0  0  0  0  0  0  0  0  0  0  0  0
   -0.3140  -12.4180    1.3010 C   0  0  0  0  0  0  0  0  0  0  0  0
   -0.8940  -11.4380    2.5990 Cl  0  0  0  0  0  0  0  0  0  0  0  0
   -0.9250  -13.6350    0.9760 C   0  0  0  0  0  0  0  0  0  0  0  0
   -2.0120  -14.0740    1.6850 O   0  0  0  0  0  0  0  0  0  0  0  0
   -3.2170  -13.5120    1.1610 C   0  0  0  0  0  0  0  0  0  0  0  0
   -0.3760  -14.4170   -0.0470 C   0  0  0  0  0  0  0  0  0  0  0  0
   -0.9310  -15.7300   -0.4150 C   0  0  0  0  0  0  0  0  0  0  0  0
   -1.8760  -15.8030   -1.1890 O   0  0  0  0  0  0  0  0  0  0  0  0
   -0.0990  -17.1350    0.2270 S   0  0  0  0  0  0  0  0  0  0  0  0
   -1.1960  -17.5200    1.6070 C   0  0  0  0  0  0  0  0  0  0  0  0
    0.7150  -13.9490   -0.7940 C   0  0  0  0  0  0  0  0  0  0  0  0
    3.8580  -12.6450   -0.9440 C   0  0  0  0  0  0  0  0  0  0  0  0
    4.6500  -11.8650   -0.0920 C   0  0  0  0  0  0  0  0  0  0  0  0
    5.9400  -12.2780    0.2530 C   0  0  0  0  0  0  0  0  0  0  0  0
    6.8770  -11.2390    1.2670 Cl  0  0  0  0  0  0  0  0  0  0  0  0
    6.4500  -13.4870   -0.2350 C   0  0  0  0  0  0  0  0  0  0  0  0
    7.7200  -13.8980    0.0760 O   0  0  0  0  0  0  0  0  0  0  0  0
    8.6760  -13.2200   -0.7460 C   0  0  0  0  0  0  0  0  0  0  0  0
    5.6790  -14.2340   -1.1330 C   0  0  0  0  0  0  0  0  0  0  0  0
    6.2020  -15.4870   -1.7000 C   0  0  0  0  0  0  0  0  0  0  0  0
    6.8230  -15.5030   -2.7530 O   0  0  0  0  0  0  0  0  0  0  0  0
    5.9110  -16.9230   -0.7310 S   0  0  0  0  0  0  0  0  0  0  0  0
    4.5410  -17.6300   -1.6710 C   0  0  0  0  0  0  0  0  0  0  0  0
    4.3870  -13.8210   -1.4860 C   0  0  0  0  0  0  0  0  0  0  0  0
    6.0108  -13.6730   -7.1922 H   0  0  0  0  0  0  0  0  0  0  0  0
    4.3713  -13.1243   -7.6797 H   0  0  0  0  0  0  0  0  0  0  0  0
    5.7433  -11.9649   -7.6797 H   0  0  0  0  0  0  0  0  0  0  0  0
    2.1377  -12.8780   -5.5751 H   0  0  0  0  0  0  0  0  0  0  0  0
    2.5685  -13.0781   -3.8255 H   0  0  0  0  0  0  0  0  0  0  0  0
    3.9584  -10.8642   -5.2428 H   0  0  0  0  0  0  0  0  0  0  0  0
    2.1661  -10.6787   -5.0327 H   0  0  0  0  0  0  0  0  0  0  0  0
    4.2801  -11.0728   -2.8762 H   0  0  0  0  0  0  0  0  0  0  0  0
    3.1704   -9.6599   -3.1435 H   0  0  0  0  0  0  0  0  0  0  0  0
    1.2015  -11.1037   -2.4798 H   0  0  0  0  0  0  0  0  0  0  0  0
    1.2578  -11.0027    0.8384 H   0  0  0  0  0  0  0  0  0  0  0  0
   -3.8708  -13.2071    1.9914 H   0  0  0  0  0  0  0  0  0  0  0  0
   -2.9742  -12.6342    0.5441 H   0  0  0  0  0  0  0  0  0  0  0  0
   -3.7335  -14.2621    0.5441 H   0  0  0  0  0  0  0  0  0  0  0  0
   -0.6705  -17.3356    2.5556 H   0  0  0  0  0  0  0  0  0  0  0  0
   -2.0905  -16.8821    1.5533 H   0  0  0  0  0  0  0  0  0  0  0  0
   -1.4957  -18.5770    1.5533 H   0  0  0  0  0  0  0  0  0  0  0  0
    1.1135  -14.5570   -1.6195 H   0  0  0  0  0  0  0  0  0  0  0  0
    4.2539  -10.9203    0.3087 H   0  0  0  0  0  0  0  0  0  0  0  0
    9.4066  -12.7018   -0.1075 H   0  0  0  0  0  0  0  0  0  0  0  0
    9.1976  -13.9512   -1.3811 H   0  0  0  0  0  0  0  0  0  0  0  0
    8.1584  -12.4860   -1.3811 H   0  0  0  0  0  0  0  0  0  0  0  0
    3.7830  -18.0212   -0.9764 H   0  0  0  0  0  0  0  0  0  0  0  0
    4.0908  -16.8516   -2.3046 H   0  0  0  0  0  0  0  0  0  0  0  0
    4.9146  -18.4479   -2.3046 H   0  0  0  0  0  0  0  0  0  0  0  0
    3.7897  -14.4209   -2.1884 H   0  0  0  0  0  0  0  0  0  0  0  0
  1  2  1  0
  2  3  1  0
  3  4  2  0
  3  5  1  0
  5  6  1  0
  6  7  1  0
  7  8  1  0
  8  9  2  3
  9 10  1  0
 10 11  2  0
 11 12  1  0
 12 13  1  0
 12 14  2  0
 14 15  1  0
 15 16  1  0
 14 17  1  0
 17 18  1  0
 18 19  2  0
 18 20  1  0
 20 21  1  0
 17 22  2  0
  9 23  1  0
 23 24  2  0
 24 25  1  0
 25 26  1  0
 25 27  2  0
 27 28  1  0
 28 29  1  0
 27 30  1  0
 30 31  1  0
 31 32  2  0
 31 33  1  0
 33 34  1  0
 30 35  2  0
 22 10  1  0
 35 23  1  0
  1 36  1  0
  1 37  1  0
  1 38  1  0
  5 39  1  0
  5 40  1  0
  6 41  1  0
  6 42  1  0
  7 43  1  0
  7 44  1  0
  8 45  1  0
 11 46  1  0
 16 47  1  0
 16 48  1  0
 16 49  1  0
 21 50  1  0
 21 51  1  0
 21 52  1  0
 22 53  1  0
 24 54  1  0
 29 55  1  0
 29 56  1  0
 29 57  1  0
 34 58  1  0
 34 59  1  0
 34 60  1  0
 35 61  1  0
M  END
>  <meeko>  (4) 
{"is_sidechain": [false], "free_energy": -6.097, "intermolecular_energy": -10.612, "internal_energy": -2.476}

$$$$
LIB_YLSOYKKCZWGOAL__M_PUB_ALL__e8__s20260927
     RDKit          3D

 61 62  0  0  0  0  0  0  0  0999 V2000
    6.5550  -12.4620   -4.2240 C   0  0  0  0  0  0  0  0  0  0  0  0
    5.4660  -12.3040   -5.1360 O   0  0  0  0  0  0  0  0  0  0  0  0
    4.5550  -13.3140   -5.0890 C   0  0  0  0  0  0  0  0  0  0  0  0
    4.8070  -14.5000   -5.2510 O   0  0  0  0  0  0  0  0  0  0  0  0
    3.1760  -12.7570   -4.8130 C   0  0  0  0  0  0  0  0  0  0  0  0
    3.1990  -11.2340   -4.6750 C   0  0  0  0  0  0  0  0  0  0  0  0
    3.2900  -10.7970   -3.2100 C   0  0  0  0  0  0  0  0  0  0  0  0
    2.2190  -11.4340   -2.3600 C   0  0  0  0  0  0  0  0  0  0  0  0
    2.3940  -12.2990   -1.3350 C   0  0  0  0  0  0  0  0  0  0  0  0
    1.1830  -12.8140   -0.6460 C   0  0  0  0  0  0  0  0  0  0  0  0
    0.6170  -14.0320   -1.0450 C   0  0  0  0  0  0  0  0  0  0  0  0
   -0.5270  -14.5280   -0.4110 C   0  0  0  0  0  0  0  0  0  0  0  0
   -1.1670  -16.0380   -0.9520 Cl  0  0  0  0  0  0  0  0  0  0  0  0
   -1.1250  -13.8140    0.6340 C   0  0  0  0  0  0  0  0  0  0  0  0
   -2.2390  -14.3080    1.2600 O   0  0  0  0  0  0  0  0  0  0  0  0
   -3.4190  -13.9890    0.5190 C   0  0  0  0  0  0  0  0  0  0  0  0
   -0.6000  -12.5670    0.9910 C   0  0  0  0  0  0  0  0  0  0  0  0
   -1.2010  -11.7340    2.0450 C   0  0  0  0  0  0  0  0  0  0  0  0
   -0.9200  -11.9310    3.2190 O   0  0  0  0  0  0  0  0  0  0  0  0
   -2.2270  -10.4160    1.5080 S   0  0  0  0  0  0  0  0  0  0  0  0
   -1.6680   -9.1290    2.6420 C   0  0  0  0  0  0  0  0  0  0  0  0
    0.5610  -12.0790    0.3720 C   0  0  0  0  0  0  0  0  0  0  0  0
    3.7600  -12.7370   -0.9680 C   0  0  0  0  0  0  0  0  0  0  0  0
    4.5230  -11.9540   -0.0930 C   0  0  0  0  0  0  0  0  0  0  0  0
    5.7960  -12.3720    0.3070 C   0  0  0  0  0  0  0  0  0  0  0  0
    6.6990  -11.3300    1.3480 Cl  0  0  0  0  0  0  0  0  0  0  0  0
    6.3160  -13.5890   -0.1500 C   0  0  0  0  0  0  0  0  0  0  0  0
    7.5700  -14.0050    0.2150 O   0  0  0  0  0  0  0  0  0  0  0  0
    8.5600  -13.3780   -0.6070 C   0  0  0  0  0  0  0  0  0  0  0  0
    5.5760  -14.3390   -1.0710 C   0  0  0  0  0  0  0  0  0  0  0  0
    6.1120  -15.6010   -1.6050 C   0  0  0  0  0  0  0  0  0  0  0  0
    6.7400  -15.6370   -2.6540 O   0  0  0  0  0  0  0  0  0  0  0  0
    5.8260  -17.0160   -0.6040 S   0  0  0  0  0  0  0  0  0  0  0  0
    4.3960  -17.6970   -1.4730 C   0  0  0  0  0  0  0  0  0  0  0  0
    4.3010  -13.9210   -1.4780 C   0  0  0  0  0  0  0  0  0  0  0  0
    6.1795  -12.4075   -3.1915 H   0  0  0  0  0  0  0  0  0  0  0  0
    7.0329  -13.4389   -4.3893 H   0  0  0  0  0  0  0  0  0  0  0  0
    7.2908  -11.6612   -4.3893 H   0  0  0  0  0  0  0  0  0  0  0  0
    2.5084  -13.0298   -5.6436 H   0  0  0  0  0  0  0  0  0  0  0  0
    2.8178  -13.1822   -3.8639 H   0  0  0  0  0  0  0  0  0  0  0  0
    4.0704  -10.8403   -5.2188 H   0  0  0  0  0  0  0  0  0  0  0  0
    2.2610  -10.8387   -5.0921 H   0  0  0  0  0  0  0  0  0  0  0  0
    4.2750  -11.0855   -2.8144 H   0  0  0  0  0  0  0  0  0  0  0  0
    3.1483   -9.7068   -3.1724 H   0  0  0  0  0  0  0  0  0  0  0  0
    1.1799  -11.1651   -2.6005 H   0  0  0  0  0  0  0  0  0  0  0  0
    1.0767  -14.6037   -1.8647 H   0  0  0  0  0  0  0  0  0  0  0  0
   -4.2407  -13.7669    1.2158 H   0  0  0  0  0  0  0  0  0  0  0  0
   -3.2278  -13.1103   -0.1145 H   0  0  0  0  0  0  0  0  0  0  0  0
   -3.6966  -14.8443   -0.1145 H   0  0  0  0  0  0  0  0  0  0  0  0
   -1.8141   -9.4653    3.6791 H   0  0  0  0  0  0  0  0  0  0  0  0
   -0.6007   -8.9263    2.4692 H   0  0  0  0  0  0  0  0  0  0  0  0
   -2.2483   -8.2107    2.4692 H   0  0  0  0  0  0  0  0  0  0  0  0
    0.9850  -11.1143    0.6876 H   0  0  0  0  0  0  0  0  0  0  0  0
    4.1178  -11.0028    0.2826 H   0  0  0  0  0  0  0  0  0  0  0  0
    9.3167  -12.8987    0.0315 H   0  0  0  0  0  0  0  0  0  0  0  0
    9.0426  -14.1355   -1.2421 H   0  0  0  0  0  0  0  0  0  0  0  0
    8.0815  -12.6179   -1.2421 H   0  0  0  0  0  0  0  0  0  0  0  0
    3.6554  -18.0497   -0.7401 H   0  0  0  0  0  0  0  0  0  0  0  0
    3.9448  -16.9171   -2.1040 H   0  0  0  0  0  0  0  0  0  0  0  0
    4.7171  -18.5389   -2.1040 H   0  0  0  0  0  0  0  0  0  0  0  0
    3.7273  -14.5237   -2.1974 H   0  0  0  0  0  0  0  0  0  0  0  0
  1  2  1  0
  2  3  1  0
  3  4  2  0
  3  5  1  0
  5  6  1  0
  6  7  1  0
  7  8  1  0
  8  9  2  3
  9 10  1  0
 10 11  2  0
 11 12  1  0
 12 13  1  0
 12 14  2  0
 14 15  1  0
 15 16  1  0
 14 17  1  0
 17 18  1  0
 18 19  2  0
 18 20  1  0
 20 21  1  0
 17 22  2  0
  9 23  1  0
 23 24  2  0
 24 25  1  0
 25 26  1  0
 25 27  2  0
 27 28  1  0
 28 29  1  0
 27 30  1  0
 30 31  1  0
 31 32  2  0
 31 33  1  0
 33 34  1  0
 30 35  2  0
 22 10  1  0
 35 23  1  0
  1 36  1  0
  1 37  1  0
  1 38  1  0
  5 39  1  0
  5 40  1  0
  6 41  1  0
  6 42  1  0
  7 43  1  0
  7 44  1  0
  8 45  1  0
 11 46  1  0
 16 47  1  0
 16 48  1  0
 16 49  1  0
 21 50  1  0
 21 51  1  0
 21 52  1  0
 22 53  1  0
 24 54  1  0
 29 55  1  0
 29 56  1  0
 29 57  1  0
 34 58  1  0
 34 59  1  0
 34 60  1  0
 35 61  1  0
M  END
>  <meeko>  (5) 
{"is_sidechain": [false], "free_energy": -5.995, "intermolecular_energy": -10.57, "internal_energy": -2.338}

$$$$
LIB_YLSOYKKCZWGOAL__M_PUB_ALL__e8__s20260927
     RDKit          3D

 61 62  0  0  0  0  0  0  0  0999 V2000
    1.5280  -14.7470   -0.6770 C   0  0  0  0  0  0  0  0  0  0  0  0
    1.4880  -13.4570   -1.2900 O   0  0  0  0  0  0  0  0  0  0  0  0
    1.7590  -13.4700   -2.6240 C   0  0  0  0  0  0  0  0  0  0  0  0
    1.5630  -14.4160   -3.3750 O   0  0  0  0  0  0  0  0  0  0  0  0
    2.3490  -12.1430   -3.0470 C   0  0  0  0  0  0  0  0  0  0  0  0
    2.4020  -12.0060   -4.5680 C   0  0  0  0  0  0  0  0  0  0  0  0
    3.5870  -11.1490   -5.0220 C   0  0  0  0  0  0  0  0  0  0  0  0
    4.4290  -11.8490   -6.0590 C   0  0  0  0  0  0  0  0  0  0  0  0
    5.3470  -12.8190   -5.8480 C   0  0  0  0  0  0  0  0  0  0  0  0
    6.0740  -13.3570   -7.0270 C   0  0  0  0  0  0  0  0  0  0  0  0
    6.1740  -12.5890   -8.1950 C   0  0  0  0  0  0  0  0  0  0  0  0
    6.8480  -13.0820   -9.3170 C   0  0  0  0  0  0  0  0  0  0  0  0
    6.9370  -12.0780  -10.7190 Cl  0  0  0  0  0  0  0  0  0  0  0  0
    7.4350  -14.3520   -9.2900 C   0  0  0  0  0  0  0  0  0  0  0  0
    8.1050  -14.8280  -10.3870 O   0  0  0  0  0  0  0  0  0  0  0  0
    9.4330  -14.2990  -10.4360 C   0  0  0  0  0  0  0  0  0  0  0  0
    7.2810  -15.1470   -8.1480 C   0  0  0  0  0  0  0  0  0  0  0  0
    7.8260  -16.5110   -8.0610 C   0  0  0  0  0  0  0  0  0  0  0  0
    7.1600  -17.4650   -8.4420 O   0  0  0  0  0  0  0  0  0  0  0  0
    9.4810  -16.6550   -7.4970 S   0  0  0  0  0  0  0  0  0  0  0  0
    9.1660  -17.1050   -5.7780 C   0  0  0  0  0  0  0  0  0  0  0  0
    6.6250  -14.6440   -7.0140 C   0  0  0  0  0  0  0  0  0  0  0  0
    5.6300  -13.2760   -4.4680 C   0  0  0  0  0  0  0  0  0  0  0  0
    5.0290  -14.4490   -3.9930 C   0  0  0  0  0  0  0  0  0  0  0  0
    5.3190  -14.9260   -2.7120 C   0  0  0  0  0  0  0  0  0  0  0  0
    4.5000  -16.3490   -2.1740 Cl  0  0  0  0  0  0  0  0  0  0  0  0
    6.2300  -14.2460   -1.8940 C   0  0  0  0  0  0  0  0  0  0  0  0
    6.5120  -14.6880   -0.6270 O   0  0  0  0  0  0  0  0  0  0  0  0
    7.5560  -15.6670   -0.6640 C   0  0  0  0  0  0  0  0  0  0  0  0
    6.7830  -13.0440   -2.3490 C   0  0  0  0  0  0  0  0  0  0  0  0
    7.7110  -12.2820   -1.4970 C   0  0  0  0  0  0  0  0  0  0  0  0
    8.9210  -12.4470   -1.5620 O   0  0  0  0  0  0  0  0  0  0  0  0
    6.9540  -11.1020   -0.4380 S   0  0  0  0  0  0  0  0  0  0  0  0
    7.4690  -11.7770    1.1560 C   0  0  0  0  0  0  0  0  0  0  0  0
    6.4910  -12.5590   -3.6310 C   0  0  0  0  0  0  0  0  0  0  0  0
    1.5245  -14.6333    0.4171 H   0  0  0  0  0  0  0  0  0  0  0  0
    0.6474  -15.3283   -0.9881 H   0  0  0  0  0  0  0  0  0  0  0  0
    2.4429  -15.2726   -0.9881 H   0  0  0  0  0  0  0  0  0  0  0  0
    1.7300  -11.3311   -2.6375 H   0  0  0  0  0  0  0  0  0  0  0  0
    3.3780  -12.0874   -2.6621 H   0  0  0  0  0  0  0  0  0  0  0  0
    2.4964  -13.0078   -5.0124 H   0  0  0  0  0  0  0  0  0  0  0  0
    1.4766  -11.5117   -4.8987 H   0  0  0  0  0  0  0  0  0  0  0  0
    3.2031  -10.2115   -5.4507 H   0  0  0  0  0  0  0  0  0  0  0  0
    4.2215  -10.9562   -4.1444 H   0  0  0  0  0  0  0  0  0  0  0  0
    4.2798  -11.5357   -7.1028 H   0  0  0  0  0  0  0  0  0  0  0  0
    5.7179  -11.5886   -8.2297 H   0  0  0  0  0  0  0  0  0  0  0  0
    9.8064  -14.1502   -9.4121 H   0  0  0  0  0  0  0  0  0  0  0  0
   10.0893  -15.0043  -10.9668 H   0  0  0  0  0  0  0  0  0  0  0  0
    9.4246  -13.3356  -10.9668 H   0  0  0  0  0  0  0  0  0  0  0  0
    9.6685  -16.3871   -5.1131 H   0  0  0  0  0  0  0  0  0  0  0  0
    8.0830  -17.0860   -5.5866 H   0  0  0  0  0  0  0  0  0  0  0  0
    9.5545  -18.1161   -5.5866 H   0  0  0  0  0  0  0  0  0  0  0  0
    6.5432  -15.2646   -6.1095 H   0  0  0  0  0  0  0  0  0  0  0  0
    4.3234  -14.9987   -4.6333 H   0  0  0  0  0  0  0  0  0  0  0  0
    7.8429  -15.9361    0.3633 H   0  0  0  0  0  0  0  0  0  0  0  0
    7.1992  -16.5637   -1.1918 H   0  0  0  0  0  0  0  0  0  0  0  0
    8.4280  -15.2534   -1.1918 H   0  0  0  0  0  0  0  0  0  0  0  0
    7.0183  -11.1863    1.9672 H   0  0  0  0  0  0  0  0  0  0  0  0
    7.1371  -12.8227    1.2358 H   0  0  0  0  0  0  0  0  0  0  0  0
    8.5652  -11.7331    1.2358 H   0  0  0  0  0  0  0  0  0  0  0  0
    6.9383  -11.6160   -3.9784 H   0  0  0  0  0  0  0  0  0  0  0  0
  1  2  1  0
  2  3  1  0
  3  4  2  0
  3  5  1  0
  5  6  1  0
  6  7  1  0
  7  8  1  0
  8  9  2  3
  9 10  1  0
 10 11  2  0
 11 12  1  0
 12 13  1  0
 12 14  2  0
 14 15  1  0
 15 16  1  0
 14 17  1  0
 17 18  1  0
 18 19  2  0
 18 20  1  0
 20 21  1  0
 17 22  2  0
  9 23  1  0
 23 24  2  0
 24 25  1  0
 25 26  1  0
 25 27  2  0
 27 28  1  0
 28 29  1  0
 27 30  1  0
 30 31  1  0
 31 32  2  0
 31 33  1  0
 33 34  1  0
 30 35  2  0
 22 10  1  0
 35 23  1  0
  1 36  1  0
  1 37  1  0
  1 38  1  0
  5 39  1  0
  5 40  1  0
  6 41  1  0
  6 42  1  0
  7 43  1  0
  7 44  1  0
  8 45  1  0
 11 46  1  0
 16 47  1  0
 16 48  1  0
 16 49  1  0
 21 50  1  0
 21 51  1  0
 21 52  1  0
 22 53  1  0
 24 54  1  0
 29 55  1  0
 29 56  1  0
 29 57  1  0
 34 58  1  0
 34 59  1  0
 34 60  1  0
 35 61  1  0
M  END
>  <meeko>  (6) 
{"is_sidechain": [false], "free_energy": -5.921, "intermolecular_energy": -10.459, "internal_energy": -2.321}

$$$$
LIB_YLSOYKKCZWGOAL__M_PUB_ALL__e8__s20260927
     RDKit          3D

 61 62  0  0  0  0  0  0  0  0999 V2000
    5.3130  -11.8300   -3.8230 C   0  0  0  0  0  0  0  0  0  0  0  0
    4.1300  -11.6140   -4.5940 O   0  0  0  0  0  0  0  0  0  0  0  0
    3.1530  -10.9360   -3.9300 C   0  0  0  0  0  0  0  0  0  0  0  0
    2.9950   -9.7230   -3.9550 O   0  0  0  0  0  0  0  0  0  0  0  0
    2.2920  -11.9010   -3.1460 C   0  0  0  0  0  0  0  0  0  0  0  0
    1.9430  -13.1420   -3.9660 C   0  0  0  0  0  0  0  0  0  0  0  0
    1.9910  -14.4170   -3.1190 C   0  0  0  0  0  0  0  0  0  0  0  0
    1.0230  -14.3670   -1.9640 C   0  0  0  0  0  0  0  0  0  0  0  0
    1.3210  -14.4050   -0.6450 C   0  0  0  0  0  0  0  0  0  0  0  0
    0.1950  -14.3580    0.3230 C   0  0  0  0  0  0  0  0  0  0  0  0
   -0.6110  -15.4880    0.5130 C   0  0  0  0  0  0  0  0  0  0  0  0
   -1.6790  -15.4600    1.4150 C   0  0  0  0  0  0  0  0  0  0  0  0
   -2.6260  -16.8920    1.6020 Cl  0  0  0  0  0  0  0  0  0  0  0  0
   -1.9610  -14.2980    2.1440 C   0  0  0  0  0  0  0  0  0  0  0  0
   -3.0010  -14.2770    3.0360 O   0  0  0  0  0  0  0  0  0  0  0  0
   -4.2060  -13.8520    2.3950 C   0  0  0  0  0  0  0  0  0  0  0  0
   -1.1990  -13.1480    1.9080 C   0  0  0  0  0  0  0  0  0  0  0  0
   -1.4640  -11.8760    2.5980 C   0  0  0  0  0  0  0  0  0  0  0  0
   -1.0550  -11.6970    3.7380 O   0  0  0  0  0  0  0  0  0  0  0  0
   -2.2850  -10.6380    1.6640 S   0  0  0  0  0  0  0  0  0  0  0  0
   -1.2530   -9.2200    2.0860 C   0  0  0  0  0  0  0  0  0  0  0  0
   -0.1120  -13.1830    1.0210 C   0  0  0  0  0  0  0  0  0  0  0  0
    2.7300  -14.5370   -0.2130 C   0  0  0  0  0  0  0  0  0  0  0  0
    3.3600  -15.7860   -0.2860 C   0  0  0  0  0  0  0  0  0  0  0  0
    4.7050  -15.9250    0.0700 C   0  0  0  0  0  0  0  0  0  0  0  0
    5.4000  -17.5050    0.0040 Cl  0  0  0  0  0  0  0  0  0  0  0  0
    5.4440  -14.8110    0.4860 C   0  0  0  0  0  0  0  0  0  0  0  0
    6.7580  -14.9310    0.8590 O   0  0  0  0  0  0  0  0  0  0  0  0
    7.6000  -14.9700   -0.2980 C   0  0  0  0  0  0  0  0  0  0  0  0
    4.7960  -13.5770    0.6150 C   0  0  0  0  0  0  0  0  0  0  0  0
    5.5330  -12.3950    1.0920 C   0  0  0  0  0  0  0  0  0  0  0  0
    5.6010  -12.1210    2.2820 O   0  0  0  0  0  0  0  0  0  0  0  0
    6.3340  -11.4590   -0.1600 S   0  0  0  0  0  0  0  0  0  0  0  0
    7.1350  -10.2180    0.8790 C   0  0  0  0  0  0  0  0  0  0  0  0
    3.4470  -13.4350    0.2640 C   0  0  0  0  0  0  0  0  0  0  0  0
    5.0660  -11.7849   -2.7520 H   0  0  0  0  0  0  0  0  0  0  0  0
    5.7307  -12.8193   -4.0616 H   0  0  0  0  0  0  0  0  0  0  0  0
    6.0533  -11.0522   -4.0616 H   0  0  0  0  0  0  0  0  0  0  0  0
    2.8373  -12.2123   -2.2428 H   0  0  0  0  0  0  0  0  0  0  0  0
    1.3546  -11.3887   -2.8838 H   0  0  0  0  0  0  0  0  0  0  0  0
    0.9286  -13.0245   -4.3750 H   0  0  0  0  0  0  0  0  0  0  0  0
    2.6860  -13.2390   -4.7713 H   0  0  0  0  0  0  0  0  0  0  0  0
    1.7379  -15.2765   -3.7571 H   0  0  0  0  0  0  0  0  0  0  0  0
    3.0063  -14.5118   -2.7064 H   0  0  0  0  0  0  0  0  0  0  0  0
   -0.0435  -14.2912   -2.2225 H   0  0  0  0  0  0  0  0  0  0  0  0
   -0.4014  -16.4073   -0.0536 H   0  0  0  0  0  0  0  0  0  0  0  0
   -4.9536  -13.5883    3.1576 H   0  0  0  0  0  0  0  0  0  0  0  0
   -3.9971  -12.9733    1.7671 H   0  0  0  0  0  0  0  0  0  0  0  0
   -4.5945  -14.6673    1.7671 H   0  0  0  0  0  0  0  0  0  0  0  0
   -1.1860   -9.1279    3.1801 H   0  0  0  0  0  0  0  0  0  0  0  0
   -0.2457   -9.3622    1.6676 H   0  0  0  0  0  0  0  0  0  0  0  0
   -1.6980   -8.3052    1.6676 H   0  0  0  0  0  0  0  0  0  0  0  0
    0.5024  -12.2826    0.8731 H   0  0  0  0  0  0  0  0  0  0  0  0
    2.7920  -16.6645   -0.6261 H   0  0  0  0  0  0  0  0  0  0  0  0
    8.6530  -15.0188    0.0163 H   0  0  0  0  0  0  0  0  0  0  0  0
    7.3555  -15.8578   -0.8997 H   0  0  0  0  0  0  0  0  0  0  0  0
    7.4386  -14.0634   -0.8997 H   0  0  0  0  0  0  0  0  0  0  0  0
    6.9741  -10.4674    1.9382 H   0  0  0  0  0  0  0  0  0  0  0  0
    8.2140  -10.2024    0.6658 H   0  0  0  0  0  0  0  0  0  0  0  0
    6.7048   -9.2283    0.6658 H   0  0  0  0  0  0  0  0  0  0  0  0
    2.9523  -12.4576    0.3635 H   0  0  0  0  0  0  0  0  0  0  0  0
  1  2  1  0
  2  3  1  0
  3  4  2  0
  3  5  1  0
  5  6  1  0
  6  7  1  0
  7  8  1  0
  8  9  2  3
  9 10  1  0
 10 11  2  0
 11 12  1  0
 12 13  1  0
 12 14  2  0
 14 15  1  0
 15 16  1  0
 14 17  1  0
 17 18  1  0
 18 19  2  0
 18 20  1  0
 20 21  1  0
 17 22  2  0
  9 23  1  0
 23 24  2  0
 24 25  1  0
 25 26  1  0
 25 27  2  0
 27 28  1  0
 28 29  1  0
 27 30  1  0
 30 31  1  0
 31 32  2  0
 31 33  1  0
 33 34  1  0
 30 35  2  0
 22 10  1  0
 35 23  1  0
  1 36  1  0
  1 37  1  0
  1 38  1  0
  5 39  1  0
  5 40  1  0
  6 41  1  0
  6 42  1  0
  7 43  1  0
  7 44  1  0
  8 45  1  0
 11 46  1  0
 16 47  1  0
 16 48  1  0
 16 49  1  0
 21 50  1  0
 21 51  1  0
 21 52  1  0
 22 53  1  0
 24 54  1  0
 29 55  1  0
 29 56  1  0
 29 57  1  0
 34 58  1  0
 34 59  1  0
 34 60  1  0
 35 61  1  0
M  END
>  <meeko>  (7) 
{"is_sidechain": [false], "free_energy": -5.911, "intermolecular_energy": -10.724, "internal_energy": -2.037}

$$$$
LIB_YLSOYKKCZWGOAL__M_PUB_ALL__e8__s20260927
     RDKit          3D

 61 62  0  0  0  0  0  0  0  0999 V2000
    0.4790  -14.8400   -2.3470 C   0  0  0  0  0  0  0  0  0  0  0  0
    1.6600  -14.7970   -3.1490 O   0  0  0  0  0  0  0  0  0  0  0  0
    1.5050  -14.1360   -4.3290 C   0  0  0  0  0  0  0  0  0  0  0  0
    0.5070  -14.1780   -5.0340 O   0  0  0  0  0  0  0  0  0  0  0  0
    2.7520  -13.3430   -4.6480 C   0  0  0  0  0  0  0  0  0  0  0  0
    2.5240  -11.8400   -4.4870 C   0  0  0  0  0  0  0  0  0  0  0  0
    3.1670  -11.3000   -3.2060 C   0  0  0  0  0  0  0  0  0  0  0  0
    2.2360  -11.3890   -2.0230 C   0  0  0  0  0  0  0  0  0  0  0  0
    2.4900  -11.9560   -0.8220 C   0  0  0  0  0  0  0  0  0  0  0  0
    1.4100  -11.9400    0.1970 C   0  0  0  0  0  0  0  0  0  0  0  0
    0.7580  -10.7380    0.5040 C   0  0  0  0  0  0  0  0  0  0  0  0
   -0.2570  -10.7030    1.4660 C   0  0  0  0  0  0  0  0  0  0  0  0
   -1.0200   -9.1870    1.7890 Cl  0  0  0  0  0  0  0  0  0  0  0  0
   -0.6390  -11.8700    2.1360 C   0  0  0  0  0  0  0  0  0  0  0  0
   -1.6420  -11.8350    3.0700 O   0  0  0  0  0  0  0  0  0  0  0  0
   -2.9230  -11.9000    2.4370 C   0  0  0  0  0  0  0  0  0  0  0  0
    0.0540  -13.0590    1.8790 C   0  0  0  0  0  0  0  0  0  0  0  0
   -0.2560  -14.3160    2.5790 C   0  0  0  0  0  0  0  0  0  0  0  0
   -1.2070  -14.9990    2.2240 O   0  0  0  0  0  0  0  0  0  0  0  0
    0.8620  -14.8010    3.8400 S   0  0  0  0  0  0  0  0  0  0  0  0
    0.0200  -14.0880    5.2680 C   0  0  0  0  0  0  0  0  0  0  0  0
    1.0560  -13.1000    0.8980 C   0  0  0  0  0  0  0  0  0  0  0  0
    3.7980  -12.6060   -0.5790 C   0  0  0  0  0  0  0  0  0  0  0  0
    4.7860  -11.9210    0.1390 C   0  0  0  0  0  0  0  0  0  0  0  0
    6.0100  -12.5340    0.4240 C   0  0  0  0  0  0  0  0  0  0  0  0
    7.2000  -11.6090    1.2690 Cl  0  0  0  0  0  0  0  0  0  0  0  0
    6.2550  -13.8480    0.0090 C   0  0  0  0  0  0  0  0  0  0  0  0
    7.4570  -14.4590    0.2610 O   0  0  0  0  0  0  0  0  0  0  0  0
    8.4640  -13.9560   -0.6240 C   0  0  0  0  0  0  0  0  0  0  0  0
    5.2890  -14.5080   -0.7590 C   0  0  0  0  0  0  0  0  0  0  0  0
    5.5330  -15.8750   -1.2480 C   0  0  0  0  0  0  0  0  0  0  0  0
    5.2190  -16.8560   -0.5890 O   0  0  0  0  0  0  0  0  0  0  0  0
    6.2520  -15.9790   -2.8470 S   0  0  0  0  0  0  0  0  0  0  0  0
    6.0630  -14.2580   -3.3590 C   0  0  0  0  0  0  0  0  0  0  0  0
    4.0630  -13.8960   -1.0500 C   0  0  0  0  0  0  0  0  0  0  0  0
    0.7578  -14.8298   -1.2830 H   0  0  0  0  0  0  0  0  0  0  0  0
   -0.1479  -13.9641   -2.5702 H   0  0  0  0  0  0  0  0  0  0  0  0
   -0.0825  -15.7592   -2.5702 H   0  0  0  0  0  0  0  0  0  0  0  0
    3.5573  -13.6562   -3.9672 H   0  0  0  0  0  0  0  0  0  0  0  0
    3.0231  -13.5380   -5.6961 H   0  0  0  0  0  0  0  0  0  0  0  0
    2.9613  -11.3191   -5.3516 H   0  0  0  0  0  0  0  0  0  0  0  0
    1.4400  -11.6638   -4.4254 H   0  0  0  0  0  0  0  0  0  0  0  0
    4.0726  -11.8857   -2.9895 H   0  0  0  0  0  0  0  0  0  0  0  0
    3.4074  -10.2390   -3.3689 H   0  0  0  0  0  0  0  0  0  0  0  0
    1.2388  -10.9428   -2.1515 H   0  0  0  0  0  0  0  0  0  0  0  0
    1.0472   -9.8131   -0.0165 H   0  0  0  0  0  0  0  0  0  0  0  0
   -3.7098  -11.9399    3.2047 H   0  0  0  0  0  0  0  0  0  0  0  0
   -3.0677  -11.0080    1.8097 H   0  0  0  0  0  0  0  0  0  0  0  0
   -2.9767  -12.8020    1.8097 H   0  0  0  0  0  0  0  0  0  0  0  0
    0.4752  -14.4735    6.1922 H   0  0  0  0  0  0  0  0  0  0  0  0
    0.1162  -12.9925    5.2411 H   0  0  0  0  0  0  0  0  0  0  0  0
   -1.0446  -14.3634    5.2411 H   0  0  0  0  0  0  0  0  0  0  0  0
    1.5669  -14.0490    0.6779 H   0  0  0  0  0  0  0  0  0  0  0  0
    4.5978  -10.8928    0.4814 H   0  0  0  0  0  0  0  0  0  0  0  0
    9.2953  -13.5408   -0.0353 H   0  0  0  0  0  0  0  0  0  0  0  0
    8.8365  -14.7739   -1.2583 H   0  0  0  0  0  0  0  0  0  0  0  0
    8.0338  -13.1669   -1.2583 H   0  0  0  0  0  0  0  0  0  0  0  0
    5.9925  -13.6161   -2.4685 H   0  0  0  0  0  0  0  0  0  0  0  0
    6.9334  -13.9566   -3.9602 H   0  0  0  0  0  0  0  0  0  0  0  0
    5.1479  -14.1527   -3.9602 H   0  0  0  0  0  0  0  0  0  0  0  0
    3.3096  -14.4294   -1.6482 H   0  0  0  0  0  0  0  0  0  0  0  0
  1  2  1  0
  2  3  1  0
  3  4  2  0
  3  5  1  0
  5  6  1  0
  6  7  1  0
  7  8  1  0
  8  9  2  3
  9 10  1  0
 10 11  2  0
 11 12  1  0
 12 13  1  0
 12 14  2  0
 14 15  1  0
 15 16  1  0
 14 17  1  0
 17 18  1  0
 18 19  2  0
 18 20  1  0
 20 21  1  0
 17 22  2  0
  9 23  1  0
 23 24  2  0
 24 25  1  0
 25 26  1  0
 25 27  2  0
 27 28  1  0
 28 29  1  0
 27 30  1  0
 30 31  1  0
 31 32  2  0
 31 33  1  0
 33 34  1  0
 30 35  2  0
 22 10  1  0
 35 23  1  0
  1 36  1  0
  1 37  1  0
  1 38  1  0
  5 39  1  0
  5 40  1  0
  6 41  1  0
  6 42  1  0
  7 43  1  0
  7 44  1  0
  8 45  1  0
 11 46  1  0
 16 47  1  0
 16 48  1  0
 16 49  1  0
 21 50  1  0
 21 51  1  0
 21 52  1  0
 22 53  1  0
 24 54  1  0
 29 55  1  0
 29 56  1  0
 29 57  1  0
 34 58  1  0
 34 59  1  0
 34 60  1  0
 35 61  1  0
M  END
>  <meeko>  (8) 
{"is_sidechain": [false], "free_energy": -5.873, "intermolecular_energy": -10.756, "internal_energy": -1.939}

$$$$
LIB_YLSOYKKCZWGOAL__M_PUB_ALL__e8__s20260927
     RDKit          3D

 61 62  0  0  0  0  0  0  0  0999 V2000
   -1.2550  -11.8990    3.3900 C   0  0  0  0  0  0  0  0  0  0  0  0
   -1.5430  -10.5460    3.7450 O   0  0  0  0  0  0  0  0  0  0  0  0
   -1.8210   -9.7420    2.6810 C   0  0  0  0  0  0  0  0  0  0  0  0
   -1.8690   -8.5200    2.7140 O   0  0  0  0  0  0  0  0  0  0  0  0
   -2.0690  -10.5810    1.4470 C   0  0  0  0  0  0  0  0  0  0  0  0
   -1.1030  -10.2250    0.3170 C   0  0  0  0  0  0  0  0  0  0  0  0
    0.3540  -10.2290    0.7910 C   0  0  0  0  0  0  0  0  0  0  0  0
    1.2930  -10.7490   -0.2680 C   0  0  0  0  0  0  0  0  0  0  0  0
    1.5430  -12.0420   -0.5770 C   0  0  0  0  0  0  0  0  0  0  0  0
    2.5260  -12.3210   -1.6550 C   0  0  0  0  0  0  0  0  0  0  0  0
    2.5510  -11.5160   -2.8020 C   0  0  0  0  0  0  0  0  0  0  0  0
    3.4650  -11.7690   -3.8310 C   0  0  0  0  0  0  0  0  0  0  0  0
    3.4420  -10.7320   -5.2120 Cl  0  0  0  0  0  0  0  0  0  0  0  0
    4.3710  -12.8300   -3.7300 C   0  0  0  0  0  0  0  0  0  0  0  0
    5.2730  -13.0680   -4.7340 O   0  0  0  0  0  0  0  0  0  0  0  0
    4.6590  -13.7940   -5.8020 C   0  0  0  0  0  0  0  0  0  0  0  0
    4.3050  -13.6750   -2.6150 C   0  0  0  0  0  0  0  0  0  0  0  0
    5.1890  -14.8400   -2.4600 C   0  0  0  0  0  0  0  0  0  0  0  0
    4.8620  -15.9270   -2.9190 O   0  0  0  0  0  0  0  0  0  0  0  0
    6.7400  -14.5460   -1.6940 S   0  0  0  0  0  0  0  0  0  0  0  0
    6.4130  -15.2810   -0.0780 C   0  0  0  0  0  0  0  0  0  0  0  0
    3.4040  -13.4080   -1.5730 C   0  0  0  0  0  0  0  0  0  0  0  0
    0.8790  -13.1220    0.1870 C   0  0  0  0  0  0  0  0  0  0  0  0
    1.5180  -13.6690    1.3060 C   0  0  0  0  0  0  0  0  0  0  0  0
    0.8880  -14.6550    2.0720 C   0  0  0  0  0  0  0  0  0  0  0  0
    1.7590  -15.3200    3.4080 Cl  0  0  0  0  0  0  0  0  0  0  0  0
   -0.3980  -15.0950    1.7380 C   0  0  0  0  0  0  0  0  0  0  0  0
   -1.0240  -16.0760    2.4640 O   0  0  0  0  0  0  0  0  0  0  0  0
   -0.4840  -17.3590    2.1320 C   0  0  0  0  0  0  0  0  0  0  0  0
   -1.0090  -14.5890    0.5840 C   0  0  0  0  0  0  0  0  0  0  0  0
   -2.3430  -15.0620    0.1800 C   0  0  0  0  0  0  0  0  0  0  0  0
   -2.5100  -16.1770   -0.2950 O   0  0  0  0  0  0  0  0  0  0  0  0
   -3.6570  -13.9350    0.4790 S   0  0  0  0  0  0  0  0  0  0  0  0
   -3.8460  -14.1800    2.2580 C   0  0  0  0  0  0  0  0  0  0  0  0
   -0.3790  -13.6040   -0.1880 C   0  0  0  0  0  0  0  0  0  0  0  0
   -1.1274  -12.4985    4.3034 H   0  0  0  0  0  0  0  0  0  0  0  0
   -2.0864  -12.3073    2.7966 H   0  0  0  0  0  0  0  0  0  0  0  0
   -0.3294  -11.9333    2.7966 H   0  0  0  0  0  0  0  0  0  0  0  0
   -1.9393  -11.6423    1.7056 H   0  0  0  0  0  0  0  0  0  0  0  0
   -3.0930  -10.3824    1.0977 H   0  0  0  0  0  0  0  0  0  0  0  0
   -1.2159  -10.9608   -0.4929 H   0  0  0  0  0  0  0  0  0  0  0  0
   -1.3456   -9.2109   -0.0332 H   0  0  0  0  0  0  0  0  0  0  0  0
    0.6457   -9.2004    1.0498 H   0  0  0  0  0  0  0  0  0  0  0  0
    0.4248  -10.8951    1.6635 H   0  0  0  0  0  0  0  0  0  0  0  0
    1.8351   -9.9927   -0.8546 H   0  0  0  0  0  0  0  0  0  0  0  0
    1.8454  -10.6772   -2.8943 H   0  0  0  0  0  0  0  0  0  0  0  0
    4.0014  -14.5716   -5.3862 H   0  0  0  0  0  0  0  0  0  0  0  0
    4.0659  -13.1045   -6.4207 H   0  0  0  0  0  0  0  0  0  0  0  0
    5.4374  -14.2644   -6.4207 H   0  0  0  0  0  0  0  0  0  0  0  0
    6.7240  -14.5820    0.7124 H   0  0  0  0  0  0  0  0  0  0  0  0
    5.3373  -15.4893    0.0192 H   0  0  0  0  0  0  0  0  0  0  0  0
    6.9785  -16.2195    0.0192 H   0  0  0  0  0  0  0  0  0  0  0  0
    3.3876  -14.0575   -0.6854 H   0  0  0  0  0  0  0  0  0  0  0  0
    2.5234  -13.3206    1.5849 H   0  0  0  0  0  0  0  0  0  0  0  0
   -0.2523  -17.9095    3.0557 H   0  0  0  0  0  0  0  0  0  0  0  0
   -1.2201  -17.9253    1.5425 H   0  0  0  0  0  0  0  0  0  0  0  0
    0.4355  -17.2284    1.5425 H   0  0  0  0  0  0  0  0  0  0  0  0
   -3.2603  -13.4207    2.7970 H   0  0  0  0  0  0  0  0  0  0  0  0
   -4.9076  -14.0857    2.5304 H   0  0  0  0  0  0  0  0  0  0  0  0
   -3.4853  -15.1828    2.5304 H   0  0  0  0  0  0  0  0  0  0  0  0
   -0.8735  -13.2102   -1.0882 H   0  0  0  0  0  0  0  0  0  0  0  0
  1  2  1  0
  2  3  1  0
  3  4  2  0
  3  5  1  0
  5  6  1  0
  6  7  1  0
  7  8  1  0
  8  9  2  3
  9 10  1  0
 10 11  2  0
 11 12  1  0
 12 13  1  0
 12 14  2  0
 14 15  1  0
 15 16  1  0
 14 17  1  0
 17 18  1  0
 18 19  2  0
 18 20  1  0
 20 21  1  0
 17 22  2  0
  9 23  1  0
 23 24  2  0
 24 25  1  0
 25 26  1  0
 25 27  2  0
 27 28  1  0
 28 29  1  0
 27 30  1  0
 30 31  1  0
 31 32  2  0
 31 33  1  0
 33 34  1  0
 30 35  2  0
 22 10  1  0
 35 23  1  0
  1 36  1  0
  1 37  1  0
  1 38  1  0
  5 39  1  0
  5 40  1  0
  6 41  1  0
  6 42  1  0
  7 43  1  0
  7 44  1  0
  8 45  1  0
 11 46  1  0
 16 47  1  0
 16 48  1  0
 16 49  1  0
 21 50  1  0
 21 51  1  0
 21 52  1  0
 22 53  1  0
 24 54  1  0
 29 55  1  0
 29 56  1  0
 29 57  1  0
 34 58  1  0
 34 59  1  0
 34 60  1  0
 35 61  1  0
M  END
>  <meeko>  (9) 
{"is_sidechain": [false], "free_energy": -5.848, "intermolecular_energy": -10.737, "internal_energy": -1.914}

$$$$
