LIB_CXSPGFPSWYWLGD__M_PUB_ALL__e8__s20260927
     RDKit          3D

 62 66  0  0  0  0  0  0  0  0999 V2000
   -3.2730  -11.1260    0.1320 C   0  0  0  0  0  0  0  0  0  0  0  0
   -3.0470  -12.3150    1.0820 C   0  0  0  0  0  0  0  0  0  0  0  0
   -4.3700  -12.6250    1.8070 C   0  0  0  0  0  0  0  0  0  0  0  0
   -1.9860  -11.9890    2.1390 C   0  0  0  0  0  0  0  0  0  0  0  0
   -0.5850  -11.9680    1.5470 C   0  0  0  0  0  0  0  0  0  0  0  0
   -0.2740  -13.2800    0.8060 C   0  0  2  0  0  0  0  0  0  0  0  0
   -0.1080  -14.4810    1.7910 C   0  0  0  0  0  0  0  0  0  0  0  0
    1.4010  -14.7500    1.9380 C   0  0  0  0  0  0  0  0  0  0  0  0
    2.0720  -13.5900    1.2150 C   0  0  1  0  0  0  0  0  0  0  0  0
    3.5250  -13.7590    0.7580 C   0  0  2  0  0  0  0  0  0  0  0  0
    4.4650  -14.0880    1.9220 C   0  0  0  0  0  0  0  0  0  0  0  0
    5.8680  -14.3770    1.3950 C   0  0  0  0  0  0  0  0  0  0  0  0
    6.3410  -13.3890    0.3600 C   0  0  0  0  0  0  0  0  0  0  0  0
    7.7120  -13.4080    0.0350 C   0  0  0  0  0  0  0  0  0  0  0  0
    8.2340  -12.5470   -0.9180 C   0  0  0  0  0  0  0  0  0  0  0  0
    9.5520  -12.4980   -1.2770 O   0  0  0  0  0  0  0  0  0  0  0  0
   10.8240  -12.6290   -0.2410 P   0  0  0  0  0  0  0  0  0  0  0  0
   11.9060  -11.7760   -0.8980 O   0  0  0  0  0  0  0  0  0  0  0  0
   10.3190  -12.0660    1.0860 O   0  0  0  0  0  0  0  0  0  0  0  0
   11.1550  -14.1180   -0.2010 O   0  0  0  0  0  0  0  0  0  0  0  0
    7.3820  -11.6580   -1.5660 C   0  0  0  0  0  0  0  0  0  0  0  0
    6.0170  -11.6300   -1.2610 C   0  0  0  0  0  0  0  0  0  0  0  0
    5.4690  -12.5050   -0.3090 C   0  0  0  0  0  0  0  0  0  0  0  0
    3.9980  -12.4380    0.0800 C   0  0  1  0  0  0  0  0  0  0  0  0
    3.0330  -12.0210   -1.0590 C   0  0  0  0  0  0  0  0  0  0  0  0
    1.5600  -11.9720   -0.6090 C   0  0  0  0  0  0  0  0  0  0  0  0
    1.1050  -13.2870    0.0490 C   0  0  2  0  0  0  0  0  0  0  0  0
    1.0910  -14.3970   -1.0460 C   0  0  0  0  0  0  0  0  0  0  0  0
   -1.3380  -13.5770   -0.1280 O   0  0  0  0  0  0  0  0  0  0  0  0
   -2.6430  -13.5080    0.2240 C   0  0  0  0  0  0  0  0  0  0  0  0
   -3.4640  -14.2900   -0.2500 O   0  0  0  0  0  0  0  0  0  0  0  0
   -3.4464  -10.2136    0.7214 H   0  0  0  0  0  0  0  0  0  0  0  0
   -2.3847  -10.9895   -0.5023 H   0  0  0  0  0  0  0  0  0  0  0  0
   -4.1494  -11.3249   -0.5023 H   0  0  0  0  0  0  0  0  0  0  0  0
   -4.2096  -12.5874    2.8946 H   0  0  0  0  0  0  0  0  0  0  0  0
   -5.1275  -11.8800    1.5221 H   0  0  0  0  0  0  0  0  0  0  0  0
   -4.7177  -13.6290    1.5221 H   0  0  0  0  0  0  0  0  0  0  0  0
   -2.2050  -11.0010    2.5701 H   0  0  0  0  0  0  0  0  0  0  0  0
   -2.0194  -12.7734    2.9095 H   0  0  0  0  0  0  0  0  0  0  0  0
   -0.5070  -11.1293    0.8396 H   0  0  0  0  0  0  0  0  0  0  0  0
    0.1381  -11.8519    2.3678 H   0  0  0  0  0  0  0  0  0  0  0  0
   -0.5419  -14.2276    2.7695 H   0  0  0  0  0  0  0  0  0  0  0  0
   -0.6261  -15.3724    1.4078 H   0  0  0  0  0  0  0  0  0  0  0  0
    1.6908  -14.7657    2.9990 H   0  0  0  0  0  0  0  0  0  0  0  0
    1.6927  -15.7252    1.5211 H   0  0  0  0  0  0  0  0  0  0  0  0
    2.2173  -12.7614    1.9237 H   0  0  0  0  0  0  0  0  0  0  0  0
    3.5601  -14.6016    0.0517 H   0  0  0  0  0  0  0  0  0  0  0  0
    4.5042  -13.2319    2.6116 H   0  0  0  0  0  0  0  0  0  0  0  0
    4.0880  -14.9761    2.4504 H   0  0  0  0  0  0  0  0  0  0  0  0
    6.5689  -14.3547    2.2425 H   0  0  0  0  0  0  0  0  0  0  0  0
    5.8318  -15.3620    0.9067 H   0  0  0  0  0  0  0  0  0  0  0  0
    8.3792  -14.1178    0.5459 H   0  0  0  0  0  0  0  0  0  0  0  0
    7.7853  -10.9712   -2.3247 H   0  0  0  0  0  0  0  0  0  0  0  0
    5.3623  -10.9110   -1.7752 H   0  0  0  0  0  0  0  0  0  0  0  0
    3.9457  -11.6179    0.8112 H   0  0  0  0  0  0  0  0  0  0  0  0
    3.3239  -11.0226   -1.4176 H   0  0  0  0  0  0  0  0  0  0  0  0
    3.1109  -12.7794   -1.8519 H   0  0  0  0  0  0  0  0  0  0  0  0
    1.4388  -11.1535    0.1159 H   0  0  0  0  0  0  0  0  0  0  0  0
    0.9404  -11.8120   -1.5037 H   0  0  0  0  0  0  0  0  0  0  0  0
    1.0785  -15.3863   -0.5652 H   0  0  0  0  0  0  0  0  0  0  0  0
    0.1942  -14.2826   -1.6727 H   0  0  0  0  0  0  0  0  0  0  0  0
    1.9904  -14.3052   -1.6727 H   0  0  0  0  0  0  0  0  0  0  0  0
  1  2  1  0
  2  3  1  0
  2  4  1  0
  4  5  1  0
  5  6  1  0
  6  7  1  0
  7  8  1  0
  8  9  1  0
  9 10  1  0
 10 11  1  0
 11 12  1  0
 12 13  1  0
 13 14  2  0
 14 15  1  0
 15 16  1  0
 16 17  1  0
 17 18  2  0
 17 19  1  0
 17 20  1  0
 15 21  2  0
 21 22  1  0
 22 23  2  0
 23 24  1  0
 24 25  1  0
 25 26  1  0
 26 27  1  0
 27 28  1  6
  6 29  1  6
 29 30  1  0
 30 31  2  0
 30  2  1  0
 27  6  1  0
 27  9  1  0
 24 10  1  0
 23 13  1  0
  1 32  1  0
  1 33  1  0
  1 34  1  0
  3 35  1  0
  3 36  1  0
  3 37  1  0
  4 38  1  0
  4 39  1  0
  5 40  1  0
  5 41  1  0
  7 42  1  0
  7 43  1  0
  8 44  1  0
  8 45  1  0
  9 46  1  1
 10 47  1  6
 11 48  1  0
 11 49  1  0
 12 50  1  0
 12 51  1  0
 14 52  1  0
 21 53  1  0
 22 54  1  0
 24 55  1  1
 25 56  1  0
 25 57  1  0
 26 58  1  0
 26 59  1  0
 28 60  1  0
 28 61  1  0
 28 62  1  0
M  CHG  2  19  -1  20  -1
M  END
>  <meeko>  (1) 
{"is_sidechain": [false], "free_energy": -8.487, "intermolecular_energy": -9.479, "internal_energy": 0.001}

$$$$
LIB_CXSPGFPSWYWLGD__M_PUB_ALL__e8__s20260927
     RDKit          3D

 62 66  0  0  0  0  0  0  0  0999 V2000
   19.0180   -7.0800   12.8260 C   0  0  0  0  0  0  0  0  0  0  0  0
   17.8540   -6.3050   13.4660 C   0  0  0  0  0  0  0  0  0  0  0  0
   18.3950   -4.9750   14.0220 C   0  0  0  0  0  0  0  0  0  0  0  0
   17.2310   -7.0910   14.6250 C   0  0  0  0  0  0  0  0  0  0  0  0
   16.4060   -8.2700   14.1290 C   0  0  0  0  0  0  0  0  0  0  0  0
   15.3490   -7.8190   13.1070 C   0  0  2  0  0  0  0  0  0  0  0  0
   14.2100   -6.9840   13.7750 C   0  0  0  0  0  0  0  0  0  0  0  0
   12.9900   -7.9110   13.9310 C   0  0  0  0  0  0  0  0  0  0  0  0
   13.5050   -9.2930   13.5500 C   0  0  1  0  0  0  0  0  0  0  0  0
   12.4860  -10.3620   13.1420 C   0  0  2  0  0  0  0  0  0  0  0  0
   11.4480  -10.6220   14.2370 C   0  0  0  0  0  0  0  0  0  0  0  0
   10.3840  -11.5920   13.7300 C   0  0  0  0  0  0  0  0  0  0  0  0
   10.9500  -12.7800   12.9950 C   0  0  0  0  0  0  0  0  0  0  0  0
   10.0760  -13.8570   12.7480 C   0  0  0  0  0  0  0  0  0  0  0  0
   10.5040  -14.9840   12.0630 C   0  0  0  0  0  0  0  0  0  0  0  0
    9.7210  -16.0710   11.7970 O   0  0  0  0  0  0  0  0  0  0  0  0
    9.4900  -17.3470   12.8110 P   0  0  0  0  0  0  0  0  0  0  0  0
   10.6980  -18.2390   12.5400 O   0  0  0  0  0  0  0  0  0  0  0  0
    9.4730  -16.7440   14.2140 O   0  0  0  0  0  0  0  0  0  0  0  0
    8.1610  -17.9640   12.3810 O   0  0  0  0  0  0  0  0  0  0  0  0
   11.8180  -15.0420   11.6090 C   0  0  0  0  0  0  0  0  0  0  0  0
   12.6980  -13.9790   11.8390 C   0  0  0  0  0  0  0  0  0  0  0  0
   12.2780  -12.8230   12.5180 C   0  0  0  0  0  0  0  0  0  0  0  0
   13.2430  -11.6890   12.8340 C   0  0  1  0  0  0  0  0  0  0  0  0
   14.3590  -11.4610   11.7830 C   0  0  0  0  0  0  0  0  0  0  0  0
   15.3040  -10.3020   12.1540 C   0  0  0  0  0  0  0  0  0  0  0  0
   14.5420   -8.9970   12.4450 C   0  0  2  0  0  0  0  0  0  0  0  0
   13.9020   -8.5020   11.1120 C   0  0  0  0  0  0  0  0  0  0  0  0
   15.9770   -7.0230   12.0750 O   0  0  0  0  0  0  0  0  0  0  0  0
   16.8390   -6.0220   12.3640 C   0  0  0  0  0  0  0  0  0  0  0  0
   16.8810   -5.0090   11.6710 O   0  0  0  0  0  0  0  0  0  0  0  0
   19.6548   -7.5040   13.6164 H   0  0  0  0  0  0  0  0  0  0  0  0
   18.6181   -7.8928   12.2019 H   0  0  0  0  0  0  0  0  0  0  0  0
   19.6137   -6.3976   12.2019 H   0  0  0  0  0  0  0  0  0  0  0  0
   18.3827   -5.0052   15.1215 H   0  0  0  0  0  0  0  0  0  0  0  0
   19.4263   -4.8232   13.6709 H   0  0  0  0  0  0  0  0  0  0  0  0
   17.7624   -4.1464   13.6709 H   0  0  0  0  0  0  0  0  0  0  0  0
   18.0359   -7.4673   15.2734 H   0  0  0  0  0  0  0  0  0  0  0  0
   16.5626   -6.4140   15.1772 H   0  0  0  0  0  0  0  0  0  0  0  0
   17.0757   -9.0016   13.6533 H   0  0  0  0  0  0  0  0  0  0  0  0
   15.8887   -8.7195   14.9895 H   0  0  0  0  0  0  0  0  0  0  0  0
   14.5370   -6.6237   14.7615 H   0  0  0  0  0  0  0  0  0  0  0  0
   13.9567   -6.1093   13.1580 H   0  0  0  0  0  0  0  0  0  0  0  0
   12.6278   -7.9045   14.9697 H   0  0  0  0  0  0  0  0  0  0  0  0
   12.1432   -7.5944   13.3043 H   0  0  0  0  0  0  0  0  0  0  0  0
   13.9111   -9.7845   14.4464 H   0  0  0  0  0  0  0  0  0  0  0  0
   11.9503   -9.9954   12.2539 H   0  0  0  0  0  0  0  0  0  0  0  0
   11.9470  -11.0560   15.1160 H   0  0  0  0  0  0  0  0  0  0  0  0
   10.9676   -9.6712   14.5114 H   0  0  0  0  0  0  0  0  0  0  0  0
    9.8088  -11.9589   14.5928 H   0  0  0  0  0  0  0  0  0  0  0  0
    9.7584  -11.0385   13.0142 H   0  0  0  0  0  0  0  0  0  0  0  0
    9.0368  -13.8029   13.1045 H   0  0  0  0  0  0  0  0  0  0  0  0
   12.1679  -15.9314   11.0645 H   0  0  0  0  0  0  0  0  0  0  0  0
   13.7361  -14.0495   11.4822 H   0  0  0  0  0  0  0  0  0  0  0  0
   13.7693  -12.0230   13.7403 H   0  0  0  0  0  0  0  0  0  0  0  0
   14.9522  -12.3832   11.6952 H   0  0  0  0  0  0  0  0  0  0  0  0
   13.8697  -11.1972   10.8338 H   0  0  0  0  0  0  0  0  0  0  0  0
   15.8759  -10.5849   13.0500 H   0  0  0  0  0  0  0  0  0  0  0  0
   15.9667  -10.1202   11.2951 H   0  0  0  0  0  0  0  0  0  0  0  0
   13.0502   -7.8432   11.3367 H   0  0  0  0  0  0  0  0  0  0  0  0
   14.6516   -7.9464   10.5295 H   0  0  0  0  0  0  0  0  0  0  0  0
   13.5527   -9.3672   10.5295 H   0  0  0  0  0  0  0  0  0  0  0  0
  1  2  1  0
  2  3  1  0
  2  4  1  0
  4  5  1  0
  5  6  1  0
  6  7  1  0
  7  8  1  0
  8  9  1  0
  9 10  1  0
 10 11  1  0
 11 12  1  0
 12 13  1  0
 13 14  2  0
 14 15  1  0
 15 16  1  0
 16 17  1  0
 17 18  2  0
 17 19  1  0
 17 20  1  0
 15 21  2  0
 21 22  1  0
 22 23  2  0
 23 24  1  0
 24 25  1  0
 25 26  1  0
 26 27  1  0
 27 28  1  6
  6 29  1  6
 29 30  1  0
 30 31  2  0
 30  2  1  0
 27  6  1  0
 27  9  1  0
 24 10  1  0
 23 13  1  0
  1 32  1  0
  1 33  1  0
  1 34  1  0
  3 35  1  0
  3 36  1  0
  3 37  1  0
  4 38  1  0
  4 39  1  0
  5 40  1  0
  5 41  1  0
  7 42  1  0
  7 43  1  0
  8 44  1  0
  8 45  1  0
  9 46  1  1
 10 47  1  6
 11 48  1  0
 11 49  1  0
 12 50  1  0
 12 51  1  0
 14 52  1  0
 21 53  1  0
 22 54  1  0
 24 55  1  1
 25 56  1  0
 25 57  1  0
 26 58  1  0
 26 59  1  0
 28 60  1  0
 28 61  1  0
 28 62  1  0
M  CHG  2  19  -1  20  -1
M  END
>  <meeko>  (2) 
{"is_sidechain": [false], "free_energy": -8.467, "intermolecular_energy": -9.331, "internal_energy": -0.125}

$$$$
LIB_CXSPGFPSWYWLGD__M_PUB_ALL__e8__s20260927
     RDKit          3D

 62 66  0  0  0  0  0  0  0  0999 V2000
   -3.7160  -18.0590    3.6420 C   0  0  0  0  0  0  0  0  0  0  0  0
   -3.3270  -16.7750    4.3940 C   0  0  0  0  0  0  0  0  0  0  0  0
   -4.0990  -16.7310    5.7260 C   0  0  0  0  0  0  0  0  0  0  0  0
   -3.6910  -15.5240    3.5880 C   0  0  0  0  0  0  0  0  0  0  0  0
   -2.7570  -15.3230    2.4030 C   0  0  0  0  0  0  0  0  0  0  0  0
   -1.2860  -15.3100    2.8500 C   0  0  2  0  0  0  0  0  0  0  0  0
   -0.9340  -14.0220    3.6630 C   0  0  0  0  0  0  0  0  0  0  0  0
   -0.1700  -13.0760    2.7180 C   0  0  0  0  0  0  0  0  0  0  0  0
   -0.2760  -13.7310    1.3480 C   0  0  1  0  0  0  0  0  0  0  0  0
    0.7350  -13.3310    0.2690 C   0  0  2  0  0  0  0  0  0  0  0  0
    0.7140  -11.8260   -0.0170 C   0  0  0  0  0  0  0  0  0  0  0  0
    1.8280  -11.4640   -0.9950 C   0  0  0  0  0  0  0  0  0  0  0  0
    1.9330  -12.4050   -2.1670 C   0  0  0  0  0  0  0  0  0  0  0  0
    2.7290  -11.9900   -3.2530 C   0  0  0  0  0  0  0  0  0  0  0  0
    2.8980  -12.7990   -4.3670 C   0  0  0  0  0  0  0  0  0  0  0  0
    3.6420  -12.4610   -5.4620 O   0  0  0  0  0  0  0  0  0  0  0  0
    5.2250  -12.8470   -5.6910 P   0  0  0  0  0  0  0  0  0  0  0  0
    5.9240  -12.1990   -4.4990 O   0  0  0  0  0  0  0  0  0  0  0  0
    5.2710  -14.3730   -5.6750 O   0  0  0  0  0  0  0  0  0  0  0  0
    5.5980  -12.2260   -7.0340 O   0  0  0  0  0  0  0  0  0  0  0  0
    2.2730  -14.0420   -4.4030 C   0  0  0  0  0  0  0  0  0  0  0  0
    1.4840  -14.4720   -3.3310 C   0  0  0  0  0  0  0  0  0  0  0  0
    1.3140  -13.6730   -2.1880 C   0  0  0  0  0  0  0  0  0  0  0  0
    0.4040  -14.1020   -1.0440 C   0  0  1  0  0  0  0  0  0  0  0  0
    0.3390  -15.6290   -0.7910 C   0  0  0  0  0  0  0  0  0  0  0  0
   -0.5940  -16.0030    0.3770 C   0  0  0  0  0  0  0  0  0  0  0  0
   -0.2480  -15.2420    1.6690 C   0  0  2  0  0  0  0  0  0  0  0  0
    1.1420  -15.7410    2.1690 C   0  0  0  0  0  0  0  0  0  0  0  0
   -1.0130  -16.4740    3.6650 O   0  0  0  0  0  0  0  0  0  0  0  0
   -1.8310  -16.8520    4.6750 C   0  0  0  0  0  0  0  0  0  0  0  0
   -1.3740  -17.3600    5.6960 O   0  0  0  0  0  0  0  0  0  0  0  0
   -3.9558  -18.8504    4.3674 H   0  0  0  0  0  0  0  0  0  0  0  0
   -4.5948  -17.8621    3.0104 H   0  0  0  0  0  0  0  0  0  0  0  0
   -2.8757  -18.3829    3.0104 H   0  0  0  0  0  0  0  0  0  0  0  0
   -3.3873  -16.7716    6.5638 H   0  0  0  0  0  0  0  0  0  0  0  0
   -4.6794  -15.7983    5.7828 H   0  0  0  0  0  0  0  0  0  0  0  0
   -4.7816  -17.5917    5.7828 H   0  0  0  0  0  0  0  0  0  0  0  0
   -4.7210  -15.6275    3.2159 H   0  0  0  0  0  0  0  0  0  0  0  0
   -3.5955  -14.6510    4.2503 H   0  0  0  0  0  0  0  0  0  0  0  0
   -2.9066  -16.1430    1.6852 H   0  0  0  0  0  0  0  0  0  0  0  0
   -2.9882  -14.3533    1.9380 H   0  0  0  0  0  0  0  0  0  0  0  0
   -1.8557  -13.5367    4.0164 H   0  0  0  0  0  0  0  0  0  0  0  0
   -0.3209  -14.2723    4.5414 H   0  0  0  0  0  0  0  0  0  0  0  0
   -0.6344  -12.0789    2.7084 H   0  0  0  0  0  0  0  0  0  0  0  0
    0.8746  -12.9300    3.0301 H   0  0  0  0  0  0  0  0  0  0  0  0
   -1.1934  -13.3794    0.8532 H   0  0  0  0  0  0  0  0  0  0  0  0
    1.7393  -13.5876    0.6372 H   0  0  0  0  0  0  0  0  0  0  0  0
   -0.2575  -11.5520   -0.4541 H   0  0  0  0  0  0  0  0  0  0  0  0
    0.8681  -11.2779    0.9242 H   0  0  0  0  0  0  0  0  0  0  0  0
    1.6378  -10.4508   -1.3788 H   0  0  0  0  0  0  0  0  0  0  0  0
    2.7765  -11.5315   -0.4420 H   0  0  0  0  0  0  0  0  0  0  0  0
    3.2244  -11.0086   -3.2168 H   0  0  0  0  0  0  0  0  0  0  0  0
    2.4005  -14.6915   -5.2816 H   0  0  0  0  0  0  0  0  0  0  0  0
    0.9882  -15.4525   -3.3838 H   0  0  0  0  0  0  0  0  0  0  0  0
   -0.6067  -13.8265   -1.3797 H   0  0  0  0  0  0  0  0  0  0  0  0
   -0.0270  -16.1210   -1.7042 H   0  0  0  0  0  0  0  0  0  0  0  0
    1.3525  -15.9634   -0.5246 H   0  0  0  0  0  0  0  0  0  0  0  0
   -1.6295  -15.7644    0.0927 H   0  0  0  0  0  0  0  0  0  0  0  0
   -0.4689  -17.0776    0.5762 H   0  0  0  0  0  0  0  0  0  0  0  0
    1.1559  -15.7460    3.2689 H   0  0  0  0  0  0  0  0  0  0  0  0
    1.3219  -16.7599    1.7954 H   0  0  0  0  0  0  0  0  0  0  0  0
    1.9289  -15.0692    1.7954 H   0  0  0  0  0  0  0  0  0  0  0  0
  1  2  1  0
  2  3  1  0
  2  4  1  0
  4  5  1  0
  5  6  1  0
  6  7  1  0
  7  8  1  0
  8  9  1  0
  9 10  1  0
 10 11  1  0
 11 12  1  0
 12 13  1  0
 13 14  2  0
 14 15  1  0
 15 16  1  0
 16 17  1  0
 17 18  2  0
 17 19  1  0
 17 20  1  0
 15 21  2  0
 21 22  1  0
 22 23  2  0
 23 24  1  0
 24 25  1  0
 25 26  1  0
 26 27  1  0
 27 28  1  1
  6 29  1  1
 29 30  1  0
 30 31  2  0
 30  2  1  0
 27  6  1  0
 27  9  1  0
 24 10  1  0
 23 13  1  0
  1 32  1  0
  1 33  1  0
  1 34  1  0
  3 35  1  0
  3 36  1  0
  3 37  1  0
  4 38  1  0
  4 39  1  0
  5 40  1  0
  5 41  1  0
  7 42  1  0
  7 43  1  0
  8 44  1  0
  8 45  1  0
  9 46  1  6
 10 47  1  1
 11 48  1  0
 11 49  1  0
 12 50  1  0
 12 51  1  0
 14 52  1  0
 21 53  1  0
 22 54  1  0
 24 55  1  6
 25 56  1  0
 25 57  1  0
 26 58  1  0
 26 59  1  0
 28 60  1  0
 28 61  1  0
 28 62  1  0
M  CHG  2  19  -1  20  -1
M  END
>  <meeko>  (3) 
{"is_sidechain": [false], "free_energy": -8.186, "intermolecular_energy": -9.052, "internal_energy": -0.09}

$$$$
LIB_CXSPGFPSWYWLGD__M_PUB_ALL__e8__s20260927
     RDKit          3D

 62 66  0  0  0  0  0  0  0  0999 V2000
    3.4980  -15.9840    0.7020 C   0  0  0  0  0  0  0  0  0  0  0  0
    2.8560  -14.7850   -0.0150 C   0  0  0  0  0  0  0  0  0  0  0  0
    3.9250  -14.1070   -0.8930 C   0  0  0  0  0  0  0  0  0  0  0  0
    2.3330  -13.7500    0.9870 C   0  0  0  0  0  0  0  0  0  0  0  0
    1.0710  -14.2310    1.6890 C   0  0  0  0  0  0  0  0  0  0  0  0
   -0.0080  -14.6440    0.6730 C   0  0  2  0  0  0  0  0  0  0  0  0
   -0.6000  -13.4110   -0.0840 C   0  0  0  0  0  0  0  0  0  0  0  0
   -1.9710  -13.1010    0.5450 C   0  0  0  0  0  0  0  0  0  0  0  0
   -2.0510  -14.0090    1.7640 C   0  0  1  0  0  0  0  0  0  0  0  0
   -3.4310  -14.3120    2.3570 C   0  0  2  0  0  0  0  0  0  0  0  0
   -4.1780  -13.0410    2.7700 C   0  0  0  0  0  0  0  0  0  0  0  0
   -5.5910  -13.3890    3.2260 C   0  0  0  0  0  0  0  0  0  0  0  0
   -5.6530  -14.5770    4.1500 C   0  0  0  0  0  0  0  0  0  0  0  0
   -6.8630  -14.7900    4.8410 C   0  0  0  0  0  0  0  0  0  0  0  0
   -7.0170  -15.8680    5.6990 C   0  0  0  0  0  0  0  0  0  0  0  0
   -8.1520  -16.1330    6.4120 O   0  0  0  0  0  0  0  0  0  0  0  0
   -9.3030  -17.2330    5.9920 P   0  0  0  0  0  0  0  0  0  0  0  0
   -9.7110  -17.8470    7.3290 O   0  0  0  0  0  0  0  0  0  0  0  0
  -10.4090  -16.4190    5.3260 O   0  0  0  0  0  0  0  0  0  0  0  0
   -8.5980  -18.2110    5.0570 O   0  0  0  0  0  0  0  0  0  0  0  0
   -5.9580  -16.7540    5.8710 C   0  0  0  0  0  0  0  0  0  0  0  0
   -4.7520  -16.5620    5.1880 C   0  0  0  0  0  0  0  0  0  0  0  0
   -4.5830  -15.4840    4.3040 C   0  0  0  0  0  0  0  0  0  0  0  0
   -3.2530  -15.2260    3.6070 C   0  0  1  0  0  0  0  0  0  0  0  0
   -2.4350  -16.4950    3.2570 C   0  0  0  0  0  0  0  0  0  0  0  0
   -1.1030  -16.1730    2.5530 C   0  0  0  0  0  0  0  0  0  0  0  0
   -1.2960  -15.2800    1.3150 C   0  0  2  0  0  0  0  0  0  0  0  0
   -2.0610  -16.1040    0.2360 C   0  0  0  0  0  0  0  0  0  0  0  0
    0.5560  -15.5640   -0.2900 O   0  0  0  0  0  0  0  0  0  0  0  0
    1.7410  -15.3310   -0.9000 C   0  0  0  0  0  0  0  0  0  0  0  0
    1.9300  -15.6810   -2.0620 O   0  0  0  0  0  0  0  0  0  0  0  0
    3.4228  -15.8436    1.7904 H   0  0  0  0  0  0  0  0  0  0  0  0
    2.9735  -16.9071    0.4143 H   0  0  0  0  0  0  0  0  0  0  0  0
    4.5570  -16.0592    0.4143 H   0  0  0  0  0  0  0  0  0  0  0  0
    4.6786  -13.6291   -0.2498 H   0  0  0  0  0  0  0  0  0  0  0  0
    4.4109  -14.8624   -1.5281 H   0  0  0  0  0  0  0  0  0  0  0  0
    3.4488  -13.3455   -1.5281 H   0  0  0  0  0  0  0  0  0  0  0  0
    3.1103  -13.5607    1.7419 H   0  0  0  0  0  0  0  0  0  0  0  0
    2.0877  -12.8316    0.4335 H   0  0  0  0  0  0  0  0  0  0  0  0
    1.3195  -15.0968    2.3204 H   0  0  0  0  0  0  0  0  0  0  0  0
    0.6764  -13.4058    2.3000 H   0  0  0  0  0  0  0  0  0  0  0  0
    0.0691  -12.5449    0.0265 H   0  0  0  0  0  0  0  0  0  0  0  0
   -0.7045  -13.6271   -1.1575 H   0  0  0  0  0  0  0  0  0  0  0  0
   -2.0306  -12.0441    0.8440 H   0  0  0  0  0  0  0  0  0  0  0  0
   -2.7997  -13.2734   -0.1575 H   0  0  0  0  0  0  0  0  0  0  0  0
   -1.6104  -13.4894    2.6276 H   0  0  0  0  0  0  0  0  0  0  0  0
   -4.0284  -14.8126    1.5807 H   0  0  0  0  0  0  0  0  0  0  0  0
   -3.6387  -12.5540    3.5958 H   0  0  0  0  0  0  0  0  0  0  0  0
   -4.2351  -12.3604    1.9077 H   0  0  0  0  0  0  0  0  0  0  0  0
   -6.0110  -12.5183    3.7509 H   0  0  0  0  0  0  0  0  0  0  0  0
   -6.1643  -13.6520    2.3248 H   0  0  0  0  0  0  0  0  0  0  0  0
   -7.6987  -14.0894    4.6971 H   0  0  0  0  0  0  0  0  0  0  0  0
   -6.0698  -17.6125    6.5496 H   0  0  0  0  0  0  0  0  0  0  0  0
   -3.9226  -17.2671    5.3461 H   0  0  0  0  0  0  0  0  0  0  0  0
   -2.6481  -14.6969    4.3581 H   0  0  0  0  0  0  0  0  0  0  0  0
   -2.2177  -17.0404    4.1872 H   0  0  0  0  0  0  0  0  0  0  0  0
   -3.0393  -17.0966    2.5620 H   0  0  0  0  0  0  0  0  0  0  0  0
   -0.4439  -15.6536    3.2642 H   0  0  0  0  0  0  0  0  0  0  0  0
   -0.6628  -17.1232    2.2164 H   0  0  0  0  0  0  0  0  0  0  0  0
   -2.7296  -16.8241    0.7304 H   0  0  0  0  0  0  0  0  0  0  0  0
   -2.6549  -15.4237   -0.3920 H   0  0  0  0  0  0  0  0  0  0  0  0
   -1.3385  -16.6458   -0.3920 H   0  0  0  0  0  0  0  0  0  0  0  0
  1  2  1  0
  2  3  1  0
  2  4  1  0
  4  5  1  0
  5  6  1  0
  6  7  1  0
  7  8  1  0
  8  9  1  0
  9 10  1  0
 10 11  1  0
 11 12  1  0
 12 13  1  0
 13 14  2  0
 14 15  1  0
 15 16  1  0
 16 17  1  0
 17 18  2  0
 17 19  1  0
 17 20  1  0
 15 21  2  0
 21 22  1  0
 22 23  2  0
 23 24  1  0
 24 25  1  0
 25 26  1  0
 26 27  1  0
 27 28  1  6
  6 29  1  6
 29 30  1  0
 30 31  2  0
 30  2  1  0
 27  6  1  0
 27  9  1  0
 24 10  1  0
 23 13  1  0
  1 32  1  0
  1 33  1  0
  1 34  1  0
  3 35  1  0
  3 36  1  0
  3 37  1  0
  4 38  1  0
  4 39  1  0
  5 40  1  0
  5 41  1  0
  7 42  1  0
  7 43  1  0
  8 44  1  0
  8 45  1  0
  9 46  1  1
 10 47  1  6
 11 48  1  0
 11 49  1  0
 12 50  1  0
 12 51  1  0
 14 52  1  0
 21 53  1  0
 22 54  1  0
 24 55  1  1
 25 56  1  0
 25 57  1  0
 26 58  1  0
 26 59  1  0
 28 60  1  0
 28 61  1  0
 28 62  1  0
M  CHG  2  19  -1  20  -1
M  END
>  <meeko>  (4) 
{"is_sidechain": [false], "free_energy": -8.094, "intermolecular_energy": -9.018, "internal_energy": -0.022}

$$$$
LIB_CXSPGFPSWYWLGD__M_PUB_ALL__e8__s20260927
     RDKit          3D

 62 66  0  0  0  0  0  0  0  0999 V2000
    1.3950  -11.3740   -0.3520 C   0  0  0  0  0  0  0  0  0  0  0  0
    1.8640  -12.8310   -0.1970 C   0  0  0  0  0  0  0  0  0  0  0  0
    1.4430  -13.3380    1.1950 C   0  0  0  0  0  0  0  0  0  0  0  0
    3.3880  -12.9410   -0.3070 C   0  0  0  0  0  0  0  0  0  0  0  0
    3.8670  -12.7530   -1.7390 C   0  0  0  0  0  0  0  0  0  0  0  0
    3.1510  -13.7200   -2.6970 C   0  0  2  0  0  0  0  0  0  0  0  0
    3.6030  -15.2000   -2.4770 C   0  0  0  0  0  0  0  0  0  0  0  0
    4.5910  -15.5520   -3.6050 C   0  0  0  0  0  0  0  0  0  0  0  0
    4.8470  -14.2310   -4.3190 C   0  0  1  0  0  0  0  0  0  0  0  0
    5.3990  -14.2710   -5.7470 C   0  0  2  0  0  0  0  0  0  0  0  0
    6.7290  -15.0250   -5.8350 C   0  0  0  0  0  0  0  0  0  0  0  0
    7.1640  -15.1510   -7.2920 C   0  0  0  0  0  0  0  0  0  0  0  0
    7.0230  -13.8730   -8.0780 C   0  0  0  0  0  0  0  0  0  0  0  0
    7.6610  -13.8180   -9.3330 C   0  0  0  0  0  0  0  0  0  0  0  0
    7.5700  -12.6890  -10.1330 C   0  0  0  0  0  0  0  0  0  0  0  0
    8.1710  -12.5560  -11.3530 O   0  0  0  0  0  0  0  0  0  0  0  0
    9.6950  -11.9890  -11.6050 P   0  0  0  0  0  0  0  0  0  0  0  0
   10.1810  -12.8000  -12.8040 O   0  0  0  0  0  0  0  0  0  0  0  0
    9.5250  -10.5010  -11.8980 O   0  0  0  0  0  0  0  0  0  0  0  0
   10.4510  -12.2890  -10.3140 O   0  0  0  0  0  0  0  0  0  0  0  0
    6.8290  -11.6000   -9.6860 C   0  0  0  0  0  0  0  0  0  0  0  0
    6.1830  -11.6400   -8.4460 C   0  0  0  0  0  0  0  0  0  0  0  0
    6.2510  -12.7800   -7.6280 C   0  0  0  0  0  0  0  0  0  0  0  0
    5.6100  -12.8100   -6.2480 C   0  0  1  0  0  0  0  0  0  0  0  0
    4.3070  -11.9820   -6.1080 C   0  0  0  0  0  0  0  0  0  0  0  0
    3.7020  -12.0510   -4.6930 C   0  0  0  0  0  0  0  0  0  0  0  0
    3.4910  -13.4990   -4.2170 C   0  0  2  0  0  0  0  0  0  0  0  0
    2.3750  -14.1410   -5.0970 C   0  0  0  0  0  0  0  0  0  0  0  0
    1.7200  -13.6280   -2.5030 O   0  0  0  0  0  0  0  0  0  0  0  0
    1.1580  -13.6490   -1.2730 C   0  0  0  0  0  0  0  0  0  0  0  0
    0.0670  -14.1820   -1.0890 O   0  0  0  0  0  0  0  0  0  0  0  0
    1.2512  -10.9273    0.6429 H   0  0  0  0  0  0  0  0  0  0  0  0
    2.1542  -10.8013   -0.9048 H   0  0  0  0  0  0  0  0  0  0  0  0
    0.4443  -11.3517   -0.9048 H   0  0  0  0  0  0  0  0  0  0  0  0
    1.9416  -12.7376    1.9702 H   0  0  0  0  0  0  0  0  0  0  0  0
    0.3524  -13.2455    1.3045 H   0  0  0  0  0  0  0  0  0  0  0  0
    1.7343  -14.3930    1.3045 H   0  0  0  0  0  0  0  0  0  0  0  0
    3.8473  -12.1677    0.3263 H   0  0  0  0  0  0  0  0  0  0  0  0
    3.6824  -13.9485    0.0222 H   0  0  0  0  0  0  0  0  0  0  0  0
    3.6615  -11.7190   -2.0532 H   0  0  0  0  0  0  0  0  0  0  0  0
    4.9463  -12.9624   -1.7754 H   0  0  0  0  0  0  0  0  0  0  0  0
    4.0970  -15.3010   -1.4994 H   0  0  0  0  0  0  0  0  0  0  0  0
    2.7365  -15.8775   -2.4940 H   0  0  0  0  0  0  0  0  0  0  0  0
    5.5260  -15.9564   -3.1899 H   0  0  0  0  0  0  0  0  0  0  0  0
    4.1929  -16.3217   -4.2826 H   0  0  0  0  0  0  0  0  0  0  0  0
    5.6881  -13.7166   -3.8312 H   0  0  0  0  0  0  0  0  0  0  0  0
    4.6699  -14.8047   -6.3743 H   0  0  0  0  0  0  0  0  0  0  0  0
    7.4973  -14.4747   -5.2721 H   0  0  0  0  0  0  0  0  0  0  0  0
    6.6018  -16.0310   -5.4086 H   0  0  0  0  0  0  0  0  0  0  0  0
    8.2201  -15.4577   -7.3140 H   0  0  0  0  0  0  0  0  0  0  0  0
    6.5021  -15.8930   -7.7625 H   0  0  0  0  0  0  0  0  0  0  0  0
    8.2406  -14.6846   -9.6839 H   0  0  0  0  0  0  0  0  0  0  0  0
    6.7504  -10.6996  -10.3130 H   0  0  0  0  0  0  0  0  0  0  0  0
    5.6119  -10.7637   -8.1055 H   0  0  0  0  0  0  0  0  0  0  0  0
    6.3394  -12.3059   -5.5970 H   0  0  0  0  0  0  0  0  0  0  0  0
    4.5320  -10.9311   -6.3427 H   0  0  0  0  0  0  0  0  0  0  0  0
    3.5690  -12.4078   -6.8037 H   0  0  0  0  0  0  0  0  0  0  0  0
    4.3821  -11.5441   -3.9926 H   0  0  0  0  0  0  0  0  0  0  0  0
    2.7178  -11.5606   -4.7240 H   0  0  0  0  0  0  0  0  0  0  0  0
    1.6053  -14.5838   -4.4477 H   0  0  0  0  0  0  0  0  0  0  0  0
    1.9184  -13.3675   -5.7320 H   0  0  0  0  0  0  0  0  0  0  0  0
    2.8141  -14.9246   -5.7320 H   0  0  0  0  0  0  0  0  0  0  0  0
  1  2  1  0
  2  3  1  0
  2  4  1  0
  4  5  1  0
  5  6  1  0
  6  7  1  0
  7  8  1  0
  8  9  1  0
  9 10  1  0
 10 11  1  0
 11 12  1  0
 12 13  1  0
 13 14  2  0
 14 15  1  0
 15 16  1  0
 16 17  1  0
 17 18  2  0
 17 19  1  0
 17 20  1  0
 15 21  2  0
 21 22  1  0
 22 23  2  0
 23 24  1  0
 24 25  1  0
 25 26  1  0
 26 27  1  0
 27 28  1  6
  6 29  1  6
 29 30  1  0
 30 31  2  0
 30  2  1  0
 27  6  1  0
 27  9  1  0
 24 10  1  0
 23 13  1  0
  1 32  1  0
  1 33  1  0
  1 34  1  0
  3 35  1  0
  3 36  1  0
  3 37  1  0
  4 38  1  0
  4 39  1  0
  5 40  1  0
  5 41  1  0
  7 42  1  0
  7 43  1  0
  8 44  1  0
  8 45  1  0
  9 46  1  1
 10 47  1  6
 11 48  1  0
 11 49  1  0
 12 50  1  0
 12 51  1  0
 14 52  1  0
 21 53  1  0
 22 54  1  0
 24 55  1  1
 25 56  1  0
 25 57  1  0
 26 58  1  0
 26 59  1  0
 28 60  1  0
 28 61  1  0
 28 62  1  0
M  CHG  2  19  -1  20  -1
M  END
>  <meeko>  (5) 
{"is_sidechain": [false], "free_energy": -8.045, "intermolecular_energy": -8.827, "internal_energy": -0.158}

$$$$
LIB_CXSPGFPSWYWLGD__M_PUB_ALL__e8__s20260927
     RDKit          3D

 62 66  0  0  0  0  0  0  0  0999 V2000
    7.0450  -14.9140   -8.2270 C   0  0  0  0  0  0  0  0  0  0  0  0
    7.5750  -15.6870   -7.0070 C   0  0  0  0  0  0  0  0  0  0  0  0
    8.5500  -16.7740   -7.4990 C   0  0  0  0  0  0  0  0  0  0  0  0
    6.4380  -16.3730   -6.2440 C   0  0  0  0  0  0  0  0  0  0  0  0
    5.5950  -15.3730   -5.4660 C   0  0  0  0  0  0  0  0  0  0  0  0
    6.4700  -14.5100   -4.5400 C   0  0  2  0  0  0  0  0  0  0  0  0
    7.0430  -15.3350   -3.3430 C   0  0  0  0  0  0  0  0  0  0  0  0
    6.2020  -14.9890   -2.1010 C   0  0  0  0  0  0  0  0  0  0  0  0
    5.0500  -14.1490   -2.6360 C   0  0  1  0  0  0  0  0  0  0  0  0
    4.2860  -13.2520   -1.6570 C   0  0  2  0  0  0  0  0  0  0  0  0
    3.6800  -14.0460   -0.4950 C   0  0  0  0  0  0  0  0  0  0  0  0
    3.0490  -13.0930    0.5160 C   0  0  0  0  0  0  0  0  0  0  0  0
    2.2110  -12.0110   -0.1140 C   0  0  0  0  0  0  0  0  0  0  0  0
    1.3680  -11.2730    0.7410 C   0  0  0  0  0  0  0  0  0  0  0  0
    0.5750  -10.2460    0.2520 C   0  0  0  0  0  0  0  0  0  0  0  0
   -0.2750   -9.4960    1.0140 O   0  0  0  0  0  0  0  0  0  0  0  0
   -1.6940  -10.0270    1.6580 P   0  0  0  0  0  0  0  0  0  0  0  0
   -1.2970  -10.4940    3.0550 O   0  0  0  0  0  0  0  0  0  0  0  0
   -2.6150   -8.8090    1.6560 O   0  0  0  0  0  0  0  0  0  0  0  0
   -2.1510  -11.1560    0.7390 O   0  0  0  0  0  0  0  0  0  0  0  0
    0.6220   -9.9400   -1.1050 C   0  0  0  0  0  0  0  0  0  0  0  0
    1.4580  -10.6580   -1.9670 C   0  0  0  0  0  0  0  0  0  0  0  0
    2.2790  -11.6920   -1.4870 C   0  0  0  0  0  0  0  0  0  0  0  0
    3.1420  -12.5250   -2.4260 C   0  0  1  0  0  0  0  0  0  0  0  0
    3.6970  -11.7660   -3.6590 C   0  0  0  0  0  0  0  0  0  0  0  0
    4.5620  -12.6570   -4.5710 C   0  0  0  0  0  0  0  0  0  0  0  0
    5.6930  -13.3600   -3.7990 C   0  0  2  0  0  0  0  0  0  0  0  0
    6.7040  -12.2730   -3.3230 C   0  0  0  0  0  0  0  0  0  0  0  0
    7.5670  -13.9440   -5.2930 O   0  0  0  0  0  0  0  0  0  0  0  0
    8.3240  -14.6900   -6.1310 C   0  0  0  0  0  0  0  0  0  0  0  0
    9.5230  -14.4600   -6.2660 O   0  0  0  0  0  0  0  0  0  0  0  0
    6.4536  -14.0515   -7.8860 H   0  0  0  0  0  0  0  0  0  0  0  0
    7.8920  -14.5610   -8.8337 H   0  0  0  0  0  0  0  0  0  0  0  0
    6.4105  -15.5768   -8.8337 H   0  0  0  0  0  0  0  0  0  0  0  0
    9.0031  -17.2792   -6.6333 H   0  0  0  0  0  0  0  0  0  0  0  0
    8.0029  -17.5091   -8.1075 H   0  0  0  0  0  0  0  0  0  0  0  0
    9.3401  -16.3097   -8.1075 H   0  0  0  0  0  0  0  0  0  0  0  0
    5.7930  -16.8988   -6.9634 H   0  0  0  0  0  0  0  0  0  0  0  0
    6.8842  -17.0761   -5.5253 H   0  0  0  0  0  0  0  0  0  0  0  0
    5.0690  -14.7178   -6.1760 H   0  0  0  0  0  0  0  0  0  0  0  0
    4.8762  -15.9300   -4.8470 H   0  0  0  0  0  0  0  0  0  0  0  0
    6.9697  -16.4111   -3.5588 H   0  0  0  0  0  0  0  0  0  0  0  0
    8.1024  -15.0911   -3.1750 H   0  0  0  0  0  0  0  0  0  0  0  0
    5.8247  -15.9039   -1.6208 H   0  0  0  0  0  0  0  0  0  0  0  0
    6.7871  -14.4550   -1.3378 H   0  0  0  0  0  0  0  0  0  0  0  0
    4.2249  -14.8157   -2.9273 H   0  0  0  0  0  0  0  0  0  0  0  0
    5.0002  -12.5306   -1.2334 H   0  0  0  0  0  0  0  0  0  0  0  0
    2.9091  -14.7281   -0.8829 H   0  0  0  0  0  0  0  0  0  0  0  0
    4.4743  -14.6235    0.0005 H   0  0  0  0  0  0  0  0  0  0  0  0
    2.4091  -13.6783    1.1927 H   0  0  0  0  0  0  0  0  0  0  0  0
    3.8737  -12.5939    1.0459 H   0  0  0  0  0  0  0  0  0  0  0  0
    1.3387  -11.5156    1.8135 H   0  0  0  0  0  0  0  0  0  0  0  0
   -0.0032   -9.1271   -1.5029 H   0  0  0  0  0  0  0  0  0  0  0  0
    1.4727  -10.4088   -3.0383 H   0  0  0  0  0  0  0  0  0  0  0  0
    2.4511  -13.2743   -2.8398 H   0  0  0  0  0  0  0  0  0  0  0  0
    2.8495  -11.3814   -4.2453 H   0  0  0  0  0  0  0  0  0  0  0  0
    4.3382  -10.9538   -3.2860 H   0  0  0  0  0  0  0  0  0  0  0  0
    3.9191  -13.4220   -5.0309 H   0  0  0  0  0  0  0  0  0  0  0  0
    5.0249  -12.0109   -5.3314 H   0  0  0  0  0  0  0  0  0  0  0  0
    6.7261  -12.2492   -2.2235 H   0  0  0  0  0  0  0  0  0  0  0  0
    7.7073  -12.5131   -3.7048 H   0  0  0  0  0  0  0  0  0  0  0  0
    6.3920  -11.2897   -3.7048 H   0  0  0  0  0  0  0  0  0  0  0  0
  1  2  1  0
  2  3  1  0
  2  4  1  0
  4  5  1  0
  5  6  1  0
  6  7  1  0
  7  8  1  0
  8  9  1  0
  9 10  1  0
 10 11  1  0
 11 12  1  0
 12 13  1  0
 13 14  2  0
 14 15  1  0
 15 16  1  0
 16 17  1  0
 17 18  2  0
 17 19  1  0
 17 20  1  0
 15 21  2  0
 21 22  1  0
 22 23  2  0
 23 24  1  0
 24 25  1  0
 25 26  1  0
 26 27  1  0
 27 28  1  1
  6 29  1  6
 29 30  1  0
 30 31  2  0
 30  2  1  0
 27  6  1  0
 27  9  1  0
 24 10  1  0
 23 13  1  0
  1 32  1  0
  1 33  1  0
  1 34  1  0
  3 35  1  0
  3 36  1  0
  3 37  1  0
  4 38  1  0
  4 39  1  0
  5 40  1  0
  5 41  1  0
  7 42  1  0
  7 43  1  0
  8 44  1  0
  8 45  1  0
  9 46  1  6
 10 47  1  1
 11 48  1  0
 11 49  1  0
 12 50  1  0
 12 51  1  0
 14 52  1  0
 21 53  1  0
 22 54  1  0
 24 55  1  6
 25 56  1  0
 25 57  1  0
 26 58  1  0
 26 59  1  0
 28 60  1  0
 28 61  1  0
 28 62  1  0
M  CHG  2  19  -1  20  -1
M  END
>  <meeko>  (6) 
{"is_sidechain": [false], "free_energy": -8.044, "intermolecular_energy": -8.758, "internal_energy": -0.226}

$$$$
LIB_CXSPGFPSWYWLGD__M_PUB_ALL__e8__s20260927
     RDKit          3D

 62 66  0  0  0  0  0  0  0  0999 V2000
    1.6140  -11.6320   -1.3660 C   0  0  0  0  0  0  0  0  0  0  0  0
    2.1650  -13.0310   -1.0430 C   0  0  0  0  0  0  0  0  0  0  0  0
    3.4390  -13.2630   -1.8770 C   0  0  0  0  0  0  0  0  0  0  0  0
    1.1540  -14.1250   -1.3980 C   0  0  0  0  0  0  0  0  0  0  0  0
   -0.0080  -14.1620   -0.4150 C   0  0  0  0  0  0  0  0  0  0  0  0
    0.4930  -14.2910    1.0330 C   0  0  2  0  0  0  0  0  0  0  0  0
    1.1020  -15.7030    1.3160 C   0  0  0  0  0  0  0  0  0  0  0  0
    0.0510  -16.5090    2.1000 C   0  0  0  0  0  0  0  0  0  0  0  0
   -1.2000  -15.6400    2.0740 C   0  0  1  0  0  0  0  0  0  0  0  0
   -2.2850  -15.8940    3.1250 C   0  0  2  0  0  0  0  0  0  0  0  0
   -2.8100  -17.3320    3.0820 C   0  0  0  0  0  0  0  0  0  0  0  0
   -3.7860  -17.5670    4.2310 C   0  0  0  0  0  0  0  0  0  0  0  0
   -4.7860  -16.4550    4.4120 C   0  0  0  0  0  0  0  0  0  0  0  0
   -5.8900  -16.7150    5.2480 C   0  0  0  0  0  0  0  0  0  0  0  0
   -6.8510  -15.7440    5.4880 C   0  0  0  0  0  0  0  0  0  0  0  0
   -7.9540  -15.9250    6.2740 O   0  0  0  0  0  0  0  0  0  0  0  0
   -9.3340  -16.6940    5.8130 P   0  0  0  0  0  0  0  0  0  0  0  0
  -10.3460  -16.2760    6.8760 O   0  0  0  0  0  0  0  0  0  0  0  0
   -9.6470  -16.1540    4.4190 O   0  0  0  0  0  0  0  0  0  0  0  0
   -8.9910  -18.1820    5.8430 O   0  0  0  0  0  0  0  0  0  0  0  0
   -6.7130  -14.4930    4.8950 C   0  0  0  0  0  0  0  0  0  0  0  0
   -5.6190  -14.2150    4.0670 C   0  0  0  0  0  0  0  0  0  0  0  0
   -4.6290  -15.1810    3.8250 C   0  0  0  0  0  0  0  0  0  0  0  0
   -3.4710  -14.9130    2.8730 C   0  0  1  0  0  0  0  0  0  0  0  0
   -2.9770  -13.4440    2.8320 C   0  0  0  0  0  0  0  0  0  0  0  0
   -1.8040  -13.2340    1.8550 C   0  0  0  0  0  0  0  0  0  0  0  0
   -0.6390  -14.2020    2.1220 C   0  0  2  0  0  0  0  0  0  0  0  0
   -0.0070  -13.8320    3.4990 C   0  0  0  0  0  0  0  0  0  0  0  0
    1.4960  -13.2820    1.2950 O   0  0  0  0  0  0  0  0  0  0  0  0
    2.5180  -13.0460    0.4400 C   0  0  0  0  0  0  0  0  0  0  0  0
    3.6250  -12.7210    0.8600 O   0  0  0  0  0  0  0  0  0  0  0  0
    1.4028  -11.0958   -0.4290 H   0  0  0  0  0  0  0  0  0  0  0  0
    2.3582  -11.0707   -1.9500 H   0  0  0  0  0  0  0  0  0  0  0  0
    0.6869  -11.7289   -1.9500 H   0  0  0  0  0  0  0  0  0  0  0  0
    4.2947  -13.4188   -1.2036 H   0  0  0  0  0  0  0  0  0  0  0  0
    3.3051  -14.1515   -2.5115 H   0  0  0  0  0  0  0  0  0  0  0  0
    3.6270  -12.3843   -2.5115 H   0  0  0  0  0  0  0  0  0  0  0  0
    0.7607  -13.9324   -2.4071 H   0  0  0  0  0  0  0  0  0  0  0  0
    1.6705  -15.0952   -1.3533 H   0  0  0  0  0  0  0  0  0  0  0  0
   -0.5899  -13.2336   -0.5121 H   0  0  0  0  0  0  0  0  0  0  0  0
   -0.6328  -15.0371   -0.6468 H   0  0  0  0  0  0  0  0  0  0  0  0
    1.3335  -16.2096    0.3674 H   0  0  0  0  0  0  0  0  0  0  0  0
    2.0341  -15.6152    1.8934 H   0  0  0  0  0  0  0  0  0  0  0  0
   -0.1386  -17.4768    1.6127 H   0  0  0  0  0  0  0  0  0  0  0  0
    0.3795  -16.7356    3.1251 H   0  0  0  0  0  0  0  0  0  0  0  0
   -1.7841  -15.8791    1.1731 H   0  0  0  0  0  0  0  0  0  0  0  0
   -1.8378  -15.7308    4.1167 H   0  0  0  0  0  0  0  0  0  0  0  0
   -3.3257  -17.5028    2.1255 H   0  0  0  0  0  0  0  0  0  0  0  0
   -1.9637  -18.0279    3.1797 H   0  0  0  0  0  0  0  0  0  0  0  0
   -4.3352  -18.4997    4.0351 H   0  0  0  0  0  0  0  0  0  0  0  0
   -3.1901  -17.6174    5.1542 H   0  0  0  0  0  0  0  0  0  0  0  0
   -5.9914  -17.7043    5.7181 H   0  0  0  0  0  0  0  0  0  0  0  0
   -7.4697  -13.7160    5.0783 H   0  0  0  0  0  0  0  0  0  0  0  0
   -5.5335  -13.2236    3.5983 H   0  0  0  0  0  0  0  0  0  0  0  0
   -3.8900  -15.1004    1.8733 H   0  0  0  0  0  0  0  0  0  0  0  0
   -3.8132  -12.8009    2.5202 H   0  0  0  0  0  0  0  0  0  0  0  0
   -2.6179  -13.1878    3.8397 H   0  0  0  0  0  0  0  0  0  0  0  0
   -2.1665  -13.3919    0.8285 H   0  0  0  0  0  0  0  0  0  0  0  0
   -1.4286  -12.2098    1.9964 H   0  0  0  0  0  0  0  0  0  0  0  0
   -0.6486  -14.2076    4.3097 H   0  0  0  0  0  0  0  0  0  0  0  0
    0.9904  -14.2888    3.5792 H   0  0  0  0  0  0  0  0  0  0  0  0
    0.0829  -12.7386    3.5792 H   0  0  0  0  0  0  0  0  0  0  0  0
  1  2  1  0
  2  3  1  0
  2  4  1  0
  4  5  1  0
  5  6  1  0
  6  7  1  0
  7  8  1  0
  8  9  1  0
  9 10  1  0
 10 11  1  0
 11 12  1  0
 12 13  1  0
 13 14  2  0
 14 15  1  0
 15 16  1  0
 16 17  1  0
 17 18  2  0
 17 19  1  0
 17 20  1  0
 15 21  2  0
 21 22  1  0
 22 23  2  0
 23 24  1  0
 24 25  1  0
 25 26  1  0
 26 27  1  0
 27 28  1  1
  6 29  1  1
 29 30  1  0
 30 31  2  0
 30  2  1  0
 27  6  1  0
 27  9  1  0
 24 10  1  0
 23 13  1  0
  1 32  1  0
  1 33  1  0
  1 34  1  0
  3 35  1  0
  3 36  1  0
  3 37  1  0
  4 38  1  0
  4 39  1  0
  5 40  1  0
  5 41  1  0
  7 42  1  0
  7 43  1  0
  8 44  1  0
  8 45  1  0
  9 46  1  6
 10 47  1  1
 11 48  1  0
 11 49  1  0
 12 50  1  0
 12 51  1  0
 14 52  1  0
 21 53  1  0
 22 54  1  0
 24 55  1  6
 25 56  1  0
 25 57  1  0
 26 58  1  0
 26 59  1  0
 28 60  1  0
 28 61  1  0
 28 62  1  0
M  CHG  2  19  -1  20  -1
M  END
>  <meeko>  (7) 
{"is_sidechain": [false], "free_energy": -8.001, "intermolecular_energy": -8.766, "internal_energy": -0.17}

$$$$
LIB_CXSPGFPSWYWLGD__M_PUB_ALL__e8__s20260927
     RDKit          3D

 62 66  0  0  0  0  0  0  0  0999 V2000
   -1.5870  -15.6130    2.9230 C   0  0  0  0  0  0  0  0  0  0  0  0
   -1.2160  -16.8750    2.1270 C   0  0  0  0  0  0  0  0  0  0  0  0
   -2.3400  -17.9140    2.2970 C   0  0  0  0  0  0  0  0  0  0  0  0
    0.0890  -17.4940    2.6390 C   0  0  0  0  0  0  0  0  0  0  0  0
    1.3030  -16.6690    2.2360 C   0  0  0  0  0  0  0  0  0  0  0  0
    1.3360  -16.4330    0.7170 C   0  0  2  0  0  0  0  0  0  0  0  0
    1.6570  -17.7450   -0.0710 C   0  0  0  0  0  0  0  0  0  0  0  0
    3.1350  -17.6750   -0.4960 C   0  0  0  0  0  0  0  0  0  0  0  0
    3.6850  -16.4480    0.2180 C   0  0  1  0  0  0  0  0  0  0  0  0
    4.9690  -15.8070   -0.3210 C   0  0  2  0  0  0  0  0  0  0  0  0
    6.1400  -16.7940   -0.3560 C   0  0  0  0  0  0  0  0  0  0  0  0
    7.3500  -16.1450   -1.0220 C   0  0  0  0  0  0  0  0  0  0  0  0
    7.6220  -14.7410   -0.5480 C   0  0  0  0  0  0  0  0  0  0  0  0
    8.8680  -14.1790   -0.8880 C   0  0  0  0  0  0  0  0  0  0  0  0
    9.1990  -12.8870   -0.5090 C   0  0  0  0  0  0  0  0  0  0  0  0
   10.3900  -12.2790   -0.7900 O   0  0  0  0  0  0  0  0  0  0  0  0
   11.8390  -12.6730   -0.1170 P   0  0  0  0  0  0  0  0  0  0  0  0
   12.6790  -11.4150   -0.3220 O   0  0  0  0  0  0  0  0  0  0  0  0
   11.5310  -12.9740    1.3480 O   0  0  0  0  0  0  0  0  0  0  0  0
   12.3340  -13.8780   -0.9120 O   0  0  0  0  0  0  0  0  0  0  0  0
    8.2760  -12.1360    0.2130 C   0  0  0  0  0  0  0  0  0  0  0  0
    7.0310  -12.6760    0.5540 C   0  0  0  0  0  0  0  0  0  0  0  0
    6.6730  -13.9780    0.1660 C   0  0  0  0  0  0  0  0  0  0  0  0
    5.3490  -14.6000    0.5890 C   0  0  1  0  0  0  0  0  0  0  0  0
    4.1660  -13.6070    0.7180 C   0  0  0  0  0  0  0  0  0  0  0  0
    2.8530  -14.2920    1.1460 C   0  0  0  0  0  0  0  0  0  0  0  0
    2.4860  -15.4750    0.2330 C   0  0  2  0  0  0  0  0  0  0  0  0
    2.1330  -14.9080   -1.1760 C   0  0  0  0  0  0  0  0  0  0  0  0
    0.0590  -15.9160    0.2750 O   0  0  0  0  0  0  0  0  0  0  0  0
   -1.1130  -16.4710    0.6610 C   0  0  0  0  0  0  0  0  0  0  0  0
   -2.0740  -16.5030   -0.1040 O   0  0  0  0  0  0  0  0  0  0  0  0
   -1.5240  -15.8272    4.0001 H   0  0  0  0  0  0  0  0  0  0  0  0
   -0.8895  -14.8012    2.6692 H   0  0  0  0  0  0  0  0  0  0  0  0
   -2.6129  -15.3078    2.6692 H   0  0  0  0  0  0  0  0  0  0  0  0
   -2.5235  -18.0837    3.3682 H   0  0  0  0  0  0  0  0  0  0  0  0
   -3.2593  -17.5407    1.8221 H   0  0  0  0  0  0  0  0  0  0  0  0
   -2.0400  -18.8598    1.8221 H   0  0  0  0  0  0  0  0  0  0  0  0
    0.0479  -17.5540    3.7366 H   0  0  0  0  0  0  0  0  0  0  0  0
    0.1915  -18.4937    2.1916 H   0  0  0  0  0  0  0  0  0  0  0  0
    1.2626  -15.6969    2.7493 H   0  0  0  0  0  0  0  0  0  0  0  0
    2.2100  -17.2216    2.5223 H   0  0  0  0  0  0  0  0  0  0  0  0
    1.4919  -18.6210    0.5736 H   0  0  0  0  0  0  0  0  0  0  0  0
    1.0034  -17.8403   -0.9506 H   0  0  0  0  0  0  0  0  0  0  0  0
    3.6727  -18.5811   -0.1801 H   0  0  0  0  0  0  0  0  0  0  0  0
    3.2513  -17.6081   -1.5878 H   0  0  0  0  0  0  0  0  0  0  0  0
    4.0527  -16.7448    1.2113 H   0  0  0  0  0  0  0  0  0  0  0  0
    4.7759  -15.4810   -1.3537 H   0  0  0  0  0  0  0  0  0  0  0  0
    6.4023  -17.0846    0.6720 H   0  0  0  0  0  0  0  0  0  0  0  0
    5.8451  -17.6838   -0.9316 H   0  0  0  0  0  0  0  0  0  0  0  0
    8.2359  -16.7612   -0.8087 H   0  0  0  0  0  0  0  0  0  0  0  0
    7.1302  -16.0840   -2.0981 H   0  0  0  0  0  0  0  0  0  0  0  0
    9.5909  -14.7753   -1.4641 H   0  0  0  0  0  0  0  0  0  0  0  0
    8.5273  -11.1095    0.5181 H   0  0  0  0  0  0  0  0  0  0  0  0
    6.3203  -12.0707    1.1359 H   0  0  0  0  0  0  0  0  0  0  0  0
    5.5299  -14.9612    1.6122 H   0  0  0  0  0  0  0  0  0  0  0  0
    4.4262  -12.8464    1.4689 H   0  0  0  0  0  0  0  0  0  0  0  0
    3.9985  -13.1619   -0.2739 H   0  0  0  0  0  0  0  0  0  0  0  0
    2.9665  -14.6620    2.1757 H   0  0  0  0  0  0  0  0  0  0  0  0
    2.0462  -13.5479    1.0727 H   0  0  0  0  0  0  0  0  0  0  0  0
    1.5547  -13.9791   -1.0631 H   0  0  0  0  0  0  0  0  0  0  0  0
    3.0601  -14.6978   -1.7294 H   0  0  0  0  0  0  0  0  0  0  0  0
    1.5352  -15.6471   -1.7294 H   0  0  0  0  0  0  0  0  0  0  0  0
  1  2  1  0
  2  3  1  0
  2  4  1  0
  4  5  1  0
  5  6  1  0
  6  7  1  0
  7  8  1  0
  8  9  1  0
  9 10  1  0
 10 11  1  0
 11 12  1  0
 12 13  1  0
 13 14  2  0
 14 15  1  0
 15 16  1  0
 16 17  1  0
 17 18  2  0
 17 19  1  0
 17 20  1  0
 15 21  2  0
 21 22  1  0
 22 23  2  0
 23 24  1  0
 24 25  1  0
 25 26  1  0
 26 27  1  0
 27 28  1  6
  6 29  1  6
 29 30  1  0
 30 31  2  0
 30  2  1  0
 27  6  1  0
 27  9  1  0
 24 10  1  0
 23 13  1  0
  1 32  1  0
  1 33  1  0
  1 34  1  0
  3 35  1  0
  3 36  1  0
  3 37  1  0
  4 38  1  0
  4 39  1  0
  5 40  1  0
  5 41  1  0
  7 42  1  0
  7 43  1  0
  8 44  1  0
  8 45  1  0
  9 46  1  1
 10 47  1  6
 11 48  1  0
 11 49  1  0
 12 50  1  0
 12 51  1  0
 14 52  1  0
 21 53  1  0
 22 54  1  0
 24 55  1  1
 25 56  1  0
 25 57  1  0
 26 58  1  0
 26 59  1  0
 28 60  1  0
 28 61  1  0
 28 62  1  0
M  CHG  2  19  -1  20  -1
M  END
>  <meeko>  (8) 
{"is_sidechain": [false], "free_energy": -7.947, "intermolecular_energy": -8.663, "internal_energy": -0.213}

$$$$
LIB_CXSPGFPSWYWLGD__M_PUB_ALL__e8__s20260927
     RDKit          3D

 62 66  0  0  0  0  0  0  0  0999 V2000
    0.0730  -15.7650    0.9770 C   0  0  0  0  0  0  0  0  0  0  0  0
   -0.1820  -14.5380    0.0850 C   0  0  0  0  0  0  0  0  0  0  0  0
   -1.7020  -14.3650   -0.0920 C   0  0  0  0  0  0  0  0  0  0  0  0
    0.4450  -14.7170   -1.3020 C   0  0  0  0  0  0  0  0  0  0  0  0
    1.9610  -14.5910   -1.2570 C   0  0  0  0  0  0  0  0  0  0  0  0
    2.3900  -13.2690   -0.5990 C   0  0  2  0  0  0  0  0  0  0  0  0
    2.0650  -12.0350   -1.5020 C   0  0  0  0  0  0  0  0  0  0  0  0
    3.3820  -11.5920   -2.1670 C   0  0  0  0  0  0  0  0  0  0  0  0
    4.3810  -12.6830   -1.8080 C   0  0  1  0  0  0  0  0  0  0  0  0
    5.8760  -12.3580   -1.8970 C   0  0  2  0  0  0  0  0  0  0  0  0
    6.2880  -11.9000   -3.2990 C   0  0  0  0  0  0  0  0  0  0  0  0
    7.7500  -11.4630   -3.2970 C   0  0  0  0  0  0  0  0  0  0  0  0
    8.6640  -12.4120   -2.5670 C   0  0  0  0  0  0  0  0  0  0  0  0
   10.0500  -12.2440   -2.7580 C   0  0  0  0  0  0  0  0  0  0  0  0
   10.9670  -13.0600   -2.1130 C   0  0  0  0  0  0  0  0  0  0  0  0
   12.3220  -12.9660   -2.2580 O   0  0  0  0  0  0  0  0  0  0  0  0
   13.1030  -12.5660   -3.6500 P   0  0  0  0  0  0  0  0  0  0  0  0
   12.9750  -11.0460   -3.7040 O   0  0  0  0  0  0  0  0  0  0  0  0
   14.5370  -13.0550   -3.4600 O   0  0  0  0  0  0  0  0  0  0  0  0
   12.3400  -13.2860   -4.7580 O   0  0  0  0  0  0  0  0  0  0  0  0
   10.5030  -14.0540   -1.2570 C   0  0  0  0  0  0  0  0  0  0  0  0
    9.1310  -14.2320   -1.0500 C   0  0  0  0  0  0  0  0  0  0  0  0
    8.1890  -13.4060   -1.6840 C   0  0  0  0  0  0  0  0  0  0  0  0
    6.6920  -13.6320   -1.5190 C   0  0  1  0  0  0  0  0  0  0  0  0
    6.2570  -14.1800   -0.1360 C   0  0  0  0  0  0  0  0  0  0  0  0
    4.7330  -14.3880   -0.0260 C   0  0  0  0  0  0  0  0  0  0  0  0
    3.9430  -13.1190   -0.3930 C   0  0  2  0  0  0  0  0  0  0  0  0
    4.2210  -12.0420    0.7000 C   0  0  0  0  0  0  0  0  0  0  0  0
    1.7170  -13.1150    0.6720 O   0  0  0  0  0  0  0  0  0  0  0  0
    0.3870  -13.3250    0.8110 C   0  0  0  0  0  0  0  0  0  0  0  0
   -0.2750  -12.6530    1.5970 O   0  0  0  0  0  0  0  0  0  0  0  0
    0.0114  -15.4687    2.0345 H   0  0  0  0  0  0  0  0  0  0  0  0
   -0.6844  -16.5346    0.7672 H   0  0  0  0  0  0  0  0  0  0  0  0
    1.0743  -16.1691    0.7672 H   0  0  0  0  0  0  0  0  0  0  0  0
   -2.1823  -14.3103    0.8961 H   0  0  0  0  0  0  0  0  0  0  0  0
   -1.9031  -13.4382   -0.6493 H   0  0  0  0  0  0  0  0  0  0  0  0
   -2.1063  -15.2229   -0.6493 H   0  0  0  0  0  0  0  0  0  0  0  0
    0.1817  -15.7136   -1.6859 H   0  0  0  0  0  0  0  0  0  0  0  0
    0.0552  -13.9250   -1.9584 H   0  0  0  0  0  0  0  0  0  0  0  0
    2.3738  -15.4304   -0.6781 H   0  0  0  0  0  0  0  0  0  0  0  0
    2.3425  -14.6064   -2.2886 H   0  0  0  0  0  0  0  0  0  0  0  0
    1.3307  -12.3151   -2.2716 H   0  0  0  0  0  0  0  0  0  0  0  0
    1.6376  -11.2171   -0.9033 H   0  0  0  0  0  0  0  0  0  0  0  0
    3.2610  -11.5203   -3.2580 H   0  0  0  0  0  0  0  0  0  0  0  0
    3.7084  -10.5991   -1.8242 H   0  0  0  0  0  0  0  0  0  0  0  0
    4.3374  -13.4747   -2.5704 H   0  0  0  0  0  0  0  0  0  0  0  0
    6.0834  -11.5319   -1.2009 H   0  0  0  0  0  0  0  0  0  0  0  0
    6.1574  -12.7318   -4.0069 H   0  0  0  0  0  0  0  0  0  0  0  0
    5.6578  -11.0505   -3.6009 H   0  0  0  0  0  0  0  0  0  0  0  0
    8.0909  -11.3856   -4.3400 H   0  0  0  0  0  0  0  0  0  0  0  0
    7.7972  -10.4998   -2.7678 H   0  0  0  0  0  0  0  0  0  0  0  0
   10.4108  -11.4518   -3.4305 H   0  0  0  0  0  0  0  0  0  0  0  0
   11.2215  -14.7057   -0.7384 H   0  0  0  0  0  0  0  0  0  0  0  0
    8.7844  -15.0322   -0.3795 H   0  0  0  0  0  0  0  0  0  0  0  0
    6.4565  -14.4366   -2.2312 H   0  0  0  0  0  0  0  0  0  0  0  0
    6.7562  -15.1457    0.0318 H   0  0  0  0  0  0  0  0  0  0  0  0
    6.5441  -13.4343    0.6200 H   0  0  0  0  0  0  0  0  0  0  0  0
    4.4364  -15.1989   -0.7075 H   0  0  0  0  0  0  0  0  0  0  0  0
    4.5018  -14.6380    1.0200 H   0  0  0  0  0  0  0  0  0  0  0  0
    4.1047  -12.4926    1.6967 H   0  0  0  0  0  0  0  0  0  0  0  0
    5.2468  -11.6613    0.5871 H   0  0  0  0  0  0  0  0  0  0  0  0
    3.5076  -11.2124    0.5871 H   0  0  0  0  0  0  0  0  0  0  0  0
  1  2  1  0
  2  3  1  0
  2  4  1  0
  4  5  1  0
  5  6  1  0
  6  7  1  0
  7  8  1  0
  8  9  1  0
  9 10  1  0
 10 11  1  0
 11 12  1  0
 12 13  1  0
 13 14  2  0
 14 15  1  0
 15 16  1  0
 16 17  1  0
 17 18  2  0
 17 19  1  0
 17 20  1  0
 15 21  2  0
 21 22  1  0
 22 23  2  0
 23 24  1  0
 24 25  1  0
 25 26  1  0
 26 27  1  0
 27 28  1  1
  6 29  1  1
 29 30  1  0
 30 31  2  0
 30  2  1  0
 27  6  1  0
 27  9  1  0
 24 10  1  0
 23 13  1  0
  1 32  1  0
  1 33  1  0
  1 34  1  0
  3 35  1  0
  3 36  1  0
  3 37  1  0
  4 38  1  0
  4 39  1  0
  5 40  1  0
  5 41  1  0
  7 42  1  0
  7 43  1  0
  8 44  1  0
  8 45  1  0
  9 46  1  6
 10 47  1  1
 11 48  1  0
 11 49  1  0
 12 50  1  0
 12 51  1  0
 14 52  1  0
 21 53  1  0
 22 54  1  0
 24 55  1  6
 25 56  1  0
 25 57  1  0
 26 58  1  0
 26 59  1  0
 28 60  1  0
 28 61  1  0
 28 62  1  0
M  CHG  2  19  -1  20  -1
M  END
>  <meeko>  (9) 
{"is_sidechain": [false], "free_energy": -7.93, "intermolecular_energy": -8.868, "internal_energy": 0.011}

$$$$
