LIB_JFJZZMVDLULRGK__M_PUB_ALL__e8__s20260927
     RDKit          3D

 85 91  0  0  0  0  0  0  0  0999 V2000
   14.9890  -14.4230   -9.8580 C   0  0  0  0  0  0  0  0  0  0  0  0
   14.2150  -13.7450   -8.8610 O   0  0  0  0  0  0  0  0  0  0  0  0
   12.8660  -13.8690   -9.0800 C   0  0  0  0  0  0  0  0  0  0  0  0
   12.4420  -13.5670  -10.3780 C   0  0  0  0  0  0  0  0  0  0  0  0
   11.0850  -13.6360  -10.7330 C   0  0  0  0  0  0  0  0  0  0  0  0
   10.1310  -14.0220   -9.7770 C   0  0  0  0  0  0  0  0  0  0  0  0
   10.5700  -14.2690   -8.4670 C   0  0  0  0  0  0  0  0  0  0  0  0
   11.9260  -14.2100   -8.1080 C   0  0  0  0  0  0  0  0  0  0  0  0
   12.3520  -14.4160   -6.8070 O   0  0  0  0  0  0  0  0  0  0  0  0
   11.4550  -15.0630   -5.9660 C   0  0  0  0  0  0  0  0  0  0  0  0
   10.6100  -14.2200   -5.2210 C   0  0  0  0  0  0  0  0  0  0  0  0
    9.5580  -14.7460   -4.4670 C   0  0  0  0  0  0  0  0  0  0  0  0
    9.4430  -16.1330   -4.4140 C   0  0  0  0  0  0  0  0  0  0  0  0
   10.3440  -16.9590   -5.1050 C   0  0  0  0  0  0  0  0  0  0  0  0
   11.3760  -16.4750   -5.9270 C   0  0  0  0  0  0  0  0  0  0  0  0
   12.1270  -17.2750   -6.5790 O   0  0  0  0  0  0  0  0  0  0  0  0
    8.5550  -13.7720   -3.8940 C   0  0  0  0  0  0  0  0  0  0  0  0
    7.5070  -14.2590   -2.8270 C   0  0  2  0  0  0  0  0  0  0  0  0
    6.1600  -13.6190   -3.1160 C   0  0  0  0  0  0  0  0  0  0  0  0
    5.7910  -12.4280   -2.4900 C   0  0  0  0  0  0  0  0  0  0  0  0
    4.5720  -11.8470   -2.8360 C   0  0  0  0  0  0  0  0  0  0  0  0
    3.6840  -12.4460   -3.7520 C   0  0  0  0  0  0  0  0  0  0  0  0
    2.5570  -11.6580   -3.8840 O   0  0  0  0  0  0  0  0  0  0  0  0
    2.5500  -10.3730   -3.2820 C   0  0  0  0  0  0  0  0  0  0  0  0
    3.9730  -13.6910   -4.3760 C   0  0  0  0  0  0  0  0  0  0  0  0
    3.1820  -14.3210   -5.1630 O   0  0  0  0  0  0  0  0  0  0  0  0
    5.2600  -14.2200   -4.0410 C   0  0  0  0  0  0  0  0  0  0  0  0
    5.6140  -15.4890   -4.5080 O   0  0  0  0  0  0  0  0  0  0  0  0
    6.2260  -15.6020   -5.7380 C   0  0  0  0  0  0  0  0  0  0  0  0
    6.4590  -14.3980   -6.4000 C   0  0  0  0  0  0  0  0  0  0  0  0
    7.0170  -14.3830   -7.6800 C   0  0  0  0  0  0  0  0  0  0  0  0
    7.3950  -15.5770   -8.3110 C   0  0  0  0  0  0  0  0  0  0  0  0
    7.2290  -16.7790   -7.6070 C   0  0  0  0  0  0  0  0  0  0  0  0
    6.6320  -16.7910   -6.3400 C   0  0  0  0  0  0  0  0  0  0  0  0
    8.0400  -15.5020   -9.6790 C   0  0  0  0  0  0  0  0  0  0  0  0
    8.6440  -14.1240  -10.0910 C   0  0  2  0  0  0  0  0  0  0  0  0
    8.3230  -13.8860  -11.5860 N   0  0  0  0  0  0  0  0  0  0  0  0
    6.8800  -13.5210  -11.8110 C   0  0  0  0  0  0  0  0  0  0  0  0
    9.2350  -12.8510  -12.1990 C   0  0  0  0  0  0  0  0  0  0  0  0
   10.6770  -13.3310  -12.1440 C   0  0  0  0  0  0  0  0  0  0  0  0
    6.5850  -11.8210   -1.3690 C   0  0  0  0  0  0  0  0  0  0  0  0
    7.9520  -12.4460   -1.1040 C   0  0  0  0  0  0  0  0  0  0  0  0
    7.9910  -13.9520   -1.3500 N   0  0  0  0  0  0  0  0  0  0  0  0
    9.4060  -14.4630   -1.1020 C   0  0  0  0  0  0  0  0  0  0  0  0
    7.0660  -14.6940   -0.3810 C   0  0  0  0  0  0  0  0  0  0  0  0
   15.7299  -15.0720   -9.3683 H   0  0  0  0  0  0  0  0  0  0  0  0
   14.3239  -15.0344  -10.4856 H   0  0  0  0  0  0  0  0  0  0  0  0
   15.5075  -13.6832  -10.4856 H   0  0  0  0  0  0  0  0  0  0  0  0
   13.1841  -13.2703  -11.1338 H   0  0  0  0  0  0  0  0  0  0  0  0
    9.8264  -14.5172   -7.6954 H   0  0  0  0  0  0  0  0  0  0  0  0
   10.7798  -13.1332   -5.2324 H   0  0  0  0  0  0  0  0  0  0  0  0
    8.6348  -16.5878   -3.8224 H   0  0  0  0  0  0  0  0  0  0  0  0
   10.2358  -18.0483   -4.9966 H   0  0  0  0  0  0  0  0  0  0  0  0
    9.1318  -12.9610   -3.4254 H   0  0  0  0  0  0  0  0  0  0  0  0
    7.9306  -13.5124   -4.7616 H   0  0  0  0  0  0  0  0  0  0  0  0
    7.4065  -15.3518   -2.9022 H   0  0  0  0  0  0  0  0  0  0  0  0
    4.2932  -10.8867   -2.3777 H   0  0  0  0  0  0  0  0  0  0  0  0
    2.5506  -10.4809   -2.1873 H   0  0  0  0  0  0  0  0  0  0  0  0
    3.4451   -9.8161   -3.5960 H   0  0  0  0  0  0  0  0  0  0  0  0
    1.6489   -9.8259   -3.5960 H   0  0  0  0  0  0  0  0  0  0  0  0
    6.2004  -13.4485   -5.9085 H   0  0  0  0  0  0  0  0  0  0  0  0
    7.1617  -13.4240   -8.1991 H   0  0  0  0  0  0  0  0  0  0  0  0
    7.5717  -17.7232   -8.0553 H   0  0  0  0  0  0  0  0  0  0  0  0
    6.4825  -17.7467   -5.8162 H   0  0  0  0  0  0  0  0  0  0  0  0
    8.8516  -16.2439   -9.7066 H   0  0  0  0  0  0  0  0  0  0  0  0
    7.2255  -15.6876  -10.3946 H   0  0  0  0  0  0  0  0  0  0  0  0
    8.1834  -13.3242   -9.4925 H   0  0  0  0  0  0  0  0  0  0  0  0
    8.5130  -14.7800  -12.0560 H   0  0  0  0  0  0  0  0  0  0  0  0
    6.3782  -13.3941  -10.8404 H   0  0  0  0  0  0  0  0  0  0  0  0
    6.8239  -12.5804  -12.3785 H   0  0  0  0  0  0  0  0  0  0  0  0
    6.3834  -14.3218  -12.3785 H   0  0  0  0  0  0  0  0  0  0  0  0
    8.9458  -12.6857  -13.2473 H   0  0  0  0  0  0  0  0  0  0  0  0
    9.1454  -11.9110  -11.6348 H   0  0  0  0  0  0  0  0  0  0  0  0
   10.7772  -14.2416  -12.7529 H   0  0  0  0  0  0  0  0  0  0  0  0
   11.3281  -12.5349  -12.5344 H   0  0  0  0  0  0  0  0  0  0  0  0
    6.7407  -10.7577   -1.6038 H   0  0  0  0  0  0  0  0  0  0  0  0
    5.9955  -11.9984   -0.4574 H   0  0  0  0  0  0  0  0  0  0  0  0
    8.6884  -11.9660   -1.7653 H   0  0  0  0  0  0  0  0  0  0  0  0
    8.1801  -12.2860   -0.0399 H   0  0  0  0  0  0  0  0  0  0  0  0
    9.5876  -14.5286   -0.0191 H   0  0  0  0  0  0  0  0  0  0  0  0
    9.5205  -15.4593   -1.5540 H   0  0  0  0  0  0  0  0  0  0  0  0
   10.1307  -13.7698   -1.5540 H   0  0  0  0  0  0  0  0  0  0  0  0
    7.3564  -14.4610    0.6541 H   0  0  0  0  0  0  0  0  0  0  0  0
    6.0266  -14.3764   -0.5505 H   0  0  0  0  0  0  0  0  0  0  0  0
    7.1506  -15.7776   -0.5505 H   0  0  0  0  0  0  0  0  0  0  0  0
  1  2  1  0
  2  3  1  0
  3  4  2  0
  4  5  1  0
  5  6  2  0
  6  7  1  0
  7  8  2  0
  8  9  1  0
  9 10  1  0
 10 11  2  0
 11 12  1  0
 12 13  2  0
 13 14  1  0
 14 15  2  0
 15 16  1  0
 12 17  1  0
 17 18  1  0
 18 19  1  0
 19 20  2  0
 20 21  1  0
 21 22  2  0
 22 23  1  0
 23 24  1  0
 22 25  1  0
 25 26  1  0
 25 27  2  0
 27 28  1  0
 28 29  1  0
 29 30  2  0
 30 31  1  0
 31 32  2  0
 32 33  1  0
 33 34  2  0
 32 35  1  0
 35 36  1  0
 36 37  1  0
 37 38  1  0
 37 39  1  0
 39 40  1  0
 20 41  1  0
 41 42  1  0
 42 43  1  0
 43 44  1  0
 43 45  1  0
  8  3  1  0
 15 10  1  0
 43 18  1  0
 40  5  1  0
 36  6  1  0
 27 19  1  0
 34 29  1  0
  1 46  1  0
  1 47  1  0
  1 48  1  0
  4 49  1  0
  7 50  1  0
 11 51  1  0
 13 52  1  0
 14 53  1  0
 17 54  1  0
 17 55  1  0
 18 56  1  1
 21 57  1  0
 24 58  1  0
 24 59  1  0
 24 60  1  0
 30 61  1  0
 31 62  1  0
 33 63  1  0
 34 64  1  0
 35 65  1  0
 35 66  1  0
 36 67  1  1
 37 68  1  0
 38 69  1  0
 38 70  1  0
 38 71  1  0
 39 72  1  0
 39 73  1  0
 40 74  1  0
 40 75  1  0
 41 76  1  0
 41 77  1  0
 42 78  1  0
 42 79  1  0
 44 80  1  0
 44 81  1  0
 44 82  1  0
 45 83  1  0
 45 84  1  0
 45 85  1  0
M  CHG  4  16  -1  26  -1  37   1  43   1
M  END
>  <meeko>  (1) 
{"is_sidechain": [false], "free_energy": -7.022, "intermolecular_energy": -10.717, "internal_energy": -0.541}

$$$$
LIB_JFJZZMVDLULRGK__M_PUB_ALL__e8__s20260927
     RDKit          3D

 85 91  0  0  0  0  0  0  0  0999 V2000
   -3.5730  -14.8390    2.8790 C   0  0  0  0  0  0  0  0  0  0  0  0
   -2.3160  -14.1570    2.8020 O   0  0  0  0  0  0  0  0  0  0  0  0
   -1.2580  -15.0270    2.7300 C   0  0  0  0  0  0  0  0  0  0  0  0
   -1.2670  -16.0570    3.6760 C   0  0  0  0  0  0  0  0  0  0  0  0
   -0.2350  -17.0080    3.7240 C   0  0  0  0  0  0  0  0  0  0  0  0
    0.8250  -16.9360    2.8050 C   0  0  0  0  0  0  0  0  0  0  0  0
    0.8430  -15.8640    1.8990 C   0  0  0  0  0  0  0  0  0  0  0  0
   -0.1910  -14.9160    1.8390 C   0  0  0  0  0  0  0  0  0  0  0  0
   -0.1510  -13.8390    0.9710 O   0  0  0  0  0  0  0  0  0  0  0  0
    0.5280  -14.0420   -0.2240 C   0  0  0  0  0  0  0  0  0  0  0  0
    1.8470  -13.5550   -0.2580 C   0  0  0  0  0  0  0  0  0  0  0  0
    2.6890  -13.8400   -1.3370 C   0  0  0  0  0  0  0  0  0  0  0  0
    2.1380  -14.5430   -2.4050 C   0  0  0  0  0  0  0  0  0  0  0  0
    0.7950  -14.9550   -2.3840 C   0  0  0  0  0  0  0  0  0  0  0  0
   -0.0680  -14.7480   -1.2950 C   0  0  0  0  0  0  0  0  0  0  0  0
   -1.2620  -15.2000   -1.3080 O   0  0  0  0  0  0  0  0  0  0  0  0
    4.1520  -13.4910   -1.1930 C   0  0  0  0  0  0  0  0  0  0  0  0
    5.1060  -13.5810   -2.4410 C   0  0  2  0  0  0  0  0  0  0  0  0
    6.5200  -13.8600   -1.9580 C   0  0  0  0  0  0  0  0  0  0  0  0
    7.4120  -12.8110   -1.7340 C   0  0  0  0  0  0  0  0  0  0  0  0
    8.6770  -13.1140   -1.2310 C   0  0  0  0  0  0  0  0  0  0  0  0
    9.0970  -14.4380   -0.9910 C   0  0  0  0  0  0  0  0  0  0  0  0
   10.3930  -14.4310   -0.5130 O   0  0  0  0  0  0  0  0  0  0  0  0
   11.2460  -13.3560   -0.8750 C   0  0  0  0  0  0  0  0  0  0  0  0
    8.2570  -15.5540   -1.2600 C   0  0  0  0  0  0  0  0  0  0  0  0
    8.6000  -16.7810   -1.1290 O   0  0  0  0  0  0  0  0  0  0  0  0
    6.9480  -15.1940   -1.7150 C   0  0  0  0  0  0  0  0  0  0  0  0
    6.0680  -16.2060   -2.1120 O   0  0  0  0  0  0  0  0  0  0  0  0
    5.2090  -16.7490   -1.1820 C   0  0  0  0  0  0  0  0  0  0  0  0
    4.1660  -17.5100   -1.7070 C   0  0  0  0  0  0  0  0  0  0  0  0
    3.1920  -18.0620   -0.8710 C   0  0  0  0  0  0  0  0  0  0  0  0
    3.2660  -17.8980    0.5200 C   0  0  0  0  0  0  0  0  0  0  0  0
    4.3610  -17.1970    1.0470 C   0  0  0  0  0  0  0  0  0  0  0  0
    5.3110  -16.6120    0.2010 C   0  0  0  0  0  0  0  0  0  0  0  0
    2.2120  -18.5580    1.3840 C   0  0  0  0  0  0  0  0  0  0  0  0
    1.9760  -17.9340    2.7940 C   0  0  2  0  0  0  0  0  0  0  0  0
    1.7850  -19.0910    3.8040 N   0  0  0  0  0  0  0  0  0  0  0  0
    3.0790  -19.7850    4.1330 C   0  0  0  0  0  0  0  0  0  0  0  0
    1.0950  -18.6270    5.0650 C   0  0  0  0  0  0  0  0  0  0  0  0
   -0.2980  -18.1130    4.7370 C   0  0  0  0  0  0  0  0  0  0  0  0
    7.1180  -11.3950   -2.1370 C   0  0  0  0  0  0  0  0  0  0  0  0
    5.6880  -11.1120   -2.5900 C   0  0  0  0  0  0  0  0  0  0  0  0
    5.0460  -12.2770   -3.3390 N   0  0  0  0  0  0  0  0  0  0  0  0
    3.6120  -11.9080   -3.7030 C   0  0  0  0  0  0  0  0  0  0  0  0
    5.7850  -12.5650   -4.6500 C   0  0  0  0  0  0  0  0  0  0  0  0
   -3.8458  -14.9870    3.9343 H   0  0  0  0  0  0  0  0  0  0  0  0
   -4.3476  -14.2375    2.3809 H   0  0  0  0  0  0  0  0  0  0  0  0
   -3.4910  -15.8163    2.3809 H   0  0  0  0  0  0  0  0  0  0  0  0
   -2.0969  -16.1233    4.3949 H   0  0  0  0  0  0  0  0  0  0  0  0
    1.6965  -15.7632    1.2124 H   0  0  0  0  0  0  0  0  0  0  0  0
    2.2210  -12.9419    0.5752 H   0  0  0  0  0  0  0  0  0  0  0  0
    2.7636  -14.7794   -3.2784 H   0  0  0  0  0  0  0  0  0  0  0  0
    0.3964  -15.4691   -3.2710 H   0  0  0  0  0  0  0  0  0  0  0  0
    4.1973  -12.4529   -0.8322 H   0  0  0  0  0  0  0  0  0  0  0  0
    4.5354  -14.2747   -0.5231 H   0  0  0  0  0  0  0  0  0  0  0  0
    4.7673  -14.4058   -3.0852 H   0  0  0  0  0  0  0  0  0  0  0  0
    9.3723  -12.2898   -1.0136 H   0  0  0  0  0  0  0  0  0  0  0  0
   11.6308  -12.8711    0.0343 H   0  0  0  0  0  0  0  0  0  0  0  0
   12.0877  -13.7401   -1.4699 H   0  0  0  0  0  0  0  0  0  0  0  0
   10.6806  -12.6236   -1.4699 H   0  0  0  0  0  0  0  0  0  0  0  0
    4.1089  -17.6781   -2.7926 H   0  0  0  0  0  0  0  0  0  0  0  0
    2.3584  -18.6311   -1.3083 H   0  0  0  0  0  0  0  0  0  0  0  0
    4.4745  -17.1059    2.1373 H   0  0  0  0  0  0  0  0  0  0  0  0
    6.1453  -16.0391    0.6319 H   0  0  0  0  0  0  0  0  0  0  0  0
    1.2585  -18.5177    0.8370 H   0  0  0  0  0  0  0  0  0  0  0  0
    2.5871  -19.5743    1.5749 H   0  0  0  0  0  0  0  0  0  0  0  0
    2.8537  -17.3399    3.0884 H   0  0  0  0  0  0  0  0  0  0  0  0
    1.1590  -19.7630    3.3420 H   0  0  0  0  0  0  0  0  0  0  0  0
    3.1945  -19.8469    5.2252 H   0  0  0  0  0  0  0  0  0  0  0  0
    3.0697  -20.7992    3.7072 H   0  0  0  0  0  0  0  0  0  0  0  0
    3.9187  -19.2162    3.7072 H   0  0  0  0  0  0  0  0  0  0  0  0
    1.0162  -19.4693    5.7681 H   0  0  0  0  0  0  0  0  0  0  0  0
    1.6816  -17.8150    5.5195 H   0  0  0  0  0  0  0  0  0  0  0  0
   -0.9008  -18.9392    4.3320 H   0  0  0  0  0  0  0  0  0  0  0  0
   -0.7542  -17.7207    5.6578 H   0  0  0  0  0  0  0  0  0  0  0  0
    7.3319  -10.7479   -1.2736 H   0  0  0  0  0  0  0  0  0  0  0  0
    7.7517  -11.1984   -3.0144 H   0  0  0  0  0  0  0  0  0  0  0  0
    5.0784  -10.8908   -1.7015 H   0  0  0  0  0  0  0  0  0  0  0  0
    5.7311  -10.2626   -3.2876 H   0  0  0  0  0  0  0  0  0  0  0  0
    3.0274  -11.7576   -2.7834 H   0  0  0  0  0  0  0  0  0  0  0  0
    3.6109  -10.9803   -4.2941 H   0  0  0  0  0  0  0  0  0  0  0  0
    3.1632  -12.7199   -4.2941 H   0  0  0  0  0  0  0  0  0  0  0  0
    6.7886  -12.9561   -4.4269 H   0  0  0  0  0  0  0  0  0  0  0  0
    5.2223  -13.3097   -5.2321 H   0  0  0  0  0  0  0  0  0  0  0  0
    5.8746  -11.6360   -5.2321 H   0  0  0  0  0  0  0  0  0  0  0  0
  1  2  1  0
  2  3  1  0
  3  4  2  0
  4  5  1  0
  5  6  2  0
  6  7  1  0
  7  8  2  0
  8  9  1  0
  9 10  1  0
 10 11  2  0
 11 12  1  0
 12 13  2  0
 13 14  1  0
 14 15  2  0
 15 16  1  0
 12 17  1  0
 17 18  1  0
 18 19  1  0
 19 20  2  0
 20 21  1  0
 21 22  2  0
 22 23  1  0
 23 24  1  0
 22 25  1  0
 25 26  1  0
 25 27  2  0
 27 28  1  0
 28 29  1  0
 29 30  2  0
 30 31  1  0
 31 32  2  0
 32 33  1  0
 33 34  2  0
 32 35  1  0
 35 36  1  0
 36 37  1  0
 37 38  1  0
 37 39  1  0
 39 40  1  0
 20 41  1  0
 41 42  1  0
 42 43  1  0
 43 44  1  0
 43 45  1  0
  8  3  1  0
 15 10  1  0
 43 18  1  0
 40  5  1  0
 36  6  1  0
 27 19  1  0
 34 29  1  0
  1 46  1  0
  1 47  1  0
  1 48  1  0
  4 49  1  0
  7 50  1  0
 11 51  1  0
 13 52  1  0
 14 53  1  0
 17 54  1  0
 17 55  1  0
 18 56  1  6
 21 57  1  0
 24 58  1  0
 24 59  1  0
 24 60  1  0
 30 61  1  0
 31 62  1  0
 33 63  1  0
 34 64  1  0
 35 65  1  0
 35 66  1  0
 36 67  1  1
 37 68  1  0
 38 69  1  0
 38 70  1  0
 38 71  1  0
 39 72  1  0
 39 73  1  0
 40 74  1  0
 40 75  1  0
 41 76  1  0
 41 77  1  0
 42 78  1  0
 42 79  1  0
 44 80  1  0
 44 81  1  0
 44 82  1  0
 45 83  1  0
 45 84  1  0
 45 85  1  0
M  CHG  4  16  -1  26  -1  37   1  43   1
M  END
>  <meeko>  (2) 
{"is_sidechain": [false], "free_energy": -6.99, "intermolecular_energy": -10.703, "internal_energy": -0.504}

$$$$
LIB_JFJZZMVDLULRGK__M_PUB_ALL__e8__s20260927
     RDKit          3D

 85 91  0  0  0  0  0  0  0  0999 V2000
    7.0800  -19.2280   -2.2960 C   0  0  0  0  0  0  0  0  0  0  0  0
    5.9430  -18.4020   -2.5710 O   0  0  0  0  0  0  0  0  0  0  0  0
    6.0800  -17.1410   -2.0460 C   0  0  0  0  0  0  0  0  0  0  0  0
    7.3860  -16.6400   -2.0290 C   0  0  0  0  0  0  0  0  0  0  0  0
    7.6690  -15.3690   -1.5040 C   0  0  0  0  0  0  0  0  0  0  0  0
    6.6280  -14.5760   -0.9930 C   0  0  0  0  0  0  0  0  0  0  0  0
    5.3340  -15.1180   -0.9700 C   0  0  0  0  0  0  0  0  0  0  0  0
    5.0420  -16.3840   -1.5020 C   0  0  0  0  0  0  0  0  0  0  0  0
    3.7730  -16.9320   -1.4430 O   0  0  0  0  0  0  0  0  0  0  0  0
    3.2560  -17.1400   -0.1700 C   0  0  0  0  0  0  0  0  0  0  0  0
    2.5340  -16.0610    0.3720 C   0  0  0  0  0  0  0  0  0  0  0  0
    1.8280  -16.2010    1.5690 C   0  0  0  0  0  0  0  0  0  0  0  0
    1.9450  -17.4160    2.2400 C   0  0  0  0  0  0  0  0  0  0  0  0
    2.7340  -18.4550    1.7190 C   0  0  0  0  0  0  0  0  0  0  0  0
    3.4080  -18.3830    0.4880 C   0  0  0  0  0  0  0  0  0  0  0  0
    4.0610  -19.3830    0.0370 O   0  0  0  0  0  0  0  0  0  0  0  0
    0.8870  -15.0840    1.9600 C   0  0  0  0  0  0  0  0  0  0  0  0
   -0.4780  -14.9100    1.1810 C   0  0  2  0  0  0  0  0  0  0  0  0
   -0.9440  -13.4760    1.3750 C   0  0  0  0  0  0  0  0  0  0  0  0
   -1.8290  -13.1510    2.4030 C   0  0  0  0  0  0  0  0  0  0  0  0
   -2.1770  -11.8130    2.5780 C   0  0  0  0  0  0  0  0  0  0  0  0
   -1.7070  -10.7920    1.7270 C   0  0  0  0  0  0  0  0  0  0  0  0
   -2.2270   -9.5780    2.1310 O   0  0  0  0  0  0  0  0  0  0  0  0
   -1.6400   -8.9220    3.2440 C   0  0  0  0  0  0  0  0  0  0  0  0
   -0.8530  -11.0680    0.6230 C   0  0  0  0  0  0  0  0  0  0  0  0
   -0.4460  -10.1990   -0.2260 O   0  0  0  0  0  0  0  0  0  0  0  0
   -0.4710  -12.4430    0.5180 C   0  0  0  0  0  0  0  0  0  0  0  0
    0.2800  -12.8540   -0.5870 O   0  0  0  0  0  0  0  0  0  0  0  0
    1.6410  -12.6370   -0.5900 C   0  0  0  0  0  0  0  0  0  0  0  0
    2.2500  -12.6940   -1.8420 C   0  0  0  0  0  0  0  0  0  0  0  0
    3.6340  -12.5520   -1.9700 C   0  0  0  0  0  0  0  0  0  0  0  0
    4.4360  -12.3060   -0.8460 C   0  0  0  0  0  0  0  0  0  0  0  0
    3.8060  -12.1730    0.4000 C   0  0  0  0  0  0  0  0  0  0  0  0
    2.4240  -12.3570    0.5280 C   0  0  0  0  0  0  0  0  0  0  0  0
    5.9240  -12.1120   -1.0460 C   0  0  0  0  0  0  0  0  0  0  0  0
    6.8600  -13.1870   -0.4120 C   0  0  2  0  0  0  0  0  0  0  0  0
    8.3210  -12.7020   -0.5650 N   0  0  0  0  0  0  0  0  0  0  0  0
    8.6590  -11.5890    0.3900 C   0  0  0  0  0  0  0  0  0  0  0  0
    9.3070  -13.8370   -0.4280 C   0  0  0  0  0  0  0  0  0  0  0  0
    9.0800  -14.8590   -1.5310 C   0  0  0  0  0  0  0  0  0  0  0  0
   -2.5230  -14.1900    3.2350 C   0  0  0  0  0  0  0  0  0  0  0  0
   -2.0300  -15.6240    3.0610 C   0  0  0  0  0  0  0  0  0  0  0  0
   -1.5850  -15.9460    1.6370 N   0  0  0  0  0  0  0  0  0  0  0  0
   -1.0710  -17.3810    1.5860 C   0  0  0  0  0  0  0  0  0  0  0  0
   -2.7600  -15.8530    0.6570 C   0  0  0  0  0  0  0  0  0  0  0  0
    7.2100  -19.3224   -1.2078 H   0  0  0  0  0  0  0  0  0  0  0  0
    6.9238  -20.2247   -2.7345 H   0  0  0  0  0  0  0  0  0  0  0  0
    7.9796  -18.7714   -2.7345 H   0  0  0  0  0  0  0  0  0  0  0  0
    8.2052  -17.2523   -2.4339 H   0  0  0  0  0  0  0  0  0  0  0  0
    4.5202  -14.5307   -0.5196 H   0  0  0  0  0  0  0  0  0  0  0  0
    2.5254  -15.0948   -0.1536 H   0  0  0  0  0  0  0  0  0  0  0  0
    1.4123  -17.5640    3.1909 H   0  0  0  0  0  0  0  0  0  0  0  0
    2.8298  -19.3785    2.3089 H   0  0  0  0  0  0  0  0  0  0  0  0
    0.6340  -15.2345    3.0199 H   0  0  0  0  0  0  0  0  0  0  0  0
    1.4478  -14.1721    1.7071 H   0  0  0  0  0  0  0  0  0  0  0  0
   -0.3107  -15.1201    0.1143 H   0  0  0  0  0  0  0  0  0  0  0  0
   -2.8430  -11.5435    3.4109 H   0  0  0  0  0  0  0  0  0  0  0  0
   -2.0307   -9.3587    4.1749 H   0  0  0  0  0  0  0  0  0  0  0  0
   -0.5478   -9.0483    3.2099 H   0  0  0  0  0  0  0  0  0  0  0  0
   -1.8864   -7.8505    3.2099 H   0  0  0  0  0  0  0  0  0  0  0  0
    1.6342  -12.8526   -2.7396 H   0  0  0  0  0  0  0  0  0  0  0  0
    4.0997  -12.6340   -2.9632 H   0  0  0  0  0  0  0  0  0  0  0  0
    4.4050  -11.9210    1.2875 H   0  0  0  0  0  0  0  0  0  0  0  0
    1.9527  -12.2799    1.5189 H   0  0  0  0  0  0  0  0  0  0  0  0
    6.1163  -12.0990   -2.1290 H   0  0  0  0  0  0  0  0  0  0  0  0
    6.1666  -11.1734   -0.5262 H   0  0  0  0  0  0  0  0  0  0  0  0
    6.6282  -13.2966    0.6577 H   0  0  0  0  0  0  0  0  0  0  0  0
    8.3970  -12.3450   -1.5260 H   0  0  0  0  0  0  0  0  0  0  0  0
    8.5501  -11.9475    1.4242 H   0  0  0  0  0  0  0  0  0  0  0  0
    9.6964  -11.2640    0.2219 H   0  0  0  0  0  0  0  0  0  0  0  0
    7.9776  -10.7420    0.2219 H   0  0  0  0  0  0  0  0  0  0  0  0
   10.3306  -13.4414   -0.5030 H   0  0  0  0  0  0  0  0  0  0  0  0
    9.1654  -14.3225    0.5489 H   0  0  0  0  0  0  0  0  0  0  0  0
    9.2740  -14.3869   -2.5054 H   0  0  0  0  0  0  0  0  0  0  0  0
    9.7637  -15.7060   -1.3725 H   0  0  0  0  0  0  0  0  0  0  0  0
   -2.3943  -13.9157    4.2924 H   0  0  0  0  0  0  0  0  0  0  0  0
   -3.5692  -14.1924    2.8952 H   0  0  0  0  0  0  0  0  0  0  0  0
   -1.1769  -15.7833    3.7369 H   0  0  0  0  0  0  0  0  0  0  0  0
   -2.8759  -16.2875    3.2936 H   0  0  0  0  0  0  0  0  0  0  0  0
   -0.9357  -17.7586    2.6103 H   0  0  0  0  0  0  0  0  0  0  0  0
   -1.7988  -18.0125    1.0555 H   0  0  0  0  0  0  0  0  0  0  0  0
   -0.1077  -17.4068    1.0555 H   0  0  0  0  0  0  0  0  0  0  0  0
   -3.7020  -15.7784    1.2200 H   0  0  0  0  0  0  0  0  0  0  0  0
   -2.6397  -14.9616    0.0239 H   0  0  0  0  0  0  0  0  0  0  0  0
   -2.7814  -16.7523    0.0239 H   0  0  0  0  0  0  0  0  0  0  0  0
  1  2  1  0
  2  3  1  0
  3  4  2  0
  4  5  1  0
  5  6  2  0
  6  7  1  0
  7  8  2  0
  8  9  1  0
  9 10  1  0
 10 11  2  0
 11 12  1  0
 12 13  2  0
 13 14  1  0
 14 15  2  0
 15 16  1  0
 12 17  1  0
 17 18  1  0
 18 19  1  0
 19 20  2  0
 20 21  1  0
 21 22  2  0
 22 23  1  0
 23 24  1  0
 22 25  1  0
 25 26  1  0
 25 27  2  0
 27 28  1  0
 28 29  1  0
 29 30  2  0
 30 31  1  0
 31 32  2  0
 32 33  1  0
 33 34  2  0
 32 35  1  0
 35 36  1  0
 36 37  1  0
 37 38  1  0
 37 39  1  0
 39 40  1  0
 20 41  1  0
 41 42  1  0
 42 43  1  0
 43 44  1  0
 43 45  1  0
  8  3  1  0
 15 10  1  0
 43 18  1  0
 40  5  1  0
 36  6  1  0
 27 19  1  0
 34 29  1  0
  1 46  1  0
  1 47  1  0
  1 48  1  0
  4 49  1  0
  7 50  1  0
 11 51  1  0
 13 52  1  0
 14 53  1  0
 17 54  1  0
 17 55  1  0
 18 56  1  6
 21 57  1  0
 24 58  1  0
 24 59  1  0
 24 60  1  0
 30 61  1  0
 31 62  1  0
 33 63  1  0
 34 64  1  0
 35 65  1  0
 35 66  1  0
 36 67  1  1
 37 68  1  0
 38 69  1  0
 38 70  1  0
 38 71  1  0
 39 72  1  0
 39 73  1  0
 40 74  1  0
 40 75  1  0
 41 76  1  0
 41 77  1  0
 42 78  1  0
 42 79  1  0
 44 80  1  0
 44 81  1  0
 44 82  1  0
 45 83  1  0
 45 84  1  0
 45 85  1  0
M  CHG  4  16  -1  26  -1  37   1  43   1
M  END
>  <meeko>  (3) 
{"is_sidechain": [false], "free_energy": -6.414, "intermolecular_energy": -10.54, "internal_energy": 0.21}

$$$$
LIB_JFJZZMVDLULRGK__M_PUB_ALL__e8__s20260927
     RDKit          3D

 85 91  0  0  0  0  0  0  0  0999 V2000
   -5.0240  -13.0760    2.3030 C   0  0  0  0  0  0  0  0  0  0  0  0
   -4.2040  -13.7600    1.3480 O   0  0  0  0  0  0  0  0  0  0  0  0
   -3.1440  -14.3990    1.9410 C   0  0  0  0  0  0  0  0  0  0  0  0
   -3.4160  -14.9800    3.1840 C   0  0  0  0  0  0  0  0  0  0  0  0
   -2.4160  -15.6500    3.9070 C   0  0  0  0  0  0  0  0  0  0  0  0
   -1.1190  -15.7520    3.3760 C   0  0  0  0  0  0  0  0  0  0  0  0
   -0.8530  -15.1170    2.1530 C   0  0  0  0  0  0  0  0  0  0  0  0
   -1.8510  -14.4540    1.4210 C   0  0  0  0  0  0  0  0  0  0  0  0
   -1.5770  -13.7950    0.2350 O   0  0  0  0  0  0  0  0  0  0  0  0
   -0.6550  -12.7580    0.3100 C   0  0  0  0  0  0  0  0  0  0  0  0
    0.6680  -13.1020   -0.0200 C   0  0  0  0  0  0  0  0  0  0  0  0
    1.6540  -12.1200   -0.1430 C   0  0  0  0  0  0  0  0  0  0  0  0
    1.2900  -10.8110    0.1640 C   0  0  0  0  0  0  0  0  0  0  0  0
   -0.0190  -10.5000    0.5660 C   0  0  0  0  0  0  0  0  0  0  0  0
   -1.0580  -11.4430    0.6400 C   0  0  0  0  0  0  0  0  0  0  0  0
   -2.2440  -11.0900    0.9540 O   0  0  0  0  0  0  0  0  0  0  0  0
    2.9820  -12.5330   -0.7320 C   0  0  0  0  0  0  0  0  0  0  0  0
    3.0880  -12.9840   -2.2470 C   0  0  2  0  0  0  0  0  0  0  0  0
    4.0920  -14.1210   -2.3480 C   0  0  0  0  0  0  0  0  0  0  0  0
    5.4260  -13.8630   -2.6620 C   0  0  0  0  0  0  0  0  0  0  0  0
    6.3210  -14.9320   -2.6800 C   0  0  0  0  0  0  0  0  0  0  0  0
    5.9140  -16.2600   -2.4430 C   0  0  0  0  0  0  0  0  0  0  0  0
    7.0060  -17.1010   -2.5420 O   0  0  0  0  0  0  0  0  0  0  0  0
    8.0600  -16.9620   -1.6020 C   0  0  0  0  0  0  0  0  0  0  0  0
    4.5570  -16.5960   -2.1800 C   0  0  0  0  0  0  0  0  0  0  0  0
    4.1110  -17.7870   -2.0240 O   0  0  0  0  0  0  0  0  0  0  0  0
    3.6860  -15.4630   -2.1090 C   0  0  0  0  0  0  0  0  0  0  0  0
    2.3110  -15.6750   -1.9610 O   0  0  0  0  0  0  0  0  0  0  0  0
    1.8350  -16.1690   -0.7660 C   0  0  0  0  0  0  0  0  0  0  0  0
    2.4620  -15.6710    0.3750 C   0  0  0  0  0  0  0  0  0  0  0  0
    2.1120  -16.1400    1.6440 C   0  0  0  0  0  0  0  0  0  0  0  0
    1.0930  -17.0900    1.8010 C   0  0  0  0  0  0  0  0  0  0  0  0
    0.4150  -17.5280    0.6550 C   0  0  0  0  0  0  0  0  0  0  0  0
    0.7970  -17.0860   -0.6180 C   0  0  0  0  0  0  0  0  0  0  0  0
    0.7210  -17.5290    3.2020 C   0  0  0  0  0  0  0  0  0  0  0  0
    0.0140  -16.4680    4.1000 C   0  0  2  0  0  0  0  0  0  0  0  0
   -0.4460  -17.1700    5.4010 N   0  0  0  0  0  0  0  0  0  0  0  0
    0.6990  -17.4570    6.3330 C   0  0  0  0  0  0  0  0  0  0  0  0
   -1.5260  -16.3880    6.1090 C   0  0  0  0  0  0  0  0  0  0  0  0
   -2.7580  -16.2820    5.2240 C   0  0  0  0  0  0  0  0  0  0  0  0
    5.9080  -12.5140   -3.1100 C   0  0  0  0  0  0  0  0  0  0  0  0
    4.9080  -11.3680   -2.9770 C   0  0  0  0  0  0  0  0  0  0  0  0
    3.4620  -11.7920   -3.2210 N   0  0  0  0  0  0  0  0  0  0  0  0
    2.5470  -10.5890   -3.0180 C   0  0  0  0  0  0  0  0  0  0  0  0
    3.2630  -12.2720   -4.6620 C   0  0  0  0  0  0  0  0  0  0  0  0
   -4.7030  -13.3438    3.3205 H   0  0  0  0  0  0  0  0  0  0  0  0
   -4.9240  -11.9898    2.1609 H   0  0  0  0  0  0  0  0  0  0  0  0
   -6.0746  -13.3692    2.1609 H   0  0  0  0  0  0  0  0  0  0  0  0
   -4.4310  -14.9108    3.6024 H   0  0  0  0  0  0  0  0  0  0  0  0
    0.1720  -15.1395    1.7544 H   0  0  0  0  0  0  0  0  0  0  0  0
    0.9299  -14.1578   -0.1834 H   0  0  0  0  0  0  0  0  0  0  0  0
    2.0392  -10.0089    0.0904 H   0  0  0  0  0  0  0  0  0  0  0  0
   -0.2439   -9.4583    0.8386 H   0  0  0  0  0  0  0  0  0  0  0  0
    3.6600  -11.6753   -0.6110 H   0  0  0  0  0  0  0  0  0  0  0  0
    3.2176  -13.4569   -0.1834 H   0  0  0  0  0  0  0  0  0  0  0  0
    2.0967  -13.3296   -2.5756 H   0  0  0  0  0  0  0  0  0  0  0  0
    7.3827  -14.7315   -2.8866 H   0  0  0  0  0  0  0  0  0  0  0  0
    7.6513  -17.0159   -0.5822 H   0  0  0  0  0  0  0  0  0  0  0  0
    8.7903  -17.7716   -1.7476 H   0  0  0  0  0  0  0  0  0  0  0  0
    8.5554  -15.9907   -1.7476 H   0  0  0  0  0  0  0  0  0  0  0  0
    3.2407  -14.9005    0.2754 H   0  0  0  0  0  0  0  0  0  0  0  0
    2.6420  -15.7595    2.5297 H   0  0  0  0  0  0  0  0  0  0  0  0
   -0.4277  -18.2277    0.7567 H   0  0  0  0  0  0  0  0  0  0  0  0
    0.2733  -17.4659   -1.5076 H   0  0  0  0  0  0  0  0  0  0  0  0
    0.0471  -18.3938    3.1131 H   0  0  0  0  0  0  0  0  0  0  0  0
    1.6766  -17.7433    3.7028 H   0  0  0  0  0  0  0  0  0  0  0  0
    0.7233  -15.6667    4.3545 H   0  0  0  0  0  0  0  0  0  0  0  0
   -0.8590  -18.0630    5.1030 H   0  0  0  0  0  0  0  0  0  0  0  0
    0.3548  -17.3707    7.3742 H   0  0  0  0  0  0  0  0  0  0  0  0
    1.0715  -18.4763    6.1532 H   0  0  0  0  0  0  0  0  0  0  0  0
    1.5082  -16.7339    6.1532 H   0  0  0  0  0  0  0  0  0  0  0  0
   -1.7930  -16.9010    7.0447 H   0  0  0  0  0  0  0  0  0  0  0  0
   -1.1530  -15.3771    6.3304 H   0  0  0  0  0  0  0  0  0  0  0  0
   -3.1620  -17.2896    5.0463 H   0  0  0  0  0  0  0  0  0  0  0  0
   -3.5043  -15.6542    5.7328 H   0  0  0  0  0  0  0  0  0  0  0  0
    6.7950  -12.2578   -2.5120 H   0  0  0  0  0  0  0  0  0  0  0  0
    6.1049  -12.6123   -4.1878 H   0  0  0  0  0  0  0  0  0  0  0  0
    4.9834  -10.9561   -1.9598 H   0  0  0  0  0  0  0  0  0  0  0  0
    5.1623  -10.6249   -3.7472 H   0  0  0  0  0  0  0  0  0  0  0  0
    2.4106  -10.4096   -1.9413 H   0  0  0  0  0  0  0  0  0  0  0  0
    3.0001   -9.7011   -3.4831 H   0  0  0  0  0  0  0  0  0  0  0  0
    1.5703  -10.7885   -3.4831 H   0  0  0  0  0  0  0  0  0  0  0  0
    2.8417  -13.2881   -4.6551 H   0  0  0  0  0  0  0  0  0  0  0  0
    2.5725  -11.5923   -5.1828 H   0  0  0  0  0  0  0  0  0  0  0  0
    4.2319  -12.2803   -5.1828 H   0  0  0  0  0  0  0  0  0  0  0  0
  1  2  1  0
  2  3  1  0
  3  4  2  0
  4  5  1  0
  5  6  2  0
  6  7  1  0
  7  8  2  0
  8  9  1  0
  9 10  1  0
 10 11  2  0
 11 12  1  0
 12 13  2  0
 13 14  1  0
 14 15  2  0
 15 16  1  0
 12 17  1  0
 17 18  1  0
 18 19  1  0
 19 20  2  0
 20 21  1  0
 21 22  2  0
 22 23  1  0
 23 24  1  0
 22 25  1  0
 25 26  1  0
 25 27  2  0
 27 28  1  0
 28 29  1  0
 29 30  2  0
 30 31  1  0
 31 32  2  0
 32 33  1  0
 33 34  2  0
 32 35  1  0
 35 36  1  0
 36 37  1  0
 37 38  1  0
 37 39  1  0
 39 40  1  0
 20 41  1  0
 41 42  1  0
 42 43  1  0
 43 44  1  0
 43 45  1  0
  8  3  1  0
 15 10  1  0
 43 18  1  0
 40  5  1  0
 36  6  1  0
 27 19  1  0
 34 29  1  0
  1 46  1  0
  1 47  1  0
  1 48  1  0
  4 49  1  0
  7 50  1  0
 11 51  1  0
 13 52  1  0
 14 53  1  0
 17 54  1  0
 17 55  1  0
 18 56  1  6
 21 57  1  0
 24 58  1  0
 24 59  1  0
 24 60  1  0
 30 61  1  0
 31 62  1  0
 33 63  1  0
 34 64  1  0
 35 65  1  0
 35 66  1  0
 36 67  1  1
 37 68  1  0
 38 69  1  0
 38 70  1  0
 38 71  1  0
 39 72  1  0
 39 73  1  0
 40 74  1  0
 40 75  1  0
 41 76  1  0
 41 77  1  0
 42 78  1  0
 42 79  1  0
 44 80  1  0
 44 81  1  0
 44 82  1  0
 45 83  1  0
 45 84  1  0
 45 85  1  0
M  CHG  4  16  -1  26  -1  37   1  43   1
M  END
>  <meeko>  (4) 
{"is_sidechain": [false], "free_energy": -6.311, "intermolecular_energy": -10.948, "internal_energy": 0.776}

$$$$
LIB_JFJZZMVDLULRGK__M_PUB_ALL__e8__s20260927
     RDKit          3D

 85 91  0  0  0  0  0  0  0  0999 V2000
   14.6260  -13.5620  -12.8240 C   0  0  0  0  0  0  0  0  0  0  0  0
   14.2910  -12.9710  -11.5630 O   0  0  0  0  0  0  0  0  0  0  0  0
   13.0050  -13.2580  -11.1830 C   0  0  0  0  0  0  0  0  0  0  0  0
   12.0160  -12.8970  -12.1030 C   0  0  0  0  0  0  0  0  0  0  0  0
   10.6550  -13.1190  -11.8320 C   0  0  0  0  0  0  0  0  0  0  0  0
   10.2730  -13.7200  -10.6220 C   0  0  0  0  0  0  0  0  0  0  0  0
   11.2760  -14.0250   -9.6890 C   0  0  0  0  0  0  0  0  0  0  0  0
   12.6380  -13.8150   -9.9570 C   0  0  0  0  0  0  0  0  0  0  0  0
   13.6220  -14.0810   -9.0210 O   0  0  0  0  0  0  0  0  0  0  0  0
   13.2600  -14.9270   -7.9790 C   0  0  0  0  0  0  0  0  0  0  0  0
   12.7160  -14.2930   -6.8480 C   0  0  0  0  0  0  0  0  0  0  0  0
   12.1630  -15.0400   -5.8050 C   0  0  0  0  0  0  0  0  0  0  0  0
   12.2590  -16.4260   -5.8940 C   0  0  0  0  0  0  0  0  0  0  0  0
   12.8750  -17.0380   -6.9980 C   0  0  0  0  0  0  0  0  0  0  0  0
   13.3850  -16.3310   -8.0990 C   0  0  0  0  0  0  0  0  0  0  0  0
   13.8800  -16.9460   -9.1020 O   0  0  0  0  0  0  0  0  0  0  0  0
   11.3860  -14.2920   -4.7460 C   0  0  0  0  0  0  0  0  0  0  0  0
   11.0170  -15.0030   -3.3840 C   0  0  2  0  0  0  0  0  0  0  0  0
    9.6580  -14.4910   -2.9370 C   0  0  0  0  0  0  0  0  0  0  0  0
    9.5600  -13.4160   -2.0530 C   0  0  0  0  0  0  0  0  0  0  0  0
    8.2910  -12.9440   -1.7220 C   0  0  0  0  0  0  0  0  0  0  0  0
    7.1120  -13.5430   -2.2090 C   0  0  0  0  0  0  0  0  0  0  0  0
    6.0120  -12.8760   -1.7040 O   0  0  0  0  0  0  0  0  0  0  0  0
    5.8310  -11.5100   -2.0410 C   0  0  0  0  0  0  0  0  0  0  0  0
    7.1430  -14.6810   -3.0630 C   0  0  0  0  0  0  0  0  0  0  0  0
    6.1110  -15.3130   -3.4850 O   0  0  0  0  0  0  0  0  0  0  0  0
    8.4650  -15.0930   -3.4260 C   0  0  0  0  0  0  0  0  0  0  0  0
    8.6270  -16.2630   -4.1750 O   0  0  0  0  0  0  0  0  0  0  0  0
    8.6650  -16.1760   -5.5500 C   0  0  0  0  0  0  0  0  0  0  0  0
    8.4010  -14.9120   -6.0750 C   0  0  0  0  0  0  0  0  0  0  0  0
    8.3490  -14.7080   -7.4560 C   0  0  0  0  0  0  0  0  0  0  0  0
    8.6020  -15.7610   -8.3460 C   0  0  0  0  0  0  0  0  0  0  0  0
    8.9420  -17.0120   -7.8100 C   0  0  0  0  0  0  0  0  0  0  0  0
    8.9530  -17.2210   -6.4250 C   0  0  0  0  0  0  0  0  0  0  0  0
    8.5800  -15.4760   -9.8320 C   0  0  0  0  0  0  0  0  0  0  0  0
    8.8190  -13.9950  -10.2620 C   0  0  2  0  0  0  0  0  0  0  0  0
    7.8370  -13.6650  -11.4120 N   0  0  0  0  0  0  0  0  0  0  0  0
    6.4240  -13.4830  -10.9250 C   0  0  0  0  0  0  0  0  0  0  0  0
    8.2850  -12.4620  -12.2060 C   0  0  0  0  0  0  0  0  0  0  0  0
    9.6290  -12.7420  -12.8600 C   0  0  0  0  0  0  0  0  0  0  0  0
   10.7500  -12.8400   -1.3420 C   0  0  0  0  0  0  0  0  0  0  0  0
   12.1150  -13.3320   -1.8160 C   0  0  0  0  0  0  0  0  0  0  0  0
   12.1140  -14.7920   -2.2610 N   0  0  0  0  0  0  0  0  0  0  0  0
   13.5080  -15.1650   -2.7560 C   0  0  0  0  0  0  0  0  0  0  0  0
   11.7860  -15.7260   -1.0910 C   0  0  0  0  0  0  0  0  0  0  0  0
   15.1620  -14.5076  -12.6549 H   0  0  0  0  0  0  0  0  0  0  0  0
   13.7053  -13.7590  -13.3927 H   0  0  0  0  0  0  0  0  0  0  0  0
   15.2680  -12.8732  -13.3927 H   0  0  0  0  0  0  0  0  0  0  0  0
   12.3083  -12.4311  -13.0556 H   0  0  0  0  0  0  0  0  0  0  0  0
   10.9850  -14.4430   -8.7140 H   0  0  0  0  0  0  0  0  0  0  0  0
   12.7260  -13.1949   -6.7836 H   0  0  0  0  0  0  0  0  0  0  0  0
   11.8465  -17.0508   -5.0881 H   0  0  0  0  0  0  0  0  0  0  0  0
   12.9630  -18.1345   -7.0003 H   0  0  0  0  0  0  0  0  0  0  0  0
   11.9776  -13.4011   -4.4886 H   0  0  0  0  0  0  0  0  0  0  0  0
   10.4063  -14.1305   -5.2194 H   0  0  0  0  0  0  0  0  0  0  0  0
   10.9796  -16.0896   -3.5507 H   0  0  0  0  0  0  0  0  0  0  0  0
    8.2067  -12.0723   -1.0565 H   0  0  0  0  0  0  0  0  0  0  0  0
    5.7519  -10.9127   -1.1207 H   0  0  0  0  0  0  0  0  0  0  0  0
    6.6908  -11.1611   -2.6318 H   0  0  0  0  0  0  0  0  0  0  0  0
    4.9100  -11.3970   -2.6318 H   0  0  0  0  0  0  0  0  0  0  0  0
    8.2316  -14.0651   -5.3938 H   0  0  0  0  0  0  0  0  0  0  0  0
    8.1068  -13.7098   -7.8495 H   0  0  0  0  0  0  0  0  0  0  0  0
    9.2033  -17.8395   -8.4860 H   0  0  0  0  0  0  0  0  0  0  0  0
    9.1908  -18.2178   -6.0253 H   0  0  0  0  0  0  0  0  0  0  0  0
    9.3624  -16.0904  -10.3015 H   0  0  0  0  0  0  0  0  0  0  0  0
    7.5561  -15.7114  -10.1578 H   0  0  0  0  0  0  0  0  0  0  0  0
    8.6174  -13.3252   -9.4130 H   0  0  0  0  0  0  0  0  0  0  0  0
    7.8640  -14.4760  -12.0430 H   0  0  0  0  0  0  0  0  0  0  0  0
    6.4126  -13.4815   -9.8251 H   0  0  0  0  0  0  0  0  0  0  0  0
    6.0283  -12.5265  -11.2971 H   0  0  0  0  0  0  0  0  0  0  0  0
    5.7988  -14.3080  -11.2971 H   0  0  0  0  0  0  0  0  0  0  0  0
    7.5399  -12.2412  -12.9845 H   0  0  0  0  0  0  0  0  0  0  0  0
    8.3848  -11.5999  -11.5302 H   0  0  0  0  0  0  0  0  0  0  0  0
    9.5159  -13.5690  -13.5764 H   0  0  0  0  0  0  0  0  0  0  0  0
    9.9660  -11.8309  -13.3761 H   0  0  0  0  0  0  0  0  0  0  0  0
   10.7227  -11.7479   -1.4703 H   0  0  0  0  0  0  0  0  0  0  0  0
   10.6611  -13.1726   -0.2973 H   0  0  0  0  0  0  0  0  0  0  0  0
   12.4342  -12.7093   -2.6648 H   0  0  0  0  0  0  0  0  0  0  0  0
   12.8022  -13.2545   -0.9606 H   0  0  0  0  0  0  0  0  0  0  0  0
   14.1681  -15.3416   -1.8940 H   0  0  0  0  0  0  0  0  0  0  0  0
   13.4484  -16.0788   -3.3655 H   0  0  0  0  0  0  0  0  0  0  0  0
   13.9127  -14.3435   -3.3655 H   0  0  0  0  0  0  0  0  0  0  0  0
   11.9699  -15.2024   -0.1412 H   0  0  0  0  0  0  0  0  0  0  0  0
   10.7290  -16.0254   -1.1460 H   0  0  0  0  0  0  0  0  0  0  0  0
   12.4238  -16.6206   -1.1460 H   0  0  0  0  0  0  0  0  0  0  0  0
  1  2  1  0
  2  3  1  0
  3  4  2  0
  4  5  1  0
  5  6  2  0
  6  7  1  0
  7  8  2  0
  8  9  1  0
  9 10  1  0
 10 11  2  0
 11 12  1  0
 12 13  2  0
 13 14  1  0
 14 15  2  0
 15 16  1  0
 12 17  1  0
 17 18  1  0
 18 19  1  0
 19 20  2  0
 20 21  1  0
 21 22  2  0
 22 23  1  0
 23 24  1  0
 22 25  1  0
 25 26  1  0
 25 27  2  0
 27 28  1  0
 28 29  1  0
 29 30  2  0
 30 31  1  0
 31 32  2  0
 32 33  1  0
 33 34  2  0
 32 35  1  0
 35 36  1  0
 36 37  1  0
 37 38  1  0
 37 39  1  0
 39 40  1  0
 20 41  1  0
 41 42  1  0
 42 43  1  0
 43 44  1  0
 43 45  1  0
  8  3  1  0
 15 10  1  0
 43 18  1  0
 40  5  1  0
 36  6  1  0
 27 19  1  0
 34 29  1  0
  1 46  1  0
  1 47  1  0
  1 48  1  0
  4 49  1  0
  7 50  1  0
 11 51  1  0
 13 52  1  0
 14 53  1  0
 17 54  1  0
 17 55  1  0
 18 56  1  6
 21 57  1  0
 24 58  1  0
 24 59  1  0
 24 60  1  0
 30 61  1  0
 31 62  1  0
 33 63  1  0
 34 64  1  0
 35 65  1  0
 35 66  1  0
 36 67  1  1
 37 68  1  0
 38 69  1  0
 38 70  1  0
 38 71  1  0
 39 72  1  0
 39 73  1  0
 40 74  1  0
 40 75  1  0
 41 76  1  0
 41 77  1  0
 42 78  1  0
 42 79  1  0
 44 80  1  0
 44 81  1  0
 44 82  1  0
 45 83  1  0
 45 84  1  0
 45 85  1  0
M  CHG  4  16  -1  26  -1  37   1  43   1
M  END
>  <meeko>  (5) 
{"is_sidechain": [false], "free_energy": -6.145, "intermolecular_energy": -9.42, "internal_energy": -0.499}

$$$$
LIB_JFJZZMVDLULRGK__M_PUB_ALL__e8__s20260927
     RDKit          3D

 85 91  0  0  0  0  0  0  0  0999 V2000
   -1.6650  -16.4170    6.6220 C   0  0  0  0  0  0  0  0  0  0  0  0
   -1.1490  -16.0030    5.3510 O   0  0  0  0  0  0  0  0  0  0  0  0
   -0.1300  -16.8140    4.9180 C   0  0  0  0  0  0  0  0  0  0  0  0
    0.0870  -17.9620    5.6860 C   0  0  0  0  0  0  0  0  0  0  0  0
    1.1090  -18.8700    5.3630 C   0  0  0  0  0  0  0  0  0  0  0  0
    1.9260  -18.6330    4.2450 C   0  0  0  0  0  0  0  0  0  0  0  0
    1.7270  -17.4480    3.5180 C   0  0  0  0  0  0  0  0  0  0  0  0
    0.7010  -16.5420    3.8310 C   0  0  0  0  0  0  0  0  0  0  0  0
    0.5310  -15.3560    3.1370 O   0  0  0  0  0  0  0  0  0  0  0  0
    0.9250  -15.3670    1.8050 C   0  0  0  0  0  0  0  0  0  0  0  0
    2.1500  -14.7290    1.5340 C   0  0  0  0  0  0  0  0  0  0  0  0
    2.7360  -14.8130    0.2680 C   0  0  0  0  0  0  0  0  0  0  0  0
    2.0150  -15.4710   -0.7260 C   0  0  0  0  0  0  0  0  0  0  0  0
    0.7580  -16.0350   -0.4520 C   0  0  0  0  0  0  0  0  0  0  0  0
    0.1600  -16.0320    0.8190 C   0  0  0  0  0  0  0  0  0  0  0  0
   -0.9580  -16.6150    1.0200 O   0  0  0  0  0  0  0  0  0  0  0  0
    4.1540  -14.3130    0.1200 C   0  0  0  0  0  0  0  0  0  0  0  0
    4.7910  -14.1890   -1.3060 C   0  0  2  0  0  0  0  0  0  0  0  0
    6.2610  -14.5670   -1.2280 C   0  0  0  0  0  0  0  0  0  0  0  0
    7.2400  -13.5840   -1.0800 C   0  0  0  0  0  0  0  0  0  0  0  0
    8.5680  -13.9850   -0.9500 C   0  0  0  0  0  0  0  0  0  0  0  0
    8.9570  -15.3380   -1.0140 C   0  0  0  0  0  0  0  0  0  0  0  0
   10.3280  -15.4310   -0.8710 O   0  0  0  0  0  0  0  0  0  0  0  0
   11.1480  -14.4790   -1.5320 C   0  0  0  0  0  0  0  0  0  0  0  0
    8.0160  -16.3830   -1.2280 C   0  0  0  0  0  0  0  0  0  0  0  0
    8.3100  -17.6220   -1.3640 O   0  0  0  0  0  0  0  0  0  0  0  0
    6.6590  -15.9320   -1.2930 C   0  0  0  0  0  0  0  0  0  0  0  0
    5.6540  -16.8520   -1.6060 O   0  0  0  0  0  0  0  0  0  0  0  0
    5.1000  -17.6080   -0.5950 C   0  0  0  0  0  0  0  0  0  0  0  0
    3.8810  -18.2110   -0.9010 C   0  0  0  0  0  0  0  0  0  0  0  0
    3.1890  -18.9510    0.0600 C   0  0  0  0  0  0  0  0  0  0  0  0
    3.7260  -19.1400    1.3420 C   0  0  0  0  0  0  0  0  0  0  0  0
    4.9880  -18.5960    1.6180 C   0  0  0  0  0  0  0  0  0  0  0  0
    5.6590  -17.8200    0.6640 C   0  0  0  0  0  0  0  0  0  0  0  0
    2.9570  -19.9910    2.3310 C   0  0  0  0  0  0  0  0  0  0  0  0
    3.0500  -19.5740    3.8310 C   0  0  2  0  0  0  0  0  0  0  0  0
    3.1060  -20.8630    4.6850 N   0  0  0  0  0  0  0  0  0  0  0  0
    4.4460  -21.5450    4.6080 C   0  0  0  0  0  0  0  0  0  0  0  0
    2.7250  -20.6020    6.1230 C   0  0  0  0  0  0  0  0  0  0  0  0
    1.2900  -20.1030    6.1970 C   0  0  0  0  0  0  0  0  0  0  0  0
    6.9390  -12.1170   -1.1890 C   0  0  0  0  0  0  0  0  0  0  0  0
    5.4600  -11.7390   -1.2340 C   0  0  0  0  0  0  0  0  0  0  0  0
    4.5930  -12.7620   -1.9630 N   0  0  0  0  0  0  0  0  0  0  0  0
    3.1370  -12.3120   -1.9090 C   0  0  0  0  0  0  0  0  0  0  0  0
    4.9810  -12.8580   -3.4430 C   0  0  0  0  0  0  0  0  0  0  0  0
   -1.0795  -15.9472    7.4261 H   0  0  0  0  0  0  0  0  0  0  0  0
   -2.7179  -16.1103    6.7078 H   0  0  0  0  0  0  0  0  0  0  0  0
   -1.5938  -17.5113    6.7078 H   0  0  0  0  0  0  0  0  0  0  0  0
   -0.5538  -18.1576    6.5584 H   0  0  0  0  0  0  0  0  0  0  0  0
    2.3971  -17.2221    2.6754 H   0  0  0  0  0  0  0  0  0  0  0  0
    2.6522  -14.1573    2.3283 H   0  0  0  0  0  0  0  0  0  0  0  0
    2.4358  -15.5500   -1.7393 H   0  0  0  0  0  0  0  0  0  0  0  0
    0.2100  -16.5065   -1.2811 H   0  0  0  0  0  0  0  0  0  0  0  0
    4.1871  -13.3106    0.5719 H   0  0  0  0  0  0  0  0  0  0  0  0
    4.7536  -15.1008    0.5995 H   0  0  0  0  0  0  0  0  0  0  0  0
    4.2610  -14.8867   -1.9711 H   0  0  0  0  0  0  0  0  0  0  0  0
    9.3405  -13.2180   -0.7917 H   0  0  0  0  0  0  0  0  0  0  0  0
   11.6749  -13.8673   -0.7849 H   0  0  0  0  0  0  0  0  0  0  0  0
   11.8827  -15.0022   -2.1616 H   0  0  0  0  0  0  0  0  0  0  0  0
   10.5217  -13.8299   -2.1616 H   0  0  0  0  0  0  0  0  0  0  0  0
    3.4593  -18.1027   -1.9112 H   0  0  0  0  0  0  0  0  0  0  0  0
    2.2123  -19.3904   -0.1910 H   0  0  0  0  0  0  0  0  0  0  0  0
    5.4572  -18.7807    2.5956 H   0  0  0  0  0  0  0  0  0  0  0  0
    6.6342  -17.3747    0.9104 H   0  0  0  0  0  0  0  0  0  0  0  0
    1.8961  -19.9625    2.0418 H   0  0  0  0  0  0  0  0  0  0  0  0
    3.4197  -20.9875    2.2776 H   0  0  0  0  0  0  0  0  0  0  0  0
    3.9683  -18.9918    3.9975 H   0  0  0  0  0  0  0  0  0  0  0  0
    2.3950  -21.4910    4.2890 H   0  0  0  0  0  0  0  0  0  0  0  0
    4.8196  -21.7352    5.6250 H   0  0  0  0  0  0  0  0  0  0  0  0
    4.3413  -22.4995    4.0714 H   0  0  0  0  0  0  0  0  0  0  0  0
    5.1561  -20.8986    4.0714 H   0  0  0  0  0  0  0  0  0  0  0  0
    2.8170  -21.5343    6.6995 H   0  0  0  0  0  0  0  0  0  0  0  0
    3.3959  -19.8375    6.5419 H   0  0  0  0  0  0  0  0  0  0  0  0
    0.6156  -20.8897    5.8279 H   0  0  0  0  0  0  0  0  0  0  0  0
    1.0568  -19.8570    7.2435 H   0  0  0  0  0  0  0  0  0  0  0  0
    7.3883  -11.6156   -0.3191 H   0  0  0  0  0  0  0  0  0  0  0  0
    7.3560  -11.7996   -2.1562 H   0  0  0  0  0  0  0  0  0  0  0  0
    5.0931  -11.6442   -0.2013 H   0  0  0  0  0  0  0  0  0  0  0  0
    5.3840  -10.7939   -1.7916 H   0  0  0  0  0  0  0  0  0  0  0  0
    2.8220  -12.2146   -0.8596 H   0  0  0  0  0  0  0  0  0  0  0  0
    3.0346  -11.3403   -2.4142 H   0  0  0  0  0  0  0  0  0  0  0  0
    2.5041  -13.0565   -2.4142 H   0  0  0  0  0  0  0  0  0  0  0  0
    6.0457  -13.1214   -3.5266 H   0  0  0  0  0  0  0  0  0  0  0  0
    4.3721  -13.6326   -3.9322 H   0  0  0  0  0  0  0  0  0  0  0  0
    4.8036  -11.8889   -3.9322 H   0  0  0  0  0  0  0  0  0  0  0  0
  1  2  1  0
  2  3  1  0
  3  4  2  0
  4  5  1  0
  5  6  2  0
  6  7  1  0
  7  8  2  0
  8  9  1  0
  9 10  1  0
 10 11  2  0
 11 12  1  0
 12 13  2  0
 13 14  1  0
 14 15  2  0
 15 16  1  0
 12 17  1  0
 17 18  1  0
 18 19  1  0
 19 20  2  0
 20 21  1  0
 21 22  2  0
 22 23  1  0
 23 24  1  0
 22 25  1  0
 25 26  1  0
 25 27  2  0
 27 28  1  0
 28 29  1  0
 29 30  2  0
 30 31  1  0
 31 32  2  0
 32 33  1  0
 33 34  2  0
 32 35  1  0
 35 36  1  0
 36 37  1  0
 37 38  1  0
 37 39  1  0
 39 40  1  0
 20 41  1  0
 41 42  1  0
 42 43  1  0
 43 44  1  0
 43 45  1  0
  8  3  1  0
 15 10  1  0
 43 18  1  0
 40  5  1  0
 36  6  1  0
 27 19  1  0
 34 29  1  0
  1 46  1  0
  1 47  1  0
  1 48  1  0
  4 49  1  0
  7 50  1  0
 11 51  1  0
 13 52  1  0
 14 53  1  0
 17 54  1  0
 17 55  1  0
 18 56  1  6
 21 57  1  0
 24 58  1  0
 24 59  1  0
 24 60  1  0
 30 61  1  0
 31 62  1  0
 33 63  1  0
 34 64  1  0
 35 65  1  0
 35 66  1  0
 36 67  1  6
 37 68  1  0
 38 69  1  0
 38 70  1  0
 38 71  1  0
 39 72  1  0
 39 73  1  0
 40 74  1  0
 40 75  1  0
 41 76  1  0
 41 77  1  0
 42 78  1  0
 42 79  1  0
 44 80  1  0
 44 81  1  0
 44 82  1  0
 45 83  1  0
 45 84  1  0
 45 85  1  0
M  CHG  4  16  -1  26  -1  37   1  43   1
M  END
>  <meeko>  (6) 
{"is_sidechain": [false], "free_energy": -5.977, "intermolecular_energy": -9.03, "internal_energy": -0.633}

$$$$
LIB_JFJZZMVDLULRGK__M_PUB_ALL__e8__s20260927
     RDKit          3D

 85 91  0  0  0  0  0  0  0  0999 V2000
    4.9950  -20.8900    4.8630 C   0  0  0  0  0  0  0  0  0  0  0  0
    4.7140  -21.4460    3.5740 O   0  0  0  0  0  0  0  0  0  0  0  0
    5.7410  -21.2440    2.6870 C   0  0  0  0  0  0  0  0  0  0  0  0
    6.7160  -22.2470    2.6650 C   0  0  0  0  0  0  0  0  0  0  0  0
    7.8310  -22.1570    1.8160 C   0  0  0  0  0  0  0  0  0  0  0  0
    7.9730  -21.0490    0.9640 C   0  0  0  0  0  0  0  0  0  0  0  0
    7.0130  -20.0280    1.0400 C   0  0  0  0  0  0  0  0  0  0  0  0
    5.8910  -20.1160    1.8800 C   0  0  0  0  0  0  0  0  0  0  0  0
    4.9670  -19.0920    1.9820 O   0  0  0  0  0  0  0  0  0  0  0  0
    4.9470  -18.1800    0.9320 C   0  0  0  0  0  0  0  0  0  0  0  0
    5.6210  -16.9700    1.1730 C   0  0  0  0  0  0  0  0  0  0  0  0
    5.8160  -16.0420    0.1470 C   0  0  0  0  0  0  0  0  0  0  0  0
    5.2380  -16.3270   -1.0880 C   0  0  0  0  0  0  0  0  0  0  0  0
    4.5040  -17.5080   -1.2860 C   0  0  0  0  0  0  0  0  0  0  0  0
    4.3370  -18.4990   -0.3030 C   0  0  0  0  0  0  0  0  0  0  0  0
    3.7100  -19.5800   -0.5610 O   0  0  0  0  0  0  0  0  0  0  0  0
    6.7510  -14.8860    0.4180 C   0  0  0  0  0  0  0  0  0  0  0  0
    6.8950  -13.7160   -0.6330 C   0  0  2  0  0  0  0  0  0  0  0  0
    8.3730  -13.4610   -0.8770 C   0  0  0  0  0  0  0  0  0  0  0  0
    9.0590  -12.5010   -0.1330 C   0  0  0  0  0  0  0  0  0  0  0  0
   10.4280  -12.3480   -0.3500 C   0  0  0  0  0  0  0  0  0  0  0  0
   11.1250  -13.0920   -1.3240 C   0  0  0  0  0  0  0  0  0  0  0  0
   12.4550  -12.7180   -1.3240 O   0  0  0  0  0  0  0  0  0  0  0  0
   12.8300  -11.5360   -0.6350 C   0  0  0  0  0  0  0  0  0  0  0  0
   10.4700  -14.0400   -2.1580 C   0  0  0  0  0  0  0  0  0  0  0  0
   11.0300  -14.6970   -3.1050 O   0  0  0  0  0  0  0  0  0  0  0  0
    9.0810  -14.2090   -1.8590 C   0  0  0  0  0  0  0  0  0  0  0  0
    8.3070  -15.0350   -2.6800 O   0  0  0  0  0  0  0  0  0  0  0  0
    8.3200  -16.3960   -2.4620 C   0  0  0  0  0  0  0  0  0  0  0  0
    9.0240  -16.8110   -1.3320 C   0  0  0  0  0  0  0  0  0  0  0  0
    9.1630  -18.1690   -1.0360 C   0  0  0  0  0  0  0  0  0  0  0  0
    8.5610  -19.1440   -1.8450 C   0  0  0  0  0  0  0  0  0  0  0  0
    7.7900  -18.7160   -2.9350 C   0  0  0  0  0  0  0  0  0  0  0  0
    7.6880  -17.3550   -3.2510 C   0  0  0  0  0  0  0  0  0  0  0  0
    8.7030  -20.5990   -1.4520 C   0  0  0  0  0  0  0  0  0  0  0  0
    9.1530  -20.8860    0.0140 C   0  0  2  0  0  0  0  0  0  0  0  0
   10.0910  -22.1170   -0.0050 N   0  0  0  0  0  0  0  0  0  0  0  0
   11.4550  -21.7900   -0.5480 C   0  0  0  0  0  0  0  0  0  0  0  0
   10.2000  -22.7600    1.3570 C   0  0  0  0  0  0  0  0  0  0  0  0
    8.8380  -23.2680    1.8030 C   0  0  0  0  0  0  0  0  0  0  0  0
    8.3650  -11.5390    0.7880 C   0  0  0  0  0  0  0  0  0  0  0  0
    6.8880  -11.8180    1.0550 C   0  0  0  0  0  0  0  0  0  0  0  0
    6.1520  -12.4050   -0.1460 N   0  0  0  0  0  0  0  0  0  0  0  0
    4.7050  -12.6870    0.2430 C   0  0  0  0  0  0  0  0  0  0  0  0
    6.1210  -11.4120   -1.3130 C   0  0  0  0  0  0  0  0  0  0  0  0
    4.6458  -21.5810    5.6444 H   0  0  0  0  0  0  0  0  0  0  0  0
    6.0791  -20.7360    4.9675 H   0  0  0  0  0  0  0  0  0  0  0  0
    4.4760  -19.9258    4.9675 H   0  0  0  0  0  0  0  0  0  0  0  0
    6.6074  -23.1211    3.3240 H   0  0  0  0  0  0  0  0  0  0  0  0
    7.1439  -19.1284    0.4206 H   0  0  0  0  0  0  0  0  0  0  0  0
    5.9997  -16.7511    2.1823 H   0  0  0  0  0  0  0  0  0  0  0  0
    5.3581  -15.6172   -1.9197 H   0  0  0  0  0  0  0  0  0  0  0  0
    4.0325  -17.6667   -2.2671 H   0  0  0  0  0  0  0  0  0  0  0  0
    6.4199  -14.4256    1.3606 H   0  0  0  0  0  0  0  0  0  0  0  0
    7.7441  -15.3588    0.4035 H   0  0  0  0  0  0  0  0  0  0  0  0
    6.4156  -14.0123   -1.5777 H   0  0  0  0  0  0  0  0  0  0  0  0
   10.9839  -11.6210    0.2604 H   0  0  0  0  0  0  0  0  0  0  0  0
   12.7746  -11.7106    0.4496 H   0  0  0  0  0  0  0  0  0  0  0  0
   13.8592  -11.2620   -0.9102 H   0  0  0  0  0  0  0  0  0  0  0  0
   12.1470  -10.7188   -0.9102 H   0  0  0  0  0  0  0  0  0  0  0  0
    9.4750  -16.0604   -0.6662 H   0  0  0  0  0  0  0  0  0  0  0  0
    9.7510  -18.4772   -0.1589 H   0  0  0  0  0  0  0  0  0  0  0  0
    7.2588  -19.4578   -3.5495 H   0  0  0  0  0  0  0  0  0  0  0  0
    7.1044  -17.0409   -4.1289 H   0  0  0  0  0  0  0  0  0  0  0  0
    7.7261  -21.0820   -1.6018 H   0  0  0  0  0  0  0  0  0  0  0  0
    9.5111  -20.9930   -2.0858 H   0  0  0  0  0  0  0  0  0  0  0  0
    9.7037  -20.0200    0.4099 H   0  0  0  0  0  0  0  0  0  0  0  0
    9.6430  -22.7990   -0.6300 H   0  0  0  0  0  0  0  0  0  0  0  0
   12.1516  -21.6230    0.2868 H   0  0  0  0  0  0  0  0  0  0  0  0
   11.8149  -22.6273   -1.1639 H   0  0  0  0  0  0  0  0  0  0  0  0
   11.3961  -20.8805   -1.1639 H   0  0  0  0  0  0  0  0  0  0  0  0
   10.9046  -23.6032    1.3064 H   0  0  0  0  0  0  0  0  0  0  0  0
   10.5617  -22.0144    2.0803 H   0  0  0  0  0  0  0  0  0  0  0  0
    8.5008  -24.0517    1.1087 H   0  0  0  0  0  0  0  0  0  0  0  0
    8.9297  -23.6715    2.8222 H   0  0  0  0  0  0  0  0  0  0  0  0
    8.8913  -11.5579    1.7537 H   0  0  0  0  0  0  0  0  0  0  0  0
    8.3961  -10.5646    0.2785 H   0  0  0  0  0  0  0  0  0  0  0  0
    6.8137  -12.5296    1.8906 H   0  0  0  0  0  0  0  0  0  0  0  0
    6.4131  -10.8528    1.2851 H   0  0  0  0  0  0  0  0  0  0  0  0
    4.6167  -12.7042    1.3393 H   0  0  0  0  0  0  0  0  0  0  0  0
    4.0554  -11.8986   -0.1648 H   0  0  0  0  0  0  0  0  0  0  0  0
    4.3990  -13.6617   -0.1648 H   0  0  0  0  0  0  0  0  0  0  0  0
    6.0889  -10.3851   -0.9199 H   0  0  0  0  0  0  0  0  0  0  0  0
    7.0236  -11.5411   -1.9283 H   0  0  0  0  0  0  0  0  0  0  0  0
    5.2282  -11.5971   -1.9283 H   0  0  0  0  0  0  0  0  0  0  0  0
  1  2  1  0
  2  3  1  0
  3  4  2  0
  4  5  1  0
  5  6  2  0
  6  7  1  0
  7  8  2  0
  8  9  1  0
  9 10  1  0
 10 11  2  0
 11 12  1  0
 12 13  2  0
 13 14  1  0
 14 15  2  0
 15 16  1  0
 12 17  1  0
 17 18  1  0
 18 19  1  0
 19 20  2  0
 20 21  1  0
 21 22  2  0
 22 23  1  0
 23 24  1  0
 22 25  1  0
 25 26  1  0
 25 27  2  0
 27 28  1  0
 28 29  1  0
 29 30  2  0
 30 31  1  0
 31 32  2  0
 32 33  1  0
 33 34  2  0
 32 35  1  0
 35 36  1  0
 36 37  1  0
 37 38  1  0
 37 39  1  0
 39 40  1  0
 20 41  1  0
 41 42  1  0
 42 43  1  0
 43 44  1  0
 43 45  1  0
  8  3  1  0
 15 10  1  0
 43 18  1  0
 40  5  1  0
 36  6  1  0
 27 19  1  0
 34 29  1  0
  1 46  1  0
  1 47  1  0
  1 48  1  0
  4 49  1  0
  7 50  1  0
 11 51  1  0
 13 52  1  0
 14 53  1  0
 17 54  1  0
 17 55  1  0
 18 56  1  6
 21 57  1  0
 24 58  1  0
 24 59  1  0
 24 60  1  0
 30 61  1  0
 31 62  1  0
 33 63  1  0
 34 64  1  0
 35 65  1  0
 35 66  1  0
 36 67  1  1
 37 68  1  0
 38 69  1  0
 38 70  1  0
 38 71  1  0
 39 72  1  0
 39 73  1  0
 40 74  1  0
 40 75  1  0
 41 76  1  0
 41 77  1  0
 42 78  1  0
 42 79  1  0
 44 80  1  0
 44 81  1  0
 44 82  1  0
 45 83  1  0
 45 84  1  0
 45 85  1  0
M  CHG  4  16  -1  26  -1  37   1  43   1
M  END
>  <meeko>  (7) 
{"is_sidechain": [false], "free_energy": -5.893, "intermolecular_energy": -9.008, "internal_energy": -0.526}

$$$$
LIB_JFJZZMVDLULRGK__M_PUB_ALL__e8__s20260927
     RDKit          3D

 85 91  0  0  0  0  0  0  0  0999 V2000
   10.3290  -19.9850   -8.3320 C   0  0  0  0  0  0  0  0  0  0  0  0
    9.3750  -20.6080   -7.4640 O   0  0  0  0  0  0  0  0  0  0  0  0
    9.4710  -20.1490   -6.1750 C   0  0  0  0  0  0  0  0  0  0  0  0
   10.2830  -20.9120   -5.3290 C   0  0  0  0  0  0  0  0  0  0  0  0
   10.4540  -20.5630   -3.9790 C   0  0  0  0  0  0  0  0  0  0  0  0
    9.8110  -19.4260   -3.4630 C   0  0  0  0  0  0  0  0  0  0  0  0
    8.9580  -18.7060   -4.3140 C   0  0  0  0  0  0  0  0  0  0  0  0
    8.7900  -19.0430   -5.6670 C   0  0  0  0  0  0  0  0  0  0  0  0
    7.9190  -18.3550   -6.4930 O   0  0  0  0  0  0  0  0  0  0  0  0
    7.7800  -16.9960   -6.2370 C   0  0  0  0  0  0  0  0  0  0  0  0
    6.5110  -16.5950   -5.7800 C   0  0  0  0  0  0  0  0  0  0  0  0
    6.2900  -15.2910   -5.3320 C   0  0  0  0  0  0  0  0  0  0  0  0
    7.3480  -14.3910   -5.4430 C   0  0  0  0  0  0  0  0  0  0  0  0
    8.5850  -14.7930   -5.9740 C   0  0  0  0  0  0  0  0  0  0  0  0
    8.8730  -16.1080   -6.3760 C   0  0  0  0  0  0  0  0  0  0  0  0
   10.0350  -16.4280   -6.7940 O   0  0  0  0  0  0  0  0  0  0  0  0
    4.9810  -15.0030   -4.6350 C   0  0  0  0  0  0  0  0  0  0  0  0
    4.6350  -13.5570   -4.1440 C   0  0  2  0  0  0  0  0  0  0  0  0
    4.1030  -13.6490   -2.7230 C   0  0  0  0  0  0  0  0  0  0  0  0
    2.7310  -13.7210   -2.4830 C   0  0  0  0  0  0  0  0  0  0  0  0
    2.2940  -13.8660   -1.1670 C   0  0  0  0  0  0  0  0  0  0  0  0
    3.1860  -13.8930   -0.0760 C   0  0  0  0  0  0  0  0  0  0  0  0
    2.4720  -14.0300    1.0990 O   0  0  0  0  0  0  0  0  0  0  0  0
    1.0710  -14.2440    1.0240 C   0  0  0  0  0  0  0  0  0  0  0  0
    4.5910  -13.7590   -0.2490 C   0  0  0  0  0  0  0  0  0  0  0  0
    5.4480  -13.7070    0.7030 O   0  0  0  0  0  0  0  0  0  0  0  0
    4.9990  -13.6750   -1.6180 C   0  0  0  0  0  0  0  0  0  0  0  0
    6.3450  -13.4350   -1.9100 O   0  0  0  0  0  0  0  0  0  0  0  0
    7.2380  -14.4840   -1.8590 C   0  0  0  0  0  0  0  0  0  0  0  0
    8.5730  -14.1400   -2.0640 C   0  0  0  0  0  0  0  0  0  0  0  0
    9.5670  -15.1210   -2.0980 C   0  0  0  0  0  0  0  0  0  0  0  0
    9.2490  -16.4700   -1.8830 C   0  0  0  0  0  0  0  0  0  0  0  0
    7.9150  -16.7990   -1.6000 C   0  0  0  0  0  0  0  0  0  0  0  0
    6.9170  -15.8160   -1.6080 C   0  0  0  0  0  0  0  0  0  0  0  0
   10.3700  -17.4880   -1.8820 C   0  0  0  0  0  0  0  0  0  0  0  0
    9.9540  -18.9850   -2.0120 C   0  0  2  0  0  0  0  0  0  0  0  0
   10.9730  -19.8370   -1.2180 N   0  0  0  0  0  0  0  0  0  0  0  0
   10.7750  -19.7270    0.2700 C   0  0  0  0  0  0  0  0  0  0  0  0
   10.9550  -21.2840   -1.6510 C   0  0  0  0  0  0  0  0  0  0  0  0
   11.3560  -21.3930   -3.1140 C   0  0  0  0  0  0  0  0  0  0  0  0
    1.7060  -13.5130   -3.5610 C   0  0  0  0  0  0  0  0  0  0  0  0
    2.2420  -13.4540   -4.9900 C   0  0  0  0  0  0  0  0  0  0  0  0
    3.6190  -12.8050   -5.0970 N   0  0  0  0  0  0  0  0  0  0  0  0
    4.0770  -12.8400   -6.5520 C   0  0  0  0  0  0  0  0  0  0  0  0
    3.5690  -11.3320   -4.6760 C   0  0  0  0  0  0  0  0  0  0  0  0
   11.0994  -19.4819   -7.7292 H   0  0  0  0  0  0  0  0  0  0  0  0
   10.8012  -20.7493   -8.9667 H   0  0  0  0  0  0  0  0  0  0  0  0
    9.8190  -19.2453   -8.9667 H   0  0  0  0  0  0  0  0  0  0  0  0
   10.7960  -21.7998   -5.7274 H   0  0  0  0  0  0  0  0  0  0  0  0
    8.4021  -17.8484   -3.9072 H   0  0  0  0  0  0  0  0  0  0  0  0
    5.6822  -17.3182   -5.7756 H   0  0  0  0  0  0  0  0  0  0  0  0
    7.2128  -13.3513   -5.1102 H   0  0  0  0  0  0  0  0  0  0  0  0
    9.3739  -14.0340   -6.0812 H   0  0  0  0  0  0  0  0  0  0  0  0
    4.1829  -15.2967   -5.3327 H   0  0  0  0  0  0  0  0  0  0  0  0
    5.0773  -15.5638   -3.6936 H   0  0  0  0  0  0  0  0  0  0  0  0
    5.5527  -12.9510   -4.1669 H   0  0  0  0  0  0  0  0  0  0  0  0
    1.2155  -13.9627   -0.9734 H   0  0  0  0  0  0  0  0  0  0  0  0
    0.6549  -14.3076    2.0403 H   0  0  0  0  0  0  0  0  0  0  0  0
    0.6005  -13.4073    0.4868 H   0  0  0  0  0  0  0  0  0  0  0  0
    0.8717  -15.1830    0.4868 H   0  0  0  0  0  0  0  0  0  0  0  0
    8.8472  -13.0835   -2.2006 H   0  0  0  0  0  0  0  0  0  0  0  0
   10.6100  -14.8324   -2.2954 H   0  0  0  0  0  0  0  0  0  0  0  0
    7.6495  -17.8412   -1.3691 H   0  0  0  0  0  0  0  0  0  0  0  0
    5.8716  -16.0982   -1.4145 H   0  0  0  0  0  0  0  0  0  0  0  0
   11.0356  -17.2522   -2.7254 H   0  0  0  0  0  0  0  0  0  0  0  0
   10.8385  -17.4024   -0.8905 H   0  0  0  0  0  0  0  0  0  0  0  0
    8.9516  -19.1297   -1.5827 H   0  0  0  0  0  0  0  0  0  0  0  0
   11.8980  -19.4580   -1.4550 H   0  0  0  0  0  0  0  0  0  0  0  0
   11.6230  -20.1981    0.7886 H   0  0  0  0  0  0  0  0  0  0  0  0
   10.7148  -18.6661    0.5545 H   0  0  0  0  0  0  0  0  0  0  0  0
    9.8425  -20.2364    0.5545 H   0  0  0  0  0  0  0  0  0  0  0  0
   11.6634  -21.8576   -1.0352 H   0  0  0  0  0  0  0  0  0  0  0  0
    9.9394  -21.6870   -1.5235 H   0  0  0  0  0  0  0  0  0  0  0  0
   12.3915  -21.0407   -3.2309 H   0  0  0  0  0  0  0  0  0  0  0  0
   11.2709  -22.4448   -3.4246 H   0  0  0  0  0  0  0  0  0  0  0  0
    0.9856  -14.3424   -3.5054 H   0  0  0  0  0  0  0  0  0  0  0  0
    1.2673  -12.5231   -3.3670 H   0  0  0  0  0  0  0  0  0  0  0  0
    2.3097  -14.4806   -5.3792 H   0  0  0  0  0  0  0  0  0  0  0  0
    1.5452  -12.8326   -5.5717 H   0  0  0  0  0  0  0  0  0  0  0  0
    5.1732  -12.9238   -6.5894 H   0  0  0  0  0  0  0  0  0  0  0  0
    3.6256  -13.7063   -7.0578 H   0  0  0  0  0  0  0  0  0  0  0  0
    3.7624  -11.9152   -7.0578 H   0  0  0  0  0  0  0  0  0  0  0  0
    3.5667  -11.2643   -3.5781 H   0  0  0  0  0  0  0  0  0  0  0  0
    4.4498  -10.8068   -5.0739 H   0  0  0  0  0  0  0  0  0  0  0  0
    2.6546  -10.8678   -5.0739 H   0  0  0  0  0  0  0  0  0  0  0  0
  1  2  1  0
  2  3  1  0
  3  4  2  0
  4  5  1  0
  5  6  2  0
  6  7  1  0
  7  8  2  0
  8  9  1  0
  9 10  1  0
 10 11  2  0
 11 12  1  0
 12 13  2  0
 13 14  1  0
 14 15  2  0
 15 16  1  0
 12 17  1  0
 17 18  1  0
 18 19  1  0
 19 20  2  0
 20 21  1  0
 21 22  2  0
 22 23  1  0
 23 24  1  0
 22 25  1  0
 25 26  1  0
 25 27  2  0
 27 28  1  0
 28 29  1  0
 29 30  2  0
 30 31  1  0
 31 32  2  0
 32 33  1  0
 33 34  2  0
 32 35  1  0
 35 36  1  0
 36 37  1  0
 37 38  1  0
 37 39  1  0
 39 40  1  0
 20 41  1  0
 41 42  1  0
 42 43  1  0
 43 44  1  0
 43 45  1  0
  8  3  1  0
 15 10  1  0
 43 18  1  0
 40  5  1  0
 36  6  1  0
 27 19  1  0
 34 29  1  0
  1 46  1  0
  1 47  1  0
  1 48  1  0
  4 49  1  0
  7 50  1  0
 11 51  1  0
 13 52  1  0
 14 53  1  0
 17 54  1  0
 17 55  1  0
 18 56  1  1
 21 57  1  0
 24 58  1  0
 24 59  1  0
 24 60  1  0
 30 61  1  0
 31 62  1  0
 33 63  1  0
 34 64  1  0
 35 65  1  0
 35 66  1  0
 36 67  1  1
 37 68  1  0
 38 69  1  0
 38 70  1  0
 38 71  1  0
 39 72  1  0
 39 73  1  0
 40 74  1  0
 40 75  1  0
 41 76  1  0
 41 77  1  0
 42 78  1  0
 42 79  1  0
 44 80  1  0
 44 81  1  0
 44 82  1  0
 45 83  1  0
 45 84  1  0
 45 85  1  0
M  CHG  4  16  -1  26  -1  37   1  43   1
M  END
>  <meeko>  (8) 
{"is_sidechain": [false], "free_energy": -5.656, "intermolecular_energy": -8.33, "internal_energy": -0.842}

$$$$
LIB_JFJZZMVDLULRGK__M_PUB_ALL__e8__s20260927
     RDKit          3D

 85 91  0  0  0  0  0  0  0  0999 V2000
   12.6220  -16.1110   -7.9330 C   0  0  0  0  0  0  0  0  0  0  0  0
   11.5350  -17.0240   -7.7430 O   0  0  0  0  0  0  0  0  0  0  0  0
   11.2730  -17.2480   -6.4150 C   0  0  0  0  0  0  0  0  0  0  0  0
   12.1280  -18.1560   -5.7830 C   0  0  0  0  0  0  0  0  0  0  0  0
   11.9610  -18.4890   -4.4290 C   0  0  0  0  0  0  0  0  0  0  0  0
   10.9260  -17.8980   -3.6860 C   0  0  0  0  0  0  0  0  0  0  0  0
   10.0460  -17.0300   -4.3520 C   0  0  0  0  0  0  0  0  0  0  0  0
   10.2130  -16.6860   -5.7030 C   0  0  0  0  0  0  0  0  0  0  0  0
    9.3220  -15.8610   -6.3670 O   0  0  0  0  0  0  0  0  0  0  0  0
    8.7470  -14.8480   -5.6090 C   0  0  0  0  0  0  0  0  0  0  0  0
    7.3490  -14.9170   -5.4720 C   0  0  0  0  0  0  0  0  0  0  0  0
    6.6700  -14.0580   -4.6030 C   0  0  0  0  0  0  0  0  0  0  0  0
    7.4240  -13.0810   -3.9570 C   0  0  0  0  0  0  0  0  0  0  0  0
    8.8090  -12.9810   -4.1670 C   0  0  0  0  0  0  0  0  0  0  0  0
    9.5420  -13.8630   -4.9790 C   0  0  0  0  0  0  0  0  0  0  0  0
   10.8100  -13.7580   -5.0840 O   0  0  0  0  0  0  0  0  0  0  0  0
    5.2130  -14.3500   -4.3280 C   0  0  0  0  0  0  0  0  0  0  0  0
    4.3940  -13.4340   -3.3530 C   0  0  2  0  0  0  0  0  0  0  0  0
    3.7010  -14.3130   -2.3250 C   0  0  0  0  0  0  0  0  0  0  0  0
    2.3890  -14.7420   -2.5280 C   0  0  0  0  0  0  0  0  0  0  0  0
    1.8190  -15.5980   -1.5870 C   0  0  0  0  0  0  0  0  0  0  0  0
    2.5020  -16.0010   -0.4220 C   0  0  0  0  0  0  0  0  0  0  0  0
    1.6880  -16.8300    0.3260 O   0  0  0  0  0  0  0  0  0  0  0  0
    0.4570  -17.2620   -0.2340 C   0  0  0  0  0  0  0  0  0  0  0  0
    3.8170  -15.5470   -0.1260 C   0  0  0  0  0  0  0  0  0  0  0  0
    4.4650  -15.8200    0.9450 O   0  0  0  0  0  0  0  0  0  0  0  0
    4.3860  -14.7220   -1.1470 C   0  0  0  0  0  0  0  0  0  0  0  0
    5.6320  -14.1290   -0.9220 O   0  0  0  0  0  0  0  0  0  0  0  0
    6.7710  -14.8950   -1.0550 C   0  0  0  0  0  0  0  0  0  0  0  0
    7.9290  -14.3370   -0.5150 C   0  0  0  0  0  0  0  0  0  0  0  0
    9.1590  -14.9870   -0.6400 C   0  0  0  0  0  0  0  0  0  0  0  0
    9.2500  -16.2350   -1.2740 C   0  0  0  0  0  0  0  0  0  0  0  0
    8.0680  -16.8250   -1.7460 C   0  0  0  0  0  0  0  0  0  0  0  0
    6.8440  -16.1500   -1.6540 C   0  0  0  0  0  0  0  0  0  0  0  0
   10.5990  -16.9180   -1.3400 C   0  0  0  0  0  0  0  0  0  0  0  0
   10.6870  -18.2070   -2.2140 C   0  0  2  0  0  0  0  0  0  0  0  0
   11.7720  -19.1270   -1.6040 N   0  0  0  0  0  0  0  0  0  0  0  0
   11.3080  -19.8010   -0.3410 C   0  0  0  0  0  0  0  0  0  0  0  0
   12.2670  -20.1480   -2.6010 C   0  0  0  0  0  0  0  0  0  0  0  0
   12.9180  -19.4470   -3.7830 C   0  0  0  0  0  0  0  0  0  0  0  0
    1.5260  -14.2160   -3.6380 C   0  0  0  0  0  0  0  0  0  0  0  0
    2.2330  -13.3600   -4.6860 C   0  0  0  0  0  0  0  0  0  0  0  0
    3.3610  -12.5060   -4.1140 N   0  0  0  0  0  0  0  0  0  0  0  0
    4.0260  -11.7310   -5.2470 C   0  0  0  0  0  0  0  0  0  0  0  0
    2.8200  -11.4740   -3.1180 C   0  0  0  0  0  0  0  0  0  0  0  0
   13.0056  -15.7888   -6.9537 H   0  0  0  0  0  0  0  0  0  0  0  0
   13.4253  -16.6092   -8.4956 H   0  0  0  0  0  0  0  0  0  0  0  0
   12.2700  -15.2338   -8.4956 H   0  0  0  0  0  0  0  0  0  0  0  0
   12.9456  -18.6175   -6.3563 H   0  0  0  0  0  0  0  0  0  0  0  0
    9.1970  -16.6051   -3.7965 H   0  0  0  0  0  0  0  0  0  0  0  0
    6.7823  -15.6568   -6.0565 H   0  0  0  0  0  0  0  0  0  0  0  0
    6.9274  -12.3776   -3.2724 H   0  0  0  0  0  0  0  0  0  0  0  0
    9.3514  -12.1651   -3.6669 H   0  0  0  0  0  0  0  0  0  0  0  0
    4.6959  -14.3211   -5.2985 H   0  0  0  0  0  0  0  0  0  0  0  0
    5.2467  -15.3130   -3.7975 H   0  0  0  0  0  0  0  0  0  0  0  0
    5.0906  -12.7492   -2.8471 H   0  0  0  0  0  0  0  0  0  0  0  0
    0.7993  -15.9725   -1.7600 H   0  0  0  0  0  0  0  0  0  0  0  0
   -0.2469  -17.5090    0.5744 H   0  0  0  0  0  0  0  0  0  0  0  0
    0.0347  -16.4584   -0.8551 H   0  0  0  0  0  0  0  0  0  0  0  0
    0.6295  -18.1533   -0.8551 H   0  0  0  0  0  0  0  0  0  0  0  0
    7.8734  -13.3747    0.0151 H   0  0  0  0  0  0  0  0  0  0  0  0
   10.0669  -14.5147   -0.2366 H   0  0  0  0  0  0  0  0  0  0  0  0
    8.1027  -17.8293   -2.1935 H   0  0  0  0  0  0  0  0  0  0  0  0
    5.9329  -16.6152   -2.0583 H   0  0  0  0  0  0  0  0  0  0  0  0
   11.3212  -16.1922   -1.7420 H   0  0  0  0  0  0  0  0  0  0  0  0
   10.8068  -17.2498   -0.3120 H   0  0  0  0  0  0  0  0  0  0  0  0
    9.7202  -18.7315   -2.1994 H   0  0  0  0  0  0  0  0  0  0  0  0
   12.5630  -18.5120   -1.3770 H   0  0  0  0  0  0  0  0  0  0  0  0
   11.6885  -19.2483    0.5306 H   0  0  0  0  0  0  0  0  0  0  0  0
   10.2084  -19.8144   -0.3152 H   0  0  0  0  0  0  0  0  0  0  0  0
   11.6880  -20.8330   -0.3152 H   0  0  0  0  0  0  0  0  0  0  0  0
   13.0044  -20.8039   -2.1152 H   0  0  0  0  0  0  0  0  0  0  0  0
   11.4156  -20.7452   -2.9594 H   0  0  0  0  0  0  0  0  0  0  0  0
   13.8008  -18.8927   -3.4317 H   0  0  0  0  0  0  0  0  0  0  0  0
   13.2111  -20.2052   -4.5241 H   0  0  0  0  0  0  0  0  0  0  0  0
    1.0782  -15.0782   -4.1538 H   0  0  0  0  0  0  0  0  0  0  0  0
    0.7945  -13.5510   -3.1557 H   0  0  0  0  0  0  0  0  0  0  0  0
    2.6551  -14.0263   -5.4527 H   0  0  0  0  0  0  0  0  0  0  0  0
    1.4829  -12.6702   -5.1001 H   0  0  0  0  0  0  0  0  0  0  0  0
    4.6875  -10.9601   -4.8250 H   0  0  0  0  0  0  0  0  0  0  0  0
    4.6166  -12.4219   -5.8665 H   0  0  0  0  0  0  0  0  0  0  0  0
    3.2534  -11.2521   -5.8665 H   0  0  0  0  0  0  0  0  0  0  0  0
    3.0035  -11.8240   -2.0914 H   0  0  0  0  0  0  0  0  0  0  0  0
    3.3296  -10.5117   -3.2739 H   0  0  0  0  0  0  0  0  0  0  0  0
    1.7387  -11.3457   -3.2739 H   0  0  0  0  0  0  0  0  0  0  0  0
  1  2  1  0
  2  3  1  0
  3  4  2  0
  4  5  1  0
  5  6  2  0
  6  7  1  0
  7  8  2  0
  8  9  1  0
  9 10  1  0
 10 11  2  0
 11 12  1  0
 12 13  2  0
 13 14  1  0
 14 15  2  0
 15 16  1  0
 12 17  1  0
 17 18  1  0
 18 19  1  0
 19 20  2  0
 20 21  1  0
 21 22  2  0
 22 23  1  0
 23 24  1  0
 22 25  1  0
 25 26  1  0
 25 27  2  0
 27 28  1  0
 28 29  1  0
 29 30  2  0
 30 31  1  0
 31 32  2  0
 32 33  1  0
 33 34  2  0
 32 35  1  0
 35 36  1  0
 36 37  1  0
 37 38  1  0
 37 39  1  0
 39 40  1  0
 20 41  1  0
 41 42  1  0
 42 43  1  0
 43 44  1  0
 43 45  1  0
  8  3  1  0
 15 10  1  0
 43 18  1  0
 40  5  1  0
 36  6  1  0
 27 19  1  0
 34 29  1  0
  1 46  1  0
  1 47  1  0
  1 48  1  0
  4 49  1  0
  7 50  1  0
 11 51  1  0
 13 52  1  0
 14 53  1  0
 17 54  1  0
 17 55  1  0
 18 56  1  1
 21 57  1  0
 24 58  1  0
 24 59  1  0
 24 60  1  0
 30 61  1  0
 31 62  1  0
 33 63  1  0
 34 64  1  0
 35 65  1  0
 35 66  1  0
 36 67  1  6
 37 68  1  0
 38 69  1  0
 38 70  1  0
 38 71  1  0
 39 72  1  0
 39 73  1  0
 40 74  1  0
 40 75  1  0
 41 76  1  0
 41 77  1  0
 42 78  1  0
 42 79  1  0
 44 80  1  0
 44 81  1  0
 44 82  1  0
 45 83  1  0
 45 84  1  0
 45 85  1  0
M  CHG  4  16  -1  26  -1  37   1  43   1
M  END
>  <meeko>  (9) 
{"is_sidechain": [false], "free_energy": -5.641, "intermolecular_energy": -8.532, "internal_energy": -0.617}

$$$$
