LIB_LMAFSLWCXOQARP__M_PUB_ALL__e8__s20260927
     RDKit          3D

 44 46  0  0  0  0  0  0  0  0999 V2000
    1.9950  -17.5840    0.5980 C   0  0  0  0  0  0  0  0  0  0  0  0
    0.6540  -17.4860    1.1740 C   0  0  0  0  0  0  0  0  0  0  0  0
   -0.4520  -17.4290    1.6400 C   0  0  0  0  0  0  0  0  0  0  0  0
   -1.8140  -17.3410    2.2080 C   0  0  1  0  0  0  0  0  0  0  0  0
   -2.2820  -18.6760    2.4210 O   0  0  0  0  0  0  0  0  0  0  0  0
   -1.7960  -16.6310    3.5660 C   0  0  0  0  0  0  0  0  0  0  0  0
   -1.5820  -15.1170    3.4550 C   0  0  0  0  0  0  0  0  0  0  0  0
   -2.6280  -14.4110    2.5410 C   0  0  1  0  0  0  0  0  0  0  0  0
   -4.0740  -14.5050    3.1490 C   0  0  0  0  0  0  0  0  0  0  0  0
   -4.9520  -13.2610    3.0330 C   0  0  0  0  0  0  0  0  0  0  0  0
   -2.3050  -12.9260    2.3160 C   0  0  0  0  0  0  0  0  0  0  0  0
   -1.7510  -12.1280    3.3260 C   0  0  0  0  0  0  0  0  0  0  0  0
   -1.4950  -10.7610    3.1250 C   0  0  0  0  0  0  0  0  0  0  0  0
   -1.7680  -10.0950    1.9240 C   0  0  0  0  0  0  0  0  0  0  0  0
   -1.5330   -8.8550    1.7490 O   0  0  0  0  0  0  0  0  0  0  0  0
   -2.3200  -10.9170    0.9270 C   0  0  0  0  0  0  0  0  0  0  0  0
   -2.5930  -12.2970    1.0920 C   0  0  0  0  0  0  0  0  0  0  0  0
   -3.1210  -13.0350   -0.1120 C   0  0  0  0  0  0  0  0  0  0  0  0
   -3.4980  -14.4920    0.1320 C   0  0  0  0  0  0  0  0  0  0  0  0
   -2.5470  -15.1320    1.1470 C   0  0  2  0  0  0  0  0  0  0  0  0
   -2.7760  -16.6510    1.2310 C   0  0  0  0  0  0  0  0  0  0  0  0
    2.7384  -17.6383    1.4069 H   0  0  0  0  0  0  0  0  0  0  0  0
    2.0620  -18.4894   -0.0230 H   0  0  0  0  0  0  0  0  0  0  0  0
    2.1930  -16.6979   -0.0230 H   0  0  0  0  0  0  0  0  0  0  0  0
   -1.5910  -19.1290    2.9330 H   0  0  0  0  0  0  0  0  0  0  0  0
   -2.7582  -16.8119    4.0675 H   0  0  0  0  0  0  0  0  0  0  0  0
   -0.9486  -17.0392    4.1363 H   0  0  0  0  0  0  0  0  0  0  0  0
   -1.6479  -14.6805    4.4625 H   0  0  0  0  0  0  0  0  0  0  0  0
   -0.5933  -14.9607    2.9989 H   0  0  0  0  0  0  0  0  0  0  0  0
   -4.5958  -15.3292    2.6406 H   0  0  0  0  0  0  0  0  0  0  0  0
   -3.9232  -14.6512    4.2288 H   0  0  0  0  0  0  0  0  0  0  0  0
   -5.2082  -12.8979    4.0392 H   0  0  0  0  0  0  0  0  0  0  0  0
   -4.4063  -12.4766    2.4881 H   0  0  0  0  0  0  0  0  0  0  0  0
   -5.8739  -13.5124    2.4881 H   0  0  0  0  0  0  0  0  0  0  0  0
   -1.5110  -12.5822    4.2987 H   0  0  0  0  0  0  0  0  0  0  0  0
   -1.0577  -10.1846    3.9536 H   0  0  0  0  0  0  0  0  0  0  0  0
   -2.5555  -10.4589   -0.0450 H   0  0  0  0  0  0  0  0  0  0  0  0
   -4.0177  -12.5068   -0.4684 H   0  0  0  0  0  0  0  0  0  0  0  0
   -2.2998  -13.0512   -0.8437 H   0  0  0  0  0  0  0  0  0  0  0  0
   -4.5261  -14.5392    0.5202 H   0  0  0  0  0  0  0  0  0  0  0  0
   -3.4244  -15.0413   -0.8182 H   0  0  0  0  0  0  0  0  0  0  0  0
   -1.5137  -14.9929    0.7964 H   0  0  0  0  0  0  0  0  0  0  0  0
   -3.8080  -16.8335    1.5651 H   0  0  0  0  0  0  0  0  0  0  0  0
   -2.5924  -17.0709    0.2310 H   0  0  0  0  0  0  0  0  0  0  0  0
  1  2  1  0
  2  3  3  0
  4  3  1  6
  4  5  1  0
  4  6  1  0
  6  7  1  0
  7  8  1  0
  8  9  1  1
  9 10  1  0
  8 11  1  0
 11 12  2  0
 12 13  1  0
 13 14  2  0
 14 15  1  0
 14 16  1  0
 16 17  2  0
 17 18  1  0
 18 19  1  0
 19 20  1  0
 20 21  1  0
 21  4  1  0
 20  8  1  0
 17 11  1  0
  1 22  1  0
  1 23  1  0
  1 24  1  0
  5 25  1  0
  6 26  1  0
  6 27  1  0
  7 28  1  0
  7 29  1  0
  9 30  1  0
  9 31  1  0
 10 32  1  0
 10 33  1  0
 10 34  1  0
 12 35  1  0
 13 36  1  0
 16 37  1  0
 18 38  1  0
 18 39  1  0
 19 40  1  0
 19 41  1  0
 20 42  1  6
 21 43  1  0
 21 44  1  0
M  CHG  1  15  -1
M  END
>  <meeko>  (1) 
{"is_sidechain": [false], "free_energy": -6.819, "intermolecular_energy": -7.815, "internal_energy": 0.025}

$$$$
LIB_LMAFSLWCXOQARP__M_PUB_ALL__e8__s20260927
     RDKit          3D

 44 46  0  0  0  0  0  0  0  0999 V2000
   -1.5340   -8.4590    5.6450 C   0  0  0  0  0  0  0  0  0  0  0  0
   -1.5170   -9.1220    4.3410 C   0  0  0  0  0  0  0  0  0  0  0  0
   -1.5000   -9.6450    3.2590 C   0  0  0  0  0  0  0  0  0  0  0  0
   -1.4870  -10.3030    1.9360 C   0  0  1  0  0  0  0  0  0  0  0  0
   -1.2450   -9.2930    0.9510 O   0  0  0  0  0  0  0  0  0  0  0  0
   -0.3480  -11.3250    1.8430 C   0  0  0  0  0  0  0  0  0  0  0  0
   -0.6170  -12.6040    2.6440 C   0  0  0  0  0  0  0  0  0  0  0  0
   -1.9490  -13.3100    2.2500 C   0  0  1  0  0  0  0  0  0  0  0  0
   -1.9010  -13.8390    0.7710 C   0  0  0  0  0  0  0  0  0  0  0  0
   -0.6150  -14.5340    0.3290 C   0  0  0  0  0  0  0  0  0  0  0  0
   -2.2780  -14.4980    3.1670 C   0  0  0  0  0  0  0  0  0  0  0  0
   -1.2790  -15.3370    3.6770 C   0  0  0  0  0  0  0  0  0  0  0  0
   -1.5910  -16.4450    4.4830 C   0  0  0  0  0  0  0  0  0  0  0  0
   -2.9010  -16.7970    4.8350 C   0  0  0  0  0  0  0  0  0  0  0  0
   -3.1760  -17.8030    5.5670 O   0  0  0  0  0  0  0  0  0  0  0  0
   -3.8830  -15.9380    4.3140 C   0  0  0  0  0  0  0  0  0  0  0  0
   -3.6080  -14.8140    3.4980 C   0  0  0  0  0  0  0  0  0  0  0  0
   -4.7860  -13.9670    3.0870 C   0  0  0  0  0  0  0  0  0  0  0  0
   -4.4620  -12.8260    2.1290 C   0  0  0  0  0  0  0  0  0  0  0  0
   -3.0830  -12.2380    2.4360 C   0  0  2  0  0  0  0  0  0  0  0  0
   -2.8440  -10.9510    1.6270 C   0  0  0  0  0  0  0  0  0  0  0  0
   -1.5146   -9.2169    6.4420 H   0  0  0  0  0  0  0  0  0  0  0  0
   -0.6523   -7.8078    5.7367 H   0  0  0  0  0  0  0  0  0  0  0  0
   -2.4480   -7.8538    5.7367 H   0  0  0  0  0  0  0  0  0  0  0  0
   -1.1900   -8.4500    1.4330 H   0  0  0  0  0  0  0  0  0  0  0  0
   -0.2080  -11.5972    0.7864 H   0  0  0  0  0  0  0  0  0  0  0  0
    0.5493  -10.8541    2.2709 H   0  0  0  0  0  0  0  0  0  0  0  0
    0.2135  -13.3046    2.4722 H   0  0  0  0  0  0  0  0  0  0  0  0
   -0.7028  -12.3138    3.7016 H   0  0  0  0  0  0  0  0  0  0  0  0
   -2.7260  -14.5559    0.6472 H   0  0  0  0  0  0  0  0  0  0  0  0
   -1.9728  -12.9398    0.1415 H   0  0  0  0  0  0  0  0  0  0  0  0
   -0.0422  -14.8436    1.2156 H   0  0  0  0  0  0  0  0  0  0  0  0
   -0.8653  -15.4197   -0.2735 H   0  0  0  0  0  0  0  0  0  0  0  0
   -0.0112  -13.8394   -0.2735 H   0  0  0  0  0  0  0  0  0  0  0  0
   -0.2260  -15.1236    3.4411 H   0  0  0  0  0  0  0  0  0  0  0  0
   -0.7649  -17.0678    4.8567 H   0  0  0  0  0  0  0  0  0  0  0  0
   -4.9344  -16.1527    4.5558 H   0  0  0  0  0  0  0  0  0  0  0  0
   -5.5226  -14.6223    2.5991 H   0  0  0  0  0  0  0  0  0  0  0  0
   -5.1594  -13.4957    4.0081 H   0  0  0  0  0  0  0  0  0  0  0  0
   -4.4706  -13.2072    1.0972 H   0  0  0  0  0  0  0  0  0  0  0  0
   -5.2184  -12.0365    2.2501 H   0  0  0  0  0  0  0  0  0  0  0  0
   -3.0525  -11.9491    3.4969 H   0  0  0  0  0  0  0  0  0  0  0  0
   -2.8814  -11.1964    0.5554 H   0  0  0  0  0  0  0  0  0  0  0  0
   -3.6280  -10.2316    1.9060 H   0  0  0  0  0  0  0  0  0  0  0  0
  1  2  1  0
  2  3  3  0
  4  3  1  1
  4  5  1  0
  4  6  1  0
  6  7  1  0
  7  8  1  0
  8  9  1  6
  9 10  1  0
  8 11  1  0
 11 12  2  0
 12 13  1  0
 13 14  2  0
 14 15  1  0
 14 16  1  0
 16 17  2  0
 17 18  1  0
 18 19  1  0
 19 20  1  0
 20 21  1  0
 21  4  1  0
 20  8  1  0
 17 11  1  0
  1 22  1  0
  1 23  1  0
  1 24  1  0
  5 25  1  0
  6 26  1  0
  6 27  1  0
  7 28  1  0
  7 29  1  0
  9 30  1  0
  9 31  1  0
 10 32  1  0
 10 33  1  0
 10 34  1  0
 12 35  1  0
 13 36  1  0
 16 37  1  0
 18 38  1  0
 18 39  1  0
 19 40  1  0
 19 41  1  0
 20 42  1  1
 21 43  1  0
 21 44  1  0
M  CHG  1  15  -1
M  END
>  <meeko>  (2) 
{"is_sidechain": [false], "free_energy": -6.793, "intermolecular_energy": -7.493, "internal_energy": -0.268}

$$$$
LIB_LMAFSLWCXOQARP__M_PUB_ALL__e8__s20260927
     RDKit          3D

 44 46  0  0  0  0  0  0  0  0999 V2000
   -5.8930  -17.0860    5.4090 C   0  0  0  0  0  0  0  0  0  0  0  0
   -4.7320  -17.2640    4.5370 C   0  0  0  0  0  0  0  0  0  0  0  0
   -3.7740  -17.3860    3.8220 C   0  0  0  0  0  0  0  0  0  0  0  0
   -2.5930  -17.5190    2.9440 C   0  0  1  0  0  0  0  0  0  0  0  0
   -2.2940  -18.9120    2.8250 O   0  0  0  0  0  0  0  0  0  0  0  0
   -2.8910  -16.9850    1.5380 C   0  0  0  0  0  0  0  0  0  0  0  0
   -2.9560  -15.4540    1.4740 C   0  0  0  0  0  0  0  0  0  0  0  0
   -1.6660  -14.7600    2.0030 C   0  0  1  0  0  0  0  0  0  0  0  0
   -0.4260  -15.0850    1.0940 C   0  0  0  0  0  0  0  0  0  0  0  0
   -0.6170  -14.9330   -0.4130 C   0  0  0  0  0  0  0  0  0  0  0  0
   -1.8090  -13.2310    2.0770 C   0  0  0  0  0  0  0  0  0  0  0  0
   -2.5330  -12.5090    1.1190 C   0  0  0  0  0  0  0  0  0  0  0  0
   -2.6270  -11.1080    1.1720 C   0  0  0  0  0  0  0  0  0  0  0  0
   -2.0150  -10.3320    2.1650 C   0  0  0  0  0  0  0  0  0  0  0  0
   -2.1050   -9.0610    2.2060 O   0  0  0  0  0  0  0  0  0  0  0  0
   -1.2990  -11.0800    3.1140 C   0  0  0  0  0  0  0  0  0  0  0  0
   -1.1810  -12.4910    3.0940 C   0  0  0  0  0  0  0  0  0  0  0  0
   -0.4280  -13.1270    4.2360 C   0  0  0  0  0  0  0  0  0  0  0  0
   -0.2360  -14.6360    4.1260 C   0  0  0  0  0  0  0  0  0  0  0  0
   -1.4540  -15.2880    3.4680 C   0  0  2  0  0  0  0  0  0  0  0  0
   -1.3690  -16.8220    3.5550 C   0  0  0  0  0  0  0  0  0  0  0  0
   -5.5729  -17.1351    6.4603 H   0  0  0  0  0  0  0  0  0  0  0  0
   -6.3534  -16.1068    5.2112 H   0  0  0  0  0  0  0  0  0  0  0  0
   -6.6256  -17.8823    5.2112 H   0  0  0  0  0  0  0  0  0  0  0  0
   -3.1330  -19.3840    2.9660 H   0  0  0  0  0  0  0  0  0  0  0  0
   -2.0983  -17.3299    0.8578 H   0  0  0  0  0  0  0  0  0  0  0  0
   -3.8807  -17.3665    1.2466 H   0  0  0  0  0  0  0  0  0  0  0  0
   -3.1092  -15.1545    0.4267 H   0  0  0  0  0  0  0  0  0  0  0  0
   -3.7862  -15.1358    2.1217 H   0  0  0  0  0  0  0  0  0  0  0  0
    0.3919  -14.4138    1.3949 H   0  0  0  0  0  0  0  0  0  0  0  0
   -0.2268  -16.1552    1.2518 H   0  0  0  0  0  0  0  0  0  0  0  0
   -1.4639  -14.2590   -0.6091 H   0  0  0  0  0  0  0  0  0  0  0  0
    0.2969  -14.5125   -0.8579 H   0  0  0  0  0  0  0  0  0  0  0  0
   -0.8216  -15.9180   -0.8579 H   0  0  0  0  0  0  0  0  0  0  0  0
   -3.0394  -13.0513    0.3069 H   0  0  0  0  0  0  0  0  0  0  0  0
   -3.2109  -10.5943    0.3941 H   0  0  0  0  0  0  0  0  0  0  0  0
   -0.7969  -10.5338    3.9262 H   0  0  0  0  0  0  0  0  0  0  0  0
    0.5666  -12.6603    4.2897 H   0  0  0  0  0  0  0  0  0  0  0  0
   -1.0398  -12.9616    5.1351 H   0  0  0  0  0  0  0  0  0  0  0  0
    0.6572  -14.8433    3.5184 H   0  0  0  0  0  0  0  0  0  0  0  0
   -0.1140  -15.0523    5.1368 H   0  0  0  0  0  0  0  0  0  0  0  0
   -2.3538  -14.9930    4.0278 H   0  0  0  0  0  0  0  0  0  0  0  0
   -0.4692  -17.1556    3.0173 H   0  0  0  0  0  0  0  0  0  0  0  0
   -1.3301  -17.0926    4.6205 H   0  0  0  0  0  0  0  0  0  0  0  0
  1  2  1  0
  2  3  3  0
  4  3  1  1
  4  5  1  0
  4  6  1  0
  6  7  1  0
  7  8  1  0
  8  9  1  6
  9 10  1  0
  8 11  1  0
 11 12  2  0
 12 13  1  0
 13 14  2  0
 14 15  1  0
 14 16  1  0
 16 17  2  0
 17 18  1  0
 18 19  1  0
 19 20  1  0
 20 21  1  0
 21  4  1  0
 20  8  1  0
 17 11  1  0
  1 22  1  0
  1 23  1  0
  1 24  1  0
  5 25  1  0
  6 26  1  0
  6 27  1  0
  7 28  1  0
  7 29  1  0
  9 30  1  0
  9 31  1  0
 10 32  1  0
 10 33  1  0
 10 34  1  0
 12 35  1  0
 13 36  1  0
 16 37  1  0
 18 38  1  0
 18 39  1  0
 19 40  1  0
 19 41  1  0
 20 42  1  1
 21 43  1  0
 21 44  1  0
M  CHG  1  15  -1
M  END
>  <meeko>  (3) 
{"is_sidechain": [false], "free_energy": -6.777, "intermolecular_energy": -7.471, "internal_energy": -0.272}

$$$$
LIB_LMAFSLWCXOQARP__M_PUB_ALL__e8__s20260927
     RDKit          3D

 44 46  0  0  0  0  0  0  0  0999 V2000
    1.0580   -9.9570   -1.5470 C   0  0  0  0  0  0  0  0  0  0  0  0
   -0.0820   -9.9700   -0.6310 C   0  0  0  0  0  0  0  0  0  0  0  0
   -1.0340   -9.9780    0.1030 C   0  0  0  0  0  0  0  0  0  0  0  0
   -2.2000  -10.0050    1.0110 C   0  0  1  0  0  0  0  0  0  0  0  0
   -2.6710   -8.6620    1.1530 O   0  0  0  0  0  0  0  0  0  0  0  0
   -3.3400  -10.8380    0.4140 C   0  0  0  0  0  0  0  0  0  0  0  0
   -3.0760  -12.3470    0.4630 C   0  0  0  0  0  0  0  0  0  0  0  0
   -2.7770  -12.8750    1.8980 C   0  0  1  0  0  0  0  0  0  0  0  0
   -4.0260  -12.7190    2.8380 C   0  0  0  0  0  0  0  0  0  0  0  0
   -5.3850  -13.0870    2.2460 C   0  0  0  0  0  0  0  0  0  0  0  0
   -2.3620  -14.3550    1.9050 C   0  0  0  0  0  0  0  0  0  0  0  0
   -2.9300  -15.2870    1.0260 C   0  0  0  0  0  0  0  0  0  0  0  0
   -2.5740  -16.6460    1.0660 C   0  0  0  0  0  0  0  0  0  0  0  0
   -1.6420  -17.1710    1.9690 C   0  0  0  0  0  0  0  0  0  0  0  0
   -1.3240  -18.4060    1.9990 O   0  0  0  0  0  0  0  0  0  0  0  0
   -1.0850  -16.2170    2.8370 C   0  0  0  0  0  0  0  0  0  0  0  0
   -1.4190  -14.8410    2.8280 C   0  0  0  0  0  0  0  0  0  0  0  0
   -0.6680  -13.9520    3.7880 C   0  0  0  0  0  0  0  0  0  0  0  0
   -1.1250  -12.4980    3.8200 C   0  0  0  0  0  0  0  0  0  0  0  0
   -1.5570  -12.0370    2.4260 C   0  0  2  0  0  0  0  0  0  0  0  0
   -1.8050  -10.5190    2.4030 C   0  0  0  0  0  0  0  0  0  0  0  0
    1.9933   -9.9463   -0.9682 H   0  0  0  0  0  0  0  0  0  0  0  0
    1.0293  -10.8555   -2.1809 H   0  0  0  0  0  0  0  0  0  0  0  0
    1.0088   -9.0594   -2.1809 H   0  0  0  0  0  0  0  0  0  0  0  0
   -3.6360   -8.7210    1.2610 H   0  0  0  0  0  0  0  0  0  0  0  0
   -4.2603  -10.6258    0.9779 H   0  0  0  0  0  0  0  0  0  0  0  0
   -3.4299  -10.5565   -0.6456 H   0  0  0  0  0  0  0  0  0  0  0  0
   -3.9638  -12.8693    0.0769 H   0  0  0  0  0  0  0  0  0  0  0  0
   -2.1820  -12.5409   -0.1479 H   0  0  0  0  0  0  0  0  0  0  0  0
   -3.8622  -13.3588    3.7177 H   0  0  0  0  0  0  0  0  0  0  0  0
   -4.0893  -11.6426    3.0555 H   0  0  0  0  0  0  0  0  0  0  0  0
   -6.0993  -13.2804    3.0599 H   0  0  0  0  0  0  0  0  0  0  0  0
   -5.7520  -12.2559    1.6259 H   0  0  0  0  0  0  0  0  0  0  0  0
   -5.2825  -13.9897    1.6259 H   0  0  0  0  0  0  0  0  0  0  0  0
   -3.6714  -14.9471    0.2879 H   0  0  0  0  0  0  0  0  0  0  0  0
   -3.0521  -17.3321    0.3513 H   0  0  0  0  0  0  0  0  0  0  0  0
   -0.3415  -16.5612    3.5709 H   0  0  0  0  0  0  0  0  0  0  0  0
   -0.7855  -14.3678    4.7996 H   0  0  0  0  0  0  0  0  0  0  0  0
    0.3745  -13.9364    3.4373 H   0  0  0  0  0  0  0  0  0  0  0  0
   -1.9747  -12.4015    4.5119 H   0  0  0  0  0  0  0  0  0  0  0  0
   -0.2864  -11.8706    4.1564 H   0  0  0  0  0  0  0  0  0  0  0  0
   -0.7334  -12.2284    1.7224 H   0  0  0  0  0  0  0  0  0  0  0  0
   -2.6158  -10.2840    3.1082 H   0  0  0  0  0  0  0  0  0  0  0  0
   -0.8643  -10.0239    2.6858 H   0  0  0  0  0  0  0  0  0  0  0  0
  1  2  1  0
  2  3  3  0
  4  3  1  6
  4  5  1  0
  4  6  1  0
  6  7  1  0
  7  8  1  0
  8  9  1  1
  9 10  1  0
  8 11  1  0
 11 12  2  0
 12 13  1  0
 13 14  2  0
 14 15  1  0
 14 16  1  0
 16 17  2  0
 17 18  1  0
 18 19  1  0
 19 20  1  0
 20 21  1  0
 21  4  1  0
 20  8  1  0
 17 11  1  0
  1 22  1  0
  1 23  1  0
  1 24  1  0
  5 25  1  0
  6 26  1  0
  6 27  1  0
  7 28  1  0
  7 29  1  0
  9 30  1  0
  9 31  1  0
 10 32  1  0
 10 33  1  0
 10 34  1  0
 12 35  1  0
 13 36  1  0
 16 37  1  0
 18 38  1  0
 18 39  1  0
 19 40  1  0
 19 41  1  0
 20 42  1  6
 21 43  1  0
 21 44  1  0
M  CHG  1  15  -1
M  END
>  <meeko>  (4) 
{"is_sidechain": [false], "free_energy": -6.715, "intermolecular_energy": -7.402, "internal_energy": -0.269}

$$$$
LIB_LMAFSLWCXOQARP__M_PUB_ALL__e8__s20260927
     RDKit          3D

 44 46  0  0  0  0  0  0  0  0999 V2000
    8.9670  -12.8390   -3.1820 C   0  0  0  0  0  0  0  0  0  0  0  0
    7.8030  -13.1460   -4.0140 C   0  0  0  0  0  0  0  0  0  0  0  0
    6.8570  -13.3850   -4.7140 C   0  0  0  0  0  0  0  0  0  0  0  0
    5.6820  -13.6690   -5.5650 C   0  0  1  0  0  0  0  0  0  0  0  0
    6.1630  -14.0850   -6.8460 O   0  0  0  0  0  0  0  0  0  0  0  0
    4.8510  -14.8190   -4.9850 C   0  0  0  0  0  0  0  0  0  0  0  0
    4.0450  -14.4170   -3.7440 C   0  0  0  0  0  0  0  0  0  0  0  0
    3.1030  -13.2000   -3.9880 C   0  0  1  0  0  0  0  0  0  0  0  0
    1.9760  -13.5470   -5.0270 C   0  0  0  0  0  0  0  0  0  0  0  0
    0.8140  -14.4010   -4.5240 C   0  0  0  0  0  0  0  0  0  0  0  0
    2.4240  -12.7140   -2.6980 C   0  0  0  0  0  0  0  0  0  0  0  0
    2.0110  -13.6060   -1.6990 C   0  0  0  0  0  0  0  0  0  0  0  0
    1.3550  -13.1570   -0.5400 C   0  0  0  0  0  0  0  0  0  0  0  0
    1.0640  -11.8090   -0.2930 C   0  0  0  0  0  0  0  0  0  0  0  0
    0.4680  -11.4100    0.7610 O   0  0  0  0  0  0  0  0  0  0  0  0
    1.4910  -10.9370   -1.3070 C   0  0  0  0  0  0  0  0  0  0  0  0
    2.1530  -11.3500   -2.4890 C   0  0  0  0  0  0  0  0  0  0  0  0
    2.6000  -10.2640   -3.4340 C   0  0  0  0  0  0  0  0  0  0  0  0
    3.2170  -10.7530   -4.7400 C   0  0  0  0  0  0  0  0  0  0  0  0
    4.0210  -12.0350   -4.5100 C   0  0  2  0  0  0  0  0  0  0  0  0
    4.8270  -12.4100   -5.7650 C   0  0  0  0  0  0  0  0  0  0  0  0
    8.6885  -12.9125   -2.1204 H   0  0  0  0  0  0  0  0  0  0  0  0
    9.7728  -13.5553   -3.4001 H   0  0  0  0  0  0  0  0  0  0  0  0
    9.3147  -11.8184   -3.4001 H   0  0  0  0  0  0  0  0  0  0  0  0
    6.8030  -13.4090   -7.1290 H   0  0  0  0  0  0  0  0  0  0  0  0
    4.1510  -15.1688   -5.7581 H   0  0  0  0  0  0  0  0  0  0  0  0
    5.5541  -15.6067   -4.6766 H   0  0  0  0  0  0  0  0  0  0  0  0
    3.4322  -15.2758   -3.4325 H   0  0  0  0  0  0  0  0  0  0  0  0
    4.7669  -14.1198   -2.9691 H   0  0  0  0  0  0  0  0  0  0  0  0
    1.5573  -12.5979   -5.3930 H   0  0  0  0  0  0  0  0  0  0  0  0
    2.4715  -14.1592   -5.7949 H   0  0  0  0  0  0  0  0  0  0  0  0
    0.8103  -14.4038   -3.4240 H   0  0  0  0  0  0  0  0  0  0  0  0
   -0.1345  -13.9835   -4.8929 H   0  0  0  0  0  0  0  0  0  0  0  0
    0.9293  -15.4309   -4.8929 H   0  0  0  0  0  0  0  0  0  0  0  0
    2.2046  -14.6815   -1.8249 H   0  0  0  0  0  0  0  0  0  0  0  0
    1.0547  -13.9020    0.2116 H   0  0  0  0  0  0  0  0  0  0  0  0
    1.2987   -9.8620   -1.1748 H   0  0  0  0  0  0  0  0  0  0  0  0
    1.7239   -9.6467   -3.6817 H   0  0  0  0  0  0  0  0  0  0  0  0
    3.3934   -9.7109   -2.9099 H   0  0  0  0  0  0  0  0  0  0  0  0
    2.4150  -10.9546   -5.4654 H   0  0  0  0  0  0  0  0  0  0  0  0
    3.8927   -9.9754   -5.1257 H   0  0  0  0  0  0  0  0  0  0  0  0
    4.7561  -11.8501   -3.7129 H   0  0  0  0  0  0  0  0  0  0  0  0
    4.1257  -12.5887   -6.5934 H   0  0  0  0  0  0  0  0  0  0  0  0
    5.5098  -11.5756   -5.9832 H   0  0  0  0  0  0  0  0  0  0  0  0
  1  2  1  0
  2  3  3  0
  4  3  1  1
  4  5  1  0
  4  6  1  0
  6  7  1  0
  7  8  1  0
  8  9  1  6
  9 10  1  0
  8 11  1  0
 11 12  2  0
 12 13  1  0
 13 14  2  0
 14 15  1  0
 14 16  1  0
 16 17  2  0
 17 18  1  0
 18 19  1  0
 19 20  1  0
 20 21  1  0
 21  4  1  0
 20  8  1  0
 17 11  1  0
  1 22  1  0
  1 23  1  0
  1 24  1  0
  5 25  1  0
  6 26  1  0
  6 27  1  0
  7 28  1  0
  7 29  1  0
  9 30  1  0
  9 31  1  0
 10 32  1  0
 10 33  1  0
 10 34  1  0
 12 35  1  0
 13 36  1  0
 16 37  1  0
 18 38  1  0
 18 39  1  0
 19 40  1  0
 19 41  1  0
 20 42  1  1
 21 43  1  0
 21 44  1  0
M  CHG  1  15  -1
M  END
>  <meeko>  (5) 
{"is_sidechain": [false], "free_energy": -6.682, "intermolecular_energy": -7.511, "internal_energy": -0.122}

$$$$
LIB_LMAFSLWCXOQARP__M_PUB_ALL__e8__s20260927
     RDKit          3D

 44 46  0  0  0  0  0  0  0  0999 V2000
   -4.1930  -10.3750   -0.9490 C   0  0  0  0  0  0  0  0  0  0  0  0
   -3.0760  -10.4730   -0.0100 C   0  0  0  0  0  0  0  0  0  0  0  0
   -2.1720  -10.5690    0.7760 C   0  0  0  0  0  0  0  0  0  0  0  0
   -1.0610  -10.7040    1.7410 C   0  0  1  0  0  0  0  0  0  0  0  0
   -0.4470   -9.4190    1.8800 O   0  0  0  0  0  0  0  0  0  0  0  0
   -1.5800  -11.1240    3.1200 C   0  0  0  0  0  0  0  0  0  0  0  0
   -2.0130  -12.5930    3.1820 C   0  0  0  0  0  0  0  0  0  0  0  0
   -0.8910  -13.5850    2.7530 C   0  0  1  0  0  0  0  0  0  0  0  0
    0.3210  -13.5460    3.7530 C   0  0  0  0  0  0  0  0  0  0  0  0
    0.0600  -14.0450    5.1730 C   0  0  0  0  0  0  0  0  0  0  0  0
   -1.3890  -15.0370    2.6710 C   0  0  0  0  0  0  0  0  0  0  0  0
   -2.3330  -15.5470    3.5720 C   0  0  0  0  0  0  0  0  0  0  0  0
   -2.7540  -16.8860    3.5140 C   0  0  0  0  0  0  0  0  0  0  0  0
   -2.2740  -17.8050    2.5720 C   0  0  0  0  0  0  0  0  0  0  0  0
   -2.6610  -19.0180    2.5260 O   0  0  0  0  0  0  0  0  0  0  0  0
   -1.3330  -17.2680    1.6780 C   0  0  0  0  0  0  0  0  0  0  0  0
   -0.8830  -15.9250    1.7050 C   0  0  0  0  0  0  0  0  0  0  0  0
    0.0810  -15.5090    0.6230 C   0  0  0  0  0  0  0  0  0  0  0  0
    0.6200  -14.0870    0.7450 C   0  0  0  0  0  0  0  0  0  0  0  0
   -0.4520  -13.1510    1.3080 C   0  0  2  0  0  0  0  0  0  0  0  0
    0.0030  -11.6830    1.2250 C   0  0  0  0  0  0  0  0  0  0  0  0
   -5.1363  -10.2922   -0.3893 H   0  0  0  0  0  0  0  0  0  0  0  0
   -4.0629   -9.4848   -1.5820 H   0  0  0  0  0  0  0  0  0  0  0  0
   -4.2199  -11.2742   -1.5820 H   0  0  0  0  0  0  0  0  0  0  0  0
   -1.1160   -8.7670    1.6100 H   0  0  0  0  0  0  0  0  0  0  0  0
   -0.7800  -10.9641    3.8579 H   0  0  0  0  0  0  0  0  0  0  0  0
   -2.4689  -10.5125    3.3342 H   0  0  0  0  0  0  0  0  0  0  0  0
   -2.3089  -12.8264    4.2154 H   0  0  0  0  0  0  0  0  0  0  0  0
   -2.8458  -12.7173    2.4741 H   0  0  0  0  0  0  0  0  0  0  0  0
    1.1246  -14.1638    3.3258 H   0  0  0  0  0  0  0  0  0  0  0  0
    0.5678  -12.4798    3.8639 H   0  0  0  0  0  0  0  0  0  0  0  0
    0.4442  -13.3105    5.8962 H   0  0  0  0  0  0  0  0  0  0  0  0
   -1.0219  -14.1756    5.3227 H   0  0  0  0  0  0  0  0  0  0  0  0
    0.5698  -15.0082    5.3227 H   0  0  0  0  0  0  0  0  0  0  0  0
   -2.7540  -14.8840    4.3422 H   0  0  0  0  0  0  0  0  0  0  0  0
   -3.4991  -17.2306    4.2462 H   0  0  0  0  0  0  0  0  0  0  0  0
   -0.9185  -17.9337    0.9066 H   0  0  0  0  0  0  0  0  0  0  0  0
    0.9364  -16.2002    0.6451 H   0  0  0  0  0  0  0  0  0  0  0  0
   -0.4855  -15.5410   -0.3194 H   0  0  0  0  0  0  0  0  0  0  0  0
    1.4899  -14.0867    1.4182 H   0  0  0  0  0  0  0  0  0  0  0  0
    0.9119  -13.7315   -0.2542 H   0  0  0  0  0  0  0  0  0  0  0  0
   -1.3529  -13.2340    0.6823 H   0  0  0  0  0  0  0  0  0  0  0  0
    0.9147  -11.5623    1.8284 H   0  0  0  0  0  0  0  0  0  0  0  0
    0.1835  -11.4500    0.1652 H   0  0  0  0  0  0  0  0  0  0  0  0
  1  2  1  0
  2  3  3  0
  4  3  1  6
  4  5  1  0
  4  6  1  0
  6  7  1  0
  7  8  1  0
  8  9  1  1
  9 10  1  0
  8 11  1  0
 11 12  2  0
 12 13  1  0
 13 14  2  0
 14 15  1  0
 14 16  1  0
 16 17  2  0
 17 18  1  0
 18 19  1  0
 19 20  1  0
 20 21  1  0
 21  4  1  0
 20  8  1  0
 17 11  1  0
  1 22  1  0
  1 23  1  0
  1 24  1  0
  5 25  1  0
  6 26  1  0
  6 27  1  0
  7 28  1  0
  7 29  1  0
  9 30  1  0
  9 31  1  0
 10 32  1  0
 10 33  1  0
 10 34  1  0
 12 35  1  0
 13 36  1  0
 16 37  1  0
 18 38  1  0
 18 39  1  0
 19 40  1  0
 19 41  1  0
 20 42  1  6
 21 43  1  0
 21 44  1  0
M  CHG  1  15  -1
M  END
>  <meeko>  (6) 
{"is_sidechain": [false], "free_energy": -6.651, "intermolecular_energy": -7.417, "internal_energy": -0.181}

$$$$
LIB_LMAFSLWCXOQARP__M_PUB_ALL__e8__s20260927
     RDKit          3D

 44 46  0  0  0  0  0  0  0  0999 V2000
    1.1150  -17.4290    5.5460 C   0  0  0  0  0  0  0  0  0  0  0  0
    0.0560  -17.3930    4.5370 C   0  0  0  0  0  0  0  0  0  0  0  0
   -0.7970  -17.3600    3.6910 C   0  0  0  0  0  0  0  0  0  0  0  0
   -1.8410  -17.3040    2.6460 C   0  0  1  0  0  0  0  0  0  0  0  0
   -2.3050  -18.6380    2.4230 O   0  0  0  0  0  0  0  0  0  0  0  0
   -3.0370  -16.4660    3.1120 C   0  0  0  0  0  0  0  0  0  0  0  0
   -2.7530  -14.9590    3.1230 C   0  0  0  0  0  0  0  0  0  0  0  0
   -2.2720  -14.4120    1.7460 C   0  0  1  0  0  0  0  0  0  0  0  0
   -3.3960  -14.5370    0.6550 C   0  0  0  0  0  0  0  0  0  0  0  0
   -4.4740  -13.4560    0.6490 C   0  0  0  0  0  0  0  0  0  0  0  0
   -1.8430  -12.9380    1.8160 C   0  0  0  0  0  0  0  0  0  0  0  0
   -2.5060  -12.0140    2.6350 C   0  0  0  0  0  0  0  0  0  0  0  0
   -2.1340  -10.6590    2.6630 C   0  0  0  0  0  0  0  0  0  0  0  0
   -1.0910  -10.1300    1.8920 C   0  0  0  0  0  0  0  0  0  0  0  0
   -0.7590   -8.9000    1.9240 O   0  0  0  0  0  0  0  0  0  0  0  0
   -0.4410  -11.0780    1.0830 C   0  0  0  0  0  0  0  0  0  0  0  0
   -0.7880  -12.4500    1.0260 C   0  0  0  0  0  0  0  0  0  0  0  0
    0.0670  -13.3320    0.1520 C   0  0  0  0  0  0  0  0  0  0  0  0
   -0.3980  -14.7790    0.0370 C   0  0  0  0  0  0  0  0  0  0  0  0
   -1.0050  -15.2570    1.3580 C   0  0  2  0  0  0  0  0  0  0  0  0
   -1.2700  -16.7720    1.3240 C   0  0  0  0  0  0  0  0  0  0  0  0
    0.6656  -17.4137    6.5499 H   0  0  0  0  0  0  0  0  0  0  0  0
    1.7073  -18.3478    5.4233 H   0  0  0  0  0  0  0  0  0  0  0  0
    1.7683  -16.5525    5.4233 H   0  0  0  0  0  0  0  0  0  0  0  0
   -2.0960  -19.1380    3.2310 H   0  0  0  0  0  0  0  0  0  0  0  0
   -3.8825  -16.6572    2.4349 H   0  0  0  0  0  0  0  0  0  0  0  0
   -3.2602  -16.7635    4.1472 H   0  0  0  0  0  0  0  0  0  0  0  0
   -3.6764  -14.4318    3.4047 H   0  0  0  0  0  0  0  0  0  0  0  0
   -1.9403  -14.7861    3.8439 H   0  0  0  0  0  0  0  0  0  0  0  0
   -2.9064  -14.5239   -0.3299 H   0  0  0  0  0  0  0  0  0  0  0  0
   -3.9264  -15.4705    0.8944 H   0  0  0  0  0  0  0  0  0  0  0  0
   -4.7358  -13.1935    1.6846 H   0  0  0  0  0  0  0  0  0  0  0  0
   -4.0955  -12.5636    0.1290 H   0  0  0  0  0  0  0  0  0  0  0  0
   -5.3674  -13.8320    0.1290 H   0  0  0  0  0  0  0  0  0  0  0  0
   -3.3361  -12.3570    3.2701 H   0  0  0  0  0  0  0  0  0  0  0  0
   -2.6906   -9.9788    3.3245 H   0  0  0  0  0  0  0  0  0  0  0  0
    0.3916  -10.7317    0.4530 H   0  0  0  0  0  0  0  0  0  0  0  0
    0.0815  -12.8980   -0.8587 H   0  0  0  0  0  0  0  0  0  0  0  0
    1.0572  -13.3669    0.6298 H   0  0  0  0  0  0  0  0  0  0  0  0
   -1.1560  -14.8530   -0.7567 H   0  0  0  0  0  0  0  0  0  0  0  0
    0.4689  -15.4117   -0.2041 H   0  0  0  0  0  0  0  0  0  0  0  0
   -0.2729  -15.0874    2.1613 H   0  0  0  0  0  0  0  0  0  0  0  0
   -1.9888  -16.9854    0.5191 H   0  0  0  0  0  0  0  0  0  0  0  0
   -0.3062  -17.2738    1.1528 H   0  0  0  0  0  0  0  0  0  0  0  0
  1  2  1  0
  2  3  3  0
  4  3  1  1
  4  5  1  0
  4  6  1  0
  6  7  1  0
  7  8  1  0
  8  9  1  6
  9 10  1  0
  8 11  1  0
 11 12  2  0
 12 13  1  0
 13 14  2  0
 14 15  1  0
 14 16  1  0
 16 17  2  0
 17 18  1  0
 18 19  1  0
 19 20  1  0
 20 21  1  0
 21  4  1  0
 20  8  1  0
 17 11  1  0
  1 22  1  0
  1 23  1  0
  1 24  1  0
  5 25  1  0
  6 26  1  0
  6 27  1  0
  7 28  1  0
  7 29  1  0
  9 30  1  0
  9 31  1  0
 10 32  1  0
 10 33  1  0
 10 34  1  0
 12 35  1  0
 13 36  1  0
 16 37  1  0
 18 38  1  0
 18 39  1  0
 19 40  1  0
 19 41  1  0
 20 42  1  1
 21 43  1  0
 21 44  1  0
M  CHG  1  15  -1
M  END
>  <meeko>  (7) 
{"is_sidechain": [false], "free_energy": -6.479, "intermolecular_energy": -7.296, "internal_energy": -0.105}

$$$$
LIB_LMAFSLWCXOQARP__M_PUB_ALL__e8__s20260927
     RDKit          3D

 44 46  0  0  0  0  0  0  0  0999 V2000
   -0.0350  -14.4580   -5.2960 C   0  0  0  0  0  0  0  0  0  0  0  0
    1.1970  -13.9080   -4.7300 C   0  0  0  0  0  0  0  0  0  0  0  0
    2.2110  -13.4420   -4.2860 C   0  0  0  0  0  0  0  0  0  0  0  0
    3.4680  -12.8740   -3.7530 C   0  0  1  0  0  0  0  0  0  0  0  0
    3.1250  -11.9870   -2.6840 O   0  0  0  0  0  0  0  0  0  0  0  0
    4.3650  -13.9740   -3.1750 C   0  0  0  0  0  0  0  0  0  0  0  0
    5.0340  -14.8370   -4.2510 C   0  0  0  0  0  0  0  0  0  0  0  0
    5.8650  -14.0090   -5.2770 C   0  0  1  0  0  0  0  0  0  0  0  0
    7.0930  -13.3120   -4.5890 C   0  0  0  0  0  0  0  0  0  0  0  0
    7.9500  -14.1780   -3.6670 C   0  0  0  0  0  0  0  0  0  0  0  0
    6.3960  -14.8700   -6.4340 C   0  0  0  0  0  0  0  0  0  0  0  0
    6.8220  -16.1900   -6.2380 C   0  0  0  0  0  0  0  0  0  0  0  0
    7.3440  -16.9570   -7.2940 C   0  0  0  0  0  0  0  0  0  0  0  0
    7.4800  -16.4750   -8.6020 C   0  0  0  0  0  0  0  0  0  0  0  0
    7.9540  -17.1780   -9.5540 O   0  0  0  0  0  0  0  0  0  0  0  0
    7.0430  -15.1510   -8.7720 C   0  0  0  0  0  0  0  0  0  0  0  0
    6.5130  -14.3470   -7.7340 C   0  0  0  0  0  0  0  0  0  0  0  0
    6.0310  -12.9700   -8.1180 C   0  0  0  0  0  0  0  0  0  0  0  0
    5.5620  -12.0990   -6.9580 C   0  0  0  0  0  0  0  0  0  0  0  0
    4.8760  -12.9500   -5.8870 C   0  0  2  0  0  0  0  0  0  0  0  0
    4.2050  -12.0610   -4.8260 C   0  0  0  0  0  0  0  0  0  0  0  0
   -0.7101  -14.7594   -4.4815 H   0  0  0  0  0  0  0  0  0  0  0  0
   -0.5267  -13.6939   -5.9160 H   0  0  0  0  0  0  0  0  0  0  0  0
    0.2056  -15.3342   -5.9160 H   0  0  0  0  0  0  0  0  0  0  0  0
    2.2460  -12.2640   -2.3710 H   0  0  0  0  0  0  0  0  0  0  0  0
    5.1510  -13.5009   -2.5680 H   0  0  0  0  0  0  0  0  0  0  0  0
    3.7233  -14.6376   -2.5768 H   0  0  0  0  0  0  0  0  0  0  0  0
    5.7052  -15.5542   -3.7559 H   0  0  0  0  0  0  0  0  0  0  0  0
    4.2315  -15.3390   -4.8114 H   0  0  0  0  0  0  0  0  0  0  0  0
    7.7463  -12.9269   -5.3858 H   0  0  0  0  0  0  0  0  0  0  0  0
    6.6575  -12.5409   -3.9365 H   0  0  0  0  0  0  0  0  0  0  0  0
    7.7155  -13.9410   -2.6188 H   0  0  0  0  0  0  0  0  0  0  0  0
    7.7374  -15.2400   -3.8592 H   0  0  0  0  0  0  0  0  0  0  0  0
    9.0142  -13.9765   -3.8592 H   0  0  0  0  0  0  0  0  0  0  0  0
    6.7463  -16.6362   -5.2354 H   0  0  0  0  0  0  0  0  0  0  0  0
    7.6619  -17.9885   -7.0823 H   0  0  0  0  0  0  0  0  0  0  0  0
    7.1174  -14.7100   -9.7770 H   0  0  0  0  0  0  0  0  0  0  0  0
    6.8578  -12.4485   -8.6224 H   0  0  0  0  0  0  0  0  0  0  0  0
    5.1509  -13.1229   -8.7599 H   0  0  0  0  0  0  0  0  0  0  0  0
    6.4304  -11.5904   -6.5139 H   0  0  0  0  0  0  0  0  0  0  0  0
    4.8413  -11.3603   -7.3386 H   0  0  0  0  0  0  0  0  0  0  0  0
    4.0701  -13.5287   -6.3620 H   0  0  0  0  0  0  0  0  0  0  0  0
    4.9792  -11.4520   -4.3363 H   0  0  0  0  0  0  0  0  0  0  0  0
    3.4599  -11.4354   -5.3393 H   0  0  0  0  0  0  0  0  0  0  0  0
  1  2  1  0
  2  3  3  0
  4  3  1  6
  4  5  1  0
  4  6  1  0
  6  7  1  0
  7  8  1  0
  8  9  1  1
  9 10  1  0
  8 11  1  0
 11 12  2  0
 12 13  1  0
 13 14  2  0
 14 15  1  0
 14 16  1  0
 16 17  2  0
 17 18  1  0
 18 19  1  0
 19 20  1  0
 20 21  1  0
 21  4  1  0
 20  8  1  0
 17 11  1  0
  1 22  1  0
  1 23  1  0
  1 24  1  0
  5 25  1  0
  6 26  1  0
  6 27  1  0
  7 28  1  0
  7 29  1  0
  9 30  1  0
  9 31  1  0
 10 32  1  0
 10 33  1  0
 10 34  1  0
 12 35  1  0
 13 36  1  0
 16 37  1  0
 18 38  1  0
 18 39  1  0
 19 40  1  0
 19 41  1  0
 20 42  1  6
 21 43  1  0
 21 44  1  0
M  CHG  1  15  -1
M  END
>  <meeko>  (8) 
{"is_sidechain": [false], "free_energy": -6.459, "intermolecular_energy": -7.108, "internal_energy": -0.27}

$$$$
LIB_LMAFSLWCXOQARP__M_PUB_ALL__e8__s20260927
     RDKit          3D

 44 46  0  0  0  0  0  0  0  0999 V2000
   -6.5450  -14.0910    4.6810 C   0  0  0  0  0  0  0  0  0  0  0  0
   -5.6980  -13.7240    3.5460 C   0  0  0  0  0  0  0  0  0  0  0  0
   -4.9930  -13.4040    2.6270 C   0  0  0  0  0  0  0  0  0  0  0  0
   -4.1150  -13.0240    1.5010 C   0  0  1  0  0  0  0  0  0  0  0  0
   -4.8780  -12.2030    0.6120 O   0  0  0  0  0  0  0  0  0  0  0  0
   -2.9220  -12.1950    1.9920 C   0  0  0  0  0  0  0  0  0  0  0  0
   -1.8690  -13.0300    2.7290 C   0  0  0  0  0  0  0  0  0  0  0  0
   -1.3280  -14.2240    1.8880 C   0  0  1  0  0  0  0  0  0  0  0  0
   -0.5400  -13.7240    0.6240 C   0  0  0  0  0  0  0  0  0  0  0  0
    0.4610  -12.5920    0.8390 C   0  0  0  0  0  0  0  0  0  0  0  0
   -0.3940  -15.1380    2.6980 C   0  0  0  0  0  0  0  0  0  0  0  0
    0.4900  -14.6270    3.6580 C   0  0  0  0  0  0  0  0  0  0  0  0
    1.3690  -15.4640    4.3650 C   0  0  0  0  0  0  0  0  0  0  0  0
    1.4350  -16.8500    4.1720 C   0  0  0  0  0  0  0  0  0  0  0  0
    2.2360  -17.6030    4.8180 O   0  0  0  0  0  0  0  0  0  0  0  0
    0.5370  -17.3370    3.2080 C   0  0  0  0  0  0  0  0  0  0  0  0
   -0.3620  -16.5250    2.4740 C   0  0  0  0  0  0  0  0  0  0  0  0
   -1.3000  -17.2330    1.5290 C   0  0  0  0  0  0  0  0  0  0  0  0
   -2.1820  -16.3190    0.6840 C   0  0  0  0  0  0  0  0  0  0  0  0
   -2.5850  -15.0740    1.4780 C   0  0  2  0  0  0  0  0  0  0  0  0
   -3.6490  -14.2610    0.7210 C   0  0  0  0  0  0  0  0  0  0  0  0
   -6.0190  -13.8631    5.6198 H   0  0  0  0  0  0  0  0  0  0  0  0
   -7.4835  -13.5188    4.6383 H   0  0  0  0  0  0  0  0  0  0  0  0
   -6.7693  -15.1670    4.6383 H   0  0  0  0  0  0  0  0  0  0  0  0
   -4.9480  -12.6960   -0.2230 H   0  0  0  0  0  0  0  0  0  0  0  0
   -2.4451  -11.7195    1.1223 H   0  0  0  0  0  0  0  0  0  0  0  0
   -3.3105  -11.4543    2.7065 H   0  0  0  0  0  0  0  0  0  0  0  0
   -1.0241  -12.3753    2.9890 H   0  0  0  0  0  0  0  0  0  0  0  0
   -2.3555  -13.4539    3.6198 H   0  0  0  0  0  0  0  0  0  0  0  0
    0.0122  -14.5830    0.2151 H   0  0  0  0  0  0  0  0  0  0  0  0
   -1.3063  -13.3066   -0.0457 H   0  0  0  0  0  0  0  0  0  0  0  0
    0.6047  -12.4295    1.9174 H   0  0  0  0  0  0  0  0  0  0  0  0
    1.4227  -12.8603    0.3773 H   0  0  0  0  0  0  0  0  0  0  0  0
    0.0770  -11.6704    0.3773 H   0  0  0  0  0  0  0  0  0  0  0  0
    0.4956  -13.5462    3.8624 H   0  0  0  0  0  0  0  0  0  0  0  0
    2.0397  -15.0079    5.1081 H   0  0  0  0  0  0  0  0  0  0  0  0
    0.5315  -18.4191    3.0103 H   0  0  0  0  0  0  0  0  0  0  0  0
   -0.6953  -17.8485    0.8467 H   0  0  0  0  0  0  0  0  0  0  0  0
   -1.9840  -17.8196    2.1599 H   0  0  0  0  0  0  0  0  0  0  0  0
   -1.6271  -16.0108   -0.2144 H   0  0  0  0  0  0  0  0  0  0  0  0
   -3.0918  -16.8681    0.3998 H   0  0  0  0  0  0  0  0  0  0  0  0
   -3.0517  -15.3957    2.4207 H   0  0  0  0  0  0  0  0  0  0  0  0
   -3.2238  -13.9323   -0.2387 H   0  0  0  0  0  0  0  0  0  0  0  0
   -4.5240  -14.9118    0.5766 H   0  0  0  0  0  0  0  0  0  0  0  0
  1  2  1  0
  2  3  3  0
  4  3  1  1
  4  5  1  0
  4  6  1  0
  6  7  1  0
  7  8  1  0
  8  9  1  6
  9 10  1  0
  8 11  1  0
 11 12  2  0
 12 13  1  0
 13 14  2  0
 14 15  1  0
 14 16  1  0
 16 17  2  0
 17 18  1  0
 18 19  1  0
 19 20  1  0
 20 21  1  0
 21  4  1  0
 20  8  1  0
 17 11  1  0
  1 22  1  0
  1 23  1  0
  1 24  1  0
  5 25  1  0
  6 26  1  0
  6 27  1  0
  7 28  1  0
  7 29  1  0
  9 30  1  0
  9 31  1  0
 10 32  1  0
 10 33  1  0
 10 34  1  0
 12 35  1  0
 13 36  1  0
 16 37  1  0
 18 38  1  0
 18 39  1  0
 19 40  1  0
 19 41  1  0
 20 42  1  1
 21 43  1  0
 21 44  1  0
M  CHG  1  15  -1
M  END
>  <meeko>  (9) 
{"is_sidechain": [false], "free_energy": -6.364, "intermolecular_energy": -7.0, "internal_energy": -0.269}

$$$$
