LIB_TVZNWOVBAQXKHS__M_PUB_ALL__e8__s20260927
     RDKit          3D

 56 58  0  0  0  0  0  0  0  0999 V2000
   -3.9110  -10.9470   -0.4910 C   0  0  0  0  0  0  0  0  0  0  0  0
   -3.0440   -9.9530    0.2580 C   0  0  0  0  0  0  0  0  0  0  0  0
   -1.6740  -10.0810   -0.1480 O   0  0  0  0  0  0  0  0  0  0  0  0
   -0.7530   -9.8470    0.8170 C   0  0  0  0  0  0  0  0  0  0  0  0
   -0.0860   -8.8410    0.9830 O   0  0  0  0  0  0  0  0  0  0  0  0
   -0.6290  -11.0580    1.6400 C   0  0  0  0  0  0  0  0  0  0  0  0
   -1.1020  -11.0410    2.9520 C   0  0  0  0  0  0  0  0  0  0  0  0
   -1.7410   -9.8240    3.5570 C   0  0  0  0  0  0  0  0  0  0  0  0
   -1.0080  -12.1260    3.7670 N   0  0  0  0  0  0  0  0  0  0  0  0
   -0.4330  -13.2650    3.2910 C   0  0  0  0  0  0  0  0  0  0  0  0
   -0.3560  -14.3560    4.2780 C   0  0  0  0  0  0  0  0  0  0  0  0
    0.7200  -14.4210    5.1800 C   0  0  0  0  0  0  0  0  0  0  0  0
    0.8060  -15.4430    6.1300 C   0  0  0  0  0  0  0  0  0  0  0  0
   -0.1780  -16.4250    6.1880 C   0  0  0  0  0  0  0  0  0  0  0  0
   -1.2450  -16.3910    5.2930 C   0  0  0  0  0  0  0  0  0  0  0  0
   -1.3300  -15.3680    4.3430 C   0  0  0  0  0  0  0  0  0  0  0  0
    0.0280  -13.3510    1.9760 C   0  0  0  0  0  0  0  0  0  0  0  0
    0.5830  -14.6120    1.4700 C   0  0  0  0  0  0  0  0  0  0  0  0
    1.7640  -14.9090    1.5330 O   0  0  0  0  0  0  0  0  0  0  0  0
   -0.4240  -15.3280    0.9220 O   0  0  0  0  0  0  0  0  0  0  0  0
   -0.0410  -16.0820   -0.2340 C   0  0  0  0  0  0  0  0  0  0  0  0
   -0.8540  -15.5840   -1.4120 C   0  0  0  0  0  0  0  0  0  0  0  0
   -0.0630  -12.2360    1.1250 C   0  0  0  0  0  0  0  0  0  0  0  0
    0.3920  -12.3320   -0.2720 C   0  0  0  0  0  0  0  0  0  0  0  0
    1.6030  -11.8970   -0.6520 C   0  0  0  0  0  0  0  0  0  0  0  0
    2.0910  -11.9680   -2.0350 C   0  0  0  0  0  0  0  0  0  0  0  0
    2.4240  -10.7790   -2.6970 C   0  0  0  0  0  0  0  0  0  0  0  0
    2.8700  -10.8030   -4.0200 C   0  0  0  0  0  0  0  0  0  0  0  0
    2.9760  -12.0150   -4.6990 C   0  0  0  0  0  0  0  0  0  0  0  0
    2.6320  -13.2030   -4.0570 C   0  0  0  0  0  0  0  0  0  0  0  0
    2.1880  -13.1800   -2.7330 C   0  0  0  0  0  0  0  0  0  0  0  0
   -4.4572  -11.5732    0.2298 H   0  0  0  0  0  0  0  0  0  0  0  0
   -4.6291  -10.4039   -1.1230 H   0  0  0  0  0  0  0  0  0  0  0  0
   -3.2754  -11.5847   -1.1230 H   0  0  0  0  0  0  0  0  0  0  0  0
   -3.3926   -8.9324    0.0416 H   0  0  0  0  0  0  0  0  0  0  0  0
   -3.1176  -10.1561    1.3366 H   0  0  0  0  0  0  0  0  0  0  0  0
   -1.7028   -9.8968    4.6539 H   0  0  0  0  0  0  0  0  0  0  0  0
   -1.1989   -8.9244    3.2301 H   0  0  0  0  0  0  0  0  0  0  0  0
   -2.7893   -9.7594    3.2301 H   0  0  0  0  0  0  0  0  0  0  0  0
    1.5079  -13.6546    5.1377 H   0  0  0  0  0  0  0  0  0  0  0  0
    1.6523  -15.4708    6.8322 H   0  0  0  0  0  0  0  0  0  0  0  0
   -0.1136  -17.2263    6.9388 H   0  0  0  0  0  0  0  0  0  0  0  0
   -2.0213  -17.1693    5.3335 H   0  0  0  0  0  0  0  0  0  0  0  0
   -2.1722  -15.3549    3.6355 H   0  0  0  0  0  0  0  0  0  0  0  0
    1.0312  -15.9390   -0.4339 H   0  0  0  0  0  0  0  0  0  0  0  0
   -0.2268  -17.1535   -0.0687 H   0  0  0  0  0  0  0  0  0  0  0  0
   -1.7381  -15.0424   -1.0446 H   0  0  0  0  0  0  0  0  0  0  0  0
   -0.2379  -14.9082   -2.0232 H   0  0  0  0  0  0  0  0  0  0  0  0
   -1.1761  -16.4399   -2.0232 H   0  0  0  0  0  0  0  0  0  0  0  0
   -0.2789  -12.7722   -1.0244 H   0  0  0  0  0  0  0  0  0  0  0  0
    2.2650  -11.4645    0.1127 H   0  0  0  0  0  0  0  0  0  0  0  0
    2.3333   -9.8179   -2.1698 H   0  0  0  0  0  0  0  0  0  0  0  0
    3.1379   -9.8641   -4.5266 H   0  0  0  0  0  0  0  0  0  0  0  0
    3.3306  -12.0341   -5.7401 H   0  0  0  0  0  0  0  0  0  0  0  0
    2.7102  -14.1600   -4.5936 H   0  0  0  0  0  0  0  0  0  0  0  0
    1.9121  -14.1206   -2.2338 H   0  0  0  0  0  0  0  0  0  0  0  0
  1  2  1  0
  2  3  1  0
  3  4  1  0
  4  5  2  0
  4  6  1  0
  6  7  2  0
  7  8  1  0
  7  9  1  0
  9 10  2  0
 10 11  1  0
 11 12  2  0
 12 13  1  0
 13 14  2  0
 14 15  1  0
 15 16  2  0
 10 17  1  0
 17 18  1  0
 18 19  2  0
 18 20  1  0
 20 21  1  0
 21 22  1  0
 17 23  2  0
 23 24  1  0
 24 25  2  0
 25 26  1  0
 26 27  2  0
 27 28  1  0
 28 29  2  0
 29 30  1  0
 30 31  2  0
 23  6  1  0
 31 26  1  0
 16 11  1  0
  1 32  1  0
  1 33  1  0
  1 34  1  0
  2 35  1  0
  2 36  1  0
  8 37  1  0
  8 38  1  0
  8 39  1  0
 12 40  1  0
 13 41  1  0
 14 42  1  0
 15 43  1  0
 16 44  1  0
 21 45  1  0
 21 46  1  0
 22 47  1  0
 22 48  1  0
 22 49  1  0
 24 50  1  0
 25 51  1  0
 27 52  1  0
 28 53  1  0
 29 54  1  0
 30 55  1  0
 31 56  1  0
M  END
>  <meeko>  (1) 
{"is_sidechain": [false], "free_energy": -7.255, "intermolecular_energy": -11.072, "internal_energy": -1.573}

$$$$
LIB_TVZNWOVBAQXKHS__M_PUB_ALL__e8__s20260927
     RDKit          3D

 56 58  0  0  0  0  0  0  0  0999 V2000
    8.7630  -11.8880   -3.2020 C   0  0  0  0  0  0  0  0  0  0  0  0
    8.9740  -12.3830   -1.7830 C   0  0  0  0  0  0  0  0  0  0  0  0
    7.7640  -12.2490   -1.0240 O   0  0  0  0  0  0  0  0  0  0  0  0
    7.0010  -13.3650   -0.9380 C   0  0  0  0  0  0  0  0  0  0  0  0
    7.3520  -14.5210   -1.0850 O   0  0  0  0  0  0  0  0  0  0  0  0
    5.6120  -12.9550   -0.6840 C   0  0  0  0  0  0  0  0  0  0  0  0
    5.1440  -12.9160    0.6300 C   0  0  0  0  0  0  0  0  0  0  0  0
    6.0130  -13.2760    1.8000 C   0  0  0  0  0  0  0  0  0  0  0  0
    3.8680  -12.5540    0.9300 N   0  0  0  0  0  0  0  0  0  0  0  0
    3.0180  -12.2210   -0.0810 C   0  0  0  0  0  0  0  0  0  0  0  0
    1.6550  -11.8850    0.3680 C   0  0  0  0  0  0  0  0  0  0  0  0
    0.6980  -12.8980    0.5510 C   0  0  0  0  0  0  0  0  0  0  0  0
   -0.5960  -12.6000    0.9840 C   0  0  0  0  0  0  0  0  0  0  0  0
   -0.9610  -11.2800    1.2330 C   0  0  0  0  0  0  0  0  0  0  0  0
   -0.0350  -10.2580    1.0430 C   0  0  0  0  0  0  0  0  0  0  0  0
    1.2600  -10.5570    0.6090 C   0  0  0  0  0  0  0  0  0  0  0  0
    3.4400  -12.2100   -1.4120 C   0  0  0  0  0  0  0  0  0  0  0  0
    2.5210  -11.7840   -2.4730 C   0  0  0  0  0  0  0  0  0  0  0  0
    2.3930  -10.6280   -2.8370 O   0  0  0  0  0  0  0  0  0  0  0  0
    1.8570  -12.8740   -2.9210 O   0  0  0  0  0  0  0  0  0  0  0  0
    1.8190  -12.9880   -4.3470 C   0  0  0  0  0  0  0  0  0  0  0  0
    1.0180  -14.2250   -4.7000 C   0  0  0  0  0  0  0  0  0  0  0  0
    4.7560  -12.5830   -1.7330 C   0  0  0  0  0  0  0  0  0  0  0  0
    5.2160  -12.5410   -3.1310 C   0  0  0  0  0  0  0  0  0  0  0  0
    5.2700  -13.6470   -3.8900 C   0  0  0  0  0  0  0  0  0  0  0  0
    5.7290  -13.6490   -5.2850 C   0  0  0  0  0  0  0  0  0  0  0  0
    5.1640  -12.7360   -6.1850 C   0  0  0  0  0  0  0  0  0  0  0  0
    5.5580  -12.7220   -7.5250 C   0  0  0  0  0  0  0  0  0  0  0  0
    6.5120  -13.6300   -7.9810 C   0  0  0  0  0  0  0  0  0  0  0  0
    7.0690  -14.5540   -7.1000 C   0  0  0  0  0  0  0  0  0  0  0  0
    6.6760  -14.5680   -5.7590 C   0  0  0  0  0  0  0  0  0  0  0  0
    8.3318  -10.8764   -3.1771 H   0  0  0  0  0  0  0  0  0  0  0  0
    9.7284  -11.8622   -3.7287 H   0  0  0  0  0  0  0  0  0  0  0  0
    8.0759  -12.5666   -3.7287 H   0  0  0  0  0  0  0  0  0  0  0  0
    9.2711  -13.4418   -1.8084 H   0  0  0  0  0  0  0  0  0  0  0  0
    9.7630  -11.7816   -1.3078 H   0  0  0  0  0  0  0  0  0  0  0  0
    5.4785  -13.0546    2.7356 H   0  0  0  0  0  0  0  0  0  0  0  0
    6.2549  -14.3484    1.7609 H   0  0  0  0  0  0  0  0  0  0  0  0
    6.9424  -12.6888    1.7609 H   0  0  0  0  0  0  0  0  0  0  0  0
    0.9730  -13.9439    0.3497 H   0  0  0  0  0  0  0  0  0  0  0  0
   -1.3272  -13.4090    1.1284 H   0  0  0  0  0  0  0  0  0  0  0  0
   -1.9784  -11.0450    1.5790 H   0  0  0  0  0  0  0  0  0  0  0  0
   -0.3226   -9.2137    1.2346 H   0  0  0  0  0  0  0  0  0  0  0  0
    1.9810   -9.7409    0.4537 H   0  0  0  0  0  0  0  0  0  0  0  0
    1.3394  -12.0975   -4.7794 H   0  0  0  0  0  0  0  0  0  0  0  0
    2.8395  -13.0673   -4.7500 H   0  0  0  0  0  0  0  0  0  0  0  0
    0.6929  -14.7271   -3.7769 H   0  0  0  0  0  0  0  0  0  0  0  0
    0.1359  -13.9347   -5.2897 H   0  0  0  0  0  0  0  0  0  0  0  0
    1.6437  -14.9111   -5.2897 H   0  0  0  0  0  0  0  0  0  0  0  0
    5.5235  -11.5781   -3.5649 H   0  0  0  0  0  0  0  0  0  0  0  0
    4.9540  -14.6015   -3.4438 H   0  0  0  0  0  0  0  0  0  0  0  0
    4.4032  -12.0237   -5.8332 H   0  0  0  0  0  0  0  0  0  0  0  0
    5.1152  -11.9940   -8.2207 H   0  0  0  0  0  0  0  0  0  0  0  0
    6.8247  -13.6169   -9.0355 H   0  0  0  0  0  0  0  0  0  0  0  0
    7.8191  -15.2735   -7.4602 H   0  0  0  0  0  0  0  0  0  0  0  0
    7.1130  -15.3057   -5.0699 H   0  0  0  0  0  0  0  0  0  0  0  0
  1  2  1  0
  2  3  1  0
  3  4  1  0
  4  5  2  0
  4  6  1  0
  6  7  2  0
  7  8  1  0
  7  9  1  0
  9 10  2  0
 10 11  1  0
 11 12  2  0
 12 13  1  0
 13 14  2  0
 14 15  1  0
 15 16  2  0
 10 17  1  0
 17 18  1  0
 18 19  2  0
 18 20  1  0
 20 21  1  0
 21 22  1  0
 17 23  2  0
 23 24  1  0
 24 25  2  0
 25 26  1  0
 26 27  2  0
 27 28  1  0
 28 29  2  0
 29 30  1  0
 30 31  2  0
 23  6  1  0
 31 26  1  0
 16 11  1  0
  1 32  1  0
  1 33  1  0
  1 34  1  0
  2 35  1  0
  2 36  1  0
  8 37  1  0
  8 38  1  0
  8 39  1  0
 12 40  1  0
 13 41  1  0
 14 42  1  0
 15 43  1  0
 16 44  1  0
 21 45  1  0
 21 46  1  0
 22 47  1  0
 22 48  1  0
 22 49  1  0
 24 50  1  0
 25 51  1  0
 27 52  1  0
 28 53  1  0
 29 54  1  0
 30 55  1  0
 31 56  1  0
M  END
>  <meeko>  (2) 
{"is_sidechain": [false], "free_energy": -6.711, "intermolecular_energy": -9.825, "internal_energy": -1.99}

$$$$
LIB_TVZNWOVBAQXKHS__M_PUB_ALL__e8__s20260927
     RDKit          3D

 56 58  0  0  0  0  0  0  0  0999 V2000
   -4.4520  -13.2810    0.9960 C   0  0  0  0  0  0  0  0  0  0  0  0
   -3.8770  -12.4760    2.1470 C   0  0  0  0  0  0  0  0  0  0  0  0
   -2.8700  -11.5730    1.6690 O   0  0  0  0  0  0  0  0  0  0  0  0
   -1.6910  -11.6060    2.3350 C   0  0  0  0  0  0  0  0  0  0  0  0
   -1.5100  -11.5160    3.5360 O   0  0  0  0  0  0  0  0  0  0  0  0
   -0.6070  -11.7150    1.3480 C   0  0  0  0  0  0  0  0  0  0  0  0
    0.0600  -10.5600    0.9400 C   0  0  0  0  0  0  0  0  0  0  0  0
   -0.2870   -9.2020    1.4790 C   0  0  0  0  0  0  0  0  0  0  0  0
    1.0650  -10.5920    0.0250 N   0  0  0  0  0  0  0  0  0  0  0  0
    1.4320  -11.7870   -0.5150 C   0  0  0  0  0  0  0  0  0  0  0  0
    2.5040  -11.6880   -1.5210 C   0  0  0  0  0  0  0  0  0  0  0  0
    2.2620  -11.0640   -2.7570 C   0  0  0  0  0  0  0  0  0  0  0  0
    3.2680  -10.9520   -3.7200 C   0  0  0  0  0  0  0  0  0  0  0  0
    4.5340  -11.4710   -3.4680 C   0  0  0  0  0  0  0  0  0  0  0  0
    4.7930  -12.1090   -2.2580 C   0  0  0  0  0  0  0  0  0  0  0  0
    3.7860  -12.2210   -1.2950 C   0  0  0  0  0  0  0  0  0  0  0  0
    0.8220  -12.9800   -0.1210 C   0  0  0  0  0  0  0  0  0  0  0  0
    1.2830  -14.2600   -0.6710 C   0  0  0  0  0  0  0  0  0  0  0  0
    2.0960  -14.9830   -0.1220 O   0  0  0  0  0  0  0  0  0  0  0  0
    0.6770  -14.4500   -1.8660 O   0  0  0  0  0  0  0  0  0  0  0  0
    1.5670  -14.8500   -2.9130 C   0  0  0  0  0  0  0  0  0  0  0  0
    1.1160  -14.1820   -4.1970 C   0  0  0  0  0  0  0  0  0  0  0  0
   -0.2180  -12.9580    0.8230 C   0  0  0  0  0  0  0  0  0  0  0  0
   -0.8410  -14.2160    1.2670 C   0  0  0  0  0  0  0  0  0  0  0  0
   -0.5910  -14.7390    2.4780 C   0  0  0  0  0  0  0  0  0  0  0  0
   -1.1870  -15.9940    2.9550 C   0  0  0  0  0  0  0  0  0  0  0  0
   -2.3080  -16.5070    2.2910 C   0  0  0  0  0  0  0  0  0  0  0  0
   -2.9170  -17.6860    2.7280 C   0  0  0  0  0  0  0  0  0  0  0  0
   -2.4170  -18.3560    3.8430 C   0  0  0  0  0  0  0  0  0  0  0  0
   -1.3120  -17.8470    4.5230 C   0  0  0  0  0  0  0  0  0  0  0  0
   -0.7030  -16.6690    4.0850 C   0  0  0  0  0  0  0  0  0  0  0  0
   -5.0481  -14.1155    1.3939 H   0  0  0  0  0  0  0  0  0  0  0  0
   -5.0932  -12.6334    0.3799 H   0  0  0  0  0  0  0  0  0  0  0  0
   -3.6315  -13.6775    0.3799 H   0  0  0  0  0  0  0  0  0  0  0  0
   -4.6830  -11.9003    2.6255 H   0  0  0  0  0  0  0  0  0  0  0  0
   -3.4233  -13.1654    2.8743 H   0  0  0  0  0  0  0  0  0  0  0  0
   -0.2796   -9.2311    2.5786 H   0  0  0  0  0  0  0  0  0  0  0  0
    0.4524   -8.4677    1.1266 H   0  0  0  0  0  0  0  0  0  0  0  0
   -1.2880   -8.9124    1.1266 H   0  0  0  0  0  0  0  0  0  0  0  0
    1.2627  -10.6565   -2.9699 H   0  0  0  0  0  0  0  0  0  0  0  0
    3.0590  -10.4532   -4.6779 H   0  0  0  0  0  0  0  0  0  0  0  0
    5.3285  -11.3775   -4.2230 H   0  0  0  0  0  0  0  0  0  0  0  0
    5.7915  -12.5256   -2.0595 H   0  0  0  0  0  0  0  0  0  0  0  0
    3.9994  -12.7340   -0.3456 H   0  0  0  0  0  0  0  0  0  0  0  0
    2.5929  -14.5362   -2.6701 H   0  0  0  0  0  0  0  0  0  0  0  0
    1.5525  -15.9439   -3.0277 H   0  0  0  0  0  0  0  0  0  0  0  0
    0.5154  -13.2924   -3.9562 H   0  0  0  0  0  0  0  0  0  0  0  0
    1.9970  -13.8819   -4.7832 H   0  0  0  0  0  0  0  0  0  0  0  0
    0.5083  -14.8870   -4.7832 H   0  0  0  0  0  0  0  0  0  0  0  0
   -1.5294  -14.7412    0.5886 H   0  0  0  0  0  0  0  0  0  0  0  0
    0.0955  -14.2000    3.1475 H   0  0  0  0  0  0  0  0  0  0  0  0
   -2.7131  -15.9765    1.4167 H   0  0  0  0  0  0  0  0  0  0  0  0
   -3.7908  -18.0853    2.1922 H   0  0  0  0  0  0  0  0  0  0  0  0
   -2.8941  -19.2859    4.1861 H   0  0  0  0  0  0  0  0  0  0  0  0
   -0.9193  -18.3735    5.4053 H   0  0  0  0  0  0  0  0  0  0  0  0
    0.1634  -16.2673    4.6308 H   0  0  0  0  0  0  0  0  0  0  0  0
  1  2  1  0
  2  3  1  0
  3  4  1  0
  4  5  2  0
  4  6  1  0
  6  7  2  0
  7  8  1  0
  7  9  1  0
  9 10  2  0
 10 11  1  0
 11 12  2  0
 12 13  1  0
 13 14  2  0
 14 15  1  0
 15 16  2  0
 10 17  1  0
 17 18  1  0
 18 19  2  0
 18 20  1  0
 20 21  1  0
 21 22  1  0
 17 23  2  0
 23 24  1  0
 24 25  2  0
 25 26  1  0
 26 27  2  0
 27 28  1  0
 28 29  2  0
 29 30  1  0
 30 31  2  0
 23  6  1  0
 31 26  1  0
 16 11  1  0
  1 32  1  0
  1 33  1  0
  1 34  1  0
  2 35  1  0
  2 36  1  0
  8 37  1  0
  8 38  1  0
  8 39  1  0
 12 40  1  0
 13 41  1  0
 14 42  1  0
 15 43  1  0
 16 44  1  0
 21 45  1  0
 21 46  1  0
 22 47  1  0
 22 48  1  0
 22 49  1  0
 24 50  1  0
 25 51  1  0
 27 52  1  0
 28 53  1  0
 29 54  1  0
 30 55  1  0
 31 56  1  0
M  END
>  <meeko>  (3) 
{"is_sidechain": [false], "free_energy": -6.681, "intermolecular_energy": -9.896, "internal_energy": -1.874}

$$$$
LIB_TVZNWOVBAQXKHS__M_PUB_ALL__e8__s20260927
     RDKit          3D

 56 58  0  0  0  0  0  0  0  0999 V2000
   -5.5360  -15.1420    8.2210 C   0  0  0  0  0  0  0  0  0  0  0  0
   -5.4050  -16.4590    7.4800 C   0  0  0  0  0  0  0  0  0  0  0  0
   -4.4410  -16.3430    6.4230 O   0  0  0  0  0  0  0  0  0  0  0  0
   -4.8790  -16.6930    5.1910 C   0  0  0  0  0  0  0  0  0  0  0  0
   -5.4550  -17.7150    4.8660 O   0  0  0  0  0  0  0  0  0  0  0  0
   -4.4900  -15.6360    4.2460 C   0  0  0  0  0  0  0  0  0  0  0  0
   -5.3560  -14.5630    4.0320 C   0  0  0  0  0  0  0  0  0  0  0  0
   -6.6750  -14.4460    4.7380 C   0  0  0  0  0  0  0  0  0  0  0  0
   -5.0580  -13.5580    3.1660 N   0  0  0  0  0  0  0  0  0  0  0  0
   -3.8810  -13.5990    2.4820 C   0  0  0  0  0  0  0  0  0  0  0  0
   -3.6900  -12.4750    1.5470 C   0  0  0  0  0  0  0  0  0  0  0  0
   -4.3530  -12.4650    0.3070 C   0  0  0  0  0  0  0  0  0  0  0  0
   -4.1920  -11.4050   -0.5890 C   0  0  0  0  0  0  0  0  0  0  0  0
   -3.3580  -10.3390   -0.2650 C   0  0  0  0  0  0  0  0  0  0  0  0
   -2.6780  -10.3360    0.9510 C   0  0  0  0  0  0  0  0  0  0  0  0
   -2.8390  -11.3970    1.8460 C   0  0  0  0  0  0  0  0  0  0  0  0
   -2.9610  -14.6310    2.6800 C   0  0  0  0  0  0  0  0  0  0  0  0
   -1.6720  -14.6130    1.9780 C   0  0  0  0  0  0  0  0  0  0  0  0
   -0.6730  -14.0600    2.4050 O   0  0  0  0  0  0  0  0  0  0  0  0
   -1.8190  -15.2760    0.8080 O   0  0  0  0  0  0  0  0  0  0  0  0
   -0.5920  -15.7760    0.2650 C   0  0  0  0  0  0  0  0  0  0  0  0
   -0.4380  -17.2200    0.6980 C   0  0  0  0  0  0  0  0  0  0  0  0
   -3.2580  -15.6740    3.5720 C   0  0  0  0  0  0  0  0  0  0  0  0
   -2.2780  -16.7470    3.8100 C   0  0  0  0  0  0  0  0  0  0  0  0
   -1.3580  -16.6590    4.7830 C   0  0  0  0  0  0  0  0  0  0  0  0
   -0.3590  -17.7020    5.0480 C   0  0  0  0  0  0  0  0  0  0  0  0
    0.8920  -17.6160    4.4230 C   0  0  0  0  0  0  0  0  0  0  0  0
    1.8610  -18.6000    4.6320 C   0  0  0  0  0  0  0  0  0  0  0  0
    1.5840  -19.6870    5.4590 C   0  0  0  0  0  0  0  0  0  0  0  0
    0.3370  -19.7930    6.0730 C   0  0  0  0  0  0  0  0  0  0  0  0
   -0.6310  -18.8080    5.8660 C   0  0  0  0  0  0  0  0  0  0  0  0
   -5.5175  -15.3278    9.3050 H   0  0  0  0  0  0  0  0  0  0  0  0
   -4.6990  -14.4827    7.9477 H   0  0  0  0  0  0  0  0  0  0  0  0
   -6.4865  -14.6605    7.9477 H   0  0  0  0  0  0  0  0  0  0  0  0
   -5.0801  -17.2400    8.1831 H   0  0  0  0  0  0  0  0  0  0  0  0
   -6.3807  -16.7238    7.0465 H   0  0  0  0  0  0  0  0  0  0  0  0
   -6.5113  -14.4605    5.8256 H   0  0  0  0  0  0  0  0  0  0  0  0
   -7.1609  -13.5012    4.4529 H   0  0  0  0  0  0  0  0  0  0  0  0
   -7.3197  -15.2905    4.4529 H   0  0  0  0  0  0  0  0  0  0  0  0
   -5.0094  -13.3057    0.0379 H   0  0  0  0  0  0  0  0  0  0  0  0
   -4.7249  -11.4131   -1.5513 H   0  0  0  0  0  0  0  0  0  0  0  0
   -3.2360   -9.5011   -0.9671 H   0  0  0  0  0  0  0  0  0  0  0  0
   -2.0136   -9.4975    1.2068 H   0  0  0  0  0  0  0  0  0  0  0  0
   -2.2910  -11.3884    2.7997 H   0  0  0  0  0  0  0  0  0  0  0  0
   -0.6191  -15.7171   -0.8331 H   0  0  0  0  0  0  0  0  0  0  0  0
    0.2566  -15.1774    0.6277 H   0  0  0  0  0  0  0  0  0  0  0  0
   -0.4322  -17.2747    1.7966 H   0  0  0  0  0  0  0  0  0  0  0  0
   -1.2781  -17.8120    0.3058 H   0  0  0  0  0  0  0  0  0  0  0  0
    0.5081  -17.6215    0.3058 H   0  0  0  0  0  0  0  0  0  0  0  0
   -2.3006  -17.6440    3.1737 H   0  0  0  0  0  0  0  0  0  0  0  0
   -1.3520  -15.7587    5.4149 H   0  0  0  0  0  0  0  0  0  0  0  0
    1.1131  -16.7655    3.7614 H   0  0  0  0  0  0  0  0  0  0  0  0
    2.8432  -18.5169    4.1437 H   0  0  0  0  0  0  0  0  0  0  0  0
    2.3482  -20.4602    5.6270 H   0  0  0  0  0  0  0  0  0  0  0  0
    0.1152  -20.6535    6.7213 H   0  0  0  0  0  0  0  0  0  0  0  0
   -1.6151  -18.9005    6.3487 H   0  0  0  0  0  0  0  0  0  0  0  0
  1  2  1  0
  2  3  1  0
  3  4  1  0
  4  5  2  0
  4  6  1  0
  6  7  2  0
  7  8  1  0
  7  9  1  0
  9 10  2  0
 10 11  1  0
 11 12  2  0
 12 13  1  0
 13 14  2  0
 14 15  1  0
 15 16  2  0
 10 17  1  0
 17 18  1  0
 18 19  2  0
 18 20  1  0
 20 21  1  0
 21 22  1  0
 17 23  2  0
 23 24  1  0
 24 25  2  0
 25 26  1  0
 26 27  2  0
 27 28  1  0
 28 29  2  0
 29 30  1  0
 30 31  2  0
 23  6  1  0
 31 26  1  0
 16 11  1  0
  1 32  1  0
  1 33  1  0
  1 34  1  0
  2 35  1  0
  2 36  1  0
  8 37  1  0
  8 38  1  0
  8 39  1  0
 12 40  1  0
 13 41  1  0
 14 42  1  0
 15 43  1  0
 16 44  1  0
 21 45  1  0
 21 46  1  0
 22 47  1  0
 22 48  1  0
 22 49  1  0
 24 50  1  0
 25 51  1  0
 27 52  1  0
 28 53  1  0
 29 54  1  0
 30 55  1  0
 31 56  1  0
M  END
>  <meeko>  (4) 
{"is_sidechain": [false], "free_energy": -6.668, "intermolecular_energy": -9.877, "internal_energy": -1.873}

$$$$
LIB_TVZNWOVBAQXKHS__M_PUB_ALL__e8__s20260927
     RDKit          3D

 56 58  0  0  0  0  0  0  0  0999 V2000
   13.0390  -11.7260   12.4240 C   0  0  0  0  0  0  0  0  0  0  0  0
   12.0000  -12.6400   13.0460 C   0  0  0  0  0  0  0  0  0  0  0  0
   10.8130  -11.9010   13.3660 O   0  0  0  0  0  0  0  0  0  0  0  0
   10.8220  -11.2670   14.5620 C   0  0  0  0  0  0  0  0  0  0  0  0
   11.5880  -11.4420   15.4930 O   0  0  0  0  0  0  0  0  0  0  0  0
    9.6860  -10.3350   14.5990 C   0  0  0  0  0  0  0  0  0  0  0  0
    8.5240  -10.7060   15.2760 C   0  0  0  0  0  0  0  0  0  0  0  0
    8.3920  -12.0270   15.9760 C   0  0  0  0  0  0  0  0  0  0  0  0
    7.4360   -9.8930   15.3390 N   0  0  0  0  0  0  0  0  0  0  0  0
    7.4780   -8.6800   14.7220 C   0  0  0  0  0  0  0  0  0  0  0  0
    6.2270   -7.9070   14.8290 C   0  0  0  0  0  0  0  0  0  0  0  0
    5.2660   -7.9690   13.8050 C   0  0  0  0  0  0  0  0  0  0  0  0
    4.0700   -7.2510   13.8920 C   0  0  0  0  0  0  0  0  0  0  0  0
    3.8170   -6.4510   15.0030 C   0  0  0  0  0  0  0  0  0  0  0  0
    4.7620   -6.3620   16.0220 C   0  0  0  0  0  0  0  0  0  0  0  0
    5.9580   -7.0800   15.9330 C   0  0  0  0  0  0  0  0  0  0  0  0
    8.6250   -8.2420   14.0570 C   0  0  0  0  0  0  0  0  0  0  0  0
    8.6640   -6.9030   13.4570 C   0  0  0  0  0  0  0  0  0  0  0  0
    8.1440   -6.6200   12.3910 O   0  0  0  0  0  0  0  0  0  0  0  0
    9.3830   -6.0960   14.2700 O   0  0  0  0  0  0  0  0  0  0  0  0
    8.5930   -5.1560   15.0050 C   0  0  0  0  0  0  0  0  0  0  0  0
    9.5130   -4.3970   15.9410 C   0  0  0  0  0  0  0  0  0  0  0  0
    9.7550   -9.0740   13.9850 C   0  0  0  0  0  0  0  0  0  0  0  0
   10.9790   -8.6040   13.3150 C   0  0  0  0  0  0  0  0  0  0  0  0
   12.0650   -8.2320   14.0090 C   0  0  0  0  0  0  0  0  0  0  0  0
   13.3020   -7.7510   13.3800 C   0  0  0  0  0  0  0  0  0  0  0  0
   13.5440   -8.0640   12.0360 C   0  0  0  0  0  0  0  0  0  0  0  0
   14.7190   -7.6450   11.4080 C   0  0  0  0  0  0  0  0  0  0  0  0
   15.6700   -6.9180   12.1220 C   0  0  0  0  0  0  0  0  0  0  0  0
   15.4490   -6.6150   13.4640 C   0  0  0  0  0  0  0  0  0  0  0  0
   14.2730   -7.0330   14.0920 C   0  0  0  0  0  0  0  0  0  0  0  0
   13.6093  -11.2243   13.2196 H   0  0  0  0  0  0  0  0  0  0  0  0
   13.7237  -12.3199   11.8007 H   0  0  0  0  0  0  0  0  0  0  0  0
   12.5373  -10.9712   11.8007 H   0  0  0  0  0  0  0  0  0  0  0  0
   11.7483  -13.4401   12.3344 H   0  0  0  0  0  0  0  0  0  0  0  0
   12.4117  -13.0724   13.9699 H   0  0  0  0  0  0  0  0  0  0  0  0
    8.4078  -11.8684   17.0644 H   0  0  0  0  0  0  0  0  0  0  0  0
    7.4420  -12.5011   15.6883 H   0  0  0  0  0  0  0  0  0  0  0  0
    9.2294  -12.6797   15.6883 H   0  0  0  0  0  0  0  0  0  0  0  0
    5.4586   -8.5933   12.9200 H   0  0  0  0  0  0  0  0  0  0  0  0
    3.3284   -7.3180   13.0824 H   0  0  0  0  0  0  0  0  0  0  0  0
    2.8732   -5.8907   15.0757 H   0  0  0  0  0  0  0  0  0  0  0  0
    4.5670   -5.7259   16.8980 H   0  0  0  0  0  0  0  0  0  0  0  0
    6.7007   -6.9964   16.7401 H   0  0  0  0  0  0  0  0  0  0  0  0
    8.1063   -4.4549   14.3110 H   0  0  0  0  0  0  0  0  0  0  0  0
    7.8137   -5.6794   15.5784 H   0  0  0  0  0  0  0  0  0  0  0  0
    9.2416   -4.6209   16.9832 H   0  0  0  0  0  0  0  0  0  0  0  0
   10.5540   -4.7025   15.7594 H   0  0  0  0  0  0  0  0  0  0  0  0
    9.4109   -3.3169   15.7594 H   0  0  0  0  0  0  0  0  0  0  0  0
   11.0035   -8.5567   12.2163 H   0  0  0  0  0  0  0  0  0  0  0  0
   12.0271   -8.2903   15.1068 H   0  0  0  0  0  0  0  0  0  0  0  0
   12.8014   -8.6454   11.4699 H   0  0  0  0  0  0  0  0  0  0  0  0
   14.8939   -7.8888   10.3497 H   0  0  0  0  0  0  0  0  0  0  0  0
   16.5937   -6.5839   11.6268 H   0  0  0  0  0  0  0  0  0  0  0  0
   16.2014   -6.0460   14.0297 H   0  0  0  0  0  0  0  0  0  0  0  0
   14.1077   -6.7968   15.1536 H   0  0  0  0  0  0  0  0  0  0  0  0
  1  2  1  0
  2  3  1  0
  3  4  1  0
  4  5  2  0
  4  6  1  0
  6  7  2  0
  7  8  1  0
  7  9  1  0
  9 10  2  0
 10 11  1  0
 11 12  2  0
 12 13  1  0
 13 14  2  0
 14 15  1  0
 15 16  2  0
 10 17  1  0
 17 18  1  0
 18 19  2  0
 18 20  1  0
 20 21  1  0
 21 22  1  0
 17 23  2  0
 23 24  1  0
 24 25  2  0
 25 26  1  0
 26 27  2  0
 27 28  1  0
 28 29  2  0
 29 30  1  0
 30 31  2  0
 23  6  1  0
 31 26  1  0
 16 11  1  0
  1 32  1  0
  1 33  1  0
  1 34  1  0
  2 35  1  0
  2 36  1  0
  8 37  1  0
  8 38  1  0
  8 39  1  0
 12 40  1  0
 13 41  1  0
 14 42  1  0
 15 43  1  0
 16 44  1  0
 21 45  1  0
 21 46  1  0
 22 47  1  0
 22 48  1  0
 22 49  1  0
 24 50  1  0
 25 51  1  0
 27 52  1  0
 28 53  1  0
 29 54  1  0
 30 55  1  0
 31 56  1  0
M  END
>  <meeko>  (5) 
{"is_sidechain": [false], "free_energy": -6.62, "intermolecular_energy": -10.165, "internal_energy": -1.511}

$$$$
LIB_TVZNWOVBAQXKHS__M_PUB_ALL__e8__s20260927
     RDKit          3D

 56 58  0  0  0  0  0  0  0  0999 V2000
    1.3590  -18.0960    4.9800 C   0  0  0  0  0  0  0  0  0  0  0  0
   -0.1080  -18.3280    5.2930 C   0  0  0  0  0  0  0  0  0  0  0  0
   -0.9040  -17.2500    4.7820 O   0  0  0  0  0  0  0  0  0  0  0  0
   -1.5690  -17.5080    3.6320 C   0  0  0  0  0  0  0  0  0  0  0  0
   -1.9080  -18.5920    3.1930 O   0  0  0  0  0  0  0  0  0  0  0  0
   -1.7850  -16.2350    2.9280 C   0  0  0  0  0  0  0  0  0  0  0  0
   -2.9470  -15.5060    3.1820 C   0  0  0  0  0  0  0  0  0  0  0  0
   -3.9900  -15.9750    4.1560 C   0  0  0  0  0  0  0  0  0  0  0  0
   -3.2100  -14.3270    2.5580 N   0  0  0  0  0  0  0  0  0  0  0  0
   -2.3130  -13.8410    1.6550 C   0  0  0  0  0  0  0  0  0  0  0  0
   -2.7270  -12.5780    1.0180 C   0  0  0  0  0  0  0  0  0  0  0  0
   -3.6280  -12.5890   -0.0600 C   0  0  0  0  0  0  0  0  0  0  0  0
   -4.0390  -11.4010   -0.6710 C   0  0  0  0  0  0  0  0  0  0  0  0
   -3.5490  -10.1800   -0.2190 C   0  0  0  0  0  0  0  0  0  0  0  0
   -2.6420  -10.1450    0.8380 C   0  0  0  0  0  0  0  0  0  0  0  0
   -2.2310  -11.3340    1.4480 C   0  0  0  0  0  0  0  0  0  0  0  0
   -1.1180  -14.5110    1.3850 C   0  0  0  0  0  0  0  0  0  0  0  0
   -0.1410  -13.9300    0.4560 C   0  0  0  0  0  0  0  0  0  0  0  0
   -0.1300  -14.1490   -0.7430 O   0  0  0  0  0  0  0  0  0  0  0  0
    0.7180  -13.1670    1.1690 O   0  0  0  0  0  0  0  0  0  0  0  0
    1.6640  -12.4500    0.3670 C   0  0  0  0  0  0  0  0  0  0  0  0
    1.2190  -11.0030    0.2920 C   0  0  0  0  0  0  0  0  0  0  0  0
   -0.8370  -15.7300    2.0230 C   0  0  0  0  0  0  0  0  0  0  0  0
    0.4370  -16.4230    1.7680 C   0  0  0  0  0  0  0  0  0  0  0  0
    0.5560  -17.3460    0.8010 C   0  0  0  0  0  0  0  0  0  0  0  0
    1.8060  -18.0650    0.5190 C   0  0  0  0  0  0  0  0  0  0  0  0
    2.3260  -18.9270    1.4930 C   0  0  0  0  0  0  0  0  0  0  0  0
    3.5230  -19.6110    1.2710 C   0  0  0  0  0  0  0  0  0  0  0  0
    4.2190  -19.4300    0.0770 C   0  0  0  0  0  0  0  0  0  0  0  0
    3.7210  -18.5620   -0.8920 C   0  0  0  0  0  0  0  0  0  0  0  0
    2.5220  -17.8790   -0.6720 C   0  0  0  0  0  0  0  0  0  0  0  0
    1.9246  -18.0066    5.9192 H   0  0  0  0  0  0  0  0  0  0  0  0
    1.7481  -18.9438    4.3970 H   0  0  0  0  0  0  0  0  0  0  0  0
    1.4675  -17.1695    4.3970 H   0  0  0  0  0  0  0  0  0  0  0  0
   -0.4332  -19.2706    4.8286 H   0  0  0  0  0  0  0  0  0  0  0  0
   -0.2364  -18.3807    6.3842 H   0  0  0  0  0  0  0  0  0  0  0  0
   -3.6313  -15.8137    5.1833 H   0  0  0  0  0  0  0  0  0  0  0  0
   -4.9196  -15.4082    3.9990 H   0  0  0  0  0  0  0  0  0  0  0  0
   -4.1829  -17.0465    3.9990 H   0  0  0  0  0  0  0  0  0  0  0  0
   -4.0167  -13.5494   -0.4296 H   0  0  0  0  0  0  0  0  0  0  0  0
   -4.7502  -11.4315   -1.5096 H   0  0  0  0  0  0  0  0  0  0  0  0
   -3.8769   -9.2442   -0.6951 H   0  0  0  0  0  0  0  0  0  0  0  0
   -2.2489   -9.1809    1.1930 H   0  0  0  0  0  0  0  0  0  0  0  0
   -1.5088  -11.2960    2.2768 H   0  0  0  0  0  0  0  0  0  0  0  0
    2.6621  -12.5096    0.8255 H   0  0  0  0  0  0  0  0  0  0  0  0
    1.7147  -12.8853   -0.6420 H   0  0  0  0  0  0  0  0  0  0  0  0
    1.0963  -10.6039    1.3097 H   0  0  0  0  0  0  0  0  0  0  0  0
    1.9774  -10.4135   -0.2441 H   0  0  0  0  0  0  0  0  0  0  0  0
    0.2604  -10.9415   -0.2441 H   0  0  0  0  0  0  0  0  0  0  0  0
    1.3135  -16.1779    2.3858 H   0  0  0  0  0  0  0  0  0  0  0  0
   -0.3278  -17.5761    0.1879 H   0  0  0  0  0  0  0  0  0  0  0  0
    1.7865  -19.0664    2.4414 H   0  0  0  0  0  0  0  0  0  0  0  0
    3.9169  -20.2931    2.0389 H   0  0  0  0  0  0  0  0  0  0  0  0
    5.1599  -19.9717   -0.0998 H   0  0  0  0  0  0  0  0  0  0  0  0
    4.2726  -18.4140   -1.8321 H   0  0  0  0  0  0  0  0  0  0  0  0
    2.1371  -17.1905   -1.4387 H   0  0  0  0  0  0  0  0  0  0  0  0
  1  2  1  0
  2  3  1  0
  3  4  1  0
  4  5  2  0
  4  6  1  0
  6  7  2  0
  7  8  1  0
  7  9  1  0
  9 10  2  0
 10 11  1  0
 11 12  2  0
 12 13  1  0
 13 14  2  0
 14 15  1  0
 15 16  2  0
 10 17  1  0
 17 18  1  0
 18 19  2  0
 18 20  1  0
 20 21  1  0
 21 22  1  0
 17 23  2  0
 23 24  1  0
 24 25  2  0
 25 26  1  0
 26 27  2  0
 27 28  1  0
 28 29  2  0
 29 30  1  0
 30 31  2  0
 23  6  1  0
 31 26  1  0
 16 11  1  0
  1 32  1  0
  1 33  1  0
  1 34  1  0
  2 35  1  0
  2 36  1  0
  8 37  1  0
  8 38  1  0
  8 39  1  0
 12 40  1  0
 13 41  1  0
 14 42  1  0
 15 43  1  0
 16 44  1  0
 21 45  1  0
 21 46  1  0
 22 47  1  0
 22 48  1  0
 22 49  1  0
 24 50  1  0
 25 51  1  0
 27 52  1  0
 28 53  1  0
 29 54  1  0
 30 55  1  0
 31 56  1  0
M  END
>  <meeko>  (6) 
{"is_sidechain": [false], "free_energy": -6.57, "intermolecular_energy": -9.587, "internal_energy": -2.014}

$$$$
LIB_TVZNWOVBAQXKHS__M_PUB_ALL__e8__s20260927
     RDKit          3D

 56 58  0  0  0  0  0  0  0  0999 V2000
    5.2000  -14.8100   -0.3850 C   0  0  0  0  0  0  0  0  0  0  0  0
    4.9820  -16.2870   -0.6560 C   0  0  0  0  0  0  0  0  0  0  0  0
    4.0360  -16.8300    0.2760 O   0  0  0  0  0  0  0  0  0  0  0  0
    3.1090  -17.6650   -0.2500 C   0  0  0  0  0  0  0  0  0  0  0  0
    3.2300  -18.4050   -1.2100 O   0  0  0  0  0  0  0  0  0  0  0  0
    1.8590  -17.5020    0.5060 C   0  0  0  0  0  0  0  0  0  0  0  0
    1.6780  -18.2240    1.6860 C   0  0  0  0  0  0  0  0  0  0  0  0
    2.7210  -19.1650    2.2160 C   0  0  0  0  0  0  0  0  0  0  0  0
    0.5420  -18.1240    2.4260 N   0  0  0  0  0  0  0  0  0  0  0  0
   -0.4530  -17.2960    2.0040 C   0  0  0  0  0  0  0  0  0  0  0  0
   -1.6470  -17.3020    2.8690 C   0  0  0  0  0  0  0  0  0  0  0  0
   -1.7670  -16.3740    3.9170 C   0  0  0  0  0  0  0  0  0  0  0  0
   -2.8950  -16.3580    4.7420 C   0  0  0  0  0  0  0  0  0  0  0  0
   -3.9200  -17.2770    4.5380 C   0  0  0  0  0  0  0  0  0  0  0  0
   -3.8150  -18.2170    3.5160 C   0  0  0  0  0  0  0  0  0  0  0  0
   -2.6860  -18.2320    2.6920 C   0  0  0  0  0  0  0  0  0  0  0  0
   -0.3150  -16.5230    0.8490 C   0  0  0  0  0  0  0  0  0  0  0  0
   -1.3770  -15.5900    0.4550 C   0  0  0  0  0  0  0  0  0  0  0  0
   -2.2780  -15.8720   -0.3160 O   0  0  0  0  0  0  0  0  0  0  0  0
   -1.1460  -14.4050    1.0640 O   0  0  0  0  0  0  0  0  0  0  0  0
   -2.3310  -13.6490    1.3350 C   0  0  0  0  0  0  0  0  0  0  0  0
   -2.1440  -12.9380    2.6610 C   0  0  0  0  0  0  0  0  0  0  0  0
    0.8550  -16.6190    0.0760 C   0  0  0  0  0  0  0  0  0  0  0  0
    1.0200  -15.7820   -1.1240 C   0  0  0  0  0  0  0  0  0  0  0  0
    1.6370  -14.5910   -1.0740 C   0  0  0  0  0  0  0  0  0  0  0  0
    1.8160  -13.7230   -2.2450 C   0  0  0  0  0  0  0  0  0  0  0  0
    1.6310  -14.2650   -3.5240 C   0  0  0  0  0  0  0  0  0  0  0  0
    1.8140  -13.4790   -4.6630 C   0  0  0  0  0  0  0  0  0  0  0  0
    2.1960  -12.1440   -4.5350 C   0  0  0  0  0  0  0  0  0  0  0  0
    2.3980  -11.5980   -3.2690 C   0  0  0  0  0  0  0  0  0  0  0  0
    2.2140  -12.3840   -2.1300 C   0  0  0  0  0  0  0  0  0  0  0  0
    5.2256  -14.6363    0.7009 H   0  0  0  0  0  0  0  0  0  0  0  0
    6.1547  -14.4926   -0.8297 H   0  0  0  0  0  0  0  0  0  0  0  0
    4.3777  -14.2303   -0.8297 H   0  0  0  0  0  0  0  0  0  0  0  0
    4.5983  -16.4155   -1.6789 H   0  0  0  0  0  0  0  0  0  0  0  0
    5.9395  -16.8166   -0.5434 H   0  0  0  0  0  0  0  0  0  0  0  0
    2.7039  -19.1496    3.3158 H   0  0  0  0  0  0  0  0  0  0  0  0
    2.5100  -20.1843    1.8603 H   0  0  0  0  0  0  0  0  0  0  0  0
    3.7133  -18.8506    1.8603 H   0  0  0  0  0  0  0  0  0  0  0  0
   -0.9594  -15.6477    4.0912 H   0  0  0  0  0  0  0  0  0  0  0  0
   -2.9727  -15.6188    5.5529 H   0  0  0  0  0  0  0  0  0  0  0  0
   -4.8112  -17.2609    5.1827 H   0  0  0  0  0  0  0  0  0  0  0  0
   -4.6212  -18.9483    3.3570 H   0  0  0  0  0  0  0  0  0  0  0  0
   -2.6094  -18.9835    1.8924 H   0  0  0  0  0  0  0  0  0  0  0  0
   -2.4930  -12.9107    0.5358 H   0  0  0  0  0  0  0  0  0  0  0  0
   -3.2055  -14.3148    1.3799 H   0  0  0  0  0  0  0  0  0  0  0  0
   -2.3295  -13.6432    3.4846 H   0  0  0  0  0  0  0  0  0  0  0  0
   -1.1148  -12.5559    2.7302 H   0  0  0  0  0  0  0  0  0  0  0  0
   -2.8520  -12.0990    2.7302 H   0  0  0  0  0  0  0  0  0  0  0  0
    0.6275  -16.1420   -2.0864 H   0  0  0  0  0  0  0  0  0  0  0  0
    2.0290  -14.2472   -0.1054 H   0  0  0  0  0  0  0  0  0  0  0  0
    1.3388  -15.3200   -3.6314 H   0  0  0  0  0  0  0  0  0  0  0  0
    1.6569  -13.9127   -5.6616 H   0  0  0  0  0  0  0  0  0  0  0  0
    2.3376  -11.5230   -5.4318 H   0  0  0  0  0  0  0  0  0  0  0  0
    2.7029  -10.5460   -3.1669 H   0  0  0  0  0  0  0  0  0  0  0  0
    2.3828  -11.9488   -1.1339 H   0  0  0  0  0  0  0  0  0  0  0  0
  1  2  1  0
  2  3  1  0
  3  4  1  0
  4  5  2  0
  4  6  1  0
  6  7  2  0
  7  8  1  0
  7  9  1  0
  9 10  2  0
 10 11  1  0
 11 12  2  0
 12 13  1  0
 13 14  2  0
 14 15  1  0
 15 16  2  0
 10 17  1  0
 17 18  1  0
 18 19  2  0
 18 20  1  0
 20 21  1  0
 21 22  1  0
 17 23  2  0
 23 24  1  0
 24 25  2  0
 25 26  1  0
 26 27  2  0
 27 28  1  0
 28 29  2  0
 29 30  1  0
 30 31  2  0
 23  6  1  0
 31 26  1  0
 16 11  1  0
  1 32  1  0
  1 33  1  0
  1 34  1  0
  2 35  1  0
  2 36  1  0
  8 37  1  0
  8 38  1  0
  8 39  1  0
 12 40  1  0
 13 41  1  0
 14 42  1  0
 15 43  1  0
 16 44  1  0
 21 45  1  0
 21 46  1  0
 22 47  1  0
 22 48  1  0
 22 49  1  0
 24 50  1  0
 25 51  1  0
 27 52  1  0
 28 53  1  0
 29 54  1  0
 30 55  1  0
 31 56  1  0
M  END
>  <meeko>  (7) 
{"is_sidechain": [false], "free_energy": -6.552, "intermolecular_energy": -9.561, "internal_energy": -2.012}

$$$$
LIB_TVZNWOVBAQXKHS__M_PUB_ALL__e8__s20260927
     RDKit          3D

 56 58  0  0  0  0  0  0  0  0999 V2000
  -15.2010  -20.9940  -12.2350 C   0  0  0  0  0  0  0  0  0  0  0  0
  -15.3510  -20.4880  -10.8130 C   0  0  0  0  0  0  0  0  0  0  0  0
  -14.6530  -19.2450  -10.6500 O   0  0  0  0  0  0  0  0  0  0  0  0
  -15.3140  -18.1430  -11.0780 C   0  0  0  0  0  0  0  0  0  0  0  0
  -16.5110  -18.0140  -11.2590 O   0  0  0  0  0  0  0  0  0  0  0  0
  -14.3250  -17.0920  -11.3590 C   0  0  0  0  0  0  0  0  0  0  0  0
  -13.7960  -16.9830  -12.6450 C   0  0  0  0  0  0  0  0  0  0  0  0
  -14.2050  -17.9020  -13.7600 C   0  0  0  0  0  0  0  0  0  0  0  0
  -12.8720  -16.0390  -12.9670 N   0  0  0  0  0  0  0  0  0  0  0  0
  -12.4460  -15.1730  -12.0060 C   0  0  0  0  0  0  0  0  0  0  0  0
  -11.4170  -14.2230  -12.4660 C   0  0  0  0  0  0  0  0  0  0  0  0
  -11.7810  -12.9280  -12.8760 C   0  0  0  0  0  0  0  0  0  0  0  0
  -10.8200  -12.0100  -13.3070 C   0  0  0  0  0  0  0  0  0  0  0  0
   -9.4770  -12.3740  -13.3450 C   0  0  0  0  0  0  0  0  0  0  0  0
   -9.0950  -13.6560  -12.9590 C   0  0  0  0  0  0  0  0  0  0  0  0
  -10.0570  -14.5740  -12.5280 C   0  0  0  0  0  0  0  0  0  0  0  0
  -12.9640  -15.2140  -10.7100 C   0  0  0  0  0  0  0  0  0  0  0  0
  -12.5350  -14.2270   -9.7120 C   0  0  0  0  0  0  0  0  0  0  0  0
  -13.0590  -13.1360   -9.5660 O   0  0  0  0  0  0  0  0  0  0  0  0
  -11.4740  -14.7340   -9.0440 O   0  0  0  0  0  0  0  0  0  0  0  0
  -10.3550  -13.8440   -8.9650 C   0  0  0  0  0  0  0  0  0  0  0  0
   -9.0880  -14.6760   -8.9780 C   0  0  0  0  0  0  0  0  0  0  0  0
  -13.9190  -16.1860  -10.3660 C   0  0  0  0  0  0  0  0  0  0  0  0
  -14.4930  -16.2120   -9.0110 C   0  0  0  0  0  0  0  0  0  0  0  0
  -13.9690  -16.9720   -8.0360 C   0  0  0  0  0  0  0  0  0  0  0  0
  -14.5150  -17.0320   -6.6750 C   0  0  0  0  0  0  0  0  0  0  0  0
  -15.8990  -16.9050   -6.4940 C   0  0  0  0  0  0  0  0  0  0  0  0
  -16.4550  -16.9350   -5.2130 C   0  0  0  0  0  0  0  0  0  0  0  0
  -15.6310  -17.0790   -4.0990 C   0  0  0  0  0  0  0  0  0  0  0  0
  -14.2520  -17.1890   -4.2640 C   0  0  0  0  0  0  0  0  0  0  0  0
  -13.6950  -17.1620   -5.5450 C   0  0  0  0  0  0  0  0  0  0  0  0
  -14.8884  -22.0485  -12.2179 H   0  0  0  0  0  0  0  0  0  0  0  0
  -16.1640  -20.9055  -12.7592 H   0  0  0  0  0  0  0  0  0  0  0  0
  -14.4418  -20.3950  -12.7592 H   0  0  0  0  0  0  0  0  0  0  0  0
  -16.4180  -20.3365  -10.5925 H   0  0  0  0  0  0  0  0  0  0  0  0
  -14.9249  -21.2306  -10.1224 H   0  0  0  0  0  0  0  0  0  0  0  0
  -14.6180  -18.8299  -13.3376 H   0  0  0  0  0  0  0  0  0  0  0  0
  -14.9689  -17.4095  -14.3796 H   0  0  0  0  0  0  0  0  0  0  0  0
  -13.3278  -18.1398  -14.3796 H   0  0  0  0  0  0  0  0  0  0  0  0
  -12.8405  -12.6328  -12.8570 H   0  0  0  0  0  0  0  0  0  0  0  0
  -11.1248  -10.9994  -13.6164 H   0  0  0  0  0  0  0  0  0  0  0  0
   -8.7191  -11.6503  -13.6793 H   0  0  0  0  0  0  0  0  0  0  0  0
   -8.0347  -13.9469  -12.9932 H   0  0  0  0  0  0  0  0  0  0  0  0
   -9.7451  -15.5867  -12.2328 H   0  0  0  0  0  0  0  0  0  0  0  0
  -10.3609  -13.1606   -9.8269 H   0  0  0  0  0  0  0  0  0  0  0  0
  -10.4084  -13.2465   -8.0430 H   0  0  0  0  0  0  0  0  0  0  0  0
   -8.7741  -14.8821   -7.9441 H   0  0  0  0  0  0  0  0  0  0  0  0
   -9.2782  -15.6256   -9.4997 H   0  0  0  0  0  0  0  0  0  0  0  0
   -8.2922  -14.1241   -9.4997 H   0  0  0  0  0  0  0  0  0  0  0  0
  -15.3748  -15.5923   -8.7912 H   0  0  0  0  0  0  0  0  0  0  0  0
  -13.0838  -17.5818   -8.2696 H   0  0  0  0  0  0  0  0  0  0  0  0
  -16.5537  -16.7805   -7.3692 H   0  0  0  0  0  0  0  0  0  0  0  0
  -17.5437  -16.8449   -5.0838 H   0  0  0  0  0  0  0  0  0  0  0  0
  -16.0687  -17.1058   -3.0902 H   0  0  0  0  0  0  0  0  0  0  0  0
  -13.6006  -17.2973   -3.3842 H   0  0  0  0  0  0  0  0  0  0  0  0
  -12.6049  -17.2433   -5.6681 H   0  0  0  0  0  0  0  0  0  0  0  0
  1  2  1  0
  2  3  1  0
  3  4  1  0
  4  5  2  0
  4  6  1  0
  6  7  2  0
  7  8  1  0
  7  9  1  0
  9 10  2  0
 10 11  1  0
 11 12  2  0
 12 13  1  0
 13 14  2  0
 14 15  1  0
 15 16  2  0
 10 17  1  0
 17 18  1  0
 18 19  2  0
 18 20  1  0
 20 21  1  0
 21 22  1  0
 17 23  2  0
 23 24  1  0
 24 25  2  0
 25 26  1  0
 26 27  2  0
 27 28  1  0
 28 29  2  0
 29 30  1  0
 30 31  2  0
 23  6  1  0
 31 26  1  0
 16 11  1  0
  1 32  1  0
  1 33  1  0
  1 34  1  0
  2 35  1  0
  2 36  1  0
  8 37  1  0
  8 38  1  0
  8 39  1  0
 12 40  1  0
 13 41  1  0
 14 42  1  0
 15 43  1  0
 16 44  1  0
 21 45  1  0
 21 46  1  0
 22 47  1  0
 22 48  1  0
 22 49  1  0
 24 50  1  0
 25 51  1  0
 27 52  1  0
 28 53  1  0
 29 54  1  0
 30 55  1  0
 31 56  1  0
M  END
>  <meeko>  (8) 
{"is_sidechain": [false], "free_energy": -6.533, "intermolecular_energy": -9.736, "internal_energy": -1.808}

$$$$
LIB_TVZNWOVBAQXKHS__M_PUB_ALL__e8__s20260927
     RDKit          3D

 56 58  0  0  0  0  0  0  0  0999 V2000
   -2.1800  -14.3730   -0.2960 C   0  0  0  0  0  0  0  0  0  0  0  0
   -3.4060  -14.7210    0.5270 C   0  0  0  0  0  0  0  0  0  0  0  0
   -3.0960  -15.7590    1.4670 O   0  0  0  0  0  0  0  0  0  0  0  0
   -3.2840  -15.4440    2.7710 C   0  0  0  0  0  0  0  0  0  0  0  0
   -4.1790  -14.7750    3.2550 O   0  0  0  0  0  0  0  0  0  0  0  0
   -2.1670  -16.0030    3.5460 C   0  0  0  0  0  0  0  0  0  0  0  0
   -2.3290  -17.2360    4.1780 C   0  0  0  0  0  0  0  0  0  0  0  0
   -3.6080  -18.0180    4.0920 C   0  0  0  0  0  0  0  0  0  0  0  0
   -1.3390  -17.8030    4.9170 N   0  0  0  0  0  0  0  0  0  0  0  0
   -0.1510  -17.1490    5.0470 C   0  0  0  0  0  0  0  0  0  0  0  0
    0.8280  -17.8460    5.9010 C   0  0  0  0  0  0  0  0  0  0  0  0
    1.7030  -18.7950    5.3470 C   0  0  0  0  0  0  0  0  0  0  0  0
    2.6440  -19.4600    6.1380 C   0  0  0  0  0  0  0  0  0  0  0  0
    2.7200  -19.1930    7.5020 C   0  0  0  0  0  0  0  0  0  0  0  0
    1.8520  -18.2680    8.0760 C   0  0  0  0  0  0  0  0  0  0  0  0
    0.9110  -17.6040    7.2840 C   0  0  0  0  0  0  0  0  0  0  0  0
    0.0800  -15.9280    4.4100 C   0  0  0  0  0  0  0  0  0  0  0  0
    1.3910  -15.2790    4.5150 C   0  0  0  0  0  0  0  0  0  0  0  0
    1.6810  -14.4670    5.3770 O   0  0  0  0  0  0  0  0  0  0  0  0
    2.1640  -15.7180    3.4950 O   0  0  0  0  0  0  0  0  0  0  0  0
    2.7280  -14.6700    2.6990 C   0  0  0  0  0  0  0  0  0  0  0  0
    2.7760  -15.1450    1.2600 C   0  0  0  0  0  0  0  0  0  0  0  0
   -0.9370  -15.3330    3.6450 C   0  0  0  0  0  0  0  0  0  0  0  0
   -0.6880  -14.0620    2.9440 C   0  0  0  0  0  0  0  0  0  0  0  0
   -1.1410  -12.8920    3.4210 C   0  0  0  0  0  0  0  0  0  0  0  0
   -0.9210  -11.6050    2.7490 C   0  0  0  0  0  0  0  0  0  0  0  0
   -1.5880  -10.4700    3.2260 C   0  0  0  0  0  0  0  0  0  0  0  0
   -1.4230   -9.2320    2.6000 C   0  0  0  0  0  0  0  0  0  0  0  0
   -0.5970   -9.1200    1.4830 C   0  0  0  0  0  0  0  0  0  0  0  0
    0.0590  -10.2460    0.9890 C   0  0  0  0  0  0  0  0  0  0  0  0
   -0.1050  -11.4840    1.6150 C   0  0  0  0  0  0  0  0  0  0  0  0
   -1.3425  -14.1353    0.3763 H   0  0  0  0  0  0  0  0  0  0  0  0
   -1.9090  -15.2297   -0.9305 H   0  0  0  0  0  0  0  0  0  0  0  0
   -2.3995  -13.5017   -0.9305 H   0  0  0  0  0  0  0  0  0  0  0  0
   -3.7432  -13.8269    1.0718 H   0  0  0  0  0  0  0  0  0  0  0  0
   -4.2009  -15.0738   -0.1465 H   0  0  0  0  0  0  0  0  0  0  0  0
   -3.9710  -18.2399    5.1064 H   0  0  0  0  0  0  0  0  0  0  0  0
   -4.3635  -17.4272    3.5533 H   0  0  0  0  0  0  0  0  0  0  0  0
   -3.4265  -18.9597    3.5533 H   0  0  0  0  0  0  0  0  0  0  0  0
    1.6466  -19.0188    4.2715 H   0  0  0  0  0  0  0  0  0  0  0  0
    3.3246  -20.1944    5.6826 H   0  0  0  0  0  0  0  0  0  0  0  0
    3.4639  -19.7114    8.1248 H   0  0  0  0  0  0  0  0  0  0  0  0
    1.9069  -18.0594    9.1546 H   0  0  0  0  0  0  0  0  0  0  0  0
    0.2249  -16.8811    7.7495 H   0  0  0  0  0  0  0  0  0  0  0  0
    2.1029  -13.7679    2.7732 H   0  0  0  0  0  0  0  0  0  0  0  0
    3.7402  -14.4251    3.0533 H   0  0  0  0  0  0  0  0  0  0  0  0
    2.8866  -16.2392    1.2386 H   0  0  0  0  0  0  0  0  0  0  0  0
    1.8445  -14.8605    0.7487 H   0  0  0  0  0  0  0  0  0  0  0  0
    3.6317  -14.6799    0.7487 H   0  0  0  0  0  0  0  0  0  0  0  0
   -0.1157  -14.0717    2.0047 H   0  0  0  0  0  0  0  0  0  0  0  0
   -1.7065  -12.8975    4.3645 H   0  0  0  0  0  0  0  0  0  0  0  0
   -2.2481  -10.5539    4.1019 H   0  0  0  0  0  0  0  0  0  0  0  0
   -1.9452   -8.3453    2.9888 H   0  0  0  0  0  0  0  0  0  0  0  0
   -0.4631   -8.1447    0.9922 H   0  0  0  0  0  0  0  0  0  0  0  0
    0.7072  -10.1597    0.1044 H   0  0  0  0  0  0  0  0  0  0  0  0
    0.4097  -12.3703    1.2155 H   0  0  0  0  0  0  0  0  0  0  0  0
  1  2  1  0
  2  3  1  0
  3  4  1  0
  4  5  2  0
  4  6  1  0
  6  7  2  0
  7  8  1  0
  7  9  1  0
  9 10  2  0
 10 11  1  0
 11 12  2  0
 12 13  1  0
 13 14  2  0
 14 15  1  0
 15 16  2  0
 10 17  1  0
 17 18  1  0
 18 19  2  0
 18 20  1  0
 20 21  1  0
 21 22  1  0
 17 23  2  0
 23 24  1  0
 24 25  2  0
 25 26  1  0
 26 27  2  0
 27 28  1  0
 28 29  2  0
 29 30  1  0
 30 31  2  0
 23  6  1  0
 31 26  1  0
 16 11  1  0
  1 32  1  0
  1 33  1  0
  1 34  1  0
  2 35  1  0
  2 36  1  0
  8 37  1  0
  8 38  1  0
  8 39  1  0
 12 40  1  0
 13 41  1  0
 14 42  1  0
 15 43  1  0
 16 44  1  0
 21 45  1  0
 21 46  1  0
 22 47  1  0
 22 48  1  0
 22 49  1  0
 24 50  1  0
 25 51  1  0
 27 52  1  0
 28 53  1  0
 29 54  1  0
 30 55  1  0
 31 56  1  0
M  END
>  <meeko>  (9) 
{"is_sidechain": [false], "free_energy": -6.529, "intermolecular_energy": -9.625, "internal_energy": -1.914}

$$$$
