LIB_QDQTUGOWMGACMO__M_PUB_ALL__e8__s20260927
     RDKit          3D

 88 94  0  0  0  0  0  0  0  0999 V2000
    2.2930  -15.9730   -1.8630 C   0  0  0  0  0  0  0  0  0  0  0  0
    2.5070  -15.2070   -0.5590 C   0  0  2  0  0  0  0  0  0  0  0  0
    1.1300  -14.8760    0.0590 C   0  0  0  0  0  0  0  0  0  0  0  0
    1.1930  -13.7600    1.1110 C   0  0  1  0  0  0  0  0  0  0  0  0
    2.5420  -13.7120    1.6130 O   0  0  0  0  0  0  0  0  0  0  0  0
    3.2750  -13.0310    0.5730 C   0  0  1  0  0  0  0  0  0  0  0  0
    2.3740  -11.8110    0.3460 C   0  0  0  0  0  0  0  0  0  0  0  0
    0.9610  -12.3730    0.4830 C   0  0  2  0  0  0  0  0  0  0  0  0
   -0.0240  -11.4760    1.2740 C   0  0  0  0  0  0  0  0  0  0  0  0
   -0.5050  -12.1790    2.5510 C   0  0  0  0  0  0  0  0  0  0  0  0
   -1.2370  -10.9960    0.4690 C   0  0  0  0  0  0  0  0  0  0  0  0
    0.6850  -10.2960    1.6840 O   0  0  0  0  0  0  0  0  0  0  0  0
    4.7190  -12.7460    1.0420 C   0  0  2  0  0  0  0  0  0  0  0  0
    4.8360  -11.5300    1.7690 O   0  0  0  0  0  0  0  0  0  0  0  0
    5.5600  -12.8030   -0.2510 C   0  0  1  0  0  0  0  0  0  0  0  0
    5.3250  -11.5050   -1.0870 C   0  0  0  0  0  0  0  0  0  0  0  0
    7.0850  -12.9840   -0.0170 C   0  0  2  0  0  0  0  0  0  0  0  0
    7.7820  -11.7370    0.5520 C   0  0  0  0  0  0  0  0  0  0  0  0
    9.2750  -11.9760    0.7510 C   0  0  0  0  0  0  0  0  0  0  0  0
    9.9700  -12.1200   -0.6100 C   0  0  1  0  0  0  0  0  0  0  0  0
   11.5300  -12.2990   -0.5420 C   0  0  0  0  0  0  0  0  0  0  0  0
   11.9480  -13.5720    0.2250 C   0  0  0  0  0  0  0  0  0  0  0  0
   12.1680  -11.0990    0.2000 C   0  0  0  0  0  0  0  0  0  0  0  0
   12.0810  -12.3230   -2.0030 C   0  0  1  0  0  0  0  0  0  0  0  0
   13.4840  -12.5920   -2.0370 O   0  0  0  0  0  0  0  0  0  0  0  0
   11.3920  -13.3580   -2.8900 C   0  0  0  0  0  0  0  0  0  0  0  0
    9.8820  -13.1580   -2.9140 C   0  0  0  0  0  0  0  0  0  0  0  0
    9.3120  -13.1800   -1.5040 C   0  0  1  0  0  0  0  0  0  0  0  0
    8.9230  -14.5300   -0.9640 C   0  0  0  0  0  0  0  0  0  0  0  0
    7.8120  -13.5330   -1.2740 C   0  0  1  0  0  0  0  0  0  0  0  0
    6.9630  -13.8220   -2.5350 C   0  0  0  0  0  0  0  0  0  0  0  0
    5.4450  -14.1100   -2.3870 C   0  0  1  0  0  0  0  0  0  0  0  0
    5.1240  -15.3570   -3.0000 O   0  0  0  0  0  0  0  0  0  0  0  0
    4.9350  -15.3280   -4.3390 C   0  0  0  0  0  0  0  0  0  0  0  0
    5.6050  -16.1210   -5.0660 O   0  0  0  0  0  0  0  0  0  0  0  0
    4.0850  -14.4800   -4.7330 O   0  0  0  0  0  0  0  0  0  0  0  0
    4.9680  -14.1140   -0.9130 C   0  0  1  0  0  0  0  0  0  0  0  0
    5.4350  -15.4340   -0.2240 C   0  0  0  0  0  0  0  0  0  0  0  0
    3.4000  -13.9390   -0.7060 C   0  0  1  0  0  0  0  0  0  0  0  0
    2.0034  -17.0096   -1.6360 H   0  0  0  0  0  0  0  0  0  0  0  0
    1.4957  -15.4888   -2.4460 H   0  0  0  0  0  0  0  0  0  0  0  0
    3.2258  -15.9722   -2.4460 H   0  0  0  0  0  0  0  0  0  0  0  0
    3.0747  -15.8598    0.1204 H   0  0  0  0  0  0  0  0  0  0  0  0
    0.4519  -14.5590   -0.7471 H   0  0  0  0  0  0  0  0  0  0  0  0
    0.7720  -15.7841    0.5662 H   0  0  0  0  0  0  0  0  0  0  0  0
    0.4295  -13.9720    1.8740 H   0  0  0  0  0  0  0  0  0  0  0  0
    2.5634  -11.0371    1.1044 H   0  0  0  0  0  0  0  0  0  0  0  0
    2.5479  -11.3282   -0.6270 H   0  0  0  0  0  0  0  0  0  0  0  0
    0.4454  -12.4274   -0.4872 H   0  0  0  0  0  0  0  0  0  0  0  0
   -0.1327  -11.6349    3.4315 H   0  0  0  0  0  0  0  0  0  0  0  0
   -1.6047  -12.1958    2.5683 H   0  0  0  0  0  0  0  0  0  0  0  0
   -0.1222  -13.2101    2.5683 H   0  0  0  0  0  0  0  0  0  0  0  0
   -2.0336  -10.6808    1.1590 H   0  0  0  0  0  0  0  0  0  0  0  0
   -0.9435  -10.1462   -0.1648 H   0  0  0  0  0  0  0  0  0  0  0  0
   -1.6044  -11.8165   -0.1648 H   0  0  0  0  0  0  0  0  0  0  0  0
    1.5560  -10.3030    1.2490 H   0  0  0  0  0  0  0  0  0  0  0  0
    5.0770  -13.4838    1.7751 H   0  0  0  0  0  0  0  0  0  0  0  0
    5.7790  -11.4590    2.0070 H   0  0  0  0  0  0  0  0  0  0  0  0
    5.1709  -10.6540   -0.4073 H   0  0  0  0  0  0  0  0  0  0  0  0
    6.2031  -11.3134   -1.7213 H   0  0  0  0  0  0  0  0  0  0  0  0
    4.4355  -11.6334   -1.7213 H   0  0  0  0  0  0  0  0  0  0  0  0
    7.1651  -13.7487    0.7697 H   0  0  0  0  0  0  0  0  0  0  0  0
    7.6438  -10.8993   -0.1474 H   0  0  0  0  0  0  0  0  0  0  0  0
    7.3349  -11.5066    1.5303 H   0  0  0  0  0  0  0  0  0  0  0  0
    9.7109  -11.1246    1.2943 H   0  0  0  0  0  0  0  0  0  0  0  0
    9.4186  -12.9007    1.3292 H   0  0  0  0  0  0  0  0  0  0  0  0
    9.8171  -11.1414   -1.0885 H   0  0  0  0  0  0  0  0  0  0  0  0
   11.8865  -13.3848    1.3072 H   0  0  0  0  0  0  0  0  0  0  0  0
   11.2743  -14.3993   -0.0429 H   0  0  0  0  0  0  0  0  0  0  0  0
   12.9810  -13.8389   -0.0429 H   0  0  0  0  0  0  0  0  0  0  0  0
   12.0858  -11.2537    1.2860 H   0  0  0  0  0  0  0  0  0  0  0  0
   13.2288  -11.0171   -0.0794 H   0  0  0  0  0  0  0  0  0  0  0  0
   11.6427  -10.1738   -0.0794 H   0  0  0  0  0  0  0  0  0  0  0  0
   11.8706  -11.3168   -2.3946 H   0  0  0  0  0  0  0  0  0  0  0  0
   13.8580  -12.1020   -2.7880 H   0  0  0  0  0  0  0  0  0  0  0  0
   11.7809  -13.2657   -3.9148 H   0  0  0  0  0  0  0  0  0  0  0  0
   11.6008  -14.3570   -2.4797 H   0  0  0  0  0  0  0  0  0  0  0  0
    9.6540  -12.1881   -3.3801 H   0  0  0  0  0  0  0  0  0  0  0  0
    9.4270  -13.9764   -3.4912 H   0  0  0  0  0  0  0  0  0  0  0  0
    9.0439  -15.4239   -1.5935 H   0  0  0  0  0  0  0  0  0  0  0  0
    9.2060  -15.1098   -0.0731 H   0  0  0  0  0  0  0  0  0  0  0  0
    7.0594  -12.9457   -3.1929 H   0  0  0  0  0  0  0  0  0  0  0  0
    7.3705  -14.7735   -2.9073 H   0  0  0  0  0  0  0  0  0  0  0  0
    4.9165  -13.2888   -2.8932 H   0  0  0  0  0  0  0  0  0  0  0  0
    5.3920  -15.3125    0.8684 H   0  0  0  0  0  0  0  0  0  0  0  0
    4.7744  -16.2596   -0.5274 H   0  0  0  0  0  0  0  0  0  0  0  0
    6.4678  -15.6604   -0.5274 H   0  0  0  0  0  0  0  0  0  0  0  0
    2.9995  -13.5214   -1.6415 H   0  0  0  0  0  0  0  0  0  0  0  0
  1  2  1  0
  2  3  1  0
  3  4  1  0
  4  5  1  0
  5  6  1  0
  6  7  1  6
  7  8  1  0
  8  9  1  0
  9 10  1  0
  9 11  1  0
  9 12  1  0
  6 13  1  0
 13 14  1  0
 13 15  1  0
 15 16  1  6
 15 17  1  0
 17 18  1  0
 18 19  1  0
 19 20  1  0
 20 21  1  0
 21 22  1  0
 21 23  1  0
 21 24  1  0
 24 25  1  0
 24 26  1  0
 26 27  1  0
 28 27  1  6
 28 29  1  0
 30 29  1  1
 30 31  1  0
 31 32  1  0
 32 33  1  0
 33 34  1  0
 34 35  2  0
 34 36  1  0
 32 37  1  0
 37 38  1  1
 37 39  1  0
 39  2  1  0
  8  4  1  0
 37 15  1  0
 39  6  1  0
 30 17  1  0
 28 20  1  0
 30 28  1  0
  1 40  1  0
  1 41  1  0
  1 42  1  0
  2 43  1  1
  3 44  1  0
  3 45  1  0
  4 46  1  1
  7 47  1  0
  7 48  1  0
  8 49  1  6
 10 50  1  0
 10 51  1  0
 10 52  1  0
 11 53  1  0
 11 54  1  0
 11 55  1  0
 12 56  1  0
 13 57  1  1
 14 58  1  0
 16 59  1  0
 16 60  1  0
 16 61  1  0
 17 62  1  1
 18 63  1  0
 18 64  1  0
 19 65  1  0
 19 66  1  0
 20 67  1  6
 22 68  1  0
 22 69  1  0
 22 70  1  0
 23 71  1  0
 23 72  1  0
 23 73  1  0
 24 74  1  6
 25 75  1  0
 26 76  1  0
 26 77  1  0
 27 78  1  0
 27 79  1  0
 29 80  1  0
 29 81  1  0
 31 82  1  0
 31 83  1  0
 32 84  1  6
 38 85  1  0
 38 86  1  0
 38 87  1  0
 39 88  1  6
M  CHG  1  36  -1
M  END
>  <meeko>  (1) 
{"is_sidechain": [false], "free_energy": -8.661, "intermolecular_energy": -10.939, "internal_energy": -0.786}

$$$$
LIB_QDQTUGOWMGACMO__M_PUB_ALL__e8__s20260927
     RDKit          3D

 88 94  0  0  0  0  0  0  0  0999 V2000
   -2.5110  -12.9570    0.3820 C   0  0  0  0  0  0  0  0  0  0  0  0
   -1.9960  -14.3940    0.3190 C   0  0  2  0  0  0  0  0  0  0  0  0
   -3.0760  -15.3390    0.8910 C   0  0  0  0  0  0  0  0  0  0  0  0
   -2.5280  -16.7170    1.2810 C   0  0  1  0  0  0  0  0  0  0  0  0
   -1.3210  -16.9350    0.5240 O   0  0  0  0  0  0  0  0  0  0  0  0
   -0.3330  -16.1380    1.2110 C   0  0  1  0  0  0  0  0  0  0  0  0
   -0.5610  -16.5930    2.6580 C   0  0  0  0  0  0  0  0  0  0  0  0
   -2.0770  -16.7550    2.7530 C   0  0  2  0  0  0  0  0  0  0  0  0
   -2.5520  -18.0080    3.5290 C   0  0  0  0  0  0  0  0  0  0  0  0
   -4.0130  -17.8590    3.9760 C   0  0  0  0  0  0  0  0  0  0  0  0
   -1.6840  -18.3770    4.7380 C   0  0  0  0  0  0  0  0  0  0  0  0
   -2.4980  -19.1300    2.6330 O   0  0  0  0  0  0  0  0  0  0  0  0
    1.0670  -16.4030    0.6160 C   0  0  2  0  0  0  0  0  0  0  0  0
    1.7190  -17.5210    1.2060 O   0  0  0  0  0  0  0  0  0  0  0  0
    1.8150  -15.0630    0.7870 C   0  0  1  0  0  0  0  0  0  0  0  0
    2.2270  -14.8790    2.2820 C   0  0  0  0  0  0  0  0  0  0  0  0
    3.0780  -14.9150   -0.1070 C   0  0  2  0  0  0  0  0  0  0  0  0
    4.2600  -15.7950    0.3310 C   0  0  0  0  0  0  0  0  0  0  0  0
    5.4680  -15.5980   -0.5790 C   0  0  0  0  0  0  0  0  0  0  0  0
    6.0480  -14.1900   -0.3850 C   0  0  1  0  0  0  0  0  0  0  0  0
    7.3440  -13.8870   -1.2190 C   0  0  0  0  0  0  0  0  0  0  0  0
    7.1080  -13.9850   -2.7420 C   0  0  0  0  0  0  0  0  0  0  0  0
    8.4500  -14.9140   -0.8700 C   0  0  0  0  0  0  0  0  0  0  0  0
    7.8550  -12.4640   -0.8250 C   0  0  1  0  0  0  0  0  0  0  0  0
    8.9740  -12.0630   -1.6180 O   0  0  0  0  0  0  0  0  0  0  0  0
    6.7840  -11.3820   -0.9580 C   0  0  0  0  0  0  0  0  0  0  0  0
    5.5400  -11.7240   -0.1490 C   0  0  0  0  0  0  0  0  0  0  0  0
    4.9930  -13.0860   -0.5490 C   0  0  1  0  0  0  0  0  0  0  0  0
    4.0120  -13.1000   -1.6890 C   0  0  0  0  0  0  0  0  0  0  0  0
    3.4950  -13.4310   -0.2930 C   0  0  1  0  0  0  0  0  0  0  0  0
    2.6370  -12.3430    0.3970 C   0  0  0  0  0  0  0  0  0  0  0  0
    1.1560  -12.6450    0.7490 C   0  0  1  0  0  0  0  0  0  0  0  0
    0.3080  -11.6550    0.1700 O   0  0  0  0  0  0  0  0  0  0  0  0
    0.1240  -10.5320    0.9010 C   0  0  0  0  0  0  0  0  0  0  0  0
    0.5280   -9.4260    0.4320 O   0  0  0  0  0  0  0  0  0  0  0  0
   -0.4450  -10.7150    2.0140 O   0  0  0  0  0  0  0  0  0  0  0  0
    0.6990  -14.0540    0.2950 C   0  0  1  0  0  0  0  0  0  0  0  0
    0.4860  -14.0540   -1.2510 C   0  0  0  0  0  0  0  0  0  0  0  0
   -0.6140  -14.6040    1.0070 C   0  0  1  0  0  0  0  0  0  0  0  0
   -2.6202  -12.6524    1.4333 H   0  0  0  0  0  0  0  0  0  0  0  0
   -1.7963  -12.2890   -0.1210 H   0  0  0  0  0  0  0  0  0  0  0  0
   -3.4873  -12.8950   -0.1210 H   0  0  0  0  0  0  0  0  0  0  0  0
   -1.8111  -14.6345   -0.7383 H   0  0  0  0  0  0  0  0  0  0  0  0
   -3.5124  -14.8704    1.7854 H   0  0  0  0  0  0  0  0  0  0  0  0
   -3.8243  -15.4967    0.1003 H   0  0  0  0  0  0  0  0  0  0  0  0
   -3.3205  -17.4581    1.1002 H   0  0  0  0  0  0  0  0  0  0  0  0
   -0.0516  -17.5481    2.8536 H   0  0  0  0  0  0  0  0  0  0  0  0
   -0.1616  -15.8819    3.3961 H   0  0  0  0  0  0  0  0  0  0  0  0
   -2.5371  -15.9602    3.3585 H   0  0  0  0  0  0  0  0  0  0  0  0
   -4.0615  -17.8540    5.0749 H   0  0  0  0  0  0  0  0  0  0  0  0
   -4.4211  -16.9146    3.5867 H   0  0  0  0  0  0  0  0  0  0  0  0
   -4.6033  -18.7016    3.5867 H   0  0  0  0  0  0  0  0  0  0  0  0
   -2.2290  -18.1453    5.6650 H   0  0  0  0  0  0  0  0  0  0  0  0
   -1.4516  -19.4517    4.7081 H   0  0  0  0  0  0  0  0  0  0  0  0
   -0.7488  -17.7986    4.7081 H   0  0  0  0  0  0  0  0  0  0  0  0
   -1.6510  -19.5880    2.7760 H   0  0  0  0  0  0  0  0  0  0  0  0
    1.0250  -16.6976   -0.4430 H   0  0  0  0  0  0  0  0  0  0  0  0
    1.4740  -17.4960    2.1500 H   0  0  0  0  0  0  0  0  0  0  0  0
    1.4172  -15.2407    2.9327 H   0  0  0  0  0  0  0  0  0  0  0  0
    3.1433  -15.4534    2.4832 H   0  0  0  0  0  0  0  0  0  0  0  0
    2.4108  -13.8133    2.4832 H   0  0  0  0  0  0  0  0  0  0  0  0
    2.7783  -15.2989   -1.0933 H   0  0  0  0  0  0  0  0  0  0  0  0
    4.5409  -15.5301    1.3610 H   0  0  0  0  0  0  0  0  0  0  0  0
    3.9487  -16.8482    0.2697 H   0  0  0  0  0  0  0  0  0  0  0  0
    6.2361  -16.3455   -0.3316 H   0  0  0  0  0  0  0  0  0  0  0  0
    5.1541  -15.7178   -1.6264 H   0  0  0  0  0  0  0  0  0  0  0  0
    6.3771  -14.1825    0.6646 H   0  0  0  0  0  0  0  0  0  0  0  0
    6.1074  -14.4005   -2.9320 H   0  0  0  0  0  0  0  0  0  0  0  0
    7.1798  -12.9827   -3.1894 H   0  0  0  0  0  0  0  0  0  0  0  0
    7.8687  -14.6416   -3.1894 H   0  0  0  0  0  0  0  0  0  0  0  0
    8.5406  -14.9981    0.2230 H   0  0  0  0  0  0  0  0  0  0  0  0
    8.1862  -15.8947   -1.2926 H   0  0  0  0  0  0  0  0  0  0  0  0
    9.4085  -14.5784   -1.2926 H   0  0  0  0  0  0  0  0  0  0  0  0
    8.1444  -12.5561    0.2322 H   0  0  0  0  0  0  0  0  0  0  0  0
    8.6580  -11.4030   -2.2560 H   0  0  0  0  0  0  0  0  0  0  0  0
    7.1939  -10.4273   -0.5966 H   0  0  0  0  0  0  0  0  0  0  0  0
    6.4970  -11.3096   -2.0174 H   0  0  0  0  0  0  0  0  0  0  0  0
    5.7980  -11.7388    0.9202 H   0  0  0  0  0  0  0  0  0  0  0  0
    4.7706  -10.9631   -0.3468 H   0  0  0  0  0  0  0  0  0  0  0  0
    3.7199  -12.1537   -2.1678 H   0  0  0  0  0  0  0  0  0  0  0  0
    3.9746  -13.6126   -2.6616 H   0  0  0  0  0  0  0  0  0  0  0  0
    3.1435  -12.0862    1.3391 H   0  0  0  0  0  0  0  0  0  0  0  0
    2.5649  -11.5512   -0.3631 H   0  0  0  0  0  0  0  0  0  0  0  0
    1.0792  -12.6204    1.8460 H   0  0  0  0  0  0  0  0  0  0  0  0
    0.4360  -15.0911   -1.6142 H   0  0  0  0  0  0  0  0  0  0  0  0
   -0.4538  -13.5355   -1.4917 H   0  0  0  0  0  0  0  0  0  0  0  0
    1.3257  -13.5355   -1.7368 H   0  0  0  0  0  0  0  0  0  0  0  0
   -0.7543  -14.0081    1.9209 H   0  0  0  0  0  0  0  0  0  0  0  0
  1  2  1  0
  2  3  1  0
  3  4  1  0
  4  5  1  0
  5  6  1  0
  6  7  1  1
  7  8  1  0
  8  9  1  0
  9 10  1  0
  9 11  1  0
  9 12  1  0
  6 13  1  0
 13 14  1  0
 13 15  1  0
 15 16  1  1
 15 17  1  0
 17 18  1  0
 18 19  1  0
 19 20  1  0
 20 21  1  0
 21 22  1  0
 21 23  1  0
 21 24  1  0
 24 25  1  0
 24 26  1  0
 26 27  1  0
 28 27  1  1
 28 29  1  0
 30 29  1  6
 30 31  1  0
 31 32  1  0
 32 33  1  0
 33 34  1  0
 34 35  2  0
 34 36  1  0
 32 37  1  0
 37 38  1  6
 37 39  1  0
 39  2  1  0
  8  4  1  0
 37 15  1  0
 39  6  1  0
 30 17  1  0
 28 20  1  0
 30 28  1  0
  1 40  1  0
  1 41  1  0
  1 42  1  0
  2 43  1  6
  3 44  1  0
  3 45  1  0
  4 46  1  1
  7 47  1  0
  7 48  1  0
  8 49  1  1
 10 50  1  0
 10 51  1  0
 10 52  1  0
 11 53  1  0
 11 54  1  0
 11 55  1  0
 12 56  1  0
 13 57  1  6
 14 58  1  0
 16 59  1  0
 16 60  1  0
 16 61  1  0
 17 62  1  6
 18 63  1  0
 18 64  1  0
 19 65  1  0
 19 66  1  0
 20 67  1  1
 22 68  1  0
 22 69  1  0
 22 70  1  0
 23 71  1  0
 23 72  1  0
 23 73  1  0
 24 74  1  1
 25 75  1  0
 26 76  1  0
 26 77  1  0
 27 78  1  0
 27 79  1  0
 29 80  1  0
 29 81  1  0
 31 82  1  0
 31 83  1  0
 32 84  1  1
 38 85  1  0
 38 86  1  0
 38 87  1  0
 39 88  1  1
M  CHG  1  36  -1
M  END
>  <meeko>  (2) 
{"is_sidechain": [false], "free_energy": -8.614, "intermolecular_energy": -10.838, "internal_energy": -0.829}

$$$$
LIB_QDQTUGOWMGACMO__M_PUB_ALL__e8__s20260927
     RDKit          3D

 88 94  0  0  0  0  0  0  0  0999 V2000
    5.2300  -15.3840    0.5570 C   0  0  0  0  0  0  0  0  0  0  0  0
    4.9820  -13.9870   -0.0100 C   0  0  2  0  0  0  0  0  0  0  0  0
    4.0980  -13.1950    0.9780 C   0  0  0  0  0  0  0  0  0  0  0  0
    3.4310  -11.9690    0.3410 C   0  0  1  0  0  0  0  0  0  0  0  0
    4.2170  -11.5920   -0.8060 O   0  0  0  0  0  0  0  0  0  0  0  0
    3.8420  -12.5550   -1.8140 C   0  0  1  0  0  0  0  0  0  0  0  0
    2.3130  -12.4730   -1.7270 C   0  0  0  0  0  0  0  0  0  0  0  0
    2.0430  -12.3100   -0.2330 C   0  0  2  0  0  0  0  0  0  0  0  0
    0.9400  -11.2820    0.1220 C   0  0  0  0  0  0  0  0  0  0  0  0
   -0.3690  -11.9880    0.5050 C   0  0  0  0  0  0  0  0  0  0  0  0
    0.6590  -10.2440   -0.9700 C   0  0  0  0  0  0  0  0  0  0  0  0
    1.3750  -10.5480    1.2790 O   0  0  0  0  0  0  0  0  0  0  0  0
    4.4780  -12.1770   -3.1690 C   0  0  2  0  0  0  0  0  0  0  0  0
    3.6920  -11.2550   -3.9140 O   0  0  0  0  0  0  0  0  0  0  0  0
    4.7140  -13.5310   -3.8720 C   0  0  1  0  0  0  0  0  0  0  0  0
    3.3550  -14.0930   -4.4000 C   0  0  0  0  0  0  0  0  0  0  0  0
    5.7280  -13.4760   -5.0480 C   0  0  2  0  0  0  0  0  0  0  0  0
    5.1960  -12.7560   -6.2980 C   0  0  0  0  0  0  0  0  0  0  0  0
    6.2340  -12.7440   -7.4170 C   0  0  0  0  0  0  0  0  0  0  0  0
    6.4490  -14.1660   -7.9510 C   0  0  1  0  0  0  0  0  0  0  0  0
    7.4460  -14.2760   -9.1600 C   0  0  0  0  0  0  0  0  0  0  0  0
    8.8690  -13.7950   -8.8010 C   0  0  0  0  0  0  0  0  0  0  0  0
    6.9570  -13.3910  -10.3320 C   0  0  0  0  0  0  0  0  0  0  0  0
    7.4660  -15.7620   -9.6410 C   0  0  1  0  0  0  0  0  0  0  0  0
    8.4320  -15.9730  -10.6720 O   0  0  0  0  0  0  0  0  0  0  0  0
    7.7640  -16.7540   -8.5190 C   0  0  0  0  0  0  0  0  0  0  0  0
    6.7850  -16.6020   -7.3620 C   0  0  0  0  0  0  0  0  0  0  0  0
    6.7830  -15.1730   -6.8410 C   0  0  1  0  0  0  0  0  0  0  0  0
    7.7890  -14.8540   -5.7690 C   0  0  0  0  0  0  0  0  0  0  0  0
    6.3140  -14.8730   -5.3860 C   0  0  1  0  0  0  0  0  0  0  0  0
    5.8390  -16.0820   -4.5440 C   0  0  0  0  0  0  0  0  0  0  0  0
    5.2900  -15.8500   -3.1110 C   0  0  1  0  0  0  0  0  0  0  0  0
    6.0150  -16.6460   -2.1770 O   0  0  0  0  0  0  0  0  0  0  0  0
    5.5370  -17.8940   -1.9650 C   0  0  0  0  0  0  0  0  0  0  0  0
    6.3320  -18.8750   -2.0580 O   0  0  0  0  0  0  0  0  0  0  0  0
    4.3040  -17.9450   -1.6930 O   0  0  0  0  0  0  0  0  0  0  0  0
    5.3360  -14.3630   -2.6780 C   0  0  1  0  0  0  0  0  0  0  0  0
    6.8080  -13.9710   -2.3350 C   0  0  0  0  0  0  0  0  0  0  0  0
    4.3930  -13.9840   -1.4520 C   0  0  1  0  0  0  0  0  0  0  0  0
    5.2222  -15.3403    1.6561 H   0  0  0  0  0  0  0  0  0  0  0  0
    4.4388  -16.0657    0.2115 H   0  0  0  0  0  0  0  0  0  0  0  0
    6.2075  -15.7517    0.2115 H   0  0  0  0  0  0  0  0  0  0  0  0
    5.9586  -13.4920   -0.1155 H   0  0  0  0  0  0  0  0  0  0  0  0
    3.3113  -13.8638    1.3571 H   0  0  0  0  0  0  0  0  0  0  0  0
    4.7527  -12.8302    1.7832 H   0  0  0  0  0  0  0  0  0  0  0  0
    3.3498  -11.1906    1.1140 H   0  0  0  0  0  0  0  0  0  0  0  0
    1.9340  -11.6078   -2.2907 H   0  0  0  0  0  0  0  0  0  0  0  0
    1.8140  -13.3542   -2.1564 H   0  0  0  0  0  0  0  0  0  0  0  0
    1.6143  -13.2219    0.2082 H   0  0  0  0  0  0  0  0  0  0  0  0
   -0.4539  -12.0338    1.6008 H   0  0  0  0  0  0  0  0  0  0  0  0
   -1.2217  -11.4274    0.0943 H   0  0  0  0  0  0  0  0  0  0  0  0
   -0.3690  -13.0084    0.0943 H   0  0  0  0  0  0  0  0  0  0  0  0
    0.3987   -9.2824   -0.5036 H   0  0  0  0  0  0  0  0  0  0  0  0
    1.5553  -10.1176   -1.5951 H   0  0  0  0  0  0  0  0  0  0  0  0
   -0.1786  -10.5870   -1.5951 H   0  0  0  0  0  0  0  0  0  0  0  0
    1.7080  -11.1880    1.9320 H   0  0  0  0  0  0  0  0  0  0  0  0
    5.4226  -11.6258   -3.0509 H   0  0  0  0  0  0  0  0  0  0  0  0
    2.8250  -11.2340   -3.4690 H   0  0  0  0  0  0  0  0  0  0  0  0
    2.7123  -14.3588   -3.5478 H   0  0  0  0  0  0  0  0  0  0  0  0
    2.8548  -13.3279   -5.0119 H   0  0  0  0  0  0  0  0  0  0  0  0
    3.5412  -14.9879   -5.0119 H   0  0  0  0  0  0  0  0  0  0  0  0
    6.5571  -12.8524   -4.6824 H   0  0  0  0  0  0  0  0  0  0  0  0
    4.2931  -13.2745   -6.6528 H   0  0  0  0  0  0  0  0  0  0  0  0
    4.9667  -11.7149   -6.0269 H   0  0  0  0  0  0  0  0  0  0  0  0
    5.8808  -12.0979   -8.2342 H   0  0  0  0  0  0  0  0  0  0  0  0
    7.1858  -12.3599   -7.0214 H   0  0  0  0  0  0  0  0  0  0  0  0
    5.4686  -14.4429   -8.3660 H   0  0  0  0  0  0  0  0  0  0  0  0
    8.9785  -13.7580   -7.7071 H   0  0  0  0  0  0  0  0  0  0  0  0
    9.6086  -14.4931   -9.2201 H   0  0  0  0  0  0  0  0  0  0  0  0
    9.0334  -12.7914   -9.2201 H   0  0  0  0  0  0  0  0  0  0  0  0
    6.4614  -12.4941   -9.9322 H   0  0  0  0  0  0  0  0  0  0  0  0
    7.8172  -13.0906  -10.9484 H   0  0  0  0  0  0  0  0  0  0  0  0
    6.2449  -13.9594  -10.9484 H   0  0  0  0  0  0  0  0  0  0  0  0
    6.4499  -15.9442  -10.0209 H   0  0  0  0  0  0  0  0  0  0  0  0
    9.0710  -16.6270  -10.3440 H   0  0  0  0  0  0  0  0  0  0  0  0
    7.6898  -17.7766   -8.9175 H   0  0  0  0  0  0  0  0  0  0  0  0
    8.7772  -16.5523   -8.1413 H   0  0  0  0  0  0  0  0  0  0  0  0
    5.7737  -16.8609   -7.7088 H   0  0  0  0  0  0  0  0  0  0  0  0
    7.0940  -17.2739   -6.5478 H   0  0  0  0  0  0  0  0  0  0  0  0
    8.4583  -15.6441   -5.3977 H   0  0  0  0  0  0  0  0  0  0  0  0
    8.5966  -14.1135   -5.6718 H   0  0  0  0  0  0  0  0  0  0  0  0
    5.0397  -16.5755   -5.1163 H   0  0  0  0  0  0  0  0  0  0  0  0
    6.7617  -16.6568   -4.3760 H   0  0  0  0  0  0  0  0  0  0  0  0
    4.2314  -16.1487   -3.1245 H   0  0  0  0  0  0  0  0  0  0  0  0
    6.9335  -13.9376   -1.2427 H   0  0  0  0  0  0  0  0  0  0  0  0
    7.4949  -14.7175   -2.7603 H   0  0  0  0  0  0  0  0  0  0  0  0
    7.0326  -12.9817   -2.7603 H   0  0  0  0  0  0  0  0  0  0  0  0
    3.6471  -14.7875   -1.3628 H   0  0  0  0  0  0  0  0  0  0  0  0
  1  2  1  0
  2  3  1  0
  3  4  1  0
  4  5  1  0
  5  6  1  0
  6  7  1  6
  7  8  1  0
  8  9  1  0
  9 10  1  0
  9 11  1  0
  9 12  1  0
  6 13  1  0
 13 14  1  0
 13 15  1  0
 15 16  1  6
 15 17  1  0
 17 18  1  0
 18 19  1  0
 19 20  1  0
 20 21  1  0
 21 22  1  0
 21 23  1  0
 21 24  1  0
 24 25  1  0
 24 26  1  0
 26 27  1  0
 28 27  1  6
 28 29  1  0
 30 29  1  1
 30 31  1  0
 31 32  1  0
 32 33  1  0
 33 34  1  0
 34 35  2  0
 34 36  1  0
 32 37  1  0
 37 38  1  1
 37 39  1  0
 39  2  1  0
  8  4  1  0
 37 15  1  0
 39  6  1  0
 30 17  1  0
 28 20  1  0
 30 28  1  0
  1 40  1  0
  1 41  1  0
  1 42  1  0
  2 43  1  6
  3 44  1  0
  3 45  1  0
  4 46  1  1
  7 47  1  0
  7 48  1  0
  8 49  1  1
 10 50  1  0
 10 51  1  0
 10 52  1  0
 11 53  1  0
 11 54  1  0
 11 55  1  0
 12 56  1  0
 13 57  1  1
 14 58  1  0
 16 59  1  0
 16 60  1  0
 16 61  1  0
 17 62  1  1
 18 63  1  0
 18 64  1  0
 19 65  1  0
 19 66  1  0
 20 67  1  6
 22 68  1  0
 22 69  1  0
 22 70  1  0
 23 71  1  0
 23 72  1  0
 23 73  1  0
 24 74  1  6
 25 75  1  0
 26 76  1  0
 26 77  1  0
 27 78  1  0
 27 79  1  0
 29 80  1  0
 29 81  1  0
 31 82  1  0
 31 83  1  0
 32 84  1  6
 38 85  1  0
 38 86  1  0
 38 87  1  0
 39 88  1  1
M  CHG  1  36  -1
M  END
>  <meeko>  (3) 
{"is_sidechain": [false], "free_energy": -8.453, "intermolecular_energy": -10.705, "internal_energy": -0.759}

$$$$
LIB_QDQTUGOWMGACMO__M_PUB_ALL__e8__s20260927
     RDKit          3D

 88 94  0  0  0  0  0  0  0  0999 V2000
   -3.7370  -14.8630    3.1760 C   0  0  0  0  0  0  0  0  0  0  0  0
   -2.9720  -16.1340    2.8130 C   0  0  2  0  0  0  0  0  0  0  0  0
   -3.2890  -17.2260    3.8580 C   0  0  0  0  0  0  0  0  0  0  0  0
   -2.2730  -18.3760    3.8590 C   0  0  1  0  0  0  0  0  0  0  0  0
   -1.6420  -18.3980    2.5650 O   0  0  0  0  0  0  0  0  0  0  0  0
   -0.6950  -17.3090    2.6220 C   0  0  1  0  0  0  0  0  0  0  0  0
    0.0070  -17.6170    3.9510 C   0  0  0  0  0  0  0  0  0  0  0  0
   -1.1230  -18.1180    4.8500 C   0  0  2  0  0  0  0  0  0  0  0  0
   -0.7610  -19.3390    5.7320 C   0  0  0  0  0  0  0  0  0  0  0  0
   -1.1700  -19.1020    7.1930 C   0  0  0  0  0  0  0  0  0  0  0  0
    0.7140  -19.7530    5.6760 C   0  0  0  0  0  0  0  0  0  0  0  0
   -1.5180  -20.4650    5.2610 O   0  0  0  0  0  0  0  0  0  0  0  0
    0.1910  -17.3110    1.3570 C   0  0  2  0  0  0  0  0  0  0  0  0
    1.3260  -18.1600    1.4750 O   0  0  0  0  0  0  0  0  0  0  0  0
    0.5270  -15.8230    1.1230 C   0  0  1  0  0  0  0  0  0  0  0  0
    1.5990  -15.3570    2.1600 C   0  0  0  0  0  0  0  0  0  0  0  0
    1.0340  -15.4960   -0.3090 C   0  0  2  0  0  0  0  0  0  0  0  0
    2.4530  -16.0110   -0.6010 C   0  0  0  0  0  0  0  0  0  0  0  0
    2.8940  -15.6520   -2.0170 C   0  0  0  0  0  0  0  0  0  0  0  0
    3.0880  -14.1340   -2.1380 C   0  0  1  0  0  0  0  0  0  0  0  0
    3.6130  -13.6430   -3.5350 C   0  0  0  0  0  0  0  0  0  0  0  0
    2.6450  -13.9870   -4.6880 C   0  0  0  0  0  0  0  0  0  0  0  0
    4.9620  -14.3280   -3.8640 C   0  0  0  0  0  0  0  0  0  0  0  0
    3.8530  -12.1010   -3.4510 C   0  0  1  0  0  0  0  0  0  0  0  0
    4.2300  -11.5530   -4.7150 O   0  0  0  0  0  0  0  0  0  0  0  0
    2.6300  -11.3290   -2.9590 C   0  0  0  0  0  0  0  0  0  0  0  0
    2.1460  -11.8480   -1.6110 C   0  0  0  0  0  0  0  0  0  0  0  0
    1.8570  -13.3400   -1.6800 C   0  0  1  0  0  0  0  0  0  0  0  0
    0.4670  -13.7300   -2.1050 C   0  0  0  0  0  0  0  0  0  0  0  0
    0.8760  -13.9920   -0.6600 C   0  0  1  0  0  0  0  0  0  0  0  0
    0.2580  -13.0580    0.4080 C   0  0  0  0  0  0  0  0  0  0  0  0
   -0.6700  -13.6520    1.5010 C   0  0  1  0  0  0  0  0  0  0  0  0
   -1.9240  -12.9720    1.4970 O   0  0  0  0  0  0  0  0  0  0  0  0
   -1.9520  -11.7790    2.1330 C   0  0  0  0  0  0  0  0  0  0  0  0
   -2.4180  -10.7720    1.5200 O   0  0  0  0  0  0  0  0  0  0  0  0
   -1.4900  -11.7980    3.3090 O   0  0  0  0  0  0  0  0  0  0  0  0
   -0.9020  -15.1760    1.3380 C   0  0  1  0  0  0  0  0  0  0  0  0
   -1.8900  -15.4230    0.1550 C   0  0  0  0  0  0  0  0  0  0  0  0
   -1.4390  -15.9240    2.6370 C   0  0  1  0  0  0  0  0  0  0  0  0
   -3.7935  -14.7691    4.2705 H   0  0  0  0  0  0  0  0  0  0  0  0
   -3.2147  -13.9891    2.7595 H   0  0  0  0  0  0  0  0  0  0  0  0
   -4.7537  -14.9154    2.7595 H   0  0  0  0  0  0  0  0  0  0  0  0
   -3.3170  -16.4563    1.8195 H   0  0  0  0  0  0  0  0  0  0  0  0
   -3.2944  -16.7636    4.8561 H   0  0  0  0  0  0  0  0  0  0  0  0
   -4.2674  -17.6549    3.5956 H   0  0  0  0  0  0  0  0  0  0  0  0
   -2.8090  -19.3001    4.1212 H   0  0  0  0  0  0  0  0  0  0  0  0
    0.7757  -18.3926    3.8181 H   0  0  0  0  0  0  0  0  0  0  0  0
    0.5295  -16.7441    4.3694 H   0  0  0  0  0  0  0  0  0  0  0  0
   -1.3876  -17.3834    5.6249 H   0  0  0  0  0  0  0  0  0  0  0  0
   -0.4139  -19.5401    7.8611 H   0  0  0  0  0  0  0  0  0  0  0  0
   -1.2442  -18.0209    7.3822 H   0  0  0  0  0  0  0  0  0  0  0  0
   -2.1448  -19.5752    7.3822 H   0  0  0  0  0  0  0  0  0  0  0  0
    1.1033  -19.8623    6.6990 H   0  0  0  0  0  0  0  0  0  0  0  0
    0.8058  -20.7116    5.1444 H   0  0  0  0  0  0  0  0  0  0  0  0
    1.2913  -18.9822    5.1444 H   0  0  0  0  0  0  0  0  0  0  0  0
   -1.0940  -21.2740    5.5970 H   0  0  0  0  0  0  0  0  0  0  0  0
   -0.3232  -17.7397    0.4841 H   0  0  0  0  0  0  0  0  0  0  0  0
    2.0840  -17.5620    1.6140 H   0  0  0  0  0  0  0  0  0  0  0  0
    1.2193  -15.5220    3.1791 H   0  0  0  0  0  0  0  0  0  0  0  0
    2.5242  -15.9341    2.0154 H   0  0  0  0  0  0  0  0  0  0  0  0
    1.8081  -14.2868    2.0154 H   0  0  0  0  0  0  0  0  0  0  0  0
    0.3738  -16.0609   -0.9835 H   0  0  0  0  0  0  0  0  0  0  0  0
    3.1528  -15.5592    0.1174 H   0  0  0  0  0  0  0  0  0  0  0  0
    2.4504  -17.1069   -0.5061 H   0  0  0  0  0  0  0  0  0  0  0  0
    3.8435  -16.1596   -2.2425 H   0  0  0  0  0  0  0  0  0  0  0  0
    2.1199  -15.9748   -2.7288 H   0  0  0  0  0  0  0  0  0  0  0  0
    3.9048  -13.9155   -1.4344 H   0  0  0  0  0  0  0  0  0  0  0  0
    1.6855  -14.3280   -4.2718 H   0  0  0  0  0  0  0  0  0  0  0  0
    2.4792  -13.0927   -5.3067 H   0  0  0  0  0  0  0  0  0  0  0  0
    3.0807  -14.7853   -5.3067 H   0  0  0  0  0  0  0  0  0  0  0  0
    5.4780  -14.5900   -2.9285 H   0  0  0  0  0  0  0  0  0  0  0  0
    4.7766  -15.2411   -4.4486 H   0  0  0  0  0  0  0  0  0  0  0  0
    5.5899  -13.6395   -4.4486 H   0  0  0  0  0  0  0  0  0  0  0  0
    4.6688  -11.9856   -2.7222 H   0  0  0  0  0  0  0  0  0  0  0  0
    4.2210  -10.5860   -4.6280 H   0  0  0  0  0  0  0  0  0  0  0  0
    2.8951  -10.2662   -2.8583 H   0  0  0  0  0  0  0  0  0  0  0  0
    1.8201  -11.4634   -3.6911 H   0  0  0  0  0  0  0  0  0  0  0  0
    2.9230  -11.6656   -0.8540 H   0  0  0  0  0  0  0  0  0  0  0  0
    1.2188  -11.3208   -1.3419 H   0  0  0  0  0  0  0  0  0  0  0  0
   -0.2738  -12.9481   -2.3281 H   0  0  0  0  0  0  0  0  0  0  0  0
    0.0598  -14.3569   -2.9120 H   0  0  0  0  0  0  0  0  0  0  0  0
    1.0952  -12.5712    0.9297 H   0  0  0  0  0  0  0  0  0  0  0  0
   -0.4129  -12.4095   -0.1745 H   0  0  0  0  0  0  0  0  0  0  0  0
   -0.1592  -13.5053    2.4641 H   0  0  0  0  0  0  0  0  0  0  0  0
   -2.8846  -15.6716    0.5537 H   0  0  0  0  0  0  0  0  0  0  0  0
   -1.9587  -14.5144   -0.4612 H   0  0  0  0  0  0  0  0  0  0  0  0
   -1.5230  -16.2570   -0.4612 H   0  0  0  0  0  0  0  0  0  0  0  0
   -1.2297  -15.2671    3.4941 H   0  0  0  0  0  0  0  0  0  0  0  0
  1  2  1  0
  2  3  1  0
  3  4  1  0
  4  5  1  0
  5  6  1  0
  6  7  1  1
  7  8  1  0
  8  9  1  0
  9 10  1  0
  9 11  1  0
  9 12  1  0
  6 13  1  0
 13 14  1  0
 13 15  1  0
 15 16  1  1
 15 17  1  0
 17 18  1  0
 18 19  1  0
 19 20  1  0
 20 21  1  0
 21 22  1  0
 21 23  1  0
 21 24  1  0
 24 25  1  0
 24 26  1  0
 26 27  1  0
 28 27  1  1
 28 29  1  0
 30 29  1  6
 30 31  1  0
 31 32  1  0
 32 33  1  0
 33 34  1  0
 34 35  2  0
 34 36  1  0
 32 37  1  0
 37 38  1  6
 37 39  1  0
 39  2  1  0
  8  4  1  0
 37 15  1  0
 39  6  1  0
 30 17  1  0
 28 20  1  0
 30 28  1  0
  1 40  1  0
  1 41  1  0
  1 42  1  0
  2 43  1  6
  3 44  1  0
  3 45  1  0
  4 46  1  1
  7 47  1  0
  7 48  1  0
  8 49  1  1
 10 50  1  0
 10 51  1  0
 10 52  1  0
 11 53  1  0
 11 54  1  0
 11 55  1  0
 12 56  1  0
 13 57  1  6
 14 58  1  0
 16 59  1  0
 16 60  1  0
 16 61  1  0
 17 62  1  6
 18 63  1  0
 18 64  1  0
 19 65  1  0
 19 66  1  0
 20 67  1  1
 22 68  1  0
 22 69  1  0
 22 70  1  0
 23 71  1  0
 23 72  1  0
 23 73  1  0
 24 74  1  1
 25 75  1  0
 26 76  1  0
 26 77  1  0
 27 78  1  0
 27 79  1  0
 29 80  1  0
 29 81  1  0
 31 82  1  0
 31 83  1  0
 32 84  1  1
 38 85  1  0
 38 86  1  0
 38 87  1  0
 39 88  1  1
M  CHG  1  36  -1
M  END
>  <meeko>  (4) 
{"is_sidechain": [false], "free_energy": -8.166, "intermolecular_energy": -10.332, "internal_energy": -0.769}

$$$$
LIB_QDQTUGOWMGACMO__M_PUB_ALL__e8__s20260927
     RDKit          3D

 88 94  0  0  0  0  0  0  0  0999 V2000
    3.2760  -11.8610   -0.2040 C   0  0  0  0  0  0  0  0  0  0  0  0
    3.4030  -13.1150   -1.0680 C   0  0  2  0  0  0  0  0  0  0  0  0
    2.1190  -13.9600   -0.9170 C   0  0  0  0  0  0  0  0  0  0  0  0
    2.2960  -15.4140   -1.3720 C   0  0  1  0  0  0  0  0  0  0  0  0
    3.4020  -15.4490   -2.2940 O   0  0  0  0  0  0  0  0  0  0  0  0
    4.5660  -15.3750   -1.4430 C   0  0  1  0  0  0  0  0  0  0  0  0
    4.2360  -16.4700   -0.4200 C   0  0  0  0  0  0  0  0  0  0  0  0
    2.7300  -16.3260   -0.2090 C   0  0  2  0  0  0  0  0  0  0  0  0
    1.9520  -17.6630   -0.1290 C   0  0  0  0  0  0  0  0  0  0  0  0
    0.4900  -17.4780   -0.5600 C   0  0  0  0  0  0  0  0  0  0  0  0
    1.9950  -18.3460    1.2430 C   0  0  0  0  0  0  0  0  0  0  0  0
    2.5520  -18.5800   -1.0580 O   0  0  0  0  0  0  0  0  0  0  0  0
    5.8480  -15.5770   -2.2800 C   0  0  2  0  0  0  0  0  0  0  0  0
    6.1920  -16.9470   -2.4470 O   0  0  0  0  0  0  0  0  0  0  0  0
    6.9160  -14.7330   -1.5540 C   0  0  1  0  0  0  0  0  0  0  0  0
    7.3690  -15.4660   -0.2510 C   0  0  0  0  0  0  0  0  0  0  0  0
    8.1700  -14.4070   -2.4120 C   0  0  2  0  0  0  0  0  0  0  0  0
    9.0870  -15.6150   -2.6600 C   0  0  0  0  0  0  0  0  0  0  0  0
   10.3010  -15.2290   -3.4990 C   0  0  0  0  0  0  0  0  0  0  0  0
   11.2240  -14.3050   -2.6950 C   0  0  1  0  0  0  0  0  0  0  0  0
   12.5520  -13.8920   -3.4270 C   0  0  0  0  0  0  0  0  0  0  0  0
   12.2900  -13.1100   -4.7330 C   0  0  0  0  0  0  0  0  0  0  0  0
   13.3570  -15.1560   -3.8150 C   0  0  0  0  0  0  0  0  0  0  0  0
   13.4130  -13.0460   -2.4350 C   0  0  1  0  0  0  0  0  0  0  0  0
   14.5940  -12.5370   -3.0580 O   0  0  0  0  0  0  0  0  0  0  0  0
   12.6560  -11.8600   -1.8420 C   0  0  0  0  0  0  0  0  0  0  0  0
   11.3700  -12.3030   -1.1570 C   0  0  0  0  0  0  0  0  0  0  0  0
   10.4890  -13.0870   -2.1170 C   0  0  1  0  0  0  0  0  0  0  0  0
    9.5310  -12.2800   -2.9510 C   0  0  0  0  0  0  0  0  0  0  0  0
    8.9540  -13.1830   -1.8670 C   0  0  1  0  0  0  0  0  0  0  0  0
    8.4080  -12.4750   -0.6030 C   0  0  0  0  0  0  0  0  0  0  0  0
    6.9010  -12.5900   -0.2510 C   0  0  1  0  0  0  0  0  0  0  0  0
    6.3330  -11.2890   -0.1130 O   0  0  0  0  0  0  0  0  0  0  0  0
    6.5250  -10.6830    1.0810 C   0  0  0  0  0  0  0  0  0  0  0  0
    7.2250   -9.6270    1.1230 O   0  0  0  0  0  0  0  0  0  0  0  0
    5.9710  -11.2600    2.0600 O   0  0  0  0  0  0  0  0  0  0  0  0
    6.0950  -13.4040   -1.2940 C   0  0  1  0  0  0  0  0  0  0  0  0
    5.8810  -12.5350   -2.5730 C   0  0  0  0  0  0  0  0  0  0  0  0
    4.6870  -13.9500   -0.7880 C   0  0  1  0  0  0  0  0  0  0  0  0
    3.3046  -12.1435    0.8587 H   0  0  0  0  0  0  0  0  0  0  0  0
    4.1096  -11.1779   -0.4244 H   0  0  0  0  0  0  0  0  0  0  0  0
    2.3224  -11.3589   -0.4244 H   0  0  0  0  0  0  0  0  0  0  0  0
    3.5143  -12.7893   -2.1128 H   0  0  0  0  0  0  0  0  0  0  0  0
    1.8221  -13.9587    0.1422 H   0  0  0  0  0  0  0  0  0  0  0  0
    1.3515  -13.5067   -1.5616 H   0  0  0  0  0  0  0  0  0  0  0  0
    1.3386  -15.7538   -1.7938 H   0  0  0  0  0  0  0  0  0  0  0  0
    4.4830  -17.4655   -0.8174 H   0  0  0  0  0  0  0  0  0  0  0  0
    4.8090  -16.3681    0.5134 H   0  0  0  0  0  0  0  0  0  0  0  0
    2.4936  -15.8982    0.7764 H   0  0  0  0  0  0  0  0  0  0  0  0
   -0.1480  -17.3973    0.3325 H   0  0  0  0  0  0  0  0  0  0  0  0
    0.3980  -16.5611   -1.1606 H   0  0  0  0  0  0  0  0  0  0  0  0
    0.1725  -18.3431   -1.1606 H   0  0  0  0  0  0  0  0  0  0  0  0
    1.9470  -17.5831    2.0340 H   0  0  0  0  0  0  0  0  0  0  0  0
    1.1381  -19.0289    1.3397 H   0  0  0  0  0  0  0  0  0  0  0  0
    2.9308  -18.9160    1.3397 H   0  0  0  0  0  0  0  0  0  0  0  0
    3.4720  -18.7320   -0.7780 H   0  0  0  0  0  0  0  0  0  0  0  0
    5.7270  -15.2450   -3.3217 H   0  0  0  0  0  0  0  0  0  0  0  0
    6.9290  -16.9530   -3.0860 H   0  0  0  0  0  0  0  0  0  0  0  0
    7.0206  -14.9022    0.6269 H   0  0  0  0  0  0  0  0  0  0  0  0
    6.9387  -16.4781   -0.2312 H   0  0  0  0  0  0  0  0  0  0  0  0
    8.4667  -15.5338   -0.2312 H   0  0  0  0  0  0  0  0  0  0  0  0
    7.7768  -14.1304   -3.4014 H   0  0  0  0  0  0  0  0  0  0  0  0
    9.4312  -16.0078   -1.6919 H   0  0  0  0  0  0  0  0  0  0  0  0
    8.5147  -16.3772   -3.2092 H   0  0  0  0  0  0  0  0  0  0  0  0
   10.8522  -16.1381   -3.7814 H   0  0  0  0  0  0  0  0  0  0  0  0
    9.9616  -14.7017   -4.4027 H   0  0  0  0  0  0  0  0  0  0  0  0
   11.5484  -14.9298   -1.8498 H   0  0  0  0  0  0  0  0  0  0  0  0
   11.9492  -12.0929   -4.4893 H   0  0  0  0  0  0  0  0  0  0  0  0
   13.2187  -13.0548   -5.3199 H   0  0  0  0  0  0  0  0  0  0  0  0
   11.5155  -13.6254   -5.3199 H   0  0  0  0  0  0  0  0  0  0  0  0
   13.6873  -15.6747   -2.9029 H   0  0  0  0  0  0  0  0  0  0  0  0
   12.7203  -15.8282   -4.4089 H   0  0  0  0  0  0  0  0  0  0  0  0
   14.2354  -14.8633   -4.4089 H   0  0  0  0  0  0  0  0  0  0  0  0
   13.6738  -13.7459   -1.6274 H   0  0  0  0  0  0  0  0  0  0  0  0
   14.6730  -12.9640   -3.9270 H   0  0  0  0  0  0  0  0  0  0  0  0
   13.2993  -11.3585   -1.1040 H   0  0  0  0  0  0  0  0  0  0  0  0
   12.3917  -11.1754   -2.6615 H   0  0  0  0  0  0  0  0  0  0  0  0
   11.6210  -12.9399   -0.2960 H   0  0  0  0  0  0  0  0  0  0  0  0
   10.8214  -11.4092   -0.8252 H   0  0  0  0  0  0  0  0  0  0  0  0
    9.4895  -11.1876   -2.8289 H   0  0  0  0  0  0  0  0  0  0  0  0
    9.3580  -12.1735   -4.0321 H   0  0  0  0  0  0  0  0  0  0  0  0
    8.9680  -12.8758    0.2548 H   0  0  0  0  0  0  0  0  0  0  0  0
    8.5385  -11.4066   -0.8299 H   0  0  0  0  0  0  0  0  0  0  0  0
    6.8386  -13.1365    0.7016 H   0  0  0  0  0  0  0  0  0  0  0  0
    5.6276  -11.5058   -2.2788 H   0  0  0  0  0  0  0  0  0  0  0  0
    6.8044  -12.5287   -3.1707 H   0  0  0  0  0  0  0  0  0  0  0  0
    5.0602  -12.9582   -3.1707 H   0  0  0  0  0  0  0  0  0  0  0  0
    4.7081  -13.9177    0.3113 H   0  0  0  0  0  0  0  0  0  0  0  0
  1  2  1  0
  2  3  1  0
  3  4  1  0
  4  5  1  0
  5  6  1  0
  6  7  1  1
  7  8  1  0
  8  9  1  0
  9 10  1  0
  9 11  1  0
  9 12  1  0
  6 13  1  0
 13 14  1  0
 13 15  1  0
 15 16  1  1
 15 17  1  0
 17 18  1  0
 18 19  1  0
 19 20  1  0
 20 21  1  0
 21 22  1  0
 21 23  1  0
 21 24  1  0
 24 25  1  0
 24 26  1  0
 26 27  1  0
 28 27  1  1
 28 29  1  0
 30 29  1  6
 30 31  1  0
 31 32  1  0
 32 33  1  0
 33 34  1  0
 34 35  2  0
 34 36  1  0
 32 37  1  0
 37 38  1  6
 37 39  1  0
 39  2  1  0
  8  4  1  0
 37 15  1  0
 39  6  1  0
 30 17  1  0
 28 20  1  0
 30 28  1  0
  1 40  1  0
  1 41  1  0
  1 42  1  0
  2 43  1  6
  3 44  1  0
  3 45  1  0
  4 46  1  6
  7 47  1  0
  7 48  1  0
  8 49  1  1
 10 50  1  0
 10 51  1  0
 10 52  1  0
 11 53  1  0
 11 54  1  0
 11 55  1  0
 12 56  1  0
 13 57  1  6
 14 58  1  0
 16 59  1  0
 16 60  1  0
 16 61  1  0
 17 62  1  6
 18 63  1  0
 18 64  1  0
 19 65  1  0
 19 66  1  0
 20 67  1  1
 22 68  1  0
 22 69  1  0
 22 70  1  0
 23 71  1  0
 23 72  1  0
 23 73  1  0
 24 74  1  1
 25 75  1  0
 26 76  1  0
 26 77  1  0
 27 78  1  0
 27 79  1  0
 29 80  1  0
 29 81  1  0
 31 82  1  0
 31 83  1  0
 32 84  1  1
 38 85  1  0
 38 86  1  0
 38 87  1  0
 39 88  1  1
M  CHG  1  36  -1
M  END
>  <meeko>  (5) 
{"is_sidechain": [false], "free_energy": -8.151, "intermolecular_energy": -10.3, "internal_energy": -0.782}

$$$$
LIB_QDQTUGOWMGACMO__M_PUB_ALL__e8__s20260927
     RDKit          3D

 88 94  0  0  0  0  0  0  0  0999 V2000
    4.4950  -11.5920   -3.7900 C   0  0  0  0  0  0  0  0  0  0  0  0
    5.1210  -11.7290   -2.4030 C   0  0  2  0  0  0  0  0  0  0  0  0
    6.6220  -11.3760   -2.4920 C   0  0  0  0  0  0  0  0  0  0  0  0
    7.4350  -11.8850   -1.2950 C   0  0  1  0  0  0  0  0  0  0  0  0
    6.5230  -12.0600   -0.1940 O   0  0  0  0  0  0  0  0  0  0  0  0
    5.8440  -13.2970   -0.5000 C   0  0  1  0  0  0  0  0  0  0  0  0
    7.0410  -14.2060   -0.8070 C   0  0  0  0  0  0  0  0  0  0  0  0
    8.0100  -13.2900   -1.5530 C   0  0  2  0  0  0  0  0  0  0  0  0
    9.4980  -13.4490   -1.1520 C   0  0  0  0  0  0  0  0  0  0  0  0
   10.4020  -12.5770   -2.0340 C   0  0  0  0  0  0  0  0  0  0  0  0
   10.0110  -14.8930   -1.1660 C   0  0  0  0  0  0  0  0  0  0  0  0
    9.6450  -12.9780    0.1970 O   0  0  0  0  0  0  0  0  0  0  0  0
    4.9460  -13.7160    0.6850 C   0  0  2  0  0  0  0  0  0  0  0  0
    5.6420  -14.4690    1.6700 O   0  0  0  0  0  0  0  0  0  0  0  0
    3.7660  -14.4610    0.0260 C   0  0  1  0  0  0  0  0  0  0  0  0
    4.2290  -15.8810   -0.4300 C   0  0  0  0  0  0  0  0  0  0  0  0
    2.5110  -14.6060    0.9320 C   0  0  2  0  0  0  0  0  0  0  0  0
    2.6870  -15.6070    2.0850 C   0  0  0  0  0  0  0  0  0  0  0  0
    1.4210  -15.7090    2.9300 C   0  0  0  0  0  0  0  0  0  0  0  0
    0.2990  -16.3700    2.1190 C   0  0  1  0  0  0  0  0  0  0  0  0
   -1.0420  -16.5980    2.9060 C   0  0  0  0  0  0  0  0  0  0  0  0
   -1.6710  -15.2780    3.4030 C   0  0  0  0  0  0  0  0  0  0  0  0
   -0.7780  -17.4690    4.1590 C   0  0  0  0  0  0  0  0  0  0  0  0
   -2.0290  -17.3690    1.9720 C   0  0  1  0  0  0  0  0  0  0  0  0
   -3.3170  -17.5240    2.5730 O   0  0  0  0  0  0  0  0  0  0  0  0
   -2.2310  -16.6910    0.6190 C   0  0  0  0  0  0  0  0  0  0  0  0
   -0.9060  -16.4740   -0.1010 C   0  0  0  0  0  0  0  0  0  0  0  0
    0.0580  -15.6820    0.7680 C   0  0  1  0  0  0  0  0  0  0  0  0
   -0.0210  -14.1840    0.6530 C   0  0  0  0  0  0  0  0  0  0  0  0
    1.2220  -14.8810    0.1130 C   0  0  1  0  0  0  0  0  0  0  0  0
    1.3460  -14.9660   -1.4280 C   0  0  0  0  0  0  0  0  0  0  0  0
    2.5250  -14.2530   -2.1430 C   0  0  1  0  0  0  0  0  0  0  0  0
    2.0240  -13.3700   -3.1440 O   0  0  0  0  0  0  0  0  0  0  0  0
    1.8070  -13.9170   -4.3620 C   0  0  0  0  0  0  0  0  0  0  0  0
    0.6120  -14.1020   -4.7420 O   0  0  0  0  0  0  0  0  0  0  0  0
    2.8560  -14.1980   -5.0070 O   0  0  0  0  0  0  0  0  0  0  0  0
    3.4430  -13.4730   -1.1680 C   0  0  1  0  0  0  0  0  0  0  0  0
    2.7250  -12.1600   -0.7240 C   0  0  0  0  0  0  0  0  0  0  0  0
    4.8870  -13.1170   -1.7350 C   0  0  1  0  0  0  0  0  0  0  0  0
    3.4251  -11.3578   -3.6879 H   0  0  0  0  0  0  0  0  0  0  0  0
    4.9966  -10.7824   -4.3403 H   0  0  0  0  0  0  0  0  0  0  0  0
    4.6126  -12.5371   -4.3403 H   0  0  0  0  0  0  0  0  0  0  0  0
    4.6098  -11.0183   -1.7370 H   0  0  0  0  0  0  0  0  0  0  0  0
    7.0325  -11.8237   -3.4091 H   0  0  0  0  0  0  0  0  0  0  0  0
    6.6998  -10.2788   -2.4968 H   0  0  0  0  0  0  0  0  0  0  0  0
    8.2450  -11.1650   -1.1068 H   0  0  0  0  0  0  0  0  0  0  0  0
    7.4945  -14.5841    0.1211 H   0  0  0  0  0  0  0  0  0  0  0  0
    6.7617  -15.0961   -1.3899 H   0  0  0  0  0  0  0  0  0  0  0  0
    8.0652  -13.5362   -2.6237 H   0  0  0  0  0  0  0  0  0  0  0  0
   11.0469  -11.9549   -1.3960 H   0  0  0  0  0  0  0  0  0  0  0  0
   11.0270  -13.2220   -2.6691 H   0  0  0  0  0  0  0  0  0  0  0  0
    9.7800  -11.9291   -2.6691 H   0  0  0  0  0  0  0  0  0  0  0  0
   10.1369  -15.2474   -0.1323 H   0  0  0  0  0  0  0  0  0  0  0  0
    9.2858  -15.5347   -1.6879 H   0  0  0  0  0  0  0  0  0  0  0  0
   10.9785  -14.9334   -1.6879 H   0  0  0  0  0  0  0  0  0  0  0  0
    8.9900  -12.2730    0.3420 H   0  0  0  0  0  0  0  0  0  0  0  0
    4.5898  -12.8540    1.2682 H   0  0  0  0  0  0  0  0  0  0  0  0
    4.9510  -14.9360    2.1760 H   0  0  0  0  0  0  0  0  0  0  0  0
    4.4316  -16.5023    0.4548 H   0  0  0  0  0  0  0  0  0  0  0  0
    3.4369  -16.3489   -1.0330 H   0  0  0  0  0  0  0  0  0  0  0  0
    5.1447  -15.7920   -1.0330 H   0  0  0  0  0  0  0  0  0  0  0  0
    2.3894  -13.6243    1.4132 H   0  0  0  0  0  0  0  0  0  0  0  0
    2.9193  -16.5976    1.6669 H   0  0  0  0  0  0  0  0  0  0  0  0
    3.5061  -15.2539    2.7288 H   0  0  0  0  0  0  0  0  0  0  0  0
    1.6284  -16.3141    3.8249 H   0  0  0  0  0  0  0  0  0  0  0  0
    1.1037  -14.6986    3.2274 H   0  0  0  0  0  0  0  0  0  0  0  0
    0.6829  -17.3801    1.9134 H   0  0  0  0  0  0  0  0  0  0  0  0
   -1.6768  -15.2659    4.5029 H   0  0  0  0  0  0  0  0  0  0  0  0
   -1.0813  -14.4276    3.0300 H   0  0  0  0  0  0  0  0  0  0  0  0
   -2.7029  -15.2003    3.0300 H   0  0  0  0  0  0  0  0  0  0  0  0
   -0.9589  -16.8722    5.0651 H   0  0  0  0  0  0  0  0  0  0  0  0
   -1.4533  -18.3373    4.1509 H   0  0  0  0  0  0  0  0  0  0  0  0
    0.2657  -17.8162    4.1509 H   0  0  0  0  0  0  0  0  0  0  0  0
   -1.5545  -18.3491    1.8160 H   0  0  0  0  0  0  0  0  0  0  0  0
   -3.5720  -16.6630    2.9410 H   0  0  0  0  0  0  0  0  0  0  0  0
   -2.8773  -17.3252   -0.0055 H   0  0  0  0  0  0  0  0  0  0  0  0
   -2.6946  -15.7085    0.7915 H   0  0  0  0  0  0  0  0  0  0  0  0
   -0.4594  -17.4513   -0.3365 H   0  0  0  0  0  0  0  0  0  0  0  0
   -1.0955  -15.9068   -1.0242 H   0  0  0  0  0  0  0  0  0  0  0  0
   -0.7373  -13.7284   -0.0466 H   0  0  0  0  0  0  0  0  0  0  0  0
   -0.1914  -13.3681    1.3708 H   0  0  0  0  0  0  0  0  0  0  0  0
    1.4154  -16.0334   -1.6845 H   0  0  0  0  0  0  0  0  0  0  0  0
    0.4603  -14.4218   -1.7877 H   0  0  0  0  0  0  0  0  0  0  0  0
    3.1404  -15.0402   -2.6030 H   0  0  0  0  0  0  0  0  0  0  0  0
    2.6979  -12.1104    0.3745 H   0  0  0  0  0  0  0  0  0  0  0  0
    3.2736  -11.2913   -1.1168 H   0  0  0  0  0  0  0  0  0  0  0  0
    1.6976  -12.1531   -1.1168 H   0  0  0  0  0  0  0  0  0  0  0  0
    5.0658  -13.7821   -2.5927 H   0  0  0  0  0  0  0  0  0  0  0  0
  1  2  1  0
  2  3  1  0
  3  4  1  0
  4  5  1  0
  5  6  1  0
  6  7  1  6
  7  8  1  0
  8  9  1  0
  9 10  1  0
  9 11  1  0
  9 12  1  0
  6 13  1  0
 13 14  1  0
 13 15  1  0
 15 16  1  6
 15 17  1  0
 17 18  1  0
 18 19  1  0
 19 20  1  0
 20 21  1  0
 21 22  1  0
 21 23  1  0
 21 24  1  0
 24 25  1  0
 24 26  1  0
 26 27  1  0
 28 27  1  6
 28 29  1  0
 30 29  1  6
 30 31  1  0
 31 32  1  0
 32 33  1  0
 33 34  1  0
 34 35  2  0
 34 36  1  0
 32 37  1  0
 37 38  1  1
 37 39  1  0
 39  2  1  0
  8  4  1  0
 37 15  1  0
 39  6  1  0
 30 17  1  0
 28 20  1  0
 30 28  1  0
  1 40  1  0
  1 41  1  0
  1 42  1  0
  2 43  1  1
  3 44  1  0
  3 45  1  0
  4 46  1  1
  7 47  1  0
  7 48  1  0
  8 49  1  6
 10 50  1  0
 10 51  1  0
 10 52  1  0
 11 53  1  0
 11 54  1  0
 11 55  1  0
 12 56  1  0
 13 57  1  1
 14 58  1  0
 16 59  1  0
 16 60  1  0
 16 61  1  0
 17 62  1  1
 18 63  1  0
 18 64  1  0
 19 65  1  0
 19 66  1  0
 20 67  1  6
 22 68  1  0
 22 69  1  0
 22 70  1  0
 23 71  1  0
 23 72  1  0
 23 73  1  0
 24 74  1  6
 25 75  1  0
 26 76  1  0
 26 77  1  0
 27 78  1  0
 27 79  1  0
 29 80  1  0
 29 81  1  0
 31 82  1  0
 31 83  1  0
 32 84  1  6
 38 85  1  0
 38 86  1  0
 38 87  1  0
 39 88  1  6
M  CHG  1  36  -1
M  END
>  <meeko>  (6) 
{"is_sidechain": [false], "free_energy": -8.093, "intermolecular_energy": -10.264, "internal_energy": -0.745}

$$$$
LIB_QDQTUGOWMGACMO__M_PUB_ALL__e8__s20260927
     RDKit          3D

 88 94  0  0  0  0  0  0  0  0999 V2000
    7.3860  -11.6970    1.2840 C   0  0  0  0  0  0  0  0  0  0  0  0
    6.6030  -12.5120    0.2560 C   0  0  2  0  0  0  0  0  0  0  0  0
    5.2390  -12.9070    0.8640 C   0  0  0  0  0  0  0  0  0  0  0  0
    4.5590  -14.0650    0.1220 C   0  0  1  0  0  0  0  0  0  0  0  0
    5.0940  -14.0970   -1.2150 O   0  0  0  0  0  0  0  0  0  0  0  0
    6.3900  -14.7120   -1.0550 C   0  0  1  0  0  0  0  0  0  0  0  0
    6.0160  -15.9460   -0.2250 C   0  0  0  0  0  0  0  0  0  0  0  0
    4.9380  -15.4300    0.7260 C   0  0  2  0  0  0  0  0  0  0  0  0
    3.7380  -16.3870    0.9330 C   0  0  0  0  0  0  0  0  0  0  0  0
    2.7770  -15.8430    2.0000 C   0  0  0  0  0  0  0  0  0  0  0  0
    4.1240  -17.8290    1.2830 C   0  0  0  0  0  0  0  0  0  0  0  0
    3.0050  -16.4500   -0.3010 O   0  0  0  0  0  0  0  0  0  0  0  0
    7.0250  -14.9770   -2.4380 C   0  0  2  0  0  0  0  0  0  0  0  0
    6.6280  -16.2200   -3.0030 O   0  0  0  0  0  0  0  0  0  0  0  0
    8.5430  -14.8410   -2.1940 C   0  0  1  0  0  0  0  0  0  0  0  0
    9.0710  -16.1080   -1.4480 C   0  0  0  0  0  0  0  0  0  0  0  0
    9.3840  -14.6280   -3.4830 C   0  0  2  0  0  0  0  0  0  0  0  0
    9.4930  -15.8780   -4.3720 C   0  0  0  0  0  0  0  0  0  0  0  0
   10.3350  -15.6070   -5.6140 C   0  0  0  0  0  0  0  0  0  0  0  0
   11.8010  -15.3850   -5.2170 C   0  0  1  0  0  0  0  0  0  0  0  0
   12.7870  -15.1650   -6.4200 C   0  0  0  0  0  0  0  0  0  0  0  0
   12.4360  -13.9150   -7.2560 C   0  0  0  0  0  0  0  0  0  0  0  0
   12.7280  -16.3780   -7.3820 C   0  0  0  0  0  0  0  0  0  0  0  0
   14.2380  -15.0630   -5.8480 C   0  0  1  0  0  0  0  0  0  0  0  0
   15.1900  -14.7540   -6.8690 O   0  0  0  0  0  0  0  0  0  0  0  0
   14.3790  -14.0100   -4.7510 C   0  0  0  0  0  0  0  0  0  0  0  0
   13.3950  -14.2510   -3.6140 C   0  0  0  0  0  0  0  0  0  0  0  0
   11.9680  -14.3060   -4.1380 C   0  0  1  0  0  0  0  0  0  0  0  0
   11.2400  -12.9920   -4.2230 C   0  0  0  0  0  0  0  0  0  0  0  0
   10.7740  -14.0050   -3.1840 C   0  0  1  0  0  0  0  0  0  0  0  0
   11.1230  -13.6860   -1.7100 C   0  0  0  0  0  0  0  0  0  0  0  0
    9.9810  -13.4470   -0.6860 C   0  0  1  0  0  0  0  0  0  0  0  0
   10.1570  -12.1840   -0.0470 O   0  0  0  0  0  0  0  0  0  0  0  0
   11.2880  -12.0400    0.6790 C   0  0  0  0  0  0  0  0  0  0  0  0
   11.5820  -12.9280    1.5340 O   0  0  0  0  0  0  0  0  0  0  0  0
   11.9500  -10.9950    0.4200 O   0  0  0  0  0  0  0  0  0  0  0  0
    8.5710  -13.5200   -1.3220 C   0  0  1  0  0  0  0  0  0  0  0  0
    8.3070  -12.2180   -2.1420 C   0  0  0  0  0  0  0  0  0  0  0  0
    7.3740  -13.7470   -0.2960 C   0  0  1  0  0  0  0  0  0  0  0  0
    7.0905  -12.0046    2.2979 H   0  0  0  0  0  0  0  0  0  0  0  0
    8.4633  -11.8720    1.1471 H   0  0  0  0  0  0  0  0  0  0  0  0
    7.1680  -10.6275    1.1471 H   0  0  0  0  0  0  0  0  0  0  0  0
    6.4485  -11.8733   -0.6262 H   0  0  0  0  0  0  0  0  0  0  0  0
    5.3964  -13.2069    1.9106 H   0  0  0  0  0  0  0  0  0  0  0  0
    4.5779  -12.0318    0.7799 H   0  0  0  0  0  0  0  0  0  0  0  0
    3.4717  -13.9073    0.1757 H   0  0  0  0  0  0  0  0  0  0  0  0
    5.6212  -16.7463   -0.8682 H   0  0  0  0  0  0  0  0  0  0  0  0
    6.8772  -16.3814    0.3030 H   0  0  0  0  0  0  0  0  0  0  0  0
    5.3074  -15.3486    1.7589 H   0  0  0  0  0  0  0  0  0  0  0  0
    3.1747  -16.0681    3.0006 H   0  0  0  0  0  0  0  0  0  0  0  0
    2.6764  -14.7540    1.8819 H   0  0  0  0  0  0  0  0  0  0  0  0
    1.7915  -16.3172    1.8819 H   0  0  0  0  0  0  0  0  0  0  0  0
    4.1551  -17.9452    2.3764 H   0  0  0  0  0  0  0  0  0  0  0  0
    3.3793  -18.5204    0.8618 H   0  0  0  0  0  0  0  0  0  0  0  0
    5.1145  -18.0559    0.8618 H   0  0  0  0  0  0  0  0  0  0  0  0
    3.2670  -15.6860   -0.8440 H   0  0  0  0  0  0  0  0  0  0  0  0
    6.6839  -14.2621   -3.2012 H   0  0  0  0  0  0  0  0  0  0  0  0
    6.4890  -16.8170   -2.2450 H   0  0  0  0  0  0  0  0  0  0  0  0
    9.0044  -15.9482   -0.3617 H   0  0  0  0  0  0  0  0  0  0  0  0
    8.4611  -16.9794   -1.7285 H   0  0  0  0  0  0  0  0  0  0  0  0
   10.1192  -16.2885   -1.7285 H   0  0  0  0  0  0  0  0  0  0  0  0
    8.8165  -13.8956   -4.0759 H   0  0  0  0  0  0  0  0  0  0  0  0
    9.9597  -16.6888   -3.7934 H   0  0  0  0  0  0  0  0  0  0  0  0
    8.4806  -16.1614   -4.6957 H   0  0  0  0  0  0  0  0  0  0  0  0
   10.2684  -16.4689   -6.2942 H   0  0  0  0  0  0  0  0  0  0  0  0
    9.9567  -14.7046   -6.1165 H   0  0  0  0  0  0  0  0  0  0  0  0
   12.1019  -16.3461   -4.7745 H   0  0  0  0  0  0  0  0  0  0  0  0
   12.2009  -13.0776   -6.5825 H   0  0  0  0  0  0  0  0  0  0  0  0
   13.2933  -13.6457   -7.8905 H   0  0  0  0  0  0  0  0  0  0  0  0
   11.5638  -14.1313   -7.8905 H   0  0  0  0  0  0  0  0  0  0  0  0
   12.6828  -17.3083   -6.7967 H   0  0  0  0  0  0  0  0  0  0  0  0
   11.8326  -16.2998   -8.0161 H   0  0  0  0  0  0  0  0  0  0  0  0
   13.6268  -16.3871   -8.0161 H   0  0  0  0  0  0  0  0  0  0  0  0
   14.4391  -16.0563   -5.4204 H   0  0  0  0  0  0  0  0  0  0  0  0
   15.6370  -15.5810   -7.1110 H   0  0  0  0  0  0  0  0  0  0  0  0
   15.4030  -14.0461   -4.3508 H   0  0  0  0  0  0  0  0  0  0  0  0
   14.1637  -13.0245   -5.1898 H   0  0  0  0  0  0  0  0  0  0  0  0
   13.6365  -15.2059   -3.1242 H   0  0  0  0  0  0  0  0  0  0  0  0
   13.4755  -13.4216   -2.8959 H   0  0  0  0  0  0  0  0  0  0  0  0
   11.7420  -12.0691   -3.8970 H   0  0  0  0  0  0  0  0  0  0  0  0
   10.7417  -12.4430   -5.0356 H   0  0  0  0  0  0  0  0  0  0  0  0
   11.7187  -14.5303   -1.3328 H   0  0  0  0  0  0  0  0  0  0  0  0
   11.6234  -12.7083   -1.7700 H   0  0  0  0  0  0  0  0  0  0  0  0
   10.0422  -14.2596    0.0529 H   0  0  0  0  0  0  0  0  0  0  0  0
    8.1367  -11.3784   -1.4521 H   0  0  0  0  0  0  0  0  0  0  0  0
    9.1794  -12.0007   -2.7758 H   0  0  0  0  0  0  0  0  0  0  0  0
    7.4189  -12.3576   -2.7758 H   0  0  0  0  0  0  0  0  0  0  0  0
    7.8180  -14.1348    0.6327 H   0  0  0  0  0  0  0  0  0  0  0  0
  1  2  1  0
  2  3  1  0
  3  4  1  0
  4  5  1  0
  5  6  1  0
  6  7  1  1
  7  8  1  0
  8  9  1  0
  9 10  1  0
  9 11  1  0
  9 12  1  0
  6 13  1  0
 13 14  1  0
 13 15  1  0
 15 16  1  1
 15 17  1  0
 17 18  1  0
 18 19  1  0
 19 20  1  0
 20 21  1  0
 21 22  1  0
 21 23  1  0
 21 24  1  0
 24 25  1  0
 24 26  1  0
 26 27  1  0
 28 27  1  1
 28 29  1  0
 30 29  1  6
 30 31  1  0
 31 32  1  0
 32 33  1  0
 33 34  1  0
 34 35  2  0
 34 36  1  0
 32 37  1  0
 37 38  1  6
 37 39  1  0
 39  2  1  0
  8  4  1  0
 37 15  1  0
 39  6  1  0
 30 17  1  0
 28 20  1  0
 30 28  1  0
  1 40  1  0
  1 41  1  0
  1 42  1  0
  2 43  1  6
  3 44  1  0
  3 45  1  0
  4 46  1  6
  7 47  1  0
  7 48  1  0
  8 49  1  1
 10 50  1  0
 10 51  1  0
 10 52  1  0
 11 53  1  0
 11 54  1  0
 11 55  1  0
 12 56  1  0
 13 57  1  6
 14 58  1  0
 16 59  1  0
 16 60  1  0
 16 61  1  0
 17 62  1  6
 18 63  1  0
 18 64  1  0
 19 65  1  0
 19 66  1  0
 20 67  1  1
 22 68  1  0
 22 69  1  0
 22 70  1  0
 23 71  1  0
 23 72  1  0
 23 73  1  0
 24 74  1  1
 25 75  1  0
 26 76  1  0
 26 77  1  0
 27 78  1  0
 27 79  1  0
 29 80  1  0
 29 81  1  0
 31 82  1  0
 31 83  1  0
 32 84  1  1
 38 85  1  0
 38 86  1  0
 38 87  1  0
 39 88  1  1
M  CHG  1  36  -1
M  END
>  <meeko>  (7) 
{"is_sidechain": [false], "free_energy": -7.921, "intermolecular_energy": -10.039, "internal_energy": -0.752}

$$$$
LIB_QDQTUGOWMGACMO__M_PUB_ALL__e8__s20260927
     RDKit          3D

 88 94  0  0  0  0  0  0  0  0999 V2000
    8.3740  -13.4210   -0.7880 C   0  0  0  0  0  0  0  0  0  0  0  0
    7.5900  -14.3410   -1.7220 C   0  0  2  0  0  0  0  0  0  0  0  0
    8.4930  -14.7370   -2.9100 C   0  0  0  0  0  0  0  0  0  0  0  0
    7.7080  -15.2840   -4.1100 C   0  0  1  0  0  0  0  0  0  0  0  0
    6.4480  -15.7780   -3.6160 O   0  0  0  0  0  0  0  0  0  0  0  0
    5.6650  -14.5830   -3.4070 C   0  0  1  0  0  0  0  0  0  0  0  0
    5.8680  -13.8750   -4.7530 C   0  0  0  0  0  0  0  0  0  0  0  0
    7.3270  -14.1660   -5.0990 C   0  0  2  0  0  0  0  0  0  0  0  0
    7.5870  -14.5190   -6.5850 C   0  0  0  0  0  0  0  0  0  0  0  0
    6.6120  -13.7730   -7.5070 C   0  0  0  0  0  0  0  0  0  0  0  0
    7.5440  -16.0180   -6.9020 C   0  0  0  0  0  0  0  0  0  0  0  0
    8.9100  -14.0700   -6.9200 O   0  0  0  0  0  0  0  0  0  0  0  0
    4.2140  -14.9600   -3.0370 C   0  0  2  0  0  0  0  0  0  0  0  0
    3.3870  -15.1710   -4.1750 O   0  0  0  0  0  0  0  0  0  0  0  0
    3.7460  -13.8180   -2.1100 C   0  0  1  0  0  0  0  0  0  0  0  0
    3.4480  -12.5410   -2.9600 C   0  0  0  0  0  0  0  0  0  0  0  0
    2.4960  -14.1570   -1.2530 C   0  0  2  0  0  0  0  0  0  0  0  0
    1.1880  -14.2320   -2.0580 C   0  0  0  0  0  0  0  0  0  0  0  0
   -0.0000  -14.5600   -1.1600 C   0  0  0  0  0  0  0  0  0  0  0  0
   -0.2880  -13.3830   -0.2180 C   0  0  1  0  0  0  0  0  0  0  0  0
   -1.5400  -13.5700    0.7130 C   0  0  0  0  0  0  0  0  0  0  0  0
   -1.3980  -14.7800    1.6620 C   0  0  0  0  0  0  0  0  0  0  0  0
   -2.8050  -13.8200   -0.1450 C   0  0  0  0  0  0  0  0  0  0  0  0
   -1.7470  -12.2490    1.5210 C   0  0  1  0  0  0  0  0  0  0  0  0
   -2.8040  -12.3710    2.4750 O   0  0  0  0  0  0  0  0  0  0  0  0
   -0.4960  -11.8010    2.2740 C   0  0  0  0  0  0  0  0  0  0  0  0
    0.6950  -11.6490    1.3370 C   0  0  0  0  0  0  0  0  0  0  0  0
    0.9500  -12.9390    0.5730 C   0  0  1  0  0  0  0  0  0  0  0  0
    1.8570  -13.9380    1.2390 C   0  0  0  0  0  0  0  0  0  0  0  0
    2.3640  -13.2320   -0.0130 C   0  0  1  0  0  0  0  0  0  0  0  0
    3.4460  -12.1470    0.2020 C   0  0  0  0  0  0  0  0  0  0  0  0
    4.8570  -12.3390   -0.4170 C   0  0  1  0  0  0  0  0  0  0  0  0
    5.8520  -12.2380    0.5990 O   0  0  0  0  0  0  0  0  0  0  0  0
    6.2470  -10.9850    0.9190 C   0  0  0  0  0  0  0  0  0  0  0  0
    5.9010  -10.5040    2.0390 O   0  0  0  0  0  0  0  0  0  0  0  0
    6.9380  -10.4080    0.0320 O   0  0  0  0  0  0  0  0  0  0  0  0
    5.0120  -13.6850   -1.1690 C   0  0  1  0  0  0  0  0  0  0  0  0
    5.1490  -14.8430   -0.1300 C   0  0  0  0  0  0  0  0  0  0  0  0
    6.2270  -13.7530   -2.1950 C   0  0  1  0  0  0  0  0  0  0  0  0
    8.1509  -13.6828    0.2568 H   0  0  0  0  0  0  0  0  0  0  0  0
    9.4514  -13.5414   -0.9741 H   0  0  0  0  0  0  0  0  0  0  0  0
    8.0842  -12.3763   -0.9741 H   0  0  0  0  0  0  0  0  0  0  0  0
    7.3130  -15.2383   -1.1492 H   0  0  0  0  0  0  0  0  0  0  0  0
    9.0534  -13.8479   -3.2347 H   0  0  0  0  0  0  0  0  0  0  0  0
    9.1586  -15.5403   -2.5611 H   0  0  0  0  0  0  0  0  0  0  0  0
    8.3335  -16.0416   -4.6048 H   0  0  0  0  0  0  0  0  0  0  0  0
    5.1937  -14.2868   -5.5184 H   0  0  0  0  0  0  0  0  0  0  0  0
    5.6478  -12.7983   -4.7057 H   0  0  0  0  0  0  0  0  0  0  0  0
    7.9595  -13.2723   -4.9929 H   0  0  0  0  0  0  0  0  0  0  0  0
    5.8845  -13.2164   -6.8979 H   0  0  0  0  0  0  0  0  0  0  0  0
    7.1722  -13.0708   -8.1418 H   0  0  0  0  0  0  0  0  0  0  0  0
    6.0807  -14.4974   -8.1418 H   0  0  0  0  0  0  0  0  0  0  0  0
    7.5276  -16.5910   -5.9632 H   0  0  0  0  0  0  0  0  0  0  0  0
    6.6390  -16.2436   -7.4852 H   0  0  0  0  0  0  0  0  0  0  0  0
    8.4346  -16.2951   -7.4852 H   0  0  0  0  0  0  0  0  0  0  0  0
    8.8270  -13.2450   -7.4300 H   0  0  0  0  0  0  0  0  0  0  0  0
    4.1499  -15.9321   -2.5263 H   0  0  0  0  0  0  0  0  0  0  0  0
    3.5080  -16.1090   -4.4140 H   0  0  0  0  0  0  0  0  0  0  0  0
    3.2499  -11.6920   -2.2892 H   0  0  0  0  0  0  0  0  0  0  0  0
    4.3168  -12.3119   -3.5946 H   0  0  0  0  0  0  0  0  0  0  0  0
    2.5675  -12.7201   -3.5946 H   0  0  0  0  0  0  0  0  0  0  0  0
    2.6705  -15.1784   -0.8837 H   0  0  0  0  0  0  0  0  0  0  0  0
    1.0113  -13.2616   -2.5450 H   0  0  0  0  0  0  0  0  0  0  0  0
    1.2875  -15.0320   -2.8064 H   0  0  0  0  0  0  0  0  0  0  0  0
   -0.8855  -14.7524   -1.7835 H   0  0  0  0  0  0  0  0  0  0  0  0
    0.2361  -15.4519   -0.5610 H   0  0  0  0  0  0  0  0  0  0  0  0
   -0.5598  -12.5621   -0.8979 H   0  0  0  0  0  0  0  0  0  0  0  0
   -1.4386  -14.4343    2.7055 H   0  0  0  0  0  0  0  0  0  0  0  0
   -2.2192  -15.4885    1.4782 H   0  0  0  0  0  0  0  0  0  0  0  0
   -0.4351  -15.2791    1.4782 H   0  0  0  0  0  0  0  0  0  0  0  0
   -3.6681  -13.9906    0.5153 H   0  0  0  0  0  0  0  0  0  0  0  0
   -2.9968  -12.9424   -0.7798 H   0  0  0  0  0  0  0  0  0  0  0  0
   -2.6485  -14.7046   -0.7798 H   0  0  0  0  0  0  0  0  0  0  0  0
   -1.9976  -11.4951    0.7602 H   0  0  0  0  0  0  0  0  0  0  0  0
   -2.4480  -12.1130    3.3400 H   0  0  0  0  0  0  0  0  0  0  0  0
   -0.6968  -10.8332    2.7568 H   0  0  0  0  0  0  0  0  0  0  0  0
   -0.2504  -12.5686    3.0227 H   0  0  0  0  0  0  0  0  0  0  0  0
    0.4890  -10.8403    0.6204 H   0  0  0  0  0  0  0  0  0  0  0  0
    1.5866  -11.4122    1.9361 H   0  0  0  0  0  0  0  0  0  0  0  0
    2.3035  -13.7015    2.2161 H   0  0  0  0  0  0  0  0  0  0  0  0
    1.7504  -14.9923    1.5342 H   0  0  0  0  0  0  0  0  0  0  0  0
    3.0430  -11.2084   -0.2061 H   0  0  0  0  0  0  0  0  0  0  0  0
    3.6332  -12.1809    1.2854 H   0  0  0  0  0  0  0  0  0  0  0  0
    4.9885  -11.5387   -1.1602 H   0  0  0  0  0  0  0  0  0  0  0  0
    5.1001  -14.4297    0.8882 H   0  0  0  0  0  0  0  0  0  0  0  0
    4.3298  -15.5630   -0.2732 H   0  0  0  0  0  0  0  0  0  0  0  0
    6.1136  -15.3519   -0.2732 H   0  0  0  0  0  0  0  0  0  0  0  0
    6.5228  -12.7153   -2.4087 H   0  0  0  0  0  0  0  0  0  0  0  0
  1  2  1  0
  2  3  1  0
  3  4  1  0
  4  5  1  0
  5  6  1  0
  6  7  1  6
  7  8  1  0
  8  9  1  0
  9 10  1  0
  9 11  1  0
  9 12  1  0
  6 13  1  0
 13 14  1  0
 13 15  1  0
 15 16  1  6
 15 17  1  0
 17 18  1  0
 18 19  1  0
 19 20  1  0
 20 21  1  0
 21 22  1  0
 21 23  1  0
 21 24  1  0
 24 25  1  0
 24 26  1  0
 26 27  1  0
 28 27  1  1
 28 29  1  0
 30 29  1  1
 30 31  1  0
 31 32  1  0
 32 33  1  0
 33 34  1  0
 34 35  2  0
 34 36  1  0
 32 37  1  0
 37 38  1  1
 37 39  1  0
 39  2  1  0
  8  4  1  0
 37 15  1  0
 39  6  1  0
 30 17  1  0
 28 20  1  0
 30 28  1  0
  1 40  1  0
  1 41  1  0
  1 42  1  0
  2 43  1  1
  3 44  1  0
  3 45  1  0
  4 46  1  6
  7 47  1  0
  7 48  1  0
  8 49  1  1
 10 50  1  0
 10 51  1  0
 10 52  1  0
 11 53  1  0
 11 54  1  0
 11 55  1  0
 12 56  1  0
 13 57  1  1
 14 58  1  0
 16 59  1  0
 16 60  1  0
 16 61  1  0
 17 62  1  1
 18 63  1  0
 18 64  1  0
 19 65  1  0
 19 66  1  0
 20 67  1  6
 22 68  1  0
 22 69  1  0
 22 70  1  0
 23 71  1  0
 23 72  1  0
 23 73  1  0
 24 74  1  6
 25 75  1  0
 26 76  1  0
 26 77  1  0
 27 78  1  0
 27 79  1  0
 29 80  1  0
 29 81  1  0
 31 82  1  0
 31 83  1  0
 32 84  1  6
 38 85  1  0
 38 86  1  0
 38 87  1  0
 39 88  1  6
M  CHG  1  36  -1
M  END
>  <meeko>  (8) 
{"is_sidechain": [false], "free_energy": -7.695, "intermolecular_energy": -9.811, "internal_energy": -0.695}

$$$$
LIB_QDQTUGOWMGACMO__M_PUB_ALL__e8__s20260927
     RDKit          3D

 88 94  0  0  0  0  0  0  0  0999 V2000
   11.8540  -14.8520   -6.0690 C   0  0  0  0  0  0  0  0  0  0  0  0
   10.4780  -15.4010   -6.4410 C   0  0  2  0  0  0  0  0  0  0  0  0
   10.4240  -15.6280   -7.9670 C   0  0  0  0  0  0  0  0  0  0  0  0
    8.9940  -15.7550   -8.5100 C   0  0  1  0  0  0  0  0  0  0  0  0
    8.1510  -16.1660   -7.4170 O   0  0  0  0  0  0  0  0  0  0  0  0
    7.9560  -14.9560   -6.6550 C   0  0  1  0  0  0  0  0  0  0  0  0
    7.5450  -13.9850   -7.7690 C   0  0  0  0  0  0  0  0  0  0  0  0
    8.4280  -14.3910   -8.9470 C   0  0  2  0  0  0  0  0  0  0  0  0
    7.7120  -14.4140  -10.3210 C   0  0  0  0  0  0  0  0  0  0  0  0
    8.5370  -13.6750  -11.3850 C   0  0  0  0  0  0  0  0  0  0  0  0
    6.2840  -13.8570  -10.3060 C   0  0  0  0  0  0  0  0  0  0  0  0
    7.6110  -15.7830  -10.7440 O   0  0  0  0  0  0  0  0  0  0  0  0
    6.9220  -15.1970   -5.5340 C   0  0  2  0  0  0  0  0  0  0  0  0
    5.5800  -15.0100   -5.9660 O   0  0  0  0  0  0  0  0  0  0  0  0
    7.3640  -14.2530   -4.3950 C   0  0  1  0  0  0  0  0  0  0  0  0
    6.9810  -12.7820   -4.7540 C   0  0  0  0  0  0  0  0  0  0  0  0
    6.7700  -14.6040   -3.0030 C   0  0  2  0  0  0  0  0  0  0  0  0
    5.2700  -14.2960   -2.8690 C   0  0  0  0  0  0  0  0  0  0  0  0
    4.7510  -14.6540   -1.4800 C   0  0  0  0  0  0  0  0  0  0  0  0
    5.3520  -13.7070   -0.4330 C   0  0  1  0  0  0  0  0  0  0  0  0
    4.8370  -13.9280    1.0350 C   0  0  0  0  0  0  0  0  0  0  0  0
    5.1700  -15.3360    1.5740 C   0  0  0  0  0  0  0  0  0  0  0  0
    3.2960  -13.7820    1.0830 C   0  0  0  0  0  0  0  0  0  0  0  0
    5.4640  -12.8220    1.9430 C   0  0  1  0  0  0  0  0  0  0  0  0
    5.1320  -13.0140    3.3200 O   0  0  0  0  0  0  0  0  0  0  0  0
    6.9860  -12.7500    1.8400 C   0  0  0  0  0  0  0  0  0  0  0  0
    7.4410  -12.5520    0.4000 C   0  0  0  0  0  0  0  0  0  0  0  0
    6.8840  -13.6460   -0.4980 C   0  0  1  0  0  0  0  0  0  0  0  0
    7.7150  -14.8950   -0.6180 C   0  0  0  0  0  0  0  0  0  0  0  0
    7.5960  -13.9910   -1.8400 C   0  0  1  0  0  0  0  0  0  0  0  0
    8.8480  -13.1560   -2.2000 C   0  0  0  0  0  0  0  0  0  0  0  0
    9.5650  -13.3950   -3.5560 C   0  0  1  0  0  0  0  0  0  0  0  0
   10.9440  -13.6830   -3.3320 O   0  0  0  0  0  0  0  0  0  0  0  0
   11.6810  -12.6780   -2.8050 C   0  0  0  0  0  0  0  0  0  0  0  0
   11.7460  -11.5780   -3.4300 O   0  0  0  0  0  0  0  0  0  0  0  0
   12.2480  -12.9590   -1.7120 O   0  0  0  0  0  0  0  0  0  0  0  0
    8.9220  -14.5320   -4.3900 C   0  0  1  0  0  0  0  0  0  0  0  0
    9.3140  -15.9110   -3.7710 C   0  0  0  0  0  0  0  0  0  0  0  0
    9.2890  -14.5270   -5.9390 C   0  0  1  0  0  0  0  0  0  0  0  0
   11.9497  -14.8138   -4.9738 H   0  0  0  0  0  0  0  0  0  0  0  0
   12.6344  -15.5076   -6.4826 H   0  0  0  0  0  0  0  0  0  0  0  0
   11.9688  -13.8392   -6.4826 H   0  0  0  0  0  0  0  0  0  0  0  0
   10.3502  -16.3595   -5.9167 H   0  0  0  0  0  0  0  0  0  0  0  0
   10.9124  -14.7771   -8.4644 H   0  0  0  0  0  0  0  0  0  0  0  0
   10.9375  -16.5785   -8.1741 H   0  0  0  0  0  0  0  0  0  0  0  0
    9.0157  -16.4544   -9.3588 H   0  0  0  0  0  0  0  0  0  0  0  0
    6.4801  -14.1022   -8.0183 H   0  0  0  0  0  0  0  0  0  0  0  0
    7.6730  -12.9303   -7.4839 H   0  0  0  0  0  0  0  0  0  0  0  0
    9.2152  -13.6484   -9.1440 H   0  0  0  0  0  0  0  0  0  0  0  0
    9.2691  -13.0192  -10.8911 H   0  0  0  0  0  0  0  0  0  0  0  0
    9.0656  -14.4073  -12.0130 H   0  0  0  0  0  0  0  0  0  0  0  0
    7.8671  -13.0693  -12.0130 H   0  0  0  0  0  0  0  0  0  0  0  0
    5.9519  -13.7275   -9.2654 H   0  0  0  0  0  0  0  0  0  0  0  0
    6.2641  -12.8852  -10.8209 H   0  0  0  0  0  0  0  0  0  0  0  0
    5.6113  -14.5587  -10.8209 H   0  0  0  0  0  0  0  0  0  0  0  0
    7.8570  -16.3490   -9.9910 H   0  0  0  0  0  0  0  0  0  0  0  0
    6.9076  -16.2431   -5.1941 H   0  0  0  0  0  0  0  0  0  0  0  0
    5.5640  -15.3000   -6.8970 H   0  0  0  0  0  0  0  0  0  0  0  0
    6.8310  -12.2060   -3.8290 H   0  0  0  0  0  0  0  0  0  0  0  0
    7.7903  -12.3257   -5.3429 H   0  0  0  0  0  0  0  0  0  0  0  0
    6.0520  -12.7783   -5.3429 H   0  0  0  0  0  0  0  0  0  0  0  0
    6.8519  -15.6981   -2.9234 H   0  0  0  0  0  0  0  0  0  0  0  0
    5.1077  -13.2226   -3.0462 H   0  0  0  0  0  0  0  0  0  0  0  0
    4.7247  -14.9002   -3.6090 H   0  0  0  0  0  0  0  0  0  0  0  0
    3.6549  -14.5630   -1.4664 H   0  0  0  0  0  0  0  0  0  0  0  0
    5.0435  -15.6872   -1.2413 H   0  0  0  0  0  0  0  0  0  0  0  0
    4.9678  -12.7175   -0.7217 H   0  0  0  0  0  0  0  0  0  0  0  0
    5.1658  -15.3180    2.6738 H   0  0  0  0  0  0  0  0  0  0  0  0
    4.4167  -16.0533    1.2161 H   0  0  0  0  0  0  0  0  0  0  0  0
    6.1648  -15.6398    1.2161 H   0  0  0  0  0  0  0  0  0  0  0  0
    2.9631  -13.7505    2.1310 H   0  0  0  0  0  0  0  0  0  0  0  0
    2.9999  -12.8518    0.5761 H   0  0  0  0  0  0  0  0  0  0  0  0
    2.8304  -14.6401    0.5761 H   0  0  0  0  0  0  0  0  0  0  0  0
    5.0342  -11.8805    1.5704 H   0  0  0  0  0  0  0  0  0  0  0  0
    4.2160  -12.7180    3.4430 H   0  0  0  0  0  0  0  0  0  0  0  0
    7.3455  -11.9063    2.4473 H   0  0  0  0  0  0  0  0  0  0  0  0
    7.4012  -13.7011    2.2047 H   0  0  0  0  0  0  0  0  0  0  0  0
    7.0858  -11.5749    0.0407 H   0  0  0  0  0  0  0  0  0  0  0  0
    8.5397  -12.5954    0.3684 H   0  0  0  0  0  0  0  0  0  0  0  0
    8.6738  -14.9648   -0.0834 H   0  0  0  0  0  0  0  0  0  0  0  0
    7.5254  -15.9626   -0.4329 H   0  0  0  0  0  0  0  0  0  0  0  0
    8.5433  -12.0992   -2.1816 H   0  0  0  0  0  0  0  0  0  0  0  0
    9.5925  -13.4746   -1.4556 H   0  0  0  0  0  0  0  0  0  0  0  0
    9.4584  -12.4687   -4.1395 H   0  0  0  0  0  0  0  0  0  0  0  0
    9.2936  -15.8394   -2.6735 H   0  0  0  0  0  0  0  0  0  0  0  0
    8.5983  -16.6781   -4.1017 H   0  0  0  0  0  0  0  0  0  0  0  0
   10.3262  -16.1869   -4.1017 H   0  0  0  0  0  0  0  0  0  0  0  0
    9.6679  -13.5215   -6.1743 H   0  0  0  0  0  0  0  0  0  0  0  0
  1  2  1  0
  2  3  1  0
  3  4  1  0
  4  5  1  0
  5  6  1  0
  6  7  1  6
  7  8  1  0
  8  9  1  0
  9 10  1  0
  9 11  1  0
  9 12  1  0
  6 13  1  0
 13 14  1  0
 13 15  1  0
 15 16  1  6
 15 17  1  0
 17 18  1  0
 18 19  1  0
 19 20  1  0
 20 21  1  0
 21 22  1  0
 21 23  1  0
 21 24  1  0
 24 25  1  0
 24 26  1  0
 26 27  1  0
 28 27  1  1
 28 29  1  0
 30 29  1  1
 30 31  1  0
 31 32  1  0
 32 33  1  0
 33 34  1  0
 34 35  2  0
 34 36  1  0
 32 37  1  0
 37 38  1  1
 37 39  1  0
 39  2  1  0
  8  4  1  0
 37 15  1  0
 39  6  1  0
 30 17  1  0
 28 20  1  0
 30 28  1  0
  1 40  1  0
  1 41  1  0
  1 42  1  0
  2 43  1  1
  3 44  1  0
  3 45  1  0
  4 46  1  6
  7 47  1  0
  7 48  1  0
  8 49  1  6
 10 50  1  0
 10 51  1  0
 10 52  1  0
 11 53  1  0
 11 54  1  0
 11 55  1  0
 12 56  1  0
 13 57  1  1
 14 58  1  0
 16 59  1  0
 16 60  1  0
 16 61  1  0
 17 62  1  1
 18 63  1  0
 18 64  1  0
 19 65  1  0
 19 66  1  0
 20 67  1  6
 22 68  1  0
 22 69  1  0
 22 70  1  0
 23 71  1  0
 23 72  1  0
 23 73  1  0
 24 74  1  6
 25 75  1  0
 26 76  1  0
 26 77  1  0
 27 78  1  0
 27 79  1  0
 29 80  1  0
 29 81  1  0
 31 82  1  0
 31 83  1  0
 32 84  1  6
 38 85  1  0
 38 86  1  0
 38 87  1  0
 39 88  1  6
M  CHG  1  36  -1
M  END
>  <meeko>  (9) 
{"is_sidechain": [false], "free_energy": -7.677, "intermolecular_energy": -9.771, "internal_energy": -0.712}

$$$$
