LIB_ONKDPBFYYUGYFL__M_PUB_ALL__e8__s20260927
     RDKit          3D

101106  0  0  0  0  0  0  0  0999 V2000
    4.9140  -12.0730   -5.1340 C   0  0  0  0  0  0  0  0  0  0  0  0
    4.0380  -12.7830   -4.3940 C   0  0  0  0  0  0  0  0  0  0  0  0
    4.4370  -13.8370   -3.3400 C   0  0  1  0  0  0  0  0  0  0  0  0
    5.9020  -13.7250   -2.8560 C   0  0  0  0  0  0  0  0  0  0  0  0
    6.8480  -14.4270   -3.5120 C   0  0  0  0  0  0  0  0  0  0  0  0
    8.3150  -14.4290   -3.2130 C   0  0  0  0  0  0  0  0  0  0  0  0
    8.7510  -13.3570   -2.1920 C   0  0  2  0  0  0  0  0  0  0  0  0
   10.2990  -13.4060   -1.8030 C   0  0  1  0  0  0  0  0  0  0  0  0
   10.7320  -14.7840   -1.2400 C   0  0  0  0  0  0  0  0  0  0  0  0
   11.1380  -13.1470   -3.0910 C   0  0  0  0  0  0  0  0  0  0  0  0
   12.6160  -12.8720   -2.8280 C   0  0  1  0  0  0  0  0  0  0  0  0
   13.2420  -12.5350   -4.0740 O   0  0  0  0  0  0  0  0  0  0  0  0
   12.8270  -11.7100   -1.8480 C   0  0  2  0  0  0  0  0  0  0  0  0
   14.2450  -11.5680   -1.6700 O   0  0  0  0  0  0  0  0  0  0  0  0
   12.0790  -11.8870   -0.4950 C   0  0  0  0  0  0  0  0  0  0  0  0
   12.7780  -12.9230    0.4060 C   0  0  0  0  0  0  0  0  0  0  0  0
   12.1630  -10.5340    0.2660 C   0  0  0  0  0  0  0  0  0  0  0  0
   10.5690  -12.2200   -0.8030 C   0  0  2  0  0  0  0  0  0  0  0  0
    9.6610  -12.3450    0.4380 C   0  0  0  0  0  0  0  0  0  0  0  0
    8.1900  -12.2210    0.0350 C   0  0  0  0  0  0  0  0  0  0  0  0
    7.7080  -13.2630   -1.0110 C   0  0  2  0  0  0  0  0  0  0  0  0
    7.5880  -14.6330   -0.2760 C   0  0  0  0  0  0  0  0  0  0  0  0
    6.2490  -12.8440   -1.6360 C   0  0  1  0  0  0  0  0  0  0  0  0
    6.2370  -11.3610   -2.1110 C   0  0  0  0  0  0  0  0  0  0  0  0
    5.1440  -12.9680   -0.5490 C   0  0  0  0  0  0  0  0  0  0  0  0
    3.7150  -12.8980   -1.0870 C   0  0  0  0  0  0  0  0  0  0  0  0
    3.4330  -13.9850   -2.1520 C   0  0  2  0  0  0  0  0  0  0  0  0
    3.5890  -15.4050   -1.5620 C   0  0  0  0  0  0  0  0  0  0  0  0
    4.0010  -16.3770   -2.1830 O   0  0  0  0  0  0  0  0  0  0  0  0
    3.1290  -15.4580   -0.2840 O   0  0  0  0  0  0  0  0  0  0  0  0
    2.0830  -16.4110   -0.0500 C   0  0  2  0  0  0  0  0  0  0  0  0
    0.8210  -15.7430   -0.1550 O   0  0  0  0  0  0  0  0  0  0  0  0
   -0.2870  -16.6200    0.0650 C   0  0  2  0  0  0  0  0  0  0  0  0
   -1.5750  -15.8190   -0.1730 C   0  0  0  0  0  0  0  0  0  0  0  0
   -2.6350  -16.6710   -0.6000 O   0  0  0  0  0  0  0  0  0  0  0  0
   -0.2420  -17.2030    1.4890 C   0  0  1  0  0  0  0  0  0  0  0  0
   -1.2700  -18.1740    1.7240 O   0  0  0  0  0  0  0  0  0  0  0  0
    1.1030  -17.8950    1.7160 C   0  0  2  0  0  0  0  0  0  0  0  0
    1.2170  -18.3120    3.0870 O   0  0  0  0  0  0  0  0  0  0  0  0
    2.2720  -16.9740    1.3710 C   0  0  1  0  0  0  0  0  0  0  0  0
    3.4940  -17.7180    1.4900 O   0  0  0  0  0  0  0  0  0  0  0  0
    1.9410  -13.8880   -2.5860 C   0  0  0  0  0  0  0  0  0  0  0  0
    1.7470  -13.8030   -4.0950 C   0  0  0  0  0  0  0  0  0  0  0  0
    2.5560  -12.6580   -4.7140 C   0  0  1  0  0  0  0  0  0  0  0  0
    1.9990  -11.2870   -4.3060 C   0  0  0  0  0  0  0  0  0  0  0  0
    4.5471  -11.3386   -5.8661 H   0  0  0  0  0  0  0  0  0  0  0  0
    5.9954  -12.2284   -5.0054 H   0  0  0  0  0  0  0  0  0  0  0  0
    4.3714  -14.7825   -3.8983 H   0  0  0  0  0  0  0  0  0  0  0  0
    6.5096  -15.0586   -4.3466 H   0  0  0  0  0  0  0  0  0  0  0  0
    8.5847  -15.4174   -2.8126 H   0  0  0  0  0  0  0  0  0  0  0  0
    8.8315  -14.1976   -4.1562 H   0  0  0  0  0  0  0  0  0  0  0  0
    8.7124  -12.3722   -2.6805 H   0  0  0  0  0  0  0  0  0  0  0  0
   10.7215  -14.7506   -0.1406 H   0  0  0  0  0  0  0  0  0  0  0  0
   10.0340  -15.5588   -1.5900 H   0  0  0  0  0  0  0  0  0  0  0  0
   11.7477  -15.0203   -1.5900 H   0  0  0  0  0  0  0  0  0  0  0  0
   11.0614  -14.0339   -3.7371 H   0  0  0  0  0  0  0  0  0  0  0  0
   10.7260  -12.2417   -3.5608 H   0  0  0  0  0  0  0  0  0  0  0  0
   13.0552  -13.7757   -2.3802 H   0  0  0  0  0  0  0  0  0  0  0  0
   13.0760  -11.5770   -4.1810 H   0  0  0  0  0  0  0  0  0  0  0  0
   12.3887  -10.7933   -2.2693 H   0  0  0  0  0  0  0  0  0  0  0  0
   14.6050  -11.1680   -2.4810 H   0  0  0  0  0  0  0  0  0  0  0  0
   12.6051  -12.6668    1.4617 H   0  0  0  0  0  0  0  0  0  0  0  0
   12.3694  -13.9233    0.1998 H   0  0  0  0  0  0  0  0  0  0  0  0
   13.8585  -12.9186    0.1998 H   0  0  0  0  0  0  0  0  0  0  0  0
   12.1514  -10.7216    1.3498 H   0  0  0  0  0  0  0  0  0  0  0  0
   13.0950  -10.0172   -0.0067 H   0  0  0  0  0  0  0  0  0  0  0  0
   11.3021   -9.9059   -0.0067 H   0  0  0  0  0  0  0  0  0  0  0  0
   10.2784  -11.3044   -1.3390 H   0  0  0  0  0  0  0  0  0  0  0  0
    9.8262  -13.3241    0.9113 H   0  0  0  0  0  0  0  0  0  0  0  0
    9.9075  -11.5385    1.1442 H   0  0  0  0  0  0  0  0  0  0  0  0
    7.5767  -12.3373    0.9407 H   0  0  0  0  0  0  0  0  0  0  0  0
    8.0826  -11.2348   -0.4402 H   0  0  0  0  0  0  0  0  0  0  0  0
    7.6024  -14.4682    0.8115 H   0  0  0  0  0  0  0  0  0  0  0  0
    6.6437  -15.1203   -0.5605 H   0  0  0  0  0  0  0  0  0  0  0  0
    8.4332  -15.2770   -0.5605 H   0  0  0  0  0  0  0  0  0  0  0  0
    6.2316  -10.6955   -1.2352 H   0  0  0  0  0  0  0  0  0  0  0  0
    7.1336  -11.1627   -2.7167 H   0  0  0  0  0  0  0  0  0  0  0  0
    5.3373  -11.1772   -2.7167 H   0  0  0  0  0  0  0  0  0  0  0  0
    5.2717  -13.9336   -0.0378 H   0  0  0  0  0  0  0  0  0  0  0  0
    5.2679  -12.1059    0.1229 H   0  0  0  0  0  0  0  0  0  0  0  0
    3.0149  -13.0337   -0.2495 H   0  0  0  0  0  0  0  0  0  0  0  0
    3.5841  -11.9164   -1.5660 H   0  0  0  0  0  0  0  0  0  0  0  0
    2.1145  -17.2297   -0.7839 H   0  0  0  0  0  0  0  0  0  0  0  0
   -0.2477  -17.4722   -0.6294 H   0  0  0  0  0  0  0  0  0  0  0  0
   -1.8679  -15.3222    0.7637 H   0  0  0  0  0  0  0  0  0  0  0  0
   -1.3845  -15.0751   -0.9606 H   0  0  0  0  0  0  0  0  0  0  0  0
   -2.2470  -17.2890   -1.2480 H   0  0  0  0  0  0  0  0  0  0  0  0
   -0.3915  -16.3585    2.1779 H   0  0  0  0  0  0  0  0  0  0  0  0
   -0.8310  -18.9430    2.1510 H   0  0  0  0  0  0  0  0  0  0  0  0
    1.1429  -18.7714    1.0524 H   0  0  0  0  0  0  0  0  0  0  0  0
    1.5000  -19.2480    3.0380 H   0  0  0  0  0  0  0  0  0  0  0  0
    2.3135  -16.1209    2.0642 H   0  0  0  0  0  0  0  0  0  0  0  0
    3.2130  -18.6490    1.5980 H   0  0  0  0  0  0  0  0  0  0  0  0
    1.4133  -14.7801   -2.2176 H   0  0  0  0  0  0  0  0  0  0  0  0
    1.5410  -12.9573   -2.1572 H   0  0  0  0  0  0  0  0  0  0  0  0
    2.0698  -14.7517   -4.5486 H   0  0  0  0  0  0  0  0  0  0  0  0
    0.6817  -13.6109   -4.2904 H   0  0  0  0  0  0  0  0  0  0  0  0
    2.4525  -12.7372   -5.8062 H   0  0  0  0  0  0  0  0  0  0  0  0
    1.9697  -11.2149   -3.2088 H   0  0  0  0  0  0  0  0  0  0  0  0
    2.6462  -10.4938   -4.7084 H   0  0  0  0  0  0  0  0  0  0  0  0
    0.9820  -11.1699   -4.7084 H   0  0  0  0  0  0  0  0  0  0  0  0
  1  2  2  0
  2  3  1  0
  3  4  1  0
  4  5  2  0
  5  6  1  0
  6  7  1  0
  7  8  1  0
  8  9  1  1
  8 10  1  0
 10 11  1  0
 11 12  1  0
 11 13  1  0
 13 14  1  0
 13 15  1  0
 15 16  1  0
 15 17  1  0
 15 18  1  0
 18 19  1  0
 19 20  1  0
 20 21  1  0
 21 22  1  1
 21 23  1  0
 23 24  1  6
 23 25  1  0
 25 26  1  0
 26 27  1  0
 27 28  1  1
 28 29  2  0
 28 30  1  0
 30 31  1  0
 31 32  1  0
 32 33  1  0
 33 34  1  0
 34 35  1  0
 33 36  1  0
 36 37  1  0
 36 38  1  0
 38 39  1  0
 38 40  1  0
 40 41  1  0
 27 42  1  0
 42 43  1  0
 43 44  1  0
 44 45  1  0
 44  2  1  0
 27  3  1  0
 40 31  1  0
 23  4  1  0
 21  7  1  0
 18  8  1  0
  1 46  1  0
  1 47  1  0
  3 48  1  6
  5 49  1  0
  6 50  1  0
  6 51  1  0
  7 52  1  6
  9 53  1  0
  9 54  1  0
  9 55  1  0
 10 56  1  0
 10 57  1  0
 11 58  1  1
 12 59  1  0
 13 60  1  6
 14 61  1  0
 16 62  1  0
 16 63  1  0
 16 64  1  0
 17 65  1  0
 17 66  1  0
 17 67  1  0
 18 68  1  6
 19 69  1  0
 19 70  1  0
 20 71  1  0
 20 72  1  0
 22 73  1  0
 22 74  1  0
 22 75  1  0
 24 76  1  0
 24 77  1  0
 24 78  1  0
 25 79  1  0
 25 80  1  0
 26 81  1  0
 26 82  1  0
 31 83  1  6
 33 84  1  6
 34 85  1  0
 34 86  1  0
 35 87  1  0
 36 88  1  1
 37 89  1  0
 38 90  1  6
 39 91  1  0
 40 92  1  1
 41 93  1  0
 42 94  1  0
 42 95  1  0
 43 96  1  0
 43 97  1  0
 44 98  1  6
 45 99  1  0
 45100  1  0
 45101  1  0
M  END
>  <meeko>  (1) 
{"is_sidechain": [false], "free_energy": -9.382, "intermolecular_energy": -13.221, "internal_energy": -0.926}

$$$$
LIB_ONKDPBFYYUGYFL__M_PUB_ALL__e8__s20260927
     RDKit          3D

101106  0  0  0  0  0  0  0  0999 V2000
    3.5450  -11.4890   -4.5360 C   0  0  0  0  0  0  0  0  0  0  0  0
    4.5630  -12.3520   -4.3450 C   0  0  0  0  0  0  0  0  0  0  0  0
    4.8170  -13.1300   -3.0360 C   0  0  1  0  0  0  0  0  0  0  0  0
    3.5900  -13.2060   -2.0980 C   0  0  0  0  0  0  0  0  0  0  0  0
    3.4340  -12.2410   -1.1690 C   0  0  0  0  0  0  0  0  0  0  0  0
    2.3040  -12.1270   -0.1930 C   0  0  0  0  0  0  0  0  0  0  0  0
    1.1420  -13.1070   -0.4580 C   0  0  2  0  0  0  0  0  0  0  0  0
   -0.0290  -13.0510    0.6270 C   0  0  1  0  0  0  0  0  0  0  0  0
    0.4760  -13.3130    2.0690 C   0  0  0  0  0  0  0  0  0  0  0  0
   -0.6510  -11.6220    0.6060 C   0  0  0  0  0  0  0  0  0  0  0  0
   -1.9650  -11.5020    1.3730 C   0  0  1  0  0  0  0  0  0  0  0  0
   -2.4850  -10.1800    1.1750 O   0  0  0  0  0  0  0  0  0  0  0  0
   -3.0140  -12.5140    0.8930 C   0  0  2  0  0  0  0  0  0  0  0  0
   -4.1850  -12.3150    1.6990 O   0  0  0  0  0  0  0  0  0  0  0  0
   -2.5220  -13.9910    0.9250 C   0  0  0  0  0  0  0  0  0  0  0  0
   -2.4830  -14.5420    2.3630 C   0  0  0  0  0  0  0  0  0  0  0  0
   -3.5720  -14.8500    0.1670 C   0  0  0  0  0  0  0  0  0  0  0  0
   -1.1400  -14.0690    0.1710 C   0  0  2  0  0  0  0  0  0  0  0  0
   -0.5480  -15.4880    0.0370 C   0  0  0  0  0  0  0  0  0  0  0  0
    0.5180  -15.5180   -1.0610 C   0  0  0  0  0  0  0  0  0  0  0  0
    1.6990  -14.5290   -0.8530 C   0  0  2  0  0  0  0  0  0  0  0  0
    2.5880  -15.1070    0.2910 C   0  0  0  0  0  0  0  0  0  0  0  0
    2.5920  -14.3780   -2.2220 C   0  0  1  0  0  0  0  0  0  0  0  0
    1.6920  -14.0980   -3.4620 C   0  0  0  0  0  0  0  0  0  0  0  0
    3.3500  -15.7040   -2.5170 C   0  0  0  0  0  0  0  0  0  0  0  0
    4.4390  -15.5860   -3.5850 C   0  0  0  0  0  0  0  0  0  0  0  0
    5.5020  -14.5210   -3.2260 C   0  0  2  0  0  0  0  0  0  0  0  0
    6.2380  -14.8780   -1.9150 C   0  0  0  0  0  0  0  0  0  0  0  0
    5.8160  -15.6550   -1.0670 O   0  0  0  0  0  0  0  0  0  0  0  0
    7.3800  -14.1510   -1.7800 O   0  0  0  0  0  0  0  0  0  0  0  0
    7.4160  -13.2740   -0.6470 C   0  0  2  0  0  0  0  0  0  0  0  0
    6.2820  -13.5510    0.1840 O   0  0  0  0  0  0  0  0  0  0  0  0
    6.2330  -12.7170    1.3450 C   0  0  2  0  0  0  0  0  0  0  0  0
    5.0430  -13.1730    2.2010 C   0  0  0  0  0  0  0  0  0  0  0  0
    5.1670  -12.7040    3.5410 O   0  0  0  0  0  0  0  0  0  0  0  0
    6.1050  -11.2370    0.9460 C   0  0  1  0  0  0  0  0  0  0  0  0
    6.1620  -10.3510    2.0700 O   0  0  0  0  0  0  0  0  0  0  0  0
    7.2510  -10.8590    0.0060 C   0  0  2  0  0  0  0  0  0  0  0  0
    7.0600   -9.5250   -0.4940 O   0  0  0  0  0  0  0  0  0  0  0  0
    7.3510  -11.8280   -1.1720 C   0  0  1  0  0  0  0  0  0  0  0  0
    8.5130  -11.4910   -1.9460 O   0  0  0  0  0  0  0  0  0  0  0  0
    6.6060  -14.5230   -4.3240 C   0  0  0  0  0  0  0  0  0  0  0  0
    6.8950  -13.1440   -4.9040 C   0  0  0  0  0  0  0  0  0  0  0  0
    5.6260  -12.4650   -5.4290 C   0  0  1  0  0  0  0  0  0  0  0  0
    5.0880  -13.1640   -6.6840 C   0  0  0  0  0  0  0  0  0  0  0  0
    3.4345  -10.9738   -5.5016 H   0  0  0  0  0  0  0  0  0  0  0  0
    2.8249  -11.3000   -3.7262 H   0  0  0  0  0  0  0  0  0  0  0  0
    5.5601  -12.5069   -2.5169 H   0  0  0  0  0  0  0  0  0  0  0  0
    4.2108  -11.4635   -1.1239 H   0  0  0  0  0  0  0  0  0  0  0  0
    2.6975  -12.3222    0.8155 H   0  0  0  0  0  0  0  0  0  0  0  0
    1.8937  -11.1120   -0.2996 H   0  0  0  0  0  0  0  0  0  0  0  0
    0.5903  -12.7650   -1.3461 H   0  0  0  0  0  0  0  0  0  0  0  0
   -0.2609  -12.9307    2.7907 H   0  0  0  0  0  0  0  0  0  0  0  0
    0.6100  -14.3943    2.2198 H   0  0  0  0  0  0  0  0  0  0  0  0
    1.4372  -12.7999    2.2198 H   0  0  0  0  0  0  0  0  0  0  0  0
    0.0733  -10.9236    1.0506 H   0  0  0  0  0  0  0  0  0  0  0  0
   -0.8756  -11.3897   -0.4455 H   0  0  0  0  0  0  0  0  0  0  0  0
   -1.7589  -11.7063    2.4340 H   0  0  0  0  0  0  0  0  0  0  0  0
   -1.8040   -9.5880    1.5510 H   0  0  0  0  0  0  0  0  0  0  0  0
   -3.2323  -12.3352   -0.1702 H   0  0  0  0  0  0  0  0  0  0  0  0
   -4.2290  -13.0460    2.3410 H   0  0  0  0  0  0  0  0  0  0  0  0
   -2.5421  -13.7074    3.0772 H   0  0  0  0  0  0  0  0  0  0  0  0
   -3.3354  -15.2194    2.5193 H   0  0  0  0  0  0  0  0  0  0  0  0
   -1.5436  -15.0926    2.5193 H   0  0  0  0  0  0  0  0  0  0  0  0
   -4.2113  -15.3730    0.8935 H   0  0  0  0  0  0  0  0  0  0  0  0
   -4.1927  -14.1974   -0.4645 H   0  0  0  0  0  0  0  0  0  0  0  0
   -3.0553  -15.5877   -0.4645 H   0  0  0  0  0  0  0  0  0  0  0  0
   -1.4526  -13.7405   -0.8312 H   0  0  0  0  0  0  0  0  0  0  0  0
   -0.0918  -15.7826    0.9936 H   0  0  0  0  0  0  0  0  0  0  0  0
   -1.3540  -16.1881   -0.2279 H   0  0  0  0  0  0  0  0  0  0  0  0
    0.9299  -16.5368   -1.1098 H   0  0  0  0  0  0  0  0  0  0  0  0
    0.0148  -15.2073   -1.9885 H   0  0  0  0  0  0  0  0  0  0  0  0
    2.1593  -14.8283    1.2649 H   0  0  0  0  0  0  0  0  0  0  0  0
    2.6262  -16.2032    0.2074 H   0  0  0  0  0  0  0  0  0  0  0  0
    3.6054  -14.6972    0.2074 H   0  0  0  0  0  0  0  0  0  0  0  0
    0.6918  -13.7868   -3.1263 H   0  0  0  0  0  0  0  0  0  0  0  0
    2.1411  -13.2971   -4.0677 H   0  0  0  0  0  0  0  0  0  0  0  0
    1.6075  -15.0123   -4.0677 H   0  0  0  0  0  0  0  0  0  0  0  0
    3.8197  -16.0467   -1.5832 H   0  0  0  0  0  0  0  0  0  0  0  0
    2.6037  -16.4118   -2.9069 H   0  0  0  0  0  0  0  0  0  0  0  0
    4.9372  -16.5610   -3.6912 H   0  0  0  0  0  0  0  0  0  0  0  0
    3.9567  -15.2763   -4.5239 H   0  0  0  0  0  0  0  0  0  0  0  0
    8.3337  -13.4171   -0.0576 H   0  0  0  0  0  0  0  0  0  0  0  0
    7.1633  -12.8096    1.9247 H   0  0  0  0  0  0  0  0  0  0  0  0
    4.1140  -12.7761    1.7657 H   0  0  0  0  0  0  0  0  0  0  0  0
    5.0234  -14.2727    2.2155 H   0  0  0  0  0  0  0  0  0  0  0  0
    4.3110  -12.8820    3.9760 H   0  0  0  0  0  0  0  0  0  0  0  0
    5.1230  -11.1284    0.4623 H   0  0  0  0  0  0  0  0  0  0  0  0
    5.6370  -10.7760    2.7850 H   0  0  0  0  0  0  0  0  0  0  0  0
    8.1860  -10.9129    0.5830 H   0  0  0  0  0  0  0  0  0  0  0  0
    7.0760   -8.9570    0.3040 H   0  0  0  0  0  0  0  0  0  0  0  0
    6.4644  -11.7484   -1.8182 H   0  0  0  0  0  0  0  0  0  0  0  0
    8.3870  -11.9470   -2.8020 H   0  0  0  0  0  0  0  0  0  0  0  0
    7.5340  -14.9157   -3.8828 H   0  0  0  0  0  0  0  0  0  0  0  0
    6.2368  -15.1485   -5.1501 H   0  0  0  0  0  0  0  0  0  0  0  0
    7.3360  -12.5134   -4.1180 H   0  0  0  0  0  0  0  0  0  0  0  0
    7.5880  -13.2691   -5.7491 H   0  0  0  0  0  0  0  0  0  0  0  0
    5.9000  -11.4410   -5.7228 H   0  0  0  0  0  0  0  0  0  0  0  0
    4.4419  -14.0035   -6.3876 H   0  0  0  0  0  0  0  0  0  0  0  0
    4.5064  -12.4471   -7.2822 H   0  0  0  0  0  0  0  0  0  0  0  0
    5.9299  -13.5427   -7.2822 H   0  0  0  0  0  0  0  0  0  0  0  0
  1  2  2  0
  2  3  1  0
  3  4  1  0
  4  5  2  0
  5  6  1  0
  6  7  1  0
  7  8  1  0
  8  9  1  1
  8 10  1  0
 10 11  1  0
 11 12  1  0
 11 13  1  0
 13 14  1  0
 13 15  1  0
 15 16  1  0
 15 17  1  0
 15 18  1  0
 18 19  1  0
 19 20  1  0
 20 21  1  0
 21 22  1  1
 21 23  1  0
 23 24  1  6
 23 25  1  0
 25 26  1  0
 26 27  1  0
 27 28  1  1
 28 29  2  0
 28 30  1  0
 30 31  1  0
 31 32  1  0
 32 33  1  0
 33 34  1  0
 34 35  1  0
 33 36  1  0
 36 37  1  0
 36 38  1  0
 38 39  1  0
 38 40  1  0
 40 41  1  0
 27 42  1  0
 42 43  1  0
 43 44  1  0
 44 45  1  0
 44  2  1  0
 27  3  1  0
 40 31  1  0
 23  4  1  0
 21  7  1  0
 18  8  1  0
  1 46  1  0
  1 47  1  0
  3 48  1  1
  5 49  1  0
  6 50  1  0
  6 51  1  0
  7 52  1  6
  9 53  1  0
  9 54  1  0
  9 55  1  0
 10 56  1  0
 10 57  1  0
 11 58  1  1
 12 59  1  0
 13 60  1  6
 14 61  1  0
 16 62  1  0
 16 63  1  0
 16 64  1  0
 17 65  1  0
 17 66  1  0
 17 67  1  0
 18 68  1  6
 19 69  1  0
 19 70  1  0
 20 71  1  0
 20 72  1  0
 22 73  1  0
 22 74  1  0
 22 75  1  0
 24 76  1  0
 24 77  1  0
 24 78  1  0
 25 79  1  0
 25 80  1  0
 26 81  1  0
 26 82  1  0
 31 83  1  1
 33 84  1  1
 34 85  1  0
 34 86  1  0
 35 87  1  0
 36 88  1  6
 37 89  1  0
 38 90  1  1
 39 91  1  0
 40 92  1  6
 41 93  1  0
 42 94  1  0
 42 95  1  0
 43 96  1  0
 43 97  1  0
 44 98  1  6
 45 99  1  0
 45100  1  0
 45101  1  0
M  END
>  <meeko>  (2) 
{"is_sidechain": [false], "free_energy": -9.128, "intermolecular_energy": -12.997, "internal_energy": -0.792}

$$$$
LIB_ONKDPBFYYUGYFL__M_PUB_ALL__e8__s20260927
     RDKit          3D

101106  0  0  0  0  0  0  0  0999 V2000
    2.9620  -13.7310   -5.1180 C   0  0  0  0  0  0  0  0  0  0  0  0
    4.2560  -13.6650   -4.7450 C   0  0  0  0  0  0  0  0  0  0  0  0
    4.7680  -12.9250   -3.4910 C   0  0  1  0  0  0  0  0  0  0  0  0
    3.6740  -12.6340   -2.4380 C   0  0  0  0  0  0  0  0  0  0  0  0
    3.0070  -11.4640   -2.5160 C   0  0  0  0  0  0  0  0  0  0  0  0
    1.9030  -11.0140   -1.6110 C   0  0  0  0  0  0  0  0  0  0  0  0
    1.3840  -12.1100   -0.6570 C   0  0  2  0  0  0  0  0  0  0  0  0
    0.2640  -11.6160    0.3700 C   0  0  1  0  0  0  0  0  0  0  0  0
    0.7360  -10.4270    1.2450 C   0  0  0  0  0  0  0  0  0  0  0  0
   -0.9710  -11.1290   -0.4460 C   0  0  0  0  0  0  0  0  0  0  0  0
   -2.2250  -10.9050    0.3940 C   0  0  1  0  0  0  0  0  0  0  0  0
   -3.3080  -10.5780   -0.4890 O   0  0  0  0  0  0  0  0  0  0  0  0
   -2.6150  -12.1510    1.2020 C   0  0  2  0  0  0  0  0  0  0  0  0
   -3.7860  -11.8070    1.9580 O   0  0  0  0  0  0  0  0  0  0  0  0
   -1.4710  -12.6960    2.1040 C   0  0  0  0  0  0  0  0  0  0  0  0
   -1.2640  -11.8140    3.3500 C   0  0  0  0  0  0  0  0  0  0  0  0
   -1.9180  -14.0870    2.6360 C   0  0  0  0  0  0  0  0  0  0  0  0
   -0.1790  -12.8670    1.2180 C   0  0  2  0  0  0  0  0  0  0  0  0
    1.0360  -13.4820    1.9440 C   0  0  0  0  0  0  0  0  0  0  0  0
    2.0520  -14.0080    0.9290 C   0  0  0  0  0  0  0  0  0  0  0  0
    2.5870  -12.9470   -0.0720 C   0  0  2  0  0  0  0  0  0  0  0  0
    3.5660  -12.0230    0.7150 C   0  0  0  0  0  0  0  0  0  0  0  0
    3.3820  -13.6580   -1.3190 C   0  0  1  0  0  0  0  0  0  0  0  0
    2.5450  -14.8110   -1.9470 C   0  0  0  0  0  0  0  0  0  0  0  0
    4.7080  -14.2980   -0.8160 C   0  0  0  0  0  0  0  0  0  0  0  0
    5.6700  -14.7200   -1.9270 C   0  0  0  0  0  0  0  0  0  0  0  0
    6.0550  -13.5400   -2.8510 C   0  0  2  0  0  0  0  0  0  0  0  0
    6.7820  -12.4240   -2.0670 C   0  0  0  0  0  0  0  0  0  0  0  0
    6.7030  -11.2280   -2.3190 O   0  0  0  0  0  0  0  0  0  0  0  0
    7.5940  -12.9480   -1.1090 O   0  0  0  0  0  0  0  0  0  0  0  0
    8.8810  -12.3260   -0.9930 C   0  0  2  0  0  0  0  0  0  0  0  0
    9.6970  -12.7510   -2.0900 O   0  0  0  0  0  0  0  0  0  0  0  0
   11.0080  -12.1790   -2.0560 C   0  0  2  0  0  0  0  0  0  0  0  0
   11.7480  -12.6240   -3.3260 C   0  0  0  0  0  0  0  0  0  0  0  0
   12.7180  -11.6570   -3.7180 O   0  0  0  0  0  0  0  0  0  0  0  0
   11.7580  -12.6160   -0.7850 C   0  0  1  0  0  0  0  0  0  0  0  0
   13.0360  -11.9820   -0.6490 O   0  0  0  0  0  0  0  0  0  0  0  0
   10.9310  -12.2500    0.4480 C   0  0  2  0  0  0  0  0  0  0  0  0
   11.5460  -12.7850    1.6310 O   0  0  0  0  0  0  0  0  0  0  0  0
    9.5020  -12.7810    0.3410 C   0  0  1  0  0  0  0  0  0  0  0  0
    8.7490  -12.3030    1.4670 O   0  0  0  0  0  0  0  0  0  0  0  0
    7.0910  -14.0400   -3.9000 C   0  0  0  0  0  0  0  0  0  0  0  0
    6.7110  -13.7140   -5.3390 C   0  0  0  0  0  0  0  0  0  0  0  0
    5.3090  -14.2230   -5.6920 C   0  0  1  0  0  0  0  0  0  0  0  0
    5.2640  -15.7550   -5.7560 C   0  0  0  0  0  0  0  0  0  0  0  0
    2.6793  -14.2801   -6.0282 H   0  0  0  0  0  0  0  0  0  0  0  0
    2.1890  -13.2357   -4.5121 H   0  0  0  0  0  0  0  0  0  0  0  0
    5.0768  -11.9468   -3.8882 H   0  0  0  0  0  0  0  0  0  0  0  0
    3.3025  -10.7753   -3.3212 H   0  0  0  0  0  0  0  0  0  0  0  0
    2.2742  -10.1751   -1.0040 H   0  0  0  0  0  0  0  0  0  0  0  0
    1.0591  -10.7303   -2.2570 H   0  0  0  0  0  0  0  0  0  0  0  0
    0.7959  -12.8330   -1.2412 H   0  0  0  0  0  0  0  0  0  0  0  0
    0.6316  -10.6899    2.3080 H   0  0  0  0  0  0  0  0  0  0  0  0
    1.7905  -10.2050    1.0240 H   0  0  0  0  0  0  0  0  0  0  0  0
    0.1209   -9.5422    1.0240 H   0  0  0  0  0  0  0  0  0  0  0  0
   -0.7089  -10.1792   -0.9352 H   0  0  0  0  0  0  0  0  0  0  0  0
   -1.2098  -11.9262   -1.1653 H   0  0  0  0  0  0  0  0  0  0  0  0
   -2.0171  -10.0923    1.1056 H   0  0  0  0  0  0  0  0  0  0  0  0
   -3.8840  -11.3690   -0.4750 H   0  0  0  0  0  0  0  0  0  0  0  0
   -2.8214  -12.9832    0.5129 H   0  0  0  0  0  0  0  0  0  0  0  0
   -4.1760  -12.6350    2.2900 H   0  0  0  0  0  0  0  0  0  0  0  0
   -1.4064  -12.4207    4.2565 H   0  0  0  0  0  0  0  0  0  0  0  0
   -0.2445  -11.4010    3.3416 H   0  0  0  0  0  0  0  0  0  0  0  0
   -1.9933  -10.9906    3.3416 H   0  0  0  0  0  0  0  0  0  0  0  0
   -1.9148  -14.0772    3.7360 H   0  0  0  0  0  0  0  0  0  0  0  0
   -2.9328  -14.3091    2.2742 H   0  0  0  0  0  0  0  0  0  0  0  0
   -1.2226  -14.8587    2.2742 H   0  0  0  0  0  0  0  0  0  0  0  0
   -0.5445  -13.6080    0.4918 H   0  0  0  0  0  0  0  0  0  0  0  0
    1.5128  -12.7124    2.5689 H   0  0  0  0  0  0  0  0  0  0  0  0
    0.6921  -14.3177    2.5712 H   0  0  0  0  0  0  0  0  0  0  0  0
    2.9092  -14.4167    1.4841 H   0  0  0  0  0  0  0  0  0  0  0  0
    1.5238  -14.7616    0.3264 H   0  0  0  0  0  0  0  0  0  0  0  0
    3.4156  -12.1650    1.7954 H   0  0  0  0  0  0  0  0  0  0  0  0
    4.6030  -12.2793    0.4524 H   0  0  0  0  0  0  0  0  0  0  0  0
    3.3701  -10.9729    0.4524 H   0  0  0  0  0  0  0  0  0  0  0  0
    2.1022  -15.4210   -1.1459 H   0  0  0  0  0  0  0  0  0  0  0  0
    1.7439  -14.3856   -2.5694 H   0  0  0  0  0  0  0  0  0  0  0  0
    3.1976  -15.4409   -2.5694 H   0  0  0  0  0  0  0  0  0  0  0  0
    5.2220  -13.5654   -0.1764 H   0  0  0  0  0  0  0  0  0  0  0  0
    4.4281  -15.2164   -0.2791 H   0  0  0  0  0  0  0  0  0  0  0  0
    6.5850  -15.1231   -1.4683 H   0  0  0  0  0  0  0  0  0  0  0  0
    5.1617  -15.4769   -2.5424 H   0  0  0  0  0  0  0  0  0  0  0  0
    8.8001  -11.2292   -1.0134 H   0  0  0  0  0  0  0  0  0  0  0  0
   10.9484  -11.0810   -2.0279 H   0  0  0  0  0  0  0  0  0  0  0  0
   12.2532  -13.5814   -3.1309 H   0  0  0  0  0  0  0  0  0  0  0  0
   11.0145  -12.7333   -4.1384 H   0  0  0  0  0  0  0  0  0  0  0  0
   13.2370  -11.4470   -2.9180 H   0  0  0  0  0  0  0  0  0  0  0  0
   11.9113  -13.7020   -0.8699 H   0  0  0  0  0  0  0  0  0  0  0  0
   13.4720  -12.0460   -1.5280 H   0  0  0  0  0  0  0  0  0  0  0  0
   10.8923  -11.1524    0.5086 H   0  0  0  0  0  0  0  0  0  0  0  0
   12.2460  -13.3840    1.2980 H   0  0  0  0  0  0  0  0  0  0  0  0
    9.4934  -13.8809    0.3548 H   0  0  0  0  0  0  0  0  0  0  0  0
    9.4070  -11.8620    2.0410 H   0  0  0  0  0  0  0  0  0  0  0  0
    8.0610  -13.5695   -3.6818 H   0  0  0  0  0  0  0  0  0  0  0  0
    7.1286  -15.1363   -3.8177 H   0  0  0  0  0  0  0  0  0  0  0  0
    6.7372  -12.6227   -5.4747 H   0  0  0  0  0  0  0  0  0  0  0  0
    7.4314  -14.2149   -6.0025 H   0  0  0  0  0  0  0  0  0  0  0  0
    5.0686  -13.8504   -6.6987 H   0  0  0  0  0  0  0  0  0  0  0  0
    5.2520  -16.1644   -4.7351 H   0  0  0  0  0  0  0  0  0  0  0  0
    4.3561  -16.0732   -6.2894 H   0  0  0  0  0  0  0  0  0  0  0  0
    6.1516  -16.1259   -6.2894 H   0  0  0  0  0  0  0  0  0  0  0  0
  1  2  2  0
  2  3  1  0
  3  4  1  0
  4  5  2  0
  5  6  1  0
  6  7  1  0
  7  8  1  0
  8  9  1  1
  8 10  1  0
 10 11  1  0
 11 12  1  0
 11 13  1  0
 13 14  1  0
 13 15  1  0
 15 16  1  0
 15 17  1  0
 15 18  1  0
 18 19  1  0
 19 20  1  0
 20 21  1  0
 21 22  1  1
 21 23  1  0
 23 24  1  6
 23 25  1  0
 25 26  1  0
 26 27  1  0
 27 28  1  1
 28 29  2  0
 28 30  1  0
 30 31  1  0
 31 32  1  0
 32 33  1  0
 33 34  1  0
 34 35  1  0
 33 36  1  0
 36 37  1  0
 36 38  1  0
 38 39  1  0
 38 40  1  0
 40 41  1  0
 27 42  1  0
 42 43  1  0
 43 44  1  0
 44 45  1  0
 44  2  1  0
 27  3  1  0
 40 31  1  0
 23  4  1  0
 21  7  1  0
 18  8  1  0
  1 46  1  0
  1 47  1  0
  3 48  1  6
  5 49  1  0
  6 50  1  0
  6 51  1  0
  7 52  1  6
  9 53  1  0
  9 54  1  0
  9 55  1  0
 10 56  1  0
 10 57  1  0
 11 58  1  1
 12 59  1  0
 13 60  1  6
 14 61  1  0
 16 62  1  0
 16 63  1  0
 16 64  1  0
 17 65  1  0
 17 66  1  0
 17 67  1  0
 18 68  1  6
 19 69  1  0
 19 70  1  0
 20 71  1  0
 20 72  1  0
 22 73  1  0
 22 74  1  0
 22 75  1  0
 24 76  1  0
 24 77  1  0
 24 78  1  0
 25 79  1  0
 25 80  1  0
 26 81  1  0
 26 82  1  0
 31 83  1  1
 33 84  1  6
 34 85  1  0
 34 86  1  0
 35 87  1  0
 36 88  1  6
 37 89  1  0
 38 90  1  1
 39 91  1  0
 40 92  1  6
 41 93  1  0
 42 94  1  0
 42 95  1  0
 43 96  1  0
 43 97  1  0
 44 98  1  6
 45 99  1  0
 45100  1  0
 45101  1  0
M  END
>  <meeko>  (3) 
{"is_sidechain": [false], "free_energy": -9.0, "intermolecular_energy": -12.593, "internal_energy": -1.014}

$$$$
LIB_ONKDPBFYYUGYFL__M_PUB_ALL__e8__s20260927
     RDKit          3D

101106  0  0  0  0  0  0  0  0999 V2000
    2.1610  -12.3380   -4.2010 C   0  0  0  0  0  0  0  0  0  0  0  0
    3.4920  -12.4120   -4.0000 C   0  0  0  0  0  0  0  0  0  0  0  0
    4.1610  -12.5450   -2.6150 C   0  0  1  0  0  0  0  0  0  0  0  0
    3.2100  -13.0340   -1.4980 C   0  0  0  0  0  0  0  0  0  0  0  0
    2.5400  -12.1110   -0.7780 C   0  0  0  0  0  0  0  0  0  0  0  0
    1.5610  -12.3850    0.3200 C   0  0  0  0  0  0  0  0  0  0  0  0
    1.1660  -13.8710    0.4550 C   0  0  2  0  0  0  0  0  0  0  0  0
    0.1870  -14.1860    1.6780 C   0  0  1  0  0  0  0  0  0  0  0  0
    0.7690  -13.7360    3.0430 C   0  0  0  0  0  0  0  0  0  0  0  0
   -1.1410  -13.4010    1.4580 C   0  0  0  0  0  0  0  0  0  0  0  0
   -2.2780  -13.8270    2.3840 C   0  0  1  0  0  0  0  0  0  0  0  0
   -3.4640  -13.1170    1.9990 O   0  0  0  0  0  0  0  0  0  0  0  0
   -2.5630  -15.3330    2.3000 C   0  0  2  0  0  0  0  0  0  0  0  0
   -3.6280  -15.6070    3.2230 O   0  0  0  0  0  0  0  0  0  0  0  0
   -1.3140  -16.2240    2.5600 C   0  0  0  0  0  0  0  0  0  0  0  0
   -0.9490  -16.2610    4.0570 C   0  0  0  0  0  0  0  0  0  0  0  0
   -1.6920  -17.6820    2.1760 C   0  0  0  0  0  0  0  0  0  0  0  0
   -0.1450  -15.7240    1.6280 C   0  0  2  0  0  0  0  0  0  0  0  0
    1.1510  -16.5580    1.7010 C   0  0  0  0  0  0  0  0  0  0  0  0
    2.0290  -16.2840    0.4770 C   0  0  0  0  0  0  0  0  0  0  0  0
    2.4330  -14.7960    0.2820 C   0  0  2  0  0  0  0  0  0  0  0  0
    3.5060  -14.4640    1.3650 C   0  0  0  0  0  0  0  0  0  0  0  0
    3.0620  -14.5450   -1.2120 C   0  0  1  0  0  0  0  0  0  0  0  0
    2.1500  -15.1440   -2.3230 C   0  0  0  0  0  0  0  0  0  0  0  0
    4.4400  -15.2560   -1.3420 C   0  0  0  0  0  0  0  0  0  0  0  0
    5.2520  -14.8450   -2.5700 C   0  0  0  0  0  0  0  0  0  0  0  0
    5.5180  -13.3210   -2.6170 C   0  0  2  0  0  0  0  0  0  0  0  0
    6.3410  -12.8550   -1.3950 C   0  0  0  0  0  0  0  0  0  0  0  0
    6.0120  -11.9520   -0.6350 O   0  0  0  0  0  0  0  0  0  0  0  0
    7.5240  -13.5200   -1.3190 O   0  0  0  0  0  0  0  0  0  0  0  0
    8.6820  -12.6900   -1.1570 C   0  0  2  0  0  0  0  0  0  0  0  0
    9.6240  -13.0100   -2.1880 O   0  0  0  0  0  0  0  0  0  0  0  0
   10.8190  -12.2280   -2.1050 C   0  0  2  0  0  0  0  0  0  0  0  0
   11.6990  -12.5850   -3.3110 C   0  0  0  0  0  0  0  0  0  0  0  0
   12.5880  -11.5180   -3.6290 O   0  0  0  0  0  0  0  0  0  0  0  0
   11.5490  -12.4920   -0.7770 C   0  0  1  0  0  0  0  0  0  0  0  0
   12.6960  -11.6520   -0.5960 O   0  0  0  0  0  0  0  0  0  0  0  0
   10.5990  -12.2290    0.3920 C   0  0  2  0  0  0  0  0  0  0  0  0
   11.2190  -12.6160    1.6290 O   0  0  0  0  0  0  0  0  0  0  0  0
    9.2850  -12.9920    0.2280 C   0  0  1  0  0  0  0  0  0  0  0  0
    8.3960  -12.6100    1.2890 O   0  0  0  0  0  0  0  0  0  0  0  0
    6.4110  -13.0040   -3.8520 C   0  0  0  0  0  0  0  0  0  0  0  0
    5.8510  -11.9050   -4.7460 C   0  0  0  0  0  0  0  0  0  0  0  0
    4.4150  -12.2020   -5.1910 C   0  0  1  0  0  0  0  0  0  0  0  0
    4.3590  -13.3820   -6.1710 C   0  0  0  0  0  0  0  0  0  0  0  0
    1.7634  -12.2442   -5.2223 H   0  0  0  0  0  0  0  0  0  0  0  0
    1.4726  -12.3715   -3.3437 H   0  0  0  0  0  0  0  0  0  0  0  0
    4.4188  -11.5057   -2.3632 H   0  0  0  0  0  0  0  0  0  0  0  0
    2.7317  -11.0555   -1.0213 H   0  0  0  0  0  0  0  0  0  0  0  0
    2.0077  -12.0584    1.2707 H   0  0  0  0  0  0  0  0  0  0  0  0
    0.6423  -11.8337    0.0711 H   0  0  0  0  0  0  0  0  0  0  0  0
    0.5069  -14.1363   -0.3848 H   0  0  0  0  0  0  0  0  0  0  0  0
    0.1844  -14.1880    3.8578 H   0  0  0  0  0  0  0  0  0  0  0  0
    1.8171  -14.0609    3.1198 H   0  0  0  0  0  0  0  0  0  0  0  0
    0.7184  -12.6399    3.1198 H   0  0  0  0  0  0  0  0  0  0  0  0
   -0.9420  -12.3320    1.6245 H   0  0  0  0  0  0  0  0  0  0  0  0
   -1.4706  -13.6170    0.4310 H   0  0  0  0  0  0  0  0  0  0  0  0
   -1.9804  -13.5965    3.4176 H   0  0  0  0  0  0  0  0  0  0  0  0
   -3.7670  -12.6820    2.8210 H   0  0  0  0  0  0  0  0  0  0  0  0
   -2.8561  -15.5918    1.2718 H   0  0  0  0  0  0  0  0  0  0  0  0
   -4.4380  -15.2030    2.8670 H   0  0  0  0  0  0  0  0  0  0  0  0
   -1.8643  -16.1682    4.6600 H   0  0  0  0  0  0  0  0  0  0  0  0
   -0.4517  -17.2142    4.2897 H   0  0  0  0  0  0  0  0  0  0  0  0
   -0.2705  -15.4270    4.2897 H   0  0  0  0  0  0  0  0  0  0  0  0
   -1.8455  -18.2739    3.0904 H   0  0  0  0  0  0  0  0  0  0  0  0
   -2.6184  -17.6765    1.5829 H   0  0  0  0  0  0  0  0  0  0  0  0
   -0.8796  -18.1273    1.5829 H   0  0  0  0  0  0  0  0  0  0  0  0
   -0.6000  -15.8995    0.6420 H   0  0  0  0  0  0  0  0  0  0  0  0
    1.7049  -16.2888    2.6125 H   0  0  0  0  0  0  0  0  0  0  0  0
    0.8885  -17.6260    1.7211 H   0  0  0  0  0  0  0  0  0  0  0  0
    2.9495  -16.8778    0.5769 H   0  0  0  0  0  0  0  0  0  0  0  0
    1.4274  -16.5583   -0.4021 H   0  0  0  0  0  0  0  0  0  0  0  0
    3.0705  -14.5988    2.3661 H   0  0  0  0  0  0  0  0  0  0  0  0
    4.3675  -15.1376    1.2462 H   0  0  0  0  0  0  0  0  0  0  0  0
    3.8365  -13.4216    1.2462 H   0  0  0  0  0  0  0  0  0  0  0  0
    1.3168  -15.6912   -1.8579 H   0  0  0  0  0  0  0  0  0  0  0  0
    1.7514  -14.3312   -2.9479 H   0  0  0  0  0  0  0  0  0  0  0  0
    2.7375  -15.8326   -2.9479 H   0  0  0  0  0  0  0  0  0  0  0  0
    5.0325  -15.0236   -0.4448 H   0  0  0  0  0  0  0  0  0  0  0  0
    4.2288  -16.3299   -1.4517 H   0  0  0  0  0  0  0  0  0  0  0  0
    6.2174  -15.3718   -2.5479 H   0  0  0  0  0  0  0  0  0  0  0  0
    4.6683  -15.1118   -3.4633 H   0  0  0  0  0  0  0  0  0  0  0  0
    8.4240  -11.6230   -1.2281 H   0  0  0  0  0  0  0  0  0  0  0  0
   10.5791  -11.1547   -2.1272 H   0  0  0  0  0  0  0  0  0  0  0  0
   12.2867  -13.4841   -3.0737 H   0  0  0  0  0  0  0  0  0  0  0  0
   11.0473  -12.7679   -4.1781 H   0  0  0  0  0  0  0  0  0  0  0  0
   12.1100  -10.9390   -4.2540 H   0  0  0  0  0  0  0  0  0  0  0  0
   11.8821  -13.5399   -0.8079 H   0  0  0  0  0  0  0  0  0  0  0  0
   12.5520  -10.8620   -1.1650 H   0  0  0  0  0  0  0  0  0  0  0  0
   10.3779  -11.1515    0.4044 H   0  0  0  0  0  0  0  0  0  0  0  0
   10.7540  -13.4370    1.8940 H   0  0  0  0  0  0  0  0  0  0  0  0
    9.4552  -14.0771    0.2877 H   0  0  0  0  0  0  0  0  0  0  0  0
    7.4990  -12.6810    0.9050 H   0  0  0  0  0  0  0  0  0  0  0  0
    7.4016  -12.6884   -3.4926 H   0  0  0  0  0  0  0  0  0  0  0  0
    6.4574  -13.9201   -4.4591 H   0  0  0  0  0  0  0  0  0  0  0  0
    5.8613  -10.9557   -4.1904 H   0  0  0  0  0  0  0  0  0  0  0  0
    6.4801  -11.8463   -5.6464 H   0  0  0  0  0  0  0  0  0  0  0  0
    4.0498  -11.3161   -5.7312 H   0  0  0  0  0  0  0  0  0  0  0  0
    4.3142  -14.3253   -5.6069 H   0  0  0  0  0  0  0  0  0  0  0  0
    3.4642  -13.2906   -6.8042 H   0  0  0  0  0  0  0  0  0  0  0  0
    5.2585  -13.3758   -6.8042 H   0  0  0  0  0  0  0  0  0  0  0  0
  1  2  2  0
  2  3  1  0
  3  4  1  0
  4  5  2  0
  5  6  1  0
  6  7  1  0
  7  8  1  0
  8  9  1  1
  8 10  1  0
 10 11  1  0
 11 12  1  0
 11 13  1  0
 13 14  1  0
 13 15  1  0
 15 16  1  0
 15 17  1  0
 15 18  1  0
 18 19  1  0
 19 20  1  0
 20 21  1  0
 21 22  1  1
 21 23  1  0
 23 24  1  6
 23 25  1  0
 25 26  1  0
 26 27  1  0
 27 28  1  1
 28 29  2  0
 28 30  1  0
 30 31  1  0
 31 32  1  0
 32 33  1  0
 33 34  1  0
 34 35  1  0
 33 36  1  0
 36 37  1  0
 36 38  1  0
 38 39  1  0
 38 40  1  0
 40 41  1  0
 27 42  1  0
 42 43  1  0
 43 44  1  0
 44 45  1  0
 44  2  1  0
 27  3  1  0
 40 31  1  0
 23  4  1  0
 21  7  1  0
 18  8  1  0
  1 46  1  0
  1 47  1  0
  3 48  1  1
  5 49  1  0
  6 50  1  0
  6 51  1  0
  7 52  1  6
  9 53  1  0
  9 54  1  0
  9 55  1  0
 10 56  1  0
 10 57  1  0
 11 58  1  1
 12 59  1  0
 13 60  1  6
 14 61  1  0
 16 62  1  0
 16 63  1  0
 16 64  1  0
 17 65  1  0
 17 66  1  0
 17 67  1  0
 18 68  1  6
 19 69  1  0
 19 70  1  0
 20 71  1  0
 20 72  1  0
 22 73  1  0
 22 74  1  0
 22 75  1  0
 24 76  1  0
 24 77  1  0
 24 78  1  0
 25 79  1  0
 25 80  1  0
 26 81  1  0
 26 82  1  0
 31 83  1  1
 33 84  1  6
 34 85  1  0
 34 86  1  0
 35 87  1  0
 36 88  1  6
 37 89  1  0
 38 90  1  1
 39 91  1  0
 40 92  1  6
 41 93  1  0
 42 94  1  0
 42 95  1  0
 43 96  1  0
 43 97  1  0
 44 98  1  6
 45 99  1  0
 45100  1  0
 45101  1  0
M  END
>  <meeko>  (4) 
{"is_sidechain": [false], "free_energy": -8.924, "intermolecular_energy": -12.403, "internal_energy": -1.098}

$$$$
LIB_ONKDPBFYYUGYFL__M_PUB_ALL__e8__s20260927
     RDKit          3D

101106  0  0  0  0  0  0  0  0999 V2000
    5.9380  -16.8370   -6.0400 C   0  0  0  0  0  0  0  0  0  0  0  0
    6.9860  -16.0050   -5.8720 C   0  0  0  0  0  0  0  0  0  0  0  0
    7.0800  -14.9300   -4.7690 C   0  0  1  0  0  0  0  0  0  0  0  0
    6.1060  -15.1480   -3.5880 C   0  0  0  0  0  0  0  0  0  0  0  0
    4.8850  -14.5770   -3.6530 C   0  0  0  0  0  0  0  0  0  0  0  0
    3.7990  -14.6940   -2.6280 C   0  0  0  0  0  0  0  0  0  0  0  0
    4.0820  -15.7370   -1.5270 C   0  0  2  0  0  0  0  0  0  0  0  0
    2.9690  -15.8080   -0.3830 C   0  0  1  0  0  0  0  0  0  0  0  0
    2.7420  -14.4450    0.3190 C   0  0  0  0  0  0  0  0  0  0  0  0
    1.6170  -16.2230   -1.0390 C   0  0  0  0  0  0  0  0  0  0  0  0
    0.5330  -16.6160   -0.0380 C   0  0  1  0  0  0  0  0  0  0  0  0
   -0.6080  -17.0860   -0.7700 O   0  0  0  0  0  0  0  0  0  0  0  0
    0.9950  -17.7310    0.9110 C   0  0  2  0  0  0  0  0  0  0  0  0
   -0.0970  -17.9930    1.8070 O   0  0  0  0  0  0  0  0  0  0  0  0
    2.3140  -17.4030    1.6690 C   0  0  0  0  0  0  0  0  0  0  0  0
    2.0760  -16.3830    2.7990 C   0  0  0  0  0  0  0  0  0  0  0  0
    2.7890  -18.7090    2.3660 C   0  0  0  0  0  0  0  0  0  0  0  0
    3.3930  -16.9500    0.6140 C   0  0  2  0  0  0  0  0  0  0  0  0
    4.7950  -16.6660    1.1930 C   0  0  0  0  0  0  0  0  0  0  0  0
    5.8430  -16.6780    0.0790 C   0  0  0  0  0  0  0  0  0  0  0  0
    5.5900  -15.6610   -1.0690 C   0  0  2  0  0  0  0  0  0  0  0  0
    5.9220  -14.2430   -0.5100 C   0  0  0  0  0  0  0  0  0  0  0  0
    6.5450  -15.9810   -2.3640 C   0  0  1  0  0  0  0  0  0  0  0  0
    6.4730  -17.4820   -2.7700 C   0  0  0  0  0  0  0  0  0  0  0  0
    8.0340  -15.6880   -2.0190 C   0  0  0  0  0  0  0  0  0  0  0  0
    8.9700  -15.6580   -3.2270 C   0  0  0  0  0  0  0  0  0  0  0  0
    8.5330  -14.6170   -4.2850 C   0  0  2  0  0  0  0  0  0  0  0  0
    8.5500  -13.1840   -3.7060 C   0  0  0  0  0  0  0  0  0  0  0  0
    7.5780  -12.6140   -3.2260 O   0  0  0  0  0  0  0  0  0  0  0  0
    9.7670  -12.6010   -3.8760 O   0  0  0  0  0  0  0  0  0  0  0  0
   10.7250  -12.8760   -2.8450 C   0  0  2  0  0  0  0  0  0  0  0  0
   10.2500  -12.3130   -1.6160 O   0  0  0  0  0  0  0  0  0  0  0  0
   11.1460  -12.5370   -0.5240 C   0  0  2  0  0  0  0  0  0  0  0  0
   10.4870  -11.9830    0.7470 C   0  0  0  0  0  0  0  0  0  0  0  0
   11.0200  -12.6060    1.9120 O   0  0  0  0  0  0  0  0  0  0  0  0
   12.5050  -11.8660   -0.7920 C   0  0  1  0  0  0  0  0  0  0  0  0
   13.4760  -12.1530    0.2230 O   0  0  0  0  0  0  0  0  0  0  0  0
   13.0700  -12.3670   -2.1220 C   0  0  2  0  0  0  0  0  0  0  0  0
   14.2630  -11.6390   -2.4560 O   0  0  0  0  0  0  0  0  0  0  0  0
   12.0550  -12.2160   -3.2530 C   0  0  1  0  0  0  0  0  0  0  0  0
   12.6000  -12.8120   -4.4420 O   0  0  0  0  0  0  0  0  0  0  0  0
    9.5800  -14.6010   -5.4380 C   0  0  0  0  0  0  0  0  0  0  0  0
    8.9670  -14.7610   -6.8230 C   0  0  0  0  0  0  0  0  0  0  0  0
    8.0870  -16.0110   -6.9220 C   0  0  1  0  0  0  0  0  0  0  0  0
    8.9240  -17.2970   -6.8620 C   0  0  0  0  0  0  0  0  0  0  0  0
    5.9487  -17.5778   -6.8531 H   0  0  0  0  0  0  0  0  0  0  0  0
    5.0725  -16.7749   -5.3639 H   0  0  0  0  0  0  0  0  0  0  0  0
    6.7387  -14.0186   -5.2817 H   0  0  0  0  0  0  0  0  0  0  0  0
    4.6666  -13.9681   -4.5427 H   0  0  0  0  0  0  0  0  0  0  0  0
    3.6690  -13.7124   -2.1488 H   0  0  0  0  0  0  0  0  0  0  0  0
    2.8963  -15.0303   -3.1591 H   0  0  0  0  0  0  0  0  0  0  0  0
    3.9701  -16.7421   -1.9597 H   0  0  0  0  0  0  0  0  0  0  0  0
    2.7655  -14.5859    1.4097 H   0  0  0  0  0  0  0  0  0  0  0  0
    3.5357  -13.7433    0.0228 H   0  0  0  0  0  0  0  0  0  0  0  0
    1.7638  -14.0384    0.0228 H   0  0  0  0  0  0  0  0  0  0  0  0
    1.2469  -15.3749   -1.6337 H   0  0  0  0  0  0  0  0  0  0  0  0
    1.8216  -17.1139   -1.6510 H   0  0  0  0  0  0  0  0  0  0  0  0
    0.2935  -15.7313    0.5703 H   0  0  0  0  0  0  0  0  0  0  0  0
   -0.5420  -16.6420   -1.6390 H   0  0  0  0  0  0  0  0  0  0  0  0
    1.2485  -18.6273    0.3259 H   0  0  0  0  0  0  0  0  0  0  0  0
    0.2770  -18.3740    2.6210 H   0  0  0  0  0  0  0  0  0  0  0  0
    2.1922  -16.8810    3.7729 H   0  0  0  0  0  0  0  0  0  0  0  0
    2.8076  -15.5658    2.7154 H   0  0  0  0  0  0  0  0  0  0  0  0
    1.0583  -15.9740    2.7154 H   0  0  0  0  0  0  0  0  0  0  0  0
    2.7421  -18.5801    3.4574 H   0  0  0  0  0  0  0  0  0  0  0  0
    2.1364  -19.5425    2.0669 H   0  0  0  0  0  0  0  0  0  0  0  0
    3.8245  -18.9285    2.0669 H   0  0  0  0  0  0  0  0  0  0  0  0
    3.4603  -17.8657    0.0083 H   0  0  0  0  0  0  0  0  0  0  0  0
    4.7936  -15.6792    1.6790 H   0  0  0  0  0  0  0  0  0  0  0  0
    5.0438  -17.4474    1.9262 H   0  0  0  0  0  0  0  0  0  0  0  0
    6.8212  -16.4503    0.5277 H   0  0  0  0  0  0  0  0  0  0  0  0
    5.7955  -17.6773   -0.3783 H   0  0  0  0  0  0  0  0  0  0  0  0
    5.9153  -14.2716    0.5896 H   0  0  0  0  0  0  0  0  0  0  0  0
    6.9169  -13.9335   -0.8627 H   0  0  0  0  0  0  0  0  0  0  0  0
    5.1679  -13.5240   -0.8627 H   0  0  0  0  0  0  0  0  0  0  0  0
    6.4431  -18.1058   -1.8644 H   0  0  0  0  0  0  0  0  0  0  0  0
    5.5654  -17.6574   -3.3662 H   0  0  0  0  0  0  0  0  0  0  0  0
    7.3596  -17.7435   -3.3662 H   0  0  0  0  0  0  0  0  0  0  0  0
    8.0850  -14.7088   -1.5204 H   0  0  0  0  0  0  0  0  0  0  0  0
    8.3755  -16.5147   -1.3788 H   0  0  0  0  0  0  0  0  0  0  0  0
    9.9840  -15.4072   -2.8822 H   0  0  0  0  0  0  0  0  0  0  0  0
    8.9395  -16.6506   -3.7001 H   0  0  0  0  0  0  0  0  0  0  0  0
   10.8700  -13.9580   -2.7102 H   0  0  0  0  0  0  0  0  0  0  0  0
   11.3409  -13.6125   -0.4002 H   0  0  0  0  0  0  0  0  0  0  0  0
   10.6688  -10.8996    0.8034 H   0  0  0  0  0  0  0  0  0  0  0  0
    9.4078  -12.1910    0.7012 H   0  0  0  0  0  0  0  0  0  0  0  0
   11.5480  -11.9250    2.3710 H   0  0  0  0  0  0  0  0  0  0  0  0
   12.3208  -10.7816   -0.8060 H   0  0  0  0  0  0  0  0  0  0  0  0
   13.9850  -12.9330   -0.0940 H   0  0  0  0  0  0  0  0  0  0  0  0
   13.3034  -13.4354   -2.0036 H   0  0  0  0  0  0  0  0  0  0  0  0
   14.0840  -11.2650   -3.3440 H   0  0  0  0  0  0  0  0  0  0  0  0
   11.8520  -11.1538   -3.4541 H   0  0  0  0  0  0  0  0  0  0  0  0
   12.1560  -12.3500   -5.1810 H   0  0  0  0  0  0  0  0  0  0  0  0
   10.1184  -13.6424   -5.4050 H   0  0  0  0  0  0  0  0  0  0  0  0
   10.2462  -15.4618   -5.2796 H   0  0  0  0  0  0  0  0  0  0  0  0
    8.3522  -13.8759   -7.0433 H   0  0  0  0  0  0  0  0  0  0  0  0
    9.7883  -14.8663   -7.5472 H   0  0  0  0  0  0  0  0  0  0  0  0
    7.5962  -15.9892   -7.9062 H   0  0  0  0  0  0  0  0  0  0  0  0
    9.1018  -17.5701   -5.8114 H   0  0  0  0  0  0  0  0  0  0  0  0
    8.3822  -18.1110   -7.3658 H   0  0  0  0  0  0  0  0  0  0  0  0
    9.8877  -17.1311   -7.3658 H   0  0  0  0  0  0  0  0  0  0  0  0
  1  2  2  0
  2  3  1  0
  3  4  1  0
  4  5  2  0
  5  6  1  0
  6  7  1  0
  7  8  1  0
  8  9  1  1
  8 10  1  0
 10 11  1  0
 11 12  1  0
 11 13  1  0
 13 14  1  0
 13 15  1  0
 15 16  1  0
 15 17  1  0
 15 18  1  0
 18 19  1  0
 19 20  1  0
 20 21  1  0
 21 22  1  1
 21 23  1  0
 23 24  1  6
 23 25  1  0
 25 26  1  0
 26 27  1  0
 27 28  1  1
 28 29  2  0
 28 30  1  0
 30 31  1  0
 31 32  1  0
 32 33  1  0
 33 34  1  0
 34 35  1  0
 33 36  1  0
 36 37  1  0
 36 38  1  0
 38 39  1  0
 38 40  1  0
 40 41  1  0
 27 42  1  0
 42 43  1  0
 43 44  1  0
 44 45  1  0
 44  2  1  0
 27  3  1  0
 40 31  1  0
 23  4  1  0
 21  7  1  0
 18  8  1  0
  1 46  1  0
  1 47  1  0
  3 48  1  6
  5 49  1  0
  6 50  1  0
  6 51  1  0
  7 52  1  6
  9 53  1  0
  9 54  1  0
  9 55  1  0
 10 56  1  0
 10 57  1  0
 11 58  1  1
 12 59  1  0
 13 60  1  6
 14 61  1  0
 16 62  1  0
 16 63  1  0
 16 64  1  0
 17 65  1  0
 17 66  1  0
 17 67  1  0
 18 68  1  6
 19 69  1  0
 19 70  1  0
 20 71  1  0
 20 72  1  0
 22 73  1  0
 22 74  1  0
 22 75  1  0
 24 76  1  0
 24 77  1  0
 24 78  1  0
 25 79  1  0
 25 80  1  0
 26 81  1  0
 26 82  1  0
 31 83  1  1
 33 84  1  1
 34 85  1  0
 34 86  1  0
 35 87  1  0
 36 88  1  6
 37 89  1  0
 38 90  1  1
 39 91  1  0
 40 92  1  6
 41 93  1  0
 42 94  1  0
 42 95  1  0
 43 96  1  0
 43 97  1  0
 44 98  1  6
 45 99  1  0
 45100  1  0
 45101  1  0
M  END
>  <meeko>  (5) 
{"is_sidechain": [false], "free_energy": -8.641, "intermolecular_energy": -12.574, "internal_energy": -0.529}

$$$$
LIB_ONKDPBFYYUGYFL__M_PUB_ALL__e8__s20260927
     RDKit          3D

101106  0  0  0  0  0  0  0  0999 V2000
    4.7530  -11.8030   -5.5500 C   0  0  0  0  0  0  0  0  0  0  0  0
    4.0260  -12.3430   -4.5510 C   0  0  0  0  0  0  0  0  0  0  0  0
    4.4540  -13.5770   -3.7270 C   0  0  1  0  0  0  0  0  0  0  0  0
    5.9630  -13.8990   -3.8080 C   0  0  0  0  0  0  0  0  0  0  0  0
    6.3870  -14.7430   -4.7720 C   0  0  0  0  0  0  0  0  0  0  0  0
    7.8030  -15.1540   -5.0280 C   0  0  0  0  0  0  0  0  0  0  0  0
    8.8470  -14.3520   -4.2230 C   0  0  2  0  0  0  0  0  0  0  0  0
   10.3550  -14.8410   -4.4250 C   0  0  1  0  0  0  0  0  0  0  0  0
   10.5520  -16.3380   -4.0750 C   0  0  0  0  0  0  0  0  0  0  0  0
   10.7320  -14.6620   -5.9270 C   0  0  0  0  0  0  0  0  0  0  0  0
   12.2230  -14.8080   -6.2170 C   0  0  1  0  0  0  0  0  0  0  0  0
   12.4460  -14.5040   -7.6010 O   0  0  0  0  0  0  0  0  0  0  0  0
   13.0770  -13.8570   -5.3670 C   0  0  2  0  0  0  0  0  0  0  0  0
   14.4480  -14.1040   -5.7160 O   0  0  0  0  0  0  0  0  0  0  0  0
   12.8260  -13.9870   -3.8360 C   0  0  0  0  0  0  0  0  0  0  0  0
   13.4740  -15.2630   -3.2650 C   0  0  0  0  0  0  0  0  0  0  0  0
   13.5450  -12.7950   -3.1430 C   0  0  0  0  0  0  0  0  0  0  0  0
   11.2750  -13.8850   -3.5780 C   0  0  2  0  0  0  0  0  0  0  0  0
   10.8570  -13.9110   -2.0930 C   0  0  0  0  0  0  0  0  0  0  0  0
    9.4350  -13.3690   -1.9310 C   0  0  0  0  0  0  0  0  0  0  0  0
    8.3490  -14.1280   -2.7430 C   0  0  2  0  0  0  0  0  0  0  0  0
    8.1130  -15.4950   -2.0310 C   0  0  0  0  0  0  0  0  0  0  0  0
    6.9440  -13.2800   -2.7880 C   0  0  1  0  0  0  0  0  0  0  0  0
    7.1840  -11.8000   -3.2080 C   0  0  0  0  0  0  0  0  0  0  0  0
    6.2960  -13.2380   -1.3740 C   0  0  0  0  0  0  0  0  0  0  0  0
    4.8500  -12.7430   -1.3550 C   0  0  0  0  0  0  0  0  0  0  0  0
    3.9240  -13.5940   -2.2560 C   0  0  2  0  0  0  0  0  0  0  0  0
    3.8710  -15.0640   -1.7820 C   0  0  0  0  0  0  0  0  0  0  0  0
    4.1810  -16.0310   -2.4670 O   0  0  0  0  0  0  0  0  0  0  0  0
    3.3520  -15.1550   -0.5280 O   0  0  0  0  0  0  0  0  0  0  0  0
    2.3460  -16.1630   -0.3540 C   0  0  2  0  0  0  0  0  0  0  0  0
    1.0570  -15.5490   -0.4730 O   0  0  0  0  0  0  0  0  0  0  0  0
   -0.0140  -16.4820   -0.3120 C   0  0  2  0  0  0  0  0  0  0  0  0
   -1.3310  -15.7330   -0.5590 C   0  0  0  0  0  0  0  0  0  0  0  0
   -2.3650  -16.6320   -0.9510 O   0  0  0  0  0  0  0  0  0  0  0  0
    0.0200  -17.1120    1.0920 C   0  0  1  0  0  0  0  0  0  0  0  0
   -0.9670  -18.1350    1.2670 O   0  0  0  0  0  0  0  0  0  0  0  0
    1.3890  -17.7490    1.3340 C   0  0  2  0  0  0  0  0  0  0  0  0
    1.4880  -18.2070    2.6930 O   0  0  0  0  0  0  0  0  0  0  0  0
    2.5230  -16.7640    1.0520 C   0  0  1  0  0  0  0  0  0  0  0  0
    3.7750  -17.4560    1.1800 O   0  0  0  0  0  0  0  0  0  0  0  0
    2.4650  -13.0700   -2.1170 C   0  0  0  0  0  0  0  0  0  0  0  0
    1.7930  -12.7680   -3.4500 C   0  0  0  0  0  0  0  0  0  0  0  0
    2.6230  -11.8060   -4.3070 C   0  0  1  0  0  0  0  0  0  0  0  0
    2.6500  -10.3940   -3.7080 C   0  0  0  0  0  0  0  0  0  0  0  0
    4.3768  -10.9213   -6.0896 H   0  0  0  0  0  0  0  0  0  0  0  0
    5.7223  -12.2441   -5.8254 H   0  0  0  0  0  0  0  0  0  0  0  0
    3.9385  -14.4059   -4.2342 H   0  0  0  0  0  0  0  0  0  0  0  0
    5.6181  -15.1697   -5.4329 H   0  0  0  0  0  0  0  0  0  0  0  0
    7.9069  -16.2172   -4.7658 H   0  0  0  0  0  0  0  0  0  0  0  0
    8.0031  -14.9573   -6.0916 H   0  0  0  0  0  0  0  0  0  0  0  0
    8.9189  -13.3415   -4.6517 H   0  0  0  0  0  0  0  0  0  0  0  0
   10.5680  -16.4599   -2.9819 H   0  0  0  0  0  0  0  0  0  0  0  0
    9.7234  -16.9254   -4.4974 H   0  0  0  0  0  0  0  0  0  0  0  0
   11.5043  -16.6911   -4.4974 H   0  0  0  0  0  0  0  0  0  0  0  0
   10.1905  -15.4202   -6.5118 H   0  0  0  0  0  0  0  0  0  0  0  0
   10.4544  -13.6341   -6.2033 H   0  0  0  0  0  0  0  0  0  0  0  0
   12.5180  -15.8388   -5.9712 H   0  0  0  0  0  0  0  0  0  0  0  0
   12.6810  -15.3630   -8.0070 H   0  0  0  0  0  0  0  0  0  0  0  0
   12.7952  -12.8171   -5.5888 H   0  0  0  0  0  0  0  0  0  0  0  0
   14.9960  -13.8530   -4.9510 H   0  0  0  0  0  0  0  0  0  0  0  0
   13.4542  -15.2240   -2.1659 H   0  0  0  0  0  0  0  0  0  0  0  0
   12.9144  -16.1447   -3.6107 H   0  0  0  0  0  0  0  0  0  0  0  0
   14.5160  -15.3313   -3.6107 H   0  0  0  0  0  0  0  0  0  0  0  0
   13.4758  -12.9097   -2.0512 H   0  0  0  0  0  0  0  0  0  0  0  0
   14.6030  -12.7799   -3.4438 H   0  0  0  0  0  0  0  0  0  0  0  0
   13.0648  -11.8522   -3.4438 H   0  0  0  0  0  0  0  0  0  0  0  0
   11.0852  -12.8716   -3.9614 H   0  0  0  0  0  0  0  0  0  0  0  0
   10.8948  -14.9464   -1.7236 H   0  0  0  0  0  0  0  0  0  0  0  0
   11.5482  -13.2792   -1.5160 H   0  0  0  0  0  0  0  0  0  0  0  0
    9.1670  -13.4257   -0.8657 H   0  0  0  0  0  0  0  0  0  0  0  0
    9.4503  -12.3410   -2.3220 H   0  0  0  0  0  0  0  0  0  0  0  0
    8.1381  -15.3498   -0.9409 H   0  0  0  0  0  0  0  0  0  0  0  0
    7.1322  -15.8970   -2.3249 H   0  0  0  0  0  0  0  0  0  0  0  0
    8.9023  -16.2026   -2.3249 H   0  0  0  0  0  0  0  0  0  0  0  0
    7.2853  -11.1753   -2.3083 H   0  0  0  0  0  0  0  0  0  0  0  0
    8.1047  -11.7333   -3.8062 H   0  0  0  0  0  0  0  0  0  0  0  0
    6.3316  -11.4458   -3.8062 H   0  0  0  0  0  0  0  0  0  0  0  0
    6.3166  -14.2553   -0.9561 H   0  0  0  0  0  0  0  0  0  0  0  0
    6.8812  -12.5186   -0.7824 H   0  0  0  0  0  0  0  0  0  0  0  0
    4.4751  -12.7866   -0.3218 H   0  0  0  0  0  0  0  0  0  0  0  0
    4.8425  -11.7138   -1.7431 H   0  0  0  0  0  0  0  0  0  0  0  0
    2.4353  -16.9550   -1.1122 H   0  0  0  0  0  0  0  0  0  0  0  0
    0.0838  -17.3073   -1.0327 H   0  0  0  0  0  0  0  0  0  0  0  0
   -1.6321  -15.2203    0.3665 H   0  0  0  0  0  0  0  0  0  0  0  0
   -1.1736  -15.0058   -1.3692 H   0  0  0  0  0  0  0  0  0  0  0  0
   -2.9560  -16.1310   -1.5450 H   0  0  0  0  0  0  0  0  0  0  0  0
   -0.1873  -16.2992    1.8036 H   0  0  0  0  0  0  0  0  0  0  0  0
   -0.6790  -18.8950    0.7130 H   0  0  0  0  0  0  0  0  0  0  0  0
    1.4857  -18.5998    0.6435 H   0  0  0  0  0  0  0  0  0  0  0  0
    2.4240  -18.0550    2.9380 H   0  0  0  0  0  0  0  0  0  0  0  0
    2.5064  -15.9340    1.7736 H   0  0  0  0  0  0  0  0  0  0  0  0
    4.2860  -16.9350    1.8320 H   0  0  0  0  0  0  0  0  0  0  0  0
    1.8704  -13.8331   -1.5934 H   0  0  0  0  0  0  0  0  0  0  0  0
    2.5155  -12.1224   -1.5607 H   0  0  0  0  0  0  0  0  0  0  0  0
    1.6596  -13.7102   -4.0019 H   0  0  0  0  0  0  0  0  0  0  0  0
    0.8253  -12.2883   -3.2415 H   0  0  0  0  0  0  0  0  0  0  0  0
    2.1290  -11.7314   -5.2870 H   0  0  0  0  0  0  0  0  0  0  0  0
    2.6487  -10.4614   -2.6101 H   0  0  0  0  0  0  0  0  0  0  0  0
    3.5583   -9.8712   -4.0422 H   0  0  0  0  0  0  0  0  0  0  0  0
    1.7623   -9.8369   -4.0422 H   0  0  0  0  0  0  0  0  0  0  0  0
  1  2  2  0
  2  3  1  0
  3  4  1  0
  4  5  2  0
  5  6  1  0
  6  7  1  0
  7  8  1  0
  8  9  1  1
  8 10  1  0
 10 11  1  0
 11 12  1  0
 11 13  1  0
 13 14  1  0
 13 15  1  0
 15 16  1  0
 15 17  1  0
 15 18  1  0
 18 19  1  0
 19 20  1  0
 20 21  1  0
 21 22  1  1
 21 23  1  0
 23 24  1  6
 23 25  1  0
 25 26  1  0
 26 27  1  0
 27 28  1  1
 28 29  2  0
 28 30  1  0
 30 31  1  0
 31 32  1  0
 32 33  1  0
 33 34  1  0
 34 35  1  0
 33 36  1  0
 36 37  1  0
 36 38  1  0
 38 39  1  0
 38 40  1  0
 40 41  1  0
 27 42  1  0
 42 43  1  0
 43 44  1  0
 44 45  1  0
 44  2  1  0
 27  3  1  0
 40 31  1  0
 23  4  1  0
 21  7  1  0
 18  8  1  0
  1 46  1  0
  1 47  1  0
  3 48  1  6
  5 49  1  0
  6 50  1  0
  6 51  1  0
  7 52  1  6
  9 53  1  0
  9 54  1  0
  9 55  1  0
 10 56  1  0
 10 57  1  0
 11 58  1  6
 12 59  1  0
 13 60  1  6
 14 61  1  0
 16 62  1  0
 16 63  1  0
 16 64  1  0
 17 65  1  0
 17 66  1  0
 17 67  1  0
 18 68  1  6
 19 69  1  0
 19 70  1  0
 20 71  1  0
 20 72  1  0
 22 73  1  0
 22 74  1  0
 22 75  1  0
 24 76  1  0
 24 77  1  0
 24 78  1  0
 25 79  1  0
 25 80  1  0
 26 81  1  0
 26 82  1  0
 31 83  1  6
 33 84  1  6
 34 85  1  0
 34 86  1  0
 35 87  1  0
 36 88  1  1
 37 89  1  0
 38 90  1  6
 39 91  1  0
 40 92  1  1
 41 93  1  0
 42 94  1  0
 42 95  1  0
 43 96  1  0
 43 97  1  0
 44 98  1  6
 45 99  1  0
 45100  1  0
 45101  1  0
M  END
>  <meeko>  (6) 
{"is_sidechain": [false], "free_energy": -8.562, "intermolecular_energy": -12.126, "internal_energy": -0.865}

$$$$
LIB_ONKDPBFYYUGYFL__M_PUB_ALL__e8__s20260927
     RDKit          3D

101106  0  0  0  0  0  0  0  0999 V2000
    4.0530  -11.5850   -4.3340 C   0  0  0  0  0  0  0  0  0  0  0  0
    5.0390  -12.4690   -4.0790 C   0  0  0  0  0  0  0  0  0  0  0  0
    5.2170  -13.2190   -2.7420 C   0  0  1  0  0  0  0  0  0  0  0  0
    3.9520  -13.2380   -1.8540 C   0  0  0  0  0  0  0  0  0  0  0  0
    3.7840  -12.2460   -0.9560 C   0  0  0  0  0  0  0  0  0  0  0  0
    2.6200  -12.0770   -0.0310 C   0  0  0  0  0  0  0  0  0  0  0  0
    1.4420  -13.0320   -0.3200 C   0  0  2  0  0  0  0  0  0  0  0  0
    0.2300  -12.9180    0.7140 C   0  0  1  0  0  0  0  0  0  0  0  0
    0.6690  -13.1550    2.1820 C   0  0  0  0  0  0  0  0  0  0  0  0
   -0.3510  -11.4740    0.6320 C   0  0  0  0  0  0  0  0  0  0  0  0
   -1.6910  -11.3000    1.3410 C   0  0  1  0  0  0  0  0  0  0  0  0
   -2.1670   -9.9700    1.0880 O   0  0  0  0  0  0  0  0  0  0  0  0
   -2.7470  -12.2960    0.8430 C   0  0  2  0  0  0  0  0  0  0  0  0
   -3.9450  -12.0450    1.5950 O   0  0  0  0  0  0  0  0  0  0  0  0
   -2.2970  -13.7840    0.9320 C   0  0  0  0  0  0  0  0  0  0  0  0
   -2.3320  -14.2980    2.3840 C   0  0  0  0  0  0  0  0  0  0  0  0
   -3.3390  -14.6340    0.1530 C   0  0  0  0  0  0  0  0  0  0  0  0
   -0.8890  -13.9180    0.2380 C   0  0  2  0  0  0  0  0  0  0  0  0
   -0.3310  -15.3540    0.1640 C   0  0  0  0  0  0  0  0  0  0  0  0
    0.7780  -15.4410   -0.8870 C   0  0  0  0  0  0  0  0  0  0  0  0
    1.9760  -14.4790   -0.6560 C   0  0  2  0  0  0  0  0  0  0  0  0
    2.8010  -15.0500    0.5380 C   0  0  0  0  0  0  0  0  0  0  0  0
    2.9280  -14.3870   -1.9890 C   0  0  1  0  0  0  0  0  0  0  0  0
    2.0870  -14.1160   -3.2720 C   0  0  0  0  0  0  0  0  0  0  0  0
    3.6610  -15.7390   -2.2200 C   0  0  0  0  0  0  0  0  0  0  0  0
    4.7950  -15.6780   -3.2440 C   0  0  0  0  0  0  0  0  0  0  0  0
    5.8720  -14.6330   -2.8690 C   0  0  2  0  0  0  0  0  0  0  0  0
    6.5430  -14.9750   -1.5200 C   0  0  0  0  0  0  0  0  0  0  0  0
    6.5660  -16.0900   -1.0140 O   0  0  0  0  0  0  0  0  0  0  0  0
    7.0350  -13.8570   -0.9200 O   0  0  0  0  0  0  0  0  0  0  0  0
    8.4060  -13.5590   -1.2150 C   0  0  2  0  0  0  0  0  0  0  0  0
    9.1650  -14.7720   -1.1450 O   0  0  0  0  0  0  0  0  0  0  0  0
   10.5530  -14.5700   -1.4250 C   0  0  2  0  0  0  0  0  0  0  0  0
   11.2380  -15.9440   -1.4200 C   0  0  0  0  0  0  0  0  0  0  0  0
   12.3030  -15.9820   -0.4750 O   0  0  0  0  0  0  0  0  0  0  0  0
   11.1840  -13.6240   -0.3880 C   0  0  1  0  0  0  0  0  0  0  0  0
   12.5480  -13.3020   -0.6870 O   0  0  0  0  0  0  0  0  0  0  0  0
   10.4010  -12.3110   -0.3510 C   0  0  2  0  0  0  0  0  0  0  0  0
   10.8850  -11.4780    0.7160 O   0  0  0  0  0  0  0  0  0  0  0  0
    8.9050  -12.5560   -0.1580 C   0  0  1  0  0  0  0  0  0  0  0  0
    8.2170  -11.2990   -0.2520 O   0  0  0  0  0  0  0  0  0  0  0  0
    7.0190  -14.6920   -3.9200 C   0  0  0  0  0  0  0  0  0  0  0  0
    7.3690  -13.3370   -4.5210 C   0  0  0  0  0  0  0  0  0  0  0  0
    6.1410  -12.6380   -5.1150 C   0  0  1  0  0  0  0  0  0  0  0  0
    5.6350  -13.3550   -6.3740 C   0  0  0  0  0  0  0  0  0  0  0  0
    3.9966  -11.0921   -5.3158 H   0  0  0  0  0  0  0  0  0  0  0  0
    3.3052  -11.3569   -3.5602 H   0  0  0  0  0  0  0  0  0  0  0  0
    5.9544  -12.6021   -2.2076 H   0  0  0  0  0  0  0  0  0  0  0  0
    4.5792  -11.4882   -0.8979 H   0  0  0  0  0  0  0  0  0  0  0  0
    2.9667  -12.2573    0.9972 H   0  0  0  0  0  0  0  0  0  0  0  0
    2.2430  -11.0542   -0.1788 H   0  0  0  0  0  0  0  0  0  0  0  0
    0.9364  -12.6974   -1.2378 H   0  0  0  0  0  0  0  0  0  0  0  0
   -0.0912  -12.7446    2.8629 H   0  0  0  0  0  0  0  0  0  0  0  0
    0.7782  -14.2346    2.3623 H   0  0  0  0  0  0  0  0  0  0  0  0
    1.6315  -12.6540    2.3623 H   0  0  0  0  0  0  0  0  0  0  0  0
    0.3736  -10.7837    1.0887 H   0  0  0  0  0  0  0  0  0  0  0  0
   -0.5262  -11.2628   -0.4332 H   0  0  0  0  0  0  0  0  0  0  0  0
   -1.5335  -11.4820    2.4143 H   0  0  0  0  0  0  0  0  0  0  0  0
   -1.9200   -9.7930    0.1590 H   0  0  0  0  0  0  0  0  0  0  0  0
   -2.9171  -12.1393   -0.2324 H   0  0  0  0  0  0  0  0  0  0  0  0
   -3.7010  -11.4970    2.3620 H   0  0  0  0  0  0  0  0  0  0  0  0
   -2.2739  -13.4452    3.0763 H   0  0  0  0  0  0  0  0  0  0  0  0
   -3.2696  -14.8469    2.5562 H   0  0  0  0  0  0  0  0  0  0  0  0
   -1.4775  -14.9689    2.5562 H   0  0  0  0  0  0  0  0  0  0  0  0
   -3.9877  -15.1632    0.8666 H   0  0  0  0  0  0  0  0  0  0  0  0
   -3.9512  -13.9743   -0.4795 H   0  0  0  0  0  0  0  0  0  0  0  0
   -2.8157  -15.3662   -0.4795 H   0  0  0  0  0  0  0  0  0  0  0  0
   -1.1520  -13.6079   -0.7841 H   0  0  0  0  0  0  0  0  0  0  0  0
    0.0771  -15.6355    1.1459 H   0  0  0  0  0  0  0  0  0  0  0  0
   -1.1443  -16.0392   -0.1173 H   0  0  0  0  0  0  0  0  0  0  0  0
    1.1634  -16.4713   -0.8925 H   0  0  0  0  0  0  0  0  0  0  0  0
    0.3218  -15.1413   -1.8420 H   0  0  0  0  0  0  0  0  0  0  0  0
    2.3421  -14.7324    1.4859 H   0  0  0  0  0  0  0  0  0  0  0  0
    2.8103  -16.1487    0.4851 H   0  0  0  0  0  0  0  0  0  0  0  0
    3.8325  -14.6717    0.4851 H   0  0  0  0  0  0  0  0  0  0  0  0
    1.0761  -13.7902   -2.9857 H   0  0  0  0  0  0  0  0  0  0  0  0
    2.5710  -13.3283   -3.8681 H   0  0  0  0  0  0  0  0  0  0  0  0
    2.0201  -15.0381   -3.8681 H   0  0  0  0  0  0  0  0  0  0  0  0
    4.0828  -16.0698   -1.2594 H   0  0  0  0  0  0  0  0  0  0  0  0
    2.9120  -16.4363   -2.6235 H   0  0  0  0  0  0  0  0  0  0  0  0
    5.2697  -16.6684   -3.3049 H   0  0  0  0  0  0  0  0  0  0  0  0
    4.3598  -15.3798   -4.2092 H   0  0  0  0  0  0  0  0  0  0  0  0
    8.5156  -13.1277   -2.2210 H   0  0  0  0  0  0  0  0  0  0  0  0
   10.6818  -14.0950   -2.4088 H   0  0  0  0  0  0  0  0  0  0  0  0
   10.4973  -16.7139   -1.1579 H   0  0  0  0  0  0  0  0  0  0  0  0
   11.6524  -16.1317   -2.4215 H   0  0  0  0  0  0  0  0  0  0  0  0
   11.8890  -15.9600    0.4080 H   0  0  0  0  0  0  0  0  0  0  0  0
   11.1505  -14.1509    0.5770 H   0  0  0  0  0  0  0  0  0  0  0  0
   12.6350  -13.3480   -1.6660 H   0  0  0  0  0  0  0  0  0  0  0  0
   10.5501  -11.8078   -1.3177 H   0  0  0  0  0  0  0  0  0  0  0  0
   10.1360  -11.4200    1.3450 H   0  0  0  0  0  0  0  0  0  0  0  0
    8.7065  -12.9899    0.8331 H   0  0  0  0  0  0  0  0  0  0  0  0
    8.1460  -11.1220   -1.2110 H   0  0  0  0  0  0  0  0  0  0  0  0
    7.9172  -15.0976   -3.4314 H   0  0  0  0  0  0  0  0  0  0  0  0
    6.6665  -15.3283   -4.7452 H   0  0  0  0  0  0  0  0  0  0  0  0
    7.7948  -12.6983   -3.7331 H   0  0  0  0  0  0  0  0  0  0  0  0
    8.0921  -13.5021   -5.3333 H   0  0  0  0  0  0  0  0  0  0  0  0
    6.4547  -11.6296   -5.4228 H   0  0  0  0  0  0  0  0  0  0  0  0
    5.0235  -14.2214   -6.0818 H   0  0  0  0  0  0  0  0  0  0  0  0
    5.0256  -12.6609   -6.9713 H   0  0  0  0  0  0  0  0  0  0  0  0
    6.4932  -13.6966   -6.9713 H   0  0  0  0  0  0  0  0  0  0  0  0
  1  2  2  0
  2  3  1  0
  3  4  1  0
  4  5  2  0
  5  6  1  0
  6  7  1  0
  7  8  1  0
  8  9  1  1
  8 10  1  0
 10 11  1  0
 11 12  1  0
 11 13  1  0
 13 14  1  0
 13 15  1  0
 15 16  1  0
 15 17  1  0
 15 18  1  0
 18 19  1  0
 19 20  1  0
 20 21  1  0
 21 22  1  1
 21 23  1  0
 23 24  1  6
 23 25  1  0
 25 26  1  0
 26 27  1  0
 27 28  1  1
 28 29  2  0
 28 30  1  0
 30 31  1  0
 31 32  1  0
 32 33  1  0
 33 34  1  0
 34 35  1  0
 33 36  1  0
 36 37  1  0
 36 38  1  0
 38 39  1  0
 38 40  1  0
 40 41  1  0
 27 42  1  0
 42 43  1  0
 43 44  1  0
 44 45  1  0
 44  2  1  0
 27  3  1  0
 40 31  1  0
 23  4  1  0
 21  7  1  0
 18  8  1  0
  1 46  1  0
  1 47  1  0
  3 48  1  1
  5 49  1  0
  6 50  1  0
  6 51  1  0
  7 52  1  6
  9 53  1  0
  9 54  1  0
  9 55  1  0
 10 56  1  0
 10 57  1  0
 11 58  1  1
 12 59  1  0
 13 60  1  6
 14 61  1  0
 16 62  1  0
 16 63  1  0
 16 64  1  0
 17 65  1  0
 17 66  1  0
 17 67  1  0
 18 68  1  6
 19 69  1  0
 19 70  1  0
 20 71  1  0
 20 72  1  0
 22 73  1  0
 22 74  1  0
 22 75  1  0
 24 76  1  0
 24 77  1  0
 24 78  1  0
 25 79  1  0
 25 80  1  0
 26 81  1  0
 26 82  1  0
 31 83  1  6
 33 84  1  6
 34 85  1  0
 34 86  1  0
 35 87  1  0
 36 88  1  1
 37 89  1  0
 38 90  1  6
 39 91  1  0
 40 92  1  1
 41 93  1  0
 42 94  1  0
 42 95  1  0
 43 96  1  0
 43 97  1  0
 44 98  1  6
 45 99  1  0
 45100  1  0
 45101  1  0
M  END
>  <meeko>  (7) 
{"is_sidechain": [false], "free_energy": -8.473, "intermolecular_energy": -12.376, "internal_energy": -0.49}

$$$$
LIB_ONKDPBFYYUGYFL__M_PUB_ALL__e8__s20260927
     RDKit          3D

101106  0  0  0  0  0  0  0  0999 V2000
    6.3140  -13.6870   -7.5970 C   0  0  0  0  0  0  0  0  0  0  0  0
    7.5750  -14.0670   -7.8890 C   0  0  0  0  0  0  0  0  0  0  0  0
    8.6170  -14.5160   -6.8420 C   0  0  1  0  0  0  0  0  0  0  0  0
    8.0090  -14.9310   -5.4820 C   0  0  0  0  0  0  0  0  0  0  0  0
    7.8670  -13.9870   -4.5290 C   0  0  0  0  0  0  0  0  0  0  0  0
    7.2790  -14.1860   -3.1670 C   0  0  0  0  0  0  0  0  0  0  0  0
    6.6030  -15.5590   -2.9680 C   0  0  2  0  0  0  0  0  0  0  0  0
    6.0470  -15.8130   -1.4920 C   0  0  1  0  0  0  0  0  0  0  0  0
    7.1450  -15.6760   -0.4060 C   0  0  0  0  0  0  0  0  0  0  0  0
    4.9570  -14.7420   -1.1860 C   0  0  0  0  0  0  0  0  0  0  0  0
    4.1310  -15.0320    0.0640 C   0  0  1  0  0  0  0  0  0  0  0  0
    3.0960  -14.0430    0.1620 O   0  0  0  0  0  0  0  0  0  0  0  0
    3.4750  -16.4190    0.0200 C   0  0  2  0  0  0  0  0  0  0  0  0
    2.7510  -16.5770    1.2500 O   0  0  0  0  0  0  0  0  0  0  0  0
    4.4820  -17.5810   -0.2240 C   0  0  0  0  0  0  0  0  0  0  0  0
    5.3080  -17.8870    1.0400 C   0  0  0  0  0  0  0  0  0  0  0  0
    3.6530  -18.8640   -0.5140 C   0  0  0  0  0  0  0  0  0  0  0  0
    5.3520  -17.2260   -1.4890 C   0  0  2  0  0  0  0  0  0  0  0  0
    6.3520  -18.3180   -1.9220 C   0  0  0  0  0  0  0  0  0  0  0  0
    6.8060  -18.0820   -3.3650 C   0  0  0  0  0  0  0  0  0  0  0  0
    7.4710  -16.7020   -3.6240 C   0  0  2  0  0  0  0  0  0  0  0  0
    8.8920  -16.7470   -2.9820 C   0  0  0  0  0  0  0  0  0  0  0  0
    7.6010  -16.4000   -5.2310 C   0  0  1  0  0  0  0  0  0  0  0  0
    6.2510  -16.6430   -5.9690 C   0  0  0  0  0  0  0  0  0  0  0  0
    8.6370  -17.3650   -5.8770 C   0  0  0  0  0  0  0  0  0  0  0  0
    9.0620  -16.9810   -7.2940 C   0  0  0  0  0  0  0  0  0  0  0  0
    9.6600  -15.5560   -7.3640 C   0  0  2  0  0  0  0  0  0  0  0  0
   10.9340  -15.4360   -6.4970 C   0  0  0  0  0  0  0  0  0  0  0  0
   11.6370  -16.3780   -6.1550 O   0  0  0  0  0  0  0  0  0  0  0  0
   11.1290  -14.1530   -6.0880 O   0  0  0  0  0  0  0  0  0  0  0  0
   11.7950  -14.0090   -4.8260 C   0  0  2  0  0  0  0  0  0  0  0  0
   10.9790  -13.2070   -3.9650 O   0  0  0  0  0  0  0  0  0  0  0  0
   11.5670  -13.0070   -2.6770 C   0  0  2  0  0  0  0  0  0  0  0  0
   10.5630  -12.2270   -1.8170 C   0  0  0  0  0  0  0  0  0  0  0  0
   11.0950  -11.9620   -0.5220 O   0  0  0  0  0  0  0  0  0  0  0  0
   12.9050  -12.2560   -2.8020 C   0  0  1  0  0  0  0  0  0  0  0  0
   13.5890  -12.1260   -1.5490 O   0  0  0  0  0  0  0  0  0  0  0  0
   13.8300  -13.0140   -3.7540 C   0  0  2  0  0  0  0  0  0  0  0  0
   15.0220  -12.2480   -3.9970 O   0  0  0  0  0  0  0  0  0  0  0  0
   13.1430  -13.3110   -5.0860 C   0  0  1  0  0  0  0  0  0  0  0  0
   14.0170  -14.1240   -5.8830 O   0  0  0  0  0  0  0  0  0  0  0  0
   10.1340  -15.2800   -8.8210 C   0  0  0  0  0  0  0  0  0  0  0  0
    9.5920  -13.9810   -9.4050 C   0  0  0  0  0  0  0  0  0  0  0  0
    8.0640  -13.9060   -9.3200 C   0  0  1  0  0  0  0  0  0  0  0  0
    7.3960  -14.9120  -10.2680 C   0  0  0  0  0  0  0  0  0  0  0  0
    5.6314  -13.3803   -8.4032 H   0  0  0  0  0  0  0  0  0  0  0  0
    5.9684  -13.6839   -6.5527 H   0  0  0  0  0  0  0  0  0  0  0  0
    9.1899  -13.5964   -6.6521 H   0  0  0  0  0  0  0  0  0  0  0  0
    8.2168  -12.9739   -4.7765 H   0  0  0  0  0  0  0  0  0  0  0  0
    8.0848  -14.0867   -2.4248 H   0  0  0  0  0  0  0  0  0  0  0  0
    6.4941  -13.4250   -3.0456 H   0  0  0  0  0  0  0  0  0  0  0  0
    5.6567  -15.5684   -3.5287 H   0  0  0  0  0  0  0  0  0  0  0  0
    6.6838  -15.7335    0.5910 H   0  0  0  0  0  0  0  0  0  0  0  0
    7.8763  -16.4899   -0.5192 H   0  0  0  0  0  0  0  0  0  0  0  0
    7.6539  -14.7074   -0.5192 H   0  0  0  0  0  0  0  0  0  0  0  0
    5.4553  -13.7704   -1.0529 H   0  0  0  0  0  0  0  0  0  0  0  0
    4.2587  -14.7488   -2.0359 H   0  0  0  0  0  0  0  0  0  0  0  0
    4.8069  -15.0049    0.9314 H   0  0  0  0  0  0  0  0  0  0  0  0
    3.0680  -13.8090    1.1110 H   0  0  0  0  0  0  0  0  0  0  0  0
    2.7980  -16.4751   -0.8452 H   0  0  0  0  0  0  0  0  0  0  0  0
    1.8330  -16.2940    1.0890 H   0  0  0  0  0  0  0  0  0  0  0  0
    4.7067  -17.6642    1.9338 H   0  0  0  0  0  0  0  0  0  0  0  0
    5.5915  -18.9498    1.0444 H   0  0  0  0  0  0  0  0  0  0  0  0
    6.2155  -17.2654    1.0444 H   0  0  0  0  0  0  0  0  0  0  0  0
    3.3525  -19.3290    0.4365 H   0  0  0  0  0  0  0  0  0  0  0  0
    2.7556  -18.5979   -1.0918 H   0  0  0  0  0  0  0  0  0  0  0  0
    4.2644  -19.5728   -1.0918 H   0  0  0  0  0  0  0  0  0  0  0  0
    4.5625  -17.1734   -2.2531 H   0  0  0  0  0  0  0  0  0  0  0  0
    7.2280  -18.2918   -1.2573 H   0  0  0  0  0  0  0  0  0  0  0  0
    5.8593  -19.2994   -1.8583 H   0  0  0  0  0  0  0  0  0  0  0  0
    7.5319  -18.8657   -3.6274 H   0  0  0  0  0  0  0  0  0  0  0  0
    5.8961  -18.1069   -3.9827 H   0  0  0  0  0  0  0  0  0  0  0  0
    8.7994  -16.7441   -1.8859 H   0  0  0  0  0  0  0  0  0  0  0  0
    9.4109  -17.6620   -3.3037 H   0  0  0  0  0  0  0  0  0  0  0  0
    9.4677  -15.8666   -3.3037 H   0  0  0  0  0  0  0  0  0  0  0  0
    5.4496  -16.7872   -5.2294 H   0  0  0  0  0  0  0  0  0  0  0  0
    6.0159  -15.7727   -6.5994 H   0  0  0  0  0  0  0  0  0  0  0  0
    6.3341  -17.5406   -6.5994 H   0  0  0  0  0  0  0  0  0  0  0  0
    9.5346  -17.3811   -5.2414 H   0  0  0  0  0  0  0  0  0  0  0  0
    8.1462  -18.3465   -5.9524 H   0  0  0  0  0  0  0  0  0  0  0  0
    9.8186  -17.6992   -7.6428 H   0  0  0  0  0  0  0  0  0  0  0  0
    8.1649  -17.0001   -7.9302 H   0  0  0  0  0  0  0  0  0  0  0  0
   11.9649  -14.9849   -4.3477 H   0  0  0  0  0  0  0  0  0  0  0  0
   11.7885  -13.9736   -2.2009 H   0  0  0  0  0  0  0  0  0  0  0  0
   10.3307  -11.2727   -2.3123 H   0  0  0  0  0  0  0  0  0  0  0  0
    9.6532  -12.8348   -1.7037 H   0  0  0  0  0  0  0  0  0  0  0  0
   11.4330  -11.0460   -0.5450 H   0  0  0  0  0  0  0  0  0  0  0  0
   12.6649  -11.2500   -3.1766 H   0  0  0  0  0  0  0  0  0  0  0  0
   14.3740  -11.5590   -1.7200 H   0  0  0  0  0  0  0  0  0  0  0  0
   14.0885  -13.9699   -3.2751 H   0  0  0  0  0  0  0  0  0  0  0  0
   14.8250  -11.7340   -4.8080 H   0  0  0  0  0  0  0  0  0  0  0  0
   12.9361  -12.3797   -5.6337 H   0  0  0  0  0  0  0  0  0  0  0  0
   14.9180  -13.9080   -5.5690 H   0  0  0  0  0  0  0  0  0  0  0  0
   11.2329  -15.2311   -8.8254 H   0  0  0  0  0  0  0  0  0  0  0  0
    9.7482  -16.0992   -9.4455 H   0  0  0  0  0  0  0  0  0  0  0  0
   10.0205  -13.1351   -8.8474 H   0  0  0  0  0  0  0  0  0  0  0  0
    9.8751  -13.9423  -10.4672 H   0  0  0  0  0  0  0  0  0  0  0  0
    7.7655  -12.9009   -9.6525 H   0  0  0  0  0  0  0  0  0  0  0  0
    6.8822  -15.6858   -9.6787 H   0  0  0  0  0  0  0  0  0  0  0  0
    6.6654  -14.3887  -10.9023 H   0  0  0  0  0  0  0  0  0  0  0  0
    8.1618  -15.3823  -10.9023 H   0  0  0  0  0  0  0  0  0  0  0  0
  1  2  2  0
  2  3  1  0
  3  4  1  0
  4  5  2  0
  5  6  1  0
  6  7  1  0
  7  8  1  0
  8  9  1  1
  8 10  1  0
 10 11  1  0
 11 12  1  0
 11 13  1  0
 13 14  1  0
 13 15  1  0
 15 16  1  0
 15 17  1  0
 15 18  1  0
 18 19  1  0
 19 20  1  0
 20 21  1  0
 21 22  1  1
 21 23  1  0
 23 24  1  6
 23 25  1  0
 25 26  1  0
 26 27  1  0
 27 28  1  1
 28 29  2  0
 28 30  1  0
 30 31  1  0
 31 32  1  0
 32 33  1  0
 33 34  1  0
 34 35  1  0
 33 36  1  0
 36 37  1  0
 36 38  1  0
 38 39  1  0
 38 40  1  0
 40 41  1  0
 27 42  1  0
 42 43  1  0
 43 44  1  0
 44 45  1  0
 44  2  1  0
 27  3  1  0
 40 31  1  0
 23  4  1  0
 21  7  1  0
 18  8  1  0
  1 46  1  0
  1 47  1  0
  3 48  1  1
  5 49  1  0
  6 50  1  0
  6 51  1  0
  7 52  1  6
  9 53  1  0
  9 54  1  0
  9 55  1  0
 10 56  1  0
 10 57  1  0
 11 58  1  1
 12 59  1  0
 13 60  1  6
 14 61  1  0
 16 62  1  0
 16 63  1  0
 16 64  1  0
 17 65  1  0
 17 66  1  0
 17 67  1  0
 18 68  1  6
 19 69  1  0
 19 70  1  0
 20 71  1  0
 20 72  1  0
 22 73  1  0
 22 74  1  0
 22 75  1  0
 24 76  1  0
 24 77  1  0
 24 78  1  0
 25 79  1  0
 25 80  1  0
 26 81  1  0
 26 82  1  0
 31 83  1  1
 33 84  1  1
 34 85  1  0
 34 86  1  0
 35 87  1  0
 36 88  1  6
 37 89  1  0
 38 90  1  1
 39 91  1  0
 40 92  1  6
 41 93  1  0
 42 94  1  0
 42 95  1  0
 43 96  1  0
 43 97  1  0
 44 98  1  6
 45 99  1  0
 45100  1  0
 45101  1  0
M  END
>  <meeko>  (8) 
{"is_sidechain": [false], "free_energy": -8.423, "intermolecular_energy": -11.345, "internal_energy": -1.449}

$$$$
LIB_ONKDPBFYYUGYFL__M_PUB_ALL__e8__s20260927
     RDKit          3D

101106  0  0  0  0  0  0  0  0999 V2000
    4.7460  -12.6580   -5.4650 C   0  0  0  0  0  0  0  0  0  0  0  0
    4.1370  -12.6350   -4.2620 C   0  0  0  0  0  0  0  0  0  0  0  0
    4.5920  -13.4550   -3.0360 C   0  0  1  0  0  0  0  0  0  0  0  0
    6.0470  -13.9710   -3.1250 C   0  0  0  0  0  0  0  0  0  0  0  0
    6.2640  -15.1860   -3.6700 C   0  0  0  0  0  0  0  0  0  0  0  0
    7.5950  -15.8420   -3.8670 C   0  0  0  0  0  0  0  0  0  0  0  0
    8.8000  -14.9160   -3.5970 C   0  0  2  0  0  0  0  0  0  0  0  0
   10.2230  -15.6310   -3.7220 C   0  0  1  0  0  0  0  0  0  0  0  0
   10.3620  -16.8580   -2.7840 C   0  0  0  0  0  0  0  0  0  0  0  0
   10.3880  -16.1450   -5.1850 C   0  0  0  0  0  0  0  0  0  0  0  0
   11.8060  -16.5860   -5.5340 C   0  0  1  0  0  0  0  0  0  0  0  0
   11.8450  -16.9190   -6.9300 O   0  0  0  0  0  0  0  0  0  0  0  0
   12.8410  -15.4840   -5.2690 C   0  0  2  0  0  0  0  0  0  0  0  0
   14.1250  -16.0260   -5.6150 O   0  0  0  0  0  0  0  0  0  0  0  0
   12.8080  -14.9310   -3.8140 C   0  0  0  0  0  0  0  0  0  0  0  0
   13.4410  -15.9220   -2.8190 C   0  0  0  0  0  0  0  0  0  0  0  0
   13.7030  -13.6600   -3.7780 C   0  0  0  0  0  0  0  0  0  0  0  0
   11.3230  -14.5340   -3.4670 C   0  0  2  0  0  0  0  0  0  0  0  0
   11.1260  -13.8860   -2.0810 C   0  0  0  0  0  0  0  0  0  0  0  0
    9.7850  -13.1500   -2.0240 C   0  0  0  0  0  0  0  0  0  0  0  0
    8.5410  -14.0340   -2.3150 C   0  0  2  0  0  0  0  0  0  0  0  0
    8.3150  -14.9380   -1.0640 C   0  0  0  0  0  0  0  0  0  0  0  0
    7.2080  -13.1120   -2.5760 C   0  0  1  0  0  0  0  0  0  0  0  0
    7.4890  -11.9860   -3.6140 C   0  0  0  0  0  0  0  0  0  0  0  0
    6.7790  -12.4030   -1.2600 C   0  0  0  0  0  0  0  0  0  0  0  0
    5.3900  -11.7660   -1.3080 C   0  0  0  0  0  0  0  0  0  0  0  0
    4.2840  -12.7910   -1.6550 C   0  0  2  0  0  0  0  0  0  0  0  0
    4.1970  -13.9090   -0.5920 C   0  0  0  0  0  0  0  0  0  0  0  0
    4.7910  -13.9020    0.4780 O   0  0  0  0  0  0  0  0  0  0  0  0
    3.4390  -14.9470   -1.0350 O   0  0  0  0  0  0  0  0  0  0  0  0
    2.4070  -15.3770   -0.1370 C   0  0  2  0  0  0  0  0  0  0  0  0
    2.9270  -16.4230    0.6930 O   0  0  0  0  0  0  0  0  0  0  0  0
    1.9620  -16.9180    1.6250 C   0  0  2  0  0  0  0  0  0  0  0  0
    2.6590  -17.9530    2.5190 C   0  0  0  0  0  0  0  0  0  0  0  0
    2.2510  -19.2760    2.1830 O   0  0  0  0  0  0  0  0  0  0  0  0
    0.7590  -17.5310    0.8870 C   0  0  1  0  0  0  0  0  0  0  0  0
   -0.2870  -17.9430    1.7750 O   0  0  0  0  0  0  0  0  0  0  0  0
    0.1660  -16.4970   -0.0720 C   0  0  2  0  0  0  0  0  0  0  0  0
   -0.8610  -17.1020   -0.8750 O   0  0  0  0  0  0  0  0  0  0  0  0
    1.2360  -15.9040   -0.9870 C   0  0  1  0  0  0  0  0  0  0  0  0
    0.6400  -14.8610   -1.7740 O   0  0  0  0  0  0  0  0  0  0  0  0
    2.9020  -12.0760   -1.6070 C   0  0  0  0  0  0  0  0  0  0  0  0
    2.0650  -12.2750   -2.8640 C   0  0  0  0  0  0  0  0  0  0  0  0
    2.8270  -11.8730   -4.1310 C   0  0  1  0  0  0  0  0  0  0  0  0
    3.0410  -10.3550   -4.2040 C   0  0  0  0  0  0  0  0  0  0  0  0
    4.3580  -12.0422   -6.2897 H   0  0  0  0  0  0  0  0  0  0  0  0
    5.6307  -13.2926   -5.6215 H   0  0  0  0  0  0  0  0  0  0  0  0
    3.9489  -14.3463   -3.0814 H   0  0  0  0  0  0  0  0  0  0  0  0
    5.3784  -15.7481   -4.0012 H   0  0  0  0  0  0  0  0  0  0  0  0
    7.6606  -16.7022   -3.1845 H   0  0  0  0  0  0  0  0  0  0  0  0
    7.6508  -16.1347   -4.9259 H   0  0  0  0  0  0  0  0  0  0  0  0
    8.8799  -14.1945   -4.4235 H   0  0  0  0  0  0  0  0  0  0  0  0
   10.3243  -16.5248   -1.7364 H   0  0  0  0  0  0  0  0  0  0  0  0
    9.5377  -17.5609   -2.9751 H   0  0  0  0  0  0  0  0  0  0  0  0
   11.3226  -17.3587   -2.9751 H   0  0  0  0  0  0  0  0  0  0  0  0
    9.7144  -17.0029   -5.3278 H   0  0  0  0  0  0  0  0  0  0  0  0
   10.1465  -15.3004   -5.8471 H   0  0  0  0  0  0  0  0  0  0  0  0
   12.0596  -17.4478   -4.8992 H   0  0  0  0  0  0  0  0  0  0  0  0
   12.2000  -17.8300   -6.9550 H   0  0  0  0  0  0  0  0  0  0  0  0
   12.6052  -14.6054   -5.8874 H   0  0  0  0  0  0  0  0  0  0  0  0
   14.1400  -16.1510   -6.5800 H   0  0  0  0  0  0  0  0  0  0  0  0
   13.2311  -15.5933   -1.7905 H   0  0  0  0  0  0  0  0  0  0  0  0
   13.0151  -16.9236   -2.9780 H   0  0  0  0  0  0  0  0  0  0  0  0
   14.5289  -15.9567   -2.9780 H   0  0  0  0  0  0  0  0  0  0  0  0
   13.9002  -13.3799   -2.7327 H   0  0  0  0  0  0  0  0  0  0  0  0
   14.6553  -13.8676   -4.2879 H   0  0  0  0  0  0  0  0  0  0  0  0
   13.1866  -12.8334   -4.2879 H   0  0  0  0  0  0  0  0  0  0  0  0
   11.1525  -13.7565   -4.2262 H   0  0  0  0  0  0  0  0  0  0  0  0
   11.1432  -14.6691   -1.3086 H   0  0  0  0  0  0  0  0  0  0  0  0
   11.9376  -13.1647   -1.9048 H   0  0  0  0  0  0  0  0  0  0  0  0
    9.6724  -12.7225   -1.0168 H   0  0  0  0  0  0  0  0  0  0  0  0
    9.8161  -12.3899   -2.8185 H   0  0  0  0  0  0  0  0  0  0  0  0
    8.4636  -14.3436   -0.1504 H   0  0  0  0  0  0  0  0  0  0  0  0
    7.2897  -15.3361   -1.0797 H   0  0  0  0  0  0  0  0  0  0  0  0
    9.0323  -15.7718   -1.0797 H   0  0  0  0  0  0  0  0  0  0  0  0
    7.7226  -11.0500   -3.0854 H   0  0  0  0  0  0  0  0  0  0  0  0
    8.3429  -12.2737   -4.2449 H   0  0  0  0  0  0  0  0  0  0  0  0
    6.6001  -11.8388   -4.2449 H   0  0  0  0  0  0  0  0  0  0  0  0
    6.7882  -13.1471   -0.4499 H   0  0  0  0  0  0  0  0  0  0  0  0
    7.4943  -11.5831   -1.0983 H   0  0  0  0  0  0  0  0  0  0  0  0
    5.1685  -11.3264   -0.3243 H   0  0  0  0  0  0  0  0  0  0  0  0
    5.3986  -11.0007   -2.0981 H   0  0  0  0  0  0  0  0  0  0  0  0
    2.0627  -14.5515    0.5033 H   0  0  0  0  0  0  0  0  0  0  0  0
    1.5702  -16.0979    2.2447 H   0  0  0  0  0  0  0  0  0  0  0  0
    3.7476  -17.8678    2.3864 H   0  0  0  0  0  0  0  0  0  0  0  0
    2.3813  -17.7559    3.5650 H   0  0  0  0  0  0  0  0  0  0  0  0
    1.7180  -19.2020    1.3690 H   0  0  0  0  0  0  0  0  0  0  0  0
    1.1371  -18.4165    0.3550 H   0  0  0  0  0  0  0  0  0  0  0  0
    0.1350  -18.5190    2.4520 H   0  0  0  0  0  0  0  0  0  0  0  0
   -0.2615  -15.6858    0.5356 H   0  0  0  0  0  0  0  0  0  0  0  0
   -0.4490  -17.2220   -1.7560 H   0  0  0  0  0  0  0  0  0  0  0  0
    1.6362  -16.6708   -1.6666 H   0  0  0  0  0  0  0  0  0  0  0  0
    1.0760  -14.0380   -1.4750 H   0  0  0  0  0  0  0  0  0  0  0  0
    2.3376  -12.4686   -0.7483 H   0  0  0  0  0  0  0  0  0  0  0  0
    3.1011  -10.9976   -1.5211 H   0  0  0  0  0  0  0  0  0  0  0  0
    1.7849  -13.3360   -2.9398 H   0  0  0  0  0  0  0  0  0  0  0  0
    1.1753  -11.6330   -2.7847 H   0  0  0  0  0  0  0  0  0  0  0  0
    2.2021  -12.1533   -4.9918 H   0  0  0  0  0  0  0  0  0  0  0  0
    3.0990   -9.9435   -3.1855 H   0  0  0  0  0  0  0  0  0  0  0  0
    3.9780  -10.1421   -4.7394 H   0  0  0  0  0  0  0  0  0  0  0  0
    2.1993   -9.8914   -4.7394 H   0  0  0  0  0  0  0  0  0  0  0  0
  1  2  2  0
  2  3  1  0
  3  4  1  0
  4  5  2  0
  5  6  1  0
  6  7  1  0
  7  8  1  0
  8  9  1  1
  8 10  1  0
 10 11  1  0
 11 12  1  0
 11 13  1  0
 13 14  1  0
 13 15  1  0
 15 16  1  0
 15 17  1  0
 15 18  1  0
 18 19  1  0
 19 20  1  0
 20 21  1  0
 21 22  1  1
 21 23  1  0
 23 24  1  6
 23 25  1  0
 25 26  1  0
 26 27  1  0
 27 28  1  1
 28 29  2  0
 28 30  1  0
 30 31  1  0
 31 32  1  0
 32 33  1  0
 33 34  1  0
 34 35  1  0
 33 36  1  0
 36 37  1  0
 36 38  1  0
 38 39  1  0
 38 40  1  0
 40 41  1  0
 27 42  1  0
 42 43  1  0
 43 44  1  0
 44 45  1  0
 44  2  1  0
 27  3  1  0
 40 31  1  0
 23  4  1  0
 21  7  1  0
 18  8  1  0
  1 46  1  0
  1 47  1  0
  3 48  1  1
  5 49  1  0
  6 50  1  0
  6 51  1  0
  7 52  1  6
  9 53  1  0
  9 54  1  0
  9 55  1  0
 10 56  1  0
 10 57  1  0
 11 58  1  1
 12 59  1  0
 13 60  1  6
 14 61  1  0
 16 62  1  0
 16 63  1  0
 16 64  1  0
 17 65  1  0
 17 66  1  0
 17 67  1  0
 18 68  1  6
 19 69  1  0
 19 70  1  0
 20 71  1  0
 20 72  1  0
 22 73  1  0
 22 74  1  0
 22 75  1  0
 24 76  1  0
 24 77  1  0
 24 78  1  0
 25 79  1  0
 25 80  1  0
 26 81  1  0
 26 82  1  0
 31 83  1  1
 33 84  1  1
 34 85  1  0
 34 86  1  0
 35 87  1  0
 36 88  1  6
 37 89  1  0
 38 90  1  1
 39 91  1  0
 40 92  1  6
 41 93  1  0
 42 94  1  0
 42 95  1  0
 43 96  1  0
 43 97  1  0
 44 98  1  6
 45 99  1  0
 45100  1  0
 45101  1  0
M  END
>  <meeko>  (9) 
{"is_sidechain": [false], "free_energy": -8.388, "intermolecular_energy": -11.89, "internal_energy": -0.856}

$$$$
