LIB_FLHLHIWGNRUPHK__M_PUB_ALL__e8__s20260927
     RDKit          3D

 59 63  0  0  0  0  0  0  0  0999 V2000
   -1.4690  -11.9640    3.4800 C   0  0  0  0  0  0  0  0  0  0  0  0
   -1.0010  -12.6560    2.2500 C   0  0  0  0  0  0  0  0  0  0  0  0
    0.2240  -12.2790    1.7100 N   0  0  0  0  0  0  0  0  0  0  0  0
    0.4730  -13.0090    0.6430 C   0  0  0  0  0  0  0  0  0  0  0  0
    1.8120  -12.8200   -0.1750 C   0  0  0  0  0  0  0  0  0  0  0  0
    3.0840  -12.6940    0.4090 C   0  0  0  0  0  0  0  0  0  0  0  0
    3.9770  -12.5910   -0.6420 C   0  0  0  0  0  0  0  0  0  0  0  0
    5.4320  -12.6050   -0.5520 C   0  0  0  0  0  0  0  0  0  0  0  0
    6.1350  -11.4510   -0.1810 C   0  0  0  0  0  0  0  0  0  0  0  0
    7.5310  -11.4640   -0.1140 C   0  0  0  0  0  0  0  0  0  0  0  0
    8.2270  -12.6290   -0.4310 C   0  0  0  0  0  0  0  0  0  0  0  0
    9.9460  -12.6460   -0.3470 Cl  0  0  0  0  0  0  0  0  0  0  0  0
    7.5420  -13.7780   -0.8190 C   0  0  0  0  0  0  0  0  0  0  0  0
    6.1470  -13.7650   -0.8850 C   0  0  0  0  0  0  0  0  0  0  0  0
    3.1910  -12.5580   -1.7980 N   0  0  0  0  0  0  0  0  0  0  0  0
    3.5500  -12.3110   -3.1640 C   0  0  0  0  0  0  0  0  0  0  0  0
    3.3380  -11.0720   -3.7860 C   0  0  0  0  0  0  0  0  0  0  0  0
    3.7050  -10.8840   -5.1230 C   0  0  0  0  0  0  0  0  0  0  0  0
    4.2700  -11.9300   -5.8420 C   0  0  0  0  0  0  0  0  0  0  0  0
    4.6160  -11.7390   -7.1210 F   0  0  0  0  0  0  0  0  0  0  0  0
    4.4690  -13.1700   -5.2530 C   0  0  0  0  0  0  0  0  0  0  0  0
    4.1040  -13.3640   -3.9180 C   0  0  0  0  0  0  0  0  0  0  0  0
    1.8820  -12.7880   -1.5080 N   0  0  0  0  0  0  0  0  0  0  0  0
   -0.7270  -14.1460    0.2130 S   0  0  0  0  0  0  0  0  0  0  0  0
   -1.6650  -13.6790    1.5790 C   0  0  0  0  0  0  0  0  0  0  0  0
   -2.9570  -14.2650    1.9280 C   0  0  0  0  0  0  0  0  0  0  0  0
   -4.0190  -13.7390    1.5930 O   0  0  0  0  0  0  0  0  0  0  0  0
   -2.8360  -15.3820    2.6650 N   0  0  0  0  0  0  0  0  0  0  0  0
   -3.8160  -15.4300    3.7830 N   0  0  0  0  0  0  0  0  0  0  0  0
   -4.0230  -16.5130    4.5570 C   0  0  0  0  0  0  0  0  0  0  0  0
   -5.4810  -16.6830    5.3670 S   0  0  0  0  0  0  0  0  0  0  0  0
   -3.0870  -17.5050    4.6860 N   0  0  0  0  0  0  0  0  0  0  0  0
   -1.7220  -17.6560    4.4500 C   0  0  0  0  0  0  0  0  0  0  0  0
   -1.2660  -18.7890    4.2580 O   0  0  0  0  0  0  0  0  0  0  0  0
   -0.7790  -16.5100    4.5540 C   0  0  0  0  0  0  0  0  0  0  0  0
    0.2020  -16.3680    3.5610 C   0  0  0  0  0  0  0  0  0  0  0  0
    1.1330  -15.3290    3.6300 C   0  0  0  0  0  0  0  0  0  0  0  0
    1.1010  -14.4370    4.7000 C   0  0  0  0  0  0  0  0  0  0  0  0
    0.1460  -14.5890    5.7060 C   0  0  0  0  0  0  0  0  0  0  0  0
   -0.7840  -15.6290    5.6410 C   0  0  0  0  0  0  0  0  0  0  0  0
   -1.1038  -12.5040    4.3660 H   0  0  0  0  0  0  0  0  0  0  0  0
   -1.0807  -10.9349    3.4920 H   0  0  0  0  0  0  0  0  0  0  0  0
   -2.5687  -11.9412    3.4920 H   0  0  0  0  0  0  0  0  0  0  0  0
    3.3210  -12.6801    1.4831 H   0  0  0  0  0  0  0  0  0  0  0  0
    5.5848  -10.5292    0.0590 H   0  0  0  0  0  0  0  0  0  0  0  0
    8.0780  -10.5586    0.1877 H   0  0  0  0  0  0  0  0  0  0  0  0
    8.0979  -14.6927   -1.0726 H   0  0  0  0  0  0  0  0  0  0  0  0
    5.6059  -14.6695   -1.1999 H   0  0  0  0  0  0  0  0  0  0  0  0
    2.8819  -10.2457   -3.2211 H   0  0  0  0  0  0  0  0  0  0  0  0
    3.5462   -9.9080   -5.6049 H   0  0  0  0  0  0  0  0  0  0  0  0
    4.9107  -13.9943   -5.8322 H   0  0  0  0  0  0  0  0  0  0  0  0
    4.2508  -14.3492   -3.4512 H   0  0  0  0  0  0  0  0  0  0  0  0
   -4.4910  -14.6690    3.7670 H   0  0  0  0  0  0  0  0  0  0  0  0
   -3.5060  -18.3810    4.9540 H   0  0  0  0  0  0  0  0  0  0  0  0
    0.2382  -17.0794    2.7228 H   0  0  0  0  0  0  0  0  0  0  0  0
    1.8905  -15.2151    2.8406 H   0  0  0  0  0  0  0  0  0  0  0  0
    1.8283  -13.6133    4.7516 H   0  0  0  0  0  0  0  0  0  0  0  0
    0.1256  -13.8874    6.5530 H   0  0  0  0  0  0  0  0  0  0  0  0
   -1.5223  -15.7558    6.4465 H   0  0  0  0  0  0  0  0  0  0  0  0
  1  2  1  0
  2  3  1  0
  3  4  2  0
  4  5  1  0
  5  6  1  0
  6  7  2  0
  7  8  1  0
  8  9  2  0
  9 10  1  0
 10 11  2  0
 11 12  1  0
 11 13  1  0
 13 14  2  0
  7 15  1  0
 15 16  1  0
 16 17  2  0
 17 18  1  0
 18 19  2  0
 19 20  1  0
 19 21  1  0
 21 22  2  0
 15 23  1  0
  4 24  1  0
 24 25  1  0
 25 26  1  0
 26 27  2  0
 26 28  1  0
 28 29  1  0
 29 30  1  0
 30 31  2  0
 30 32  1  0
 32 33  1  0
 33 34  2  0
 33 35  1  0
 35 36  2  0
 36 37  1  0
 37 38  2  0
 38 39  1  0
 39 40  2  0
 25  2  2  0
 40 35  1  0
 23  5  2  0
 14  8  1  0
 22 16  1  0
  1 41  1  0
  1 42  1  0
  1 43  1  0
  6 44  1  0
  9 45  1  0
 10 46  1  0
 13 47  1  0
 14 48  1  0
 17 49  1  0
 18 50  1  0
 21 51  1  0
 22 52  1  0
 29 53  1  0
 32 54  1  0
 36 55  1  0
 37 56  1  0
 38 57  1  0
 39 58  1  0
 40 59  1  0
M  CHG  1  28  -1
M  END
>  <meeko>  (1) 
{"is_sidechain": [false], "free_energy": -8.33, "intermolecular_energy": -11.738, "internal_energy": -2.436}

$$$$
LIB_FLHLHIWGNRUPHK__M_PUB_ALL__e8__s20260927
     RDKit          3D

 59 63  0  0  0  0  0  0  0  0999 V2000
    0.3610  -16.6430   -0.8240 C   0  0  0  0  0  0  0  0  0  0  0  0
    1.0430  -15.3710   -1.1820 C   0  0  0  0  0  0  0  0  0  0  0  0
    2.1980  -15.4410   -1.9540 N   0  0  0  0  0  0  0  0  0  0  0  0
    2.6440  -14.2230   -2.1790 C   0  0  0  0  0  0  0  0  0  0  0  0
    3.9400  -13.9820   -3.0520 C   0  0  0  0  0  0  0  0  0  0  0  0
    4.0010  -14.1640   -4.4440 C   0  0  0  0  0  0  0  0  0  0  0  0
    5.2840  -13.8110   -4.8190 C   0  0  0  0  0  0  0  0  0  0  0  0
    5.7870  -13.6750   -6.1810 C   0  0  0  0  0  0  0  0  0  0  0  0
    5.3860  -12.5990   -6.9850 C   0  0  0  0  0  0  0  0  0  0  0  0
    5.8550  -12.4820   -8.2960 C   0  0  0  0  0  0  0  0  0  0  0  0
    6.7170  -13.4490   -8.8100 C   0  0  0  0  0  0  0  0  0  0  0  0
    7.2970  -13.3050  -10.4230 Cl  0  0  0  0  0  0  0  0  0  0  0  0
    7.1090  -14.5330   -8.0280 C   0  0  0  0  0  0  0  0  0  0  0  0
    6.6410  -14.6490   -6.7170 C   0  0  0  0  0  0  0  0  0  0  0  0
    5.9590  -13.5350   -3.6260 N   0  0  0  0  0  0  0  0  0  0  0  0
    7.3450  -13.2670   -3.3790 C   0  0  0  0  0  0  0  0  0  0  0  0
    7.8930  -11.9800   -3.4800 C   0  0  0  0  0  0  0  0  0  0  0  0
    9.2540  -11.7730   -3.2300 C   0  0  0  0  0  0  0  0  0  0  0  0
   10.0690  -12.8450   -2.8910 C   0  0  0  0  0  0  0  0  0  0  0  0
   11.3710  -12.6350   -2.6550 F   0  0  0  0  0  0  0  0  0  0  0  0
    9.5530  -14.1290   -2.8060 C   0  0  0  0  0  0  0  0  0  0  0  0
    8.1950  -14.3430   -3.0550 C   0  0  0  0  0  0  0  0  0  0  0  0
    5.1080  -13.5550   -2.5650 N   0  0  0  0  0  0  0  0  0  0  0  0
    1.7480  -12.9510   -1.4750 S   0  0  0  0  0  0  0  0  0  0  0  0
    0.6270  -14.0900   -0.8350 C   0  0  0  0  0  0  0  0  0  0  0  0
   -0.5440  -13.7300   -0.0380 C   0  0  0  0  0  0  0  0  0  0  0  0
   -1.6820  -14.0600   -0.3740 O   0  0  0  0  0  0  0  0  0  0  0  0
   -0.2300  -12.9910    1.0380 N   0  0  0  0  0  0  0  0  0  0  0  0
   -0.3650  -13.7540    2.3080 N   0  0  0  0  0  0  0  0  0  0  0  0
   -0.4860  -13.1820    3.5210 C   0  0  0  0  0  0  0  0  0  0  0  0
   -0.0560  -14.0490    4.8890 S   0  0  0  0  0  0  0  0  0  0  0  0
   -0.9260  -11.8940    3.6770 N   0  0  0  0  0  0  0  0  0  0  0  0
   -1.6140  -10.9510    2.9160 C   0  0  0  0  0  0  0  0  0  0  0  0
   -1.4760   -9.7510    3.1750 O   0  0  0  0  0  0  0  0  0  0  0  0
   -2.6120  -11.3540    1.8890 C   0  0  0  0  0  0  0  0  0  0  0  0
   -2.6310  -10.6530    0.6730 C   0  0  0  0  0  0  0  0  0  0  0  0
   -3.5690  -10.9700   -0.3110 C   0  0  0  0  0  0  0  0  0  0  0  0
   -4.5070  -11.9750   -0.0800 C   0  0  0  0  0  0  0  0  0  0  0  0
   -4.5120  -12.6570    1.1360 C   0  0  0  0  0  0  0  0  0  0  0  0
   -3.5760  -12.3410    2.1230 C   0  0  0  0  0  0  0  0  0  0  0  0
    0.3108  -16.7366    0.2709 H   0  0  0  0  0  0  0  0  0  0  0  0
   -0.6577  -16.6423   -1.2390 H   0  0  0  0  0  0  0  0  0  0  0  0
    0.9254  -17.4911   -1.2390 H   0  0  0  0  0  0  0  0  0  0  0  0
    3.1924  -14.5158   -5.1016 H   0  0  0  0  0  0  0  0  0  0  0  0
    4.6977  -11.8419   -6.5812 H   0  0  0  0  0  0  0  0  0  0  0  0
    5.5452  -11.6304   -8.9196 H   0  0  0  0  0  0  0  0  0  0  0  0
    7.7852  -15.2956   -8.4417 H   0  0  0  0  0  0  0  0  0  0  0  0
    6.9441  -15.5091   -6.1020 H   0  0  0  0  0  0  0  0  0  0  0  0
    7.2509  -11.1308   -3.7566 H   0  0  0  0  0  0  0  0  0  0  0  0
    9.6785  -10.7608   -3.3020 H   0  0  0  0  0  0  0  0  0  0  0  0
   10.2080  -14.9731   -2.5444 H   0  0  0  0  0  0  0  0  0  0  0  0
    7.7851  -15.3622   -2.9975 H   0  0  0  0  0  0  0  0  0  0  0  0
   -0.1140  -14.7360    2.2220 H   0  0  0  0  0  0  0  0  0  0  0  0
   -0.6060  -11.4930    4.5440 H   0  0  0  0  0  0  0  0  0  0  0  0
   -1.9021   -9.8488    0.4944 H   0  0  0  0  0  0  0  0  0  0  0  0
   -3.5680  -10.4273   -1.2678 H   0  0  0  0  0  0  0  0  0  0  0  0
   -5.2429  -12.2299   -0.8568 H   0  0  0  0  0  0  0  0  0  0  0  0
   -5.2557  -13.4466    1.3186 H   0  0  0  0  0  0  0  0  0  0  0  0
   -3.5965  -12.8696    3.0874 H   0  0  0  0  0  0  0  0  0  0  0  0
  1  2  1  0
  2  3  1  0
  3  4  2  0
  4  5  1  0
  5  6  1  0
  6  7  2  0
  7  8  1  0
  8  9  2  0
  9 10  1  0
 10 11  2  0
 11 12  1  0
 11 13  1  0
 13 14  2  0
  7 15  1  0
 15 16  1  0
 16 17  2  0
 17 18  1  0
 18 19  2  0
 19 20  1  0
 19 21  1  0
 21 22  2  0
 15 23  1  0
  4 24  1  0
 24 25  1  0
 25 26  1  0
 26 27  2  0
 26 28  1  0
 28 29  1  0
 29 30  1  0
 30 31  2  0
 30 32  1  0
 32 33  1  0
 33 34  2  0
 33 35  1  0
 35 36  2  0
 36 37  1  0
 37 38  2  0
 38 39  1  0
 39 40  2  0
 25  2  2  0
 40 35  1  0
 23  5  2  0
 14  8  1  0
 22 16  1  0
  1 41  1  0
  1 42  1  0
  1 43  1  0
  6 44  1  0
  9 45  1  0
 10 46  1  0
 13 47  1  0
 14 48  1  0
 17 49  1  0
 18 50  1  0
 21 51  1  0
 22 52  1  0
 29 53  1  0
 32 54  1  0
 36 55  1  0
 37 56  1  0
 38 57  1  0
 39 58  1  0
 40 59  1  0
M  CHG  1  28  -1
M  END
>  <meeko>  (2) 
{"is_sidechain": [false], "free_energy": -8.301, "intermolecular_energy": -12.284, "internal_energy": -1.85}

$$$$
LIB_FLHLHIWGNRUPHK__M_PUB_ALL__e8__s20260927
     RDKit          3D

 59 63  0  0  0  0  0  0  0  0999 V2000
    2.1350  -11.0820   -2.5680 C   0  0  0  0  0  0  0  0  0  0  0  0
    3.0480  -11.6690   -1.5520 C   0  0  0  0  0  0  0  0  0  0  0  0
    4.3210  -12.0560   -1.9590 N   0  0  0  0  0  0  0  0  0  0  0  0
    4.9810  -12.5330   -0.9250 C   0  0  0  0  0  0  0  0  0  0  0  0
    6.4730  -13.0350   -1.0770 C   0  0  0  0  0  0  0  0  0  0  0  0
    6.8330  -14.3410   -1.4490 C   0  0  0  0  0  0  0  0  0  0  0  0
    8.2150  -14.3540   -1.5060 C   0  0  0  0  0  0  0  0  0  0  0  0
    9.0560  -15.4350   -2.0060 C   0  0  0  0  0  0  0  0  0  0  0  0
    9.5290  -15.4190   -3.3250 C   0  0  0  0  0  0  0  0  0  0  0  0
   10.3200  -16.4670   -3.8050 C   0  0  0  0  0  0  0  0  0  0  0  0
   10.6270  -17.5390   -2.9700 C   0  0  0  0  0  0  0  0  0  0  0  0
   11.6020  -18.8280   -3.5600 Cl  0  0  0  0  0  0  0  0  0  0  0  0
   10.1480  -17.5770   -1.6630 C   0  0  0  0  0  0  0  0  0  0  0  0
    9.3590  -16.5290   -1.1820 C   0  0  0  0  0  0  0  0  0  0  0  0
    8.6180  -13.0890   -1.0670 N   0  0  0  0  0  0  0  0  0  0  0  0
    9.9230  -12.5760   -0.7730 C   0  0  0  0  0  0  0  0  0  0  0  0
   10.9360  -12.4950   -1.7400 C   0  0  0  0  0  0  0  0  0  0  0  0
   12.1950  -11.9880   -1.4000 C   0  0  0  0  0  0  0  0  0  0  0  0
   12.4480  -11.5720   -0.0990 C   0  0  0  0  0  0  0  0  0  0  0  0
   13.6570  -11.0890    0.2150 F   0  0  0  0  0  0  0  0  0  0  0  0
   11.4680  -11.6630    0.8780 C   0  0  0  0  0  0  0  0  0  0  0  0
   10.2100  -12.1690    0.5460 C   0  0  0  0  0  0  0  0  0  0  0  0
    7.5490  -12.2660   -0.8940 N   0  0  0  0  0  0  0  0  0  0  0  0
    4.1330  -12.5740    0.5560 S   0  0  0  0  0  0  0  0  0  0  0  0
    2.7650  -11.8570   -0.2040 C   0  0  0  0  0  0  0  0  0  0  0  0
    1.5150  -11.5400    0.4850 C   0  0  0  0  0  0  0  0  0  0  0  0
    1.1640  -10.3770    0.6860 O   0  0  0  0  0  0  0  0  0  0  0  0
    0.8530  -12.6370    0.8870 N   0  0  0  0  0  0  0  0  0  0  0  0
    0.2570  -13.3860   -0.2510 N   0  0  0  0  0  0  0  0  0  0  0  0
   -0.6880  -14.3370   -0.1150 C   0  0  0  0  0  0  0  0  0  0  0  0
   -0.8730  -15.4950   -1.3120 S   0  0  0  0  0  0  0  0  0  0  0  0
   -1.4930  -14.4090    0.9910 N   0  0  0  0  0  0  0  0  0  0  0  0
   -1.8720  -13.5660    2.0340 C   0  0  0  0  0  0  0  0  0  0  0  0
   -2.2620  -14.0610    3.0970 O   0  0  0  0  0  0  0  0  0  0  0  0
   -1.9460  -12.0900    1.8590 C   0  0  0  0  0  0  0  0  0  0  0  0
   -1.5150  -11.2760    2.9170 C   0  0  0  0  0  0  0  0  0  0  0  0
   -1.5940   -9.8850    2.8160 C   0  0  0  0  0  0  0  0  0  0  0  0
   -2.1230   -9.3000    1.6670 C   0  0  0  0  0  0  0  0  0  0  0  0
   -2.5790  -10.1040    0.6220 C   0  0  0  0  0  0  0  0  0  0  0  0
   -2.5030  -11.4950    0.7210 C   0  0  0  0  0  0  0  0  0  0  0  0
    1.3137  -10.5540   -2.0614 H   0  0  0  0  0  0  0  0  0  0  0  0
    2.6936  -10.3734   -3.1971 H   0  0  0  0  0  0  0  0  0  0  0  0
    1.7222  -11.8843   -3.1971 H   0  0  0  0  0  0  0  0  0  0  0  0
    6.1541  -15.1820   -1.6533 H   0  0  0  0  0  0  0  0  0  0  0  0
    9.2765  -14.5771   -3.9864 H   0  0  0  0  0  0  0  0  0  0  0  0
   10.6984  -16.4452   -4.8376 H   0  0  0  0  0  0  0  0  0  0  0  0
   10.3900  -18.4294   -1.0113 H   0  0  0  0  0  0  0  0  0  0  0  0
    8.9736  -16.5620   -0.1522 H   0  0  0  0  0  0  0  0  0  0  0  0
   10.7399  -12.8311   -2.7689 H   0  0  0  0  0  0  0  0  0  0  0  0
   12.9844  -11.9188   -2.1629 H   0  0  0  0  0  0  0  0  0  0  0  0
   11.6805  -11.3387    1.9074 H   0  0  0  0  0  0  0  0  0  0  0  0
    9.4344  -12.2510    1.3217 H   0  0  0  0  0  0  0  0  0  0  0  0
    0.7870  -13.3040   -1.1160 H   0  0  0  0  0  0  0  0  0  0  0  0
   -1.8520  -15.3390    1.1310 H   0  0  0  0  0  0  0  0  0  0  0  0
   -1.1124  -11.7358    3.8316 H   0  0  0  0  0  0  0  0  0  0  0  0
   -1.2390   -9.2520    3.6426 H   0  0  0  0  0  0  0  0  0  0  0  0
   -2.1810   -8.2047    1.5841 H   0  0  0  0  0  0  0  0  0  0  0  0
   -2.9997   -9.6409   -0.2827 H   0  0  0  0  0  0  0  0  0  0  0  0
   -2.8819  -12.1247   -0.0975 H   0  0  0  0  0  0  0  0  0  0  0  0
  1  2  1  0
  2  3  1  0
  3  4  2  0
  4  5  1  0
  5  6  1  0
  6  7  2  0
  7  8  1  0
  8  9  2  0
  9 10  1  0
 10 11  2  0
 11 12  1  0
 11 13  1  0
 13 14  2  0
  7 15  1  0
 15 16  1  0
 16 17  2  0
 17 18  1  0
 18 19  2  0
 19 20  1  0
 19 21  1  0
 21 22  2  0
 15 23  1  0
  4 24  1  0
 24 25  1  0
 25 26  1  0
 26 27  2  0
 26 28  1  0
 28 29  1  0
 29 30  1  0
 30 31  2  0
 30 32  1  0
 32 33  1  0
 33 34  2  0
 33 35  1  0
 35 36  2  0
 36 37  1  0
 37 38  2  0
 38 39  1  0
 39 40  2  0
 25  2  2  0
 40 35  1  0
 23  5  2  0
 14  8  1  0
 22 16  1  0
  1 41  1  0
  1 42  1  0
  1 43  1  0
  6 44  1  0
  9 45  1  0
 10 46  1  0
 13 47  1  0
 14 48  1  0
 17 49  1  0
 18 50  1  0
 21 51  1  0
 22 52  1  0
 29 53  1  0
 32 54  1  0
 36 55  1  0
 37 56  1  0
 38 57  1  0
 39 58  1  0
 40 59  1  0
M  CHG  1  28  -1
M  END
>  <meeko>  (3) 
{"is_sidechain": [false], "free_energy": -8.258, "intermolecular_energy": -12.251, "internal_energy": -1.822}

$$$$
LIB_FLHLHIWGNRUPHK__M_PUB_ALL__e8__s20260927
     RDKit          3D

 59 63  0  0  0  0  0  0  0  0999 V2000
    0.7310  -10.2000   -1.0650 C   0  0  0  0  0  0  0  0  0  0  0  0
    1.4970  -11.4590   -1.2660 C   0  0  0  0  0  0  0  0  0  0  0  0
    2.6360  -11.4150   -2.0630 N   0  0  0  0  0  0  0  0  0  0  0  0
    3.1820  -12.6120   -2.1070 C   0  0  0  0  0  0  0  0  0  0  0  0
    4.5110  -12.8670   -2.9250 C   0  0  0  0  0  0  0  0  0  0  0  0
    5.8040  -12.7050   -2.4030 C   0  0  0  0  0  0  0  0  0  0  0  0
    6.6730  -13.0660   -3.4160 C   0  0  0  0  0  0  0  0  0  0  0  0
    8.1190  -13.2220   -3.3100 C   0  0  0  0  0  0  0  0  0  0  0  0
    8.9690  -12.1190   -3.4690 C   0  0  0  0  0  0  0  0  0  0  0  0
   10.3550  -12.2770   -3.3840 C   0  0  0  0  0  0  0  0  0  0  0  0
   10.8940  -13.5410   -3.1530 C   0  0  0  0  0  0  0  0  0  0  0  0
   12.6000  -13.7360   -3.0470 Cl  0  0  0  0  0  0  0  0  0  0  0  0
   10.0610  -14.6490   -3.0110 C   0  0  0  0  0  0  0  0  0  0  0  0
    8.6760  -14.4910   -3.0940 C   0  0  0  0  0  0  0  0  0  0  0  0
    5.8630  -13.3270   -4.5260 N   0  0  0  0  0  0  0  0  0  0  0  0
    6.2090  -13.5950   -5.8910 C   0  0  0  0  0  0  0  0  0  0  0  0
    5.8190  -12.7570   -6.9450 C   0  0  0  0  0  0  0  0  0  0  0  0
    6.1810  -13.0650   -8.2610 C   0  0  0  0  0  0  0  0  0  0  0  0
    6.9200  -14.2110   -8.5280 C   0  0  0  0  0  0  0  0  0  0  0  0
    7.2600  -14.4970   -9.7910 F   0  0  0  0  0  0  0  0  0  0  0  0
    7.2990  -15.0650   -7.5030 C   0  0  0  0  0  0  0  0  0  0  0  0
    6.9390  -14.7630   -6.1880 C   0  0  0  0  0  0  0  0  0  0  0  0
    4.5460  -13.2900   -4.1910 N   0  0  0  0  0  0  0  0  0  0  0  0
    2.3720  -13.8410   -1.2420 S   0  0  0  0  0  0  0  0  0  0  0  0
    1.1990  -12.6990   -0.7100 C   0  0  0  0  0  0  0  0  0  0  0  0
    0.0710  -13.0250    0.1610 C   0  0  0  0  0  0  0  0  0  0  0  0
   -0.8560  -13.7400   -0.2210 O   0  0  0  0  0  0  0  0  0  0  0  0
    0.1580  -12.4330    1.3630 N   0  0  0  0  0  0  0  0  0  0  0  0
   -0.1260  -13.3750    2.4790 N   0  0  0  0  0  0  0  0  0  0  0  0
   -0.4800  -12.9880    3.7200 C   0  0  0  0  0  0  0  0  0  0  0  0
   -0.2160  -14.0200    5.0130 S   0  0  0  0  0  0  0  0  0  0  0  0
   -1.0280  -11.7580    3.9690 N   0  0  0  0  0  0  0  0  0  0  0  0
   -1.6490  -10.7490    3.2340 C   0  0  0  0  0  0  0  0  0  0  0  0
   -1.6380   -9.5930    3.6690 O   0  0  0  0  0  0  0  0  0  0  0  0
   -2.4380  -11.0480    2.0090 C   0  0  0  0  0  0  0  0  0  0  0  0
   -2.3380  -10.1630    0.9250 C   0  0  0  0  0  0  0  0  0  0  0  0
   -3.0830  -10.3800   -0.2360 C   0  0  0  0  0  0  0  0  0  0  0  0
   -3.9480  -11.4700   -0.3140 C   0  0  0  0  0  0  0  0  0  0  0  0
   -4.0730  -12.3390    0.7700 C   0  0  0  0  0  0  0  0  0  0  0  0
   -3.3310  -12.1230    1.9330 C   0  0  0  0  0  0  0  0  0  0  0  0
    0.6150  -10.0094    0.0121 H   0  0  0  0  0  0  0  0  0  0  0  0
    1.2730   -9.3629   -1.5292 H   0  0  0  0  0  0  0  0  0  0  0  0
   -0.2615  -10.2966   -1.5292 H   0  0  0  0  0  0  0  0  0  0  0  0
    6.0715  -12.3607   -1.3931 H   0  0  0  0  0  0  0  0  0  0  0  0
    8.5428  -11.1234   -3.6618 H   0  0  0  0  0  0  0  0  0  0  0  0
   11.0179  -11.4068   -3.4990 H   0  0  0  0  0  0  0  0  0  0  0  0
   10.4931  -15.6450   -2.8341 H   0  0  0  0  0  0  0  0  0  0  0  0
    8.0183  -15.3665   -2.9894 H   0  0  0  0  0  0  0  0  0  0  0  0
    5.2263  -11.8541   -6.7367 H   0  0  0  0  0  0  0  0  0  0  0  0
    5.8806  -12.4000   -9.0841 H   0  0  0  0  0  0  0  0  0  0  0  0
    7.8787  -15.9733   -7.7242 H   0  0  0  0  0  0  0  0  0  0  0  0
    7.2286  -15.4447   -5.3747 H   0  0  0  0  0  0  0  0  0  0  0  0
    0.2040  -14.3220    2.3070 H   0  0  0  0  0  0  0  0  0  0  0  0
   -0.8810  -11.4700    4.9230 H   0  0  0  0  0  0  0  0  0  0  0  0
   -1.6685   -9.2926    0.9900 H   0  0  0  0  0  0  0  0  0  0  0  0
   -2.9872   -9.6912   -1.0883 H   0  0  0  0  0  0  0  0  0  0  0  0
   -4.5318  -11.6449   -1.2298 H   0  0  0  0  0  0  0  0  0  0  0  0
   -4.7583  -13.1972    0.7084 H   0  0  0  0  0  0  0  0  0  0  0  0
   -3.4487  -12.7998    2.7921 H   0  0  0  0  0  0  0  0  0  0  0  0
  1  2  1  0
  2  3  1  0
  3  4  2  0
  4  5  1  0
  5  6  1  0
  6  7  2  0
  7  8  1  0
  8  9  2  0
  9 10  1  0
 10 11  2  0
 11 12  1  0
 11 13  1  0
 13 14  2  0
  7 15  1  0
 15 16  1  0
 16 17  2  0
 17 18  1  0
 18 19  2  0
 19 20  1  0
 19 21  1  0
 21 22  2  0
 15 23  1  0
  4 24  1  0
 24 25  1  0
 25 26  1  0
 26 27  2  0
 26 28  1  0
 28 29  1  0
 29 30  1  0
 30 31  2  0
 30 32  1  0
 32 33  1  0
 33 34  2  0
 33 35  1  0
 35 36  2  0
 36 37  1  0
 37 38  2  0
 38 39  1  0
 39 40  2  0
 25  2  2  0
 40 35  1  0
 23  5  2  0
 14  8  1  0
 22 16  1  0
  1 41  1  0
  1 42  1  0
  1 43  1  0
  6 44  1  0
  9 45  1  0
 10 46  1  0
 13 47  1  0
 14 48  1  0
 17 49  1  0
 18 50  1  0
 21 51  1  0
 22 52  1  0
 29 53  1  0
 32 54  1  0
 36 55  1  0
 37 56  1  0
 38 57  1  0
 39 58  1  0
 40 59  1  0
M  CHG  1  28  -1
M  END
>  <meeko>  (4) 
{"is_sidechain": [false], "free_energy": -8.231, "intermolecular_energy": -12.282, "internal_energy": -1.752}

$$$$
LIB_FLHLHIWGNRUPHK__M_PUB_ALL__e8__s20260927
     RDKit          3D

 59 63  0  0  0  0  0  0  0  0999 V2000
   -1.5010  -11.7250    3.3970 C   0  0  0  0  0  0  0  0  0  0  0  0
   -1.0750  -12.4740    2.1850 C   0  0  0  0  0  0  0  0  0  0  0  0
    0.1470  -12.1480    1.6070 N   0  0  0  0  0  0  0  0  0  0  0  0
    0.3560  -12.9240    0.5640 C   0  0  0  0  0  0  0  0  0  0  0  0
    1.6830  -12.7990   -0.2870 C   0  0  0  0  0  0  0  0  0  0  0  0
    1.7440  -12.9550   -1.6820 C   0  0  0  0  0  0  0  0  0  0  0  0
    3.0620  -12.7280   -2.0340 C   0  0  0  0  0  0  0  0  0  0  0  0
    3.5960  -12.6140   -3.3860 C   0  0  0  0  0  0  0  0  0  0  0  0
    4.3030  -13.6770   -3.9650 C   0  0  0  0  0  0  0  0  0  0  0  0
    4.8290  -13.5570   -5.2540 C   0  0  0  0  0  0  0  0  0  0  0  0
    4.6590  -12.3690   -5.9620 C   0  0  0  0  0  0  0  0  0  0  0  0
    5.3040  -12.2200   -7.5500 Cl  0  0  0  0  0  0  0  0  0  0  0  0
    3.9740  -11.2980   -5.3910 C   0  0  0  0  0  0  0  0  0  0  0  0
    3.4470  -11.4190   -4.1030 C   0  0  0  0  0  0  0  0  0  0  0  0
    3.7440  -12.5490   -0.8260 N   0  0  0  0  0  0  0  0  0  0  0  0
    5.1470  -12.4300   -0.5550 C   0  0  0  0  0  0  0  0  0  0  0  0
    5.8130  -13.2710    0.3460 C   0  0  0  0  0  0  0  0  0  0  0  0
    7.1850  -13.1120    0.5770 C   0  0  0  0  0  0  0  0  0  0  0  0
    7.8880  -12.1100   -0.0820 C   0  0  0  0  0  0  0  0  0  0  0  0
    9.1990  -11.9660    0.1470 F   0  0  0  0  0  0  0  0  0  0  0  0
    7.2440  -11.2530   -0.9620 C   0  0  0  0  0  0  0  0  0  0  0  0
    5.8750  -11.4070   -1.1950 C   0  0  0  0  0  0  0  0  0  0  0  0
    2.8810  -12.5050    0.2230 N   0  0  0  0  0  0  0  0  0  0  0  0
   -0.8790  -14.0450    0.2010 S   0  0  0  0  0  0  0  0  0  0  0  0
   -1.7770  -13.5040    1.5670 C   0  0  0  0  0  0  0  0  0  0  0  0
   -3.0760  -14.0460    1.9630 C   0  0  0  0  0  0  0  0  0  0  0  0
   -4.1240  -13.4400    1.7400 O   0  0  0  0  0  0  0  0  0  0  0  0
   -2.9720  -15.2180    2.6100 N   0  0  0  0  0  0  0  0  0  0  0  0
   -3.9620  -15.3440    3.7130 N   0  0  0  0  0  0  0  0  0  0  0  0
   -4.1710  -16.4770    4.4120 C   0  0  0  0  0  0  0  0  0  0  0  0
   -5.6350  -16.7070    5.1930 S   0  0  0  0  0  0  0  0  0  0  0  0
   -3.2300  -17.4700    4.4840 N   0  0  0  0  0  0  0  0  0  0  0  0
   -1.8620  -17.5980    4.2540 C   0  0  0  0  0  0  0  0  0  0  0  0
   -1.3970  -18.7140    3.9930 O   0  0  0  0  0  0  0  0  0  0  0  0
   -0.9270  -16.4570    4.4430 C   0  0  0  0  0  0  0  0  0  0  0  0
    0.0490  -16.2300    3.4600 C   0  0  0  0  0  0  0  0  0  0  0  0
    0.9720  -15.1930    3.6050 C   0  0  0  0  0  0  0  0  0  0  0  0
    0.9390  -14.3870    4.7430 C   0  0  0  0  0  0  0  0  0  0  0  0
   -0.0100  -14.6240    5.7370 C   0  0  0  0  0  0  0  0  0  0  0  0
   -0.9330  -15.6630    5.5950 C   0  0  0  0  0  0  0  0  0  0  0  0
   -1.1882  -12.2750    4.2968 H   0  0  0  0  0  0  0  0  0  0  0  0
   -1.0343  -10.7289    3.3954 H   0  0  0  0  0  0  0  0  0  0  0  0
   -2.5957  -11.6170    3.3954 H   0  0  0  0  0  0  0  0  0  0  0  0
    0.9126  -13.2065   -2.3569 H   0  0  0  0  0  0  0  0  0  0  0  0
    4.4445  -14.6110   -3.4014 H   0  0  0  0  0  0  0  0  0  0  0  0
    5.3751  -14.3971   -5.7080 H   0  0  0  0  0  0  0  0  0  0  0  0
    3.8488  -10.3605   -5.9527 H   0  0  0  0  0  0  0  0  0  0  0  0
    2.9121  -10.5718   -3.6490 H   0  0  0  0  0  0  0  0  0  0  0  0
    5.2562  -14.0592    0.8740 H   0  0  0  0  0  0  0  0  0  0  0  0
    7.7060  -13.7794    1.2793 H   0  0  0  0  0  0  0  0  0  0  0  0
    7.8069  -10.4579   -1.4728 H   0  0  0  0  0  0  0  0  0  0  0  0
    5.3600  -10.7226   -1.8852 H   0  0  0  0  0  0  0  0  0  0  0  0
   -4.6420  -14.5870    3.7400 H   0  0  0  0  0  0  0  0  0  0  0  0
   -3.6460  -18.3640    4.6900 H   0  0  0  0  0  0  0  0  0  0  0  0
    0.0867  -16.8740    2.5690 H   0  0  0  0  0  0  0  0  0  0  0  0
    1.7242  -15.0117    2.8231 H   0  0  0  0  0  0  0  0  0  0  0  0
    1.6611  -13.5650    4.8563 H   0  0  0  0  0  0  0  0  0  0  0  0
   -0.0319  -13.9906    6.6361 H   0  0  0  0  0  0  0  0  0  0  0  0
   -1.6666  -15.8574    6.3912 H   0  0  0  0  0  0  0  0  0  0  0  0
  1  2  1  0
  2  3  1  0
  3  4  2  0
  4  5  1  0
  5  6  1  0
  6  7  2  0
  7  8  1  0
  8  9  2  0
  9 10  1  0
 10 11  2  0
 11 12  1  0
 11 13  1  0
 13 14  2  0
  7 15  1  0
 15 16  1  0
 16 17  2  0
 17 18  1  0
 18 19  2  0
 19 20  1  0
 19 21  1  0
 21 22  2  0
 15 23  1  0
  4 24  1  0
 24 25  1  0
 25 26  1  0
 26 27  2  0
 26 28  1  0
 28 29  1  0
 29 30  1  0
 30 31  2  0
 30 32  1  0
 32 33  1  0
 33 34  2  0
 33 35  1  0
 35 36  2  0
 36 37  1  0
 37 38  2  0
 38 39  1  0
 39 40  2  0
 25  2  2  0
 40 35  1  0
 23  5  2  0
 14  8  1  0
 22 16  1  0
  1 41  1  0
  1 42  1  0
  1 43  1  0
  6 44  1  0
  9 45  1  0
 10 46  1  0
 13 47  1  0
 14 48  1  0
 17 49  1  0
 18 50  1  0
 21 51  1  0
 22 52  1  0
 29 53  1  0
 32 54  1  0
 36 55  1  0
 37 56  1  0
 38 57  1  0
 39 58  1  0
 40 59  1  0
M  CHG  1  28  -1
M  END
>  <meeko>  (5) 
{"is_sidechain": [false], "free_energy": -8.219, "intermolecular_energy": -11.752, "internal_energy": -2.265}

$$$$
LIB_FLHLHIWGNRUPHK__M_PUB_ALL__e8__s20260927
     RDKit          3D

 59 63  0  0  0  0  0  0  0  0999 V2000
   -2.3550  -14.8890    3.1490 C   0  0  0  0  0  0  0  0  0  0  0  0
   -1.1170  -15.4100    2.5100 C   0  0  0  0  0  0  0  0  0  0  0  0
   -0.2690  -14.5010    1.8860 N   0  0  0  0  0  0  0  0  0  0  0  0
    0.7720  -15.1430    1.3990 C   0  0  0  0  0  0  0  0  0  0  0  0
    1.9260  -14.3650    0.6470 C   0  0  0  0  0  0  0  0  0  0  0  0
    3.1480  -14.0020    1.2370 C   0  0  0  0  0  0  0  0  0  0  0  0
    3.8830  -13.3840    0.2410 C   0  0  0  0  0  0  0  0  0  0  0  0
    5.2810  -12.9760    0.3160 C   0  0  0  0  0  0  0  0  0  0  0  0
    6.2890  -13.7830   -0.2300 C   0  0  0  0  0  0  0  0  0  0  0  0
    7.6290  -13.3990   -0.1400 C   0  0  0  0  0  0  0  0  0  0  0  0
    7.9650  -12.2110    0.5080 C   0  0  0  0  0  0  0  0  0  0  0  0
    9.6150  -11.7350    0.6170 Cl  0  0  0  0  0  0  0  0  0  0  0  0
    6.9750  -11.4090    1.0700 C   0  0  0  0  0  0  0  0  0  0  0  0
    5.6350  -11.7930    0.9790 C   0  0  0  0  0  0  0  0  0  0  0  0
    3.0290  -13.3140   -0.8640 N   0  0  0  0  0  0  0  0  0  0  0  0
    3.1860  -12.6490   -2.1240 C   0  0  0  0  0  0  0  0  0  0  0  0
    3.7790  -13.2690   -3.2330 C   0  0  0  0  0  0  0  0  0  0  0  0
    3.9110  -12.5740   -4.4410 C   0  0  0  0  0  0  0  0  0  0  0  0
    3.4620  -11.2620   -4.5400 C   0  0  0  0  0  0  0  0  0  0  0  0
    3.5940  -10.6070   -5.7000 F   0  0  0  0  0  0  0  0  0  0  0  0
    2.8910  -10.6240   -3.4490 C   0  0  0  0  0  0  0  0  0  0  0  0
    2.7580  -11.3110   -2.2410 C   0  0  0  0  0  0  0  0  0  0  0  0
    1.8730  -13.9930   -0.6340 N   0  0  0  0  0  0  0  0  0  0  0  0
    0.7870  -16.8350    1.6260 S   0  0  0  0  0  0  0  0  0  0  0  0
   -0.6990  -16.7360    2.4890 C   0  0  0  0  0  0  0  0  0  0  0  0
   -1.3920  -17.8870    3.0650 C   0  0  0  0  0  0  0  0  0  0  0  0
   -2.1700  -18.5730    2.4020 O   0  0  0  0  0  0  0  0  0  0  0  0
   -1.1100  -18.0610    4.3670 N   0  0  0  0  0  0  0  0  0  0  0  0
    0.0670  -18.9450    4.5770 N   0  0  0  0  0  0  0  0  0  0  0  0
    1.3070  -18.4950    4.8540 C   0  0  0  0  0  0  0  0  0  0  0  0
    2.6320  -19.4600    4.5070 S   0  0  0  0  0  0  0  0  0  0  0  0
    1.5270  -17.2540    5.3900 N   0  0  0  0  0  0  0  0  0  0  0  0
    0.7820  -16.2850    6.0590 C   0  0  0  0  0  0  0  0  0  0  0  0
    1.1570  -15.1070    6.0250 O   0  0  0  0  0  0  0  0  0  0  0  0
   -0.3740  -16.6460    6.9220 C   0  0  0  0  0  0  0  0  0  0  0  0
   -1.5730  -15.9350    6.7540 C   0  0  0  0  0  0  0  0  0  0  0  0
   -2.6780  -16.2120    7.5620 C   0  0  0  0  0  0  0  0  0  0  0  0
   -2.5870  -17.1860    8.5540 C   0  0  0  0  0  0  0  0  0  0  0  0
   -1.3910  -17.8770    8.7450 C   0  0  0  0  0  0  0  0  0  0  0  0
   -0.2830  -17.6010    7.9410 C   0  0  0  0  0  0  0  0  0  0  0  0
   -2.2495  -14.9334    4.2430 H   0  0  0  0  0  0  0  0  0  0  0  0
   -2.5171  -13.8463    2.8383 H   0  0  0  0  0  0  0  0  0  0  0  0
   -3.2139  -15.5020    2.8383 H   0  0  0  0  0  0  0  0  0  0  0  0
    3.4574  -14.1740    2.2785 H   0  0  0  0  0  0  0  0  0  0  0  0
    6.0230  -14.7246   -0.7325 H   0  0  0  0  0  0  0  0  0  0  0  0
    8.4155  -14.0309   -0.5783 H   0  0  0  0  0  0  0  0  0  0  0  0
    7.2474  -10.4756    1.5842 H   0  0  0  0  0  0  0  0  0  0  0  0
    4.8536  -11.1637    1.4300 H   0  0  0  0  0  0  0  0  0  0  0  0
    4.1415  -14.3045   -3.1536 H   0  0  0  0  0  0  0  0  0  0  0  0
    4.3698  -13.0658   -5.3115 H   0  0  0  0  0  0  0  0  0  0  0  0
    2.5451   -9.5833   -3.5349 H   0  0  0  0  0  0  0  0  0  0  0  0
    2.3148  -10.8031   -1.3717 H   0  0  0  0  0  0  0  0  0  0  0  0
   -0.0760  -19.9000    4.2550 H   0  0  0  0  0  0  0  0  0  0  0  0
    2.4540  -16.9180    5.1850 H   0  0  0  0  0  0  0  0  0  0  0  0
   -1.6425  -15.1551    5.9814 H   0  0  0  0  0  0  0  0  0  0  0  0
   -3.6191  -15.6617    7.4153 H   0  0  0  0  0  0  0  0  0  0  0  0
   -3.4586  -17.4099    9.1866 H   0  0  0  0  0  0  0  0  0  0  0  0
   -1.3200  -18.6424    9.5319 H   0  0  0  0  0  0  0  0  0  0  0  0
    0.6636  -18.1355    8.1090 H   0  0  0  0  0  0  0  0  0  0  0  0
  1  2  1  0
  2  3  1  0
  3  4  2  0
  4  5  1  0
  5  6  1  0
  6  7  2  0
  7  8  1  0
  8  9  2  0
  9 10  1  0
 10 11  2  0
 11 12  1  0
 11 13  1  0
 13 14  2  0
  7 15  1  0
 15 16  1  0
 16 17  2  0
 17 18  1  0
 18 19  2  0
 19 20  1  0
 19 21  1  0
 21 22  2  0
 15 23  1  0
  4 24  1  0
 24 25  1  0
 25 26  1  0
 26 27  2  0
 26 28  1  0
 28 29  1  0
 29 30  1  0
 30 31  2  0
 30 32  1  0
 32 33  1  0
 33 34  2  0
 33 35  1  0
 35 36  2  0
 36 37  1  0
 37 38  2  0
 38 39  1  0
 39 40  2  0
 25  2  2  0
 40 35  1  0
 23  5  2  0
 14  8  1  0
 22 16  1  0
  1 41  1  0
  1 42  1  0
  1 43  1  0
  6 44  1  0
  9 45  1  0
 10 46  1  0
 13 47  1  0
 14 48  1  0
 17 49  1  0
 18 50  1  0
 21 51  1  0
 22 52  1  0
 29 53  1  0
 32 54  1  0
 36 55  1  0
 37 56  1  0
 38 57  1  0
 39 58  1  0
 40 59  1  0
M  CHG  1  28  -1
M  END
>  <meeko>  (6) 
{"is_sidechain": [false], "free_energy": -8.182, "intermolecular_energy": -11.899, "internal_energy": -2.066}

$$$$
LIB_FLHLHIWGNRUPHK__M_PUB_ALL__e8__s20260927
     RDKit          3D

 59 63  0  0  0  0  0  0  0  0999 V2000
   -2.3290  -14.8980    3.2290 C   0  0  0  0  0  0  0  0  0  0  0  0
   -1.1480  -15.4260    2.4970 C   0  0  0  0  0  0  0  0  0  0  0  0
   -0.3400  -14.5220    1.8170 N   0  0  0  0  0  0  0  0  0  0  0  0
    0.6560  -15.1700    1.2490 C   0  0  0  0  0  0  0  0  0  0  0  0
    1.7570  -14.3980    0.4180 C   0  0  0  0  0  0  0  0  0  0  0  0
    1.6620  -14.1230   -0.9570 C   0  0  0  0  0  0  0  0  0  0  0  0
    2.7980  -13.4040   -1.2810 C   0  0  0  0  0  0  0  0  0  0  0  0
    3.0800  -12.7490   -2.5530 C   0  0  0  0  0  0  0  0  0  0  0  0
    3.6200  -13.4730   -3.6240 C   0  0  0  0  0  0  0  0  0  0  0  0
    3.9070  -12.8370   -4.8350 C   0  0  0  0  0  0  0  0  0  0  0  0
    3.6640  -11.4720   -4.9730 C   0  0  0  0  0  0  0  0  0  0  0  0
    4.0130  -10.6880   -6.4640 Cl  0  0  0  0  0  0  0  0  0  0  0  0
    3.1430  -10.7360   -3.9100 C   0  0  0  0  0  0  0  0  0  0  0  0
    2.8570  -11.3730   -2.7000 C   0  0  0  0  0  0  0  0  0  0  0  0
    3.5650  -13.3720   -0.1130 N   0  0  0  0  0  0  0  0  0  0  0  0
    4.9000  -12.9010    0.1140 C   0  0  0  0  0  0  0  0  0  0  0  0
    6.0260  -13.5490   -0.4130 C   0  0  0  0  0  0  0  0  0  0  0  0
    7.3090  -13.0490   -0.1590 C   0  0  0  0  0  0  0  0  0  0  0  0
    7.4700  -11.9150    0.6260 C   0  0  0  0  0  0  0  0  0  0  0  0
    8.7010  -11.4460    0.8630 F   0  0  0  0  0  0  0  0  0  0  0  0
    6.3710  -11.2710    1.1750 C   0  0  0  0  0  0  0  0  0  0  0  0
    5.0880  -11.7650    0.9270 C   0  0  0  0  0  0  0  0  0  0  0  0
    2.8830  -13.9020    0.9370 N   0  0  0  0  0  0  0  0  0  0  0  0
    0.6710  -16.8640    1.4650 S   0  0  0  0  0  0  0  0  0  0  0  0
   -0.7450  -16.7560    2.4370 C   0  0  0  0  0  0  0  0  0  0  0  0
   -1.4050  -17.9040    3.0570 C   0  0  0  0  0  0  0  0  0  0  0  0
   -2.2130  -18.5980    2.4400 O   0  0  0  0  0  0  0  0  0  0  0  0
   -1.0590  -18.0650    4.3450 N   0  0  0  0  0  0  0  0  0  0  0  0
    0.1540  -18.9130    4.5010 N   0  0  0  0  0  0  0  0  0  0  0  0
    1.3950  -18.4260    4.6950 C   0  0  0  0  0  0  0  0  0  0  0  0
    2.7230  -19.3630    4.2880 S   0  0  0  0  0  0  0  0  0  0  0  0
    1.6120  -17.1680    5.1910 N   0  0  0  0  0  0  0  0  0  0  0  0
    0.8820  -16.2040    5.8850 C   0  0  0  0  0  0  0  0  0  0  0  0
    1.2210  -15.0180    5.8050 O   0  0  0  0  0  0  0  0  0  0  0  0
   -0.2110  -16.5760    6.8220 C   0  0  0  0  0  0  0  0  0  0  0  0
   -1.4310  -15.8890    6.7240 C   0  0  0  0  0  0  0  0  0  0  0  0
   -2.4770  -16.1770    7.6030 C   0  0  0  0  0  0  0  0  0  0  0  0
   -2.3070  -17.1390    8.5960 C   0  0  0  0  0  0  0  0  0  0  0  0
   -1.0880  -17.8070    8.7170 C   0  0  0  0  0  0  0  0  0  0  0  0
   -0.0390  -17.5190    7.8420 C   0  0  0  0  0  0  0  0  0  0  0  0
   -2.1541  -14.9762    4.3122 H   0  0  0  0  0  0  0  0  0  0  0  0
   -2.4869  -13.8436    2.9583 H   0  0  0  0  0  0  0  0  0  0  0  0
   -3.2200  -15.4835    2.9583 H   0  0  0  0  0  0  0  0  0  0  0  0
    0.8496  -14.4193   -1.6369 H   0  0  0  0  0  0  0  0  0  0  0  0
    3.8194  -14.5489   -3.5111 H   0  0  0  0  0  0  0  0  0  0  0  0
    4.3230  -13.4117   -5.6756 H   0  0  0  0  0  0  0  0  0  0  0  0
    2.9578   -9.6577   -4.0235 H   0  0  0  0  0  0  0  0  0  0  0  0
    2.4544  -10.7913   -1.8577 H   0  0  0  0  0  0  0  0  0  0  0  0
    5.9012  -14.4527   -1.0277 H   0  0  0  0  0  0  0  0  0  0  0  0
    8.1897  -13.5548   -0.5815 H   0  0  0  0  0  0  0  0  0  0  0  0
    6.5087  -10.3773    1.8014 H   0  0  0  0  0  0  0  0  0  0  0  0
    4.2158  -11.2625    1.3706 H   0  0  0  0  0  0  0  0  0  0  0  0
    0.0170  -19.8780    4.2080 H   0  0  0  0  0  0  0  0  0  0  0  0
    2.5150  -16.8120    4.9240 H   0  0  0  0  0  0  0  0  0  0  0  0
   -1.5639  -15.1189    5.9499 H   0  0  0  0  0  0  0  0  0  0  0  0
   -3.4351  -15.6443    7.5113 H   0  0  0  0  0  0  0  0  0  0  0  0
   -3.1330  -17.3718    9.2841 H   0  0  0  0  0  0  0  0  0  0  0  0
   -0.9531  -18.5631    9.5045 H   0  0  0  0  0  0  0  0  0  0  0  0
    0.9260  -18.0349    7.9545 H   0  0  0  0  0  0  0  0  0  0  0  0
  1  2  1  0
  2  3  1  0
  3  4  2  0
  4  5  1  0
  5  6  1  0
  6  7  2  0
  7  8  1  0
  8  9  2  0
  9 10  1  0
 10 11  2  0
 11 12  1  0
 11 13  1  0
 13 14  2  0
  7 15  1  0
 15 16  1  0
 16 17  2  0
 17 18  1  0
 18 19  2  0
 19 20  1  0
 19 21  1  0
 21 22  2  0
 15 23  1  0
  4 24  1  0
 24 25  1  0
 25 26  1  0
 26 27  2  0
 26 28  1  0
 28 29  1  0
 29 30  1  0
 30 31  2  0
 30 32  1  0
 32 33  1  0
 33 34  2  0
 33 35  1  0
 35 36  2  0
 36 37  1  0
 37 38  2  0
 38 39  1  0
 39 40  2  0
 25  2  2  0
 40 35  1  0
 23  5  2  0
 14  8  1  0
 22 16  1  0
  1 41  1  0
  1 42  1  0
  1 43  1  0
  6 44  1  0
  9 45  1  0
 10 46  1  0
 13 47  1  0
 14 48  1  0
 17 49  1  0
 18 50  1  0
 21 51  1  0
 22 52  1  0
 29 53  1  0
 32 54  1  0
 36 55  1  0
 37 56  1  0
 38 57  1  0
 39 58  1  0
 40 59  1  0
M  CHG  1  28  -1
M  END
>  <meeko>  (7) 
{"is_sidechain": [false], "free_energy": -8.095, "intermolecular_energy": -11.736, "internal_energy": -2.107}

$$$$
LIB_FLHLHIWGNRUPHK__M_PUB_ALL__e8__s20260927
     RDKit          3D

 59 63  0  0  0  0  0  0  0  0999 V2000
    1.2570  -17.1010    0.2060 C   0  0  0  0  0  0  0  0  0  0  0  0
    1.4020  -16.0360   -0.8210 C   0  0  0  0  0  0  0  0  0  0  0  0
    2.6570  -15.8360   -1.3860 N   0  0  0  0  0  0  0  0  0  0  0  0
    2.5840  -14.8700   -2.2780 C   0  0  0  0  0  0  0  0  0  0  0  0
    3.8580  -14.4310   -3.1040 C   0  0  0  0  0  0  0  0  0  0  0  0
    3.9370  -14.4550   -4.5070 C   0  0  0  0  0  0  0  0  0  0  0  0
    5.1880  -13.9590   -4.8270 C   0  0  0  0  0  0  0  0  0  0  0  0
    5.6820  -13.6350   -6.1600 C   0  0  0  0  0  0  0  0  0  0  0  0
    5.2420  -12.4800   -6.8220 C   0  0  0  0  0  0  0  0  0  0  0  0
    5.7030  -12.1830   -8.1070 C   0  0  0  0  0  0  0  0  0  0  0  0
    6.5960  -13.0470   -8.7380 C   0  0  0  0  0  0  0  0  0  0  0  0
    7.1660  -12.6810  -10.3190 Cl  0  0  0  0  0  0  0  0  0  0  0  0
    7.0270  -14.2080   -8.0990 C   0  0  0  0  0  0  0  0  0  0  0  0
    6.5660  -14.5040   -6.8140 C   0  0  0  0  0  0  0  0  0  0  0  0
    5.8340  -13.7600   -3.6030 N   0  0  0  0  0  0  0  0  0  0  0  0
    7.1930  -13.4070   -3.3110 C   0  0  0  0  0  0  0  0  0  0  0  0
    8.1270  -14.3380   -2.8350 C   0  0  0  0  0  0  0  0  0  0  0  0
    9.4410  -13.9410   -2.5640 C   0  0  0  0  0  0  0  0  0  0  0  0
    9.8210  -12.6190   -2.7560 C   0  0  0  0  0  0  0  0  0  0  0  0
   11.0810  -12.2500   -2.4920 F   0  0  0  0  0  0  0  0  0  0  0  0
    8.9080  -11.6770   -3.2060 C   0  0  0  0  0  0  0  0  0  0  0  0
    7.5940  -12.0660   -3.4770 C   0  0  0  0  0  0  0  0  0  0  0  0
    4.9850  -13.9650   -2.5610 N   0  0  0  0  0  0  0  0  0  0  0  0
    1.0530  -14.1400   -2.4720 S   0  0  0  0  0  0  0  0  0  0  0  0
    0.3880  -15.2140   -1.3020 C   0  0  0  0  0  0  0  0  0  0  0  0
   -1.0140  -15.2120   -0.8880 C   0  0  0  0  0  0  0  0  0  0  0  0
   -1.8390  -15.9740   -1.3920 O   0  0  0  0  0  0  0  0  0  0  0  0
   -1.2760  -14.2820    0.0440 N   0  0  0  0  0  0  0  0  0  0  0  0
   -2.6560  -13.7380   -0.0720 N   0  0  0  0  0  0  0  0  0  0  0  0
   -3.3010  -13.1020    0.9250 C   0  0  0  0  0  0  0  0  0  0  0  0
   -4.9760  -13.0480    0.9220 S   0  0  0  0  0  0  0  0  0  0  0  0
   -2.6320  -12.5150    1.9660 N   0  0  0  0  0  0  0  0  0  0  0  0
   -1.3320  -12.0900    2.2340 C   0  0  0  0  0  0  0  0  0  0  0  0
   -0.9570  -12.0020    3.4080 O   0  0  0  0  0  0  0  0  0  0  0  0
   -0.4280  -11.6120    1.1530 C   0  0  0  0  0  0  0  0  0  0  0  0
    0.8460  -12.1890    1.0530 C   0  0  0  0  0  0  0  0  0  0  0  0
    1.7450  -11.7530    0.0770 C   0  0  0  0  0  0  0  0  0  0  0  0
    1.3840  -10.7250   -0.7920 C   0  0  0  0  0  0  0  0  0  0  0  0
    0.1290  -10.1270   -0.6800 C   0  0  0  0  0  0  0  0  0  0  0  0
   -0.7710  -10.5600    0.2970 C   0  0  0  0  0  0  0  0  0  0  0  0
    1.3179  -16.6538    1.2091 H   0  0  0  0  0  0  0  0  0  0  0  0
    0.2830  -17.5975    0.0844 H   0  0  0  0  0  0  0  0  0  0  0  0
    2.0628  -17.8398    0.0844 H   0  0  0  0  0  0  0  0  0  0  0  0
    3.1618  -14.7983   -5.2079 H   0  0  0  0  0  0  0  0  0  0  0  0
    4.5297  -11.8037   -6.3267 H   0  0  0  0  0  0  0  0  0  0  0  0
    5.3624  -11.2707   -8.6187 H   0  0  0  0  0  0  0  0  0  0  0  0
    7.7276  -14.8888   -8.6046 H   0  0  0  0  0  0  0  0  0  0  0  0
    6.8988  -15.4247   -6.3124 H   0  0  0  0  0  0  0  0  0  0  0  0
    7.8258  -15.3837   -2.6741 H   0  0  0  0  0  0  0  0  0  0  0  0
   10.1733  -14.6761   -2.1988 H   0  0  0  0  0  0  0  0  0  0  0  0
    9.2164  -10.6308   -3.3485 H   0  0  0  0  0  0  0  0  0  0  0  0
    6.8651  -11.3185   -3.8233 H   0  0  0  0  0  0  0  0  0  0  0  0
   -3.1690  -14.0960   -0.8750 H   0  0  0  0  0  0  0  0  0  0  0  0
   -3.2130  -12.4340    2.7850 H   0  0  0  0  0  0  0  0  0  0  0  0
    1.1393  -12.9900    1.7475 H   0  0  0  0  0  0  0  0  0  0  0  0
    2.7372  -12.2207   -0.0057 H   0  0  0  0  0  0  0  0  0  0  0  0
    2.0884  -10.3855   -1.5657 H   0  0  0  0  0  0  0  0  0  0  0  0
   -0.1531   -9.3121   -1.3629 H   0  0  0  0  0  0  0  0  0  0  0  0
   -1.7522  -10.0723    0.3934 H   0  0  0  0  0  0  0  0  0  0  0  0
  1  2  1  0
  2  3  1  0
  3  4  2  0
  4  5  1  0
  5  6  1  0
  6  7  2  0
  7  8  1  0
  8  9  2  0
  9 10  1  0
 10 11  2  0
 11 12  1  0
 11 13  1  0
 13 14  2  0
  7 15  1  0
 15 16  1  0
 16 17  2  0
 17 18  1  0
 18 19  2  0
 19 20  1  0
 19 21  1  0
 21 22  2  0
 15 23  1  0
  4 24  1  0
 24 25  1  0
 25 26  1  0
 26 27  2  0
 26 28  1  0
 28 29  1  0
 29 30  1  0
 30 31  2  0
 30 32  1  0
 32 33  1  0
 33 34  2  0
 33 35  1  0
 35 36  2  0
 36 37  1  0
 37 38  2  0
 38 39  1  0
 39 40  2  0
 25  2  2  0
 40 35  1  0
 23  5  2  0
 14  8  1  0
 22 16  1  0
  1 41  1  0
  1 42  1  0
  1 43  1  0
  6 44  1  0
  9 45  1  0
 10 46  1  0
 13 47  1  0
 14 48  1  0
 17 49  1  0
 18 50  1  0
 21 51  1  0
 22 52  1  0
 29 53  1  0
 32 54  1  0
 36 55  1  0
 37 56  1  0
 38 57  1  0
 39 58  1  0
 40 59  1  0
M  CHG  1  28  -1
M  END
>  <meeko>  (8) 
{"is_sidechain": [false], "free_energy": -8.019, "intermolecular_energy": -11.886, "internal_energy": -1.849}

$$$$
LIB_FLHLHIWGNRUPHK__M_PUB_ALL__e8__s20260927
     RDKit          3D

 59 63  0  0  0  0  0  0  0  0999 V2000
    3.6050  -10.7120   -3.8750 C   0  0  0  0  0  0  0  0  0  0  0  0
    3.7660  -11.4090   -2.5720 C   0  0  0  0  0  0  0  0  0  0  0  0
    2.6190  -11.7250   -1.8510 N   0  0  0  0  0  0  0  0  0  0  0  0
    2.9610  -12.3480   -0.7420 C   0  0  0  0  0  0  0  0  0  0  0  0
    1.8620  -12.8520    0.2760 C   0  0  0  0  0  0  0  0  0  0  0  0
    0.5310  -12.4010    0.2910 C   0  0  0  0  0  0  0  0  0  0  0  0
   -0.1020  -13.1130    1.2940 C   0  0  0  0  0  0  0  0  0  0  0  0
   -1.5290  -13.1190    1.5890 C   0  0  0  0  0  0  0  0  0  0  0  0
   -2.3680  -14.0960    1.0340 C   0  0  0  0  0  0  0  0  0  0  0  0
   -3.7390  -14.0880    1.3050 C   0  0  0  0  0  0  0  0  0  0  0  0
   -4.2760  -13.0950    2.1210 C   0  0  0  0  0  0  0  0  0  0  0  0
   -5.9630  -13.0840    2.4570 Cl  0  0  0  0  0  0  0  0  0  0  0  0
   -3.4570  -12.1070    2.6640 C   0  0  0  0  0  0  0  0  0  0  0  0
   -2.0860  -12.1160    2.3950 C   0  0  0  0  0  0  0  0  0  0  0  0
    0.9010  -13.8790    1.8970 N   0  0  0  0  0  0  0  0  0  0  0  0
    0.8710  -14.6910    3.0770 C   0  0  0  0  0  0  0  0  0  0  0  0
    1.0490  -16.0810    3.0390 C   0  0  0  0  0  0  0  0  0  0  0  0
    1.0090  -16.8290    4.2220 C   0  0  0  0  0  0  0  0  0  0  0  0
    0.7800  -16.1960    5.4370 C   0  0  0  0  0  0  0  0  0  0  0  0
    0.7430  -16.9210    6.5620 F   0  0  0  0  0  0  0  0  0  0  0  0
    0.5800  -14.8250    5.4950 C   0  0  0  0  0  0  0  0  0  0  0  0
    0.6180  -14.0730    4.3180 C   0  0  0  0  0  0  0  0  0  0  0  0
    2.0720  -13.7800    1.2130 N   0  0  0  0  0  0  0  0  0  0  0  0
    4.6350  -12.5640   -0.4860 S   0  0  0  0  0  0  0  0  0  0  0  0
    4.9680  -11.8050   -1.9950 C   0  0  0  0  0  0  0  0  0  0  0  0
    6.3110  -11.6030   -2.5340 C   0  0  0  0  0  0  0  0  0  0  0  0
    7.0480  -10.7080   -2.1180 O   0  0  0  0  0  0  0  0  0  0  0  0
    6.6040  -12.4590   -3.5270 N   0  0  0  0  0  0  0  0  0  0  0  0
    7.2030  -13.7240   -3.0230 N   0  0  0  0  0  0  0  0  0  0  0  0
    6.4940  -14.8370   -2.7510 C   0  0  0  0  0  0  0  0  0  0  0  0
    7.1130  -15.9690   -1.6810 S   0  0  0  0  0  0  0  0  0  0  0  0
    5.2610  -15.0660   -3.3000 N   0  0  0  0  0  0  0  0  0  0  0  0
    4.5190  -14.5860   -4.3780 C   0  0  0  0  0  0  0  0  0  0  0  0
    3.2870  -14.6790   -4.3500 O   0  0  0  0  0  0  0  0  0  0  0  0
    5.1740  -14.0880   -5.6180 C   0  0  0  0  0  0  0  0  0  0  0  0
    4.6560  -12.9320   -6.2200 C   0  0  0  0  0  0  0  0  0  0  0  0
    5.2130  -12.4410   -7.4030 C   0  0  0  0  0  0  0  0  0  0  0  0
    6.2770  -13.1140   -8.0020 C   0  0  0  0  0  0  0  0  0  0  0  0
    6.7790  -14.2790   -7.4240 C   0  0  0  0  0  0  0  0  0  0  0  0
    6.2220  -14.7730   -6.2420 C   0  0  0  0  0  0  0  0  0  0  0  0
    3.3607   -9.6543   -3.6973 H   0  0  0  0  0  0  0  0  0  0  0  0
    4.5427  -10.7808   -4.4460 H   0  0  0  0  0  0  0  0  0  0  0  0
    2.7925  -11.1851   -4.4460 H   0  0  0  0  0  0  0  0  0  0  0  0
    0.0836  -11.6372   -0.3620 H   0  0  0  0  0  0  0  0  0  0  0  0
   -1.9444  -14.8735    0.3813 H   0  0  0  0  0  0  0  0  0  0  0  0
   -4.3913  -14.8627    0.8757 H   0  0  0  0  0  0  0  0  0  0  0  0
   -3.8886  -11.3222    3.3026 H   0  0  0  0  0  0  0  0  0  0  0  0
   -1.4403  -11.3322    2.8177 H   0  0  0  0  0  0  0  0  0  0  0  0
    1.2206  -16.5857    2.0768 H   0  0  0  0  0  0  0  0  0  0  0  0
    1.1590  -17.9182    4.1892 H   0  0  0  0  0  0  0  0  0  0  0  0
    0.3928  -14.3330    6.4608 H   0  0  0  0  0  0  0  0  0  0  0  0
    0.4486  -12.9870    4.3605 H   0  0  0  0  0  0  0  0  0  0  0  0
    8.1500  -13.6140   -2.6670 H   0  0  0  0  0  0  0  0  0  0  0  0
    4.7130  -15.6960   -2.7370 H   0  0  0  0  0  0  0  0  0  0  0  0
    3.8059  -12.4089   -5.7577 H   0  0  0  0  0  0  0  0  0  0  0  0
    4.8128  -11.5247   -7.8614 H   0  0  0  0  0  0  0  0  0  0  0  0
    6.7204  -12.7257   -8.9308 H   0  0  0  0  0  0  0  0  0  0  0  0
    7.6161  -14.8108   -7.9000 H   0  0  0  0  0  0  0  0  0  0  0  0
    6.6086  -15.7034   -5.8006 H   0  0  0  0  0  0  0  0  0  0  0  0
  1  2  1  0
  2  3  1  0
  3  4  2  0
  4  5  1  0
  5  6  1  0
  6  7  2  0
  7  8  1  0
  8  9  2  0
  9 10  1  0
 10 11  2  0
 11 12  1  0
 11 13  1  0
 13 14  2  0
  7 15  1  0
 15 16  1  0
 16 17  2  0
 17 18  1  0
 18 19  2  0
 19 20  1  0
 19 21  1  0
 21 22  2  0
 15 23  1  0
  4 24  1  0
 24 25  1  0
 25 26  1  0
 26 27  2  0
 26 28  1  0
 28 29  1  0
 29 30  1  0
 30 31  2  0
 30 32  1  0
 32 33  1  0
 33 34  2  0
 33 35  1  0
 35 36  2  0
 36 37  1  0
 37 38  2  0
 38 39  1  0
 39 40  2  0
 25  2  2  0
 40 35  1  0
 23  5  2  0
 14  8  1  0
 22 16  1  0
  1 41  1  0
  1 42  1  0
  1 43  1  0
  6 44  1  0
  9 45  1  0
 10 46  1  0
 13 47  1  0
 14 48  1  0
 17 49  1  0
 18 50  1  0
 21 51  1  0
 22 52  1  0
 29 53  1  0
 32 54  1  0
 36 55  1  0
 37 56  1  0
 38 57  1  0
 39 58  1  0
 40 59  1  0
M  CHG  1  28  -1
M  END
>  <meeko>  (9) 
{"is_sidechain": [false], "free_energy": -7.979, "intermolecular_energy": -11.612, "internal_energy": -2.067}

$$$$
