LIB_OVOJZOGJIHRBMM__M_PUB_ALL__e8__s20260927
     RDKit          3D

 87 92  0  0  0  0  0  0  0  0999 V2000
    2.9600  -10.3040   -3.9080 C   0  0  0  0  0  0  0  0  0  0  0  0
    2.2230  -11.5220   -3.4490 C   0  0  0  0  0  0  0  0  0  0  0  0
    2.3390  -12.7840   -3.9140 C   0  0  0  0  0  0  0  0  0  0  0  0
    3.2650  -13.2360   -5.0060 C   0  0  0  0  0  0  0  0  0  0  0  0
    1.5070  -13.8990   -3.3480 C   0  0  0  0  0  0  0  0  0  0  0  0
    0.7790  -14.6010   -4.0340 O   0  0  0  0  0  0  0  0  0  0  0  0
    1.7140  -14.0300   -2.0160 O   0  0  0  0  0  0  0  0  0  0  0  0
    2.1510  -15.3230   -1.5250 C   0  0  2  0  0  0  0  0  0  0  0  0
    0.9340  -16.0050   -0.8800 C   0  0  2  0  0  0  0  0  0  0  0  0
   -0.2280  -16.0970   -1.7380 O   0  0  0  0  0  0  0  0  0  0  0  0
   -1.3980  -15.6720   -0.9790 C   0  0  0  0  0  0  0  0  0  0  0  0
   -0.9810  -15.6720    0.5050 C   0  0  2  0  0  0  0  0  0  0  0  0
   -1.1680  -17.1080    1.0380 C   0  0  0  0  0  0  0  0  0  0  0  0
   -1.6830  -14.6690    1.4470 C   0  0  2  0  0  0  0  0  0  0  0  0
   -1.8500  -13.4110    0.7570 O   0  0  0  0  0  0  0  0  0  0  0  0
   -2.5910  -12.4580    1.3800 C   0  0  0  0  0  0  0  0  0  0  0  0
   -4.0130  -12.9150    1.4950 C   0  0  0  0  0  0  0  0  0  0  0  0
   -2.1710  -11.3850    1.7860 O   0  0  0  0  0  0  0  0  0  0  0  0
   -0.8330  -14.4570    2.7350 C   0  0  0  0  0  0  0  0  0  0  0  0
    0.6610  -14.0950    2.4940 C   0  0  2  0  0  0  0  0  0  0  0  0
    0.7170  -12.7440    2.0320 O   0  0  0  0  0  0  0  0  0  0  0  0
    1.4000  -15.0550    1.4820 C   0  0  1  0  0  0  0  0  0  0  0  0
    1.6690  -16.3890    2.2150 C   0  0  0  0  0  0  0  0  0  0  0  0
    0.4460  -15.1970    0.2940 C   0  0  1  0  0  0  0  0  0  0  0  0
    2.7310  -14.4030    0.8600 C   0  0  1  0  0  0  0  0  0  0  0  0
    3.8030  -14.0800    1.9570 C   0  0  0  0  0  0  0  0  0  0  0  0
    5.1730  -13.6150    1.4530 C   0  0  2  0  0  0  0  0  0  0  0  0
    5.9420  -13.2020    2.5760 O   0  0  0  0  0  0  0  0  0  0  0  0
    5.1390  -12.5240    0.5620 O   0  0  0  0  0  0  0  0  0  0  0  0
    4.4830  -12.7290   -0.6840 C   0  0  1  0  0  0  0  0  0  0  0  0
    5.2950  -12.0620   -1.7940 C   0  0  0  0  0  0  0  0  0  0  0  0
    6.1030  -13.1900   -2.4430 C   0  0  1  0  0  0  0  0  0  0  0  0
    7.5000  -13.2710   -1.9190 C   0  0  0  0  0  0  0  0  0  0  0  0
    8.0800  -14.0160   -0.9770 C   0  0  0  0  0  0  0  0  0  0  0  0
    9.5110  -13.6940   -0.8500 C   0  0  0  0  0  0  0  0  0  0  0  0
    9.7370  -12.6970   -1.8420 O   0  0  0  0  0  0  0  0  0  0  0  0
    8.5660  -12.4310   -2.4840 C   0  0  0  0  0  0  0  0  0  0  0  0
    8.4260  -11.6300   -3.3900 O   0  0  0  0  0  0  0  0  0  0  0  0
    5.2480  -14.4060   -2.1370 C   0  0  0  0  0  0  0  0  0  0  0  0
    5.4340  -15.6100   -3.0020 C   0  0  0  0  0  0  0  0  0  0  0  0
    4.3720  -14.1740   -1.1340 C   0  0  0  0  0  0  0  0  0  0  0  0
    3.3110  -15.0930   -0.4750 C   0  0  2  0  0  0  0  0  0  0  0  0
    3.9660  -16.4510   -0.1200 C   0  0  0  0  0  0  0  0  0  0  0  0
    3.3054   -9.7332   -3.0335 H   0  0  0  0  0  0  0  0  0  0  0  0
    3.8267  -10.6065   -4.5140 H   0  0  0  0  0  0  0  0  0  0  0  0
    2.2899   -9.6766   -4.5140 H   0  0  0  0  0  0  0  0  0  0  0  0
    1.4993  -11.3712   -2.6344 H   0  0  0  0  0  0  0  0  0  0  0  0
    4.1690  -13.6773   -4.5609 H   0  0  0  0  0  0  0  0  0  0  0  0
    2.7582  -13.9881   -5.6286 H   0  0  0  0  0  0  0  0  0  0  0  0
    3.5462  -12.3738   -5.6286 H   0  0  0  0  0  0  0  0  0  0  0  0
    2.5396  -15.9639   -2.3301 H   0  0  0  0  0  0  0  0  0  0  0  0
    1.3012  -17.0099   -0.6244 H   0  0  0  0  0  0  0  0  0  0  0  0
   -1.7046  -14.6617   -1.2875 H   0  0  0  0  0  0  0  0  0  0  0  0
   -2.2506  -16.3450   -1.1525 H   0  0  0  0  0  0  0  0  0  0  0  0
   -1.1662  -17.0940    2.1379 H   0  0  0  0  0  0  0  0  0  0  0  0
   -2.1262  -17.5109    0.6780 H   0  0  0  0  0  0  0  0  0  0  0  0
   -0.3449  -17.7428    0.6780 H   0  0  0  0  0  0  0  0  0  0  0  0
   -2.6667  -15.0668    1.7369 H   0  0  0  0  0  0  0  0  0  0  0  0
   -4.2853  -13.0025    2.5572 H   0  0  0  0  0  0  0  0  0  0  0  0
   -4.6738  -12.1840    1.0061 H   0  0  0  0  0  0  0  0  0  0  0  0
   -4.1242  -13.8941    1.0061 H   0  0  0  0  0  0  0  0  0  0  0  0
   -1.2911  -13.6416    3.3140 H   0  0  0  0  0  0  0  0  0  0  0  0
   -0.8307  -15.4235    3.2603 H   0  0  0  0  0  0  0  0  0  0  0  0
    1.1946  -14.2184    3.4480 H   0  0  0  0  0  0  0  0  0  0  0  0
    1.1240  -12.2090    2.7360 H   0  0  0  0  0  0  0  0  0  0  0  0
    1.6356  -16.2233    3.3019 H   0  0  0  0  0  0  0  0  0  0  0  0
    0.9010  -17.1240    1.9323 H   0  0  0  0  0  0  0  0  0  0  0  0
    2.6618  -16.7690    1.9323 H   0  0  0  0  0  0  0  0  0  0  0  0
    0.4349  -14.1144    0.0994 H   0  0  0  0  0  0  0  0  0  0  0  0
    2.3976  -13.4334    0.4615 H   0  0  0  0  0  0  0  0  0  0  0  0
    3.3955  -13.2859    2.5999 H   0  0  0  0  0  0  0  0  0  0  0  0
    3.9893  -15.0330    2.4738 H   0  0  0  0  0  0  0  0  0  0  0  0
    5.5974  -14.4703    0.9067 H   0  0  0  0  0  0  0  0  0  0  0  0
    6.6360  -13.8800    2.6450 H   0  0  0  0  0  0  0  0  0  0  0  0
    3.4743  -12.3210   -0.5225 H   0  0  0  0  0  0  0  0  0  0  0  0
    4.6264  -11.5943   -2.5317 H   0  0  0  0  0  0  0  0  0  0  0  0
    5.9459  -11.2665   -1.4023 H   0  0  0  0  0  0  0  0  0  0  0  0
    6.2753  -13.0584   -3.5214 H   0  0  0  0  0  0  0  0  0  0  0  0
    7.5572  -14.7726   -0.3735 H   0  0  0  0  0  0  0  0  0  0  0  0
    9.7348  -13.3030    0.1535 H   0  0  0  0  0  0  0  0  0  0  0  0
   10.1539  -14.5760   -0.9866 H   0  0  0  0  0  0  0  0  0  0  0  0
    5.5713  -16.4988   -2.3687 H   0  0  0  0  0  0  0  0  0  0  0  0
    4.5462  -15.7459   -3.6371 H   0  0  0  0  0  0  0  0  0  0  0  0
    6.3214  -15.4717   -3.6371 H   0  0  0  0  0  0  0  0  0  0  0  0
    4.0178  -16.5584    0.9735 H   0  0  0  0  0  0  0  0  0  0  0  0
    3.3637  -17.2697   -0.5407 H   0  0  0  0  0  0  0  0  0  0  0  0
    4.9816  -16.4893   -0.5407 H   0  0  0  0  0  0  0  0  0  0  0  0
  1  2  1  0
  2  3  2  0
  3  4  1  0
  3  5  1  0
  5  6  2  0
  5  7  1  0
  7  8  1  0
  8  9  1  0
  9 10  1  0
 10 11  1  0
 11 12  1  0
 12 13  1  1
 12 14  1  0
 14 15  1  0
 15 16  1  0
 16 17  1  0
 16 18  2  0
 14 19  1  0
 19 20  1  0
 20 21  1  0
 20 22  1  0
 22 23  1  1
 22 24  1  0
 22 25  1  0
 25 26  1  0
 26 27  1  0
 27 28  1  0
 27 29  1  0
 29 30  1  0
 30 31  1  0
 31 32  1  0
 32 33  1  0
 33 34  2  0
 34 35  1  0
 35 36  1  0
 36 37  1  0
 37 38  2  0
 32 39  1  0
 39 40  1  0
 39 41  2  0
 41 42  1  0
 42 43  1  1
 42  8  1  0
 24  9  1  0
 42 25  1  0
 24 12  1  0
 41 30  1  0
 37 33  1  0
  1 44  1  0
  1 45  1  0
  1 46  1  0
  2 47  1  0
  4 48  1  0
  4 49  1  0
  4 50  1  0
  8 51  1  6
  9 52  1  1
 11 53  1  0
 11 54  1  0
 13 55  1  0
 13 56  1  0
 13 57  1  0
 14 58  1  1
 17 59  1  0
 17 60  1  0
 17 61  1  0
 19 62  1  0
 19 63  1  0
 20 64  1  1
 21 65  1  0
 23 66  1  0
 23 67  1  0
 23 68  1  0
 24 69  1  6
 25 70  1  6
 26 71  1  0
 26 72  1  0
 27 73  1  6
 28 74  1  0
 30 75  1  1
 31 76  1  0
 31 77  1  0
 32 78  1  6
 34 79  1  0
 35 80  1  0
 35 81  1  0
 40 82  1  0
 40 83  1  0
 40 84  1  0
 43 85  1  0
 43 86  1  0
 43 87  1  0
M  END
>  <meeko>  (1) 
{"is_sidechain": [false], "free_energy": -7.161, "intermolecular_energy": -11.767, "internal_energy": -1.772}

$$$$
LIB_OVOJZOGJIHRBMM__M_PUB_ALL__e8__s20260927
     RDKit          3D

 87 92  0  0  0  0  0  0  0  0999 V2000
    0.8460  -10.2720   -1.2190 C   0  0  0  0  0  0  0  0  0  0  0  0
    1.6970  -11.4180   -1.6630 C   0  0  0  0  0  0  0  0  0  0  0  0
    2.5760  -11.4500   -2.6880 C   0  0  0  0  0  0  0  0  0  0  0  0
    2.8950  -10.3050   -3.6060 C   0  0  0  0  0  0  0  0  0  0  0  0
    3.3470  -12.6970   -3.0110 C   0  0  0  0  0  0  0  0  0  0  0  0
    3.6550  -13.0130   -4.1510 O   0  0  0  0  0  0  0  0  0  0  0  0
    3.6740  -13.3700   -1.8830 O   0  0  0  0  0  0  0  0  0  0  0  0
    3.9470  -14.7910   -1.9990 C   0  0  2  0  0  0  0  0  0  0  0  0
    2.6440  -15.5370   -1.6730 C   0  0  2  0  0  0  0  0  0  0  0  0
    1.5010  -15.1220   -2.4580 O   0  0  0  0  0  0  0  0  0  0  0  0
    0.3690  -14.9280   -1.5590 C   0  0  0  0  0  0  0  0  0  0  0  0
    0.7460  -15.6070   -0.2280 C   0  0  2  0  0  0  0  0  0  0  0  0
    0.3820  -17.1010   -0.3500 C   0  0  0  0  0  0  0  0  0  0  0  0
    0.1410  -15.0260    1.0690 C   0  0  2  0  0  0  0  0  0  0  0  0
    0.1370  -13.5850    0.9840 O   0  0  0  0  0  0  0  0  0  0  0  0
   -0.9000  -12.9340    1.5710 C   0  0  0  0  0  0  0  0  0  0  0  0
   -2.0350  -12.8070    0.6010 C   0  0  0  0  0  0  0  0  0  0  0  0
   -0.9150  -12.5070    2.7160 O   0  0  0  0  0  0  0  0  0  0  0  0
    0.9770  -15.4810    2.3030 C   0  0  0  0  0  0  0  0  0  0  0  0
    2.5080  -15.2240    2.1990 C   0  0  2  0  0  0  0  0  0  0  0  0
    2.7310  -13.8220    2.3540 O   0  0  0  0  0  0  0  0  0  0  0  0
    3.1580  -15.7410    0.8550 C   0  0  1  0  0  0  0  0  0  0  0  0
    3.2530  -17.2810    0.9450 C   0  0  0  0  0  0  0  0  0  0  0  0
    2.2230  -15.2540   -0.2540 C   0  0  1  0  0  0  0  0  0  0  0  0
    4.5690  -15.0440    0.5340 C   0  0  1  0  0  0  0  0  0  0  0  0
    5.6130  -15.3440    1.6520 C   0  0  0  0  0  0  0  0  0  0  0  0
    6.5540  -14.1990    2.0400 C   0  0  2  0  0  0  0  0  0  0  0  0
    5.7640  -13.1230    2.5340 O   0  0  0  0  0  0  0  0  0  0  0  0
    7.3260  -13.6800    0.9820 O   0  0  0  0  0  0  0  0  0  0  0  0
    6.6190  -13.1650   -0.1410 C   0  0  1  0  0  0  0  0  0  0  0  0
    7.5000  -12.1480   -0.8660 C   0  0  0  0  0  0  0  0  0  0  0  0
    8.1090  -12.9050   -2.0500 C   0  0  1  0  0  0  0  0  0  0  0  0
    9.4870  -13.4050   -1.7640 C   0  0  0  0  0  0  0  0  0  0  0  0
    9.9610  -14.3970   -1.0090 C   0  0  0  0  0  0  0  0  0  0  0  0
   11.4290  -14.4630   -1.0760 C   0  0  0  0  0  0  0  0  0  0  0  0
   11.7880  -13.4230   -1.9810 O   0  0  0  0  0  0  0  0  0  0  0  0
   10.6600  -12.7850   -2.3990 C   0  0  0  0  0  0  0  0  0  0  0  0
   10.6260  -11.8540   -3.1820 O   0  0  0  0  0  0  0  0  0  0  0  0
    7.0820  -13.9980   -2.2860 C   0  0  0  0  0  0  0  0  0  0  0  0
    7.0600  -14.6380   -3.6360 C   0  0  0  0  0  0  0  0  0  0  0  0
    6.2750  -14.1790   -1.2160 C   0  0  0  0  0  0  0  0  0  0  0  0
    5.0990  -15.1630   -0.9820 C   0  0  2  0  0  0  0  0  0  0  0  0
    5.5850  -16.6080   -1.2560 C   0  0  0  0  0  0  0  0  0  0  0  0
    0.8209  -10.2382   -0.1198 H   0  0  0  0  0  0  0  0  0  0  0  0
    1.2665   -9.3318   -1.6052 H   0  0  0  0  0  0  0  0  0  0  0  0
   -0.1756  -10.4027   -1.6052 H   0  0  0  0  0  0  0  0  0  0  0  0
    1.5949  -12.3482   -1.0847 H   0  0  0  0  0  0  0  0  0  0  0  0
    3.1430   -9.4148   -3.0093 H   0  0  0  0  0  0  0  0  0  0  0  0
    3.7530  -10.5718   -4.2405 H   0  0  0  0  0  0  0  0  0  0  0  0
    2.0226  -10.0897   -4.2405 H   0  0  0  0  0  0  0  0  0  0  0  0
    4.2793  -15.0699   -3.0098 H   0  0  0  0  0  0  0  0  0  0  0  0
    2.8864  -16.5901   -1.8782 H   0  0  0  0  0  0  0  0  0  0  0  0
    0.1893  -13.8544   -1.4004 H   0  0  0  0  0  0  0  0  0  0  0  0
   -0.5513  -15.3598   -1.9792 H   0  0  0  0  0  0  0  0  0  0  0  0
    0.2761  -17.5358    0.6548 H   0  0  0  0  0  0  0  0  0  0  0  0
   -0.5674  -17.2037   -0.8959 H   0  0  0  0  0  0  0  0  0  0  0  0
    1.1778  -17.6289   -0.8959 H   0  0  0  0  0  0  0  0  0  0  0  0
   -0.8890  -15.3935    1.1878 H   0  0  0  0  0  0  0  0  0  0  0  0
   -2.9799  -12.7013    1.1541 H   0  0  0  0  0  0  0  0  0  0  0  0
   -1.8793  -11.9207   -0.0316 H   0  0  0  0  0  0  0  0  0  0  0  0
   -2.0790  -13.7058   -0.0316 H   0  0  0  0  0  0  0  0  0  0  0  0
    0.6010  -14.9427    3.1856 H   0  0  0  0  0  0  0  0  0  0  0  0
    0.8550  -16.5723    2.3679 H   0  0  0  0  0  0  0  0  0  0  0  0
    2.9994  -15.8015    2.9959 H   0  0  0  0  0  0  0  0  0  0  0  0
    3.6280  -13.7030    2.7130 H   0  0  0  0  0  0  0  0  0  0  0  0
    3.2718  -17.5861    2.0017 H   0  0  0  0  0  0  0  0  0  0  0  0
    2.3810  -17.7318    0.4487 H   0  0  0  0  0  0  0  0  0  0  0  0
    4.1738  -17.6212    0.4487 H   0  0  0  0  0  0  0  0  0  0  0  0
    2.3403  -14.1982    0.0316 H   0  0  0  0  0  0  0  0  0  0  0  0
    4.3828  -13.9605    0.5716 H   0  0  0  0  0  0  0  0  0  0  0  0
    5.0587  -15.6403    2.5548 H   0  0  0  0  0  0  0  0  0  0  0  0
    6.2654  -16.1259    1.2360 H   0  0  0  0  0  0  0  0  0  0  0  0
    7.2515  -14.6222    2.7778 H   0  0  0  0  0  0  0  0  0  0  0  0
    5.0560  -13.0320    1.8740 H   0  0  0  0  0  0  0  0  0  0  0  0
    5.6901  -12.7647    0.2913 H   0  0  0  0  0  0  0  0  0  0  0  0
    6.8959  -11.3002   -1.2214 H   0  0  0  0  0  0  0  0  0  0  0  0
    8.2749  -11.7340   -0.2041 H   0  0  0  0  0  0  0  0  0  0  0  0
    8.2763  -12.2859   -2.9437 H   0  0  0  0  0  0  0  0  0  0  0  0
    9.3352  -15.0778   -0.4133 H   0  0  0  0  0  0  0  0  0  0  0  0
   11.8725  -14.2871   -0.0848 H   0  0  0  0  0  0  0  0  0  0  0  0
   11.7905  -15.4487   -1.4043 H   0  0  0  0  0  0  0  0  0  0  0  0
    7.0224  -15.7315   -3.5228 H   0  0  0  0  0  0  0  0  0  0  0  0
    6.1731  -14.2960   -4.1895 H   0  0  0  0  0  0  0  0  0  0  0  0
    7.9683  -14.3577   -4.1895 H   0  0  0  0  0  0  0  0  0  0  0  0
    5.7585  -17.1239   -0.3001 H   0  0  0  0  0  0  0  0  0  0  0  0
    4.8195  -17.1494   -1.8312 H   0  0  0  0  0  0  0  0  0  0  0  0
    6.5221  -16.5768   -1.8312 H   0  0  0  0  0  0  0  0  0  0  0  0
  1  2  1  0
  2  3  2  0
  3  4  1  0
  3  5  1  0
  5  6  2  0
  5  7  1  0
  7  8  1  0
  8  9  1  0
  9 10  1  0
 10 11  1  0
 11 12  1  0
 12 13  1  6
 12 14  1  0
 14 15  1  0
 15 16  1  0
 16 17  1  0
 16 18  2  0
 14 19  1  0
 19 20  1  0
 20 21  1  0
 20 22  1  0
 22 23  1  1
 22 24  1  0
 22 25  1  0
 25 26  1  0
 26 27  1  0
 27 28  1  0
 27 29  1  0
 29 30  1  0
 30 31  1  0
 31 32  1  0
 32 33  1  0
 33 34  2  0
 34 35  1  0
 35 36  1  0
 36 37  1  0
 37 38  2  0
 32 39  1  0
 39 40  1  0
 39 41  2  0
 41 42  1  0
 42 43  1  6
 42  8  1  0
 24  9  1  0
 42 25  1  0
 24 12  1  0
 41 30  1  0
 37 33  1  0
  1 44  1  0
  1 45  1  0
  1 46  1  0
  2 47  1  0
  4 48  1  0
  4 49  1  0
  4 50  1  0
  8 51  1  6
  9 52  1  1
 11 53  1  0
 11 54  1  0
 13 55  1  0
 13 56  1  0
 13 57  1  0
 14 58  1  1
 17 59  1  0
 17 60  1  0
 17 61  1  0
 19 62  1  0
 19 63  1  0
 20 64  1  1
 21 65  1  0
 23 66  1  0
 23 67  1  0
 23 68  1  0
 24 69  1  6
 25 70  1  1
 26 71  1  0
 26 72  1  0
 27 73  1  1
 28 74  1  0
 30 75  1  1
 31 76  1  0
 31 77  1  0
 32 78  1  6
 34 79  1  0
 35 80  1  0
 35 81  1  0
 40 82  1  0
 40 83  1  0
 40 84  1  0
 43 85  1  0
 43 86  1  0
 43 87  1  0
M  END
>  <meeko>  (2) 
{"is_sidechain": [false], "free_energy": -6.887, "intermolecular_energy": -11.74, "internal_energy": -1.347}

$$$$
LIB_OVOJZOGJIHRBMM__M_PUB_ALL__e8__s20260927
     RDKit          3D

 87 92  0  0  0  0  0  0  0  0999 V2000
   -3.4750  -10.3340   -0.4240 C   0  0  0  0  0  0  0  0  0  0  0  0
   -1.9980  -10.5490   -0.3220 C   0  0  0  0  0  0  0  0  0  0  0  0
   -1.2020  -10.3330    0.7470 C   0  0  0  0  0  0  0  0  0  0  0  0
   -1.6510   -9.8340    2.0900 C   0  0  0  0  0  0  0  0  0  0  0  0
    0.2760  -10.5890    0.6770 C   0  0  0  0  0  0  0  0  0  0  0  0
    1.1110   -9.7590    1.0050 O   0  0  0  0  0  0  0  0  0  0  0  0
    0.5310  -11.8490    0.2530 O   0  0  0  0  0  0  0  0  0  0  0  0
    1.3060  -12.7110    1.1260 C   0  0  2  0  0  0  0  0  0  0  0  0
    2.7270  -12.7940    0.5470 C   0  0  2  0  0  0  0  0  0  0  0  0
    3.3600  -11.5110    0.3250 O   0  0  0  0  0  0  0  0  0  0  0  0
    3.9610  -11.5170   -1.0040 C   0  0  0  0  0  0  0  0  0  0  0  0
    4.0080  -12.9890   -1.4560 C   0  0  2  0  0  0  0  0  0  0  0  0
    5.2970  -13.6100   -0.8800 C   0  0  0  0  0  0  0  0  0  0  0  0
    3.9220  -13.2770   -2.9720 C   0  0  2  0  0  0  0  0  0  0  0  0
    2.9570  -12.3830   -3.5680 O   0  0  0  0  0  0  0  0  0  0  0  0
    3.3940  -11.5880   -4.5800 C   0  0  0  0  0  0  0  0  0  0  0  0
    4.4940  -12.2770   -5.3270 C   0  0  0  0  0  0  0  0  0  0  0  0
    2.9640  -10.4760   -4.8450 O   0  0  0  0  0  0  0  0  0  0  0  0
    3.4930  -14.7550   -3.2150 C   0  0  0  0  0  0  0  0  0  0  0  0
    2.2140  -15.2100   -2.4540 C   0  0  2  0  0  0  0  0  0  0  0  0
    1.0860  -14.6020   -3.0860 O   0  0  0  0  0  0  0  0  0  0  0  0
    2.2300  -14.8730   -0.9110 C   0  0  1  0  0  0  0  0  0  0  0  0
    3.1940  -15.8670   -0.2250 C   0  0  0  0  0  0  0  0  0  0  0  0
    2.6960  -13.4180   -0.8230 C   0  0  1  0  0  0  0  0  0  0  0  0
    0.7620  -14.8710   -0.2560 C   0  0  1  0  0  0  0  0  0  0  0  0
    0.0880  -16.2700   -0.3810 C   0  0  0  0  0  0  0  0  0  0  0  0
   -1.4110  -16.2760   -0.6970 C   0  0  2  0  0  0  0  0  0  0  0  0
   -1.6020  -15.6310   -1.9510 O   0  0  0  0  0  0  0  0  0  0  0  0
   -2.2180  -15.5930    0.2350 O   0  0  0  0  0  0  0  0  0  0  0  0
   -1.9330  -14.2150    0.4470 C   0  0  1  0  0  0  0  0  0  0  0  0
   -3.1880  -13.5190    0.9720 C   0  0  0  0  0  0  0  0  0  0  0  0
   -2.9990  -13.4220    2.4880 C   0  0  1  0  0  0  0  0  0  0  0  0
   -3.6960  -14.5180    3.2260 C   0  0  0  0  0  0  0  0  0  0  0  0
   -3.3290  -15.7440    3.6000 C   0  0  0  0  0  0  0  0  0  0  0  0
   -4.4170  -16.4310    4.3150 C   0  0  0  0  0  0  0  0  0  0  0  0
   -5.4700  -15.4720    4.3600 O   0  0  0  0  0  0  0  0  0  0  0  0
   -5.0680  -14.3370    3.7230 C   0  0  0  0  0  0  0  0  0  0  0  0
   -5.7360  -13.3280    3.5940 O   0  0  0  0  0  0  0  0  0  0  0  0
   -1.4860  -13.4430    2.6180 C   0  0  0  0  0  0  0  0  0  0  0  0
   -0.8980  -12.8860    3.8740 C   0  0  0  0  0  0  0  0  0  0  0  0
   -0.8850  -13.9210    1.5050 C   0  0  0  0  0  0  0  0  0  0  0  0
    0.6130  -14.1330    1.1670 C   0  0  2  0  0  0  0  0  0  0  0  0
    1.2660  -14.9950    2.2760 C   0  0  0  0  0  0  0  0  0  0  0  0
   -3.9070  -10.2711    0.5857 H   0  0  0  0  0  0  0  0  0  0  0  0
   -3.6726   -9.3976   -0.9663 H   0  0  0  0  0  0  0  0  0  0  0  0
   -3.9314  -11.1752   -0.9663 H   0  0  0  0  0  0  0  0  0  0  0  0
   -1.5007  -10.9287   -1.2267 H   0  0  0  0  0  0  0  0  0  0  0  0
   -1.1402  -10.4017    2.8816 H   0  0  0  0  0  0  0  0  0  0  0  0
   -1.4032   -8.7666    2.1861 H   0  0  0  0  0  0  0  0  0  0  0  0
   -2.7386   -9.9681    2.1861 H   0  0  0  0  0  0  0  0  0  0  0  0
    1.3570  -12.3238    2.1543 H   0  0  0  0  0  0  0  0  0  0  0  0
    3.2843  -13.3707    1.2999 H   0  0  0  0  0  0  0  0  0  0  0  0
    3.3491  -10.9249   -1.7005 H   0  0  0  0  0  0  0  0  0  0  0  0
    4.9675  -11.0736   -0.9875 H   0  0  0  0  0  0  0  0  0  0  0  0
    5.2545  -13.5895    0.2190 H   0  0  0  0  0  0  0  0  0  0  0  0
    5.3881  -14.6508   -1.2241 H   0  0  0  0  0  0  0  0  0  0  0  0
    6.1677  -13.0325   -1.2241 H   0  0  0  0  0  0  0  0  0  0  0  0
    4.9092  -13.1178   -3.4304 H   0  0  0  0  0  0  0  0  0  0  0  0
    5.2017  -12.7203   -4.6110 H   0  0  0  0  0  0  0  0  0  0  0  0
    4.0674  -13.0696   -5.9593 H   0  0  0  0  0  0  0  0  0  0  0  0
    5.0209  -11.5472   -5.9593 H   0  0  0  0  0  0  0  0  0  0  0  0
    3.3112  -14.8834   -4.2923 H   0  0  0  0  0  0  0  0  0  0  0  0
    4.3140  -15.3773   -2.8293 H   0  0  0  0  0  0  0  0  0  0  0  0
    2.1639  -16.3075   -2.5077 H   0  0  0  0  0  0  0  0  0  0  0  0
    0.4590  -14.3480   -2.3870 H   0  0  0  0  0  0  0  0  0  0  0  0
    3.1022  -15.7724    0.8671 H   0  0  0  0  0  0  0  0  0  0  0  0
    2.9383  -16.8934   -0.5269 H   0  0  0  0  0  0  0  0  0  0  0  0
    4.2277  -15.6428   -0.5269 H   0  0  0  0  0  0  0  0  0  0  0  0
    1.8657  -13.0546   -1.4464 H   0  0  0  0  0  0  0  0  0  0  0  0
    0.1595  -14.1865   -0.8712 H   0  0  0  0  0  0  0  0  0  0  0  0
    0.6019  -16.8189   -1.1839 H   0  0  0  0  0  0  0  0  0  0  0  0
    0.1795  -16.7294    0.6143 H   0  0  0  0  0  0  0  0  0  0  0  0
   -1.7159  -17.3328   -0.6817 H   0  0  0  0  0  0  0  0  0  0  0  0
   -0.8990  -14.9600   -1.9770 H   0  0  0  0  0  0  0  0  0  0  0  0
   -1.5699  -13.8650   -0.5306 H   0  0  0  0  0  0  0  0  0  0  0  0
   -3.2836  -12.5155    0.5317 H   0  0  0  0  0  0  0  0  0  0  0  0
   -4.1014  -14.0729    0.7096 H   0  0  0  0  0  0  0  0  0  0  0  0
   -3.4478  -12.5261    2.9418 H   0  0  0  0  0  0  0  0  0  0  0  0
   -2.3413  -16.1850    3.4002 H   0  0  0  0  0  0  0  0  0  0  0  0
   -4.7337  -17.3321    3.7693 H   0  0  0  0  0  0  0  0  0  0  0  0
   -4.1135  -16.7690    5.3168 H   0  0  0  0  0  0  0  0  0  0  0  0
   -1.3865  -13.3487    4.7442 H   0  0  0  0  0  0  0  0  0  0  0  0
    0.1803  -13.1017    3.9011 H   0  0  0  0  0  0  0  0  0  0  0  0
   -1.0550  -11.7976    3.9011 H   0  0  0  0  0  0  0  0  0  0  0  0
    0.9722  -14.6072    3.2626 H   0  0  0  0  0  0  0  0  0  0  0  0
    0.9288  -16.0373    2.1765 H   0  0  0  0  0  0  0  0  0  0  0  0
    2.3607  -14.9526    2.1765 H   0  0  0  0  0  0  0  0  0  0  0  0
  1  2  1  0
  2  3  2  0
  3  4  1  0
  3  5  1  0
  5  6  2  0
  5  7  1  0
  7  8  1  0
  8  9  1  0
  9 10  1  0
 10 11  1  0
 11 12  1  0
 12 13  1  1
 12 14  1  0
 14 15  1  0
 15 16  1  0
 16 17  1  0
 16 18  2  0
 14 19  1  0
 19 20  1  0
 20 21  1  0
 20 22  1  0
 22 23  1  1
 22 24  1  0
 22 25  1  0
 25 26  1  0
 26 27  1  0
 27 28  1  0
 27 29  1  0
 29 30  1  0
 30 31  1  0
 31 32  1  0
 32 33  1  0
 33 34  2  0
 34 35  1  0
 35 36  1  0
 36 37  1  0
 37 38  2  0
 32 39  1  0
 39 40  1  0
 39 41  2  0
 41 42  1  0
 42 43  1  1
 42  8  1  0
 24  9  1  0
 42 25  1  0
 24 12  1  0
 41 30  1  0
 37 33  1  0
  1 44  1  0
  1 45  1  0
  1 46  1  0
  2 47  1  0
  4 48  1  0
  4 49  1  0
  4 50  1  0
  8 51  1  1
  9 52  1  1
 11 53  1  0
 11 54  1  0
 13 55  1  0
 13 56  1  0
 13 57  1  0
 14 58  1  6
 17 59  1  0
 17 60  1  0
 17 61  1  0
 19 62  1  0
 19 63  1  0
 20 64  1  1
 21 65  1  0
 23 66  1  0
 23 67  1  0
 23 68  1  0
 24 69  1  6
 25 70  1  6
 26 71  1  0
 26 72  1  0
 27 73  1  6
 28 74  1  0
 30 75  1  6
 31 76  1  0
 31 77  1  0
 32 78  1  1
 34 79  1  0
 35 80  1  0
 35 81  1  0
 40 82  1  0
 40 83  1  0
 40 84  1  0
 43 85  1  0
 43 86  1  0
 43 87  1  0
M  END
>  <meeko>  (3) 
{"is_sidechain": [false], "free_energy": -6.746, "intermolecular_energy": -11.38, "internal_energy": -1.476}

$$$$
LIB_OVOJZOGJIHRBMM__M_PUB_ALL__e8__s20260927
     RDKit          3D

 87 92  0  0  0  0  0  0  0  0999 V2000
   -4.3350  -13.9180    2.7920 C   0  0  0  0  0  0  0  0  0  0  0  0
   -3.0660  -13.3450    2.2470 C   0  0  0  0  0  0  0  0  0  0  0  0
   -2.4000  -13.7160    1.1330 C   0  0  0  0  0  0  0  0  0  0  0  0
   -2.8180  -14.8000    0.1810 C   0  0  0  0  0  0  0  0  0  0  0  0
   -1.1200  -13.0400    0.7310 C   0  0  0  0  0  0  0  0  0  0  0  0
   -1.0470  -11.8450    0.4890 O   0  0  0  0  0  0  0  0  0  0  0  0
   -0.0910  -13.9190    0.7210 O   0  0  0  0  0  0  0  0  0  0  0  0
    1.0370  -13.6480    1.5920 C   0  0  2  0  0  0  0  0  0  0  0  0
    2.1630  -13.0710    0.7190 C   0  0  2  0  0  0  0  0  0  0  0  0
    1.7800  -11.9220   -0.0730 O   0  0  0  0  0  0  0  0  0  0  0  0
    2.2660  -12.1150   -1.4340 C   0  0  0  0  0  0  0  0  0  0  0  0
    3.3010  -13.2560   -1.3710 C   0  0  2  0  0  0  0  0  0  0  0  0
    4.6570  -12.6320   -0.9840 C   0  0  0  0  0  0  0  0  0  0  0  0
    3.4710  -14.1400   -2.6260 C   0  0  2  0  0  0  0  0  0  0  0  0
    2.1730  -14.3910   -3.2070 O   0  0  0  0  0  0  0  0  0  0  0  0
    2.0050  -14.0580   -4.5130 C   0  0  0  0  0  0  0  0  0  0  0  0
    0.6380  -14.4650   -4.9700 C   0  0  0  0  0  0  0  0  0  0  0  0
    2.8400  -13.5130   -5.2200 O   0  0  0  0  0  0  0  0  0  0  0  0
    4.1490  -15.4900   -2.2450 C   0  0  0  0  0  0  0  0  0  0  0  0
    3.4840  -16.2590   -1.0680 C   0  0  2  0  0  0  0  0  0  0  0  0
    2.2580  -16.8170   -1.5430 O   0  0  0  0  0  0  0  0  0  0  0  0
    3.2270  -15.3750    0.2150 C   0  0  1  0  0  0  0  0  0  0  0  0
    4.5900  -15.1530    0.9100 C   0  0  0  0  0  0  0  0  0  0  0  0
    2.5960  -14.0830   -0.3090 C   0  0  1  0  0  0  0  0  0  0  0  0
    2.1190  -16.0020    1.1950 C   0  0  1  0  0  0  0  0  0  0  0  0
    2.5450  -17.4010    1.7420 C   0  0  0  0  0  0  0  0  0  0  0  0
    1.6570  -18.0030    2.8350 C   0  0  2  0  0  0  0  0  0  0  0  0
    2.1040  -19.3300    3.0900 O   0  0  0  0  0  0  0  0  0  0  0  0
    0.2900  -18.0950    2.5060 O   0  0  0  0  0  0  0  0  0  0  0  0
   -0.3990  -16.8720    2.2670 C   0  0  1  0  0  0  0  0  0  0  0  0
   -1.7950  -16.9540    2.8840 C   0  0  0  0  0  0  0  0  0  0  0  0
   -1.6950  -16.2190    4.2230 C   0  0  1  0  0  0  0  0  0  0  0  0
   -1.4880  -17.1480    5.3750 C   0  0  0  0  0  0  0  0  0  0  0  0
   -0.5130  -17.9980    5.7000 C   0  0  0  0  0  0  0  0  0  0  0  0
   -0.8080  -18.6880    6.9650 C   0  0  0  0  0  0  0  0  0  0  0  0
   -2.0530  -18.1370    7.3860 O   0  0  0  0  0  0  0  0  0  0  0  0
   -2.4730  -17.2280    6.4640 C   0  0  0  0  0  0  0  0  0  0  0  0
   -3.4990  -16.5760    6.5340 O   0  0  0  0  0  0  0  0  0  0  0  0
   -0.5390  -15.2660    3.9730 C   0  0  0  0  0  0  0  0  0  0  0  0
   -0.4450  -14.0580    4.8470 C   0  0  0  0  0  0  0  0  0  0  0  0
    0.2110  -15.6420    2.9130 C   0  0  0  0  0  0  0  0  0  0  0  0
    1.4740  -15.0020    2.2810 C   0  0  2  0  0  0  0  0  0  0  0  0
    2.5060  -14.7060    3.3980 C   0  0  0  0  0  0  0  0  0  0  0  0
   -4.3017  -13.9029    3.8914 H   0  0  0  0  0  0  0  0  0  0  0  0
   -5.1881  -13.3177    2.4428 H   0  0  0  0  0  0  0  0  0  0  0  0
   -4.4488  -14.9549    2.4428 H   0  0  0  0  0  0  0  0  0  0  0  0
   -2.6210  -12.5209    2.8240 H   0  0  0  0  0  0  0  0  0  0  0  0
   -3.1565  -15.6779    0.7508 H   0  0  0  0  0  0  0  0  0  0  0  0
   -3.6398  -14.4348   -0.4525 H   0  0  0  0  0  0  0  0  0  0  0  0
   -1.9638  -15.0811   -0.4525 H   0  0  0  0  0  0  0  0  0  0  0  0
    0.7870  -12.9262    2.3835 H   0  0  0  0  0  0  0  0  0  0  0  0
    2.9413  -12.7932    1.4450 H   0  0  0  0  0  0  0  0  0  0  0  0
    1.4346  -12.3923   -2.0988 H   0  0  0  0  0  0  0  0  0  0  0  0
    2.7144  -11.1924   -1.8311 H   0  0  0  0  0  0  0  0  0  0  0  0
    4.7430  -12.5924    0.1119 H   0  0  0  0  0  0  0  0  0  0  0  0
    5.4731  -13.2451   -1.3939 H   0  0  0  0  0  0  0  0  0  0  0  0
    4.7222  -11.6133   -1.3939 H   0  0  0  0  0  0  0  0  0  0  0  0
    4.1095  -13.6192   -3.3547 H   0  0  0  0  0  0  0  0  0  0  0  0
    0.0001  -14.6549   -4.0942 H   0  0  0  0  0  0  0  0  0  0  0  0
    0.1987  -13.6587   -5.5757 H   0  0  0  0  0  0  0  0  0  0  0  0
    0.7113  -15.3803   -5.5757 H   0  0  0  0  0  0  0  0  0  0  0  0
    4.1297  -16.1419   -3.1308 H   0  0  0  0  0  0  0  0  0  0  0  0
    5.1644  -15.2356   -1.9070 H   0  0  0  0  0  0  0  0  0  0  0  0
    4.1843  -17.0419   -0.7414 H   0  0  0  0  0  0  0  0  0  0  0  0
    2.2990  -16.8320   -2.5160 H   0  0  0  0  0  0  0  0  0  0  0  0
    4.4531  -15.1753    2.0012 H   0  0  0  0  0  0  0  0  0  0  0  0
    5.2877  -15.9493    0.6116 H   0  0  0  0  0  0  0  0  0  0  0  0
    4.9990  -14.1764    0.6116 H   0  0  0  0  0  0  0  0  0  0  0  0
    1.7537  -14.6151   -0.7754 H   0  0  0  0  0  0  0  0  0  0  0  0
    1.2454  -16.1807    0.5509 H   0  0  0  0  0  0  0  0  0  0  0  0
    2.5556  -18.1027    0.8949 H   0  0  0  0  0  0  0  0  0  0  0  0
    3.5256  -17.2440    2.2151 H   0  0  0  0  0  0  0  0  0  0  0  0
    1.7426  -17.3247    3.6967 H   0  0  0  0  0  0  0  0  0  0  0  0
    2.4080  -19.2990    4.0130 H   0  0  0  0  0  0  0  0  0  0  0  0
   -0.3689  -16.7602    1.1731 H   0  0  0  0  0  0  0  0  0  0  0  0
   -2.5330  -16.4648    2.2313 H   0  0  0  0  0  0  0  0  0  0  0  0
   -2.1227  -17.9959    3.0142 H   0  0  0  0  0  0  0  0  0  0  0  0
   -2.6159  -15.6953    4.5193 H   0  0  0  0  0  0  0  0  0  0  0  0
    0.3942  -18.1618    5.0998 H   0  0  0  0  0  0  0  0  0  0  0  0
   -0.8962  -19.7728    6.8055 H   0  0  0  0  0  0  0  0  0  0  0  0
   -0.0136  -18.5505    7.7133 H   0  0  0  0  0  0  0  0  0  0  0  0
   -0.4690  -14.3664    5.9026 H   0  0  0  0  0  0  0  0  0  0  0  0
    0.4970  -13.5288    4.6410 H   0  0  0  0  0  0  0  0  0  0  0  0
   -1.2938  -13.3894    4.6410 H   0  0  0  0  0  0  0  0  0  0  0  0
    2.0315  -14.8421    4.3810 H   0  0  0  0  0  0  0  0  0  0  0  0
    3.3572  -15.3962    3.3030 H   0  0  0  0  0  0  0  0  0  0  0  0
    2.8620  -13.6695    3.3030 H   0  0  0  0  0  0  0  0  0  0  0  0
  1  2  1  0
  2  3  2  0
  3  4  1  0
  3  5  1  0
  5  6  2  0
  5  7  1  0
  7  8  1  0
  8  9  1  0
  9 10  1  0
 10 11  1  0
 11 12  1  0
 12 13  1  1
 12 14  1  0
 14 15  1  0
 15 16  1  0
 16 17  1  0
 16 18  2  0
 14 19  1  0
 19 20  1  0
 20 21  1  0
 20 22  1  0
 22 23  1  1
 22 24  1  0
 22 25  1  0
 25 26  1  0
 26 27  1  0
 27 28  1  0
 27 29  1  0
 29 30  1  0
 30 31  1  0
 31 32  1  0
 32 33  1  0
 33 34  2  0
 34 35  1  0
 35 36  1  0
 36 37  1  0
 37 38  2  0
 32 39  1  0
 39 40  1  0
 39 41  2  0
 41 42  1  0
 42 43  1  1
 42  8  1  0
 24  9  1  0
 42 25  1  0
 24 12  1  0
 41 30  1  0
 37 33  1  0
  1 44  1  0
  1 45  1  0
  1 46  1  0
  2 47  1  0
  4 48  1  0
  4 49  1  0
  4 50  1  0
  8 51  1  1
  9 52  1  1
 11 53  1  0
 11 54  1  0
 13 55  1  0
 13 56  1  0
 13 57  1  0
 14 58  1  6
 17 59  1  0
 17 60  1  0
 17 61  1  0
 19 62  1  0
 19 63  1  0
 20 64  1  1
 21 65  1  0
 23 66  1  0
 23 67  1  0
 23 68  1  0
 24 69  1  6
 25 70  1  6
 26 71  1  0
 26 72  1  0
 27 73  1  1
 28 74  1  0
 30 75  1  6
 31 76  1  0
 31 77  1  0
 32 78  1  1
 34 79  1  0
 35 80  1  0
 35 81  1  0
 40 82  1  0
 40 83  1  0
 40 84  1  0
 43 85  1  0
 43 86  1  0
 43 87  1  0
M  END
>  <meeko>  (4) 
{"is_sidechain": [false], "free_energy": -6.718, "intermolecular_energy": -11.317, "internal_energy": -1.493}

$$$$
LIB_OVOJZOGJIHRBMM__M_PUB_ALL__e8__s20260927
     RDKit          3D

 87 92  0  0  0  0  0  0  0  0999 V2000
    6.9010  -18.9150    0.1130 C   0  0  0  0  0  0  0  0  0  0  0  0
    6.9940  -17.7100   -0.7670 C   0  0  0  0  0  0  0  0  0  0  0  0
    6.5650  -16.4570   -0.5030 C   0  0  0  0  0  0  0  0  0  0  0  0
    5.9040  -16.0040    0.7670 C   0  0  0  0  0  0  0  0  0  0  0  0
    6.7240  -15.3540   -1.5100 C   0  0  0  0  0  0  0  0  0  0  0  0
    5.7760  -14.8190   -2.0660 O   0  0  0  0  0  0  0  0  0  0  0  0
    8.0270  -15.0260   -1.6680 O   0  0  0  0  0  0  0  0  0  0  0  0
    8.3640  -14.0810   -2.7160 C   0  0  2  0  0  0  0  0  0  0  0  0
    9.1990  -14.8340   -3.7640 C   0  0  2  0  0  0  0  0  0  0  0  0
    8.5770  -16.0370   -4.2750 O   0  0  0  0  0  0  0  0  0  0  0  0
    9.5670  -17.1080   -4.2660 C   0  0  0  0  0  0  0  0  0  0  0  0
   10.9410  -16.4330   -4.0870 C   0  0  2  0  0  0  0  0  0  0  0  0
   11.4320  -16.0020   -5.4840 C   0  0  0  0  0  0  0  0  0  0  0  0
   12.0470  -17.2370   -3.3690 C   0  0  2  0  0  0  0  0  0  0  0  0
   11.4630  -17.9610   -2.2640 O   0  0  0  0  0  0  0  0  0  0  0  0
   11.5150  -19.3180   -2.3180 C   0  0  0  0  0  0  0  0  0  0  0  0
   12.5350  -19.7470   -3.3270 C   0  0  0  0  0  0  0  0  0  0  0  0
   10.8330  -20.0820   -1.6510 O   0  0  0  0  0  0  0  0  0  0  0  0
   13.1550  -16.2770   -2.8450 C   0  0  0  0  0  0  0  0  0  0  0  0
   12.6480  -15.0790   -1.9900 C   0  0  2  0  0  0  0  0  0  0  0  0
   12.2490  -15.5860   -0.7150 O   0  0  0  0  0  0  0  0  0  0  0  0
   11.4680  -14.2680   -2.6560 C   0  0  1  0  0  0  0  0  0  0  0  0
   12.0710  -13.4160   -3.7960 C   0  0  0  0  0  0  0  0  0  0  0  0
   10.4810  -15.3290   -3.1490 C   0  0  1  0  0  0  0  0  0  0  0  0
   10.6320  -13.3960   -1.5970 C   0  0  1  0  0  0  0  0  0  0  0  0
   11.5360  -12.3280   -0.9070 C   0  0  0  0  0  0  0  0  0  0  0  0
   11.2930  -12.0590    0.5810 C   0  0  2  0  0  0  0  0  0  0  0  0
   11.5470  -13.2610    1.2970 O   0  0  0  0  0  0  0  0  0  0  0  0
    9.9810  -11.6640    0.9070 O   0  0  0  0  0  0  0  0  0  0  0  0
    8.9310  -12.5520    0.5420 C   0  0  1  0  0  0  0  0  0  0  0  0
    7.7270  -12.3080    1.4520 C   0  0  0  0  0  0  0  0  0  0  0  0
    6.7760  -11.4230    0.6420 C   0  0  1  0  0  0  0  0  0  0  0  0
    6.9110   -9.9730    0.9790 C   0  0  0  0  0  0  0  0  0  0  0  0
    7.7150   -9.0050    0.5390 C   0  0  0  0  0  0  0  0  0  0  0  0
    7.4310   -7.7290    1.2160 C   0  0  0  0  0  0  0  0  0  0  0  0
    6.3440   -8.0270    2.0880 O   0  0  0  0  0  0  0  0  0  0  0  0
    6.0220   -9.3440    1.9660 C   0  0  0  0  0  0  0  0  0  0  0  0
    5.1310   -9.9100    2.5730 O   0  0  0  0  0  0  0  0  0  0  0  0
    7.1590  -11.7720   -0.7850 C   0  0  0  0  0  0  0  0  0  0  0  0
    6.1510  -11.4960   -1.8530 C   0  0  0  0  0  0  0  0  0  0  0  0
    8.3730  -12.3640   -0.8570 C   0  0  0  0  0  0  0  0  0  0  0  0
    9.1800  -12.8890   -2.0720 C   0  0  2  0  0  0  0  0  0  0  0  0
    9.3360  -11.7480   -3.1080 C   0  0  0  0  0  0  0  0  0  0  0  0
    6.9252  -18.6019    1.1672 H   0  0  0  0  0  0  0  0  0  0  0  0
    5.9592  -19.4458   -0.0904 H   0  0  0  0  0  0  0  0  0  0  0  0
    7.7502  -19.5840   -0.0904 H   0  0  0  0  0  0  0  0  0  0  0  0
    7.4690  -17.8623   -1.7474 H   0  0  0  0  0  0  0  0  0  0  0  0
    6.4661  -16.3892    1.6305 H   0  0  0  0  0  0  0  0  0  0  0  0
    5.8886  -14.9046    0.8004 H   0  0  0  0  0  0  0  0  0  0  0  0
    4.8731  -16.3863    0.8004 H   0  0  0  0  0  0  0  0  0  0  0  0
    7.4697  -13.6618   -3.2002 H   0  0  0  0  0  0  0  0  0  0  0  0
    9.3321  -14.0997   -4.5721 H   0  0  0  0  0  0  0  0  0  0  0  0
    9.3717  -17.7989   -3.4327 H   0  0  0  0  0  0  0  0  0  0  0  0
    9.5293  -17.6921   -5.1973 H   0  0  0  0  0  0  0  0  0  0  0  0
   12.2548  -15.2798   -5.3768 H   0  0  0  0  0  0  0  0  0  0  0  0
   11.7882  -16.8844   -6.0358 H   0  0  0  0  0  0  0  0  0  0  0  0
   10.6032  -15.5344   -6.0358 H   0  0  0  0  0  0  0  0  0  0  0  0
   12.5019  -17.9448   -4.0776 H   0  0  0  0  0  0  0  0  0  0  0  0
   13.4289  -20.1230   -2.8077 H   0  0  0  0  0  0  0  0  0  0  0  0
   12.1145  -20.5445   -3.9572 H   0  0  0  0  0  0  0  0  0  0  0  0
   12.8109  -18.8887   -3.9572 H   0  0  0  0  0  0  0  0  0  0  0  0
   13.8499  -16.8651   -2.2275 H   0  0  0  0  0  0  0  0  0  0  0  0
   13.6229  -15.8367   -3.7379 H   0  0  0  0  0  0  0  0  0  0  0  0
   13.4743  -14.3588   -1.8972 H   0  0  0  0  0  0  0  0  0  0  0  0
   12.0690  -14.8230   -0.1380 H   0  0  0  0  0  0  0  0  0  0  0  0
   12.6559  -12.5895   -3.3661 H   0  0  0  0  0  0  0  0  0  0  0  0
   12.7262  -14.0449   -4.4166 H   0  0  0  0  0  0  0  0  0  0  0  0
   11.2600  -13.0072   -4.4166 H   0  0  0  0  0  0  0  0  0  0  0  0
   10.3438  -15.7518   -2.1428 H   0  0  0  0  0  0  0  0  0  0  0  0
   10.3273  -14.0996   -0.8082 H   0  0  0  0  0  0  0  0  0  0  0  0
   12.5798  -12.6573   -1.0173 H   0  0  0  0  0  0  0  0  0  0  0  0
   11.2891  -11.3812   -1.4096 H   0  0  0  0  0  0  0  0  0  0  0  0
   11.9610  -11.2265    0.8470 H   0  0  0  0  0  0  0  0  0  0  0  0
   12.4780  -13.1800    1.5660 H   0  0  0  0  0  0  0  0  0  0  0  0
    9.3893  -13.5490    0.6188 H   0  0  0  0  0  0  0  0  0  0  0  0
    7.2404  -13.2603    1.7097 H   0  0  0  0  0  0  0  0  0  0  0  0
    8.0207  -11.8320    2.3992 H   0  0  0  0  0  0  0  0  0  0  0  0
    5.7102  -11.6022    0.8470 H   0  0  0  0  0  0  0  0  0  0  0  0
    8.4897   -9.1419   -0.2298 H   0  0  0  0  0  0  0  0  0  0  0  0
    8.3067   -7.3878    1.7876 H   0  0  0  0  0  0  0  0  0  0  0  0
    7.1925   -6.9217    0.5079 H   0  0  0  0  0  0  0  0  0  0  0  0
    5.1887  -11.2325   -1.3897 H   0  0  0  0  0  0  0  0  0  0  0  0
    6.4983  -10.6599   -2.4777 H   0  0  0  0  0  0  0  0  0  0  0  0
    6.0239  -12.3924   -2.4777 H   0  0  0  0  0  0  0  0  0  0  0  0
    9.4669  -10.7907   -2.5822 H   0  0  0  0  0  0  0  0  0  0  0  0
   10.2158  -11.9432   -3.7387 H   0  0  0  0  0  0  0  0  0  0  0  0
    8.4361  -11.6999   -3.7387 H   0  0  0  0  0  0  0  0  0  0  0  0
  1  2  1  0
  2  3  2  0
  3  4  1  0
  3  5  1  0
  5  6  2  0
  5  7  1  0
  7  8  1  0
  8  9  1  0
  9 10  1  0
 10 11  1  0
 11 12  1  0
 12 13  1  6
 12 14  1  0
 14 15  1  0
 15 16  1  0
 16 17  1  0
 16 18  2  0
 14 19  1  0
 19 20  1  0
 20 21  1  0
 20 22  1  0
 22 23  1  6
 22 24  1  0
 22 25  1  0
 25 26  1  0
 26 27  1  0
 27 28  1  0
 27 29  1  0
 29 30  1  0
 30 31  1  0
 31 32  1  0
 32 33  1  0
 33 34  2  0
 34 35  1  0
 35 36  1  0
 36 37  1  0
 37 38  2  0
 32 39  1  0
 39 40  1  0
 39 41  2  0
 41 42  1  0
 42 43  1  6
 42  8  1  0
 24  9  1  0
 42 25  1  0
 24 12  1  0
 41 30  1  0
 37 33  1  0
  1 44  1  0
  1 45  1  0
  1 46  1  0
  2 47  1  0
  4 48  1  0
  4 49  1  0
  4 50  1  0
  8 51  1  6
  9 52  1  6
 11 53  1  0
 11 54  1  0
 13 55  1  0
 13 56  1  0
 13 57  1  0
 14 58  1  6
 17 59  1  0
 17 60  1  0
 17 61  1  0
 19 62  1  0
 19 63  1  0
 20 64  1  1
 21 65  1  0
 23 66  1  0
 23 67  1  0
 23 68  1  0
 24 69  1  1
 25 70  1  1
 26 71  1  0
 26 72  1  0
 27 73  1  1
 28 74  1  0
 30 75  1  6
 31 76  1  0
 31 77  1  0
 32 78  1  6
 34 79  1  0
 35 80  1  0
 35 81  1  0
 40 82  1  0
 40 83  1  0
 40 84  1  0
 43 85  1  0
 43 86  1  0
 43 87  1  0
M  END
>  <meeko>  (5) 
{"is_sidechain": [false], "free_energy": -6.639, "intermolecular_energy": -11.458, "internal_energy": -1.222}

$$$$
LIB_OVOJZOGJIHRBMM__M_PUB_ALL__e8__s20260927
     RDKit          3D

 87 92  0  0  0  0  0  0  0  0999 V2000
    4.1250  -12.9640   -6.1360 C   0  0  0  0  0  0  0  0  0  0  0  0
    3.5770  -12.8720   -4.7480 C   0  0  0  0  0  0  0  0  0  0  0  0
    3.2120  -11.7620   -4.0720 C   0  0  0  0  0  0  0  0  0  0  0  0
    3.2700  -10.3560   -4.5980 C   0  0  0  0  0  0  0  0  0  0  0  0
    2.6890  -11.8440   -2.6670 C   0  0  0  0  0  0  0  0  0  0  0  0
    1.8830  -11.0480   -2.2090 O   0  0  0  0  0  0  0  0  0  0  0  0
    3.1980  -12.9210   -2.0240 O   0  0  0  0  0  0  0  0  0  0  0  0
    3.6970  -12.7290   -0.6750 C   0  0  2  0  0  0  0  0  0  0  0  0
    5.2120  -12.4900   -0.7750 C   0  0  2  0  0  0  0  0  0  0  0  0
    5.5930  -11.4180   -1.6700 O   0  0  0  0  0  0  0  0  0  0  0  0
    6.6830  -11.8880   -2.5170 C   0  0  0  0  0  0  0  0  0  0  0  0
    7.2260  -13.1720   -1.8580 C   0  0  2  0  0  0  0  0  0  0  0  0
    8.2530  -12.7450   -0.7890 C   0  0  0  0  0  0  0  0  0  0  0  0
    7.8470  -14.2430   -2.7820 C   0  0  2  0  0  0  0  0  0  0  0  0
    7.0580  -14.3440   -3.9860 O   0  0  0  0  0  0  0  0  0  0  0  0
    7.6920  -14.7780   -5.1070 C   0  0  0  0  0  0  0  0  0  0  0  0
    6.8030  -15.7180   -5.8610 C   0  0  0  0  0  0  0  0  0  0  0  0
    8.8200  -14.4600   -5.4530 O   0  0  0  0  0  0  0  0  0  0  0  0
    7.8830  -15.6210   -2.0570 C   0  0  0  0  0  0  0  0  0  0  0  0
    6.5310  -16.0850   -1.4420 C   0  0  2  0  0  0  0  0  0  0  0  0
    5.6730  -16.4810   -2.5130 O   0  0  0  0  0  0  0  0  0  0  0  0
    5.8250  -14.9940   -0.5450 C   0  0  1  0  0  0  0  0  0  0  0  0
    6.5980  -14.9160    0.7920 C   0  0  0  0  0  0  0  0  0  0  0  0
    5.8920  -13.7000   -1.3600 C   0  0  1  0  0  0  0  0  0  0  0  0
    4.2550  -15.2680   -0.3450 C   0  0  1  0  0  0  0  0  0  0  0  0
    4.0050  -16.6180    0.3930 C   0  0  0  0  0  0  0  0  0  0  0  0
    2.8110  -17.4610   -0.0650 C   0  0  2  0  0  0  0  0  0  0  0  0
    3.0220  -17.8270   -1.4240 O   0  0  0  0  0  0  0  0  0  0  0  0
    1.5650  -16.8060   -0.0120 O   0  0  0  0  0  0  0  0  0  0  0  0
    1.4420  -15.5930   -0.7460 C   0  0  1  0  0  0  0  0  0  0  0  0
   -0.0310  -15.3520   -1.0740 C   0  0  0  0  0  0  0  0  0  0  0  0
   -0.5230  -14.3480   -0.0280 C   0  0  1  0  0  0  0  0  0  0  0  0
   -1.2240  -15.0070    1.1160 C   0  0  0  0  0  0  0  0  0  0  0  0
   -0.8380  -15.3600    2.3420 C   0  0  0  0  0  0  0  0  0  0  0  0
   -1.9390  -15.9920    3.0860 C   0  0  0  0  0  0  0  0  0  0  0  0
   -3.0420  -15.9510    2.1850 O   0  0  0  0  0  0  0  0  0  0  0  0
   -2.6440  -15.3760    1.0170 C   0  0  0  0  0  0  0  0  0  0  0  0
   -3.3540  -15.1880    0.0470 O   0  0  0  0  0  0  0  0  0  0  0  0
    0.7620  -13.6340    0.3520 C   0  0  0  0  0  0  0  0  0  0  0  0
    0.6360  -12.2800    0.9720 C   0  0  0  0  0  0  0  0  0  0  0  0
    1.8600  -14.3360   -0.0060 C   0  0  0  0  0  0  0  0  0  0  0  0
    3.3690  -14.0250    0.1690 C   0  0  2  0  0  0  0  0  0  0  0  0
    3.6620  -13.7570    1.6670 C   0  0  0  0  0  0  0  0  0  0  0  0
    5.2089  -13.1460   -6.0910 H   0  0  0  0  0  0  0  0  0  0  0  0
    3.6359  -13.7926   -6.6691 H   0  0  0  0  0  0  0  0  0  0  0  0
    3.9333  -12.0211   -6.6691 H   0  0  0  0  0  0  0  0  0  0  0  0
    3.4565  -13.8251   -4.2123 H   0  0  0  0  0  0  0  0  0  0  0  0
    3.2991   -9.6500   -3.7549 H   0  0  0  0  0  0  0  0  0  0  0  0
    4.1741  -10.2313   -5.2121 H   0  0  0  0  0  0  0  0  0  0  0  0
    2.3793  -10.1572   -5.2121 H   0  0  0  0  0  0  0  0  0  0  0  0
    3.2275  -11.8680   -0.1768 H   0  0  0  0  0  0  0  0  0  0  0  0
    5.5090  -12.2508    0.2568 H   0  0  0  0  0  0  0  0  0  0  0  0
    6.3108  -12.1080   -3.5285 H   0  0  0  0  0  0  0  0  0  0  0  0
    7.4703  -11.1257   -2.6122 H   0  0  0  0  0  0  0  0  0  0  0  0
    7.8335  -12.9194    0.2128 H   0  0  0  0  0  0  0  0  0  0  0  0
    9.1737  -13.3349   -0.9088 H   0  0  0  0  0  0  0  0  0  0  0  0
    8.4841  -11.6762   -0.9088 H   0  0  0  0  0  0  0  0  0  0  0  0
    8.8767  -13.9521   -3.0370 H   0  0  0  0  0  0  0  0  0  0  0  0
    6.2265  -16.3276   -5.1496 H   0  0  0  0  0  0  0  0  0  0  0  0
    6.1122  -15.1413   -6.4936 H   0  0  0  0  0  0  0  0  0  0  0  0
    7.4173  -16.3756   -6.4936 H   0  0  0  0  0  0  0  0  0  0  0  0
    8.2030  -16.3801   -2.7859 H   0  0  0  0  0  0  0  0  0  0  0  0
    8.5764  -15.5015   -1.2115 H   0  0  0  0  0  0  0  0  0  0  0  0
    6.7419  -16.9237   -0.7622 H   0  0  0  0  0  0  0  0  0  0  0  0
    4.8600  -16.8450   -2.1200 H   0  0  0  0  0  0  0  0  0  0  0  0
    5.8891  -14.9875    1.6301 H   0  0  0  0  0  0  0  0  0  0  0  0
    7.3175  -15.7461    0.8485 H   0  0  0  0  0  0  0  0  0  0  0  0
    7.1372  -13.9589    0.8485 H   0  0  0  0  0  0  0  0  0  0  0  0
    5.3441  -14.1371   -2.2078 H   0  0  0  0  0  0  0  0  0  0  0  0
    3.8491  -15.3839   -1.3608 H   0  0  0  0  0  0  0  0  0  0  0  0
    4.9090  -17.2328    0.2715 H   0  0  0  0  0  0  0  0  0  0  0  0
    3.7673  -16.3328    1.4285 H   0  0  0  0  0  0  0  0  0  0  0  0
    2.7624  -18.3126    0.6295 H   0  0  0  0  0  0  0  0  0  0  0  0
    2.4590  -18.6110   -1.5430 H   0  0  0  0  0  0  0  0  0  0  0  0
    2.1033  -15.7400   -1.6126 H   0  0  0  0  0  0  0  0  0  0  0  0
   -0.1364  -14.9353   -2.0865 H   0  0  0  0  0  0  0  0  0  0  0  0
   -0.6129  -16.2852   -1.0499 H   0  0  0  0  0  0  0  0  0  0  0  0
   -1.2950  -13.6559   -0.3953 H   0  0  0  0  0  0  0  0  0  0  0  0
    0.1727  -15.1996    2.7453 H   0  0  0  0  0  0  0  0  0  0  0  0
   -1.6873  -17.0306    3.3468 H   0  0  0  0  0  0  0  0  0  0  0  0
   -2.1529  -15.4798    4.0357 H   0  0  0  0  0  0  0  0  0  0  0  0
    0.6450  -12.3762    2.0677 H   0  0  0  0  0  0  0  0  0  0  0  0
    1.4794  -11.6504    0.6523 H   0  0  0  0  0  0  0  0  0  0  0  0
   -0.3091  -11.8168    0.6523 H   0  0  0  0  0  0  0  0  0  0  0  0
    2.9916  -14.3702    2.2872 H   0  0  0  0  0  0  0  0  0  0  0  0
    4.7074  -14.0180    1.8886 H   0  0  0  0  0  0  0  0  0  0  0  0
    3.4950  -12.6926    1.8886 H   0  0  0  0  0  0  0  0  0  0  0  0
  1  2  1  0
  2  3  2  0
  3  4  1  0
  3  5  1  0
  5  6  2  0
  5  7  1  0
  7  8  1  0
  8  9  1  0
  9 10  1  0
 10 11  1  0
 11 12  1  0
 12 13  1  1
 12 14  1  0
 14 15  1  0
 15 16  1  0
 16 17  1  0
 16 18  2  0
 14 19  1  0
 19 20  1  0
 20 21  1  0
 20 22  1  0
 22 23  1  1
 22 24  1  0
 22 25  1  0
 25 26  1  0
 26 27  1  0
 27 28  1  0
 27 29  1  0
 29 30  1  0
 30 31  1  0
 31 32  1  0
 32 33  1  0
 33 34  2  0
 34 35  1  0
 35 36  1  0
 36 37  1  0
 37 38  2  0
 32 39  1  0
 39 40  1  0
 39 41  2  0
 41 42  1  0
 42 43  1  1
 42  8  1  0
 24  9  1  0
 42 25  1  0
 24 12  1  0
 41 30  1  0
 37 33  1  0
  1 44  1  0
  1 45  1  0
  1 46  1  0
  2 47  1  0
  4 48  1  0
  4 49  1  0
  4 50  1  0
  8 51  1  1
  9 52  1  1
 11 53  1  0
 11 54  1  0
 13 55  1  0
 13 56  1  0
 13 57  1  0
 14 58  1  6
 17 59  1  0
 17 60  1  0
 17 61  1  0
 19 62  1  0
 19 63  1  0
 20 64  1  1
 21 65  1  0
 23 66  1  0
 23 67  1  0
 23 68  1  0
 24 69  1  6
 25 70  1  6
 26 71  1  0
 26 72  1  0
 27 73  1  1
 28 74  1  0
 30 75  1  6
 31 76  1  0
 31 77  1  0
 32 78  1  6
 34 79  1  0
 35 80  1  0
 35 81  1  0
 40 82  1  0
 40 83  1  0
 40 84  1  0
 43 85  1  0
 43 86  1  0
 43 87  1  0
M  END
>  <meeko>  (6) 
{"is_sidechain": [false], "free_energy": -6.311, "intermolecular_energy": -10.69, "internal_energy": -1.451}

$$$$
LIB_OVOJZOGJIHRBMM__M_PUB_ALL__e8__s20260927
     RDKit          3D

 87 92  0  0  0  0  0  0  0  0999 V2000
    4.9760  -18.1150    1.2050 C   0  0  0  0  0  0  0  0  0  0  0  0
    5.7300  -16.8930    0.7860 C   0  0  0  0  0  0  0  0  0  0  0  0
    5.3960  -15.6020    0.9930 C   0  0  0  0  0  0  0  0  0  0  0  0
    4.1730  -15.1170    1.7170 C   0  0  0  0  0  0  0  0  0  0  0  0
    6.2640  -14.4850    0.4910 C   0  0  0  0  0  0  0  0  0  0  0  0
    7.1020  -13.9290    1.1850 O   0  0  0  0  0  0  0  0  0  0  0  0
    6.0150  -14.2270   -0.8150 O   0  0  0  0  0  0  0  0  0  0  0  0
    6.2170  -12.8700   -1.2860 C   0  0  2  0  0  0  0  0  0  0  0  0
    4.8320  -12.2170   -1.4150 C   0  0  2  0  0  0  0  0  0  0  0  0
    4.0250  -12.2770   -0.2150 O   0  0  0  0  0  0  0  0  0  0  0  0
    2.6820  -12.7120   -0.5820 C   0  0  0  0  0  0  0  0  0  0  0  0
    2.5740  -12.5540   -2.1110 C   0  0  2  0  0  0  0  0  0  0  0  0
    2.1710  -11.0940   -2.4000 C   0  0  0  0  0  0  0  0  0  0  0  0
    1.6300  -13.5160   -2.8660 C   0  0  2  0  0  0  0  0  0  0  0  0
    1.7480  -14.8380   -2.2960 O   0  0  0  0  0  0  0  0  0  0  0  0
    0.6420  -15.3540   -1.6990 C   0  0  0  0  0  0  0  0  0  0  0  0
    1.0240  -16.0280   -0.4170 C   0  0  0  0  0  0  0  0  0  0  0  0
   -0.4980  -15.2880   -2.1360 O   0  0  0  0  0  0  0  0  0  0  0  0
    2.0020  -13.5580   -4.3780 C   0  0  0  0  0  0  0  0  0  0  0  0
    3.5010  -13.8400   -4.6870 C   0  0  2  0  0  0  0  0  0  0  0  0
    3.7550  -15.2190   -4.4130 O   0  0  0  0  0  0  0  0  0  0  0  0
    4.5060  -12.9250   -3.8830 C   0  0  1  0  0  0  0  0  0  0  0  0
    4.4670  -11.5170   -4.5200 C   0  0  0  0  0  0  0  0  0  0  0  0
    4.0040  -12.9500   -2.4380 C   0  0  1  0  0  0  0  0  0  0  0  0
    5.9900  -13.5380   -3.8100 C   0  0  1  0  0  0  0  0  0  0  0  0
    6.6540  -13.7110   -5.2120 C   0  0  0  0  0  0  0  0  0  0  0  0
    8.1020  -14.2120   -5.2300 C   0  0  2  0  0  0  0  0  0  0  0  0
    8.4420  -14.5380   -6.5720 O   0  0  0  0  0  0  0  0  0  0  0  0
    8.3410  -15.3680   -4.4610 O   0  0  0  0  0  0  0  0  0  0  0  0
    8.1860  -15.2480   -3.0510 C   0  0  1  0  0  0  0  0  0  0  0  0
    9.3660  -15.9270   -2.3570 C   0  0  0  0  0  0  0  0  0  0  0  0
   10.3290  -14.7950   -1.9860 C   0  0  1  0  0  0  0  0  0  0  0  0
   11.4310  -14.6300   -2.9810 C   0  0  0  0  0  0  0  0  0  0  0  0
   11.5940  -13.8370   -4.0410 C   0  0  0  0  0  0  0  0  0  0  0  0
   12.8900  -14.0810   -4.6940 C   0  0  0  0  0  0  0  0  0  0  0  0
   13.5060  -15.0840   -3.8920 O   0  0  0  0  0  0  0  0  0  0  0  0
   12.6640  -15.4240   -2.8770 C   0  0  0  0  0  0  0  0  0  0  0  0
   12.8990  -16.2500   -2.0140 O   0  0  0  0  0  0  0  0  0  0  0  0
    9.3910  -13.6050   -1.8860 C   0  0  0  0  0  0  0  0  0  0  0  0
    9.8550  -12.4340   -1.0820 C   0  0  0  0  0  0  0  0  0  0  0  0
    8.2130  -13.8310   -2.5100 C   0  0  0  0  0  0  0  0  0  0  0  0
    6.9620  -12.9300   -2.6790 C   0  0  2  0  0  0  0  0  0  0  0  0
    7.4140  -11.5060   -3.0870 C   0  0  0  0  0  0  0  0  0  0  0  0
    4.9437  -18.1673    2.3033 H   0  0  0  0  0  0  0  0  0  0  0  0
    3.9505  -18.0666    0.8099 H   0  0  0  0  0  0  0  0  0  0  0  0
    5.4792  -19.0098    0.8099 H   0  0  0  0  0  0  0  0  0  0  0  0
    6.6707  -17.0679    0.2434 H   0  0  0  0  0  0  0  0  0  0  0  0
    4.3392  -15.1829    2.8024 H   0  0  0  0  0  0  0  0  0  0  0  0
    3.9731  -14.0715    1.4395 H   0  0  0  0  0  0  0  0  0  0  0  0
    3.3109  -15.7413    1.4395 H   0  0  0  0  0  0  0  0  0  0  0  0
    6.8325  -12.2770   -0.5936 H   0  0  0  0  0  0  0  0  0  0  0  0
    5.0579  -11.1715   -1.6717 H   0  0  0  0  0  0  0  0  0  0  0  0
    2.5320  -13.7638   -0.2970 H   0  0  0  0  0  0  0  0  0  0  0  0
    1.9155  -12.1159   -0.0652 H   0  0  0  0  0  0  0  0  0  0  0  0
    2.0234  -10.5594   -1.4500 H   0  0  0  0  0  0  0  0  0  0  0  0
    2.9668  -10.6015   -2.9781 H   0  0  0  0  0  0  0  0  0  0  0  0
    1.2353  -11.0795   -2.9781 H   0  0  0  0  0  0  0  0  0  0  0  0
    0.5936  -13.1606   -2.7688 H   0  0  0  0  0  0  0  0  0  0  0  0
    0.6798  -15.4208    0.4332 H   0  0  0  0  0  0  0  0  0  0  0  0
    0.5550  -17.0219   -0.3714 H   0  0  0  0  0  0  0  0  0  0  0  0
    2.1177  -16.1362   -0.3714 H   0  0  0  0  0  0  0  0  0  0  0  0
    1.4026  -14.3483   -4.8535 H   0  0  0  0  0  0  0  0  0  0  0  0
    1.7950  -12.5513   -4.7700 H   0  0  0  0  0  0  0  0  0  0  0  0
    3.6764  -13.5992   -5.7459 H   0  0  0  0  0  0  0  0  0  0  0  0
    3.0630  -15.7400   -4.8580 H   0  0  0  0  0  0  0  0  0  0  0  0
    4.4459  -10.7559   -3.7261 H   0  0  0  0  0  0  0  0  0  0  0  0
    5.3615  -11.3718   -5.1436 H   0  0  0  0  0  0  0  0  0  0  0  0
    3.5659  -11.4215   -5.1436 H   0  0  0  0  0  0  0  0  0  0  0  0
    4.0948  -14.0439   -2.3661 H   0  0  0  0  0  0  0  0  0  0  0  0
    5.8239  -14.5570   -3.4305 H   0  0  0  0  0  0  0  0  0  0  0  0
    6.0459  -14.4283   -5.7827 H   0  0  0  0  0  0  0  0  0  0  0  0
    6.6928  -12.6987   -5.6406 H   0  0  0  0  0  0  0  0  0  0  0  0
    8.7044  -13.4001   -4.7964 H   0  0  0  0  0  0  0  0  0  0  0  0
    9.0310  -13.8140   -6.8450 H   0  0  0  0  0  0  0  0  0  0  0  0
    7.1995  -15.6929   -2.8538 H   0  0  0  0  0  0  0  0  0  0  0  0
    9.0282  -16.4559   -1.4536 H   0  0  0  0  0  0  0  0  0  0  0  0
    9.8457  -16.6748   -3.0056 H   0  0  0  0  0  0  0  0  0  0  0  0
   10.8907  -14.9663   -1.0558 H   0  0  0  0  0  0  0  0  0  0  0  0
   10.8556  -13.0968   -4.3827 H   0  0  0  0  0  0  0  0  0  0  0  0
   12.7458  -14.4399   -5.7238 H   0  0  0  0  0  0  0  0  0  0  0  0
   13.5008  -13.1692   -4.7685 H   0  0  0  0  0  0  0  0  0  0  0  0
    9.7633  -12.6654   -0.0105 H   0  0  0  0  0  0  0  0  0  0  0  0
   10.9066  -12.2181   -1.3218 H   0  0  0  0  0  0  0  0  0  0  0  0
    9.2366  -11.5564   -1.3218 H   0  0  0  0  0  0  0  0  0  0  0  0
    7.6037  -10.9085   -2.1831 H   0  0  0  0  0  0  0  0  0  0  0  0
    8.3357  -11.5708   -3.6838 H   0  0  0  0  0  0  0  0  0  0  0  0
    6.6236  -11.0273   -3.6838 H   0  0  0  0  0  0  0  0  0  0  0  0
  1  2  1  0
  2  3  2  0
  3  4  1  0
  3  5  1  0
  5  6  2  0
  5  7  1  0
  7  8  1  0
  8  9  1  0
  9 10  1  0
 10 11  1  0
 11 12  1  0
 12 13  1  1
 12 14  1  0
 14 15  1  0
 15 16  1  0
 16 17  1  0
 16 18  2  0
 14 19  1  0
 19 20  1  0
 20 21  1  0
 20 22  1  0
 22 23  1  6
 22 24  1  0
 22 25  1  0
 25 26  1  0
 26 27  1  0
 27 28  1  0
 27 29  1  0
 29 30  1  0
 30 31  1  0
 31 32  1  0
 32 33  1  0
 33 34  2  0
 34 35  1  0
 35 36  1  0
 36 37  1  0
 37 38  2  0
 32 39  1  0
 39 40  1  0
 39 41  2  0
 41 42  1  0
 42 43  1  6
 42  8  1  0
 24  9  1  0
 42 25  1  0
 24 12  1  0
 41 30  1  0
 37 33  1  0
  1 44  1  0
  1 45  1  0
  1 46  1  0
  2 47  1  0
  4 48  1  0
  4 49  1  0
  4 50  1  0
  8 51  1  1
  9 52  1  6
 11 53  1  0
 11 54  1  0
 13 55  1  0
 13 56  1  0
 13 57  1  0
 14 58  1  6
 17 59  1  0
 17 60  1  0
 17 61  1  0
 19 62  1  0
 19 63  1  0
 20 64  1  6
 21 65  1  0
 23 66  1  0
 23 67  1  0
 23 68  1  0
 24 69  1  1
 25 70  1  1
 26 71  1  0
 26 72  1  0
 27 73  1  1
 28 74  1  0
 30 75  1  1
 31 76  1  0
 31 77  1  0
 32 78  1  1
 34 79  1  0
 35 80  1  0
 35 81  1  0
 40 82  1  0
 40 83  1  0
 40 84  1  0
 43 85  1  0
 43 86  1  0
 43 87  1  0
M  END
>  <meeko>  (7) 
{"is_sidechain": [false], "free_energy": -6.311, "intermolecular_energy": -11.054, "internal_energy": -1.087}

$$$$
LIB_OVOJZOGJIHRBMM__M_PUB_ALL__e8__s20260927
     RDKit          3D

 87 92  0  0  0  0  0  0  0  0999 V2000
   -1.9040   -9.1320    2.6810 C   0  0  0  0  0  0  0  0  0  0  0  0
   -0.9420   -9.7650    1.7270 C   0  0  0  0  0  0  0  0  0  0  0  0
   -0.4710  -11.0310    1.7440 C   0  0  0  0  0  0  0  0  0  0  0  0
   -0.8390  -12.0910    2.7410 C   0  0  0  0  0  0  0  0  0  0  0  0
    0.5100  -11.5080    0.7120 C   0  0  0  0  0  0  0  0  0  0  0  0
    1.0840  -10.7530   -0.0600 O   0  0  0  0  0  0  0  0  0  0  0  0
    0.6880  -12.8470    0.7950 O   0  0  0  0  0  0  0  0  0  0  0  0
    0.7510  -13.5980   -0.4450 C   0  0  2  0  0  0  0  0  0  0  0  0
   -0.5170  -14.4610   -0.5260 C   0  0  2  0  0  0  0  0  0  0  0  0
   -1.7550  -13.7250   -0.3820 O   0  0  0  0  0  0  0  0  0  0  0  0
   -2.6100  -14.4370    0.5610 C   0  0  0  0  0  0  0  0  0  0  0  0
   -2.0130  -15.8500    0.7110 C   0  0  2  0  0  0  0  0  0  0  0  0
   -2.5730  -16.7150   -0.4370 C   0  0  0  0  0  0  0  0  0  0  0  0
   -2.2180  -16.5750    2.0600 C   0  0  2  0  0  0  0  0  0  0  0  0
   -2.0670  -15.6230    3.1350 O   0  0  0  0  0  0  0  0  0  0  0  0
   -2.3800  -16.0500    4.3870 C   0  0  0  0  0  0  0  0  0  0  0  0
   -3.8670  -16.0520    4.5660 C   0  0  0  0  0  0  0  0  0  0  0  0
   -1.5760  -16.3800    5.2460 O   0  0  0  0  0  0  0  0  0  0  0  0
   -1.1740  -17.7210    2.2180 C   0  0  0  0  0  0  0  0  0  0  0  0
    0.3080  -17.3060    1.9900 C   0  0  2  0  0  0  0  0  0  0  0  0
    0.7290  -16.5390    3.1200 O   0  0  0  0  0  0  0  0  0  0  0  0
    0.5530  -16.5000    0.6540 C   0  0  1  0  0  0  0  0  0  0  0  0
    0.4790  -17.5060   -0.5180 C   0  0  0  0  0  0  0  0  0  0  0  0
   -0.5530  -15.4430    0.6160 C   0  0  1  0  0  0  0  0  0  0  0  0
    1.9210  -15.6590    0.6730 C   0  0  1  0  0  0  0  0  0  0  0  0
    3.1890  -16.5640    0.8180 C   0  0  0  0  0  0  0  0  0  0  0  0
    4.5480  -15.8630    0.7270 C   0  0  2  0  0  0  0  0  0  0  0  0
    5.5550  -16.7950    1.1020 O   0  0  0  0  0  0  0  0  0  0  0  0
    4.6970  -14.7460    1.5730 O   0  0  0  0  0  0  0  0  0  0  0  0
    3.8560  -13.6260    1.3170 C   0  0  1  0  0  0  0  0  0  0  0  0
    4.6840  -12.3450    1.4130 C   0  0  0  0  0  0  0  0  0  0  0  0
    5.0220  -11.9660   -0.0320 C   0  0  1  0  0  0  0  0  0  0  0  0
    6.3830  -12.4260   -0.4430 C   0  0  0  0  0  0  0  0  0  0  0  0
    6.8170  -13.4460   -1.1840 C   0  0  0  0  0  0  0  0  0  0  0  0
    8.2860  -13.4470   -1.2790 C   0  0  0  0  0  0  0  0  0  0  0  0
    8.6880  -12.2950   -0.5430 O   0  0  0  0  0  0  0  0  0  0  0  0
    7.5830  -11.6780   -0.0400 C   0  0  0  0  0  0  0  0  0  0  0  0
    7.5880  -10.6620    0.6310 O   0  0  0  0  0  0  0  0  0  0  0  0
    3.8830  -12.6140   -0.8000 C   0  0  0  0  0  0  0  0  0  0  0  0
    3.5830  -12.0760   -2.1620 C   0  0  0  0  0  0  0  0  0  0  0  0
    3.2550  -13.5660   -0.0750 C   0  0  0  0  0  0  0  0  0  0  0  0
    2.0580  -14.4880   -0.4240 C   0  0  2  0  0  0  0  0  0  0  0  0
    2.2870  -15.1070   -1.8260 C   0  0  0  0  0  0  0  0  0  0  0  0
   -1.5872   -9.3405    3.7136 H   0  0  0  0  0  0  0  0  0  0  0  0
   -1.9225   -8.0447    2.5156 H   0  0  0  0  0  0  0  0  0  0  0  0
   -2.9099   -9.5452    2.5156 H   0  0  0  0  0  0  0  0  0  0  0  0
   -0.5736   -9.1225    0.9137 H   0  0  0  0  0  0  0  0  0  0  0  0
   -0.7030  -11.6992    3.7598 H   0  0  0  0  0  0  0  0  0  0  0  0
   -1.8903  -12.3808    2.5969 H   0  0  0  0  0  0  0  0  0  0  0  0
   -0.1934  -12.9699    2.5969 H   0  0  0  0  0  0  0  0  0  0  0  0
    0.7969  -12.9415   -1.3264 H   0  0  0  0  0  0  0  0  0  0  0  0
   -0.4582  -14.9199   -1.5240 H   0  0  0  0  0  0  0  0  0  0  0  0
   -2.6158  -13.9216    1.5328 H   0  0  0  0  0  0  0  0  0  0  0  0
   -3.6490  -14.4798    0.2024 H   0  0  0  0  0  0  0  0  0  0  0  0
   -3.1255  -17.5685   -0.0171 H   0  0  0  0  0  0  0  0  0  0  0  0
   -3.2503  -16.1086   -1.0562 H   0  0  0  0  0  0  0  0  0  0  0  0
   -1.7425  -17.0848   -1.0562 H   0  0  0  0  0  0  0  0  0  0  0  0
   -3.2269  -17.0122    2.0902 H   0  0  0  0  0  0  0  0  0  0  0  0
   -4.1071  -16.0523    5.6395 H   0  0  0  0  0  0  0  0  0  0  0  0
   -4.2942  -15.1544    4.0950 H   0  0  0  0  0  0  0  0  0  0  0  0
   -4.2918  -16.9507    4.0950 H   0  0  0  0  0  0  0  0  0  0  0  0
   -1.2615  -18.1222    3.2385 H   0  0  0  0  0  0  0  0  0  0  0  0
   -1.4082  -18.4562    1.4340 H   0  0  0  0  0  0  0  0  0  0  0  0
    0.9010  -18.2262    1.8823 H   0  0  0  0  0  0  0  0  0  0  0  0
    0.0430  -16.6230    3.8050 H   0  0  0  0  0  0  0  0  0  0  0  0
    0.4038  -18.5285   -0.1194 H   0  0  0  0  0  0  0  0  0  0  0  0
   -0.4054  -17.2867   -1.1342 H   0  0  0  0  0  0  0  0  0  0  0  0
    1.3860  -17.4185   -1.1342 H   0  0  0  0  0  0  0  0  0  0  0  0
   -0.2454  -15.0035    1.5763 H   0  0  0  0  0  0  0  0  0  0  0  0
    1.8532  -15.0774    1.6042 H   0  0  0  0  0  0  0  0  0  0  0  0
    3.1345  -17.0597    1.7985 H   0  0  0  0  0  0  0  0  0  0  0  0
    3.1573  -17.2466   -0.0440 H   0  0  0  0  0  0  0  0  0  0  0  0
    4.6305  -15.5037   -0.3094 H   0  0  0  0  0  0  0  0  0  0  0  0
    5.9960  -17.0110    0.2620 H   0  0  0  0  0  0  0  0  0  0  0  0
    3.0483  -13.7259    2.0571 H   0  0  0  0  0  0  0  0  0  0  0  0
    4.1009  -11.5456    1.8936 H   0  0  0  0  0  0  0  0  0  0  0  0
    5.5904  -12.4898    2.0192 H   0  0  0  0  0  0  0  0  0  0  0  0
    5.0879  -10.8828   -0.2115 H   0  0  0  0  0  0  0  0  0  0  0  0
    6.1626  -14.1898   -1.6620 H   0  0  0  0  0  0  0  0  0  0  0  0
    8.7046  -14.3606   -0.8318 H   0  0  0  0  0  0  0  0  0  0  0  0
    8.6395  -13.4244   -2.3204 H   0  0  0  0  0  0  0  0  0  0  0  0
    3.0492  -11.1187   -2.0687 H   0  0  0  0  0  0  0  0  0  0  0  0
    4.5239  -11.9193   -2.7098 H   0  0  0  0  0  0  0  0  0  0  0  0
    2.9551  -12.7941   -2.7098 H   0  0  0  0  0  0  0  0  0  0  0  0
    2.6668  -16.1335   -1.7160 H   0  0  0  0  0  0  0  0  0  0  0  0
    1.3361  -15.1251   -2.3786 H   0  0  0  0  0  0  0  0  0  0  0  0
    3.0208  -14.5018   -2.3786 H   0  0  0  0  0  0  0  0  0  0  0  0
  1  2  1  0
  2  3  2  0
  3  4  1  0
  3  5  1  0
  5  6  2  0
  5  7  1  0
  7  8  1  0
  8  9  1  0
  9 10  1  0
 10 11  1  0
 11 12  1  0
 12 13  1  6
 12 14  1  0
 14 15  1  0
 15 16  1  0
 16 17  1  0
 16 18  2  0
 14 19  1  0
 19 20  1  0
 20 21  1  0
 20 22  1  0
 22 23  1  6
 22 24  1  0
 22 25  1  0
 25 26  1  0
 26 27  1  0
 27 28  1  0
 27 29  1  0
 29 30  1  0
 30 31  1  0
 31 32  1  0
 32 33  1  0
 33 34  2  0
 34 35  1  0
 35 36  1  0
 36 37  1  0
 37 38  2  0
 32 39  1  0
 39 40  1  0
 39 41  2  0
 41 42  1  0
 42 43  1  6
 42  8  1  0
 24  9  1  0
 42 25  1  0
 24 12  1  0
 41 30  1  0
 37 33  1  0
  1 44  1  0
  1 45  1  0
  1 46  1  0
  2 47  1  0
  4 48  1  0
  4 49  1  0
  4 50  1  0
  8 51  1  6
  9 52  1  6
 11 53  1  0
 11 54  1  0
 13 55  1  0
 13 56  1  0
 13 57  1  0
 14 58  1  6
 17 59  1  0
 17 60  1  0
 17 61  1  0
 19 62  1  0
 19 63  1  0
 20 64  1  6
 21 65  1  0
 23 66  1  0
 23 67  1  0
 23 68  1  0
 24 69  1  1
 25 70  1  1
 26 71  1  0
 26 72  1  0
 27 73  1  6
 28 74  1  0
 30 75  1  1
 31 76  1  0
 31 77  1  0
 32 78  1  1
 34 79  1  0
 35 80  1  0
 35 81  1  0
 40 82  1  0
 40 83  1  0
 40 84  1  0
 43 85  1  0
 43 86  1  0
 43 87  1  0
M  END
>  <meeko>  (8) 
{"is_sidechain": [false], "free_energy": -6.273, "intermolecular_energy": -10.75, "internal_energy": -1.329}

$$$$
LIB_OVOJZOGJIHRBMM__M_PUB_ALL__e8__s20260927
     RDKit          3D

 87 92  0  0  0  0  0  0  0  0999 V2000
   13.6830  -11.8420   -3.1860 C   0  0  0  0  0  0  0  0  0  0  0  0
   12.4620  -12.4560   -2.5810 C   0  0  0  0  0  0  0  0  0  0  0  0
   11.9880  -12.2950   -1.3270 C   0  0  0  0  0  0  0  0  0  0  0  0
   12.5990  -11.4320   -0.2620 C   0  0  0  0  0  0  0  0  0  0  0  0
   10.7440  -13.0020   -0.8700 C   0  0  0  0  0  0  0  0  0  0  0  0
   10.2890  -12.8870    0.2580 O   0  0  0  0  0  0  0  0  0  0  0  0
   10.2010  -13.7260   -1.8770 O   0  0  0  0  0  0  0  0  0  0  0  0
    9.6230  -15.0150   -1.5460 C   0  0  2  0  0  0  0  0  0  0  0  0
   10.6330  -16.0940   -1.9640 C   0  0  2  0  0  0  0  0  0  0  0  0
   11.9600  -15.9200   -1.4130 O   0  0  0  0  0  0  0  0  0  0  0  0
   12.9330  -16.0970   -2.4840 C   0  0  0  0  0  0  0  0  0  0  0  0
   12.1820  -16.7670   -3.6510 C   0  0  2  0  0  0  0  0  0  0  0  0
   12.1940  -18.2890   -3.3980 C   0  0  0  0  0  0  0  0  0  0  0  0
   12.6740  -16.4710   -5.0850 C   0  0  2  0  0  0  0  0  0  0  0  0
   13.0350  -15.0760   -5.1820 O   0  0  0  0  0  0  0  0  0  0  0  0
   13.5260  -14.6460   -6.3730 C   0  0  0  0  0  0  0  0  0  0  0  0
   14.8970  -15.2100   -6.5910 C   0  0  0  0  0  0  0  0  0  0  0  0
   12.9480  -13.9060   -7.1550 O   0  0  0  0  0  0  0  0  0  0  0  0
   11.5540  -16.7990   -6.1160 C   0  0  0  0  0  0  0  0  0  0  0  0
   10.1690  -16.1530   -5.8230 C   0  0  2  0  0  0  0  0  0  0  0  0
   10.2630  -14.7580   -6.1160 O   0  0  0  0  0  0  0  0  0  0  0  0
    9.6570  -16.3720   -4.3450 C   0  0  1  0  0  0  0  0  0  0  0  0
    9.1850  -17.8390   -4.2270 C   0  0  0  0  0  0  0  0  0  0  0  0
   10.8580  -16.0480   -3.4530 C   0  0  1  0  0  0  0  0  0  0  0  0
    8.5300  -15.3140   -3.9100 C   0  0  1  0  0  0  0  0  0  0  0  0
    7.2520  -15.3890   -4.8020 C   0  0  0  0  0  0  0  0  0  0  0  0
    6.0820  -14.4920   -4.3880 C   0  0  2  0  0  0  0  0  0  0  0  0
    5.1040  -14.5330   -5.4210 O   0  0  0  0  0  0  0  0  0  0  0  0
    6.4110  -13.1350   -4.1980 O   0  0  0  0  0  0  0  0  0  0  0  0
    7.2930  -12.8310   -3.1230 C   0  0  1  0  0  0  0  0  0  0  0  0
    6.7640  -11.6110   -2.3700 C   0  0  0  0  0  0  0  0  0  0  0  0
    6.0380  -12.1710   -1.1430 C   0  0  1  0  0  0  0  0  0  0  0  0
    4.5620  -12.2780   -1.3460 C   0  0  0  0  0  0  0  0  0  0  0  0
    3.8010  -12.4840   -2.4210 C   0  0  0  0  0  0  0  0  0  0  0  0
    2.3720  -12.4990   -2.0670 C   0  0  0  0  0  0  0  0  0  0  0  0
    2.3570  -12.3110   -0.6550 O   0  0  0  0  0  0  0  0  0  0  0  0
    3.6360  -12.1770   -0.2080 C   0  0  0  0  0  0  0  0  0  0  0  0
    3.9630  -12.0100    0.9530 O   0  0  0  0  0  0  0  0  0  0  0  0
    6.7410  -13.5020   -0.9430 C   0  0  0  0  0  0  0  0  0  0  0  0
    6.6630  -14.1210    0.4150 C   0  0  0  0  0  0  0  0  0  0  0  0
    7.4080  -13.8980   -2.0500 C   0  0  0  0  0  0  0  0  0  0  0  0
    8.2570  -15.1650   -2.3290 C   0  0  2  0  0  0  0  0  0  0  0  0
    7.4960  -16.4110   -1.8100 C   0  0  0  0  0  0  0  0  0  0  0  0
   14.3576  -11.5028   -2.3861 H   0  0  0  0  0  0  0  0  0  0  0  0
   14.1985  -12.5881   -3.8086 H   0  0  0  0  0  0  0  0  0  0  0  0
   13.3915  -10.9833   -3.8086 H   0  0  0  0  0  0  0  0  0  0  0  0
   11.8789  -13.1194   -3.2367 H   0  0  0  0  0  0  0  0  0  0  0  0
   12.3230  -11.8218    0.7289 H   0  0  0  0  0  0  0  0  0  0  0  0
   13.6939  -11.4398   -0.3672 H   0  0  0  0  0  0  0  0  0  0  0  0
   12.2279  -10.4018   -0.3672 H   0  0  0  0  0  0  0  0  0  0  0  0
    9.4152  -15.1134   -0.4703 H   0  0  0  0  0  0  0  0  0  0  0  0
   10.1852  -17.0291   -1.5964 H   0  0  0  0  0  0  0  0  0  0  0  0
   13.3327  -15.1219   -2.7992 H   0  0  0  0  0  0  0  0  0  0  0  0
   13.7824  -16.7121   -2.1521 H   0  0  0  0  0  0  0  0  0  0  0  0
   12.1955  -18.4806   -2.3148 H   0  0  0  0  0  0  0  0  0  0  0  0
   11.2994  -18.7428   -3.8494 H   0  0  0  0  0  0  0  0  0  0  0  0
   13.0956  -18.7286   -3.8494 H   0  0  0  0  0  0  0  0  0  0  0  0
   13.5503  -17.0980   -5.3065 H   0  0  0  0  0  0  0  0  0  0  0  0
   15.3720  -15.4054   -5.6183 H   0  0  0  0  0  0  0  0  0  0  0  0
   14.8210  -16.1499   -7.1574 H   0  0  0  0  0  0  0  0  0  0  0  0
   15.5044  -14.4887   -7.1574 H   0  0  0  0  0  0  0  0  0  0  0  0
   11.8892  -16.4504   -7.1040 H   0  0  0  0  0  0  0  0  0  0  0  0
   11.3995  -17.8867   -6.0608 H   0  0  0  0  0  0  0  0  0  0  0  0
    9.4248  -16.6510   -6.4619 H   0  0  0  0  0  0  0  0  0  0  0  0
   11.0510  -14.4130   -5.6600 H   0  0  0  0  0  0  0  0  0  0  0  0
    9.0973  -18.1116   -3.1649 H   0  0  0  0  0  0  0  0  0  0  0  0
    8.2059  -17.9496   -4.7160 H   0  0  0  0  0  0  0  0  0  0  0  0
    9.9159  -18.4998   -4.7160 H   0  0  0  0  0  0  0  0  0  0  0  0
   10.9476  -15.0248   -3.8467 H   0  0  0  0  0  0  0  0  0  0  0  0
    8.9857  -14.3374   -4.1303 H   0  0  0  0  0  0  0  0  0  0  0  0
    7.5414  -15.1110   -5.8262 H   0  0  0  0  0  0  0  0  0  0  0  0
    6.8822  -16.4198   -4.6985 H   0  0  0  0  0  0  0  0  0  0  0  0
    5.7336  -14.8832   -3.4208 H   0  0  0  0  0  0  0  0  0  0  0  0
    4.3080  -14.1620   -5.0030 H   0  0  0  0  0  0  0  0  0  0  0  0
    8.2702  -12.7011   -3.6111 H   0  0  0  0  0  0  0  0  0  0  0  0
    7.5949  -10.9597   -2.0611 H   0  0  0  0  0  0  0  0  0  0  0  0
    6.0960  -11.0023   -2.9971 H   0  0  0  0  0  0  0  0  0  0  0  0
    6.0946  -11.5271   -0.2530 H   0  0  0  0  0  0  0  0  0  0  0  0
    4.1902  -12.6245   -3.4402 H   0  0  0  0  0  0  0  0  0  0  0  0
    1.8363  -11.6832   -2.5744 H   0  0  0  0  0  0  0  0  0  0  0  0
    1.8733  -13.4307   -2.3722 H   0  0  0  0  0  0  0  0  0  0  0  0
    6.7617  -13.3379    1.1811 H   0  0  0  0  0  0  0  0  0  0  0  0
    5.6939  -14.6281    0.5317 H   0  0  0  0  0  0  0  0  0  0  0  0
    7.4761  -14.8527    0.5317 H   0  0  0  0  0  0  0  0  0  0  0  0
    7.4970  -16.4094   -0.7100 H   0  0  0  0  0  0  0  0  0  0  0  0
    6.4589  -16.3859   -2.1758 H   0  0  0  0  0  0  0  0  0  0  0  0
    7.9919  -17.3222   -2.1758 H   0  0  0  0  0  0  0  0  0  0  0  0
  1  2  1  0
  2  3  2  0
  3  4  1  0
  3  5  1  0
  5  6  2  0
  5  7  1  0
  7  8  1  0
  8  9  1  0
  9 10  1  0
 10 11  1  0
 11 12  1  0
 12 13  1  1
 12 14  1  0
 14 15  1  0
 15 16  1  0
 16 17  1  0
 16 18  2  0
 14 19  1  0
 19 20  1  0
 20 21  1  0
 20 22  1  0
 22 23  1  6
 22 24  1  0
 22 25  1  0
 25 26  1  0
 26 27  1  0
 27 28  1  0
 27 29  1  0
 29 30  1  0
 30 31  1  0
 31 32  1  0
 32 33  1  0
 33 34  2  0
 34 35  1  0
 35 36  1  0
 36 37  1  0
 37 38  2  0
 32 39  1  0
 39 40  1  0
 39 41  2  0
 41 42  1  0
 42 43  1  1
 42  8  1  0
 24  9  1  0
 42 25  1  0
 24 12  1  0
 41 30  1  0
 37 33  1  0
  1 44  1  0
  1 45  1  0
  1 46  1  0
  2 47  1  0
  4 48  1  0
  4 49  1  0
  4 50  1  0
  8 51  1  1
  9 52  1  6
 11 53  1  0
 11 54  1  0
 13 55  1  0
 13 56  1  0
 13 57  1  0
 14 58  1  6
 17 59  1  0
 17 60  1  0
 17 61  1  0
 19 62  1  0
 19 63  1  0
 20 64  1  6
 21 65  1  0
 23 66  1  0
 23 67  1  0
 23 68  1  0
 24 69  1  6
 25 70  1  6
 26 71  1  0
 26 72  1  0
 27 73  1  1
 28 74  1  0
 30 75  1  6
 31 76  1  0
 31 77  1  0
 32 78  1  1
 34 79  1  0
 35 80  1  0
 35 81  1  0
 40 82  1  0
 40 83  1  0
 40 84  1  0
 43 85  1  0
 43 86  1  0
 43 87  1  0
M  END
>  <meeko>  (9) 
{"is_sidechain": [false], "free_energy": -6.146, "intermolecular_energy": -10.66, "internal_energy": -1.211}

$$$$
