LIB_NHVGQRASKRTWLZ__M_PUB_ALL__e8__s20260927
     RDKit          3D

 67 72  0  0  0  0  0  0  0  0999 V2000
   -3.9520  -17.0020    4.1320 C   0  0  0  0  0  0  0  0  0  0  0  0
   -3.2060  -16.2630    3.0900 C   0  0  0  0  0  0  0  0  0  0  0  0
   -2.8020  -14.9450    3.0800 C   0  0  0  0  0  0  0  0  0  0  0  0
   -2.1430  -14.7440    1.8850 N   0  0  0  0  0  0  0  0  0  0  0  0
   -1.5510  -13.5360    1.4110 C   0  0  0  0  0  0  0  0  0  0  0  0
   -0.4090  -13.5700    0.5940 C   0  0  0  0  0  0  0  0  0  0  0  0
    0.1770  -12.3890    0.1160 C   0  0  0  0  0  0  0  0  0  0  0  0
    1.3150  -12.5310   -0.7050 N   0  0  0  0  0  0  0  0  0  0  0  0
    2.5980  -12.0680   -0.4650 C   0  0  0  0  0  0  0  0  0  0  0  0
    2.9980  -11.5200    0.5550 O   0  0  0  0  0  0  0  0  0  0  0  0
    3.5690  -12.3170   -1.5690 C   0  0  0  0  0  0  0  0  0  0  0  0
    3.2940  -11.8120   -2.8390 C   0  0  0  0  0  0  0  0  0  0  0  0
    4.2090  -12.0060   -3.8730 C   0  0  0  0  0  0  0  0  0  0  0  0
    5.4130  -12.7000   -3.6500 C   0  0  0  0  0  0  0  0  0  0  0  0
    6.3770  -12.8470   -4.7980 C   0  0  0  0  0  0  0  0  0  0  0  0
    5.6900  -13.2420   -2.3730 C   0  0  0  0  0  0  0  0  0  0  0  0
    6.9140  -13.8990   -2.1300 N   0  0  0  0  0  0  0  0  0  0  0  0
    8.1160  -13.3580   -1.7940 C   0  0  0  0  0  0  0  0  0  0  0  0
    9.1570  -13.1510   -2.5730 N   0  0  0  0  0  0  0  0  0  0  0  0
   10.1430  -12.6570   -1.7720 C   0  0  0  0  0  0  0  0  0  0  0  0
   11.4580  -12.3160   -2.1220 C   0  0  0  0  0  0  0  0  0  0  0  0
   12.3410  -11.8970   -1.1240 C   0  0  0  0  0  0  0  0  0  0  0  0
   11.9260  -11.8390    0.2020 C   0  0  0  0  0  0  0  0  0  0  0  0
   10.6150  -12.1680    0.5670 C   0  0  0  0  0  0  0  0  0  0  0  0
    9.7160  -12.5390   -0.4500 C   0  0  0  0  0  0  0  0  0  0  0  0
    8.3710  -12.9100   -0.4860 N   0  0  0  0  0  0  0  0  0  0  0  0
    7.4000  -12.8570    0.5700 C   0  0  0  0  0  0  0  0  0  0  0  0
    6.7660  -11.6710    0.8860 C   0  0  0  0  0  0  0  0  0  0  0  0
    5.8450  -11.7080    1.9100 C   0  0  0  0  0  0  0  0  0  0  0  0
    5.1920  -10.5610    2.3130 N   0  0  0  0  0  0  0  0  0  0  0  0
    5.5740  -12.8190    2.5980 N   0  0  0  0  0  0  0  0  0  0  0  0
    6.2070  -13.9280    2.2060 C   0  0  0  0  0  0  0  0  0  0  0  0
    7.0980  -14.0160    1.2080 N   0  0  0  0  0  0  0  0  0  0  0  0
    4.7440  -13.0490   -1.3560 C   0  0  0  0  0  0  0  0  0  0  0  0
   -0.3870  -11.1620    0.4570 C   0  0  0  0  0  0  0  0  0  0  0  0
   -1.5300  -11.0990    1.2700 C   0  0  0  0  0  0  0  0  0  0  0  0
   -2.1110   -9.7570    1.6450 C   0  0  0  0  0  0  0  0  0  0  0  0
   -2.7500   -9.7830    2.8450 F   0  0  0  0  0  0  0  0  0  0  0  0
   -1.1730   -8.7750    1.7360 F   0  0  0  0  0  0  0  0  0  0  0  0
   -3.0310   -9.3040    0.7450 F   0  0  0  0  0  0  0  0  0  0  0  0
   -2.1020  -12.2920    1.7490 C   0  0  0  0  0  0  0  0  0  0  0  0
   -2.1860  -15.9650    1.2430 C   0  0  0  0  0  0  0  0  0  0  0  0
   -2.8160  -16.8860    1.9370 N   0  0  0  0  0  0  0  0  0  0  0  0
   -3.6179  -16.6711    5.1264 H   0  0  0  0  0  0  0  0  0  0  0  0
   -5.0285  -16.8042    4.0222 H   0  0  0  0  0  0  0  0  0  0  0  0
   -3.7643  -18.0803    4.0222 H   0  0  0  0  0  0  0  0  0  0  0  0
   -2.9720  -14.1993    3.8706 H   0  0  0  0  0  0  0  0  0  0  0  0
    0.0336  -14.5402    0.3243 H   0  0  0  0  0  0  0  0  0  0  0  0
    1.1770  -13.0550   -1.5610 H   0  0  0  0  0  0  0  0  0  0  0  0
    2.3591  -11.2628   -3.0245 H   0  0  0  0  0  0  0  0  0  0  0  0
    3.9871  -11.6117   -4.8756 H   0  0  0  0  0  0  0  0  0  0  0  0
    7.3931  -13.0019   -4.4060 H   0  0  0  0  0  0  0  0  0  0  0  0
    6.0856  -13.7111   -5.4132 H   0  0  0  0  0  0  0  0  0  0  0  0
    6.3564  -11.9353   -5.4132 H   0  0  0  0  0  0  0  0  0  0  0  0
    6.8840  -14.9120   -2.2420 H   0  0  0  0  0  0  0  0  0  0  0  0
   11.7896  -12.3778   -3.1690 H   0  0  0  0  0  0  0  0  0  0  0  0
   13.3699  -11.6115   -1.3883 H   0  0  0  0  0  0  0  0  0  0  0  0
   12.6409  -11.5289    0.9784 H   0  0  0  0  0  0  0  0  0  0  0  0
   10.2966  -12.1373    1.6195 H   0  0  0  0  0  0  0  0  0  0  0  0
    6.9865  -10.7392    0.3445 H   0  0  0  0  0  0  0  0  0  0  0  0
    4.5780  -10.1800    1.6030 H   0  0  0  0  0  0  0  0  0  0  0  0
    5.6790   -9.8990    2.8990 H   0  0  0  0  0  0  0  0  0  0  0  0
    5.9760  -14.8544    2.7523 H   0  0  0  0  0  0  0  0  0  0  0  0
    4.9299  -13.4847   -0.3632 H   0  0  0  0  0  0  0  0  0  0  0  0
    0.0680  -10.2321    0.0853 H   0  0  0  0  0  0  0  0  0  0  0  0
   -2.9909  -12.2481    2.3955 H   0  0  0  0  0  0  0  0  0  0  0  0
   -1.7398  -16.1479    0.2543 H   0  0  0  0  0  0  0  0  0  0  0  0
  1  2  1  0
  2  3  2  0
  3  4  1  0
  4  5  1  0
  5  6  2  0
  6  7  1  0
  7  8  1  0
  8  9  1  0
  9 10  2  0
  9 11  1  0
 11 12  2  0
 12 13  1  0
 13 14  2  0
 14 15  1  0
 14 16  1  0
 16 17  1  0
 17 18  1  0
 18 19  2  0
 19 20  1  0
 20 21  2  0
 21 22  1  0
 22 23  2  0
 23 24  1  0
 24 25  2  0
 25 26  1  0
 26 27  1  0
 27 28  2  0
 28 29  1  0
 29 30  1  0
 29 31  2  0
 31 32  1  0
 32 33  2  0
 16 34  2  0
  7 35  2  0
 35 36  1  0
 36 37  1  0
 37 38  1  0
 37 39  1  0
 37 40  1  0
 36 41  2  0
  4 42  1  0
 42 43  2  0
 43  2  1  0
 41  5  1  0
 34 11  1  0
 26 18  1  0
 33 27  1  0
 25 20  1  0
  1 44  1  0
  1 45  1  0
  1 46  1  0
  3 47  1  0
  6 48  1  0
  8 49  1  0
 12 50  1  0
 13 51  1  0
 15 52  1  0
 15 53  1  0
 15 54  1  0
 17 55  1  0
 21 56  1  0
 22 57  1  0
 23 58  1  0
 24 59  1  0
 28 60  1  0
 30 61  1  0
 30 62  1  0
 32 63  1  0
 34 64  1  0
 35 65  1  0
 41 66  1  0
 42 67  1  0
M  END
>  <meeko>  (1) 
{"is_sidechain": [false], "free_energy": -9.705, "intermolecular_energy": -13.961, "internal_energy": -1.87}

$$$$
LIB_NHVGQRASKRTWLZ__M_PUB_ALL__e8__s20260927
     RDKit          3D

 67 72  0  0  0  0  0  0  0  0999 V2000
   15.6500  -14.8010  -10.7780 C   0  0  0  0  0  0  0  0  0  0  0  0
   14.3520  -14.1190  -10.5810 C   0  0  0  0  0  0  0  0  0  0  0  0
   13.1470  -14.6440  -10.1650 C   0  0  0  0  0  0  0  0  0  0  0  0
   12.2470  -13.5990  -10.1460 N   0  0  0  0  0  0  0  0  0  0  0  0
   10.8660  -13.6470   -9.7900 C   0  0  0  0  0  0  0  0  0  0  0  0
   10.4740  -14.0100   -8.4910 C   0  0  0  0  0  0  0  0  0  0  0  0
    9.1200  -14.0540   -8.1280 C   0  0  0  0  0  0  0  0  0  0  0  0
    8.8300  -14.4200   -6.7970 N   0  0  0  0  0  0  0  0  0  0  0  0
    8.1020  -15.5140   -6.3570 C   0  0  0  0  0  0  0  0  0  0  0  0
    7.6480  -16.4150   -7.0510 O   0  0  0  0  0  0  0  0  0  0  0  0
    7.9100  -15.5820   -4.8800 C   0  0  0  0  0  0  0  0  0  0  0  0
    6.6290  -15.7880   -4.3730 C   0  0  0  0  0  0  0  0  0  0  0  0
    6.4390  -15.8900   -2.9950 C   0  0  0  0  0  0  0  0  0  0  0  0
    7.5270  -15.7940   -2.1080 C   0  0  0  0  0  0  0  0  0  0  0  0
    7.2640  -15.9470   -0.6320 C   0  0  0  0  0  0  0  0  0  0  0  0
    8.8280  -15.5570   -2.6090 C   0  0  0  0  0  0  0  0  0  0  0  0
    9.9300  -15.5050   -1.7300 N   0  0  0  0  0  0  0  0  0  0  0  0
   10.5720  -14.4120   -1.2360 C   0  0  0  0  0  0  0  0  0  0  0  0
   10.2310  -13.6710   -0.2030 N   0  0  0  0  0  0  0  0  0  0  0  0
   11.1390  -12.6560   -0.1420 C   0  0  0  0  0  0  0  0  0  0  0  0
   11.1830  -11.5810    0.7580 C   0  0  0  0  0  0  0  0  0  0  0  0
   12.1610  -10.5970    0.5960 C   0  0  0  0  0  0  0  0  0  0  0  0
   13.0690  -10.6750   -0.4560 C   0  0  0  0  0  0  0  0  0  0  0  0
   13.0440  -11.7450   -1.3580 C   0  0  0  0  0  0  0  0  0  0  0  0
   12.0880  -12.7590   -1.1590 C   0  0  0  0  0  0  0  0  0  0  0  0
   11.7690  -13.9510   -1.8110 N   0  0  0  0  0  0  0  0  0  0  0  0
   12.4890  -14.6170   -2.8590 C   0  0  0  0  0  0  0  0  0  0  0  0
   12.6310  -14.0290   -4.1010 C   0  0  0  0  0  0  0  0  0  0  0  0
   13.3400  -14.7330   -5.0500 C   0  0  0  0  0  0  0  0  0  0  0  0
   13.4990  -14.2350   -6.3260 N   0  0  0  0  0  0  0  0  0  0  0  0
   13.8570  -15.9410   -4.8150 N   0  0  0  0  0  0  0  0  0  0  0  0
   13.7000  -16.4230   -3.5790 C   0  0  0  0  0  0  0  0  0  0  0  0
   13.0580  -15.8150   -2.5720 N   0  0  0  0  0  0  0  0  0  0  0  0
    8.9890  -15.4390   -3.9970 C   0  0  0  0  0  0  0  0  0  0  0  0
    8.1500  -13.7290   -9.0740 C   0  0  0  0  0  0  0  0  0  0  0  0
    8.5150  -13.3600  -10.3780 C   0  0  0  0  0  0  0  0  0  0  0  0
    7.4450  -13.0330  -11.3920 C   0  0  0  0  0  0  0  0  0  0  0  0
    7.8460  -13.2800  -12.6690 F   0  0  0  0  0  0  0  0  0  0  0  0
    6.2990  -13.7440  -11.2090 F   0  0  0  0  0  0  0  0  0  0  0  0
    7.0710  -11.7210  -11.3680 F   0  0  0  0  0  0  0  0  0  0  0  0
    9.8770  -13.3280  -10.7300 C   0  0  0  0  0  0  0  0  0  0  0  0
   12.9710  -12.4960  -10.5520 C   0  0  0  0  0  0  0  0  0  0  0  0
   14.2260  -12.7790  -10.8210 N   0  0  0  0  0  0  0  0  0  0  0  0
   16.0939  -15.0343   -9.7990 H   0  0  0  0  0  0  0  0  0  0  0  0
   15.4928  -15.7330  -11.3408 H   0  0  0  0  0  0  0  0  0  0  0  0
   16.3283  -14.1428  -11.3408 H   0  0  0  0  0  0  0  0  0  0  0  0
   12.9431  -15.6919   -9.8999 H   0  0  0  0  0  0  0  0  0  0  0  0
   11.2421  -14.2641   -7.7457 H   0  0  0  0  0  0  0  0  0  0  0  0
    9.2240  -13.8210   -6.0800 H   0  0  0  0  0  0  0  0  0  0  0  0
    5.7710  -15.8699   -5.0565 H   0  0  0  0  0  0  0  0  0  0  0  0
    5.4258  -16.0475   -2.5967 H   0  0  0  0  0  0  0  0  0  0  0  0
    8.0780  -15.4735   -0.0635 H   0  0  0  0  0  0  0  0  0  0  0  0
    6.3094  -15.4633   -0.3776 H   0  0  0  0  0  0  0  0  0  0  0  0
    7.2127  -17.0159   -0.3776 H   0  0  0  0  0  0  0  0  0  0  0  0
   10.2950  -16.4150   -1.4480 H   0  0  0  0  0  0  0  0  0  0  0  0
   10.4564  -11.5137    1.5811 H   0  0  0  0  0  0  0  0  0  0  0  0
   12.2139   -9.7562    1.3033 H   0  0  0  0  0  0  0  0  0  0  0  0
   13.8201   -9.8811   -0.5808 H   0  0  0  0  0  0  0  0  0  0  0  0
   13.7516  -11.7922   -2.1989 H   0  0  0  0  0  0  0  0  0  0  0  0
   12.1974  -13.0427   -4.3226 H   0  0  0  0  0  0  0  0  0  0  0  0
   12.7720  -14.5340   -6.9660 H   0  0  0  0  0  0  0  0  0  0  0  0
   14.4300  -14.1400   -6.7050 H   0  0  0  0  0  0  0  0  0  0  0  0
   14.1380  -17.4098   -3.3685 H   0  0  0  0  0  0  0  0  0  0  0  0
    9.9891  -15.2285   -4.4038 H   0  0  0  0  0  0  0  0  0  0  0  0
    7.0863  -13.7620   -8.7957 H   0  0  0  0  0  0  0  0  0  0  0  0
   10.1683  -13.0497  -11.7536 H   0  0  0  0  0  0  0  0  0  0  0  0
   12.5428  -11.4867  -10.6410 H   0  0  0  0  0  0  0  0  0  0  0  0
  1  2  1  0
  2  3  2  0
  3  4  1  0
  4  5  1  0
  5  6  2  0
  6  7  1  0
  7  8  1  0
  8  9  1  0
  9 10  2  0
  9 11  1  0
 11 12  2  0
 12 13  1  0
 13 14  2  0
 14 15  1  0
 14 16  1  0
 16 17  1  0
 17 18  1  0
 18 19  2  0
 19 20  1  0
 20 21  2  0
 21 22  1  0
 22 23  2  0
 23 24  1  0
 24 25  2  0
 25 26  1  0
 26 27  1  0
 27 28  2  0
 28 29  1  0
 29 30  1  0
 29 31  2  0
 31 32  1  0
 32 33  2  0
 16 34  2  0
  7 35  2  0
 35 36  1  0
 36 37  1  0
 37 38  1  0
 37 39  1  0
 37 40  1  0
 36 41  2  0
  4 42  1  0
 42 43  2  0
 43  2  1  0
 41  5  1  0
 34 11  1  0
 26 18  1  0
 33 27  1  0
 25 20  1  0
  1 44  1  0
  1 45  1  0
  1 46  1  0
  3 47  1  0
  6 48  1  0
  8 49  1  0
 12 50  1  0
 13 51  1  0
 15 52  1  0
 15 53  1  0
 15 54  1  0
 17 55  1  0
 21 56  1  0
 22 57  1  0
 23 58  1  0
 24 59  1  0
 28 60  1  0
 30 61  1  0
 30 62  1  0
 32 63  1  0
 34 64  1  0
 35 65  1  0
 41 66  1  0
 42 67  1  0
M  END
>  <meeko>  (2) 
{"is_sidechain": [false], "free_energy": -9.704, "intermolecular_energy": -13.428, "internal_energy": -2.4}

$$$$
LIB_NHVGQRASKRTWLZ__M_PUB_ALL__e8__s20260927
     RDKit          3D

 67 72  0  0  0  0  0  0  0  0999 V2000
   -1.7880   -8.7680    3.7500 C   0  0  0  0  0  0  0  0  0  0  0  0
   -1.1650   -9.5130    2.6340 C   0  0  0  0  0  0  0  0  0  0  0  0
   -1.2060  -10.8640    2.3590 C   0  0  0  0  0  0  0  0  0  0  0  0
   -0.4670  -11.0550    1.2110 N   0  0  0  0  0  0  0  0  0  0  0  0
   -0.2100  -12.2870    0.5380 C   0  0  0  0  0  0  0  0  0  0  0  0
    0.9840  -12.4770   -0.1760 C   0  0  0  0  0  0  0  0  0  0  0  0
    1.2510  -13.6860   -0.8360 C   0  0  0  0  0  0  0  0  0  0  0  0
    2.4820  -13.7810   -1.5160 N   0  0  0  0  0  0  0  0  0  0  0  0
    2.9840  -12.9310   -2.4870 C   0  0  0  0  0  0  0  0  0  0  0  0
    2.4780  -11.8830   -2.8720 O   0  0  0  0  0  0  0  0  0  0  0  0
    4.2910  -13.3480   -3.0690 C   0  0  0  0  0  0  0  0  0  0  0  0
    4.4580  -13.3170   -4.4520 C   0  0  0  0  0  0  0  0  0  0  0  0
    5.6870  -13.6710   -5.0080 C   0  0  0  0  0  0  0  0  0  0  0  0
    6.7660  -14.0530   -4.1900 C   0  0  0  0  0  0  0  0  0  0  0  0
    8.0790  -14.3910   -4.8470 C   0  0  0  0  0  0  0  0  0  0  0  0
    6.6000  -14.1160   -2.7860 C   0  0  0  0  0  0  0  0  0  0  0  0
    7.6900  -14.4550   -1.9560 N   0  0  0  0  0  0  0  0  0  0  0  0
    8.7290  -13.6730   -1.5590 C   0  0  0  0  0  0  0  0  0  0  0  0
    9.8250  -13.3820   -2.2280 N   0  0  0  0  0  0  0  0  0  0  0  0
   10.5940  -12.6260   -1.3940 C   0  0  0  0  0  0  0  0  0  0  0  0
   11.8750  -12.1030   -1.6270 C   0  0  0  0  0  0  0  0  0  0  0  0
   12.5270  -11.4160   -0.6010 C   0  0  0  0  0  0  0  0  0  0  0  0
   11.9210  -11.2690    0.6420 C   0  0  0  0  0  0  0  0  0  0  0  0
   10.6400  -11.7770    0.8890 C   0  0  0  0  0  0  0  0  0  0  0  0
    9.9670  -12.4240   -0.1650 C   0  0  0  0  0  0  0  0  0  0  0  0
    8.7180  -13.0290   -0.3100 N   0  0  0  0  0  0  0  0  0  0  0  0
    7.6090  -13.0190    0.6020 C   0  0  0  0  0  0  0  0  0  0  0  0
    6.9480  -11.8420    0.8950 C   0  0  0  0  0  0  0  0  0  0  0  0
    5.8910  -11.9210    1.7760 C   0  0  0  0  0  0  0  0  0  0  0  0
    5.1990  -10.7880    2.1510 N   0  0  0  0  0  0  0  0  0  0  0  0
    5.5160  -13.0650    2.3540 N   0  0  0  0  0  0  0  0  0  0  0  0
    6.1890  -14.1600    1.9900 C   0  0  0  0  0  0  0  0  0  0  0  0
    7.2100  -14.2070    1.1230 N   0  0  0  0  0  0  0  0  0  0  0  0
    5.3480  -13.7740   -2.2540 C   0  0  0  0  0  0  0  0  0  0  0  0
    0.3130  -14.7150   -0.7770 C   0  0  0  0  0  0  0  0  0  0  0  0
   -0.8880  -14.5520   -0.0690 C   0  0  0  0  0  0  0  0  0  0  0  0
   -1.8980  -15.6730   -0.0370 C   0  0  0  0  0  0  0  0  0  0  0  0
   -1.8720  -16.4290   -1.1690 F   0  0  0  0  0  0  0  0  0  0  0  0
   -1.7100  -16.5350    0.9990 F   0  0  0  0  0  0  0  0  0  0  0  0
   -3.1830  -15.2300    0.0820 F   0  0  0  0  0  0  0  0  0  0  0  0
   -1.1450  -13.3310    0.5810 C   0  0  0  0  0  0  0  0  0  0  0  0
   -0.0230   -9.7970    0.8570 C   0  0  0  0  0  0  0  0  0  0  0  0
   -0.4220   -8.8610    1.6890 N   0  0  0  0  0  0  0  0  0  0  0  0
   -1.4405   -9.1835    4.7074 H   0  0  0  0  0  0  0  0  0  0  0  0
   -1.5044   -7.7071    3.6862 H   0  0  0  0  0  0  0  0  0  0  0  0
   -2.8823   -8.8594    3.6862 H   0  0  0  0  0  0  0  0  0  0  0  0
   -1.7267  -11.6380    2.9419 H   0  0  0  0  0  0  0  0  0  0  0  0
    1.7232  -11.6635   -0.2187 H   0  0  0  0  0  0  0  0  0  0  0  0
    3.0780  -14.5540   -1.2410 H   0  0  0  0  0  0  0  0  0  0  0  0
    3.6240  -13.0146   -5.1024 H   0  0  0  0  0  0  0  0  0  0  0  0
    5.8144  -13.6513   -6.1004 H   0  0  0  0  0  0  0  0  0  0  0  0
    8.8365  -14.5860   -4.0736 H   0  0  0  0  0  0  0  0  0  0  0  0
    7.9557  -15.2867   -5.4735 H   0  0  0  0  0  0  0  0  0  0  0  0
    8.4035  -13.5471   -5.4735 H   0  0  0  0  0  0  0  0  0  0  0  0
    7.6950  -15.4220   -1.6320 H   0  0  0  0  0  0  0  0  0  0  0  0
   12.3597  -12.2326   -2.6059 H   0  0  0  0  0  0  0  0  0  0  0  0
   13.5253  -10.9888   -0.7769 H   0  0  0  0  0  0  0  0  0  0  0  0
   12.4579  -10.7440    1.4458 H   0  0  0  0  0  0  0  0  0  0  0  0
   10.1722  -11.6735    1.8792 H   0  0  0  0  0  0  0  0  0  0  0  0
    7.2515  -10.8850    0.4455 H   0  0  0  0  0  0  0  0  0  0  0  0
    5.0160  -10.1570    1.3790 H   0  0  0  0  0  0  0  0  0  0  0  0
    5.3930  -10.3670    3.0470 H   0  0  0  0  0  0  0  0  0  0  0  0
    5.8761  -15.1118    2.4441 H   0  0  0  0  0  0  0  0  0  0  0  0
    5.1918  -13.8421   -1.1673 H   0  0  0  0  0  0  0  0  0  0  0  0
    0.5162  -15.6659   -1.2912 H   0  0  0  0  0  0  0  0  0  0  0  0
   -2.0891  -13.1940    1.1286 H   0  0  0  0  0  0  0  0  0  0  0  0
    0.5992   -9.5987   -0.0282 H   0  0  0  0  0  0  0  0  0  0  0  0
  1  2  1  0
  2  3  2  0
  3  4  1  0
  4  5  1  0
  5  6  2  0
  6  7  1  0
  7  8  1  0
  8  9  1  0
  9 10  2  0
  9 11  1  0
 11 12  2  0
 12 13  1  0
 13 14  2  0
 14 15  1  0
 14 16  1  0
 16 17  1  0
 17 18  1  0
 18 19  2  0
 19 20  1  0
 20 21  2  0
 21 22  1  0
 22 23  2  0
 23 24  1  0
 24 25  2  0
 25 26  1  0
 26 27  1  0
 27 28  2  0
 28 29  1  0
 29 30  1  0
 29 31  2  0
 31 32  1  0
 32 33  2  0
 16 34  2  0
  7 35  2  0
 35 36  1  0
 36 37  1  0
 37 38  1  0
 37 39  1  0
 37 40  1  0
 36 41  2  0
  4 42  1  0
 42 43  2  0
 43  2  1  0
 41  5  1  0
 34 11  1  0
 26 18  1  0
 33 27  1  0
 25 20  1  0
  1 44  1  0
  1 45  1  0
  1 46  1  0
  3 47  1  0
  6 48  1  0
  8 49  1  0
 12 50  1  0
 13 51  1  0
 15 52  1  0
 15 53  1  0
 15 54  1  0
 17 55  1  0
 21 56  1  0
 22 57  1  0
 23 58  1  0
 24 59  1  0
 28 60  1  0
 30 61  1  0
 30 62  1  0
 32 63  1  0
 34 64  1  0
 35 65  1  0
 41 66  1  0
 42 67  1  0
M  END
>  <meeko>  (3) 
{"is_sidechain": [false], "free_energy": -9.621, "intermolecular_energy": -13.802, "internal_energy": -1.908}

$$$$
LIB_NHVGQRASKRTWLZ__M_PUB_ALL__e8__s20260927
     RDKit          3D

 67 72  0  0  0  0  0  0  0  0999 V2000
    5.0360  -12.3900   -0.4530 C   0  0  0  0  0  0  0  0  0  0  0  0
    6.3010  -12.8510   -1.0670 C   0  0  0  0  0  0  0  0  0  0  0  0
    7.5600  -12.2960   -0.9860 C   0  0  0  0  0  0  0  0  0  0  0  0
    8.3940  -13.1000   -1.7350 N   0  0  0  0  0  0  0  0  0  0  0  0
    9.7930  -12.9300   -1.9610 C   0  0  0  0  0  0  0  0  0  0  0  0
   10.3960  -13.4350   -3.1240 C   0  0  0  0  0  0  0  0  0  0  0  0
   11.7690  -13.2680   -3.3600 C   0  0  0  0  0  0  0  0  0  0  0  0
   12.2770  -13.8030   -4.5620 N   0  0  0  0  0  0  0  0  0  0  0  0
   13.1180  -14.8930   -4.7170 C   0  0  0  0  0  0  0  0  0  0  0  0
   13.5060  -15.6470   -3.8320 O   0  0  0  0  0  0  0  0  0  0  0  0
   13.5370  -15.1640   -6.1220 C   0  0  0  0  0  0  0  0  0  0  0  0
   14.8950  -15.1640   -6.4350 C   0  0  0  0  0  0  0  0  0  0  0  0
   15.3040  -15.4510   -7.7370 C   0  0  0  0  0  0  0  0  0  0  0  0
   14.3620  -15.7480   -8.7400 C   0  0  0  0  0  0  0  0  0  0  0  0
   14.8670  -16.0830  -10.1190 C   0  0  0  0  0  0  0  0  0  0  0  0
   12.9800  -15.7220   -8.4410 C   0  0  0  0  0  0  0  0  0  0  0  0
   12.0320  -16.0630   -9.4290 N   0  0  0  0  0  0  0  0  0  0  0  0
   10.8780  -15.4220   -9.7560 C   0  0  0  0  0  0  0  0  0  0  0  0
    9.6440  -15.7850   -9.4780 N   0  0  0  0  0  0  0  0  0  0  0  0
    8.8310  -14.8650  -10.0700 C   0  0  0  0  0  0  0  0  0  0  0  0
    7.4280  -14.8350  -10.0990 C   0  0  0  0  0  0  0  0  0  0  0  0
    6.7840  -13.8380  -10.8350 C   0  0  0  0  0  0  0  0  0  0  0  0
    7.5250  -12.8980  -11.5450 C   0  0  0  0  0  0  0  0  0  0  0  0
    8.9250  -12.9090  -11.5190 C   0  0  0  0  0  0  0  0  0  0  0  0
    9.5680  -13.8860  -10.7350 C   0  0  0  0  0  0  0  0  0  0  0  0
   10.8970  -14.2010  -10.4510 N   0  0  0  0  0  0  0  0  0  0  0  0
   12.0810  -13.4570  -10.7770 C   0  0  0  0  0  0  0  0  0  0  0  0
   12.4970  -12.4090   -9.9790 C   0  0  0  0  0  0  0  0  0  0  0  0
   13.6460  -11.7500  -10.3600 C   0  0  0  0  0  0  0  0  0  0  0  0
   14.1110  -10.6690   -9.6400 N   0  0  0  0  0  0  0  0  0  0  0  0
   14.3330  -12.0730  -11.4580 N   0  0  0  0  0  0  0  0  0  0  0  0
   13.8800  -13.1190  -12.1540 C   0  0  0  0  0  0  0  0  0  0  0  0
   12.7950  -13.8500  -11.8620 N   0  0  0  0  0  0  0  0  0  0  0  0
   12.5950  -15.4120   -7.1280 C   0  0  0  0  0  0  0  0  0  0  0  0
   12.5430  -12.5840   -2.4250 C   0  0  0  0  0  0  0  0  0  0  0  0
   11.9640  -12.0670   -1.2550 C   0  0  0  0  0  0  0  0  0  0  0  0
   12.8270  -11.3490   -0.2460 C   0  0  0  0  0  0  0  0  0  0  0  0
   12.1250  -10.4460    0.4910 F   0  0  0  0  0  0  0  0  0  0  0  0
   13.4180  -12.1890    0.6460 F   0  0  0  0  0  0  0  0  0  0  0  0
   13.8460  -10.6460   -0.8200 F   0  0  0  0  0  0  0  0  0  0  0  0
   10.5880  -12.2500   -1.0280 C   0  0  0  0  0  0  0  0  0  0  0  0
    7.5810  -14.1030   -2.2230 C   0  0  0  0  0  0  0  0  0  0  0  0
    6.3290  -13.9760   -1.8440 N   0  0  0  0  0  0  0  0  0  0  0  0
    5.1269  -12.4231    0.6427 H   0  0  0  0  0  0  0  0  0  0  0  0
    4.8279  -11.3582   -0.7727 H   0  0  0  0  0  0  0  0  0  0  0  0
    4.2129  -13.0460   -0.7727 H   0  0  0  0  0  0  0  0  0  0  0  0
    7.8443  -11.3891   -0.4322 H   0  0  0  0  0  0  0  0  0  0  0  0
    9.7816  -13.9707   -3.8627 H   0  0  0  0  0  0  0  0  0  0  0  0
   11.9680  -13.3470   -5.4130 H   0  0  0  0  0  0  0  0  0  0  0  0
   15.6409  -14.9386   -5.6586 H   0  0  0  0  0  0  0  0  0  0  0  0
   16.3761  -15.4452   -7.9833 H   0  0  0  0  0  0  0  0  0  0  0  0
   15.7811  -16.6894  -10.0374 H   0  0  0  0  0  0  0  0  0  0  0  0
   14.0978  -16.6506  -10.6633 H   0  0  0  0  0  0  0  0  0  0  0  0
   15.0908  -15.1537  -10.6633 H   0  0  0  0  0  0  0  0  0  0  0  0
   12.2450  -16.9150   -9.9490 H   0  0  0  0  0  0  0  0  0  0  0  0
    6.8432  -15.5871   -9.5491 H   0  0  0  0  0  0  0  0  0  0  0  0
    5.6850  -13.7955  -10.8536 H   0  0  0  0  0  0  0  0  0  0  0  0
    7.0016  -12.1328  -12.1371 H   0  0  0  0  0  0  0  0  0  0  0  0
    9.5066  -12.1744  -12.0953 H   0  0  0  0  0  0  0  0  0  0  0  0
   11.9364  -12.1137   -9.0798 H   0  0  0  0  0  0  0  0  0  0  0  0
   14.9240  -10.8850   -9.0750 H   0  0  0  0  0  0  0  0  0  0  0  0
   13.4490  -10.0130   -9.2530 H   0  0  0  0  0  0  0  0  0  0  0  0
   14.4499  -13.4073  -13.0496 H   0  0  0  0  0  0  0  0  0  0  0  0
   11.5240  -15.3624   -6.8821 H   0  0  0  0  0  0  0  0  0  0  0  0
   13.6195  -12.4475   -2.6054 H   0  0  0  0  0  0  0  0  0  0  0  0
   10.1309  -11.8553   -0.1086 H   0  0  0  0  0  0  0  0  0  0  0  0
    7.9428  -14.9222   -2.8617 H   0  0  0  0  0  0  0  0  0  0  0  0
  1  2  1  0
  2  3  2  0
  3  4  1  0
  4  5  1  0
  5  6  2  0
  6  7  1  0
  7  8  1  0
  8  9  1  0
  9 10  2  0
  9 11  1  0
 11 12  2  0
 12 13  1  0
 13 14  2  0
 14 15  1  0
 14 16  1  0
 16 17  1  0
 17 18  1  0
 18 19  2  0
 19 20  1  0
 20 21  2  0
 21 22  1  0
 22 23  2  0
 23 24  1  0
 24 25  2  0
 25 26  1  0
 26 27  1  0
 27 28  2  0
 28 29  1  0
 29 30  1  0
 29 31  2  0
 31 32  1  0
 32 33  2  0
 16 34  2  0
  7 35  2  0
 35 36  1  0
 36 37  1  0
 37 38  1  0
 37 39  1  0
 37 40  1  0
 36 41  2  0
  4 42  1  0
 42 43  2  0
 43  2  1  0
 41  5  1  0
 34 11  1  0
 26 18  1  0
 33 27  1  0
 25 20  1  0
  1 44  1  0
  1 45  1  0
  1 46  1  0
  3 47  1  0
  6 48  1  0
  8 49  1  0
 12 50  1  0
 13 51  1  0
 15 52  1  0
 15 53  1  0
 15 54  1  0
 17 55  1  0
 21 56  1  0
 22 57  1  0
 23 58  1  0
 24 59  1  0
 28 60  1  0
 30 61  1  0
 30 62  1  0
 32 63  1  0
 34 64  1  0
 35 65  1  0
 41 66  1  0
 42 67  1  0
M  END
>  <meeko>  (4) 
{"is_sidechain": [false], "free_energy": -9.617, "intermolecular_energy": -13.518, "internal_energy": -2.186}

$$$$
LIB_NHVGQRASKRTWLZ__M_PUB_ALL__e8__s20260927
     RDKit          3D

 67 72  0  0  0  0  0  0  0  0999 V2000
    1.4290  -13.6290   -4.6060 C   0  0  0  0  0  0  0  0  0  0  0  0
    2.5740  -12.8850   -4.0350 C   0  0  0  0  0  0  0  0  0  0  0  0
    3.7310  -13.3730   -3.4660 C   0  0  0  0  0  0  0  0  0  0  0  0
    4.4770  -12.2750   -3.0890 N   0  0  0  0  0  0  0  0  0  0  0  0
    5.7520  -12.2700   -2.4490 C   0  0  0  0  0  0  0  0  0  0  0  0
    6.8990  -12.7000   -3.1340 C   0  0  0  0  0  0  0  0  0  0  0  0
    8.1590  -12.6920   -2.5170 C   0  0  0  0  0  0  0  0  0  0  0  0
    9.2500  -13.1340   -3.2930 N   0  0  0  0  0  0  0  0  0  0  0  0
   10.5580  -12.6800   -3.2550 C   0  0  0  0  0  0  0  0  0  0  0  0
   11.0250  -11.8630   -2.4700 O   0  0  0  0  0  0  0  0  0  0  0  0
   11.4650  -13.3030   -4.2610 C   0  0  0  0  0  0  0  0  0  0  0  0
   12.8320  -13.3640   -3.9950 C   0  0  0  0  0  0  0  0  0  0  0  0
   13.6880  -13.9760   -4.9100 C   0  0  0  0  0  0  0  0  0  0  0  0
   13.1890  -14.5410   -6.0990 C   0  0  0  0  0  0  0  0  0  0  0  0
   14.1570  -15.2180   -7.0320 C   0  0  0  0  0  0  0  0  0  0  0  0
   11.8070  -14.4600   -6.3930 C   0  0  0  0  0  0  0  0  0  0  0  0
   11.2930  -15.0630   -7.5600 N   0  0  0  0  0  0  0  0  0  0  0  0
   10.2950  -14.6240   -8.3730 C   0  0  0  0  0  0  0  0  0  0  0  0
    8.9960  -14.7630   -8.2080 N   0  0  0  0  0  0  0  0  0  0  0  0
    8.4090  -14.2220   -9.3130 C   0  0  0  0  0  0  0  0  0  0  0  0
    7.0440  -14.1630   -9.6320 C   0  0  0  0  0  0  0  0  0  0  0  0
    6.6540  -13.6310  -10.8630 C   0  0  0  0  0  0  0  0  0  0  0  0
    7.6110  -13.1830  -11.7690 C   0  0  0  0  0  0  0  0  0  0  0  0
    8.9770  -13.2280  -11.4640 C   0  0  0  0  0  0  0  0  0  0  0  0
    9.3590  -13.7180  -10.2000 C   0  0  0  0  0  0  0  0  0  0  0  0
   10.5770  -13.8990   -9.5440 N   0  0  0  0  0  0  0  0  0  0  0  0
   11.8820  -13.4500   -9.9390 C   0  0  0  0  0  0  0  0  0  0  0  0
   12.3410  -12.2020   -9.5650 C   0  0  0  0  0  0  0  0  0  0  0  0
   13.6060  -11.8490   -9.9830 C   0  0  0  0  0  0  0  0  0  0  0  0
   14.1270  -10.6080   -9.6840 N   0  0  0  0  0  0  0  0  0  0  0  0
   14.3660  -12.6480  -10.7350 N   0  0  0  0  0  0  0  0  0  0  0  0
   13.8590  -13.8490  -11.0250 C   0  0  0  0  0  0  0  0  0  0  0  0
   12.6570  -14.3090  -10.6490 N   0  0  0  0  0  0  0  0  0  0  0  0
   10.9710  -13.8220   -5.4650 C   0  0  0  0  0  0  0  0  0  0  0  0
    8.2710  -12.2450   -1.2020 C   0  0  0  0  0  0  0  0  0  0  0  0
    7.1400  -11.8070   -0.4950 C   0  0  0  0  0  0  0  0  0  0  0  0
    7.2820  -11.3490    0.9370 C   0  0  0  0  0  0  0  0  0  0  0  0
    7.9200  -12.2640    1.7150 F   0  0  0  0  0  0  0  0  0  0  0  0
    7.9840  -10.1900    1.0600 F   0  0  0  0  0  0  0  0  0  0  0  0
    6.0820  -11.1180    1.5440 F   0  0  0  0  0  0  0  0  0  0  0  0
    5.8820  -11.8290   -1.1240 C   0  0  0  0  0  0  0  0  0  0  0  0
    3.7200  -11.1830   -3.4610 C   0  0  0  0  0  0  0  0  0  0  0  0
    2.5800  -11.5180   -4.0230 N   0  0  0  0  0  0  0  0  0  0  0  0
    0.8098  -14.0313   -3.7907 H   0  0  0  0  0  0  0  0  0  0  0  0
    0.8237  -12.9512   -5.2259 H   0  0  0  0  0  0  0  0  0  0  0  0
    1.8025  -14.4574   -5.2259 H   0  0  0  0  0  0  0  0  0  0  0  0
    4.0057  -14.4304   -3.3377 H   0  0  0  0  0  0  0  0  0  0  0  0
    6.8085  -13.0495   -4.1731 H   0  0  0  0  0  0  0  0  0  0  0  0
    9.0530  -13.8900   -3.9380 H   0  0  0  0  0  0  0  0  0  0  0  0
   13.2339  -12.9311   -3.0670 H   0  0  0  0  0  0  0  0  0  0  0  0
   14.7670  -14.0178   -4.7001 H   0  0  0  0  0  0  0  0  0  0  0  0
   14.9196  -15.7513   -6.4454 H   0  0  0  0  0  0  0  0  0  0  0  0
   13.6147  -15.9347   -7.6662 H   0  0  0  0  0  0  0  0  0  0  0  0
   14.6442  -14.4627   -7.6662 H   0  0  0  0  0  0  0  0  0  0  0  0
   11.7240  -15.9540   -7.8060 H   0  0  0  0  0  0  0  0  0  0  0  0
    6.2899  -14.5314   -8.9209 H   0  0  0  0  0  0  0  0  0  0  0  0
    5.5859  -13.5657  -11.1177 H   0  0  0  0  0  0  0  0  0  0  0  0
    7.2882  -12.7862  -12.7428 H   0  0  0  0  0  0  0  0  0  0  0  0
    9.7303  -12.8902  -12.1910 H   0  0  0  0  0  0  0  0  0  0  0  0
   11.7245  -11.5204   -8.9606 H   0  0  0  0  0  0  0  0  0  0  0  0
   14.0210   -9.9370  -10.4360 H   0  0  0  0  0  0  0  0  0  0  0  0
   14.9740  -10.5480   -9.1370 H   0  0  0  0  0  0  0  0  0  0  0  0
   14.4853  -14.5230  -11.6279 H   0  0  0  0  0  0  0  0  0  0  0  0
    9.8982  -13.7265   -5.6886 H   0  0  0  0  0  0  0  0  0  0  0  0
    9.2561  -12.2352   -0.7126 H   0  0  0  0  0  0  0  0  0  0  0  0
    4.9910  -11.4969   -0.5710 H   0  0  0  0  0  0  0  0  0  0  0  0
    4.0372  -10.1415   -3.3038 H   0  0  0  0  0  0  0  0  0  0  0  0
  1  2  1  0
  2  3  2  0
  3  4  1  0
  4  5  1  0
  5  6  2  0
  6  7  1  0
  7  8  1  0
  8  9  1  0
  9 10  2  0
  9 11  1  0
 11 12  2  0
 12 13  1  0
 13 14  2  0
 14 15  1  0
 14 16  1  0
 16 17  1  0
 17 18  1  0
 18 19  2  0
 19 20  1  0
 20 21  2  0
 21 22  1  0
 22 23  2  0
 23 24  1  0
 24 25  2  0
 25 26  1  0
 26 27  1  0
 27 28  2  0
 28 29  1  0
 29 30  1  0
 29 31  2  0
 31 32  1  0
 32 33  2  0
 16 34  2  0
  7 35  2  0
 35 36  1  0
 36 37  1  0
 37 38  1  0
 37 39  1  0
 37 40  1  0
 36 41  2  0
  4 42  1  0
 42 43  2  0
 43  2  1  0
 41  5  1  0
 34 11  1  0
 26 18  1  0
 33 27  1  0
 25 20  1  0
  1 44  1  0
  1 45  1  0
  1 46  1  0
  3 47  1  0
  6 48  1  0
  8 49  1  0
 12 50  1  0
 13 51  1  0
 15 52  1  0
 15 53  1  0
 15 54  1  0
 17 55  1  0
 21 56  1  0
 22 57  1  0
 23 58  1  0
 24 59  1  0
 28 60  1  0
 30 61  1  0
 30 62  1  0
 32 63  1  0
 34 64  1  0
 35 65  1  0
 41 66  1  0
 42 67  1  0
M  END
>  <meeko>  (5) 
{"is_sidechain": [false], "free_energy": -9.57, "intermolecular_energy": -13.825, "internal_energy": -1.81}

$$$$
LIB_NHVGQRASKRTWLZ__M_PUB_ALL__e8__s20260927
     RDKit          3D

 67 72  0  0  0  0  0  0  0  0999 V2000
   -2.3570  -16.6630    4.4230 C   0  0  0  0  0  0  0  0  0  0  0  0
   -1.2760  -15.8080    3.8860 C   0  0  0  0  0  0  0  0  0  0  0  0
   -1.3500  -14.7930    2.9560 C   0  0  0  0  0  0  0  0  0  0  0  0
   -0.0680  -14.3110    2.7960 N   0  0  0  0  0  0  0  0  0  0  0  0
    0.3640  -13.2610    1.9310 C   0  0  0  0  0  0  0  0  0  0  0  0
    1.4020  -13.4750    1.0090 C   0  0  0  0  0  0  0  0  0  0  0  0
    1.8300  -12.4530    0.1490 C   0  0  0  0  0  0  0  0  0  0  0  0
    2.8720  -12.7710   -0.7470 N   0  0  0  0  0  0  0  0  0  0  0  0
    2.8780  -12.6320   -2.1250 C   0  0  0  0  0  0  0  0  0  0  0  0
    2.0000  -12.1230   -2.8120 O   0  0  0  0  0  0  0  0  0  0  0  0
    4.1120  -13.1300   -2.7970 C   0  0  0  0  0  0  0  0  0  0  0  0
    4.1760  -13.1220   -4.1890 C   0  0  0  0  0  0  0  0  0  0  0  0
    5.3370  -13.5520   -4.8310 C   0  0  0  0  0  0  0  0  0  0  0  0
    6.4510  -13.9870   -4.0900 C   0  0  0  0  0  0  0  0  0  0  0  0
    7.6900  -14.4060   -4.8390 C   0  0  0  0  0  0  0  0  0  0  0  0
    6.3890  -14.0270   -2.6770 C   0  0  0  0  0  0  0  0  0  0  0  0
    7.5170  -14.4190   -1.9270 N   0  0  0  0  0  0  0  0  0  0  0  0
    8.5860  -13.6700   -1.5460 C   0  0  0  0  0  0  0  0  0  0  0  0
    9.6730  -13.3990   -2.2390 N   0  0  0  0  0  0  0  0  0  0  0  0
   10.4820  -12.6740   -1.4150 C   0  0  0  0  0  0  0  0  0  0  0  0
   11.7700  -12.1820   -1.6750 C   0  0  0  0  0  0  0  0  0  0  0  0
   12.4650  -11.5250   -0.6570 C   0  0  0  0  0  0  0  0  0  0  0  0
   11.8930  -11.3770    0.6030 C   0  0  0  0  0  0  0  0  0  0  0  0
   10.6060  -11.8550    0.8750 C   0  0  0  0  0  0  0  0  0  0  0  0
    9.8910  -12.4710   -0.1690 C   0  0  0  0  0  0  0  0  0  0  0  0
    8.6230  -13.0410   -0.2900 N   0  0  0  0  0  0  0  0  0  0  0  0
    7.5370  -13.0130    0.6490 C   0  0  0  0  0  0  0  0  0  0  0  0
    6.8570  -11.8390    0.9060 C   0  0  0  0  0  0  0  0  0  0  0  0
    5.8250  -11.8990    1.8170 C   0  0  0  0  0  0  0  0  0  0  0  0
    5.1180  -10.7660    2.1590 N   0  0  0  0  0  0  0  0  0  0  0  0
    5.4900  -13.0230    2.4550 N   0  0  0  0  0  0  0  0  0  0  0  0
    6.1780  -14.1200    2.1240 C   0  0  0  0  0  0  0  0  0  0  0  0
    7.1780  -14.1840    1.2330 N   0  0  0  0  0  0  0  0  0  0  0  0
    5.2020  -13.6080   -2.0580 C   0  0  0  0  0  0  0  0  0  0  0  0
    1.2110  -11.2060    0.2110 C   0  0  0  0  0  0  0  0  0  0  0  0
    0.1700  -10.9670    1.1210 C   0  0  0  0  0  0  0  0  0  0  0  0
   -0.4720   -9.6010    1.1850 C   0  0  0  0  0  0  0  0  0  0  0  0
   -1.6690   -9.5590    0.5400 F   0  0  0  0  0  0  0  0  0  0  0  0
   -0.7100   -9.1810    2.4570 F   0  0  0  0  0  0  0  0  0  0  0  0
    0.2920   -8.6270    0.6120 F   0  0  0  0  0  0  0  0  0  0  0  0
   -0.2440  -11.9990    1.9830 C   0  0  0  0  0  0  0  0  0  0  0  0
    0.7090  -15.0680    3.6490 C   0  0  0  0  0  0  0  0  0  0  0  0
    0.0150  -15.9690    4.3080 N   0  0  0  0  0  0  0  0  0  0  0  0
   -2.3297  -16.6414    5.5224 H   0  0  0  0  0  0  0  0  0  0  0  0
   -3.3298  -16.2873    4.0729 H   0  0  0  0  0  0  0  0  0  0  0  0
   -2.2155  -17.6962    4.0729 H   0  0  0  0  0  0  0  0  0  0  0  0
   -2.2550  -14.4371    2.4419 H   0  0  0  0  0  0  0  0  0  0  0  0
    1.8874  -14.4609    0.9607 H   0  0  0  0  0  0  0  0  0  0  0  0
    3.7240  -13.1200   -0.3240 H   0  0  0  0  0  0  0  0  0  0  0  0
    3.3140  -12.7778   -4.7793 H   0  0  0  0  0  0  0  0  0  0  0  0
    5.3823  -13.5510   -5.9301 H   0  0  0  0  0  0  0  0  0  0  0  0
    8.4796  -14.6730   -4.1212 H   0  0  0  0  0  0  0  0  0  0  0  0
    7.4596  -15.2762   -5.4712 H   0  0  0  0  0  0  0  0  0  0  0  0
    8.0350  -13.5746   -5.4712 H   0  0  0  0  0  0  0  0  0  0  0  0
    7.5280  -15.4020   -1.6540 H   0  0  0  0  0  0  0  0  0  0  0  0
   12.2264  -12.3120   -2.6674 H   0  0  0  0  0  0  0  0  0  0  0  0
   13.4699  -11.1224   -0.8523 H   0  0  0  0  0  0  0  0  0  0  0  0
   12.4625  -10.8754    1.3993 H   0  0  0  0  0  0  0  0  0  0  0  0
   10.1653  -11.7520    1.8776 H   0  0  0  0  0  0  0  0  0  0  0  0
    7.1272  -10.8974    0.4056 H   0  0  0  0  0  0  0  0  0  0  0  0
    4.9500  -10.6830    3.1550 H   0  0  0  0  0  0  0  0  0  0  0  0
    4.3860  -10.4390    1.5450 H   0  0  0  0  0  0  0  0  0  0  0  0
    5.8982  -15.0564    2.6289 H   0  0  0  0  0  0  0  0  0  0  0  0
    5.1249  -13.6561   -0.9618 H   0  0  0  0  0  0  0  0  0  0  0  0
    1.5421  -10.4003   -0.4607 H   0  0  0  0  0  0  0  0  0  0  0  0
   -1.0529  -11.8137    2.7050 H   0  0  0  0  0  0  0  0  0  0  0  0
    1.7943  -14.9318    3.7651 H   0  0  0  0  0  0  0  0  0  0  0  0
  1  2  1  0
  2  3  2  0
  3  4  1  0
  4  5  1  0
  5  6  2  0
  6  7  1  0
  7  8  1  0
  8  9  1  0
  9 10  2  0
  9 11  1  0
 11 12  2  0
 12 13  1  0
 13 14  2  0
 14 15  1  0
 14 16  1  0
 16 17  1  0
 17 18  1  0
 18 19  2  0
 19 20  1  0
 20 21  2  0
 21 22  1  0
 22 23  2  0
 23 24  1  0
 24 25  2  0
 25 26  1  0
 26 27  1  0
 27 28  2  0
 28 29  1  0
 29 30  1  0
 29 31  2  0
 31 32  1  0
 32 33  2  0
 16 34  2  0
  7 35  2  0
 35 36  1  0
 36 37  1  0
 37 38  1  0
 37 39  1  0
 37 40  1  0
 36 41  2  0
  4 42  1  0
 42 43  2  0
 43  2  1  0
 41  5  1  0
 34 11  1  0
 26 18  1  0
 33 27  1  0
 25 20  1  0
  1 44  1  0
  1 45  1  0
  1 46  1  0
  3 47  1  0
  6 48  1  0
  8 49  1  0
 12 50  1  0
 13 51  1  0
 15 52  1  0
 15 53  1  0
 15 54  1  0
 17 55  1  0
 21 56  1  0
 22 57  1  0
 23 58  1  0
 24 59  1  0
 28 60  1  0
 30 61  1  0
 30 62  1  0
 32 63  1  0
 34 64  1  0
 35 65  1  0
 41 66  1  0
 42 67  1  0
M  END
>  <meeko>  (6) 
{"is_sidechain": [false], "free_energy": -9.528, "intermolecular_energy": -13.319, "internal_energy": -2.257}

$$$$
LIB_NHVGQRASKRTWLZ__M_PUB_ALL__e8__s20260927
     RDKit          3D

 67 72  0  0  0  0  0  0  0  0999 V2000
   -3.0690  -18.3270    3.2400 C   0  0  0  0  0  0  0  0  0  0  0  0
   -2.1660  -17.4170    2.5030 C   0  0  0  0  0  0  0  0  0  0  0  0
   -2.1390  -16.0380    2.4930 C   0  0  0  0  0  0  0  0  0  0  0  0
   -1.1130  -15.6710    1.6470 N   0  0  0  0  0  0  0  0  0  0  0  0
   -0.7000  -14.3480    1.3060 C   0  0  0  0  0  0  0  0  0  0  0  0
    0.6640  -14.0260    1.2160 C   0  0  0  0  0  0  0  0  0  0  0  0
    1.0820  -12.7310    0.8740 C   0  0  0  0  0  0  0  0  0  0  0  0
    2.4730  -12.5110    0.8000 N   0  0  0  0  0  0  0  0  0  0  0  0
    3.3160  -12.7590   -0.2710 C   0  0  0  0  0  0  0  0  0  0  0  0
    2.9850  -13.1390   -1.3880 O   0  0  0  0  0  0  0  0  0  0  0  0
    4.7580  -12.4860   -0.0070 C   0  0  0  0  0  0  0  0  0  0  0  0
    5.1150  -11.7820    1.1410 C   0  0  0  0  0  0  0  0  0  0  0  0
    6.4620  -11.5500    1.4190 C   0  0  0  0  0  0  0  0  0  0  0  0
    7.4680  -12.0250    0.5580 C   0  0  0  0  0  0  0  0  0  0  0  0
    8.9060  -11.7740    0.9300 C   0  0  0  0  0  0  0  0  0  0  0  0
    7.1170  -12.7170   -0.6250 C   0  0  0  0  0  0  0  0  0  0  0  0
    8.1210  -13.2350   -1.4700 N   0  0  0  0  0  0  0  0  0  0  0  0
    8.7000  -14.4650   -1.4450 C   0  0  0  0  0  0  0  0  0  0  0  0
    8.1080  -15.6370   -1.3440 N   0  0  0  0  0  0  0  0  0  0  0  0
    9.1030  -16.5660   -1.2930 C   0  0  0  0  0  0  0  0  0  0  0  0
    8.9880  -17.9570   -1.1430 C   0  0  0  0  0  0  0  0  0  0  0  0
   10.1460  -18.7280   -1.0340 C   0  0  0  0  0  0  0  0  0  0  0  0
   11.3990  -18.1220   -1.0540 C   0  0  0  0  0  0  0  0  0  0  0  0
   11.5320  -16.7370   -1.2100 C   0  0  0  0  0  0  0  0  0  0  0  0
   10.3620  -15.9710   -1.3710 C   0  0  0  0  0  0  0  0  0  0  0  0
   10.0930  -14.6150   -1.5620 N   0  0  0  0  0  0  0  0  0  0  0  0
   11.0160  -13.5500   -1.8320 C   0  0  0  0  0  0  0  0  0  0  0  0
   11.8210  -13.0440   -0.8300 C   0  0  0  0  0  0  0  0  0  0  0  0
   12.6830  -12.0250   -1.1730 C   0  0  0  0  0  0  0  0  0  0  0  0
   13.4960  -11.4390   -0.2260 N   0  0  0  0  0  0  0  0  0  0  0  0
   12.7410  -11.5140   -2.4050 N   0  0  0  0  0  0  0  0  0  0  0  0
   11.9510  -12.0820   -3.3200 C   0  0  0  0  0  0  0  0  0  0  0  0
   11.0990  -13.0940   -3.1070 N   0  0  0  0  0  0  0  0  0  0  0  0
    5.7550  -12.9190   -0.8910 C   0  0  0  0  0  0  0  0  0  0  0  0
    0.1250  -11.7510    0.6170 C   0  0  0  0  0  0  0  0  0  0  0  0
   -1.2440  -12.0480    0.6980 C   0  0  0  0  0  0  0  0  0  0  0  0
   -2.2630  -10.9640    0.4370 C   0  0  0  0  0  0  0  0  0  0  0  0
   -2.6640  -10.3420    1.5790 F   0  0  0  0  0  0  0  0  0  0  0  0
   -1.8020   -9.9850   -0.3880 F   0  0  0  0  0  0  0  0  0  0  0  0
   -3.4020  -11.4330   -0.1490 F   0  0  0  0  0  0  0  0  0  0  0  0
   -1.6490  -13.3490    1.0500 C   0  0  0  0  0  0  0  0  0  0  0  0
   -0.5770  -16.8600    1.1970 C   0  0  0  0  0  0  0  0  0  0  0  0
   -1.1880  -17.9150    1.6880 N   0  0  0  0  0  0  0  0  0  0  0  0
   -2.9288  -18.1857    4.3218 H   0  0  0  0  0  0  0  0  0  0  0  0
   -4.1125  -18.1035    2.9732 H   0  0  0  0  0  0  0  0  0  0  0  0
   -2.8374  -19.3687    2.9732 H   0  0  0  0  0  0  0  0  0  0  0  0
   -2.8051  -15.3631    3.0504 H   0  0  0  0  0  0  0  0  0  0  0  0
    1.4173  -14.8020    1.4170 H   0  0  0  0  0  0  0  0  0  0  0  0
    2.8980  -12.1000    1.6230 H   0  0  0  0  0  0  0  0  0  0  0  0
    4.3379  -11.4107    1.8253 H   0  0  0  0  0  0  0  0  0  0  0  0
    6.7412  -10.9886    2.3228 H   0  0  0  0  0  0  0  0  0  0  0  0
    9.0037  -11.7569    2.0255 H   0  0  0  0  0  0  0  0  0  0  0  0
    9.5366  -12.5757    0.5181 H   0  0  0  0  0  0  0  0  0  0  0  0
    9.2277  -10.8061    0.5181 H   0  0  0  0  0  0  0  0  0  0  0  0
    8.4610  -12.5840   -2.1780 H   0  0  0  0  0  0  0  0  0  0  0  0
    7.9970  -18.4335   -1.1118 H   0  0  0  0  0  0  0  0  0  0  0  0
   10.0682  -19.8205   -0.9317 H   0  0  0  0  0  0  0  0  0  0  0  0
   12.3008  -18.7424   -0.9453 H   0  0  0  0  0  0  0  0  0  0  0  0
   12.5235  -16.2605   -1.2068 H   0  0  0  0  0  0  0  0  0  0  0  0
   11.7760  -13.4371    0.1964 H   0  0  0  0  0  0  0  0  0  0  0  0
   14.4370  -11.8160   -0.2190 H   0  0  0  0  0  0  0  0  0  0  0  0
   13.1030  -11.1760    0.6660 H   0  0  0  0  0  0  0  0  0  0  0  0
   12.0048  -11.6819   -4.3433 H   0  0  0  0  0  0  0  0  0  0  0  0
    5.4614  -13.4314   -1.8190 H   0  0  0  0  0  0  0  0  0  0  0  0
    0.4462  -10.7340    0.3478 H   0  0  0  0  0  0  0  0  0  0  0  0
   -2.7210  -13.5841    1.1249 H   0  0  0  0  0  0  0  0  0  0  0  0
    0.2724  -16.9188    0.5005 H   0  0  0  0  0  0  0  0  0  0  0  0
  1  2  1  0
  2  3  2  0
  3  4  1  0
  4  5  1  0
  5  6  2  0
  6  7  1  0
  7  8  1  0
  8  9  1  0
  9 10  2  0
  9 11  1  0
 11 12  2  0
 12 13  1  0
 13 14  2  0
 14 15  1  0
 14 16  1  0
 16 17  1  0
 17 18  1  0
 18 19  2  0
 19 20  1  0
 20 21  2  0
 21 22  1  0
 22 23  2  0
 23 24  1  0
 24 25  2  0
 25 26  1  0
 26 27  1  0
 27 28  2  0
 28 29  1  0
 29 30  1  0
 29 31  2  0
 31 32  1  0
 32 33  2  0
 16 34  2  0
  7 35  2  0
 35 36  1  0
 36 37  1  0
 37 38  1  0
 37 39  1  0
 37 40  1  0
 36 41  2  0
  4 42  1  0
 42 43  2  0
 43  2  1  0
 41  5  1  0
 34 11  1  0
 26 18  1  0
 33 27  1  0
 25 20  1  0
  1 44  1  0
  1 45  1  0
  1 46  1  0
  3 47  1  0
  6 48  1  0
  8 49  1  0
 12 50  1  0
 13 51  1  0
 15 52  1  0
 15 53  1  0
 15 54  1  0
 17 55  1  0
 21 56  1  0
 22 57  1  0
 23 58  1  0
 24 59  1  0
 28 60  1  0
 30 61  1  0
 30 62  1  0
 32 63  1  0
 34 64  1  0
 35 65  1  0
 41 66  1  0
 42 67  1  0
M  END
>  <meeko>  (7) 
{"is_sidechain": [false], "free_energy": -9.442, "intermolecular_energy": -13.583, "internal_energy": -1.869}

$$$$
LIB_NHVGQRASKRTWLZ__M_PUB_ALL__e8__s20260927
     RDKit          3D

 67 72  0  0  0  0  0  0  0  0999 V2000
    1.4170  -18.0070    5.2890 C   0  0  0  0  0  0  0  0  0  0  0  0
    1.1080  -16.6210    4.8750 C   0  0  0  0  0  0  0  0  0  0  0  0
    0.7140  -16.1490    3.6420 C   0  0  0  0  0  0  0  0  0  0  0  0
    0.5550  -14.7850    3.7740 N   0  0  0  0  0  0  0  0  0  0  0  0
    0.1640  -13.8540    2.7660 C   0  0  0  0  0  0  0  0  0  0  0  0
    0.9200  -13.7120    1.5910 C   0  0  0  0  0  0  0  0  0  0  0  0
    0.5410  -12.8040    0.5900 C   0  0  0  0  0  0  0  0  0  0  0  0
    1.3610  -12.7440   -0.5560 N   0  0  0  0  0  0  0  0  0  0  0  0
    1.4110  -13.6380   -1.6120 C   0  0  0  0  0  0  0  0  0  0  0  0
    0.6830  -14.6090   -1.7820 O   0  0  0  0  0  0  0  0  0  0  0  0
    2.4430  -13.3300   -2.6430 C   0  0  0  0  0  0  0  0  0  0  0  0
    2.2760  -13.8210   -3.9360 C   0  0  0  0  0  0  0  0  0  0  0  0
    3.2160  -13.5110   -4.9200 C   0  0  0  0  0  0  0  0  0  0  0  0
    4.3280  -12.7020   -4.6250 C   0  0  0  0  0  0  0  0  0  0  0  0
    5.2890  -12.3730   -5.7380 C   0  0  0  0  0  0  0  0  0  0  0  0
    4.5240  -12.2210   -3.3090 C   0  0  0  0  0  0  0  0  0  0  0  0
    5.6120  -11.3720   -3.0160 N   0  0  0  0  0  0  0  0  0  0  0  0
    6.9080  -11.7060   -2.7760 C   0  0  0  0  0  0  0  0  0  0  0  0
    7.9410  -11.5720   -3.5810 N   0  0  0  0  0  0  0  0  0  0  0  0
    9.0100  -12.1070   -2.9250 C   0  0  0  0  0  0  0  0  0  0  0  0
   10.3310  -12.2410   -3.3800 C   0  0  0  0  0  0  0  0  0  0  0  0
   11.2650  -12.8960   -2.5740 C   0  0  0  0  0  0  0  0  0  0  0  0
   10.8840  -13.4240   -1.3440 C   0  0  0  0  0  0  0  0  0  0  0  0
    9.5720  -13.2910   -0.8720 C   0  0  0  0  0  0  0  0  0  0  0  0
    8.6490  -12.5860   -1.6670 C   0  0  0  0  0  0  0  0  0  0  0  0
    7.3030  -12.2410   -1.5380 N   0  0  0  0  0  0  0  0  0  0  0  0
    6.4500  -12.3790   -0.3910 C   0  0  0  0  0  0  0  0  0  0  0  0
    6.1880  -11.2960    0.4260 C   0  0  0  0  0  0  0  0  0  0  0  0
    5.3570  -11.5130    1.5040 C   0  0  0  0  0  0  0  0  0  0  0  0
    5.0710  -10.4960    2.3900 N   0  0  0  0  0  0  0  0  0  0  0  0
    4.8330  -12.7090    1.7830 N   0  0  0  0  0  0  0  0  0  0  0  0
    5.1120  -13.6930    0.9230 C   0  0  0  0  0  0  0  0  0  0  0  0
    5.8810  -13.5900   -0.1700 N   0  0  0  0  0  0  0  0  0  0  0  0
    3.5750  -12.5640   -2.3350 C   0  0  0  0  0  0  0  0  0  0  0  0
   -0.6070  -12.0350    0.7670 C   0  0  0  0  0  0  0  0  0  0  0  0
   -1.3820  -12.1600    1.9310 C   0  0  0  0  0  0  0  0  0  0  0  0
   -2.6100  -11.2990    2.1100 C   0  0  0  0  0  0  0  0  0  0  0  0
   -3.6290  -11.9670    2.7160 F   0  0  0  0  0  0  0  0  0  0  0  0
   -2.3810  -10.1900    2.8640 F   0  0  0  0  0  0  0  0  0  0  0  0
   -3.1170  -10.8430    0.9280 F   0  0  0  0  0  0  0  0  0  0  0  0
   -0.9850  -13.0680    2.9300 C   0  0  0  0  0  0  0  0  0  0  0  0
    0.8620  -14.5150    5.0920 C   0  0  0  0  0  0  0  0  0  0  0  0
    1.1990  -15.5900    5.7690 N   0  0  0  0  0  0  0  0  0  0  0  0
    1.4304  -18.0673    6.3873 H   0  0  0  0  0  0  0  0  0  0  0  0
    0.6486  -18.6877    4.8938 H   0  0  0  0  0  0  0  0  0  0  0  0
    2.4018  -18.2968    4.8938 H   0  0  0  0  0  0  0  0  0  0  0  0
    0.5569  -16.7438    2.7301 H   0  0  0  0  0  0  0  0  0  0  0  0
    1.8244  -14.3227    1.4528 H   0  0  0  0  0  0  0  0  0  0  0  0
    1.9670  -11.9340   -0.6210 H   0  0  0  0  0  0  0  0  0  0  0  0
    1.4073  -14.4501   -4.1803 H   0  0  0  0  0  0  0  0  0  0  0  0
    3.0855  -13.9043   -5.9390 H   0  0  0  0  0  0  0  0  0  0  0  0
    6.2476  -12.0448   -5.3097 H   0  0  0  0  0  0  0  0  0  0  0  0
    5.4514  -13.2667   -6.3584 H   0  0  0  0  0  0  0  0  0  0  0  0
    4.8696  -11.5673   -6.3584 H   0  0  0  0  0  0  0  0  0  0  0  0
    5.3780  -10.3810   -2.9650 H   0  0  0  0  0  0  0  0  0  0  0  0
   10.6269  -11.8354   -4.3587 H   0  0  0  0  0  0  0  0  0  0  0  0
   12.3067  -12.9950   -2.9131 H   0  0  0  0  0  0  0  0  0  0  0  0
   11.6269  -13.9556   -0.7312 H   0  0  0  0  0  0  0  0  0  0  0  0
    9.2714  -13.7253    0.0929 H   0  0  0  0  0  0  0  0  0  0  0  0
    6.6228  -10.3057    0.2253 H   0  0  0  0  0  0  0  0  0  0  0  0
    5.8420   -9.8520    2.5230 H   0  0  0  0  0  0  0  0  0  0  0  0
    4.4980  -10.6930    3.1980 H   0  0  0  0  0  0  0  0  0  0  0  0
    4.6698  -14.6784    1.1313 H   0  0  0  0  0  0  0  0  0  0  0  0
    3.7236  -12.2220   -1.3001 H   0  0  0  0  0  0  0  0  0  0  0  0
   -0.9097  -11.3219   -0.0139 H   0  0  0  0  0  0  0  0  0  0  0  0
   -1.5823  -13.1619    3.8489 H   0  0  0  0  0  0  0  0  0  0  0  0
    0.8282  -13.5065    5.5298 H   0  0  0  0  0  0  0  0  0  0  0  0
  1  2  1  0
  2  3  2  0
  3  4  1  0
  4  5  1  0
  5  6  2  0
  6  7  1  0
  7  8  1  0
  8  9  1  0
  9 10  2  0
  9 11  1  0
 11 12  2  0
 12 13  1  0
 13 14  2  0
 14 15  1  0
 14 16  1  0
 16 17  1  0
 17 18  1  0
 18 19  2  0
 19 20  1  0
 20 21  2  0
 21 22  1  0
 22 23  2  0
 23 24  1  0
 24 25  2  0
 25 26  1  0
 26 27  1  0
 27 28  2  0
 28 29  1  0
 29 30  1  0
 29 31  2  0
 31 32  1  0
 32 33  2  0
 16 34  2  0
  7 35  2  0
 35 36  1  0
 36 37  1  0
 37 38  1  0
 37 39  1  0
 37 40  1  0
 36 41  2  0
  4 42  1  0
 42 43  2  0
 43  2  1  0
 41  5  1  0
 34 11  1  0
 26 18  1  0
 33 27  1  0
 25 20  1  0
  1 44  1  0
  1 45  1  0
  1 46  1  0
  3 47  1  0
  6 48  1  0
  8 49  1  0
 12 50  1  0
 13 51  1  0
 15 52  1  0
 15 53  1  0
 15 54  1  0
 17 55  1  0
 21 56  1  0
 22 57  1  0
 23 58  1  0
 24 59  1  0
 28 60  1  0
 30 61  1  0
 30 62  1  0
 32 63  1  0
 34 64  1  0
 35 65  1  0
 41 66  1  0
 42 67  1  0
M  END
>  <meeko>  (8) 
{"is_sidechain": [false], "free_energy": -9.383, "intermolecular_energy": -13.487, "internal_energy": -1.88}

$$$$
LIB_NHVGQRASKRTWLZ__M_PUB_ALL__e8__s20260927
     RDKit          3D

 67 72  0  0  0  0  0  0  0  0999 V2000
   11.5700  -12.4190   -2.0000 C   0  0  0  0  0  0  0  0  0  0  0  0
   10.1030  -12.6040   -1.9470 C   0  0  0  0  0  0  0  0  0  0  0  0
    9.1430  -12.2050   -2.8530 C   0  0  0  0  0  0  0  0  0  0  0  0
    7.9280  -12.6140   -2.3440 N   0  0  0  0  0  0  0  0  0  0  0  0
    6.6360  -12.4220   -2.9190 C   0  0  0  0  0  0  0  0  0  0  0  0
    5.5470  -12.0360   -2.1210 C   0  0  0  0  0  0  0  0  0  0  0  0
    4.2740  -11.8380   -2.6760 C   0  0  0  0  0  0  0  0  0  0  0  0
    3.2500  -11.4410   -1.7930 N   0  0  0  0  0  0  0  0  0  0  0  0
    2.2770  -12.2360   -1.2100 C   0  0  0  0  0  0  0  0  0  0  0  0
    2.1840  -13.4550   -1.2920 O   0  0  0  0  0  0  0  0  0  0  0  0
    1.2850  -11.4990   -0.3750 C   0  0  0  0  0  0  0  0  0  0  0  0
    0.7750  -10.2890   -0.8400 C   0  0  0  0  0  0  0  0  0  0  0  0
   -0.1790   -9.6050   -0.0870 C   0  0  0  0  0  0  0  0  0  0  0  0
   -0.6410  -10.1260    1.1360 C   0  0  0  0  0  0  0  0  0  0  0  0
   -1.6980   -9.3600    1.8870 C   0  0  0  0  0  0  0  0  0  0  0  0
   -0.1090  -11.3400    1.6330 C   0  0  0  0  0  0  0  0  0  0  0  0
   -0.5990  -11.8910    2.8350 N   0  0  0  0  0  0  0  0  0  0  0  0
   -0.7090  -13.2000    3.1870 C   0  0  0  0  0  0  0  0  0  0  0  0
    0.0730  -13.8910    3.9900 N   0  0  0  0  0  0  0  0  0  0  0  0
   -0.3970  -15.1700    3.9760 C   0  0  0  0  0  0  0  0  0  0  0  0
    0.1200  -16.2940    4.6390 C   0  0  0  0  0  0  0  0  0  0  0  0
   -0.4720  -17.5410    4.4260 C   0  0  0  0  0  0  0  0  0  0  0  0
   -1.5480  -17.6690    3.5540 C   0  0  0  0  0  0  0  0  0  0  0  0
   -2.0810  -16.5560    2.8910 C   0  0  0  0  0  0  0  0  0  0  0  0
   -1.5130  -15.2940    3.1490 C   0  0  0  0  0  0  0  0  0  0  0  0
   -1.7660  -13.9940    2.7110 N   0  0  0  0  0  0  0  0  0  0  0  0
   -2.8720  -13.5120    1.9330 C   0  0  0  0  0  0  0  0  0  0  0  0
   -4.1440  -13.4660    2.4700 C   0  0  0  0  0  0  0  0  0  0  0  0
   -5.1490  -12.9860    1.6580 C   0  0  0  0  0  0  0  0  0  0  0  0
   -6.4540  -12.9390    2.1030 N   0  0  0  0  0  0  0  0  0  0  0  0
   -4.9360  -12.5980    0.3990 N   0  0  0  0  0  0  0  0  0  0  0  0
   -3.6720  -12.6460   -0.0310 C   0  0  0  0  0  0  0  0  0  0  0  0
   -2.6140  -13.0640    0.6780 N   0  0  0  0  0  0  0  0  0  0  0  0
    0.8640  -11.9960    0.8650 C   0  0  0  0  0  0  0  0  0  0  0  0
    4.0920  -12.0250   -4.0450 C   0  0  0  0  0  0  0  0  0  0  0  0
    5.1640  -12.4090   -4.8660 C   0  0  0  0  0  0  0  0  0  0  0  0
    4.9370  -12.6270   -6.3420 C   0  0  0  0  0  0  0  0  0  0  0  0
    3.7980  -13.3280   -6.5950 F   0  0  0  0  0  0  0  0  0  0  0  0
    4.8320  -11.4670   -7.0450 F   0  0  0  0  0  0  0  0  0  0  0  0
    5.9440  -13.3290   -6.9390 F   0  0  0  0  0  0  0  0  0  0  0  0
    6.4330  -12.6120   -4.2930 C   0  0  0  0  0  0  0  0  0  0  0  0
    8.2310  -13.2420   -1.1540 C   0  0  0  0  0  0  0  0  0  0  0  0
    9.5200  -13.2470   -0.8920 N   0  0  0  0  0  0  0  0  0  0  0  0
   11.9704  -12.3685   -0.9767 H   0  0  0  0  0  0  0  0  0  0  0  0
   12.0275  -13.2666   -2.5313 H   0  0  0  0  0  0  0  0  0  0  0  0
   11.8028  -11.4844   -2.5313 H   0  0  0  0  0  0  0  0  0  0  0  0
    9.3129  -11.6661   -3.7968 H   0  0  0  0  0  0  0  0  0  0  0  0
    5.6948  -11.8862   -1.0413 H   0  0  0  0  0  0  0  0  0  0  0  0
    3.2430  -10.4600   -1.5380 H   0  0  0  0  0  0  0  0  0  0  0  0
    1.1234   -9.8746   -1.7975 H   0  0  0  0  0  0  0  0  0  0  0  0
   -0.5752   -8.6465   -0.4535 H   0  0  0  0  0  0  0  0  0  0  0  0
   -1.5366   -9.4770    2.9688 H   0  0  0  0  0  0  0  0  0  0  0  0
   -1.6377   -8.2945    1.6204 H   0  0  0  0  0  0  0  0  0  0  0  0
   -2.6918   -9.7490    1.6204 H   0  0  0  0  0  0  0  0  0  0  0  0
   -0.9270  -11.2060    3.5160 H   0  0  0  0  0  0  0  0  0  0  0  0
    0.9801  -16.1941    5.3174 H   0  0  0  0  0  0  0  0  0  0  0  0
   -0.0851  -18.4269    4.9509 H   0  0  0  0  0  0  0  0  0  0  0  0
   -1.9884  -18.6622    3.3819 H   0  0  0  0  0  0  0  0  0  0  0  0
   -2.9202  -16.6651    2.1882 H   0  0  0  0  0  0  0  0  0  0  0  0
   -4.3457  -13.7975    3.4993 H   0  0  0  0  0  0  0  0  0  0  0  0
   -7.0840  -12.4910    1.4480 H   0  0  0  0  0  0  0  0  0  0  0  0
   -6.6340  -12.7880    3.0850 H   0  0  0  0  0  0  0  0  0  0  0  0
   -3.4820  -12.3118   -1.0616 H   0  0  0  0  0  0  0  0  0  0  0  0
    1.3089  -12.9267    1.2471 H   0  0  0  0  0  0  0  0  0  0  0  0
    3.0969  -11.8699   -4.4873 H   0  0  0  0  0  0  0  0  0  0  0  0
    7.2744  -12.9230   -4.9297 H   0  0  0  0  0  0  0  0  0  0  0  0
    7.4746  -13.6913   -0.4937 H   0  0  0  0  0  0  0  0  0  0  0  0
  1  2  1  0
  2  3  2  0
  3  4  1  0
  4  5  1  0
  5  6  2  0
  6  7  1  0
  7  8  1  0
  8  9  1  0
  9 10  2  0
  9 11  1  0
 11 12  2  0
 12 13  1  0
 13 14  2  0
 14 15  1  0
 14 16  1  0
 16 17  1  0
 17 18  1  0
 18 19  2  0
 19 20  1  0
 20 21  2  0
 21 22  1  0
 22 23  2  0
 23 24  1  0
 24 25  2  0
 25 26  1  0
 26 27  1  0
 27 28  2  0
 28 29  1  0
 29 30  1  0
 29 31  2  0
 31 32  1  0
 32 33  2  0
 16 34  2  0
  7 35  2  0
 35 36  1  0
 36 37  1  0
 37 38  1  0
 37 39  1  0
 37 40  1  0
 36 41  2  0
  4 42  1  0
 42 43  2  0
 43  2  1  0
 41  5  1  0
 34 11  1  0
 26 18  1  0
 33 27  1  0
 25 20  1  0
  1 44  1  0
  1 45  1  0
  1 46  1  0
  3 47  1  0
  6 48  1  0
  8 49  1  0
 12 50  1  0
 13 51  1  0
 15 52  1  0
 15 53  1  0
 15 54  1  0
 17 55  1  0
 21 56  1  0
 22 57  1  0
 23 58  1  0
 24 59  1  0
 28 60  1  0
 30 61  1  0
 30 62  1  0
 32 63  1  0
 34 64  1  0
 35 65  1  0
 41 66  1  0
 42 67  1  0
M  END
>  <meeko>  (9) 
{"is_sidechain": [false], "free_energy": -9.343, "intermolecular_energy": -13.443, "internal_energy": -1.866}

$$$$
