LIB_IYTMFGZUURLRKD__M_PUB_ALL__e8__s20260927
     RDKit          3D

 56 59  0  0  0  0  0  0  0  0999 V2000
    7.7940   -7.3230    1.5950 C   0  0  0  0  0  0  0  0  0  0  0  0
    6.6520   -8.3250    1.5990 C   0  0  2  0  0  0  0  0  0  0  0  0
    6.2370   -8.5230    2.9560 O   0  0  0  0  0  0  0  0  0  0  0  0
    7.0710   -9.6710    0.9830 C   0  0  0  0  0  0  0  0  0  0  0  0
    6.3160  -10.7390    1.6070 N   0  0  0  0  0  0  0  0  0  0  0  0
    5.9530  -11.8540    0.9040 C   0  0  0  0  0  0  0  0  0  0  0  0
    6.9600  -12.5880    0.4220 N   0  0  0  0  0  0  0  0  0  0  0  0
    6.6310  -13.6680   -0.3060 C   0  0  0  0  0  0  0  0  0  0  0  0
    5.3370  -14.0420   -0.5730 C   0  0  0  0  0  0  0  0  0  0  0  0
    4.3580  -13.2370   -0.0270 C   0  0  0  0  0  0  0  0  0  0  0  0
    2.9770  -13.5230   -0.2680 N   0  0  0  0  0  0  0  0  0  0  0  0
    2.1230  -14.2150    0.5730 C   0  0  0  0  0  0  0  0  0  0  0  0
    0.9420  -14.3600   -0.1080 C   0  0  0  0  0  0  0  0  0  0  0  0
    1.0130  -13.7500   -1.3240 N   0  0  0  0  0  0  0  0  0  0  0  0
    2.2170  -13.2050   -1.3980 C   0  0  0  0  0  0  0  0  0  0  0  0
    2.6320  -12.3520   -2.5110 C   0  0  0  0  0  0  0  0  0  0  0  0
    2.2720  -11.0000   -2.5440 C   0  0  0  0  0  0  0  0  0  0  0  0
    2.6400  -10.2070   -3.6290 C   0  0  0  0  0  0  0  0  0  0  0  0
    3.3720  -10.7550   -4.6860 C   0  0  0  0  0  0  0  0  0  0  0  0
    3.7310  -12.1050   -4.6730 C   0  0  0  0  0  0  0  0  0  0  0  0
    4.4920  -12.7280   -5.6860 N   0  0  0  0  0  0  0  0  0  0  0  0
    5.8500  -12.9820   -5.6780 C   0  0  0  0  0  0  0  0  0  0  0  0
    6.6610  -12.6410   -4.8270 O   0  0  0  0  0  0  0  0  0  0  0  0
    6.3540  -13.7380   -6.8580 C   0  0  0  0  0  0  0  0  0  0  0  0
    6.7530  -15.0650   -6.6790 C   0  0  0  0  0  0  0  0  0  0  0  0
    7.2180  -15.8080   -7.7660 C   0  0  0  0  0  0  0  0  0  0  0  0
    7.2770  -15.2350   -9.0400 C   0  0  0  0  0  0  0  0  0  0  0  0
    7.8640  -16.2220  -10.3290 Cl  0  0  0  0  0  0  0  0  0  0  0  0
    6.8650  -13.9110   -9.2450 C   0  0  0  0  0  0  0  0  0  0  0  0
    6.9040  -13.2800  -10.6130 C   0  0  0  0  0  0  0  0  0  0  0  0
    6.6640  -11.9420  -10.5930 F   0  0  0  0  0  0  0  0  0  0  0  0
    8.1170  -13.4230  -11.2230 F   0  0  0  0  0  0  0  0  0  0  0  0
    6.0060  -13.8270  -11.4750 F   0  0  0  0  0  0  0  0  0  0  0  0
    6.3960  -13.1700   -8.1400 C   0  0  0  0  0  0  0  0  0  0  0  0
    3.3440  -12.9000   -3.5860 C   0  0  0  0  0  0  0  0  0  0  0  0
    4.6630  -12.1500    0.7130 N   0  0  0  0  0  0  0  0  0  0  0  0
    8.0717   -7.0794    2.6311 H   0  0  0  0  0  0  0  0  0  0  0  0
    8.6609   -7.7572    1.0755 H   0  0  0  0  0  0  0  0  0  0  0  0
    7.4762   -6.4070    1.0755 H   0  0  0  0  0  0  0  0  0  0  0  0
    5.8277   -7.9281    0.9883 H   0  0  0  0  0  0  0  0  0  0  0  0
    6.6670   -9.3510    3.2490 H   0  0  0  0  0  0  0  0  0  0  0  0
    6.8671   -9.6598   -0.0979 H   0  0  0  0  0  0  0  0  0  0  0  0
    8.1461   -9.8337    1.1495 H   0  0  0  0  0  0  0  0  0  0  0  0
    5.7810  -10.5940    2.4510 H   0  0  0  0  0  0  0  0  0  0  0  0
    7.4443  -14.2879   -0.7112 H   0  0  0  0  0  0  0  0  0  0  0  0
    5.0964  -14.9256   -1.1824 H   0  0  0  0  0  0  0  0  0  0  0  0
    2.3474  -14.5770    1.5872 H   0  0  0  0  0  0  0  0  0  0  0  0
    0.0599  -14.8945    0.2743 H   0  0  0  0  0  0  0  0  0  0  0  0
    1.6984  -10.5633   -1.7132 H   0  0  0  0  0  0  0  0  0  0  0  0
    2.3532   -9.1453   -3.6537 H   0  0  0  0  0  0  0  0  0  0  0  0
    3.6674  -10.1192   -5.5336 H   0  0  0  0  0  0  0  0  0  0  0  0
    3.9720  -12.9880   -6.5140 H   0  0  0  0  0  0  0  0  0  0  0  0
    6.7008  -15.5248   -5.6811 H   0  0  0  0  0  0  0  0  0  0  0  0
    7.5396  -16.8496   -7.6192 H   0  0  0  0  0  0  0  0  0  0  0  0
    6.0588  -12.1331   -8.2855 H   0  0  0  0  0  0  0  0  0  0  0  0
    3.6028  -13.9691   -3.5766 H   0  0  0  0  0  0  0  0  0  0  0  0
  1  2  1  0
  2  3  1  0
  2  4  1  0
  4  5  1  0
  5  6  1  0
  6  7  2  0
  7  8  1  0
  8  9  2  0
  9 10  1  0
 10 11  1  0
 11 12  1  0
 12 13  2  0
 13 14  1  0
 14 15  2  0
 15 16  1  0
 16 17  2  0
 17 18  1  0
 18 19  2  0
 19 20  1  0
 20 21  1  0
 21 22  1  0
 22 23  2  0
 22 24  1  0
 24 25  2  0
 25 26  1  0
 26 27  2  0
 27 28  1  0
 27 29  1  0
 29 30  1  0
 30 31  1  0
 30 32  1  0
 30 33  1  0
 29 34  2  0
 20 35  2  0
 10 36  2  0
 36  6  1  0
 15 11  1  0
 35 16  1  0
 34 24  1  0
  1 37  1  0
  1 38  1  0
  1 39  1  0
  2 40  1  6
  3 41  1  0
  4 42  1  0
  4 43  1  0
  5 44  1  0
  8 45  1  0
  9 46  1  0
 12 47  1  0
 13 48  1  0
 17 49  1  0
 18 50  1  0
 19 51  1  0
 21 52  1  0
 25 53  1  0
 26 54  1  0
 34 55  1  0
 35 56  1  0
M  END
>  <meeko>  (1) 
{"is_sidechain": [false], "free_energy": -8.606, "intermolecular_energy": -12.883, "internal_energy": -1.609}

$$$$
LIB_IYTMFGZUURLRKD__M_PUB_ALL__e8__s20260927
     RDKit          3D

 56 59  0  0  0  0  0  0  0  0999 V2000
   10.8940  -12.4860   -2.9410 C   0  0  0  0  0  0  0  0  0  0  0  0
    9.3830  -12.3440   -3.0160 C   0  0  2  0  0  0  0  0  0  0  0  0
    9.0830  -11.1340   -3.7230 O   0  0  0  0  0  0  0  0  0  0  0  0
    8.7430  -12.2990   -1.6180 C   0  0  0  0  0  0  0  0  0  0  0  0
    7.5080  -13.0580   -1.6310 N   0  0  0  0  0  0  0  0  0  0  0  0
    6.5270  -12.8280   -0.7080 C   0  0  0  0  0  0  0  0  0  0  0  0
    6.9320  -12.2970    0.4490 N   0  0  0  0  0  0  0  0  0  0  0  0
    5.9930  -12.0950    1.3880 C   0  0  0  0  0  0  0  0  0  0  0  0
    4.6660  -12.4050    1.2180 C   0  0  0  0  0  0  0  0  0  0  0  0
    4.3300  -12.9370   -0.0100 C   0  0  0  0  0  0  0  0  0  0  0  0
    2.9780  -13.3210   -0.2810 N   0  0  0  0  0  0  0  0  0  0  0  0
    2.1450  -14.0360    0.5610 C   0  0  0  0  0  0  0  0  0  0  0  0
    0.9980  -14.2830   -0.1500 C   0  0  0  0  0  0  0  0  0  0  0  0
    1.0690  -13.7160   -1.3850 N   0  0  0  0  0  0  0  0  0  0  0  0
    2.2370  -13.0960   -1.4450 C   0  0  0  0  0  0  0  0  0  0  0  0
    2.6310  -12.2590   -2.5770 C   0  0  0  0  0  0  0  0  0  0  0  0
    2.2480  -10.9140   -2.6360 C   0  0  0  0  0  0  0  0  0  0  0  0
    2.5970  -10.1380   -3.7400 C   0  0  0  0  0  0  0  0  0  0  0  0
    3.3330  -10.6960   -4.7890 C   0  0  0  0  0  0  0  0  0  0  0  0
    3.7160  -12.0390   -4.7500 C   0  0  0  0  0  0  0  0  0  0  0  0
    4.4810  -12.6690   -5.7540 N   0  0  0  0  0  0  0  0  0  0  0  0
    5.8260  -12.9840   -5.7090 C   0  0  0  0  0  0  0  0  0  0  0  0
    6.6230  -12.7020   -4.8230 O   0  0  0  0  0  0  0  0  0  0  0  0
    6.3360  -13.7330   -6.8920 C   0  0  0  0  0  0  0  0  0  0  0  0
    6.7490  -15.0560   -6.7160 C   0  0  0  0  0  0  0  0  0  0  0  0
    7.2200  -15.7920   -7.8050 C   0  0  0  0  0  0  0  0  0  0  0  0
    7.2700  -15.2150   -9.0780 C   0  0  0  0  0  0  0  0  0  0  0  0
    7.8650  -16.1930  -10.3700 Cl  0  0  0  0  0  0  0  0  0  0  0  0
    6.8430  -13.8960   -9.2800 C   0  0  0  0  0  0  0  0  0  0  0  0
    6.8730  -13.2610  -10.6460 C   0  0  0  0  0  0  0  0  0  0  0  0
    6.6290  -11.9240  -10.6220 F   0  0  0  0  0  0  0  0  0  0  0  0
    8.0830  -13.4000  -11.2640 F   0  0  0  0  0  0  0  0  0  0  0  0
    5.9710  -13.8090  -11.5050 F   0  0  0  0  0  0  0  0  0  0  0  0
    6.3680  -13.1620   -8.1720 C   0  0  0  0  0  0  0  0  0  0  0  0
    3.3470  -12.8170   -3.6450 C   0  0  0  0  0  0  0  0  0  0  0  0
    5.2550  -13.1430   -0.9720 N   0  0  0  0  0  0  0  0  0  0  0  0
   11.2076  -12.5155   -1.8871 H   0  0  0  0  0  0  0  0  0  0  0  0
   11.2001  -13.4169   -3.4408 H   0  0  0  0  0  0  0  0  0  0  0  0
   11.3681  -11.6285   -3.4408 H   0  0  0  0  0  0  0  0  0  0  0  0
    8.9689  -13.2194   -3.5377 H   0  0  0  0  0  0  0  0  0  0  0  0
    9.2930  -11.3130   -4.6610 H   0  0  0  0  0  0  0  0  0  0  0  0
    9.4350  -12.7360   -0.8830 H   0  0  0  0  0  0  0  0  0  0  0  0
    8.5307  -11.2551   -1.3437 H   0  0  0  0  0  0  0  0  0  0  0  0
    7.4340  -13.9510   -2.0950 H   0  0  0  0  0  0  0  0  0  0  0  0
    6.3046  -11.6564    2.3475 H   0  0  0  0  0  0  0  0  0  0  0  0
    3.9197  -12.2400    2.0091 H   0  0  0  0  0  0  0  0  0  0  0  0
    2.3596  -14.3449    1.5947 H   0  0  0  0  0  0  0  0  0  0  0  0
    0.1399  -14.8594    0.2261 H   0  0  0  0  0  0  0  0  0  0  0  0
    1.6717  -10.4695   -1.8112 H   0  0  0  0  0  0  0  0  0  0  0  0
    2.2919   -9.0821   -3.7859 H   0  0  0  0  0  0  0  0  0  0  0  0
    3.6127  -10.0733   -5.6515 H   0  0  0  0  0  0  0  0  0  0  0  0
    3.9790  -12.8860   -6.6050 H   0  0  0  0  0  0  0  0  0  0  0  0
    6.7031  -15.5181   -5.7188 H   0  0  0  0  0  0  0  0  0  0  0  0
    7.5533  -16.8304   -7.6611 H   0  0  0  0  0  0  0  0  0  0  0  0
    6.0185  -12.1288   -8.3146 H   0  0  0  0  0  0  0  0  0  0  0  0
    3.6232  -13.8813   -3.6150 H   0  0  0  0  0  0  0  0  0  0  0  0
  1  2  1  0
  2  3  1  0
  2  4  1  0
  4  5  1  0
  5  6  1  0
  6  7  2  0
  7  8  1  0
  8  9  2  0
  9 10  1  0
 10 11  1  0
 11 12  1  0
 12 13  2  0
 13 14  1  0
 14 15  2  0
 15 16  1  0
 16 17  2  0
 17 18  1  0
 18 19  2  0
 19 20  1  0
 20 21  1  0
 21 22  1  0
 22 23  2  0
 22 24  1  0
 24 25  2  0
 25 26  1  0
 26 27  2  0
 27 28  1  0
 27 29  1  0
 29 30  1  0
 30 31  1  0
 30 32  1  0
 30 33  1  0
 29 34  2  0
 20 35  2  0
 10 36  2  0
 36  6  1  0
 15 11  1  0
 35 16  1  0
 34 24  1  0
  1 37  1  0
  1 38  1  0
  1 39  1  0
  2 40  1  6
  3 41  1  0
  4 42  1  0
  4 43  1  0
  5 44  1  0
  8 45  1  0
  9 46  1  0
 12 47  1  0
 13 48  1  0
 17 49  1  0
 18 50  1  0
 19 51  1  0
 21 52  1  0
 25 53  1  0
 26 54  1  0
 34 55  1  0
 35 56  1  0
M  END
>  <meeko>  (2) 
{"is_sidechain": [false], "free_energy": -8.294, "intermolecular_energy": -12.326, "internal_energy": -1.699}

$$$$
LIB_IYTMFGZUURLRKD__M_PUB_ALL__e8__s20260927
     RDKit          3D

 56 59  0  0  0  0  0  0  0  0999 V2000
    4.8140  -12.3410    1.3660 C   0  0  0  0  0  0  0  0  0  0  0  0
    4.9440  -13.4800    2.3640 C   0  0  2  0  0  0  0  0  0  0  0  0
    5.0210  -12.9140    3.6780 O   0  0  0  0  0  0  0  0  0  0  0  0
    6.1940  -14.3360    2.0950 C   0  0  0  0  0  0  0  0  0  0  0  0
    5.8250  -15.4780    1.2810 N   0  0  0  0  0  0  0  0  0  0  0  0
    6.1020  -15.5110   -0.0570 C   0  0  0  0  0  0  0  0  0  0  0  0
    5.8420  -16.6660   -0.6750 N   0  0  0  0  0  0  0  0  0  0  0  0
    6.1400  -16.7380   -1.9830 C   0  0  0  0  0  0  0  0  0  0  0  0
    6.6910  -15.7010   -2.6960 C   0  0  0  0  0  0  0  0  0  0  0  0
    6.9150  -14.5390   -1.9860 C   0  0  0  0  0  0  0  0  0  0  0  0
    7.5100  -13.4080   -2.6290 N   0  0  0  0  0  0  0  0  0  0  0  0
    8.8600  -13.1050   -2.6720 C   0  0  0  0  0  0  0  0  0  0  0  0
    8.9620  -11.8790   -3.2760 C   0  0  0  0  0  0  0  0  0  0  0  0
    7.7330  -11.4240   -3.6470 N   0  0  0  0  0  0  0  0  0  0  0  0
    6.8680  -12.3650   -3.3030 C   0  0  0  0  0  0  0  0  0  0  0  0
    5.4490  -12.2990   -3.6490 C   0  0  0  0  0  0  0  0  0  0  0  0
    5.0140  -12.6270   -4.9390 C   0  0  0  0  0  0  0  0  0  0  0  0
    3.6640  -12.5220   -5.2660 C   0  0  0  0  0  0  0  0  0  0  0  0
    2.7380  -12.0930   -4.3110 C   0  0  0  0  0  0  0  0  0  0  0  0
    3.1560  -11.7540   -3.0230 C   0  0  0  0  0  0  0  0  0  0  0  0
    2.2820  -11.3390   -1.9940 N   0  0  0  0  0  0  0  0  0  0  0  0
    1.6060  -12.1410   -1.0950 C   0  0  0  0  0  0  0  0  0  0  0  0
    1.5740  -13.3650   -1.0740 O   0  0  0  0  0  0  0  0  0  0  0  0
    0.8240  -11.4060   -0.0620 C   0  0  0  0  0  0  0  0  0  0  0  0
    0.7390  -10.0140   -0.1560 C   0  0  0  0  0  0  0  0  0  0  0  0
    0.0030   -9.2940    0.7870 C   0  0  0  0  0  0  0  0  0  0  0  0
   -0.6610   -9.9600    1.8220 C   0  0  0  0  0  0  0  0  0  0  0  0
   -1.5490   -8.9950    2.9460 Cl  0  0  0  0  0  0  0  0  0  0  0  0
   -0.6040  -11.3560    1.9240 C   0  0  0  0  0  0  0  0  0  0  0  0
   -1.3250  -12.0940    3.0220 C   0  0  0  0  0  0  0  0  0  0  0  0
   -2.6780  -11.9840    2.9430 F   0  0  0  0  0  0  0  0  0  0  0  0
   -1.0680  -13.4350    3.0120 F   0  0  0  0  0  0  0  0  0  0  0  0
   -0.9700  -11.6730    4.2660 F   0  0  0  0  0  0  0  0  0  0  0  0
    0.1420  -12.0740    0.9650 C   0  0  0  0  0  0  0  0  0  0  0  0
    4.5180  -11.8460   -2.7050 C   0  0  0  0  0  0  0  0  0  0  0  0
    6.6170  -14.4420   -0.6720 N   0  0  0  0  0  0  0  0  0  0  0  0
    4.7054  -11.3897    1.9075 H   0  0  0  0  0  0  0  0  0  0  0  0
    5.7136  -12.3027    0.7341 H   0  0  0  0  0  0  0  0  0  0  0  0
    3.9289  -12.5064    0.7341 H   0  0  0  0  0  0  0  0  0  0  0  0
    4.0688  -14.1394    2.2679 H   0  0  0  0  0  0  0  0  0  0  0  0
    5.7240  -13.4090    4.1420 H   0  0  0  0  0  0  0  0  0  0  0  0
    6.9452  -13.7331    1.5637 H   0  0  0  0  0  0  0  0  0  0  0  0
    6.6155  -14.6839    3.0496 H   0  0  0  0  0  0  0  0  0  0  0  0
    5.1150  -16.1340    1.5700 H   0  0  0  0  0  0  0  0  0  0  0  0
    5.9313  -17.6794   -2.5124 H   0  0  0  0  0  0  0  0  0  0  0  0
    6.9378  -15.7911   -3.7642 H   0  0  0  0  0  0  0  0  0  0  0  0
    9.6870  -13.7253   -2.2959 H   0  0  0  0  0  0  0  0  0  0  0  0
    9.9056  -11.3375   -3.4386 H   0  0  0  0  0  0  0  0  0  0  0  0
    5.7381  -12.9674   -5.6939 H   0  0  0  0  0  0  0  0  0  0  0  0
    3.3251  -12.7779   -6.2807 H   0  0  0  0  0  0  0  0  0  0  0  0
    1.6728  -12.0220   -4.5761 H   0  0  0  0  0  0  0  0  0  0  0  0
    2.1260  -10.3410   -1.9400 H   0  0  0  0  0  0  0  0  0  0  0  0
    1.2521   -9.4857   -0.9731 H   0  0  0  0  0  0  0  0  0  0  0  0
   -0.0548   -8.1979    0.7155 H   0  0  0  0  0  0  0  0  0  0  0  0
    0.1890  -13.1714    1.0239 H   0  0  0  0  0  0  0  0  0  0  0  0
    4.8608  -11.5585   -1.7001 H   0  0  0  0  0  0  0  0  0  0  0  0
  1  2  1  0
  2  3  1  0
  2  4  1  0
  4  5  1  0
  5  6  1  0
  6  7  2  0
  7  8  1  0
  8  9  2  0
  9 10  1  0
 10 11  1  0
 11 12  1  0
 12 13  2  0
 13 14  1  0
 14 15  2  0
 15 16  1  0
 16 17  2  0
 17 18  1  0
 18 19  2  0
 19 20  1  0
 20 21  1  0
 21 22  1  0
 22 23  2  0
 22 24  1  0
 24 25  2  0
 25 26  1  0
 26 27  2  0
 27 28  1  0
 27 29  1  0
 29 30  1  0
 30 31  1  0
 30 32  1  0
 30 33  1  0
 29 34  2  0
 20 35  2  0
 10 36  2  0
 36  6  1  0
 15 11  1  0
 35 16  1  0
 34 24  1  0
  1 37  1  0
  1 38  1  0
  1 39  1  0
  2 40  1  1
  3 41  1  0
  4 42  1  0
  4 43  1  0
  5 44  1  0
  8 45  1  0
  9 46  1  0
 12 47  1  0
 13 48  1  0
 17 49  1  0
 18 50  1  0
 19 51  1  0
 21 52  1  0
 25 53  1  0
 26 54  1  0
 34 55  1  0
 35 56  1  0
M  END
>  <meeko>  (3) 
{"is_sidechain": [false], "free_energy": -8.152, "intermolecular_energy": -11.699, "internal_energy": -2.113}

$$$$
LIB_IYTMFGZUURLRKD__M_PUB_ALL__e8__s20260927
     RDKit          3D

 56 59  0  0  0  0  0  0  0  0999 V2000
    4.4340  -14.1570    1.7300 C   0  0  0  0  0  0  0  0  0  0  0  0
    5.6210  -13.5720    2.4770 C   0  0  2  0  0  0  0  0  0  0  0  0
    5.1180  -12.7460    3.5340 O   0  0  0  0  0  0  0  0  0  0  0  0
    6.5220  -12.7370    1.5500 C   0  0  0  0  0  0  0  0  0  0  0  0
    7.3700  -13.6250    0.7790 N   0  0  0  0  0  0  0  0  0  0  0  0
    7.5560  -13.4350   -0.5620 C   0  0  0  0  0  0  0  0  0  0  0  0
    8.3270  -12.3970   -0.8990 N   0  0  0  0  0  0  0  0  0  0  0  0
    8.4960  -12.1660   -2.2110 C   0  0  0  0  0  0  0  0  0  0  0  0
    7.9240  -12.9290   -3.1990 C   0  0  0  0  0  0  0  0  0  0  0  0
    7.1550  -13.9900   -2.7650 C   0  0  0  0  0  0  0  0  0  0  0  0
    6.4910  -14.8310   -3.7140 N   0  0  0  0  0  0  0  0  0  0  0  0
    6.8770  -16.1050   -4.0910 C   0  0  0  0  0  0  0  0  0  0  0  0
    6.0340  -16.4810   -5.1050 C   0  0  0  0  0  0  0  0  0  0  0  0
    5.1130  -15.5070   -5.3470 N   0  0  0  0  0  0  0  0  0  0  0  0
    5.3570  -14.5390   -4.4780 C   0  0  0  0  0  0  0  0  0  0  0  0
    4.4970  -13.3640   -4.3400 C   0  0  0  0  0  0  0  0  0  0  0  0
    4.6600  -12.2600   -5.1850 C   0  0  0  0  0  0  0  0  0  0  0  0
    3.8600  -11.1310   -5.0180 C   0  0  0  0  0  0  0  0  0  0  0  0
    2.8910  -11.0970   -4.0110 C   0  0  0  0  0  0  0  0  0  0  0  0
    2.7220  -12.1870   -3.1540 C   0  0  0  0  0  0  0  0  0  0  0  0
    1.7500  -12.2420   -2.1310 N   0  0  0  0  0  0  0  0  0  0  0  0
    1.9290  -11.9600   -0.7900 C   0  0  0  0  0  0  0  0  0  0  0  0
    2.9810  -11.6900   -0.2240 O   0  0  0  0  0  0  0  0  0  0  0  0
    0.6890  -12.0190    0.0340 C   0  0  0  0  0  0  0  0  0  0  0  0
   -0.0250  -13.2190    0.0800 C   0  0  0  0  0  0  0  0  0  0  0  0
   -1.1840  -13.3140    0.8530 C   0  0  0  0  0  0  0  0  0  0  0  0
   -1.6300  -12.2150    1.5930 C   0  0  0  0  0  0  0  0  0  0  0  0
   -3.0710  -12.4160    2.5230 Cl  0  0  0  0  0  0  0  0  0  0  0  0
   -0.9190  -11.0080    1.5760 C   0  0  0  0  0  0  0  0  0  0  0  0
   -1.3740   -9.8170    2.3800 C   0  0  0  0  0  0  0  0  0  0  0  0
   -0.5570   -8.7380    2.2480 F   0  0  0  0  0  0  0  0  0  0  0  0
   -2.6160   -9.3800    2.0170 F   0  0  0  0  0  0  0  0  0  0  0  0
   -1.4650  -10.0800    3.7110 F   0  0  0  0  0  0  0  0  0  0  0  0
    0.2510  -10.9230    0.7920 C   0  0  0  0  0  0  0  0  0  0  0  0
    3.5410  -13.3120   -3.3170 C   0  0  0  0  0  0  0  0  0  0  0  0
    6.9750  -14.2460   -1.4520 N   0  0  0  0  0  0  0  0  0  0  0  0
    3.6903  -14.5235    2.4529 H   0  0  0  0  0  0  0  0  0  0  0  0
    3.9792  -13.3799    1.0982 H   0  0  0  0  0  0  0  0  0  0  0  0
    4.7733  -14.9911    1.0982 H   0  0  0  0  0  0  0  0  0  0  0  0
    6.2333  -14.3942    2.8759 H   0  0  0  0  0  0  0  0  0  0  0  0
    5.9030  -12.3300    3.9450 H   0  0  0  0  0  0  0  0  0  0  0  0
    5.8967  -12.1421    0.8681 H   0  0  0  0  0  0  0  0  0  0  0  0
    7.1471  -12.0623    2.1534 H   0  0  0  0  0  0  0  0  0  0  0  0
    7.6050  -14.5520    1.0990 H   0  0  0  0  0  0  0  0  0  0  0  0
    9.1284  -11.3175   -2.5112 H   0  0  0  0  0  0  0  0  0  0  0  0
    8.0692  -12.7090   -4.2670 H   0  0  0  0  0  0  0  0  0  0  0  0
    7.6977  -16.6988   -3.6622 H   0  0  0  0  0  0  0  0  0  0  0  0
    6.0932  -17.4361   -5.6474 H   0  0  0  0  0  0  0  0  0  0  0  0
    5.4193  -12.2835   -5.9806 H   0  0  0  0  0  0  0  0  0  0  0  0
    3.9916  -10.2633   -5.6812 H   0  0  0  0  0  0  0  0  0  0  0  0
    2.2572  -10.2057   -3.8927 H   0  0  0  0  0  0  0  0  0  0  0  0
    0.8320  -12.5470   -2.4270 H   0  0  0  0  0  0  0  0  0  0  0  0
    0.3261  -14.0897   -0.4932 H   0  0  0  0  0  0  0  0  0  0  0  0
   -1.7485  -14.2577    0.8798 H   0  0  0  0  0  0  0  0  0  0  0  0
    0.8267   -9.9858    0.7750 H   0  0  0  0  0  0  0  0  0  0  0  0
    3.4320  -14.1661   -2.6325 H   0  0  0  0  0  0  0  0  0  0  0  0
  1  2  1  0
  2  3  1  0
  2  4  1  0
  4  5  1  0
  5  6  1  0
  6  7  2  0
  7  8  1  0
  8  9  2  0
  9 10  1  0
 10 11  1  0
 11 12  1  0
 12 13  2  0
 13 14  1  0
 14 15  2  0
 15 16  1  0
 16 17  2  0
 17 18  1  0
 18 19  2  0
 19 20  1  0
 20 21  1  0
 21 22  1  0
 22 23  2  0
 22 24  1  0
 24 25  2  0
 25 26  1  0
 26 27  2  0
 27 28  1  0
 27 29  1  0
 29 30  1  0
 30 31  1  0
 30 32  1  0
 30 33  1  0
 29 34  2  0
 20 35  2  0
 10 36  2  0
 36  6  1  0
 15 11  1  0
 35 16  1  0
 34 24  1  0
  1 37  1  0
  1 38  1  0
  1 39  1  0
  2 40  1  1
  3 41  1  0
  4 42  1  0
  4 43  1  0
  5 44  1  0
  8 45  1  0
  9 46  1  0
 12 47  1  0
 13 48  1  0
 17 49  1  0
 18 50  1  0
 19 51  1  0
 21 52  1  0
 25 53  1  0
 26 54  1  0
 34 55  1  0
 35 56  1  0
M  END
>  <meeko>  (4) 
{"is_sidechain": [false], "free_energy": -8.109, "intermolecular_energy": -11.788, "internal_energy": -1.958}

$$$$
LIB_IYTMFGZUURLRKD__M_PUB_ALL__e8__s20260927
     RDKit          3D

 56 59  0  0  0  0  0  0  0  0999 V2000
   11.7410   -6.2110  -11.4410 C   0  0  0  0  0  0  0  0  0  0  0  0
   11.5610   -7.4040  -10.5170 C   0  0  2  0  0  0  0  0  0  0  0  0
   12.7710   -7.5740   -9.7680 O   0  0  0  0  0  0  0  0  0  0  0  0
   11.2510   -8.6920  -11.3000 C   0  0  0  0  0  0  0  0  0  0  0  0
   12.0050   -9.7910  -10.7310 N   0  0  0  0  0  0  0  0  0  0  0  0
   11.7470  -11.0850  -11.0890 C   0  0  0  0  0  0  0  0  0  0  0  0
   12.6440  -11.6540  -11.8980 N   0  0  0  0  0  0  0  0  0  0  0  0
   12.3950  -12.9130  -12.2950 C   0  0  0  0  0  0  0  0  0  0  0  0
   11.2820  -13.6240  -11.9170 C   0  0  0  0  0  0  0  0  0  0  0  0
   10.4130  -12.9680  -11.0690 C   0  0  0  0  0  0  0  0  0  0  0  0
    9.2090  -13.6100  -10.6380 N   0  0  0  0  0  0  0  0  0  0  0  0
    7.9940  -13.6050  -11.3000 C   0  0  0  0  0  0  0  0  0  0  0  0
    7.0990  -14.2310  -10.4700 C   0  0  0  0  0  0  0  0  0  0  0  0
    7.7180  -14.6610   -9.3350 N   0  0  0  0  0  0  0  0  0  0  0  0
    8.9940  -14.3320   -9.4590 C   0  0  0  0  0  0  0  0  0  0  0  0
   10.0130  -14.7360   -8.4910 C   0  0  0  0  0  0  0  0  0  0  0  0
   11.0090  -15.6520   -8.8460 C   0  0  0  0  0  0  0  0  0  0  0  0
   11.9500  -16.0590   -7.9020 C   0  0  0  0  0  0  0  0  0  0  0  0
   11.9060  -15.5530   -6.6000 C   0  0  0  0  0  0  0  0  0  0  0  0
   10.9130  -14.6450   -6.2270 C   0  0  0  0  0  0  0  0  0  0  0  0
   10.8150  -14.0690   -4.9420 N   0  0  0  0  0  0  0  0  0  0  0  0
   10.3700  -14.6750   -3.7830 C   0  0  0  0  0  0  0  0  0  0  0  0
    9.9000  -15.8010   -3.6700 O   0  0  0  0  0  0  0  0  0  0  0  0
   10.4690  -13.8350   -2.5570 C   0  0  0  0  0  0  0  0  0  0  0  0
    9.4070  -13.8530   -1.6490 C   0  0  0  0  0  0  0  0  0  0  0  0
    9.4710  -13.0890   -0.4830 C   0  0  0  0  0  0  0  0  0  0  0  0
   10.6000  -12.3100   -0.2100 C   0  0  0  0  0  0  0  0  0  0  0  0
   10.5990  -11.3940    1.2530 Cl  0  0  0  0  0  0  0  0  0  0  0  0
   11.6830  -12.2910   -1.0980 C   0  0  0  0  0  0  0  0  0  0  0  0
   12.9160  -11.4720   -0.8160 C   0  0  0  0  0  0  0  0  0  0  0  0
   13.8080  -11.4720   -1.8420 F   0  0  0  0  0  0  0  0  0  0  0  0
   12.6320  -10.1570   -0.5800 F   0  0  0  0  0  0  0  0  0  0  0  0
   13.5900  -11.8930    0.2890 F   0  0  0  0  0  0  0  0  0  0  0  0
   11.6080  -13.0690   -2.2740 C   0  0  0  0  0  0  0  0  0  0  0  0
    9.9600  -14.2530   -7.1770 C   0  0  0  0  0  0  0  0  0  0  0  0
   10.6460  -11.7050  -10.6520 N   0  0  0  0  0  0  0  0  0  0  0  0
   11.8785   -5.2996  -10.8406 H   0  0  0  0  0  0  0  0  0  0  0  0
   12.6255   -6.3689  -12.0756 H   0  0  0  0  0  0  0  0  0  0  0  0
   10.8493   -6.1009  -12.0756 H   0  0  0  0  0  0  0  0  0  0  0  0
   10.7071   -7.2127   -9.8505 H   0  0  0  0  0  0  0  0  0  0  0  0
   12.6350   -7.0930   -8.9280 H   0  0  0  0  0  0  0  0  0  0  0  0
   10.1751   -8.9118  -11.2349 H   0  0  0  0  0  0  0  0  0  0  0  0
   11.5325   -8.5589  -12.3550 H   0  0  0  0  0  0  0  0  0  0  0  0
   12.5170   -9.6990   -9.8670 H   0  0  0  0  0  0  0  0  0  0  0  0
   13.1227  -13.4017  -12.9596 H   0  0  0  0  0  0  0  0  0  0  0  0
   11.0955  -14.6498  -12.2676 H   0  0  0  0  0  0  0  0  0  0  0  0
    7.7869  -13.1829  -12.2944 H   0  0  0  0  0  0  0  0  0  0  0  0
    6.0299  -14.3669  -10.6902 H   0  0  0  0  0  0  0  0  0  0  0  0
   11.0494  -16.0510   -9.8703 H   0  0  0  0  0  0  0  0  0  0  0  0
   12.7305  -16.7814   -8.1828 H   0  0  0  0  0  0  0  0  0  0  0  0
   12.6587  -15.8722   -5.8641 H   0  0  0  0  0  0  0  0  0  0  0  0
   11.0820  -13.0940   -4.8870 H   0  0  0  0  0  0  0  0  0  0  0  0
    8.5196  -14.4700   -1.8536 H   0  0  0  0  0  0  0  0  0  0  0  0
    8.6292  -13.0995    0.2250 H   0  0  0  0  0  0  0  0  0  0  0  0
   12.4542  -13.0739   -2.9768 H   0  0  0  0  0  0  0  0  0  0  0  0
    9.1595  -13.5566   -6.8869 H   0  0  0  0  0  0  0  0  0  0  0  0
  1  2  1  0
  2  3  1  0
  2  4  1  0
  4  5  1  0
  5  6  1  0
  6  7  2  0
  7  8  1  0
  8  9  2  0
  9 10  1  0
 10 11  1  0
 11 12  1  0
 12 13  2  0
 13 14  1  0
 14 15  2  0
 15 16  1  0
 16 17  2  0
 17 18  1  0
 18 19  2  0
 19 20  1  0
 20 21  1  0
 21 22  1  0
 22 23  2  0
 22 24  1  0
 24 25  2  0
 25 26  1  0
 26 27  2  0
 27 28  1  0
 27 29  1  0
 29 30  1  0
 30 31  1  0
 30 32  1  0
 30 33  1  0
 29 34  2  0
 20 35  2  0
 10 36  2  0
 36  6  1  0
 15 11  1  0
 35 16  1  0
 34 24  1  0
  1 37  1  0
  1 38  1  0
  1 39  1  0
  2 40  1  1
  3 41  1  0
  4 42  1  0
  4 43  1  0
  5 44  1  0
  8 45  1  0
  9 46  1  0
 12 47  1  0
 13 48  1  0
 17 49  1  0
 18 50  1  0
 19 51  1  0
 21 52  1  0
 25 53  1  0
 26 54  1  0
 34 55  1  0
 35 56  1  0
M  END
>  <meeko>  (5) 
{"is_sidechain": [false], "free_energy": -8.006, "intermolecular_energy": -12.188, "internal_energy": -1.405}

$$$$
LIB_IYTMFGZUURLRKD__M_PUB_ALL__e8__s20260927
     RDKit          3D

 56 59  0  0  0  0  0  0  0  0999 V2000
    6.7550  -11.9190   -2.6300 C   0  0  0  0  0  0  0  0  0  0  0  0
    8.2600  -11.8130   -2.8100 C   0  0  2  0  0  0  0  0  0  0  0  0
    8.5780  -12.2040   -4.1520 O   0  0  0  0  0  0  0  0  0  0  0  0
    9.0190  -12.7090   -1.8150 C   0  0  0  0  0  0  0  0  0  0  0  0
   10.3230  -12.1350   -1.5510 N   0  0  0  0  0  0  0  0  0  0  0  0
   11.4340  -12.5670   -2.2210 C   0  0  0  0  0  0  0  0  0  0  0  0
   12.3050  -11.6170   -2.5730 N   0  0  0  0  0  0  0  0  0  0  0  0
   13.3870  -12.0100   -3.2650 C   0  0  0  0  0  0  0  0  0  0  0  0
   13.6320  -13.3140   -3.6210 C   0  0  0  0  0  0  0  0  0  0  0  0
   12.6900  -14.2330   -3.2060 C   0  0  0  0  0  0  0  0  0  0  0  0
   12.8360  -15.6150   -3.5480 N   0  0  0  0  0  0  0  0  0  0  0  0
   13.4080  -16.5990   -2.7600 C   0  0  0  0  0  0  0  0  0  0  0  0
   13.4490  -17.7340   -3.5290 C   0  0  0  0  0  0  0  0  0  0  0  0
   12.8890  -17.5060   -4.7490 N   0  0  0  0  0  0  0  0  0  0  0  0
   12.4770  -16.2490   -4.7410 C   0  0  0  0  0  0  0  0  0  0  0  0
   11.7070  -15.6620   -5.8380 C   0  0  0  0  0  0  0  0  0  0  0  0
   12.2550  -15.5700   -7.1220 C   0  0  0  0  0  0  0  0  0  0  0  0
   11.5260  -14.9720   -8.1490 C   0  0  0  0  0  0  0  0  0  0  0  0
   10.2470  -14.4670   -7.9040 C   0  0  0  0  0  0  0  0  0  0  0  0
    9.6890  -14.5420   -6.6250 C   0  0  0  0  0  0  0  0  0  0  0  0
    8.3950  -14.0800   -6.3020 N   0  0  0  0  0  0  0  0  0  0  0  0
    7.2040  -14.7700   -6.4270 C   0  0  0  0  0  0  0  0  0  0  0  0
    7.0390  -15.8790   -6.9180 O   0  0  0  0  0  0  0  0  0  0  0  0
    6.0050  -14.0480   -5.9160 C   0  0  0  0  0  0  0  0  0  0  0  0
    5.6300  -12.8540   -6.5370 C   0  0  0  0  0  0  0  0  0  0  0  0
    4.5040  -12.1590   -6.0930 C   0  0  0  0  0  0  0  0  0  0  0  0
    3.7380  -12.6570   -5.0340 C   0  0  0  0  0  0  0  0  0  0  0  0
    2.3620  -11.7370   -4.5470 Cl  0  0  0  0  0  0  0  0  0  0  0  0
    4.0860  -13.8620   -4.4090 C   0  0  0  0  0  0  0  0  0  0  0  0
    3.2650  -14.4260   -3.2780 C   0  0  0  0  0  0  0  0  0  0  0  0
    3.7560  -15.5950   -2.7890 F   0  0  0  0  0  0  0  0  0  0  0  0
    3.1980  -13.5830   -2.2060 F   0  0  0  0  0  0  0  0  0  0  0  0
    1.9710  -14.6600   -3.6280 F   0  0  0  0  0  0  0  0  0  0  0  0
    5.2260  -14.5570   -4.8670 C   0  0  0  0  0  0  0  0  0  0  0  0
   10.4340  -15.1290   -5.5940 C   0  0  0  0  0  0  0  0  0  0  0  0
   11.5970  -13.8630   -2.5040 N   0  0  0  0  0  0  0  0  0  0  0  0
    6.5144  -11.9359   -1.5568 H   0  0  0  0  0  0  0  0  0  0  0  0
    6.2674  -11.0530   -3.1015 H   0  0  0  0  0  0  0  0  0  0  0  0
    6.3936  -12.8448   -3.1015 H   0  0  0  0  0  0  0  0  0  0  0  0
    8.5693  -10.7750   -2.6178 H   0  0  0  0  0  0  0  0  0  0  0  0
    9.5460  -12.3360   -4.1700 H   0  0  0  0  0  0  0  0  0  0  0  0
    8.4510  -12.7779   -0.8755 H   0  0  0  0  0  0  0  0  0  0  0  0
    9.1394  -13.7150   -2.2433 H   0  0  0  0  0  0  0  0  0  0  0  0
   10.5260  -11.6370   -0.6980 H   0  0  0  0  0  0  0  0  0  0  0  0
   14.1183  -11.2444   -3.5635 H   0  0  0  0  0  0  0  0  0  0  0  0
   14.5210  -13.6065   -4.1991 H   0  0  0  0  0  0  0  0  0  0  0  0
   13.7597  -16.4919   -1.7233 H   0  0  0  0  0  0  0  0  0  0  0  0
   13.8751  -18.6950   -3.2051 H   0  0  0  0  0  0  0  0  0  0  0  0
   13.2605  -15.9693   -7.3211 H   0  0  0  0  0  0  0  0  0  0  0  0
   11.9601  -14.8975   -9.1570 H   0  0  0  0  0  0  0  0  0  0  0  0
    9.6751  -14.0071   -8.7234 H   0  0  0  0  0  0  0  0  0  0  0  0
    8.3510  -13.1270   -5.9650 H   0  0  0  0  0  0  0  0  0  0  0  0
    6.2226  -12.4614   -7.3765 H   0  0  0  0  0  0  0  0  0  0  0  0
    4.2175  -11.2145   -6.5786 H   0  0  0  0  0  0  0  0  0  0  0  0
    5.5069  -15.5101   -4.3950 H   0  0  0  0  0  0  0  0  0  0  0  0
   10.0138  -15.1722   -4.5783 H   0  0  0  0  0  0  0  0  0  0  0  0
  1  2  1  0
  2  3  1  0
  2  4  1  0
  4  5  1  0
  5  6  1  0
  6  7  2  0
  7  8  1  0
  8  9  2  0
  9 10  1  0
 10 11  1  0
 11 12  1  0
 12 13  2  0
 13 14  1  0
 14 15  2  0
 15 16  1  0
 16 17  2  0
 17 18  1  0
 18 19  2  0
 19 20  1  0
 20 21  1  0
 21 22  1  0
 22 23  2  0
 22 24  1  0
 24 25  2  0
 25 26  1  0
 26 27  2  0
 27 28  1  0
 27 29  1  0
 29 30  1  0
 30 31  1  0
 30 32  1  0
 30 33  1  0
 29 34  2  0
 20 35  2  0
 10 36  2  0
 36  6  1  0
 15 11  1  0
 35 16  1  0
 34 24  1  0
  1 37  1  0
  1 38  1  0
  1 39  1  0
  2 40  1  6
  3 41  1  0
  4 42  1  0
  4 43  1  0
  5 44  1  0
  8 45  1  0
  9 46  1  0
 12 47  1  0
 13 48  1  0
 17 49  1  0
 18 50  1  0
 19 51  1  0
 21 52  1  0
 25 53  1  0
 26 54  1  0
 34 55  1  0
 35 56  1  0
M  END
>  <meeko>  (6) 
{"is_sidechain": [false], "free_energy": -7.983, "intermolecular_energy": -10.96, "internal_energy": -2.599}

$$$$
LIB_IYTMFGZUURLRKD__M_PUB_ALL__e8__s20260927
     RDKit          3D

 56 59  0  0  0  0  0  0  0  0999 V2000
    6.3980  -15.8200   -1.4130 C   0  0  0  0  0  0  0  0  0  0  0  0
    7.7590  -15.7670   -2.0850 C   0  0  2  0  0  0  0  0  0  0  0  0
    7.7880  -14.6210   -2.9450 O   0  0  0  0  0  0  0  0  0  0  0  0
    8.0400  -17.0380   -2.9060 C   0  0  0  0  0  0  0  0  0  0  0  0
    9.3030  -16.8890   -3.6020 N   0  0  0  0  0  0  0  0  0  0  0  0
   10.4340  -16.5010   -2.9390 C   0  0  0  0  0  0  0  0  0  0  0  0
   10.8930  -17.3590   -2.0240 N   0  0  0  0  0  0  0  0  0  0  0  0
   11.9810  -16.9870   -1.3310 C   0  0  0  0  0  0  0  0  0  0  0  0
   12.6280  -15.7890   -1.5150 C   0  0  0  0  0  0  0  0  0  0  0  0
   12.0980  -14.9670   -2.4890 C   0  0  0  0  0  0  0  0  0  0  0  0
   12.6800  -13.6850   -2.7410 N   0  0  0  0  0  0  0  0  0  0  0  0
   13.6020  -13.3820   -3.7280 C   0  0  0  0  0  0  0  0  0  0  0  0
   13.9740  -12.0780   -3.5220 C   0  0  0  0  0  0  0  0  0  0  0  0
   13.2910  -11.5450   -2.4720 N   0  0  0  0  0  0  0  0  0  0  0  0
   12.4780  -12.4940   -2.0350 C   0  0  0  0  0  0  0  0  0  0  0  0
   11.4850  -12.2650   -0.9870 C   0  0  0  0  0  0  0  0  0  0  0  0
   11.8820  -11.8710    0.2960 C   0  0  0  0  0  0  0  0  0  0  0  0
   10.9290  -11.6940    1.2970 C   0  0  0  0  0  0  0  0  0  0  0  0
    9.5740  -11.9050    1.0250 C   0  0  0  0  0  0  0  0  0  0  0  0
    9.1620  -12.3060   -0.2480 C   0  0  0  0  0  0  0  0  0  0  0  0
    7.8130  -12.5140   -0.6100 N   0  0  0  0  0  0  0  0  0  0  0  0
    6.9070  -11.5650   -1.0440 C   0  0  0  0  0  0  0  0  0  0  0  0
    7.0810  -10.3550   -1.1160 O   0  0  0  0  0  0  0  0  0  0  0  0
    5.5760  -12.1030   -1.4410 C   0  0  0  0  0  0  0  0  0  0  0  0
    4.7790  -12.7020   -0.4620 C   0  0  0  0  0  0  0  0  0  0  0  0
    3.5210  -13.2050   -0.7970 C   0  0  0  0  0  0  0  0  0  0  0  0
    3.0450  -13.1030   -2.1080 C   0  0  0  0  0  0  0  0  0  0  0  0
    1.4790  -13.7500   -2.4370 Cl  0  0  0  0  0  0  0  0  0  0  0  0
    3.8200  -12.4900   -3.1010 C   0  0  0  0  0  0  0  0  0  0  0  0
    3.3200  -12.3550   -4.5160 C   0  0  0  0  0  0  0  0  0  0  0  0
    2.1680  -11.6390   -4.6110 F   0  0  0  0  0  0  0  0  0  0  0  0
    4.2120  -11.7190   -5.3310 F   0  0  0  0  0  0  0  0  0  0  0  0
    3.0870  -13.5550   -5.1130 F   0  0  0  0  0  0  0  0  0  0  0  0
    5.0910  -11.9840   -2.7510 C   0  0  0  0  0  0  0  0  0  0  0  0
   10.1280  -12.4990   -1.2450 C   0  0  0  0  0  0  0  0  0  0  0  0
   11.0080  -15.3230   -3.2030 N   0  0  0  0  0  0  0  0  0  0  0  0
    6.5280  -15.8149   -0.3207 H   0  0  0  0  0  0  0  0  0  0  0  0
    5.8052  -14.9443   -1.7158 H   0  0  0  0  0  0  0  0  0  0  0  0
    5.8751  -16.7392   -1.7158 H   0  0  0  0  0  0  0  0  0  0  0  0
    8.5365  -15.6985   -1.3099 H   0  0  0  0  0  0  0  0  0  0  0  0
    7.6610  -13.8460   -2.3620 H   0  0  0  0  0  0  0  0  0  0  0  0
    8.0916  -17.9064   -2.2328 H   0  0  0  0  0  0  0  0  0  0  0  0
    7.2322  -17.1909   -3.6368 H   0  0  0  0  0  0  0  0  0  0  0  0
    9.3520  -16.7670   -4.6020 H   0  0  0  0  0  0  0  0  0  0  0  0
   12.3765  -17.6799   -0.5737 H   0  0  0  0  0  0  0  0  0  0  0  0
   13.5110  -15.5035   -0.9245 H   0  0  0  0  0  0  0  0  0  0  0  0
   13.9644  -14.0536   -4.5202 H   0  0  0  0  0  0  0  0  0  0  0  0
   14.7209  -11.5377   -4.1222 H   0  0  0  0  0  0  0  0  0  0  0  0
   12.9467  -11.7010    0.5142 H   0  0  0  0  0  0  0  0  0  0  0  0
   11.2440  -11.3870    2.3052 H   0  0  0  0  0  0  0  0  0  0  0  0
    8.8274  -11.7542    1.8187 H   0  0  0  0  0  0  0  0  0  0  0  0
    7.4830  -13.4650   -0.5130 H   0  0  0  0  0  0  0  0  0  0  0  0
    5.1433  -12.7771    0.5732 H   0  0  0  0  0  0  0  0  0  0  0  0
    2.9004  -13.6843   -0.0255 H   0  0  0  0  0  0  0  0  0  0  0  0
    5.7084  -11.4902   -3.5159 H   0  0  0  0  0  0  0  0  0  0  0  0
    9.8164  -12.8388   -2.2437 H   0  0  0  0  0  0  0  0  0  0  0  0
  1  2  1  0
  2  3  1  0
  2  4  1  0
  4  5  1  0
  5  6  1  0
  6  7  2  0
  7  8  1  0
  8  9  2  0
  9 10  1  0
 10 11  1  0
 11 12  1  0
 12 13  2  0
 13 14  1  0
 14 15  2  0
 15 16  1  0
 16 17  2  0
 17 18  1  0
 18 19  2  0
 19 20  1  0
 20 21  1  0
 21 22  1  0
 22 23  2  0
 22 24  1  0
 24 25  2  0
 25 26  1  0
 26 27  2  0
 27 28  1  0
 27 29  1  0
 29 30  1  0
 30 31  1  0
 30 32  1  0
 30 33  1  0
 29 34  2  0
 20 35  2  0
 10 36  2  0
 36  6  1  0
 15 11  1  0
 35 16  1  0
 34 24  1  0
  1 37  1  0
  1 38  1  0
  1 39  1  0
  2 40  1  1
  3 41  1  0
  4 42  1  0
  4 43  1  0
  5 44  1  0
  8 45  1  0
  9 46  1  0
 12 47  1  0
 13 48  1  0
 17 49  1  0
 18 50  1  0
 19 51  1  0
 21 52  1  0
 25 53  1  0
 26 54  1  0
 34 55  1  0
 35 56  1  0
M  END
>  <meeko>  (7) 
{"is_sidechain": [false], "free_energy": -7.782, "intermolecular_energy": -10.674, "internal_energy": -2.584}

$$$$
LIB_IYTMFGZUURLRKD__M_PUB_ALL__e8__s20260927
     RDKit          3D

 56 59  0  0  0  0  0  0  0  0999 V2000
   -5.8390  -14.9370    8.2490 C   0  0  0  0  0  0  0  0  0  0  0  0
   -5.1040  -15.0020    9.5780 C   0  0  2  0  0  0  0  0  0  0  0  0
   -5.3260  -13.7670   10.2710 O   0  0  0  0  0  0  0  0  0  0  0  0
   -3.5930  -15.2240    9.3850 C   0  0  0  0  0  0  0  0  0  0  0  0
   -3.3790  -16.4770    8.6880 N   0  0  0  0  0  0  0  0  0  0  0  0
   -2.5280  -17.4240    9.1850 C   0  0  0  0  0  0  0  0  0  0  0  0
   -3.1040  -18.5430    9.6340 N   0  0  0  0  0  0  0  0  0  0  0  0
   -2.2940  -19.4750   10.1620 C   0  0  0  0  0  0  0  0  0  0  0  0
   -0.9310  -19.3330   10.2600 C   0  0  0  0  0  0  0  0  0  0  0  0
   -0.4160  -18.1550    9.7590 C   0  0  0  0  0  0  0  0  0  0  0  0
    0.9890  -17.8950    9.8380 N   0  0  0  0  0  0  0  0  0  0  0  0
    1.7240  -17.6990   10.9940 C   0  0  0  0  0  0  0  0  0  0  0  0
    2.9910  -17.3600   10.5940 C   0  0  0  0  0  0  0  0  0  0  0  0
    3.0840  -17.3760    9.2350 N   0  0  0  0  0  0  0  0  0  0  0  0
    1.8960  -17.7450    8.7840 C   0  0  0  0  0  0  0  0  0  0  0  0
    1.6320  -17.9990    7.3680 C   0  0  0  0  0  0  0  0  0  0  0  0
    2.2300  -19.0830    6.7150 C   0  0  0  0  0  0  0  0  0  0  0  0
    2.0010  -19.2910    5.3570 C   0  0  0  0  0  0  0  0  0  0  0  0
    1.1720  -18.4230    4.6410 C   0  0  0  0  0  0  0  0  0  0  0  0
    0.5740  -17.3320    5.2760 C   0  0  0  0  0  0  0  0  0  0  0  0
   -0.2970  -16.4260    4.6310 N   0  0  0  0  0  0  0  0  0  0  0  0
   -0.0340  -15.1130    4.2870 C   0  0  0  0  0  0  0  0  0  0  0  0
    0.9720  -14.4660    4.5490 O   0  0  0  0  0  0  0  0  0  0  0  0
   -1.1230  -14.4330    3.5310 C   0  0  0  0  0  0  0  0  0  0  0  0
   -2.2940  -15.1470    3.2600 C   0  0  0  0  0  0  0  0  0  0  0  0
   -3.3390  -14.5360    2.5650 C   0  0  0  0  0  0  0  0  0  0  0  0
   -3.2280  -13.2060    2.1470 C   0  0  0  0  0  0  0  0  0  0  0  0
   -4.5660  -12.5270    1.2950 Cl  0  0  0  0  0  0  0  0  0  0  0  0
   -2.0700  -12.4670    2.4240 C   0  0  0  0  0  0  0  0  0  0  0  0
   -1.9370  -11.0280    1.9980 C   0  0  0  0  0  0  0  0  0  0  0  0
   -2.8170  -10.2000    2.6200 F   0  0  0  0  0  0  0  0  0  0  0  0
   -0.7000  -10.5130    2.2650 F   0  0  0  0  0  0  0  0  0  0  0  0
   -2.1130  -10.8530    0.6600 F   0  0  0  0  0  0  0  0  0  0  0  0
   -1.0200  -13.0940    3.1280 C   0  0  0  0  0  0  0  0  0  0  0  0
    0.8220  -17.1190    6.6380 C   0  0  0  0  0  0  0  0  0  0  0  0
   -1.2090  -17.2050    9.2190 N   0  0  0  0  0  0  0  0  0  0  0  0
   -6.9195  -14.8414    8.4318 H   0  0  0  0  0  0  0  0  0  0  0  0
   -5.4856  -14.0666    7.6767 H   0  0  0  0  0  0  0  0  0  0  0  0
   -5.6438  -15.8559    7.6767 H   0  0  0  0  0  0  0  0  0  0  0  0
   -5.4889  -15.8545   10.1569 H   0  0  0  0  0  0  0  0  0  0  0  0
   -4.6690  -13.7450   10.9950 H   0  0  0  0  0  0  0  0  0  0  0  0
   -3.1727  -14.3976    8.7931 H   0  0  0  0  0  0  0  0  0  0  0  0
   -3.0969  -15.2582   10.3662 H   0  0  0  0  0  0  0  0  0  0  0  0
   -3.5890  -16.5860    7.7080 H   0  0  0  0  0  0  0  0  0  0  0  0
   -2.7473  -20.4044   10.5371 H   0  0  0  0  0  0  0  0  0  0  0  0
   -0.2920  -20.1079   10.7086 H   0  0  0  0  0  0  0  0  0  0  0  0
    1.3633  -17.7959   12.0287 H   0  0  0  0  0  0  0  0  0  0  0  0
    3.8173  -17.1099   11.2756 H   0  0  0  0  0  0  0  0  0  0  0  0
    2.8810  -19.7708    7.2745 H   0  0  0  0  0  0  0  0  0  0  0  0
    2.4746  -20.1421    4.8458 H   0  0  0  0  0  0  0  0  0  0  0  0
    0.9893  -18.6001    3.5708 H   0  0  0  0  0  0  0  0  0  0  0  0
   -1.2190  -16.7870    4.4290 H   0  0  0  0  0  0  0  0  0  0  0  0
   -2.3919  -16.1903    3.5945 H   0  0  0  0  0  0  0  0  0  0  0  0
   -4.2550  -15.1038    2.3448 H   0  0  0  0  0  0  0  0  0  0  0  0
   -0.1087  -12.5248    3.3637 H   0  0  0  0  0  0  0  0  0  0  0  0
    0.3748  -16.2491    7.1414 H   0  0  0  0  0  0  0  0  0  0  0  0
  1  2  1  0
  2  3  1  0
  2  4  1  0
  4  5  1  0
  5  6  1  0
  6  7  2  0
  7  8  1  0
  8  9  2  0
  9 10  1  0
 10 11  1  0
 11 12  1  0
 12 13  2  0
 13 14  1  0
 14 15  2  0
 15 16  1  0
 16 17  2  0
 17 18  1  0
 18 19  2  0
 19 20  1  0
 20 21  1  0
 21 22  1  0
 22 23  2  0
 22 24  1  0
 24 25  2  0
 25 26  1  0
 26 27  2  0
 27 28  1  0
 27 29  1  0
 29 30  1  0
 30 31  1  0
 30 32  1  0
 30 33  1  0
 29 34  2  0
 20 35  2  0
 10 36  2  0
 36  6  1  0
 15 11  1  0
 35 16  1  0
 34 24  1  0
  1 37  1  0
  1 38  1  0
  1 39  1  0
  2 40  1  1
  3 41  1  0
  4 42  1  0
  4 43  1  0
  5 44  1  0
  8 45  1  0
  9 46  1  0
 12 47  1  0
 13 48  1  0
 17 49  1  0
 18 50  1  0
 19 51  1  0
 21 52  1  0
 25 53  1  0
 26 54  1  0
 34 55  1  0
 35 56  1  0
M  END
>  <meeko>  (8) 
{"is_sidechain": [false], "free_energy": -7.734, "intermolecular_energy": -11.753, "internal_energy": -1.433}

$$$$
LIB_IYTMFGZUURLRKD__M_PUB_ALL__e8__s20260927
     RDKit          3D

 56 59  0  0  0  0  0  0  0  0999 V2000
    0.3400   -9.2010    0.8210 C   0  0  0  0  0  0  0  0  0  0  0  0
   -0.9630   -9.7440    1.3860 C   0  0  2  0  0  0  0  0  0  0  0  0
   -1.4470   -8.8150    2.3630 O   0  0  0  0  0  0  0  0  0  0  0  0
   -0.7720  -11.1260    2.0340 C   0  0  0  0  0  0  0  0  0  0  0  0
   -1.1340  -12.1570    1.0810 N   0  0  0  0  0  0  0  0  0  0  0  0
   -0.1790  -12.9010    0.4480 C   0  0  0  0  0  0  0  0  0  0  0  0
   -0.6280  -13.9400   -0.2610 N   0  0  0  0  0  0  0  0  0  0  0  0
    0.2930  -14.7100   -0.8630 C   0  0  0  0  0  0  0  0  0  0  0  0
    1.6450  -14.4840   -0.7830 C   0  0  0  0  0  0  0  0  0  0  0  0
    2.0240  -13.3820   -0.0440 C   0  0  0  0  0  0  0  0  0  0  0  0
    3.4110  -13.0720    0.1260 N   0  0  0  0  0  0  0  0  0  0  0  0
    4.2050  -13.4270    1.2020 C   0  0  0  0  0  0  0  0  0  0  0  0
    5.4180  -12.8190    1.0050 C   0  0  0  0  0  0  0  0  0  0  0  0
    5.4240  -12.1320   -0.1710 N   0  0  0  0  0  0  0  0  0  0  0  0
    4.2360  -12.3260   -0.7220 C   0  0  0  0  0  0  0  0  0  0  0  0
    3.8970  -11.8470   -2.0620 C   0  0  0  0  0  0  0  0  0  0  0  0
    2.8100  -10.9870   -2.2560 C   0  0  0  0  0  0  0  0  0  0  0  0
    2.4740  -10.5690   -3.5420 C   0  0  0  0  0  0  0  0  0  0  0  0
    3.2210  -11.0020   -4.6420 C   0  0  0  0  0  0  0  0  0  0  0  0
    4.3030  -11.8670   -4.4650 C   0  0  0  0  0  0  0  0  0  0  0  0
    5.1220  -12.3280   -5.5190 N   0  0  0  0  0  0  0  0  0  0  0  0
    5.3560  -13.6400   -5.8860 C   0  0  0  0  0  0  0  0  0  0  0  0
    4.9600  -14.6490   -5.3160 O   0  0  0  0  0  0  0  0  0  0  0  0
    6.1990  -13.8110   -7.1020 C   0  0  0  0  0  0  0  0  0  0  0  0
    6.8700  -15.0230   -7.2830 C   0  0  0  0  0  0  0  0  0  0  0  0
    7.6590  -15.2230   -8.4170 C   0  0  0  0  0  0  0  0  0  0  0  0
    7.7740  -14.2180   -9.3830 C   0  0  0  0  0  0  0  0  0  0  0  0
    8.7680  -14.5460  -10.7560 Cl  0  0  0  0  0  0  0  0  0  0  0  0
    7.0950  -13.0020   -9.2300 C   0  0  0  0  0  0  0  0  0  0  0  0
    7.1920  -11.9130  -10.2670 C   0  0  0  0  0  0  0  0  0  0  0  0
    8.4720  -11.6170  -10.6170 F   0  0  0  0  0  0  0  0  0  0  0  0
    6.5610  -12.2390  -11.4330 F   0  0  0  0  0  0  0  0  0  0  0  0
    6.6160  -10.7470   -9.8660 F   0  0  0  0  0  0  0  0  0  0  0  0
    6.3000  -12.8110   -8.0800 C   0  0  0  0  0  0  0  0  0  0  0  0
    4.6250  -12.2970   -3.1710 C   0  0  0  0  0  0  0  0  0  0  0  0
    1.1160  -12.5890    0.5660 N   0  0  0  0  0  0  0  0  0  0  0  0
    1.0099   -8.9218    1.6476 H   0  0  0  0  0  0  0  0  0  0  0  0
    0.8218   -9.9732    0.2033 H   0  0  0  0  0  0  0  0  0  0  0  0
    0.1309   -8.3151    0.2033 H   0  0  0  0  0  0  0  0  0  0  0  0
   -1.6849   -9.8644    0.5648 H   0  0  0  0  0  0  0  0  0  0  0  0
   -1.6730   -8.0020    1.8700 H   0  0  0  0  0  0  0  0  0  0  0  0
    0.2804  -11.2513    2.3286 H   0  0  0  0  0  0  0  0  0  0  0  0
   -1.4124  -11.2067    2.9247 H   0  0  0  0  0  0  0  0  0  0  0  0
   -2.0350  -12.1730    0.6280 H   0  0  0  0  0  0  0  0  0  0  0  0
   -0.0554  -15.5702   -1.4535 H   0  0  0  0  0  0  0  0  0  0  0  0
    2.3784  -15.1390   -1.2760 H   0  0  0  0  0  0  0  0  0  0  0  0
    3.9196  -14.0697    2.0479 H   0  0  0  0  0  0  0  0  0  0  0  0
    6.2684  -12.8779    1.7003 H   0  0  0  0  0  0  0  0  0  0  0  0
    2.2212  -10.6412   -1.3936 H   0  0  0  0  0  0  0  0  0  0  0  0
    1.6174   -9.8955   -3.6926 H   0  0  0  0  0  0  0  0  0  0  0  0
    2.9548  -10.6592   -5.6527 H   0  0  0  0  0  0  0  0  0  0  0  0
    5.6040  -11.6050   -6.0360 H   0  0  0  0  0  0  0  0  0  0  0  0
    6.7764  -15.8204   -6.5311 H   0  0  0  0  0  0  0  0  0  0  0  0
    8.1928  -16.1754   -8.5516 H   0  0  0  0  0  0  0  0  0  0  0  0
    5.7526  -11.8659   -7.9490 H   0  0  0  0  0  0  0  0  0  0  0  0
    5.4605  -12.9972   -3.0240 H   0  0  0  0  0  0  0  0  0  0  0  0
  1  2  1  0
  2  3  1  0
  2  4  1  0
  4  5  1  0
  5  6  1  0
  6  7  2  0
  7  8  1  0
  8  9  2  0
  9 10  1  0
 10 11  1  0
 11 12  1  0
 12 13  2  0
 13 14  1  0
 14 15  2  0
 15 16  1  0
 16 17  2  0
 17 18  1  0
 18 19  2  0
 19 20  1  0
 20 21  1  0
 21 22  1  0
 22 23  2  0
 22 24  1  0
 24 25  2  0
 25 26  1  0
 26 27  2  0
 27 28  1  0
 27 29  1  0
 29 30  1  0
 30 31  1  0
 30 32  1  0
 30 33  1  0
 29 34  2  0
 20 35  2  0
 10 36  2  0
 36  6  1  0
 15 11  1  0
 35 16  1  0
 34 24  1  0
  1 37  1  0
  1 38  1  0
  1 39  1  0
  2 40  1  6
  3 41  1  0
  4 42  1  0
  4 43  1  0
  5 44  1  0
  8 45  1  0
  9 46  1  0
 12 47  1  0
 13 48  1  0
 17 49  1  0
 18 50  1  0
 19 51  1  0
 21 52  1  0
 25 53  1  0
 26 54  1  0
 34 55  1  0
 35 56  1  0
M  END
>  <meeko>  (9) 
{"is_sidechain": [false], "free_energy": -7.618, "intermolecular_energy": -11.675, "internal_energy": -1.337}

$$$$
