LIB_NJLNJHCKQVRQDL__M_PUB_ALL__e8__s20260927
     RDKit          3D

 39 42  0  0  0  0  0  0  0  0999 V2000
    9.1970  -12.4120  -13.1750 O   0  0  0  0  0  0  0  0  0  0  0  0
    9.2980  -12.1550  -11.9780 C   0  0  0  0  0  0  0  0  0  0  0  0
    8.3730  -12.8260  -11.0220 C   0  0  0  0  0  0  0  0  0  0  0  0
    7.5730  -12.0210  -10.2000 C   0  0  0  0  0  0  0  0  0  0  0  0
    6.7020  -12.6020   -9.2770 C   0  0  0  0  0  0  0  0  0  0  0  0
    6.6340  -13.9890   -9.1610 C   0  0  0  0  0  0  0  0  0  0  0  0
    7.4410  -14.7970   -9.9620 C   0  0  0  0  0  0  0  0  0  0  0  0
    8.3140  -14.2190  -10.8880 C   0  0  0  0  0  0  0  0  0  0  0  0
   10.3420  -11.2180  -11.4990 C   0  0  0  0  0  0  0  0  0  0  0  0
   10.1080   -9.8950  -11.6740 N   0  0  0  0  0  0  0  0  0  0  0  0
   10.9980   -9.0060  -11.2270 C   0  0  0  0  0  0  0  0  0  0  0  0
   10.7570   -7.6750  -11.4090 N   0  0  0  0  0  0  0  0  0  0  0  0
   11.5780   -6.6690  -10.7940 C   0  0  0  0  0  0  0  0  0  0  0  0
   11.8050   -5.5430  -11.7620 C   0  0  0  0  0  0  0  0  0  0  0  0
   12.5870   -5.7080  -12.9080 C   0  0  0  0  0  0  0  0  0  0  0  0
   12.7570   -4.6440  -13.7900 C   0  0  0  0  0  0  0  0  0  0  0  0
   12.1300   -3.4440  -13.4960 C   0  0  0  0  0  0  0  0  0  0  0  0
   11.3590   -3.2480  -12.4060 N   0  0  0  0  0  0  0  0  0  0  0  0
   11.2100   -4.3000  -11.5690 C   0  0  0  0  0  0  0  0  0  0  0  0
   12.1320   -9.3140  -10.6100 N   0  0  0  0  0  0  0  0  0  0  0  0
   12.3740  -10.6320  -10.4270 C   0  0  0  0  0  0  0  0  0  0  0  0
   13.5320  -11.1620   -9.7860 C   0  0  0  0  0  0  0  0  0  0  0  0
   13.5250  -12.5370   -9.7440 C   0  0  0  0  0  0  0  0  0  0  0  0
   12.1290  -13.1850  -10.4800 S   0  0  0  0  0  0  0  0  0  0  0  0
   11.5010  -11.6280  -10.8570 C   0  0  0  0  0  0  0  0  0  0  0  0
    7.6318  -10.9257  -10.2826 H   0  0  0  0  0  0  0  0  0  0  0  0
    6.0694  -11.9651   -8.6413 H   0  0  0  0  0  0  0  0  0  0  0  0
    5.9436  -14.4469   -8.4374 H   0  0  0  0  0  0  0  0  0  0  0  0
    7.3902  -15.8915   -9.8647 H   0  0  0  0  0  0  0  0  0  0  0  0
    8.9553  -14.8587  -11.5121 H   0  0  0  0  0  0  0  0  0  0  0  0
   10.0090   -7.4400  -12.0420 H   0  0  0  0  0  0  0  0  0  0  0  0
   11.0735   -6.2835   -9.8958 H   0  0  0  0  0  0  0  0  0  0  0  0
   12.5459   -7.1093  -10.5122 H   0  0  0  0  0  0  0  0  0  0  0  0
   13.0672   -6.6762  -13.1130 H   0  0  0  0  0  0  0  0  0  0  0  0
   13.3722   -4.7532  -14.6953 H   0  0  0  0  0  0  0  0  0  0  0  0
   12.2686   -2.6027  -14.1910 H   0  0  0  0  0  0  0  0  0  0  0  0
   10.5781   -4.1643  -10.6789 H   0  0  0  0  0  0  0  0  0  0  0  0
   14.3401  -10.5413   -9.3717 H   0  0  0  0  0  0  0  0  0  0  0  0
   14.3223  -13.1446   -9.2911 H   0  0  0  0  0  0  0  0  0  0  0  0
  1  2  2  0
  2  3  1  0
  3  4  2  0
  4  5  1  0
  5  6  2  0
  6  7  1  0
  7  8  2  0
  2  9  1  0
  9 10  2  0
 10 11  1  0
 11 12  1  0
 12 13  1  0
 13 14  1  0
 14 15  2  0
 15 16  1  0
 16 17  2  0
 17 18  1  0
 18 19  2  0
 11 20  2  0
 20 21  1  0
 21 22  1  0
 22 23  2  0
 23 24  1  0
 24 25  1  0
  8  3  1  0
 25  9  1  0
 19 14  1  0
 25 21  2  0
  4 26  1  0
  5 27  1  0
  6 28  1  0
  7 29  1  0
  8 30  1  0
 12 31  1  0
 13 32  1  0
 13 33  1  0
 15 34  1  0
 16 35  1  0
 17 36  1  0
 19 37  1  0
 22 38  1  0
 23 39  1  0
M  END
>  <meeko>  (1) 
{"is_sidechain": [false], "free_energy": -8.115, "intermolecular_energy": -10.487, "internal_energy": -0.734}

$$$$
LIB_NJLNJHCKQVRQDL__M_PUB_ALL__e8__s20260927
     RDKit          3D

 39 42  0  0  0  0  0  0  0  0999 V2000
  -10.1200  -11.4890   -8.5900 O   0  0  0  0  0  0  0  0  0  0  0  0
  -11.1940  -12.0840   -8.6290 C   0  0  0  0  0  0  0  0  0  0  0  0
  -12.4210  -11.3730   -8.1740 C   0  0  0  0  0  0  0  0  0  0  0  0
  -13.6640  -11.8470   -8.6160 C   0  0  0  0  0  0  0  0  0  0  0  0
  -14.8410  -11.2050   -8.2300 C   0  0  0  0  0  0  0  0  0  0  0  0
  -14.7840  -10.0780   -7.4120 C   0  0  0  0  0  0  0  0  0  0  0  0
  -13.5510   -9.5880   -6.9840 C   0  0  0  0  0  0  0  0  0  0  0  0
  -12.3690  -10.2290   -7.3670 C   0  0  0  0  0  0  0  0  0  0  0  0
  -11.2630  -13.4710   -9.1480 C   0  0  0  0  0  0  0  0  0  0  0  0
  -11.9000  -14.3850   -8.3770 N   0  0  0  0  0  0  0  0  0  0  0  0
  -12.0250  -15.6400   -8.8140 C   0  0  0  0  0  0  0  0  0  0  0  0
  -12.6640  -16.5560   -8.0310 N   0  0  0  0  0  0  0  0  0  0  0  0
  -14.0940  -16.6910   -8.0400 C   0  0  0  0  0  0  0  0  0  0  0  0
  -14.5930  -16.8790   -6.6360 C   0  0  0  0  0  0  0  0  0  0  0  0
  -13.7140  -17.0750   -5.5670 C   0  0  0  0  0  0  0  0  0  0  0  0
  -14.2160  -17.2260   -4.2770 C   0  0  0  0  0  0  0  0  0  0  0  0
  -15.5890  -17.1710   -4.0990 C   0  0  0  0  0  0  0  0  0  0  0  0
  -16.4690  -16.9740   -5.1030 N   0  0  0  0  0  0  0  0  0  0  0  0
  -15.9530  -16.8280   -6.3440 C   0  0  0  0  0  0  0  0  0  0  0  0
  -11.5610  -16.0870   -9.9750 N   0  0  0  0  0  0  0  0  0  0  0  0
  -10.9270  -15.1820  -10.7540 C   0  0  0  0  0  0  0  0  0  0  0  0
  -10.3630  -15.4680  -12.0320 C   0  0  0  0  0  0  0  0  0  0  0  0
   -9.7710  -14.3640  -12.6010 C   0  0  0  0  0  0  0  0  0  0  0  0
   -9.8910  -12.9920  -11.5950 S   0  0  0  0  0  0  0  0  0  0  0  0
  -10.7540  -13.8520  -10.3810 C   0  0  0  0  0  0  0  0  0  0  0  0
  -13.7116  -12.7297   -9.2706 H   0  0  0  0  0  0  0  0  0  0  0  0
  -15.8139  -11.5883   -8.5713 H   0  0  0  0  0  0  0  0  0  0  0  0
  -15.7124   -9.5749   -7.1039 H   0  0  0  0  0  0  0  0  0  0  0  0
  -13.5080   -8.6948   -6.3434 H   0  0  0  0  0  0  0  0  0  0  0  0
  -11.3974   -9.8348   -7.0344 H   0  0  0  0  0  0  0  0  0  0  0  0
  -12.0740  -17.1690   -7.4900 H   0  0  0  0  0  0  0  0  0  0  0  0
  -14.5443  -15.7841   -8.4698 H   0  0  0  0  0  0  0  0  0  0  0  0
  -14.3738  -17.5651   -8.6464 H   0  0  0  0  0  0  0  0  0  0  0  0
  -12.6289  -17.1099   -5.7443 H   0  0  0  0  0  0  0  0  0  0  0  0
  -13.5412  -17.3846   -3.4229 H   0  0  0  0  0  0  0  0  0  0  0  0
  -15.9847  -17.2951   -3.0802 H   0  0  0  0  0  0  0  0  0  0  0  0
  -16.6524  -16.6581   -7.1759 H   0  0  0  0  0  0  0  0  0  0  0  0
  -10.3973  -16.4587  -12.5088 H   0  0  0  0  0  0  0  0  0  0  0  0
   -9.2799  -14.3660  -13.5853 H   0  0  0  0  0  0  0  0  0  0  0  0
  1  2  2  0
  2  3  1  0
  3  4  2  0
  4  5  1  0
  5  6  2  0
  6  7  1  0
  7  8  2  0
  2  9  1  0
  9 10  2  0
 10 11  1  0
 11 12  1  0
 12 13  1  0
 13 14  1  0
 14 15  2  0
 15 16  1  0
 16 17  2  0
 17 18  1  0
 18 19  2  0
 11 20  2  0
 20 21  1  0
 21 22  1  0
 22 23  2  0
 23 24  1  0
 24 25  1  0
  8  3  1  0
 25  9  1  0
 19 14  1  0
 25 21  2  0
  4 26  1  0
  5 27  1  0
  6 28  1  0
  7 29  1  0
  8 30  1  0
 12 31  1  0
 13 32  1  0
 13 33  1  0
 15 34  1  0
 16 35  1  0
 17 36  1  0
 19 37  1  0
 22 38  1  0
 23 39  1  0
M  END
>  <meeko>  (2) 
{"is_sidechain": [false], "free_energy": -7.213, "intermolecular_energy": -9.646, "internal_energy": -0.41}

$$$$
LIB_NJLNJHCKQVRQDL__M_PUB_ALL__e8__s20260927
     RDKit          3D

 39 42  0  0  0  0  0  0  0  0999 V2000
   -5.1830  -13.1670    1.1030 O   0  0  0  0  0  0  0  0  0  0  0  0
   -4.0140  -13.2140    1.4770 C   0  0  0  0  0  0  0  0  0  0  0  0
   -3.2210  -11.9530    1.5040 C   0  0  0  0  0  0  0  0  0  0  0  0
   -2.6190  -11.5750    2.7120 C   0  0  0  0  0  0  0  0  0  0  0  0
   -1.8800  -10.3940    2.7920 C   0  0  0  0  0  0  0  0  0  0  0  0
   -1.7490   -9.5770    1.6700 C   0  0  0  0  0  0  0  0  0  0  0  0
   -2.3610   -9.9360    0.4700 C   0  0  0  0  0  0  0  0  0  0  0  0
   -3.1020  -11.1190    0.3850 C   0  0  0  0  0  0  0  0  0  0  0  0
   -3.4200  -14.4990    1.9180 C   0  0  0  0  0  0  0  0  0  0  0  0
   -3.8460  -14.9990    3.1030 N   0  0  0  0  0  0  0  0  0  0  0  0
   -3.3710  -16.1720    3.5290 C   0  0  0  0  0  0  0  0  0  0  0  0
   -3.8020  -16.6680    4.7250 N   0  0  0  0  0  0  0  0  0  0  0  0
   -5.1990  -16.7480    5.0500 C   0  0  0  0  0  0  0  0  0  0  0  0
   -5.4880  -15.8870    6.2460 C   0  0  0  0  0  0  0  0  0  0  0  0
   -6.4620  -14.8840    6.2080 C   0  0  0  0  0  0  0  0  0  0  0  0
   -6.7120  -14.1210    7.3450 C   0  0  0  0  0  0  0  0  0  0  0  0
   -5.9800  -14.3910    8.4900 C   0  0  0  0  0  0  0  0  0  0  0  0
   -5.0400  -15.3550    8.5690 N   0  0  0  0  0  0  0  0  0  0  0  0
   -4.8190  -16.0830    7.4510 C   0  0  0  0  0  0  0  0  0  0  0  0
   -2.4860  -16.9140    2.8740 N   0  0  0  0  0  0  0  0  0  0  0  0
   -2.0580  -16.4260    1.6880 C   0  0  0  0  0  0  0  0  0  0  0  0
   -1.1130  -17.0740    0.8390 C   0  0  0  0  0  0  0  0  0  0  0  0
   -0.8510  -16.3500   -0.3010 C   0  0  0  0  0  0  0  0  0  0  0  0
   -1.7360  -14.8930   -0.3440 S   0  0  0  0  0  0  0  0  0  0  0  0
   -2.5000  -15.2140    1.1650 C   0  0  0  0  0  0  0  0  0  0  0  0
   -2.7297  -12.2126    3.6015 H   0  0  0  0  0  0  0  0  0  0  0  0
   -1.4010  -10.1078    3.7400 H   0  0  0  0  0  0  0  0  0  0  0  0
   -1.1624   -8.6485    1.7316 H   0  0  0  0  0  0  0  0  0  0  0  0
   -2.2608   -9.2870   -0.4125 H   0  0  0  0  0  0  0  0  0  0  0  0
   -3.5915  -11.3946   -0.5608 H   0  0  0  0  0  0  0  0  0  0  0  0
   -3.0890  -17.0270    5.3400 H   0  0  0  0  0  0  0  0  0  0  0  0
   -5.7946  -16.3976    4.1942 H   0  0  0  0  0  0  0  0  0  0  0  0
   -5.4617  -17.7914    5.2789 H   0  0  0  0  0  0  0  0  0  0  0  0
   -7.0282  -14.6989    5.2833 H   0  0  0  0  0  0  0  0  0  0  0  0
   -7.4707  -13.3246    7.3348 H   0  0  0  0  0  0  0  0  0  0  0  0
   -6.1768  -13.7842    9.3862 H   0  0  0  0  0  0  0  0  0  0  0  0
   -4.0628  -16.8805    7.4966 H   0  0  0  0  0  0  0  0  0  0  0  0
   -0.6464  -18.0431    1.0696 H   0  0  0  0  0  0  0  0  0  0  0  0
   -0.1548  -16.6720   -1.0895 H   0  0  0  0  0  0  0  0  0  0  0  0
  1  2  2  0
  2  3  1  0
  3  4  2  0
  4  5  1  0
  5  6  2  0
  6  7  1  0
  7  8  2  0
  2  9  1  0
  9 10  2  0
 10 11  1  0
 11 12  1  0
 12 13  1  0
 13 14  1  0
 14 15  2  0
 15 16  1  0
 16 17  2  0
 17 18  1  0
 18 19  2  0
 11 20  2  0
 20 21  1  0
 21 22  1  0
 22 23  2  0
 23 24  1  0
 24 25  1  0
  8  3  1  0
 25  9  1  0
 19 14  1  0
 25 21  2  0
  4 26  1  0
  5 27  1  0
  6 28  1  0
  7 29  1  0
  8 30  1  0
 12 31  1  0
 13 32  1  0
 13 33  1  0
 15 34  1  0
 16 35  1  0
 17 36  1  0
 19 37  1  0
 22 38  1  0
 23 39  1  0
M  END
>  <meeko>  (3) 
{"is_sidechain": [false], "free_energy": -7.139, "intermolecular_energy": -9.129, "internal_energy": -0.83}

$$$$
LIB_NJLNJHCKQVRQDL__M_PUB_ALL__e8__s20260927
     RDKit          3D

 39 42  0  0  0  0  0  0  0  0999 V2000
  -15.4090  -18.2130   -9.2010 O   0  0  0  0  0  0  0  0  0  0  0  0
  -14.9100  -17.2300   -8.6580 C   0  0  0  0  0  0  0  0  0  0  0  0
  -14.9650  -17.1290   -7.1730 C   0  0  0  0  0  0  0  0  0  0  0  0
  -13.7570  -17.1520   -6.4620 C   0  0  0  0  0  0  0  0  0  0  0  0
  -13.7580  -17.0760   -5.0690 C   0  0  0  0  0  0  0  0  0  0  0  0
  -14.9650  -16.9910   -4.3760 C   0  0  0  0  0  0  0  0  0  0  0  0
  -16.1710  -16.9870   -5.0750 C   0  0  0  0  0  0  0  0  0  0  0  0
  -16.1750  -17.0620   -6.4710 C   0  0  0  0  0  0  0  0  0  0  0  0
  -14.2420  -16.1850   -9.4700 C   0  0  0  0  0  0  0  0  0  0  0  0
  -12.9210  -16.3510   -9.7210 N   0  0  0  0  0  0  0  0  0  0  0  0
  -12.2800  -15.4600  -10.4790 C   0  0  0  0  0  0  0  0  0  0  0  0
  -10.9480  -15.6310  -10.7250 N   0  0  0  0  0  0  0  0  0  0  0  0
   -9.9560  -14.7790  -10.1320 C   0  0  0  0  0  0  0  0  0  0  0  0
   -9.2710  -15.5070   -9.0110 C   0  0  0  0  0  0  0  0  0  0  0  0
   -7.9610  -15.9790   -9.1360 C   0  0  0  0  0  0  0  0  0  0  0  0
   -7.3560  -16.6330   -8.0660 C   0  0  0  0  0  0  0  0  0  0  0  0
   -8.0840  -16.7880   -6.8980 C   0  0  0  0  0  0  0  0  0  0  0  0
   -9.3450  -16.3380   -6.7340 N   0  0  0  0  0  0  0  0  0  0  0  0
   -9.9070  -15.7050   -7.7890 C   0  0  0  0  0  0  0  0  0  0  0  0
  -12.8400  -14.3860  -11.0240 N   0  0  0  0  0  0  0  0  0  0  0  0
  -14.1590  -14.2130  -10.7830 C   0  0  0  0  0  0  0  0  0  0  0  0
  -14.9370  -13.1260  -11.2790 C   0  0  0  0  0  0  0  0  0  0  0  0
  -16.2500  -13.1930  -10.8730 C   0  0  0  0  0  0  0  0  0  0  0  0
  -16.5400  -14.5580   -9.8920 S   0  0  0  0  0  0  0  0  0  0  0  0
  -14.9080  -15.0930  -10.0070 C   0  0  0  0  0  0  0  0  0  0  0  0
  -12.8037  -17.2304   -7.0051 H   0  0  0  0  0  0  0  0  0  0  0  0
  -12.8064  -17.0831   -4.5172 H   0  0  0  0  0  0  0  0  0  0  0  0
  -14.9655  -16.9271   -3.2779 H   0  0  0  0  0  0  0  0  0  0  0  0
  -17.1225  -16.9246   -4.5265 H   0  0  0  0  0  0  0  0  0  0  0  0
  -17.1291  -17.0684   -7.0184 H   0  0  0  0  0  0  0  0  0  0  0  0
  -10.7000  -16.4220  -11.3000 H   0  0  0  0  0  0  0  0  0  0  0  0
   -9.2135  -14.4971  -10.8930 H   0  0  0  0  0  0  0  0  0  0  0  0
  -10.4408  -13.8740   -9.7372 H   0  0  0  0  0  0  0  0  0  0  0  0
   -7.4099  -15.8341  -10.0769 H   0  0  0  0  0  0  0  0  0  0  0  0
   -6.3280  -17.0161   -8.1461 H   0  0  0  0  0  0  0  0  0  0  0  0
   -7.6060  -17.3084   -6.0550 H   0  0  0  0  0  0  0  0  0  0  0  0
  -10.9319  -15.3224   -7.6738 H   0  0  0  0  0  0  0  0  0  0  0  0
  -14.5331  -12.3242  -11.9146 H   0  0  0  0  0  0  0  0  0  0  0  0
  -17.0190  -12.4560  -11.1476 H   0  0  0  0  0  0  0  0  0  0  0  0
  1  2  2  0
  2  3  1  0
  3  4  2  0
  4  5  1  0
  5  6  2  0
  6  7  1  0
  7  8  2  0
  2  9  1  0
  9 10  2  0
 10 11  1  0
 11 12  1  0
 12 13  1  0
 13 14  1  0
 14 15  2  0
 15 16  1  0
 16 17  2  0
 17 18  1  0
 18 19  2  0
 11 20  2  0
 20 21  1  0
 21 22  1  0
 22 23  2  0
 23 24  1  0
 24 25  1  0
  8  3  1  0
 25  9  1  0
 19 14  1  0
 25 21  2  0
  4 26  1  0
  5 27  1  0
  6 28  1  0
  7 29  1  0
  8 30  1  0
 12 31  1  0
 13 32  1  0
 13 33  1  0
 15 34  1  0
 16 35  1  0
 17 36  1  0
 19 37  1  0
 22 38  1  0
 23 39  1  0
M  END
>  <meeko>  (4) 
{"is_sidechain": [false], "free_energy": -7.011, "intermolecular_energy": -8.968, "internal_energy": -0.826}

$$$$
LIB_NJLNJHCKQVRQDL__M_PUB_ALL__e8__s20260927
     RDKit          3D

 39 42  0  0  0  0  0  0  0  0999 V2000
   -0.2310  -12.1990    2.0710 O   0  0  0  0  0  0  0  0  0  0  0  0
   -0.8000  -12.7080    1.1090 C   0  0  0  0  0  0  0  0  0  0  0  0
   -1.9990  -12.0260    0.5460 C   0  0  0  0  0  0  0  0  0  0  0  0
   -3.0970  -12.8140    0.1770 C   0  0  0  0  0  0  0  0  0  0  0  0
   -4.2370  -12.2230   -0.3700 C   0  0  0  0  0  0  0  0  0  0  0  0
   -4.2820  -10.8430   -0.5640 C   0  0  0  0  0  0  0  0  0  0  0  0
   -3.1860  -10.0540   -0.2170 C   0  0  0  0  0  0  0  0  0  0  0  0
   -2.0420  -10.6420    0.3320 C   0  0  0  0  0  0  0  0  0  0  0  0
   -0.2820  -13.9600    0.5080 C   0  0  0  0  0  0  0  0  0  0  0  0
    0.5450  -13.8340   -0.5580 N   0  0  0  0  0  0  0  0  0  0  0  0
    1.0710  -14.9280   -1.1140 C   0  0  0  0  0  0  0  0  0  0  0  0
    1.9000  -14.7940   -2.1900 N   0  0  0  0  0  0  0  0  0  0  0  0
    1.4190  -14.3280   -3.4600 C   0  0  0  0  0  0  0  0  0  0  0  0
    2.2600  -13.1740   -3.9260 C   0  0  0  0  0  0  0  0  0  0  0  0
    2.1750  -11.9150   -3.3240 C   0  0  0  0  0  0  0  0  0  0  0  0
    2.9870  -10.8770   -3.7740 C   0  0  0  0  0  0  0  0  0  0  0  0
    3.8660  -11.1370   -4.8120 C   0  0  0  0  0  0  0  0  0  0  0  0
    3.9850  -12.3400   -5.4120 N   0  0  0  0  0  0  0  0  0  0  0  0
    3.1860  -13.3300   -4.9530 C   0  0  0  0  0  0  0  0  0  0  0  0
    0.8440  -16.1700   -0.7030 N   0  0  0  0  0  0  0  0  0  0  0  0
    0.0230  -16.3060    0.3620 C   0  0  0  0  0  0  0  0  0  0  0  0
   -0.3400  -17.5540    0.9510 C   0  0  0  0  0  0  0  0  0  0  0  0
   -1.1950  -17.4000    2.0170 C   0  0  0  0  0  0  0  0  0  0  0  0
   -1.5630  -15.7590    2.3030 S   0  0  0  0  0  0  0  0  0  0  0  0
   -0.5670  -15.2220    1.0060 C   0  0  0  0  0  0  0  0  0  0  0  0
   -3.0605  -13.9042    0.3191 H   0  0  0  0  0  0  0  0  0  0  0  0
   -5.0999  -12.8459   -0.6480 H   0  0  0  0  0  0  0  0  0  0  0  0
   -5.1822  -10.3767   -0.9908 H   0  0  0  0  0  0  0  0  0  0  0  0
   -3.2213   -8.9660   -0.3755 H   0  0  0  0  0  0  0  0  0  0  0  0
   -1.1756  -10.0177    0.5959 H   0  0  0  0  0  0  0  0  0  0  0  0
    2.8760  -14.9870   -2.0250 H   0  0  0  0  0  0  0  0  0  0  0  0
    1.4778  -15.1440   -4.1953 H   0  0  0  0  0  0  0  0  0  0  0  0
    0.3743  -13.9996   -3.3563 H   0  0  0  0  0  0  0  0  0  0  0  0
    1.4691  -11.7449   -2.4977 H   0  0  0  0  0  0  0  0  0  0  0  0
    2.9317   -9.8778   -3.3174 H   0  0  0  0  0  0  0  0  0  0  0  0
    4.5044  -10.3151   -5.1682 H   0  0  0  0  0  0  0  0  0  0  0  0
    3.2737  -14.3215   -5.4212 H   0  0  0  0  0  0  0  0  0  0  0  0
    0.0229  -18.5287    0.5929 H   0  0  0  0  0  0  0  0  0  0  0  0
   -1.5935  -18.2341    2.6132 H   0  0  0  0  0  0  0  0  0  0  0  0
  1  2  2  0
  2  3  1  0
  3  4  2  0
  4  5  1  0
  5  6  2  0
  6  7  1  0
  7  8  2  0
  2  9  1  0
  9 10  2  0
 10 11  1  0
 11 12  1  0
 12 13  1  0
 13 14  1  0
 14 15  2  0
 15 16  1  0
 16 17  2  0
 17 18  1  0
 18 19  2  0
 11 20  2  0
 20 21  1  0
 21 22  1  0
 22 23  2  0
 23 24  1  0
 24 25  1  0
  8  3  1  0
 25  9  1  0
 19 14  1  0
 25 21  2  0
  4 26  1  0
  5 27  1  0
  6 28  1  0
  7 29  1  0
  8 30  1  0
 12 31  1  0
 13 32  1  0
 13 33  1  0
 15 34  1  0
 16 35  1  0
 17 36  1  0
 19 37  1  0
 22 38  1  0
 23 39  1  0
M  END
>  <meeko>  (5) 
{"is_sidechain": [false], "free_energy": -6.93, "intermolecular_energy": -8.859, "internal_energy": -0.831}

$$$$
LIB_NJLNJHCKQVRQDL__M_PUB_ALL__e8__s20260927
     RDKit          3D

 39 42  0  0  0  0  0  0  0  0999 V2000
   -3.6490  -13.2390   -0.0490 O   0  0  0  0  0  0  0  0  0  0  0  0
   -2.5310  -13.0970    0.4410 C   0  0  0  0  0  0  0  0  0  0  0  0
   -2.2670  -11.8960    1.2820 C   0  0  0  0  0  0  0  0  0  0  0  0
   -2.5070  -10.6320    0.7260 C   0  0  0  0  0  0  0  0  0  0  0  0
   -2.2600   -9.4770    1.4690 C   0  0  0  0  0  0  0  0  0  0  0  0
   -1.7590   -9.5770    2.7660 C   0  0  0  0  0  0  0  0  0  0  0  0
   -1.4990  -10.8300    3.3200 C   0  0  0  0  0  0  0  0  0  0  0  0
   -1.7460  -11.9900    2.5790 C   0  0  0  0  0  0  0  0  0  0  0  0
   -1.4800  -14.1190    0.2180 C   0  0  0  0  0  0  0  0  0  0  0  0
   -0.4440  -13.7720   -0.5830 N   0  0  0  0  0  0  0  0  0  0  0  0
    0.5480  -14.6410   -0.7870 C   0  0  0  0  0  0  0  0  0  0  0  0
    1.5860  -14.2860   -1.5980 N   0  0  0  0  0  0  0  0  0  0  0  0
    1.4560  -14.2710   -3.0280 C   0  0  0  0  0  0  0  0  0  0  0  0
    2.1990  -13.0930   -3.5900 C   0  0  0  0  0  0  0  0  0  0  0  0
    2.1260  -11.8300   -2.9960 C   0  0  0  0  0  0  0  0  0  0  0  0
    2.8460  -10.7680   -3.5380 C   0  0  0  0  0  0  0  0  0  0  0  0
    3.6240  -11.0090   -4.6590 C   0  0  0  0  0  0  0  0  0  0  0  0
    3.7280  -12.2150   -5.2550 N   0  0  0  0  0  0  0  0  0  0  0  0
    3.0200  -13.2280   -4.7060 C   0  0  0  0  0  0  0  0  0  0  0  0
    0.6090  -15.8580   -0.2590 N   0  0  0  0  0  0  0  0  0  0  0  0
   -0.4170  -16.2120    0.5460 C   0  0  0  0  0  0  0  0  0  0  0  0
   -0.5320  -17.4720    1.2050 C   0  0  0  0  0  0  0  0  0  0  0  0
   -1.6820  -17.5680    1.9540 C   0  0  0  0  0  0  0  0  0  0  0  0
   -2.6210  -16.1470    1.8570 S   0  0  0  0  0  0  0  0  0  0  0  0
   -1.4920  -15.3700    0.8170 C   0  0  0  0  0  0  0  0  0  0  0  0
   -2.8920  -10.5501   -0.3012 H   0  0  0  0  0  0  0  0  0  0  0  0
   -2.4606   -8.4879    1.0314 H   0  0  0  0  0  0  0  0  0  0  0  0
   -1.5685   -8.6665    3.3531 H   0  0  0  0  0  0  0  0  0  0  0  0
   -1.0989  -10.9061    4.3418 H   0  0  0  0  0  0  0  0  0  0  0  0
   -1.5311  -12.9768    3.0148 H   0  0  0  0  0  0  0  0  0  0  0  0
    2.4290  -13.9830   -1.1350 H   0  0  0  0  0  0  0  0  0  0  0  0
    1.8746  -15.1996   -3.4432 H   0  0  0  0  0  0  0  0  0  0  0  0
    0.3922  -14.1936   -3.2969 H   0  0  0  0  0  0  0  0  0  0  0  0
    1.5020  -11.6752   -2.1034 H   0  0  0  0  0  0  0  0  0  0  0  0
    2.7983   -9.7652   -3.0884 H   0  0  0  0  0  0  0  0  0  0  0  0
    4.1895  -10.1686   -5.0878 H   0  0  0  0  0  0  0  0  0  0  0  0
    3.0978  -14.2219   -5.1709 H   0  0  0  0  0  0  0  0  0  0  0  0
    0.2144  -18.2759    1.1235 H   0  0  0  0  0  0  0  0  0  0  0  0
   -1.9620  -18.4534    2.5437 H   0  0  0  0  0  0  0  0  0  0  0  0
  1  2  2  0
  2  3  1  0
  3  4  2  0
  4  5  1  0
  5  6  2  0
  6  7  1  0
  7  8  2  0
  2  9  1  0
  9 10  2  0
 10 11  1  0
 11 12  1  0
 12 13  1  0
 13 14  1  0
 14 15  2  0
 15 16  1  0
 16 17  2  0
 17 18  1  0
 18 19  2  0
 11 20  2  0
 20 21  1  0
 21 22  1  0
 22 23  2  0
 23 24  1  0
 24 25  1  0
  8  3  1  0
 25  9  1  0
 19 14  1  0
 25 21  2  0
  4 26  1  0
  5 27  1  0
  6 28  1  0
  7 29  1  0
  8 30  1  0
 12 31  1  0
 13 32  1  0
 13 33  1  0
 15 34  1  0
 16 35  1  0
 17 36  1  0
 19 37  1  0
 22 38  1  0
 23 39  1  0
M  END
>  <meeko>  (6) 
{"is_sidechain": [false], "free_energy": -6.919, "intermolecular_energy": -8.887, "internal_energy": -0.788}

$$$$
LIB_NJLNJHCKQVRQDL__M_PUB_ALL__e8__s20260927
     RDKit          3D

 39 42  0  0  0  0  0  0  0  0999 V2000
   -1.5070  -11.3260    3.4530 O   0  0  0  0  0  0  0  0  0  0  0  0
   -1.4270  -11.8820    2.3610 C   0  0  0  0  0  0  0  0  0  0  0  0
   -2.5690  -11.7590    1.4110 C   0  0  0  0  0  0  0  0  0  0  0  0
   -2.5670  -10.6880    0.5080 C   0  0  0  0  0  0  0  0  0  0  0  0
   -3.6220  -10.5200   -0.3900 C   0  0  0  0  0  0  0  0  0  0  0  0
   -4.6910  -11.4140   -0.3830 C   0  0  0  0  0  0  0  0  0  0  0  0
   -4.7100  -12.4720    0.5250 C   0  0  0  0  0  0  0  0  0  0  0  0
   -3.6550  -12.6440    1.4260 C   0  0  0  0  0  0  0  0  0  0  0  0
   -0.2040  -12.6330    1.9910 C   0  0  0  0  0  0  0  0  0  0  0  0
    0.5390  -12.1360    0.9720 N   0  0  0  0  0  0  0  0  0  0  0  0
    1.6700  -12.7520    0.6230 C   0  0  0  0  0  0  0  0  0  0  0  0
    2.4120  -12.2480   -0.4050 N   0  0  0  0  0  0  0  0  0  0  0  0
    1.8490  -11.3460   -1.3700 C   0  0  0  0  0  0  0  0  0  0  0  0
    2.5140  -11.5510   -2.7010 C   0  0  0  0  0  0  0  0  0  0  0  0
    2.8020  -10.4780   -3.5490 C   0  0  0  0  0  0  0  0  0  0  0  0
    3.4370  -10.7090   -4.7660 C   0  0  0  0  0  0  0  0  0  0  0  0
    3.7700  -12.0130   -5.0940 C   0  0  0  0  0  0  0  0  0  0  0  0
    3.5190  -13.0740   -4.2980 N   0  0  0  0  0  0  0  0  0  0  0  0
    2.9030  -12.8190   -3.1210 C   0  0  0  0  0  0  0  0  0  0  0  0
    2.1450  -13.8490    1.2030 N   0  0  0  0  0  0  0  0  0  0  0  0
    1.4140  -14.3510    2.2230 C   0  0  0  0  0  0  0  0  0  0  0  0
    1.7570  -15.5160    2.9690 C   0  0  0  0  0  0  0  0  0  0  0  0
    0.8310  -15.8060    3.9440 C   0  0  0  0  0  0  0  0  0  0  0  0
   -0.4510  -14.6800    3.9540 S   0  0  0  0  0  0  0  0  0  0  0  0
    0.2240  -13.7730    2.6560 C   0  0  0  0  0  0  0  0  0  0  0  0
   -1.7291   -9.9754    0.5067 H   0  0  0  0  0  0  0  0  0  0  0  0
   -3.6098   -9.6824   -1.1029 H   0  0  0  0  0  0  0  0  0  0  0  0
   -5.5202  -11.2849   -1.0941 H   0  0  0  0  0  0  0  0  0  0  0  0
   -5.5574  -13.1733    0.5324 H   0  0  0  0  0  0  0  0  0  0  0  0
   -3.6776  -13.4745    2.1470 H   0  0  0  0  0  0  0  0  0  0  0  0
    3.3880  -12.5010   -0.4150 H   0  0  0  0  0  0  0  0  0  0  0  0
    0.7705  -11.5397   -1.4662 H   0  0  0  0  0  0  0  0  0  0  0  0
    2.0094  -10.3097   -1.0378 H   0  0  0  0  0  0  0  0  0  0  0  0
    2.5277   -9.4540   -3.2556 H   0  0  0  0  0  0  0  0  0  0  0  0
    3.6682   -9.8783   -5.4490 H   0  0  0  0  0  0  0  0  0  0  0  0
    4.2674  -12.1943   -6.0582 H   0  0  0  0  0  0  0  0  0  0  0  0
    2.6965  -13.6684   -2.4533 H   0  0  0  0  0  0  0  0  0  0  0  0
    2.6607  -16.1158    2.7857 H   0  0  0  0  0  0  0  0  0  0  0  0
    0.9076  -16.6598    4.6333 H   0  0  0  0  0  0  0  0  0  0  0  0
  1  2  2  0
  2  3  1  0
  3  4  2  0
  4  5  1  0
  5  6  2  0
  6  7  1  0
  7  8  2  0
  2  9  1  0
  9 10  2  0
 10 11  1  0
 11 12  1  0
 12 13  1  0
 13 14  1  0
 14 15  2  0
 15 16  1  0
 16 17  2  0
 17 18  1  0
 18 19  2  0
 11 20  2  0
 20 21  1  0
 21 22  1  0
 22 23  2  0
 23 24  1  0
 24 25  1  0
  8  3  1  0
 25  9  1  0
 19 14  1  0
 25 21  2  0
  4 26  1  0
  5 27  1  0
  6 28  1  0
  7 29  1  0
  8 30  1  0
 12 31  1  0
 13 32  1  0
 13 33  1  0
 15 34  1  0
 16 35  1  0
 17 36  1  0
 19 37  1  0
 22 38  1  0
 23 39  1  0
M  END
>  <meeko>  (7) 
{"is_sidechain": [false], "free_energy": -6.886, "intermolecular_energy": -8.999, "internal_energy": -0.633}

$$$$
LIB_NJLNJHCKQVRQDL__M_PUB_ALL__e8__s20260927
     RDKit          3D

 39 42  0  0  0  0  0  0  0  0999 V2000
    3.0180  -12.5980    0.0880 O   0  0  0  0  0  0  0  0  0  0  0  0
    2.2550  -12.9460   -0.8100 C   0  0  0  0  0  0  0  0  0  0  0  0
    2.4640  -12.3940   -2.1780 C   0  0  0  0  0  0  0  0  0  0  0  0
    2.6580  -11.0130   -2.3130 C   0  0  0  0  0  0  0  0  0  0  0  0
    2.8410  -10.4470   -3.5760 C   0  0  0  0  0  0  0  0  0  0  0  0
    2.8190  -11.2550   -4.7110 C   0  0  0  0  0  0  0  0  0  0  0  0
    2.6080  -12.6280   -4.5870 C   0  0  0  0  0  0  0  0  0  0  0  0
    2.4250  -13.1990   -3.3240 C   0  0  0  0  0  0  0  0  0  0  0  0
    1.1690  -13.9170   -0.5360 C   0  0  0  0  0  0  0  0  0  0  0  0
   -0.0610  -13.4090   -0.2810 N   0  0  0  0  0  0  0  0  0  0  0  0
   -1.0830  -14.2400   -0.0650 C   0  0  0  0  0  0  0  0  0  0  0  0
   -2.3180  -13.7220    0.1940 N   0  0  0  0  0  0  0  0  0  0  0  0
   -2.7280  -13.3800    1.5280 C   0  0  0  0  0  0  0  0  0  0  0  0
   -2.4560  -11.9240    1.7810 C   0  0  0  0  0  0  0  0  0  0  0  0
   -1.8450  -11.4880    2.9590 C   0  0  0  0  0  0  0  0  0  0  0  0
   -1.5930  -10.1310    3.1460 C   0  0  0  0  0  0  0  0  0  0  0  0
   -1.9600   -9.2520    2.1400 C   0  0  0  0  0  0  0  0  0  0  0  0
   -2.5420   -9.6350    0.9850 N   0  0  0  0  0  0  0  0  0  0  0  0
   -2.7720  -10.9590    0.8290 C   0  0  0  0  0  0  0  0  0  0  0  0
   -0.9960  -15.5650   -0.0740 N   0  0  0  0  0  0  0  0  0  0  0  0
    0.2260  -16.0820   -0.3310 C   0  0  0  0  0  0  0  0  0  0  0  0
    0.5210  -17.4770   -0.3860 C   0  0  0  0  0  0  0  0  0  0  0  0
    1.8470  -17.7210   -0.6570 C   0  0  0  0  0  0  0  0  0  0  0  0
    2.7330  -16.2760   -0.8400 S   0  0  0  0  0  0  0  0  0  0  0  0
    1.3470  -15.2920   -0.5710 C   0  0  0  0  0  0  0  0  0  0  0  0
    2.6662  -10.3716   -1.4194 H   0  0  0  0  0  0  0  0  0  0  0  0
    3.0025   -9.3634   -3.6751 H   0  0  0  0  0  0  0  0  0  0  0  0
    2.9682  -10.8096   -5.7056 H   0  0  0  0  0  0  0  0  0  0  0  0
    2.5855  -13.2631   -5.4849 H   0  0  0  0  0  0  0  0  0  0  0  0
    2.2503  -14.2810   -3.2300 H   0  0  0  0  0  0  0  0  0  0  0  0
   -2.9020  -13.5420   -0.6070 H   0  0  0  0  0  0  0  0  0  0  0  0
   -3.8043  -13.5766    1.6420 H   0  0  0  0  0  0  0  0  0  0  0  0
   -2.1642  -13.9880    2.2508 H   0  0  0  0  0  0  0  0  0  0  0  0
   -1.5638  -12.2138    3.7363 H   0  0  0  0  0  0  0  0  0  0  0  0
   -1.1154   -9.7670    4.0676 H   0  0  0  0  0  0  0  0  0  0  0  0
   -1.7656   -8.1800    2.2919 H   0  0  0  0  0  0  0  0  0  0  0  0
   -3.2381  -11.2940   -0.1093 H   0  0  0  0  0  0  0  0  0  0  0  0
   -0.2275  -18.2677   -0.2294 H   0  0  0  0  0  0  0  0  0  0  0  0
    2.2832  -18.7270   -0.7450 H   0  0  0  0  0  0  0  0  0  0  0  0
  1  2  2  0
  2  3  1  0
  3  4  2  0
  4  5  1  0
  5  6  2  0
  6  7  1  0
  7  8  2  0
  2  9  1  0
  9 10  2  0
 10 11  1  0
 11 12  1  0
 12 13  1  0
 13 14  1  0
 14 15  2  0
 15 16  1  0
 16 17  2  0
 17 18  1  0
 18 19  2  0
 11 20  2  0
 20 21  1  0
 21 22  1  0
 22 23  2  0
 23 24  1  0
 24 25  1  0
  8  3  1  0
 25  9  1  0
 19 14  1  0
 25 21  2  0
  4 26  1  0
  5 27  1  0
  6 28  1  0
  7 29  1  0
  8 30  1  0
 12 31  1  0
 13 32  1  0
 13 33  1  0
 15 34  1  0
 16 35  1  0
 17 36  1  0
 19 37  1  0
 22 38  1  0
 23 39  1  0
M  END
>  <meeko>  (8) 
{"is_sidechain": [false], "free_energy": -6.791, "intermolecular_energy": -8.633, "internal_energy": -0.877}

$$$$
LIB_NJLNJHCKQVRQDL__M_PUB_ALL__e8__s20260927
     RDKit          3D

 39 42  0  0  0  0  0  0  0  0999 V2000
   -4.4030  -18.0460    4.5310 O   0  0  0  0  0  0  0  0  0  0  0  0
   -4.0920  -16.9040    4.8610 C   0  0  0  0  0  0  0  0  0  0  0  0
   -5.0400  -16.1220    5.7030 C   0  0  0  0  0  0  0  0  0  0  0  0
   -5.9140  -15.2320    5.0640 C   0  0  0  0  0  0  0  0  0  0  0  0
   -6.8100  -14.4650    5.8110 C   0  0  0  0  0  0  0  0  0  0  0  0
   -6.8280  -14.5720    7.2000 C   0  0  0  0  0  0  0  0  0  0  0  0
   -5.9480  -15.4410    7.8450 C   0  0  0  0  0  0  0  0  0  0  0  0
   -5.0500  -16.2120    7.1000 C   0  0  0  0  0  0  0  0  0  0  0  0
   -2.7870  -16.3340    4.4490 C   0  0  0  0  0  0  0  0  0  0  0  0
   -2.7440  -15.6950    3.2550 N   0  0  0  0  0  0  0  0  0  0  0  0
   -1.6030  -15.1310    2.8540 C   0  0  0  0  0  0  0  0  0  0  0  0
   -1.5650  -14.4920    1.6490 N   0  0  0  0  0  0  0  0  0  0  0  0
   -1.1370  -13.1260    1.5320 C   0  0  0  0  0  0  0  0  0  0  0  0
   -2.1870  -12.3280    0.8130 C   0  0  0  0  0  0  0  0  0  0  0  0
   -2.0240  -10.9620    0.5610 C   0  0  0  0  0  0  0  0  0  0  0  0
   -3.0140  -10.2630   -0.1250 C   0  0  0  0  0  0  0  0  0  0  0  0
   -4.1370  -10.9590   -0.5430 C   0  0  0  0  0  0  0  0  0  0  0  0
   -4.3260  -12.2770   -0.3280 N   0  0  0  0  0  0  0  0  0  0  0  0
   -3.3480  -12.9310    0.3390 C   0  0  0  0  0  0  0  0  0  0  0  0
   -0.4680  -15.1440    3.5430 N   0  0  0  0  0  0  0  0  0  0  0  0
   -0.5020  -15.7750    4.7380 C   0  0  0  0  0  0  0  0  0  0  0  0
    0.6110  -15.8950    5.6220 C   0  0  0  0  0  0  0  0  0  0  0  0
    0.2980  -16.5950    6.7640 C   0  0  0  0  0  0  0  0  0  0  0  0
   -1.3280  -17.1100    6.7670 S   0  0  0  0  0  0  0  0  0  0  0  0
   -1.6470  -16.3890    5.2370 C   0  0  0  0  0  0  0  0  0  0  0  0
   -5.8939  -15.1373    3.9683 H   0  0  0  0  0  0  0  0  0  0  0  0
   -7.5014  -13.7765    5.3031 H   0  0  0  0  0  0  0  0  0  0  0  0
   -7.5367  -13.9707    7.7884 H   0  0  0  0  0  0  0  0  0  0  0  0
   -5.9604  -15.5201    8.9421 H   0  0  0  0  0  0  0  0  0  0  0  0
   -4.3510  -16.8896    7.6121 H   0  0  0  0  0  0  0  0  0  0  0  0
   -1.8000  -15.0490    0.8420 H   0  0  0  0  0  0  0  0  0  0  0  0
   -0.9804  -12.7043    2.5358 H   0  0  0  0  0  0  0  0  0  0  0  0
   -0.1956  -13.0858    0.9644 H   0  0  0  0  0  0  0  0  0  0  0  0
   -1.1173  -10.4418    0.9034 H   0  0  0  0  0  0  0  0  0  0  0  0
   -2.9074   -9.1874   -0.3295 H   0  0  0  0  0  0  0  0  0  0  0  0
   -4.9197  -10.4044   -1.0814 H   0  0  0  0  0  0  0  0  0  0  0  0
   -3.4787  -14.0084    0.5182 H   0  0  0  0  0  0  0  0  0  0  0  0
    1.6064  -15.4755    5.4141 H   0  0  0  0  0  0  0  0  0  0  0  0
    1.0104  -16.7981    7.5772 H   0  0  0  0  0  0  0  0  0  0  0  0
  1  2  2  0
  2  3  1  0
  3  4  2  0
  4  5  1  0
  5  6  2  0
  6  7  1  0
  7  8  2  0
  2  9  1  0
  9 10  2  0
 10 11  1  0
 11 12  1  0
 12 13  1  0
 13 14  1  0
 14 15  2  0
 15 16  1  0
 16 17  2  0
 17 18  1  0
 18 19  2  0
 11 20  2  0
 20 21  1  0
 21 22  1  0
 22 23  2  0
 23 24  1  0
 24 25  1  0
  8  3  1  0
 25  9  1  0
 19 14  1  0
 25 21  2  0
  4 26  1  0
  5 27  1  0
  6 28  1  0
  7 29  1  0
  8 30  1  0
 12 31  1  0
 13 32  1  0
 13 33  1  0
 15 34  1  0
 16 35  1  0
 17 36  1  0
 19 37  1  0
 22 38  1  0
 23 39  1  0
M  END
>  <meeko>  (9) 
{"is_sidechain": [false], "free_energy": -6.75, "intermolecular_energy": -8.616, "internal_energy": -0.84}

$$$$
