LIB_CDOPZZJFMUYVKP__M_PUB_ALL__e8__s20260927
     RDKit          3D

 51 53  0  0  0  0  0  0  0  0999 V2000
   12.9670  -14.4710  -11.7490 C   0  0  0  0  0  0  0  0  0  0  0  0
   13.5160  -13.6060  -10.6020 C   0  0  0  0  0  0  0  0  0  0  0  0
   14.4810  -12.5560  -11.1770 C   0  0  0  0  0  0  0  0  0  0  0  0
   14.2780  -14.5090   -9.6180 C   0  0  0  0  0  0  0  0  0  0  0  0
   12.3570  -12.8810   -9.8770 C   0  0  0  0  0  0  0  0  0  0  0  0
   12.2390  -11.5440  -10.3730 O   0  0  0  0  0  0  0  0  0  0  0  0
   10.9830  -11.2320  -10.8540 C   0  0  0  0  0  0  0  0  0  0  0  0
   10.0700  -12.2220  -10.9820 N   0  0  0  0  0  0  0  0  0  0  0  0
    8.8270  -11.8920  -11.4360 C   0  0  0  0  0  0  0  0  0  0  0  0
    7.7840  -12.9860  -11.6060 C   0  0  0  0  0  0  0  0  0  0  0  0
    8.0530  -14.1300  -10.9130 F   0  0  0  0  0  0  0  0  0  0  0  0
    6.5370  -12.5990  -11.2030 F   0  0  0  0  0  0  0  0  0  0  0  0
    7.6380  -13.3690  -12.9100 F   0  0  0  0  0  0  0  0  0  0  0  0
    8.4960  -10.5840  -11.7830 C   0  0  0  0  0  0  0  0  0  0  0  0
    9.4590   -9.5870  -11.6540 C   0  0  0  0  0  0  0  0  0  0  0  0
   10.7380   -9.9030  -11.1840 C   0  0  0  0  0  0  0  0  0  0  0  0
   11.7750   -8.8260  -11.0320 C   0  0  0  0  0  0  0  0  0  0  0  0
   11.5590   -7.7510  -11.9710 N   0  0  0  0  0  0  0  0  0  0  0  0
   11.8700   -6.4410  -11.6780 C   0  0  0  0  0  0  0  0  0  0  0  0
   12.3520   -6.1180  -10.5990 O   0  0  0  0  0  0  0  0  0  0  0  0
   11.5740   -5.6130  -12.7310 N   0  0  0  0  0  0  0  0  0  0  0  0
   11.7550   -4.2190  -12.8200 C   0  0  0  0  0  0  0  0  0  0  0  0
   13.0020   -3.5740  -12.8650 C   0  0  0  0  0  0  0  0  0  0  0  0
   13.1080   -2.1720  -12.9540 C   0  0  0  0  0  0  0  0  0  0  0  0
   11.9770   -1.3530  -13.0040 C   0  0  0  0  0  0  0  0  0  0  0  0
   10.7190   -1.9740  -12.9610 C   0  0  0  0  0  0  0  0  0  0  0  0
    9.4810   -1.4300  -12.9920 N   0  0  0  0  0  0  0  0  0  0  0  0
    8.5840   -2.4370  -12.9250 N   0  0  0  0  0  0  0  0  0  0  0  0
    9.2930   -3.5740  -12.8540 C   0  0  0  0  0  0  0  0  0  0  0  0
   10.6490   -3.3660  -12.8710 C   0  0  0  0  0  0  0  0  0  0  0  0
   12.4216  -15.3303  -11.3316 H   0  0  0  0  0  0  0  0  0  0  0  0
   12.2850  -13.8694  -12.3679 H   0  0  0  0  0  0  0  0  0  0  0  0
   13.8017  -14.8320  -12.3679 H   0  0  0  0  0  0  0  0  0  0  0  0
   14.9735  -12.0201  -10.3523 H   0  0  0  0  0  0  0  0  0  0  0  0
   15.2412  -13.0561  -11.7950 H   0  0  0  0  0  0  0  0  0  0  0  0
   13.9186  -11.8406  -11.7950 H   0  0  0  0  0  0  0  0  0  0  0  0
   14.0317  -14.2171   -8.5864 H   0  0  0  0  0  0  0  0  0  0  0  0
   13.9873  -15.5572   -9.7818 H   0  0  0  0  0  0  0  0  0  0  0  0
   15.3601  -14.3987   -9.7818 H   0  0  0  0  0  0  0  0  0  0  0  0
   11.4168  -13.4225  -10.0582 H   0  0  0  0  0  0  0  0  0  0  0  0
   12.5644  -12.8519   -8.7971 H   0  0  0  0  0  0  0  0  0  0  0  0
    7.4888  -10.3426  -12.1534 H   0  0  0  0  0  0  0  0  0  0  0  0
    9.2137   -8.5488  -11.9222 H   0  0  0  0  0  0  0  0  0  0  0  0
   11.7258   -8.4234  -10.0095 H   0  0  0  0  0  0  0  0  0  0  0  0
   12.7633   -9.2662  -11.2308 H   0  0  0  0  0  0  0  0  0  0  0  0
   11.2200   -7.9850  -12.8910 H   0  0  0  0  0  0  0  0  0  0  0  0
   11.1720   -6.0360  -13.5520 H   0  0  0  0  0  0  0  0  0  0  0  0
   13.9198   -4.1794  -12.8298 H   0  0  0  0  0  0  0  0  0  0  0  0
   14.1061   -1.7105  -12.9849 H   0  0  0  0  0  0  0  0  0  0  0  0
   12.0694   -0.2592  -13.0746 H   0  0  0  0  0  0  0  0  0  0  0  0
    8.8337   -4.5714  -12.7888 H   0  0  0  0  0  0  0  0  0  0  0  0
  1  2  1  0
  2  3  1  0
  2  4  1  0
  2  5  1  0
  5  6  1  0
  6  7  1  0
  7  8  2  0
  8  9  1  0
  9 10  1  0
 10 11  1  0
 10 12  1  0
 10 13  1  0
  9 14  2  0
 14 15  1  0
 15 16  2  0
 16 17  1  0
 17 18  1  0
 18 19  1  0
 19 20  2  0
 19 21  1  0
 21 22  1  0
 22 23  2  0
 23 24  1  0
 24 25  2  0
 25 26  1  0
 26 27  1  0
 27 28  1  0
 28 29  2  0
 29 30  1  0
 16  7  1  0
 30 22  1  0
 30 26  2  0
  1 31  1  0
  1 32  1  0
  1 33  1  0
  3 34  1  0
  3 35  1  0
  3 36  1  0
  4 37  1  0
  4 38  1  0
  4 39  1  0
  5 40  1  0
  5 41  1  0
 14 42  1  0
 15 43  1  0
 17 44  1  0
 17 45  1  0
 18 46  1  0
 21 47  1  0
 23 48  1  0
 24 49  1  0
 25 50  1  0
 29 51  1  0
M  CHG  1  27  -1
M  END
>  <meeko>  (1) 
{"is_sidechain": [false], "free_energy": -8.246, "intermolecular_energy": -11.621, "internal_energy": -0.997}

$$$$
LIB_CDOPZZJFMUYVKP__M_PUB_ALL__e8__s20260927
     RDKit          3D

 51 53  0  0  0  0  0  0  0  0999 V2000
    3.4510  -13.6040   -4.8780 C   0  0  0  0  0  0  0  0  0  0  0  0
    4.4240  -12.4390   -5.1270 C   0  0  0  0  0  0  0  0  0  0  0  0
    5.4540  -12.3870   -3.9870 C   0  0  0  0  0  0  0  0  0  0  0  0
    3.6280  -11.1230   -5.1500 C   0  0  0  0  0  0  0  0  0  0  0  0
    5.1680  -12.6400   -6.4690 C   0  0  0  0  0  0  0  0  0  0  0  0
    6.1050  -13.7130   -6.3440 O   0  0  0  0  0  0  0  0  0  0  0  0
    6.9230  -13.8760   -7.4450 C   0  0  0  0  0  0  0  0  0  0  0  0
    6.4650  -13.4900   -8.6590 N   0  0  0  0  0  0  0  0  0  0  0  0
    7.2940  -13.6360   -9.7320 C   0  0  0  0  0  0  0  0  0  0  0  0
    6.8020  -13.2260  -11.1110 C   0  0  0  0  0  0  0  0  0  0  0  0
    6.7060  -11.8770  -11.2940 F   0  0  0  0  0  0  0  0  0  0  0  0
    7.6090  -13.6740  -12.1190 F   0  0  0  0  0  0  0  0  0  0  0  0
    5.5630  -13.7270  -11.3930 F   0  0  0  0  0  0  0  0  0  0  0  0
    8.5690  -14.1840   -9.6050 C   0  0  0  0  0  0  0  0  0  0  0  0
    9.0090  -14.5860   -8.3470 C   0  0  0  0  0  0  0  0  0  0  0  0
    8.1760  -14.4390   -7.2320 C   0  0  0  0  0  0  0  0  0  0  0  0
    8.6550  -14.8600   -5.8710 C   0  0  0  0  0  0  0  0  0  0  0  0
    9.0800  -13.7220   -5.0880 N   0  0  0  0  0  0  0  0  0  0  0  0
    9.9130  -13.8470   -3.9980 C   0  0  0  0  0  0  0  0  0  0  0  0
   10.3410  -14.9360   -3.6340 O   0  0  0  0  0  0  0  0  0  0  0  0
   10.1700  -12.6260   -3.4280 N   0  0  0  0  0  0  0  0  0  0  0  0
   10.9780  -12.3400   -2.3090 C   0  0  0  0  0  0  0  0  0  0  0  0
   12.3360  -11.9910   -2.3710 C   0  0  0  0  0  0  0  0  0  0  0  0
   13.0850  -11.7180   -1.2090 C   0  0  0  0  0  0  0  0  0  0  0  0
   12.5100  -11.7790    0.0640 C   0  0  0  0  0  0  0  0  0  0  0  0
   11.1530  -12.1260    0.1520 C   0  0  0  0  0  0  0  0  0  0  0  0
   10.3600  -12.2570    1.2390 N   0  0  0  0  0  0  0  0  0  0  0  0
    9.1270  -12.6070    0.8120 N   0  0  0  0  0  0  0  0  0  0  0  0
    9.1940  -12.6810   -0.5250 C   0  0  0  0  0  0  0  0  0  0  0  0
   10.4410  -12.3920   -1.0200 C   0  0  0  0  0  0  0  0  0  0  0  0
    3.3267  -13.7529   -3.7952 H   0  0  0  0  0  0  0  0  0  0  0  0
    2.4759  -13.3704   -5.3303 H   0  0  0  0  0  0  0  0  0  0  0  0
    3.8546  -14.5219   -5.3303 H   0  0  0  0  0  0  0  0  0  0  0  0
    4.9316  -12.4134   -3.0193 H   0  0  0  0  0  0  0  0  0  0  0  0
    6.1290  -13.2522   -4.0630 H   0  0  0  0  0  0  0  0  0  0  0  0
    6.0384  -11.4582   -4.0630 H   0  0  0  0  0  0  0  0  0  0  0  0
    3.4302  -10.7960   -4.1185 H   0  0  0  0  0  0  0  0  0  0  0  0
    4.2108  -10.3511   -5.6740 H   0  0  0  0  0  0  0  0  0  0  0  0
    2.6738  -11.2808   -5.6740 H   0  0  0  0  0  0  0  0  0  0  0  0
    4.4403  -12.8799   -7.2583 H   0  0  0  0  0  0  0  0  0  0  0  0
    5.7046  -11.7160   -6.7302 H   0  0  0  0  0  0  0  0  0  0  0  0
    9.2181  -14.2972  -10.4858 H   0  0  0  0  0  0  0  0  0  0  0  0
   10.0129  -15.0199   -8.2291 H   0  0  0  0  0  0  0  0  0  0  0  0
    7.8351  -15.3707   -5.3448 H   0  0  0  0  0  0  0  0  0  0  0  0
    9.5151  -15.5337   -5.9990 H   0  0  0  0  0  0  0  0  0  0  0  0
    8.7960  -12.8050   -5.3920 H   0  0  0  0  0  0  0  0  0  0  0  0
    9.7320  -11.8210   -3.8440 H   0  0  0  0  0  0  0  0  0  0  0  0
   12.8287  -11.9289   -3.3525 H   0  0  0  0  0  0  0  0  0  0  0  0
   14.1476  -11.4505   -1.3058 H   0  0  0  0  0  0  0  0  0  0  0  0
   13.1012  -11.5624    0.9660 H   0  0  0  0  0  0  0  0  0  0  0  0
    8.3365  -12.9464   -1.1607 H   0  0  0  0  0  0  0  0  0  0  0  0
  1  2  1  0
  2  3  1  0
  2  4  1  0
  2  5  1  0
  5  6  1  0
  6  7  1  0
  7  8  2  0
  8  9  1  0
  9 10  1  0
 10 11  1  0
 10 12  1  0
 10 13  1  0
  9 14  2  0
 14 15  1  0
 15 16  2  0
 16 17  1  0
 17 18  1  0
 18 19  1  0
 19 20  2  0
 19 21  1  0
 21 22  1  0
 22 23  2  0
 23 24  1  0
 24 25  2  0
 25 26  1  0
 26 27  1  0
 27 28  1  0
 28 29  2  0
 29 30  1  0
 16  7  1  0
 30 22  1  0
 30 26  2  0
  1 31  1  0
  1 32  1  0
  1 33  1  0
  3 34  1  0
  3 35  1  0
  3 36  1  0
  4 37  1  0
  4 38  1  0
  4 39  1  0
  5 40  1  0
  5 41  1  0
 14 42  1  0
 15 43  1  0
 17 44  1  0
 17 45  1  0
 18 46  1  0
 21 47  1  0
 23 48  1  0
 24 49  1  0
 25 50  1  0
 29 51  1  0
M  CHG  1  27  -1
M  END
>  <meeko>  (2) 
{"is_sidechain": [false], "free_energy": -7.813, "intermolecular_energy": -10.778, "internal_energy": -1.23}

$$$$
LIB_CDOPZZJFMUYVKP__M_PUB_ALL__e8__s20260927
     RDKit          3D

 51 53  0  0  0  0  0  0  0  0999 V2000
    2.0660  -12.9360   -4.0320 C   0  0  0  0  0  0  0  0  0  0  0  0
    2.8650  -11.7440   -3.4770 C   0  0  0  0  0  0  0  0  0  0  0  0
    2.0750  -11.0960   -2.3300 C   0  0  0  0  0  0  0  0  0  0  0  0
    3.0650  -10.7140   -4.6010 C   0  0  0  0  0  0  0  0  0  0  0  0
    4.2340  -12.2230   -2.9380 C   0  0  0  0  0  0  0  0  0  0  0  0
    4.0640  -13.4350   -2.1990 O   0  0  0  0  0  0  0  0  0  0  0  0
    4.7940  -13.4870   -1.0280 C   0  0  0  0  0  0  0  0  0  0  0  0
    5.8980  -12.7130   -0.9140 N   0  0  0  0  0  0  0  0  0  0  0  0
    6.5940  -12.7580    0.2580 C   0  0  0  0  0  0  0  0  0  0  0  0
    7.8480  -11.9110    0.4100 C   0  0  0  0  0  0  0  0  0  0  0  0
    8.5460  -12.1450    1.5590 F   0  0  0  0  0  0  0  0  0  0  0  0
    8.7430  -12.0980   -0.6050 F   0  0  0  0  0  0  0  0  0  0  0  0
    7.5760  -10.5720    0.4090 F   0  0  0  0  0  0  0  0  0  0  0  0
    6.2070  -13.5860    1.3090 C   0  0  0  0  0  0  0  0  0  0  0  0
    5.0750  -14.3820    1.1600 C   0  0  0  0  0  0  0  0  0  0  0  0
    4.3440  -14.3470   -0.0320 C   0  0  0  0  0  0  0  0  0  0  0  0
    3.1140  -15.1960   -0.1900 C   0  0  0  0  0  0  0  0  0  0  0  0
    1.9390  -14.3840   -0.4130 N   0  0  0  0  0  0  0  0  0  0  0  0
    1.2360  -13.8040    0.6190 C   0  0  0  0  0  0  0  0  0  0  0  0
    1.5730  -13.9450    1.7890 O   0  0  0  0  0  0  0  0  0  0  0  0
    0.1680  -13.0840    0.1490 N   0  0  0  0  0  0  0  0  0  0  0  0
   -0.7780  -12.3450    0.8880 C   0  0  0  0  0  0  0  0  0  0  0  0
   -1.9530  -12.8770    1.4430 C   0  0  0  0  0  0  0  0  0  0  0  0
   -2.8550  -12.0780    2.1720 C   0  0  0  0  0  0  0  0  0  0  0  0
   -2.6230  -10.7150    2.3810 C   0  0  0  0  0  0  0  0  0  0  0  0
   -1.4550  -10.1600    1.8360 C   0  0  0  0  0  0  0  0  0  0  0  0
   -0.9930   -8.8900    1.8850 N   0  0  0  0  0  0  0  0  0  0  0  0
    0.1760   -8.8490    1.2100 N   0  0  0  0  0  0  0  0  0  0  0  0
    0.4030  -10.0930    0.7640 C   0  0  0  0  0  0  0  0  0  0  0  0
   -0.5830  -10.9810    1.1180 C   0  0  0  0  0  0  0  0  0  0  0  0
    1.6673  -13.5308   -3.1970 H   0  0  0  0  0  0  0  0  0  0  0  0
    1.2337  -12.5646   -4.6479 H   0  0  0  0  0  0  0  0  0  0  0  0
    2.7258  -13.5648   -4.6479 H   0  0  0  0  0  0  0  0  0  0  0  0
    2.4852  -11.4324   -1.3664 H   0  0  0  0  0  0  0  0  0  0  0  0
    2.1567  -10.0013   -2.4011 H   0  0  0  0  0  0  0  0  0  0  0  0
    1.0175  -11.3902   -2.4011 H   0  0  0  0  0  0  0  0  0  0  0  0
    3.2572   -9.7242   -4.1613 H   0  0  0  0  0  0  0  0  0  0  0  0
    3.9221  -11.0117   -5.2229 H   0  0  0  0  0  0  0  0  0  0  0  0
    2.1588  -10.6693   -5.2229 H   0  0  0  0  0  0  0  0  0  0  0  0
    4.9167  -12.4020   -3.7817 H   0  0  0  0  0  0  0  0  0  0  0  0
    4.6561  -11.4505   -2.2784 H   0  0  0  0  0  0  0  0  0  0  0  0
    6.7875  -13.6105    2.2431 H   0  0  0  0  0  0  0  0  0  0  0  0
    4.7546  -15.0399    1.9813 H   0  0  0  0  0  0  0  0  0  0  0  0
    3.2518  -15.8698   -1.0485 H   0  0  0  0  0  0  0  0  0  0  0  0
    2.9678  -15.7703    0.7367 H   0  0  0  0  0  0  0  0  0  0  0  0
    1.6670  -14.1970   -1.3650 H   0  0  0  0  0  0  0  0  0  0  0  0
    0.0200  -13.0740   -0.8470 H   0  0  0  0  0  0  0  0  0  0  0  0
   -2.1747  -13.9455    1.3048 H   0  0  0  0  0  0  0  0  0  0  0  0
   -3.7642  -12.5374    2.5871 H   0  0  0  0  0  0  0  0  0  0  0  0
   -3.3320  -10.0987    2.9532 H   0  0  0  0  0  0  0  0  0  0  0  0
    1.2885  -10.3736    0.1748 H   0  0  0  0  0  0  0  0  0  0  0  0
  1  2  1  0
  2  3  1  0
  2  4  1  0
  2  5  1  0
  5  6  1  0
  6  7  1  0
  7  8  2  0
  8  9  1  0
  9 10  1  0
 10 11  1  0
 10 12  1  0
 10 13  1  0
  9 14  2  0
 14 15  1  0
 15 16  2  0
 16 17  1  0
 17 18  1  0
 18 19  1  0
 19 20  2  0
 19 21  1  0
 21 22  1  0
 22 23  2  0
 23 24  1  0
 24 25  2  0
 25 26  1  0
 26 27  1  0
 27 28  1  0
 28 29  2  0
 29 30  1  0
 16  7  1  0
 30 22  1  0
 30 26  2  0
  1 31  1  0
  1 32  1  0
  1 33  1  0
  3 34  1  0
  3 35  1  0
  3 36  1  0
  4 37  1  0
  4 38  1  0
  4 39  1  0
  5 40  1  0
  5 41  1  0
 14 42  1  0
 15 43  1  0
 17 44  1  0
 17 45  1  0
 18 46  1  0
 21 47  1  0
 23 48  1  0
 24 49  1  0
 25 50  1  0
 29 51  1  0
M  CHG  1  27  -1
M  END
>  <meeko>  (3) 
{"is_sidechain": [false], "free_energy": -7.651, "intermolecular_energy": -10.014, "internal_energy": -1.764}

$$$$
LIB_CDOPZZJFMUYVKP__M_PUB_ALL__e8__s20260927
     RDKit          3D

 51 53  0  0  0  0  0  0  0  0999 V2000
   12.8180  -14.2130  -11.3820 C   0  0  0  0  0  0  0  0  0  0  0  0
   13.1640  -13.3690  -10.1430 C   0  0  0  0  0  0  0  0  0  0  0  0
   14.1250  -12.2410  -10.5510 C   0  0  0  0  0  0  0  0  0  0  0  0
   13.8510  -14.2700   -9.1040 C   0  0  0  0  0  0  0  0  0  0  0  0
   11.8800  -12.7440   -9.5460 C   0  0  0  0  0  0  0  0  0  0  0  0
   11.2930  -13.6520   -8.6090 O   0  0  0  0  0  0  0  0  0  0  0  0
    9.9420  -13.8630   -8.8020 C   0  0  0  0  0  0  0  0  0  0  0  0
    9.3740  -13.4350   -9.9530 N   0  0  0  0  0  0  0  0  0  0  0  0
    8.0430  -13.6730  -10.1370 C   0  0  0  0  0  0  0  0  0  0  0  0
    7.3720  -13.1900  -11.4130 C   0  0  0  0  0  0  0  0  0  0  0  0
    6.3590  -13.9910  -11.8520 F   0  0  0  0  0  0  0  0  0  0  0  0
    6.8240  -11.9450  -11.2870 F   0  0  0  0  0  0  0  0  0  0  0  0
    8.2470  -13.0940  -12.4590 F   0  0  0  0  0  0  0  0  0  0  0  0
    7.2730  -14.3180   -9.1720 C   0  0  0  0  0  0  0  0  0  0  0  0
    7.8810  -14.7360   -7.9920 C   0  0  0  0  0  0  0  0  0  0  0  0
    9.2450  -14.5070   -7.7850 C   0  0  0  0  0  0  0  0  0  0  0  0
    9.9060  -14.9700   -6.5170 C   0  0  0  0  0  0  0  0  0  0  0  0
    9.8880  -13.9370   -5.5070 N   0  0  0  0  0  0  0  0  0  0  0  0
   10.8530  -13.8450   -4.5280 C   0  0  0  0  0  0  0  0  0  0  0  0
   11.7830  -14.6390   -4.4620 O   0  0  0  0  0  0  0  0  0  0  0  0
   10.6140  -12.7820   -3.6950 N   0  0  0  0  0  0  0  0  0  0  0  0
   11.3740  -12.3560   -2.5870 C   0  0  0  0  0  0  0  0  0  0  0  0
   12.6640  -11.8090   -2.6640 C   0  0  0  0  0  0  0  0  0  0  0  0
   13.3670  -11.4040   -1.5120 C   0  0  0  0  0  0  0  0  0  0  0  0
   12.8130  -11.5260   -0.2340 C   0  0  0  0  0  0  0  0  0  0  0  0
   11.5240  -12.0700   -0.1310 C   0  0  0  0  0  0  0  0  0  0  0  0
   10.7630  -12.2980    0.9630 N   0  0  0  0  0  0  0  0  0  0  0  0
    9.5950  -12.8370    0.5510 N   0  0  0  0  0  0  0  0  0  0  0  0
    9.6680  -12.9260   -0.7850 C   0  0  0  0  0  0  0  0  0  0  0  0
   10.8550  -12.4620   -1.2930 C   0  0  0  0  0  0  0  0  0  0  0  0
   12.4188  -15.1869  -11.0624 H   0  0  0  0  0  0  0  0  0  0  0  0
   12.0629  -13.6871  -11.9847 H   0  0  0  0  0  0  0  0  0  0  0  0
   13.7250  -14.3684  -11.9847 H   0  0  0  0  0  0  0  0  0  0  0  0
   14.5328  -11.7623   -9.6484 H   0  0  0  0  0  0  0  0  0  0  0  0
   14.9487  -12.6591  -11.1483 H   0  0  0  0  0  0  0  0  0  0  0  0
   13.5813  -11.4942  -11.1483 H   0  0  0  0  0  0  0  0  0  0  0  0
   13.5899  -13.9275   -8.0918 H   0  0  0  0  0  0  0  0  0  0  0  0
   13.5131  -15.3082   -9.2384 H   0  0  0  0  0  0  0  0  0  0  0  0
   14.9416  -14.2190   -9.2384 H   0  0  0  0  0  0  0  0  0  0  0  0
   12.1345  -11.8042   -9.0342 H   0  0  0  0  0  0  0  0  0  0  0  0
   11.1630  -12.5412  -10.3552 H   0  0  0  0  0  0  0  0  0  0  0  0
    6.2003  -14.4944   -9.3401 H   0  0  0  0  0  0  0  0  0  0  0  0
    7.2873  -15.2478   -7.2203 H   0  0  0  0  0  0  0  0  0  0  0  0
    9.3714  -15.8527   -6.1361 H   0  0  0  0  0  0  0  0  0  0  0  0
   10.9541  -15.2164   -6.7423 H   0  0  0  0  0  0  0  0  0  0  0  0
    9.1720  -13.2300   -5.5640 H   0  0  0  0  0  0  0  0  0  0  0  0
    9.7950  -12.2250   -3.8780 H   0  0  0  0  0  0  0  0  0  0  0  0
   13.1388  -11.6934   -3.6495 H   0  0  0  0  0  0  0  0  0  0  0  0
   14.3767  -10.9814   -1.6208 H   0  0  0  0  0  0  0  0  0  0  0  0
   13.3687  -11.2064    0.6599 H   0  0  0  0  0  0  0  0  0  0  0  0
    8.8582  -13.3301   -1.4103 H   0  0  0  0  0  0  0  0  0  0  0  0
  1  2  1  0
  2  3  1  0
  2  4  1  0
  2  5  1  0
  5  6  1  0
  6  7  1  0
  7  8  2  0
  8  9  1  0
  9 10  1  0
 10 11  1  0
 10 12  1  0
 10 13  1  0
  9 14  2  0
 14 15  1  0
 15 16  2  0
 16 17  1  0
 17 18  1  0
 18 19  1  0
 19 20  2  0
 19 21  1  0
 21 22  1  0
 22 23  2  0
 23 24  1  0
 24 25  2  0
 25 26  1  0
 26 27  1  0
 27 28  1  0
 28 29  2  0
 29 30  1  0
 16  7  1  0
 30 22  1  0
 30 26  2  0
  1 31  1  0
  1 32  1  0
  1 33  1  0
  3 34  1  0
  3 35  1  0
  3 36  1  0
  4 37  1  0
  4 38  1  0
  4 39  1  0
  5 40  1  0
  5 41  1  0
 14 42  1  0
 15 43  1  0
 17 44  1  0
 17 45  1  0
 18 46  1  0
 21 47  1  0
 23 48  1  0
 24 49  1  0
 25 50  1  0
 29 51  1  0
M  CHG  1  27  -1
M  END
>  <meeko>  (4) 
{"is_sidechain": [false], "free_energy": -7.646, "intermolecular_energy": -10.671, "internal_energy": -1.102}

$$$$
LIB_CDOPZZJFMUYVKP__M_PUB_ALL__e8__s20260927
     RDKit          3D

 51 53  0  0  0  0  0  0  0  0999 V2000
    3.5850  -13.5050   -4.6170 C   0  0  0  0  0  0  0  0  0  0  0  0
    4.4110  -12.2460   -4.9350 C   0  0  0  0  0  0  0  0  0  0  0  0
    5.4220  -12.0040   -3.8030 C   0  0  0  0  0  0  0  0  0  0  0  0
    3.4620  -11.0400   -5.0330 C   0  0  0  0  0  0  0  0  0  0  0  0
    5.1790  -12.4330   -6.2660 C   0  0  0  0  0  0  0  0  0  0  0  0
    5.6510  -13.7790   -6.3650 O   0  0  0  0  0  0  0  0  0  0  0  0
    6.5940  -13.9730   -7.3540 C   0  0  0  0  0  0  0  0  0  0  0  0
    6.3520  -13.4790   -8.5900 N   0  0  0  0  0  0  0  0  0  0  0  0
    7.3040  -13.6580   -9.5500 C   0  0  0  0  0  0  0  0  0  0  0  0
    7.0540  -13.1280  -10.9530 C   0  0  0  0  0  0  0  0  0  0  0  0
    8.0740  -13.3590  -11.8290 F   0  0  0  0  0  0  0  0  0  0  0  0
    5.9430  -13.6690  -11.5360 F   0  0  0  0  0  0  0  0  0  0  0  0
    6.8500  -11.7770  -10.9720 F   0  0  0  0  0  0  0  0  0  0  0  0
    8.4880  -14.3460   -9.2890 C   0  0  0  0  0  0  0  0  0  0  0  0
    8.7050  -14.8550   -8.0120 C   0  0  0  0  0  0  0  0  0  0  0  0
    7.7440  -14.6770   -7.0120 C   0  0  0  0  0  0  0  0  0  0  0  0
    7.9820  -15.2150   -5.6290 C   0  0  0  0  0  0  0  0  0  0  0  0
    8.2560  -14.1510   -4.6900 N   0  0  0  0  0  0  0  0  0  0  0  0
    9.3240  -14.1910   -3.8210 C   0  0  0  0  0  0  0  0  0  0  0  0
   10.1030  -15.1360   -3.7990 O   0  0  0  0  0  0  0  0  0  0  0  0
    9.3680  -13.0660   -3.0380 N   0  0  0  0  0  0  0  0  0  0  0  0
   10.3080  -12.7350   -2.0410 C   0  0  0  0  0  0  0  0  0  0  0  0
   10.0890  -12.8620   -0.6600 C   0  0  0  0  0  0  0  0  0  0  0  0
   11.0760  -12.5110    0.2810 C   0  0  0  0  0  0  0  0  0  0  0  0
   12.3240  -12.0200   -0.1140 C   0  0  0  0  0  0  0  0  0  0  0  0
   12.5670  -11.8840   -1.4890 C   0  0  0  0  0  0  0  0  0  0  0  0
   13.6680  -11.4410   -2.1360 N   0  0  0  0  0  0  0  0  0  0  0  0
   13.4200  -11.4950   -3.4630 N   0  0  0  0  0  0  0  0  0  0  0  0
   12.1730  -11.9700   -3.5970 C   0  0  0  0  0  0  0  0  0  0  0  0
   11.5660  -12.2400   -2.3960 C   0  0  0  0  0  0  0  0  0  0  0  0
    3.5058  -13.6258   -3.5265 H   0  0  0  0  0  0  0  0  0  0  0  0
    2.5785  -13.4019   -5.0486 H   0  0  0  0  0  0  0  0  0  0  0  0
    4.0804  -14.3872   -5.0486 H   0  0  0  0  0  0  0  0  0  0  0  0
    4.9203  -12.1241   -2.8315 H   0  0  0  0  0  0  0  0  0  0  0  0
    6.2437  -12.7308   -3.8837 H   0  0  0  0  0  0  0  0  0  0  0  0
    5.8256  -10.9839   -3.8837 H   0  0  0  0  0  0  0  0  0  0  0  0
    3.1948  -10.7005   -4.0214 H   0  0  0  0  0  0  0  0  0  0  0  0
    3.9620  -10.2230   -5.5739 H   0  0  0  0  0  0  0  0  0  0  0  0
    2.5503  -11.3338   -5.5739 H   0  0  0  0  0  0  0  0  0  0  0  0
    4.5064  -12.2184   -7.1095 H   0  0  0  0  0  0  0  0  0  0  0  0
    6.0358  -11.7437   -6.2921 H   0  0  0  0  0  0  0  0  0  0  0  0
    9.2394  -14.4845  -10.0804 H   0  0  0  0  0  0  0  0  0  0  0  0
    9.6348  -15.3987   -7.7888 H   0  0  0  0  0  0  0  0  0  0  0  0
    7.0868  -15.7623   -5.2987 H   0  0  0  0  0  0  0  0  0  0  0  0
    8.8564  -15.8816   -5.6622 H   0  0  0  0  0  0  0  0  0  0  0  0
    7.6720  -13.3310   -4.7200 H   0  0  0  0  0  0  0  0  0  0  0  0
    8.6430  -12.3800   -3.1730 H   0  0  0  0  0  0  0  0  0  0  0  0
    9.1215  -13.2456   -0.3039 H   0  0  0  0  0  0  0  0  0  0  0  0
   10.8597  -12.6260    1.3534 H   0  0  0  0  0  0  0  0  0  0  0  0
   13.0895  -11.7495    0.6282 H   0  0  0  0  0  0  0  0  0  0  0  0
   11.6861  -12.1273   -4.5707 H   0  0  0  0  0  0  0  0  0  0  0  0
  1  2  1  0
  2  3  1  0
  2  4  1  0
  2  5  1  0
  5  6  1  0
  6  7  1  0
  7  8  2  0
  8  9  1  0
  9 10  1  0
 10 11  1  0
 10 12  1  0
 10 13  1  0
  9 14  2  0
 14 15  1  0
 15 16  2  0
 16 17  1  0
 17 18  1  0
 18 19  1  0
 19 20  2  0
 19 21  1  0
 21 22  1  0
 22 23  2  0
 23 24  1  0
 24 25  2  0
 25 26  1  0
 26 27  1  0
 27 28  1  0
 28 29  2  0
 29 30  1  0
 16  7  1  0
 30 22  1  0
 30 26  2  0
  1 31  1  0
  1 32  1  0
  1 33  1  0
  3 34  1  0
  3 35  1  0
  3 36  1  0
  4 37  1  0
  4 38  1  0
  4 39  1  0
  5 40  1  0
  5 41  1  0
 14 42  1  0
 15 43  1  0
 17 44  1  0
 17 45  1  0
 18 46  1  0
 21 47  1  0
 23 48  1  0
 24 49  1  0
 25 50  1  0
 29 51  1  0
M  CHG  1  27  -1
M  END
>  <meeko>  (5) 
{"is_sidechain": [false], "free_energy": -7.613, "intermolecular_energy": -10.37, "internal_energy": -1.357}

$$$$
LIB_CDOPZZJFMUYVKP__M_PUB_ALL__e8__s20260927
     RDKit          3D

 51 53  0  0  0  0  0  0  0  0999 V2000
    1.8170  -11.4280   -1.3280 C   0  0  0  0  0  0  0  0  0  0  0  0
    2.7550  -11.8030   -2.4880 C   0  0  0  0  0  0  0  0  0  0  0  0
    3.0050  -10.5620   -3.3590 C   0  0  0  0  0  0  0  0  0  0  0  0
    2.0800  -12.8920   -3.3400 C   0  0  0  0  0  0  0  0  0  0  0  0
    4.1080  -12.3140   -1.9390 C   0  0  0  0  0  0  0  0  0  0  0  0
    4.0180  -12.4900   -0.5220 O   0  0  0  0  0  0  0  0  0  0  0  0
    4.4600  -13.7210   -0.0790 C   0  0  0  0  0  0  0  0  0  0  0  0
    3.9590  -14.8380   -0.6550 N   0  0  0  0  0  0  0  0  0  0  0  0
    4.4230  -16.0450   -0.2220 C   0  0  0  0  0  0  0  0  0  0  0  0
    3.8680  -17.3200   -0.8380 C   0  0  0  0  0  0  0  0  0  0  0  0
    4.7990  -18.0830   -1.4800 F   0  0  0  0  0  0  0  0  0  0  0  0
    3.2870  -18.1460    0.0810 F   0  0  0  0  0  0  0  0  0  0  0  0
    2.8940  -17.0700   -1.7630 F   0  0  0  0  0  0  0  0  0  0  0  0
    5.3690  -16.1450    0.7970 C   0  0  0  0  0  0  0  0  0  0  0  0
    5.8570  -14.9790    1.3810 C   0  0  0  0  0  0  0  0  0  0  0  0
    5.3980  -13.7310    0.9470 C   0  0  0  0  0  0  0  0  0  0  0  0
    5.9340  -12.4710    1.5670 C   0  0  0  0  0  0  0  0  0  0  0  0
    7.3650  -12.5430    1.7530 N   0  0  0  0  0  0  0  0  0  0  0  0
    8.2540  -12.0020    0.8510 C   0  0  0  0  0  0  0  0  0  0  0  0
    7.8760  -11.4270   -0.1620 O   0  0  0  0  0  0  0  0  0  0  0  0
    9.5510  -12.2000    1.2540 N   0  0  0  0  0  0  0  0  0  0  0  0
   10.7350  -11.7900    0.6090 C   0  0  0  0  0  0  0  0  0  0  0  0
   11.5160  -10.6890    0.9940 C   0  0  0  0  0  0  0  0  0  0  0  0
   12.6910  -10.3350    0.3020 C   0  0  0  0  0  0  0  0  0  0  0  0
   13.1380  -11.0660   -0.8030 C   0  0  0  0  0  0  0  0  0  0  0  0
   12.3740  -12.1710   -1.2070 C   0  0  0  0  0  0  0  0  0  0  0  0
   12.5730  -13.0370   -2.2270 N   0  0  0  0  0  0  0  0  0  0  0  0
   11.5640  -13.9340   -2.2120 N   0  0  0  0  0  0  0  0  0  0  0  0
   10.7700  -13.5970   -1.1840 C   0  0  0  0  0  0  0  0  0  0  0  0
   11.2140  -12.4930   -0.4990 C   0  0  0  0  0  0  0  0  0  0  0  0
    2.3196  -11.6289   -0.3704 H   0  0  0  0  0  0  0  0  0  0  0  0
    1.5637  -10.3595   -1.3920 H   0  0  0  0  0  0  0  0  0  0  0  0
    0.8969  -12.0274   -1.3920 H   0  0  0  0  0  0  0  0  0  0  0  0
    3.1807   -9.6896   -2.7124 H   0  0  0  0  0  0  0  0  0  0  0  0
    3.8871  -10.7314   -3.9940 H   0  0  0  0  0  0  0  0  0  0  0  0
    2.1262  -10.3766   -3.9940 H   0  0  0  0  0  0  0  0  0  0  0  0
    1.6166  -13.6396   -2.6795 H   0  0  0  0  0  0  0  0  0  0  0  0
    1.3070  -12.4343   -3.9748 H   0  0  0  0  0  0  0  0  0  0  0  0
    2.8338  -13.3806   -3.9748 H   0  0  0  0  0  0  0  0  0  0  0  0
    4.3546  -13.2760   -2.4120 H   0  0  0  0  0  0  0  0  0  0  0  0
    4.8941  -11.5787   -2.1655 H   0  0  0  0  0  0  0  0  0  0  0  0
    5.7244  -17.1298    1.1345 H   0  0  0  0  0  0  0  0  0  0  0  0
    6.6050  -15.0394    2.1853 H   0  0  0  0  0  0  0  0  0  0  0  0
    5.7009  -11.6209    0.9089 H   0  0  0  0  0  0  0  0  0  0  0  0
    5.4626  -12.3421    2.5525 H   0  0  0  0  0  0  0  0  0  0  0  0
    7.7120  -12.9560    2.6040 H   0  0  0  0  0  0  0  0  0  0  0  0
    9.6960  -12.7030    2.1140 H   0  0  0  0  0  0  0  0  0  0  0  0
   11.2022  -10.0865    1.8592 H   0  0  0  0  0  0  0  0  0  0  0  0
   13.2705   -9.4629    0.6390 H   0  0  0  0  0  0  0  0  0  0  0  0
   14.0573  -10.7842   -1.3373 H   0  0  0  0  0  0  0  0  0  0  0  0
    9.8566  -14.1489   -0.9173 H   0  0  0  0  0  0  0  0  0  0  0  0
  1  2  1  0
  2  3  1  0
  2  4  1  0
  2  5  1  0
  5  6  1  0
  6  7  1  0
  7  8  2  0
  8  9  1  0
  9 10  1  0
 10 11  1  0
 10 12  1  0
 10 13  1  0
  9 14  2  0
 14 15  1  0
 15 16  2  0
 16 17  1  0
 17 18  1  0
 18 19  1  0
 19 20  2  0
 19 21  1  0
 21 22  1  0
 22 23  2  0
 23 24  1  0
 24 25  2  0
 25 26  1  0
 26 27  1  0
 27 28  1  0
 28 29  2  0
 29 30  1  0
 16  7  1  0
 30 22  1  0
 30 26  2  0
  1 31  1  0
  1 32  1  0
  1 33  1  0
  3 34  1  0
  3 35  1  0
  3 36  1  0
  4 37  1  0
  4 38  1  0
  4 39  1  0
  5 40  1  0
  5 41  1  0
 14 42  1  0
 15 43  1  0
 17 44  1  0
 17 45  1  0
 18 46  1  0
 21 47  1  0
 23 48  1  0
 24 49  1  0
 25 50  1  0
 29 51  1  0
M  CHG  1  27  -1
M  END
>  <meeko>  (6) 
{"is_sidechain": [false], "free_energy": -7.589, "intermolecular_energy": -10.462, "internal_energy": -1.23}

$$$$
LIB_CDOPZZJFMUYVKP__M_PUB_ALL__e8__s20260927
     RDKit          3D

 51 53  0  0  0  0  0  0  0  0999 V2000
    7.3870  -11.6750  -10.4140 C   0  0  0  0  0  0  0  0  0  0  0  0
    7.8990  -13.0550  -10.8610 C   0  0  0  0  0  0  0  0  0  0  0  0
    6.7560  -13.8230  -11.5430 C   0  0  0  0  0  0  0  0  0  0  0  0
    8.3670  -13.8370   -9.6220 C   0  0  0  0  0  0  0  0  0  0  0  0
    9.0660  -12.8930  -11.8640 C   0  0  0  0  0  0  0  0  0  0  0  0
   10.3020  -13.2260  -11.2260 O   0  0  0  0  0  0  0  0  0  0  0  0
   11.0730  -12.1320  -10.8870 C   0  0  0  0  0  0  0  0  0  0  0  0
   10.6810  -10.9050  -11.3040 N   0  0  0  0  0  0  0  0  0  0  0  0
   11.4410   -9.8330  -10.9410 C   0  0  0  0  0  0  0  0  0  0  0  0
   11.0360   -8.4430  -11.4080 C   0  0  0  0  0  0  0  0  0  0  0  0
    9.7130   -8.3200  -11.7180 F   0  0  0  0  0  0  0  0  0  0  0  0
   11.2850   -7.4750  -10.4760 F   0  0  0  0  0  0  0  0  0  0  0  0
   11.7160   -8.0500  -12.5260 F   0  0  0  0  0  0  0  0  0  0  0  0
   12.6000   -9.9780  -10.1810 C   0  0  0  0  0  0  0  0  0  0  0  0
   12.9870  -11.2530   -9.7770 C   0  0  0  0  0  0  0  0  0  0  0  0
   12.2180  -12.3660  -10.1340 C   0  0  0  0  0  0  0  0  0  0  0  0
   12.6270  -13.7420   -9.6880 C   0  0  0  0  0  0  0  0  0  0  0  0
   13.2720  -13.7050   -8.3960 N   0  0  0  0  0  0  0  0  0  0  0  0
   12.7250  -14.3010   -7.2810 C   0  0  0  0  0  0  0  0  0  0  0  0
   11.6560  -14.8980   -7.3270 O   0  0  0  0  0  0  0  0  0  0  0  0
   13.5280  -14.1290   -6.1820 N   0  0  0  0  0  0  0  0  0  0  0  0
   13.3180  -14.5940   -4.8680 C   0  0  0  0  0  0  0  0  0  0  0  0
   13.5400  -15.9130   -4.4410 C   0  0  0  0  0  0  0  0  0  0  0  0
   13.3090  -16.3100   -3.1090 C   0  0  0  0  0  0  0  0  0  0  0  0
   12.8470  -15.4080   -2.1460 C   0  0  0  0  0  0  0  0  0  0  0  0
   12.6170  -14.0830   -2.5490 C   0  0  0  0  0  0  0  0  0  0  0  0
   12.1760  -13.0230   -1.8340 N   0  0  0  0  0  0  0  0  0  0  0  0
   12.1170  -11.9600   -2.6650 N   0  0  0  0  0  0  0  0  0  0  0  0
   12.5220  -12.3930   -3.8670 C   0  0  0  0  0  0  0  0  0  0  0  0
   12.8560  -13.7240   -3.8770 C   0  0  0  0  0  0  0  0  0  0  0  0
    7.3698  -11.6286   -9.3151 H   0  0  0  0  0  0  0  0  0  0  0  0
    8.0546  -10.8924  -10.8036 H   0  0  0  0  0  0  0  0  0  0  0  0
    6.3705  -11.5172  -10.8036 H   0  0  0  0  0  0  0  0  0  0  0  0
    6.1012  -14.2630  -10.7764 H   0  0  0  0  0  0  0  0  0  0  0  0
    6.1734  -13.1324  -12.1704 H   0  0  0  0  0  0  0  0  0  0  0  0
    7.1752  -14.6234  -12.1704 H   0  0  0  0  0  0  0  0  0  0  0  0
    8.0495  -13.3066   -8.7121 H   0  0  0  0  0  0  0  0  0  0  0  0
    7.9224  -14.8431   -9.6339 H   0  0  0  0  0  0  0  0  0  0  0  0
    9.4638  -13.9206   -9.6339 H   0  0  0  0  0  0  0  0  0  0  0  0
    8.9058  -13.5624  -12.7220 H   0  0  0  0  0  0  0  0  0  0  0  0
    9.1053  -11.8498  -12.2105 H   0  0  0  0  0  0  0  0  0  0  0  0
   13.2000   -9.0985   -9.9045 H   0  0  0  0  0  0  0  0  0  0  0  0
   13.8988  -11.3855   -9.1762 H   0  0  0  0  0  0  0  0  0  0  0  0
   11.7322  -14.3785   -9.6237 H   0  0  0  0  0  0  0  0  0  0  0  0
   13.3406  -14.1466  -10.4208 H   0  0  0  0  0  0  0  0  0  0  0  0
   14.1810  -13.2750   -8.3310 H   0  0  0  0  0  0  0  0  0  0  0  0
   14.3770  -13.6020   -6.3080 H   0  0  0  0  0  0  0  0  0  0  0  0
   13.9040  -16.6562   -5.1657 H   0  0  0  0  0  0  0  0  0  0  0  0
   13.4967  -17.3546   -2.8199 H   0  0  0  0  0  0  0  0  0  0  0  0
   12.6697  -15.7256   -1.1079 H   0  0  0  0  0  0  0  0  0  0  0  0
   12.5807  -11.7470   -4.7554 H   0  0  0  0  0  0  0  0  0  0  0  0
  1  2  1  0
  2  3  1  0
  2  4  1  0
  2  5  1  0
  5  6  1  0
  6  7  1  0
  7  8  2  0
  8  9  1  0
  9 10  1  0
 10 11  1  0
 10 12  1  0
 10 13  1  0
  9 14  2  0
 14 15  1  0
 15 16  2  0
 16 17  1  0
 17 18  1  0
 18 19  1  0
 19 20  2  0
 19 21  1  0
 21 22  1  0
 22 23  2  0
 23 24  1  0
 24 25  2  0
 25 26  1  0
 26 27  1  0
 27 28  1  0
 28 29  2  0
 29 30  1  0
 16  7  1  0
 30 22  1  0
 30 26  2  0
  1 31  1  0
  1 32  1  0
  1 33  1  0
  3 34  1  0
  3 35  1  0
  3 36  1  0
  4 37  1  0
  4 38  1  0
  4 39  1  0
  5 40  1  0
  5 41  1  0
 14 42  1  0
 15 43  1  0
 17 44  1  0
 17 45  1  0
 18 46  1  0
 21 47  1  0
 23 48  1  0
 24 49  1  0
 25 50  1  0
 29 51  1  0
M  CHG  1  27  -1
M  END
>  <meeko>  (7) 
{"is_sidechain": [false], "free_energy": -7.521, "intermolecular_energy": -10.533, "internal_energy": -1.063}

$$$$
LIB_CDOPZZJFMUYVKP__M_PUB_ALL__e8__s20260927
     RDKit          3D

 51 53  0  0  0  0  0  0  0  0999 V2000
    6.8960  -13.6180  -11.4440 C   0  0  0  0  0  0  0  0  0  0  0  0
    7.5270  -12.6710  -10.4080 C   0  0  0  0  0  0  0  0  0  0  0  0
    7.0160  -13.0420   -9.0060 C   0  0  0  0  0  0  0  0  0  0  0  0
    7.1090  -11.2280  -10.7340 C   0  0  0  0  0  0  0  0  0  0  0  0
    9.0690  -12.8020  -10.4330 C   0  0  0  0  0  0  0  0  0  0  0  0
    9.5190  -13.4260   -9.2270 O   0  0  0  0  0  0  0  0  0  0  0  0
   10.8880  -13.5890   -9.1570 C   0  0  0  0  0  0  0  0  0  0  0  0
   11.6590  -13.0560  -10.1330 N   0  0  0  0  0  0  0  0  0  0  0  0
   13.0110  -13.2050  -10.0350 C   0  0  0  0  0  0  0  0  0  0  0  0
   13.9030  -12.6310  -11.1250 C   0  0  0  0  0  0  0  0  0  0  0  0
   13.2300  -12.2060  -12.2330 F   0  0  0  0  0  0  0  0  0  0  0  0
   14.6320  -11.5560  -10.7040 F   0  0  0  0  0  0  0  0  0  0  0  0
   14.8230  -13.5360  -11.5760 F   0  0  0  0  0  0  0  0  0  0  0  0
   13.5980  -13.9020   -8.9800 C   0  0  0  0  0  0  0  0  0  0  0  0
   12.7800  -14.4510   -7.9970 C   0  0  0  0  0  0  0  0  0  0  0  0
   11.3910  -14.3040   -8.0750 C   0  0  0  0  0  0  0  0  0  0  0  0
   10.5080  -14.8860   -7.0070 C   0  0  0  0  0  0  0  0  0  0  0  0
   10.2830  -13.9410   -5.9380 N   0  0  0  0  0  0  0  0  0  0  0  0
   11.1080  -13.8630   -4.8370 C   0  0  0  0  0  0  0  0  0  0  0  0
   12.0810  -14.5950   -4.7070 O   0  0  0  0  0  0  0  0  0  0  0  0
   10.6850  -12.8890   -3.9680 N   0  0  0  0  0  0  0  0  0  0  0  0
   11.2650  -12.5030   -2.7430 C   0  0  0  0  0  0  0  0  0  0  0  0
   12.5460  -11.9460   -2.6040 C   0  0  0  0  0  0  0  0  0  0  0  0
   13.0630  -11.5820   -1.3450 C   0  0  0  0  0  0  0  0  0  0  0  0
   12.3240  -11.7580   -0.1710 C   0  0  0  0  0  0  0  0  0  0  0  0
   11.0410  -12.3130   -0.2840 C   0  0  0  0  0  0  0  0  0  0  0  0
   10.1270  -12.5890    0.6740 N   0  0  0  0  0  0  0  0  0  0  0  0
    9.0410  -13.1180    0.0700 N   0  0  0  0  0  0  0  0  0  0  0  0
    9.3140  -13.1540   -1.2420 C   0  0  0  0  0  0  0  0  0  0  0  0
   10.5590  -12.6630   -1.5480 C   0  0  0  0  0  0  0  0  0  0  0  0
    6.3585  -14.4246  -10.9240 H   0  0  0  0  0  0  0  0  0  0  0  0
    6.1918  -13.0551  -12.0743 H   0  0  0  0  0  0  0  0  0  0  0  0
    7.6866  -14.0512  -12.0743 H   0  0  0  0  0  0  0  0  0  0  0  0
    7.6593  -12.5749   -8.2458 H   0  0  0  0  0  0  0  0  0  0  0  0
    5.9839  -12.6815   -8.8846 H   0  0  0  0  0  0  0  0  0  0  0  0
    7.0392  -14.1350   -8.8846 H   0  0  0  0  0  0  0  0  0  0  0  0
    6.9481  -10.6726   -9.7983 H   0  0  0  0  0  0  0  0  0  0  0  0
    7.9026  -10.7395  -11.3185 H   0  0  0  0  0  0  0  0  0  0  0  0
    6.1772  -11.2393  -11.3185 H   0  0  0  0  0  0  0  0  0  0  0  0
    9.3701  -13.4141  -11.2959 H   0  0  0  0  0  0  0  0  0  0  0  0
    9.5185  -11.8014  -10.5154 H   0  0  0  0  0  0  0  0  0  0  0  0
   14.6907  -14.0163   -8.9254 H   0  0  0  0  0  0  0  0  0  0  0  0
   13.2269  -15.0020   -7.1564 H   0  0  0  0  0  0  0  0  0  0  0  0
    9.5402  -15.1599   -7.4524 H   0  0  0  0  0  0  0  0  0  0  0  0
   11.0085  -15.7712   -6.5876 H   0  0  0  0  0  0  0  0  0  0  0  0
    9.5270  -13.2820   -6.0380 H   0  0  0  0  0  0  0  0  0  0  0  0
    9.8550  -12.3760   -4.2180 H   0  0  0  0  0  0  0  0  0  0  0  0
   13.1623  -11.7896   -3.5016 H   0  0  0  0  0  0  0  0  0  0  0  0
   14.0723  -11.1489   -1.2841 H   0  0  0  0  0  0  0  0  0  0  0  0
   12.7351  -11.4708    0.8081 H   0  0  0  0  0  0  0  0  0  0  0  0
    8.6118  -13.5379   -1.9967 H   0  0  0  0  0  0  0  0  0  0  0  0
  1  2  1  0
  2  3  1  0
  2  4  1  0
  2  5  1  0
  5  6  1  0
  6  7  1  0
  7  8  2  0
  8  9  1  0
  9 10  1  0
 10 11  1  0
 10 12  1  0
 10 13  1  0
  9 14  2  0
 14 15  1  0
 15 16  2  0
 16 17  1  0
 17 18  1  0
 18 19  1  0
 19 20  2  0
 19 21  1  0
 21 22  1  0
 22 23  2  0
 23 24  1  0
 24 25  2  0
 25 26  1  0
 26 27  1  0
 27 28  1  0
 28 29  2  0
 29 30  1  0
 16  7  1  0
 30 22  1  0
 30 26  2  0
  1 31  1  0
  1 32  1  0
  1 33  1  0
  3 34  1  0
  3 35  1  0
  3 36  1  0
  4 37  1  0
  4 38  1  0
  4 39  1  0
  5 40  1  0
  5 41  1  0
 14 42  1  0
 15 43  1  0
 17 44  1  0
 17 45  1  0
 18 46  1  0
 21 47  1  0
 23 48  1  0
 24 49  1  0
 25 50  1  0
 29 51  1  0
M  CHG  1  27  -1
M  END
>  <meeko>  (8) 
{"is_sidechain": [false], "free_energy": -7.508, "intermolecular_energy": -10.575, "internal_energy": -1.003}

$$$$
LIB_CDOPZZJFMUYVKP__M_PUB_ALL__e8__s20260927
     RDKit          3D

 51 53  0  0  0  0  0  0  0  0999 V2000
    8.2890  -13.5990   -9.5870 C   0  0  0  0  0  0  0  0  0  0  0  0
    7.8180  -12.9110  -10.8790 C   0  0  0  0  0  0  0  0  0  0  0  0
    7.2930  -11.5060  -10.5420 C   0  0  0  0  0  0  0  0  0  0  0  0
    6.6820  -13.7410  -11.5000 C   0  0  0  0  0  0  0  0  0  0  0  0
    8.9950  -12.7820  -11.8760 C   0  0  0  0  0  0  0  0  0  0  0  0
   10.2190  -13.1290  -11.2240 O   0  0  0  0  0  0  0  0  0  0  0  0
   11.0210  -12.0470  -10.9210 C   0  0  0  0  0  0  0  0  0  0  0  0
   10.6520  -10.8200  -11.3580 N   0  0  0  0  0  0  0  0  0  0  0  0
   11.4430   -9.7590  -11.0290 C   0  0  0  0  0  0  0  0  0  0  0  0
   11.0630   -8.3700  -11.5200 C   0  0  0  0  0  0  0  0  0  0  0  0
   11.3360   -7.3690  -10.6330 F   0  0  0  0  0  0  0  0  0  0  0  0
   11.7040   -8.0200  -12.6740 F   0  0  0  0  0  0  0  0  0  0  0  0
    9.7300   -8.2630  -11.8000 F   0  0  0  0  0  0  0  0  0  0  0  0
   12.6100   -9.9160  -10.2850 C   0  0  0  0  0  0  0  0  0  0  0  0
   12.9730  -11.1910   -9.8600 C   0  0  0  0  0  0  0  0  0  0  0  0
   12.1730  -12.2930  -10.1810 C   0  0  0  0  0  0  0  0  0  0  0  0
   12.5560  -13.6680   -9.7120 C   0  0  0  0  0  0  0  0  0  0  0  0
   13.1810  -13.6250   -8.4110 N   0  0  0  0  0  0  0  0  0  0  0  0
   12.4780  -13.8400   -7.2460 C   0  0  0  0  0  0  0  0  0  0  0  0
   11.2770  -14.0840   -7.2530 O   0  0  0  0  0  0  0  0  0  0  0  0
   13.2950  -13.7480   -6.1480 N   0  0  0  0  0  0  0  0  0  0  0  0
   12.9520  -13.9130   -4.7910 C   0  0  0  0  0  0  0  0  0  0  0  0
   12.4030  -12.9100   -3.9770 C   0  0  0  0  0  0  0  0  0  0  0  0
   12.0830  -13.1450   -2.6250 C   0  0  0  0  0  0  0  0  0  0  0  0
   12.2970  -14.3920   -2.0280 C   0  0  0  0  0  0  0  0  0  0  0  0
   12.8460  -15.4100   -2.8220 C   0  0  0  0  0  0  0  0  0  0  0  0
   13.1520  -16.6880   -2.5040 N   0  0  0  0  0  0  0  0  0  0  0  0
   13.6580  -17.2810   -3.6070 N   0  0  0  0  0  0  0  0  0  0  0  0
   13.6500  -16.3520   -4.5750 C   0  0  0  0  0  0  0  0  0  0  0  0
   13.1520  -15.1430   -4.1580 C   0  0  0  0  0  0  0  0  0  0  0  0
    7.9091  -13.0440   -8.7166 H   0  0  0  0  0  0  0  0  0  0  0  0
    7.9063  -14.6299   -9.5601 H   0  0  0  0  0  0  0  0  0  0  0  0
    9.3886  -13.6152   -9.5601 H   0  0  0  0  0  0  0  0  0  0  0  0
    7.2474  -11.3839   -9.4498 H   0  0  0  0  0  0  0  0  0  0  0  0
    7.9693  -10.7500  -10.9676 H   0  0  0  0  0  0  0  0  0  0  0  0
    6.2867  -11.3788  -10.9676 H   0  0  0  0  0  0  0  0  0  0  0  0
    6.0730  -14.1860  -10.6993 H   0  0  0  0  0  0  0  0  0  0  0  0
    6.0504  -13.0902  -12.1225 H   0  0  0  0  0  0  0  0  0  0  0  0
    7.1101  -14.5406  -12.1225 H   0  0  0  0  0  0  0  0  0  0  0  0
    8.8293  -13.4591  -12.7269 H   0  0  0  0  0  0  0  0  0  0  0  0
    9.0554  -11.7443  -12.2359 H   0  0  0  0  0  0  0  0  0  0  0  0
   13.2353   -9.0457  -10.0370 H   0  0  0  0  0  0  0  0  0  0  0  0
   13.8909  -11.3323   -9.2705 H   0  0  0  0  0  0  0  0  0  0  0  0
   11.6516  -14.2915   -9.6543 H   0  0  0  0  0  0  0  0  0  0  0  0
   13.2758  -14.0905  -10.4285 H   0  0  0  0  0  0  0  0  0  0  0  0
   14.1790  -13.4870   -8.3680 H   0  0  0  0  0  0  0  0  0  0  0  0
   14.2650  -13.5320   -6.3110 H   0  0  0  0  0  0  0  0  0  0  0  0
   12.2176  -11.9141   -4.4058 H   0  0  0  0  0  0  0  0  0  0  0  0
   11.6548  -12.3287   -2.0248 H   0  0  0  0  0  0  0  0  0  0  0  0
   12.0435  -14.5682   -0.9722 H   0  0  0  0  0  0  0  0  0  0  0  0
   14.0063  -16.5402   -5.5985 H   0  0  0  0  0  0  0  0  0  0  0  0
  1  2  1  0
  2  3  1  0
  2  4  1  0
  2  5  1  0
  5  6  1  0
  6  7  1  0
  7  8  2  0
  8  9  1  0
  9 10  1  0
 10 11  1  0
 10 12  1  0
 10 13  1  0
  9 14  2  0
 14 15  1  0
 15 16  2  0
 16 17  1  0
 17 18  1  0
 18 19  1  0
 19 20  2  0
 19 21  1  0
 21 22  1  0
 22 23  2  0
 23 24  1  0
 24 25  2  0
 25 26  1  0
 26 27  1  0
 27 28  1  0
 28 29  2  0
 29 30  1  0
 16  7  1  0
 30 22  1  0
 30 26  2  0
  1 31  1  0
  1 32  1  0
  1 33  1  0
  3 34  1  0
  3 35  1  0
  3 36  1  0
  4 37  1  0
  4 38  1  0
  4 39  1  0
  5 40  1  0
  5 41  1  0
 14 42  1  0
 15 43  1  0
 17 44  1  0
 17 45  1  0
 18 46  1  0
 21 47  1  0
 23 48  1  0
 24 49  1  0
 25 50  1  0
 29 51  1  0
M  CHG  1  27  -1
M  END
>  <meeko>  (9) 
{"is_sidechain": [false], "free_energy": -7.45, "intermolecular_energy": -10.393, "internal_energy": -1.103}

$$$$
