LIB_VNBPNFZLNMXVOP__M_PUB_ALL__e8__s20260927
     RDKit          3D

 61 64  0  0  0  0  0  0  0  0999 V2000
   -3.1230  -11.0650    0.4070 C   0  0  0  0  0  0  0  0  0  0  0  0
   -4.2030  -11.9480   -0.1980 C   0  0  0  0  0  0  0  0  0  0  0  0
   -4.7350  -12.9580    0.8200 C   0  0  0  0  0  0  0  0  0  0  0  0
   -4.1200  -12.7220    2.2060 C   0  0  0  0  0  0  0  0  0  0  0  0
   -3.7600  -14.0260    2.9130 C   0  0  0  0  0  0  0  0  0  0  0  0
   -2.5470  -14.6210    2.8040 C   0  0  0  0  0  0  0  0  0  0  0  0
   -1.5140  -14.0030    1.9380 C   0  0  0  0  0  0  0  0  0  0  0  0
   -1.3600  -14.4150    0.6100 C   0  0  0  0  0  0  0  0  0  0  0  0
   -0.3890  -13.8250   -0.2090 C   0  0  0  0  0  0  0  0  0  0  0  0
    0.4560  -12.8110    0.2750 C   0  0  0  0  0  0  0  0  0  0  0  0
    1.5400  -12.1480   -0.5960 C   0  0  0  0  0  0  0  0  0  0  0  0
    2.8620  -12.0680    0.1970 C   0  0  0  0  0  0  0  0  0  0  0  0
    1.8390  -12.9080   -1.9090 C   0  0  0  0  0  0  0  0  0  0  0  0
    1.0940  -10.7230   -0.9860 C   0  0  0  0  0  0  0  0  0  0  0  0
    0.2860  -12.4120    1.6160 C   0  0  0  0  0  0  0  0  0  0  0  0
   -0.6820  -12.9970    2.4360 C   0  0  0  0  0  0  0  0  0  0  0  0
   -2.2250  -15.8400    3.4350 N   0  0  0  0  0  0  0  0  0  0  0  0
   -0.8750  -16.4380    3.2400 C   0  0  0  0  0  0  0  0  0  0  0  0
   -0.5380  -17.4060    4.3490 C   0  0  0  0  0  0  0  0  0  0  0  0
   -1.6410  -18.4240    4.4100 C   0  0  0  0  0  0  0  0  0  0  0  0
   -2.9020  -17.7210    4.6100 N   0  0  0  0  0  0  0  0  0  0  0  0
   -3.1530  -16.5020    4.1400 C   0  0  0  0  0  0  0  0  0  0  0  0
   -4.4740  -15.8820    4.4110 C   0  0  0  0  0  0  0  0  0  0  0  0
   -5.4250  -16.4610    5.2820 C   0  0  0  0  0  0  0  0  0  0  0  0
   -6.6640  -15.8620    5.5070 C   0  0  0  0  0  0  0  0  0  0  0  0
   -6.9740  -14.6720    4.8730 C   0  0  0  0  0  0  0  0  0  0  0  0
   -6.0410  -14.0740    4.0250 C   0  0  0  0  0  0  0  0  0  0  0  0
   -4.7830  -14.6580    3.7880 C   0  0  0  0  0  0  0  0  0  0  0  0
   -3.1820  -11.1133    1.5044 H   0  0  0  0  0  0  0  0  0  0  0  0
   -2.1343  -11.4168    0.0772 H   0  0  0  0  0  0  0  0  0  0  0  0
   -3.2713  -10.0262    0.0772 H   0  0  0  0  0  0  0  0  0  0  0  0
   -5.0339  -11.3134   -0.5399 H   0  0  0  0  0  0  0  0  0  0  0  0
   -3.7637  -12.5040   -1.0394 H   0  0  0  0  0  0  0  0  0  0  0  0
   -5.8280  -12.8558    0.8899 H   0  0  0  0  0  0  0  0  0  0  0  0
   -4.4618  -13.9692    0.4842 H   0  0  0  0  0  0  0  0  0  0  0  0
   -3.2069  -12.1198    2.0893 H   0  0  0  0  0  0  0  0  0  0  0  0
   -4.8696  -12.2029    2.8214 H   0  0  0  0  0  0  0  0  0  0  0  0
   -2.0063  -15.2082    0.2060 H   0  0  0  0  0  0  0  0  0  0  0  0
   -0.2856  -14.1615   -1.2511 H   0  0  0  0  0  0  0  0  0  0  0  0
    2.6442  -12.0812    1.2751 H   0  0  0  0  0  0  0  0  0  0  0  0
    3.4962  -12.9294   -0.0595 H   0  0  0  0  0  0  0  0  0  0  0  0
    3.3877  -11.1364   -0.0595 H   0  0  0  0  0  0  0  0  0  0  0  0
    2.2323  -13.9077   -1.6726 H   0  0  0  0  0  0  0  0  0  0  0  0
    0.9129  -13.0073   -2.4942 H   0  0  0  0  0  0  0  0  0  0  0  0
    2.5845  -12.3497   -2.4942 H   0  0  0  0  0  0  0  0  0  0  0  0
    0.9098  -10.1343   -0.0752 H   0  0  0  0  0  0  0  0  0  0  0  0
    1.8843  -10.2412   -1.5804 H   0  0  0  0  0  0  0  0  0  0  0  0
    0.1700  -10.7778   -1.5804 H   0  0  0  0  0  0  0  0  0  0  0  0
    0.9309  -11.6211    2.0267 H   0  0  0  0  0  0  0  0  0  0  0  0
   -0.7897  -12.6640    3.4788 H   0  0  0  0  0  0  0  0  0  0  0  0
   -0.8556  -16.9731    2.2791 H   0  0  0  0  0  0  0  0  0  0  0  0
   -0.1316  -15.6272    3.2492 H   0  0  0  0  0  0  0  0  0  0  0  0
    0.4201  -17.9026    4.1359 H   0  0  0  0  0  0  0  0  0  0  0  0
   -0.4445  -16.8778    5.3094 H   0  0  0  0  0  0  0  0  0  0  0  0
   -1.6765  -18.9909    3.4680 H   0  0  0  0  0  0  0  0  0  0  0  0
   -1.4632  -19.1263    5.2377 H   0  0  0  0  0  0  0  0  0  0  0  0
   -3.6350  -18.2110    5.1040 H   0  0  0  0  0  0  0  0  0  0  0  0
   -5.1825  -17.4043    5.7932 H   0  0  0  0  0  0  0  0  0  0  0  0
   -7.3910  -16.3331    6.1849 H   0  0  0  0  0  0  0  0  0  0  0  0
   -7.9533  -14.1986    5.0370 H   0  0  0  0  0  0  0  0  0  0  0  0
   -6.2947  -13.1247    3.5307 H   0  0  0  0  0  0  0  0  0  0  0  0
  1  2  1  0
  2  3  1  0
  3  4  1  0
  4  5  1  0
  5  6  2  0
  6  7  1  0
  7  8  2  0
  8  9  1  0
  9 10  2  0
 10 11  1  0
 11 12  1  0
 11 13  1  0
 11 14  1  0
 10 15  1  0
 15 16  2  0
  6 17  1  0
 17 18  1  0
 18 19  1  0
 19 20  1  0
 20 21  1  0
 21 22  2  0
 22 23  1  0
 23 24  2  0
 24 25  1  0
 25 26  2  0
 26 27  1  0
 27 28  2  0
 28  5  1  0
 16  7  1  0
 22 17  1  0
 28 23  1  0
  1 29  1  0
  1 30  1  0
  1 31  1  0
  2 32  1  0
  2 33  1  0
  3 34  1  0
  3 35  1  0
  4 36  1  0
  4 37  1  0
  8 38  1  0
  9 39  1  0
 12 40  1  0
 12 41  1  0
 12 42  1  0
 13 43  1  0
 13 44  1  0
 13 45  1  0
 14 46  1  0
 14 47  1  0
 14 48  1  0
 15 49  1  0
 16 50  1  0
 18 51  1  0
 18 52  1  0
 19 53  1  0
 19 54  1  0
 20 55  1  0
 20 56  1  0
 21 57  1  0
 24 58  1  0
 25 59  1  0
 26 60  1  0
 27 61  1  0
M  CHG  1  21   1
M  END
>  <meeko>  (1) 
{"is_sidechain": [false], "free_energy": -6.959, "intermolecular_energy": -8.993, "internal_energy": -1.845}

$$$$
LIB_VNBPNFZLNMXVOP__M_PUB_ALL__e8__s20260927
     RDKit          3D

 61 64  0  0  0  0  0  0  0  0999 V2000
    0.4620  -17.4370    1.7580 C   0  0  0  0  0  0  0  0  0  0  0  0
   -0.4350  -17.1570    0.5640 C   0  0  0  0  0  0  0  0  0  0  0  0
   -0.0160  -15.8780   -0.1630 C   0  0  0  0  0  0  0  0  0  0  0  0
    0.9410  -15.0420    0.6970 C   0  0  0  0  0  0  0  0  0  0  0  0
    0.4870  -13.5900    0.8290 C   0  0  0  0  0  0  0  0  0  0  0  0
   -0.2750  -13.1390    1.8540 C   0  0  0  0  0  0  0  0  0  0  0  0
   -0.7240  -14.0940    2.8960 C   0  0  0  0  0  0  0  0  0  0  0  0
    0.0840  -14.3700    4.0040 C   0  0  0  0  0  0  0  0  0  0  0  0
   -0.3440  -15.2660    4.9910 C   0  0  0  0  0  0  0  0  0  0  0  0
   -1.5890  -15.9120    4.8990 C   0  0  0  0  0  0  0  0  0  0  0  0
   -2.0870  -16.9100    5.9620 C   0  0  0  0  0  0  0  0  0  0  0  0
   -1.8510  -18.3530    5.4660 C   0  0  0  0  0  0  0  0  0  0  0  0
   -1.3770  -16.7740    7.3290 C   0  0  0  0  0  0  0  0  0  0  0  0
   -3.5960  -16.6970    6.2090 C   0  0  0  0  0  0  0  0  0  0  0  0
   -2.3870  -15.6230    3.7750 C   0  0  0  0  0  0  0  0  0  0  0  0
   -1.9650  -14.7280    2.7880 C   0  0  0  0  0  0  0  0  0  0  0  0
   -0.7160  -11.8040    1.9600 N   0  0  0  0  0  0  0  0  0  0  0  0
   -1.5740  -11.3990    3.1080 C   0  0  0  0  0  0  0  0  0  0  0  0
   -1.5130   -9.9070    3.3380 C   0  0  0  0  0  0  0  0  0  0  0  0
   -1.8830   -9.2360    2.0470 C   0  0  0  0  0  0  0  0  0  0  0  0
   -0.9730   -9.7050    1.0100 N   0  0  0  0  0  0  0  0  0  0  0  0
   -0.4360  -10.9210    0.9910 C   0  0  0  0  0  0  0  0  0  0  0  0
    0.4840  -11.2870   -0.1150 C   0  0  0  0  0  0  0  0  0  0  0  0
    0.9420  -10.3490   -1.0680 C   0  0  0  0  0  0  0  0  0  0  0  0
    1.7960  -10.7250   -2.1050 C   0  0  0  0  0  0  0  0  0  0  0  0
    2.2130  -12.0400   -2.2060 C   0  0  0  0  0  0  0  0  0  0  0  0
    1.7880  -12.9770   -1.2640 C   0  0  0  0  0  0  0  0  0  0  0  0
    0.9310  -12.6190   -0.2060 C   0  0  0  0  0  0  0  0  0  0  0  0
   -0.0995  -17.2617    2.6875 H   0  0  0  0  0  0  0  0  0  0  0  0
    0.7998  -18.4833    1.7254 H   0  0  0  0  0  0  0  0  0  0  0  0
    1.3351  -16.7686    1.7254 H   0  0  0  0  0  0  0  0  0  0  0  0
   -0.3728  -18.0031   -0.1362 H   0  0  0  0  0  0  0  0  0  0  0  0
   -1.4645  -17.0258    0.9285 H   0  0  0  0  0  0  0  0  0  0  0  0
    0.4881  -16.1477   -1.1028 H   0  0  0  0  0  0  0  0  0  0  0  0
   -0.9168  -15.2800   -0.3652 H   0  0  0  0  0  0  0  0  0  0  0  0
    0.9948  -15.4880    1.7011 H   0  0  0  0  0  0  0  0  0  0  0  0
    1.9237  -15.0426    0.2026 H   0  0  0  0  0  0  0  0  0  0  0  0
    1.0636  -13.8791    4.1006 H   0  0  0  0  0  0  0  0  0  0  0  0
    0.3063  -15.4683    5.8548 H   0  0  0  0  0  0  0  0  0  0  0  0
   -1.7412  -19.0245    6.3303 H   0  0  0  0  0  0  0  0  0  0  0  0
   -2.7082  -18.6763    4.8571 H   0  0  0  0  0  0  0  0  0  0  0  0
   -0.9355  -18.3863    4.8571 H   0  0  0  0  0  0  0  0  0  0  0  0
   -2.1091  -16.9142    8.1380 H   0  0  0  0  0  0  0  0  0  0  0  0
   -0.5895  -17.5376    7.4107 H   0  0  0  0  0  0  0  0  0  0  0  0
   -0.9274  -15.7734    7.4107 H   0  0  0  0  0  0  0  0  0  0  0  0
   -3.7901  -16.6696    7.2914 H   0  0  0  0  0  0  0  0  0  0  0  0
   -3.9110  -15.7455    5.7558 H   0  0  0  0  0  0  0  0  0  0  0  0
   -4.1621  -17.5241    5.7558 H   0  0  0  0  0  0  0  0  0  0  0  0
   -3.3661  -16.1136    3.6715 H   0  0  0  0  0  0  0  0  0  0  0  0
   -2.6121  -14.5217    1.9227 H   0  0  0  0  0  0  0  0  0  0  0  0
   -2.6145  -11.6870    2.8971 H   0  0  0  0  0  0  0  0  0  0  0  0
   -1.2063  -11.9055    4.0126 H   0  0  0  0  0  0  0  0  0  0  0  0
   -2.2227   -9.6194    4.1277 H   0  0  0  0  0  0  0  0  0  0  0  0
   -0.5044   -9.6050    3.6565 H   0  0  0  0  0  0  0  0  0  0  0  0
   -2.9180   -9.4931    1.7776 H   0  0  0  0  0  0  0  0  0  0  0  0
   -1.8067   -8.1437    2.1523 H   0  0  0  0  0  0  0  0  0  0  0  0
   -0.7750   -9.0750    0.2450 H   0  0  0  0  0  0  0  0  0  0  0  0
    0.6183   -9.3006   -0.9903 H   0  0  0  0  0  0  0  0  0  0  0  0
    2.1361   -9.9794   -2.8388 H   0  0  0  0  0  0  0  0  0  0  0  0
    2.8780  -12.3461   -3.0270 H   0  0  0  0  0  0  0  0  0  0  0  0
    2.1301  -14.0189   -1.3498 H   0  0  0  0  0  0  0  0  0  0  0  0
  1  2  1  0
  2  3  1  0
  3  4  1  0
  4  5  1  0
  5  6  2  0
  6  7  1  0
  7  8  2  0
  8  9  1  0
  9 10  2  0
 10 11  1  0
 11 12  1  0
 11 13  1  0
 11 14  1  0
 10 15  1  0
 15 16  2  0
  6 17  1  0
 17 18  1  0
 18 19  1  0
 19 20  1  0
 20 21  1  0
 21 22  2  0
 22 23  1  0
 23 24  2  0
 24 25  1  0
 25 26  2  0
 26 27  1  0
 27 28  2  0
 28  5  1  0
 16  7  1  0
 22 17  1  0
 28 23  1  0
  1 29  1  0
  1 30  1  0
  1 31  1  0
  2 32  1  0
  2 33  1  0
  3 34  1  0
  3 35  1  0
  4 36  1  0
  4 37  1  0
  8 38  1  0
  9 39  1  0
 12 40  1  0
 12 41  1  0
 12 42  1  0
 13 43  1  0
 13 44  1  0
 13 45  1  0
 14 46  1  0
 14 47  1  0
 14 48  1  0
 15 49  1  0
 16 50  1  0
 18 51  1  0
 18 52  1  0
 19 53  1  0
 19 54  1  0
 20 55  1  0
 20 56  1  0
 21 57  1  0
 24 58  1  0
 25 59  1  0
 26 60  1  0
 27 61  1  0
M  CHG  1  21   1
M  END
>  <meeko>  (2) 
{"is_sidechain": [false], "free_energy": -6.947, "intermolecular_energy": -8.96, "internal_energy": -1.862}

$$$$
LIB_VNBPNFZLNMXVOP__M_PUB_ALL__e8__s20260927
     RDKit          3D

 61 64  0  0  0  0  0  0  0  0999 V2000
   -4.5320  -10.6570   -0.7930 C   0  0  0  0  0  0  0  0  0  0  0  0
   -3.2960  -10.1760   -0.0510 C   0  0  0  0  0  0  0  0  0  0  0  0
   -2.4850  -11.3490    0.5040 C   0  0  0  0  0  0  0  0  0  0  0  0
   -3.1250  -12.6910    0.1250 C   0  0  0  0  0  0  0  0  0  0  0  0
   -2.8820  -13.7690    1.1790 C   0  0  0  0  0  0  0  0  0  0  0  0
   -1.7670  -14.5370    1.2140 C   0  0  0  0  0  0  0  0  0  0  0  0
   -0.7300  -14.3560    0.1700 C   0  0  0  0  0  0  0  0  0  0  0  0
    0.3110  -13.4390    0.3520 C   0  0  0  0  0  0  0  0  0  0  0  0
    1.2930  -13.2750   -0.6320 C   0  0  0  0  0  0  0  0  0  0  0  0
    1.2640  -14.0180   -1.8240 C   0  0  0  0  0  0  0  0  0  0  0  0
    2.3230  -13.8550   -2.9310 C   0  0  0  0  0  0  0  0  0  0  0  0
    2.9570  -12.4500   -2.8370 C   0  0  0  0  0  0  0  0  0  0  0  0
    3.4750  -14.8830   -2.8500 C   0  0  0  0  0  0  0  0  0  0  0  0
    1.6590  -14.0220   -4.3150 C   0  0  0  0  0  0  0  0  0  0  0  0
    0.2060  -14.9350   -1.9900 C   0  0  0  0  0  0  0  0  0  0  0  0
   -0.7770  -15.1040   -1.0100 C   0  0  0  0  0  0  0  0  0  0  0  0
   -1.5580  -15.5510    2.1720 N   0  0  0  0  0  0  0  0  0  0  0  0
   -0.3130  -16.3670    2.1220 C   0  0  0  0  0  0  0  0  0  0  0  0
   -0.0220  -17.0060    3.4600 C   0  0  0  0  0  0  0  0  0  0  0  0
   -1.2390  -17.7920    3.8590 C   0  0  0  0  0  0  0  0  0  0  0  0
   -2.3810  -16.8870    3.8790 N   0  0  0  0  0  0  0  0  0  0  0  0
   -2.5080  -15.8370    3.0720 C   0  0  0  0  0  0  0  0  0  0  0  0
   -3.7160  -14.9810    3.1870 C   0  0  0  0  0  0  0  0  0  0  0  0
   -4.6660  -15.1360    4.2220 C   0  0  0  0  0  0  0  0  0  0  0  0
   -5.7980  -14.3260    4.2960 C   0  0  0  0  0  0  0  0  0  0  0  0
   -6.0000  -13.3420    3.3450 C   0  0  0  0  0  0  0  0  0  0  0  0
   -5.0640  -13.1600    2.3270 C   0  0  0  0  0  0  0  0  0  0  0  0
   -3.9110  -13.9630    2.2350 C   0  0  0  0  0  0  0  0  0  0  0  0
   -5.3021  -10.9567   -0.0669 H   0  0  0  0  0  0  0  0  0  0  0  0
   -4.9200   -9.8442   -1.4246 H   0  0  0  0  0  0  0  0  0  0  0  0
   -4.2685  -11.5182   -1.4246 H   0  0  0  0  0  0  0  0  0  0  0  0
   -2.6644   -9.6004   -0.7436 H   0  0  0  0  0  0  0  0  0  0  0  0
   -3.6212   -9.5503    0.7932 H   0  0  0  0  0  0  0  0  0  0  0  0
   -1.4658  -11.3079    0.0922 H   0  0  0  0  0  0  0  0  0  0  0  0
   -2.4621  -11.2701    1.6009 H   0  0  0  0  0  0  0  0  0  0  0  0
   -4.2094  -12.5458    0.0114 H   0  0  0  0  0  0  0  0  0  0  0  0
   -2.6636  -13.0297   -0.8144 H   0  0  0  0  0  0  0  0  0  0  0  0
    0.3581  -12.8426    1.2751 H   0  0  0  0  0  0  0  0  0  0  0  0
    2.1037  -12.5497   -0.4686 H   0  0  0  0  0  0  0  0  0  0  0  0
    3.0816  -12.1739   -1.7795 H   0  0  0  0  0  0  0  0  0  0  0  0
    3.9392  -12.4570   -3.3323 H   0  0  0  0  0  0  0  0  0  0  0  0
    2.3019  -11.7182   -3.3323 H   0  0  0  0  0  0  0  0  0  0  0  0
    3.7077  -15.0906   -1.7951 H   0  0  0  0  0  0  0  0  0  0  0  0
    3.1705  -15.8150   -3.3486 H   0  0  0  0  0  0  0  0  0  0  0  0
    4.3665  -14.4748   -3.3486 H   0  0  0  0  0  0  0  0  0  0  0  0
    0.5998  -14.2884   -4.1838 H   0  0  0  0  0  0  0  0  0  0  0  0
    1.7330  -13.0773   -4.8736 H   0  0  0  0  0  0  0  0  0  0  0  0
    2.1711  -14.8193   -4.8736 H   0  0  0  0  0  0  0  0  0  0  0  0
    0.1526  -15.5318   -2.9125 H   0  0  0  0  0  0  0  0  0  0  0  0
   -1.5900  -15.8279   -1.1681 H   0  0  0  0  0  0  0  0  0  0  0  0
   -0.4323  -17.1570    1.3659 H   0  0  0  0  0  0  0  0  0  0  0  0
    0.5263  -15.7047    1.8633 H   0  0  0  0  0  0  0  0  0  0  0  0
    0.8466  -17.6756    3.3755 H   0  0  0  0  0  0  0  0  0  0  0  0
    0.2083  -16.2389    4.2140 H   0  0  0  0  0  0  0  0  0  0  0  0
   -1.4160  -18.5984    3.1321 H   0  0  0  0  0  0  0  0  0  0  0  0
   -1.0923  -18.2397    4.8530 H   0  0  0  0  0  0  0  0  0  0  0  0
   -3.1330  -17.1000    4.5200 H   0  0  0  0  0  0  0  0  0  0  0  0
   -4.5087  -15.9123    4.9853 H   0  0  0  0  0  0  0  0  0  0  0  0
   -6.5274  -14.4686    5.1070 H   0  0  0  0  0  0  0  0  0  0  0  0
   -6.8957  -12.7052    3.3914 H   0  0  0  0  0  0  0  0  0  0  0  0
   -5.2304  -12.3710    1.5788 H   0  0  0  0  0  0  0  0  0  0  0  0
  1  2  1  0
  2  3  1  0
  3  4  1  0
  4  5  1  0
  5  6  2  0
  6  7  1  0
  7  8  2  0
  8  9  1  0
  9 10  2  0
 10 11  1  0
 11 12  1  0
 11 13  1  0
 11 14  1  0
 10 15  1  0
 15 16  2  0
  6 17  1  0
 17 18  1  0
 18 19  1  0
 19 20  1  0
 20 21  1  0
 21 22  2  0
 22 23  1  0
 23 24  2  0
 24 25  1  0
 25 26  2  0
 26 27  1  0
 27 28  2  0
 28  5  1  0
 16  7  1  0
 22 17  1  0
 28 23  1  0
  1 29  1  0
  1 30  1  0
  1 31  1  0
  2 32  1  0
  2 33  1  0
  3 34  1  0
  3 35  1  0
  4 36  1  0
  4 37  1  0
  8 38  1  0
  9 39  1  0
 12 40  1  0
 12 41  1  0
 12 42  1  0
 13 43  1  0
 13 44  1  0
 13 45  1  0
 14 46  1  0
 14 47  1  0
 14 48  1  0
 15 49  1  0
 16 50  1  0
 18 51  1  0
 18 52  1  0
 19 53  1  0
 19 54  1  0
 20 55  1  0
 20 56  1  0
 21 57  1  0
 24 58  1  0
 25 59  1  0
 26 60  1  0
 27 61  1  0
M  CHG  1  21   1
M  END
>  <meeko>  (3) 
{"is_sidechain": [false], "free_energy": -6.785, "intermolecular_energy": -9.372, "internal_energy": -1.241}

$$$$
LIB_VNBPNFZLNMXVOP__M_PUB_ALL__e8__s20260927
     RDKit          3D

 61 64  0  0  0  0  0  0  0  0999 V2000
    1.8460  -14.8160    2.8570 C   0  0  0  0  0  0  0  0  0  0  0  0
    2.5540  -15.8170    1.9570 C   0  0  0  0  0  0  0  0  0  0  0  0
    3.8130  -15.2140    1.3320 C   0  0  0  0  0  0  0  0  0  0  0  0
    3.8290  -13.6870    1.4840 C   0  0  0  0  0  0  0  0  0  0  0  0
    4.0870  -12.9730    0.1590 C   0  0  0  0  0  0  0  0  0  0  0  0
    3.0970  -12.5150   -0.6440 C   0  0  0  0  0  0  0  0  0  0  0  0
    1.6850  -12.7340   -0.2480 C   0  0  0  0  0  0  0  0  0  0  0  0
    0.9890  -13.8650   -0.6870 C   0  0  0  0  0  0  0  0  0  0  0  0
   -0.3420  -14.0740   -0.3060 C   0  0  0  0  0  0  0  0  0  0  0  0
   -1.0160  -13.1590    0.5210 C   0  0  0  0  0  0  0  0  0  0  0  0
   -2.4830  -13.3540    0.9520 C   0  0  0  0  0  0  0  0  0  0  0  0
   -3.3560  -12.2470    0.3230 C   0  0  0  0  0  0  0  0  0  0  0  0
   -3.0850  -14.7110    0.5230 C   0  0  0  0  0  0  0  0  0  0  0  0
   -2.5880  -13.2730    2.4900 C   0  0  0  0  0  0  0  0  0  0  0  0
   -0.2990  -12.0250    0.9510 C   0  0  0  0  0  0  0  0  0  0  0  0
    1.0300  -11.8130    0.5740 C   0  0  0  0  0  0  0  0  0  0  0  0
    3.3360  -11.8810   -1.8810 N   0  0  0  0  0  0  0  0  0  0  0  0
    2.1870  -11.4320   -2.7150 C   0  0  0  0  0  0  0  0  0  0  0  0
    2.6050  -10.3580   -3.6910 C   0  0  0  0  0  0  0  0  0  0  0  0
    3.7530  -10.9000   -4.4940 C   0  0  0  0  0  0  0  0  0  0  0  0
    4.8100  -11.2950   -3.5720 N   0  0  0  0  0  0  0  0  0  0  0  0
    4.5870  -11.7550   -2.3440 C   0  0  0  0  0  0  0  0  0  0  0  0
    5.7460  -12.1220   -1.4910 C   0  0  0  0  0  0  0  0  0  0  0  0
    7.0830  -11.8570   -1.8630 C   0  0  0  0  0  0  0  0  0  0  0  0
    8.1510  -12.2260   -1.0460 C   0  0  0  0  0  0  0  0  0  0  0  0
    7.9050  -12.8580    0.1590 C   0  0  0  0  0  0  0  0  0  0  0  0
    6.5910  -13.1110    0.5540 C   0  0  0  0  0  0  0  0  0  0  0  0
    5.4970  -12.7430   -0.2520 C   0  0  0  0  0  0  0  0  0  0  0  0
    2.0297  -15.0757    3.9100 H   0  0  0  0  0  0  0  0  0  0  0  0
    2.2314  -13.8055    2.6560 H   0  0  0  0  0  0  0  0  0  0  0  0
    0.7649  -14.8428    2.6560 H   0  0  0  0  0  0  0  0  0  0  0  0
    2.8370  -16.6968    2.5536 H   0  0  0  0  0  0  0  0  0  0  0  0
    1.8666  -16.0994    1.1460 H   0  0  0  0  0  0  0  0  0  0  0  0
    4.6985  -15.6340    1.8316 H   0  0  0  0  0  0  0  0  0  0  0  0
    3.8217  -15.4582    0.2595 H   0  0  0  0  0  0  0  0  0  0  0  0
    2.8548  -13.3609    1.8772 H   0  0  0  0  0  0  0  0  0  0  0  0
    4.6482  -13.4267    2.1704 H   0  0  0  0  0  0  0  0  0  0  0  0
    1.4915  -14.5964   -1.3370 H   0  0  0  0  0  0  0  0  0  0  0  0
   -0.8702  -14.9713   -0.6606 H   0  0  0  0  0  0  0  0  0  0  0  0
   -3.8250  -11.6523    1.1207 H   0  0  0  0  0  0  0  0  0  0  0  0
   -2.7273  -11.5938   -0.2999 H   0  0  0  0  0  0  0  0  0  0  0  0
   -4.1378  -12.7061   -0.2999 H   0  0  0  0  0  0  0  0  0  0  0  0
   -3.3446  -15.2962    1.4175 H   0  0  0  0  0  0  0  0  0  0  0  0
   -3.9905  -14.5372   -0.0770 H   0  0  0  0  0  0  0  0  0  0  0  0
   -2.3485  -15.2656   -0.0770 H   0  0  0  0  0  0  0  0  0  0  0  0
   -1.7948  -13.8849    2.9444 H   0  0  0  0  0  0  0  0  0  0  0  0
   -2.4734  -12.2271    2.8108 H   0  0  0  0  0  0  0  0  0  0  0  0
   -3.5706  -13.6493    2.8108 H   0  0  0  0  0  0  0  0  0  0  0  0
   -0.7971  -11.2888    1.5990 H   0  0  0  0  0  0  0  0  0  0  0  0
    1.5628  -10.9173    0.9258 H   0  0  0  0  0  0  0  0  0  0  0  0
    1.7933  -12.2925   -3.2758 H   0  0  0  0  0  0  0  0  0  0  0  0
    1.4162  -11.0160   -2.0496 H   0  0  0  0  0  0  0  0  0  0  0  0
    1.7657  -10.1082   -4.3568 H   0  0  0  0  0  0  0  0  0  0  0  0
    2.9031   -9.4437   -3.1569 H   0  0  0  0  0  0  0  0  0  0  0  0
    3.4210  -11.7729   -5.0753 H   0  0  0  0  0  0  0  0  0  0  0  0
    4.1241  -10.1333   -5.1900 H   0  0  0  0  0  0  0  0  0  0  0  0
    5.7620  -11.2490   -3.9080 H   0  0  0  0  0  0  0  0  0  0  0  0
    7.2857  -11.3488   -2.8173 H   0  0  0  0  0  0  0  0  0  0  0  0
    9.1844  -12.0153   -1.3586 H   0  0  0  0  0  0  0  0  0  0  0  0
    8.7429  -13.1604    0.8043 H   0  0  0  0  0  0  0  0  0  0  0  0
    6.4056  -13.6093    1.5170 H   0  0  0  0  0  0  0  0  0  0  0  0
  1  2  1  0
  2  3  1  0
  3  4  1  0
  4  5  1  0
  5  6  2  0
  6  7  1  0
  7  8  2  0
  8  9  1  0
  9 10  2  0
 10 11  1  0
 11 12  1  0
 11 13  1  0
 11 14  1  0
 10 15  1  0
 15 16  2  0
  6 17  1  0
 17 18  1  0
 18 19  1  0
 19 20  1  0
 20 21  1  0
 21 22  2  0
 22 23  1  0
 23 24  2  0
 24 25  1  0
 25 26  2  0
 26 27  1  0
 27 28  2  0
 28  5  1  0
 16  7  1  0
 22 17  1  0
 28 23  1  0
  1 29  1  0
  1 30  1  0
  1 31  1  0
  2 32  1  0
  2 33  1  0
  3 34  1  0
  3 35  1  0
  4 36  1  0
  4 37  1  0
  8 38  1  0
  9 39  1  0
 12 40  1  0
 12 41  1  0
 12 42  1  0
 13 43  1  0
 13 44  1  0
 13 45  1  0
 14 46  1  0
 14 47  1  0
 14 48  1  0
 15 49  1  0
 16 50  1  0
 18 51  1  0
 18 52  1  0
 19 53  1  0
 19 54  1  0
 20 55  1  0
 20 56  1  0
 21 57  1  0
 24 58  1  0
 25 59  1  0
 26 60  1  0
 27 61  1  0
M  CHG  1  21   1
M  END
>  <meeko>  (4) 
{"is_sidechain": [false], "free_energy": -6.642, "intermolecular_energy": -8.585, "internal_energy": -1.844}

$$$$
LIB_VNBPNFZLNMXVOP__M_PUB_ALL__e8__s20260927
     RDKit          3D

 61 64  0  0  0  0  0  0  0  0999 V2000
    3.6920  -16.4380   -0.6050 C   0  0  0  0  0  0  0  0  0  0  0  0
    4.4740  -15.5130    0.3150 C   0  0  0  0  0  0  0  0  0  0  0  0
    3.7710  -15.3420    1.6630 C   0  0  0  0  0  0  0  0  0  0  0  0
    2.3210  -15.8420    1.5990 C   0  0  0  0  0  0  0  0  0  0  0  0
    1.3270  -14.8170    2.1390 C   0  0  0  0  0  0  0  0  0  0  0  0
    0.7630  -13.8520    1.3730 C   0  0  0  0  0  0  0  0  0  0  0  0
    1.1390  -13.7530   -0.0580 C   0  0  0  0  0  0  0  0  0  0  0  0
    0.5350  -14.5800   -1.0110 C   0  0  0  0  0  0  0  0  0  0  0  0
    0.8850  -14.4800   -2.3620 C   0  0  0  0  0  0  0  0  0  0  0  0
    1.8480  -13.5540   -2.8010 C   0  0  0  0  0  0  0  0  0  0  0  0
    2.2630  -13.4240   -4.2790 C   0  0  0  0  0  0  0  0  0  0  0  0
    1.1070  -13.9030   -5.1840 C   0  0  0  0  0  0  0  0  0  0  0  0
    2.6110  -11.9800   -4.7060 C   0  0  0  0  0  0  0  0  0  0  0  0
    3.5110  -14.2930   -4.5460 C   0  0  0  0  0  0  0  0  0  0  0  0
    2.4460  -12.7320   -1.8250 C   0  0  0  0  0  0  0  0  0  0  0  0
    2.0990  -12.8270   -0.4750 C   0  0  0  0  0  0  0  0  0  0  0  0
   -0.1330  -12.8890    1.8800 N   0  0  0  0  0  0  0  0  0  0  0  0
   -0.6870  -11.8460    0.9730 C   0  0  0  0  0  0  0  0  0  0  0  0
   -1.9660  -11.2620    1.5240 C   0  0  0  0  0  0  0  0  0  0  0  0
   -1.6720  -10.7580    2.9080 C   0  0  0  0  0  0  0  0  0  0  0  0
   -1.1480  -11.8650    3.6970 N   0  0  0  0  0  0  0  0  0  0  0  0
   -0.4240  -12.8590    3.1880 C   0  0  0  0  0  0  0  0  0  0  0  0
    0.0530  -13.9380    4.0890 C   0  0  0  0  0  0  0  0  0  0  0  0
   -0.3590  -14.0450    5.4370 C   0  0  0  0  0  0  0  0  0  0  0  0
    0.1180  -15.0630    6.2630 C   0  0  0  0  0  0  0  0  0  0  0  0
    1.0060  -15.9950    5.7590 C   0  0  0  0  0  0  0  0  0  0  0  0
    1.4090  -15.9190    4.4250 C   0  0  0  0  0  0  0  0  0  0  0  0
    0.9370  -14.9030    3.5720 C   0  0  0  0  0  0  0  0  0  0  0  0
    3.0985  -17.1400   -0.0009 H   0  0  0  0  0  0  0  0  0  0  0  0
    3.0201  -15.8416   -1.2397 H   0  0  0  0  0  0  0  0  0  0  0  0
    4.3919  -17.0013   -1.2397 H   0  0  0  0  0  0  0  0  0  0  0  0
    5.4742  -15.9384    0.4843 H   0  0  0  0  0  0  0  0  0  0  0  0
    4.5459  -14.5262   -0.1657 H   0  0  0  0  0  0  0  0  0  0  0  0
    4.3154  -15.9162    2.4272 H   0  0  0  0  0  0  0  0  0  0  0  0
    3.7600  -14.2719    1.9174 H   0  0  0  0  0  0  0  0  0  0  0  0
    2.0687  -16.0604    0.5508 H   0  0  0  0  0  0  0  0  0  0  0  0
    2.2488  -16.7421    2.2272 H   0  0  0  0  0  0  0  0  0  0  0  0
   -0.2208  -15.3145   -0.6959 H   0  0  0  0  0  0  0  0  0  0  0  0
    0.3971  -15.1389   -3.0954 H   0  0  0  0  0  0  0  0  0  0  0  0
    0.2711  -14.2494   -4.5585 H   0  0  0  0  0  0  0  0  0  0  0  0
    0.7695  -13.0707   -5.8191 H   0  0  0  0  0  0  0  0  0  0  0  0
    1.4571  -14.7301   -5.8191 H   0  0  0  0  0  0  0  0  0  0  0  0
    2.7607  -11.3589   -3.8106 H   0  0  0  0  0  0  0  0  0  0  0  0
    3.5331  -11.9871   -5.3057 H   0  0  0  0  0  0  0  0  0  0  0  0
    1.7869  -11.5663   -5.3057 H   0  0  0  0  0  0  0  0  0  0  0  0
    3.9545  -14.6018   -3.5879 H   0  0  0  0  0  0  0  0  0  0  0  0
    3.2206  -15.1852   -5.1201 H   0  0  0  0  0  0  0  0  0  0  0  0
    4.2470  -13.7111   -5.1201 H   0  0  0  0  0  0  0  0  0  0  0  0
    3.2046  -11.9976   -2.1336 H   0  0  0  0  0  0  0  0  0  0  0  0
    2.5834  -12.1703    0.2626 H   0  0  0  0  0  0  0  0  0  0  0  0
    0.0539  -11.0411    0.8579 H   0  0  0  0  0  0  0  0  0  0  0  0
   -0.9088  -12.3129    0.0020 H   0  0  0  0  0  0  0  0  0  0  0  0
   -2.3055  -10.4325    0.8863 H   0  0  0  0  0  0  0  0  0  0  0  0
   -2.7603  -12.0226    1.5490 H   0  0  0  0  0  0  0  0  0  0  0  0
   -0.9265   -9.9506    2.8591 H   0  0  0  0  0  0  0  0  0  0  0  0
   -2.5891  -10.3642    3.3704 H   0  0  0  0  0  0  0  0  0  0  0  0
   -1.3170  -11.8490    4.6930 H   0  0  0  0  0  0  0  0  0  0  0  0
   -1.0702  -13.3106    5.8429 H   0  0  0  0  0  0  0  0  0  0  0  0
   -0.2110  -15.1239    7.3109 H   0  0  0  0  0  0  0  0  0  0  0  0
    1.3939  -16.7943    6.4076 H   0  0  0  0  0  0  0  0  0  0  0  0
    2.1107  -16.6692    4.0314 H   0  0  0  0  0  0  0  0  0  0  0  0
  1  2  1  0
  2  3  1  0
  3  4  1  0
  4  5  1  0
  5  6  2  0
  6  7  1  0
  7  8  2  0
  8  9  1  0
  9 10  2  0
 10 11  1  0
 11 12  1  0
 11 13  1  0
 11 14  1  0
 10 15  1  0
 15 16  2  0
  6 17  1  0
 17 18  1  0
 18 19  1  0
 19 20  1  0
 20 21  1  0
 21 22  2  0
 22 23  1  0
 23 24  2  0
 24 25  1  0
 25 26  2  0
 26 27  1  0
 27 28  2  0
 28  5  1  0
 16  7  1  0
 22 17  1  0
 28 23  1  0
  1 29  1  0
  1 30  1  0
  1 31  1  0
  2 32  1  0
  2 33  1  0
  3 34  1  0
  3 35  1  0
  4 36  1  0
  4 37  1  0
  8 38  1  0
  9 39  1  0
 12 40  1  0
 12 41  1  0
 12 42  1  0
 13 43  1  0
 13 44  1  0
 13 45  1  0
 14 46  1  0
 14 47  1  0
 14 48  1  0
 15 49  1  0
 16 50  1  0
 18 51  1  0
 18 52  1  0
 19 53  1  0
 19 54  1  0
 20 55  1  0
 20 56  1  0
 21 57  1  0
 24 58  1  0
 25 59  1  0
 26 60  1  0
 27 61  1  0
M  CHG  1  21   1
M  END
>  <meeko>  (5) 
{"is_sidechain": [false], "free_energy": -6.487, "intermolecular_energy": -8.391, "internal_energy": -1.838}

$$$$
LIB_VNBPNFZLNMXVOP__M_PUB_ALL__e8__s20260927
     RDKit          3D

 61 64  0  0  0  0  0  0  0  0999 V2000
    6.2440  -12.7430    1.7270 C   0  0  0  0  0  0  0  0  0  0  0  0
    6.3710  -11.3550    1.1180 C   0  0  0  0  0  0  0  0  0  0  0  0
    7.8000  -11.0810    0.6450 C   0  0  0  0  0  0  0  0  0  0  0  0
    8.7090  -12.2900    0.9030 C   0  0  0  0  0  0  0  0  0  0  0  0
    9.6260  -12.5920   -0.2800 C   0  0  0  0  0  0  0  0  0  0  0  0
    9.2690  -13.3950   -1.3120 C   0  0  0  0  0  0  0  0  0  0  0  0
    7.9360  -14.0430   -1.2960 C   0  0  0  0  0  0  0  0  0  0  0  0
    6.8530  -13.4620   -1.9640 C   0  0  0  0  0  0  0  0  0  0  0  0
    5.5970  -14.0790   -1.9550 C   0  0  0  0  0  0  0  0  0  0  0  0
    5.3850  -15.2930   -1.2770 C   0  0  0  0  0  0  0  0  0  0  0  0
    4.0140  -15.9940   -1.2390 C   0  0  0  0  0  0  0  0  0  0  0  0
    4.1650  -17.4510   -1.7260 C   0  0  0  0  0  0  0  0  0  0  0  0
    3.3770  -16.0460    0.1690 C   0  0  0  0  0  0  0  0  0  0  0  0
    3.0230  -15.2490   -2.1600 C   0  0  0  0  0  0  0  0  0  0  0  0
    6.4870  -15.8610   -0.6080 C   0  0  0  0  0  0  0  0  0  0  0  0
    7.7440  -15.2490   -0.6160 C   0  0  0  0  0  0  0  0  0  0  0  0
   10.1270  -13.6940   -2.3900 N   0  0  0  0  0  0  0  0  0  0  0  0
    9.6630  -14.6080   -3.4710 C   0  0  0  0  0  0  0  0  0  0  0  0
   10.4580  -14.4060   -4.7390 C   0  0  0  0  0  0  0  0  0  0  0  0
   11.9100  -14.5750   -4.3940 C   0  0  0  0  0  0  0  0  0  0  0  0
   12.2420  -13.6270   -3.3380 N   0  0  0  0  0  0  0  0  0  0  0  0
   11.3830  -13.2270   -2.4040 C   0  0  0  0  0  0  0  0  0  0  0  0
   11.8330  -12.2520   -1.3800 C   0  0  0  0  0  0  0  0  0  0  0  0
   13.0880  -11.6040   -1.4420 C   0  0  0  0  0  0  0  0  0  0  0  0
   13.4890  -10.7020   -0.4570 C   0  0  0  0  0  0  0  0  0  0  0  0
   12.6440  -10.4240    0.6030 C   0  0  0  0  0  0  0  0  0  0  0  0
   11.3940  -11.0380    0.6710 C   0  0  0  0  0  0  0  0  0  0  0  0
   10.9650  -11.9480   -0.3140 C   0  0  0  0  0  0  0  0  0  0  0  0
    6.2512  -12.6641    2.8241 H   0  0  0  0  0  0  0  0  0  0  0  0
    5.3001  -13.2025    1.3986 H   0  0  0  0  0  0  0  0  0  0  0  0
    7.0889  -13.3662    1.3986 H   0  0  0  0  0  0  0  0  0  0  0  0
    5.6886  -11.2775    0.2587 H   0  0  0  0  0  0  0  0  0  0  0  0
    6.1137  -10.6140    1.8892 H   0  0  0  0  0  0  0  0  0  0  0  0
    7.7863  -10.8656   -0.4336 H   0  0  0  0  0  0  0  0  0  0  0  0
    8.1948  -10.2212    1.2061 H   0  0  0  0  0  0  0  0  0  0  0  0
    9.3297  -12.0829    1.7872 H   0  0  0  0  0  0  0  0  0  0  0  0
    8.0639  -13.1671    1.0597 H   0  0  0  0  0  0  0  0  0  0  0  0
    6.9898  -12.5118   -2.5011 H   0  0  0  0  0  0  0  0  0  0  0  0
    4.7595  -13.6055   -2.4883 H   0  0  0  0  0  0  0  0  0  0  0  0
    4.2346  -18.1225   -0.8576 H   0  0  0  0  0  0  0  0  0  0  0  0
    3.2906  -17.7270   -2.3337 H   0  0  0  0  0  0  0  0  0  0  0  0
    5.0774  -17.5418   -2.3337 H   0  0  0  0  0  0  0  0  0  0  0  0
    4.1672  -15.9815    0.9315 H   0  0  0  0  0  0  0  0  0  0  0  0
    2.6823  -15.2016    0.2886 H   0  0  0  0  0  0  0  0  0  0  0  0
    2.8284  -16.9919    0.2886 H   0  0  0  0  0  0  0  0  0  0  0  0
    2.2934  -14.7005   -1.5461 H   0  0  0  0  0  0  0  0  0  0  0  0
    3.5746  -14.5400   -2.7949 H   0  0  0  0  0  0  0  0  0  0  0  0
    2.4952  -15.9758   -2.7949 H   0  0  0  0  0  0  0  0  0  0  0  0
    6.3553  -16.8092   -0.0661 H   0  0  0  0  0  0  0  0  0  0  0  0
    8.5852  -15.7185   -0.0850 H   0  0  0  0  0  0  0  0  0  0  0  0
    9.7816  -15.6489   -3.1357 H   0  0  0  0  0  0  0  0  0  0  0  0
    8.6070  -14.3858   -3.6841 H   0  0  0  0  0  0  0  0  0  0  0  0
   10.1615  -15.1521   -5.4909 H   0  0  0  0  0  0  0  0  0  0  0  0
   10.2732  -13.4052   -5.1565 H   0  0  0  0  0  0  0  0  0  0  0  0
   12.0921  -15.6015   -4.0432 H   0  0  0  0  0  0  0  0  0  0  0  0
   12.5345  -14.3896   -5.2803 H   0  0  0  0  0  0  0  0  0  0  0  0
   13.1940  -13.2880   -3.2990 H   0  0  0  0  0  0  0  0  0  0  0  0
   13.7623  -11.8158   -2.2849 H   0  0  0  0  0  0  0  0  0  0  0  0
   14.4725  -10.2137   -0.5223 H   0  0  0  0  0  0  0  0  0  0  0  0
   12.9573   -9.7212    1.3891 H   0  0  0  0  0  0  0  0  0  0  0  0
   10.7271  -10.8059    1.5144 H   0  0  0  0  0  0  0  0  0  0  0  0
  1  2  1  0
  2  3  1  0
  3  4  1  0
  4  5  1  0
  5  6  2  0
  6  7  1  0
  7  8  2  0
  8  9  1  0
  9 10  2  0
 10 11  1  0
 11 12  1  0
 11 13  1  0
 11 14  1  0
 10 15  1  0
 15 16  2  0
  6 17  1  0
 17 18  1  0
 18 19  1  0
 19 20  1  0
 20 21  1  0
 21 22  2  0
 22 23  1  0
 23 24  2  0
 24 25  1  0
 25 26  2  0
 26 27  1  0
 27 28  2  0
 28  5  1  0
 16  7  1  0
 22 17  1  0
 28 23  1  0
  1 29  1  0
  1 30  1  0
  1 31  1  0
  2 32  1  0
  2 33  1  0
  3 34  1  0
  3 35  1  0
  4 36  1  0
  4 37  1  0
  8 38  1  0
  9 39  1  0
 12 40  1  0
 12 41  1  0
 12 42  1  0
 13 43  1  0
 13 44  1  0
 13 45  1  0
 14 46  1  0
 14 47  1  0
 14 48  1  0
 15 49  1  0
 16 50  1  0
 18 51  1  0
 18 52  1  0
 19 53  1  0
 19 54  1  0
 20 55  1  0
 20 56  1  0
 21 57  1  0
 24 58  1  0
 25 59  1  0
 26 60  1  0
 27 61  1  0
M  CHG  1  21   1
M  END
>  <meeko>  (6) 
{"is_sidechain": [false], "free_energy": -6.478, "intermolecular_energy": -8.385, "internal_energy": -1.832}

$$$$
LIB_VNBPNFZLNMXVOP__M_PUB_ALL__e8__s20260927
     RDKit          3D

 61 64  0  0  0  0  0  0  0  0999 V2000
    4.0320  -12.6330   -1.3330 C   0  0  0  0  0  0  0  0  0  0  0  0
    2.8230  -12.2730   -2.1830 C   0  0  0  0  0  0  0  0  0  0  0  0
    1.7130  -11.6460   -1.3380 C   0  0  0  0  0  0  0  0  0  0  0  0
    1.9900  -11.8250    0.1610 C   0  0  0  0  0  0  0  0  0  0  0  0
    0.7860  -12.3870    0.9120 C   0  0  0  0  0  0  0  0  0  0  0  0
    0.6200  -13.7060    1.1730 C   0  0  0  0  0  0  0  0  0  0  0  0
    1.6350  -14.6720    0.6880 C   0  0  0  0  0  0  0  0  0  0  0  0
    1.4820  -15.3020   -0.5520 C   0  0  0  0  0  0  0  0  0  0  0  0
    2.4450  -16.2080   -1.0120 C   0  0  0  0  0  0  0  0  0  0  0  0
    3.5850  -16.5120   -0.2480 C   0  0  0  0  0  0  0  0  0  0  0  0
    4.6590  -17.5110   -0.7200 C   0  0  0  0  0  0  0  0  0  0  0  0
    4.1810  -18.9530   -0.4420 C   0  0  0  0  0  0  0  0  0  0  0  0
    4.9790  -17.4180   -2.2290 C   0  0  0  0  0  0  0  0  0  0  0  0
    5.9770  -17.2570    0.0430 C   0  0  0  0  0  0  0  0  0  0  0  0
    3.7190  -15.8690    0.9990 C   0  0  0  0  0  0  0  0  0  0  0  0
    2.7610  -14.9630    1.4620 C   0  0  0  0  0  0  0  0  0  0  0  0
   -0.5070  -14.2250    1.8430 N   0  0  0  0  0  0  0  0  0  0  0  0
   -0.6220  -15.6940    2.0650 C   0  0  0  0  0  0  0  0  0  0  0  0
   -1.5690  -16.0040    3.2000 C   0  0  0  0  0  0  0  0  0  0  0  0
   -2.8800  -15.3410    2.8880 C   0  0  0  0  0  0  0  0  0  0  0  0
   -2.6380  -13.9150    2.7020 N   0  0  0  0  0  0  0  0  0  0  0  0
   -1.5100  -13.4140    2.2070 C   0  0  0  0  0  0  0  0  0  0  0  0
   -1.3750  -11.9430    2.0670 C   0  0  0  0  0  0  0  0  0  0  0  0
   -2.3280  -11.0360    2.5840 C   0  0  0  0  0  0  0  0  0  0  0  0
   -2.1810   -9.6580    2.4250 C   0  0  0  0  0  0  0  0  0  0  0  0
   -1.0780   -9.1600    1.7550 C   0  0  0  0  0  0  0  0  0  0  0  0
   -0.1150  -10.0380    1.2560 C   0  0  0  0  0  0  0  0  0  0  0  0
   -0.2410  -11.4310    1.4090 C   0  0  0  0  0  0  0  0  0  0  0  0
    3.7680  -12.5544   -0.2680 H   0  0  0  0  0  0  0  0  0  0  0  0
    4.3448  -13.6633   -1.5581 H   0  0  0  0  0  0  0  0  0  0  0  0
    4.8575  -11.9417   -1.5581 H   0  0  0  0  0  0  0  0  0  0  0  0
    3.1312  -11.5558   -2.9580 H   0  0  0  0  0  0  0  0  0  0  0  0
    2.4326  -13.1954   -2.6376 H   0  0  0  0  0  0  0  0  0  0  0  0
    1.6516  -10.5716   -1.5660 H   0  0  0  0  0  0  0  0  0  0  0  0
    0.7646  -12.1480   -1.5799 H   0  0  0  0  0  0  0  0  0  0  0  0
    2.8370  -12.5161    0.2837 H   0  0  0  0  0  0  0  0  0  0  0  0
    2.2146  -10.8336    0.5813 H   0  0  0  0  0  0  0  0  0  0  0  0
    0.5985  -15.0838   -1.1699 H   0  0  0  0  0  0  0  0  0  0  0  0
    2.3068  -16.6914   -1.9904 H   0  0  0  0  0  0  0  0  0  0  0  0
    4.1263  -19.1182    0.6442 H   0  0  0  0  0  0  0  0  0  0  0  0
    3.1856  -19.1014   -0.8861 H   0  0  0  0  0  0  0  0  0  0  0  0
    4.8907  -19.6666   -0.8861 H   0  0  0  0  0  0  0  0  0  0  0  0
    6.0274  -17.1133   -2.3634 H   0  0  0  0  0  0  0  0  0  0  0  0
    4.8194  -18.3997   -2.6989 H   0  0  0  0  0  0  0  0  0  0  0  0
    4.3180  -16.6748   -2.6989 H   0  0  0  0  0  0  0  0  0  0  0  0
    5.7867  -17.2937    1.1258 H   0  0  0  0  0  0  0  0  0  0  0  0
    6.7116  -18.0301   -0.2266 H   0  0  0  0  0  0  0  0  0  0  0  0
    6.3717  -16.2663   -0.2266 H   0  0  0  0  0  0  0  0  0  0  0  0
    4.5988  -16.0855    1.6228 H   0  0  0  0  0  0  0  0  0  0  0  0
    2.8941  -14.4770    2.4398 H   0  0  0  0  0  0  0  0  0  0  0  0
   -0.9972  -16.1672    1.1456 H   0  0  0  0  0  0  0  0  0  0  0  0
    0.3726  -16.0851    2.3254 H   0  0  0  0  0  0  0  0  0  0  0  0
   -1.7092  -17.0917    3.2857 H   0  0  0  0  0  0  0  0  0  0  0  0
   -1.1649  -15.6338    4.1538 H   0  0  0  0  0  0  0  0  0  0  0  0
   -3.3041  -15.7696    1.9680 H   0  0  0  0  0  0  0  0  0  0  0  0
   -3.5915  -15.5008    3.7115 H   0  0  0  0  0  0  0  0  0  0  0  0
   -3.3920  -13.2820    2.9300 H   0  0  0  0  0  0  0  0  0  0  0  0
   -3.2042  -11.4252    3.1232 H   0  0  0  0  0  0  0  0  0  0  0  0
   -2.9383   -8.9709    2.8303 H   0  0  0  0  0  0  0  0  0  0  0  0
   -0.9604   -8.0752    1.6160 H   0  0  0  0  0  0  0  0  0  0  0  0
    0.7623   -9.6319    0.7312 H   0  0  0  0  0  0  0  0  0  0  0  0
  1  2  1  0
  2  3  1  0
  3  4  1  0
  4  5  1  0
  5  6  2  0
  6  7  1  0
  7  8  2  0
  8  9  1  0
  9 10  2  0
 10 11  1  0
 11 12  1  0
 11 13  1  0
 11 14  1  0
 10 15  1  0
 15 16  2  0
  6 17  1  0
 17 18  1  0
 18 19  1  0
 19 20  1  0
 20 21  1  0
 21 22  2  0
 22 23  1  0
 23 24  2  0
 24 25  1  0
 25 26  2  0
 26 27  1  0
 27 28  2  0
 28  5  1  0
 16  7  1  0
 22 17  1  0
 28 23  1  0
  1 29  1  0
  1 30  1  0
  1 31  1  0
  2 32  1  0
  2 33  1  0
  3 34  1  0
  3 35  1  0
  4 36  1  0
  4 37  1  0
  8 38  1  0
  9 39  1  0
 12 40  1  0
 12 41  1  0
 12 42  1  0
 13 43  1  0
 13 44  1  0
 13 45  1  0
 14 46  1  0
 14 47  1  0
 14 48  1  0
 15 49  1  0
 16 50  1  0
 18 51  1  0
 18 52  1  0
 19 53  1  0
 19 54  1  0
 20 55  1  0
 20 56  1  0
 21 57  1  0
 24 58  1  0
 25 59  1  0
 26 60  1  0
 27 61  1  0
M  CHG  1  21   1
M  END
>  <meeko>  (7) 
{"is_sidechain": [false], "free_energy": -6.323, "intermolecular_energy": -8.176, "internal_energy": -1.84}

$$$$
LIB_VNBPNFZLNMXVOP__M_PUB_ALL__e8__s20260927
     RDKit          3D

 61 64  0  0  0  0  0  0  0  0999 V2000
    3.7630  -15.9180   -0.9890 C   0  0  0  0  0  0  0  0  0  0  0  0
    2.9700  -15.5800   -2.2420 C   0  0  0  0  0  0  0  0  0  0  0  0
    1.5140  -15.2490   -1.9100 C   0  0  0  0  0  0  0  0  0  0  0  0
    1.2910  -15.1970   -0.3920 C   0  0  0  0  0  0  0  0  0  0  0  0
    0.4950  -13.9680    0.0380 C   0  0  0  0  0  0  0  0  0  0  0  0
    1.0500  -12.7430    0.2030 C   0  0  0  0  0  0  0  0  0  0  0  0
    2.5070  -12.5740   -0.0130 C   0  0  0  0  0  0  0  0  0  0  0  0
    2.9970  -12.1260   -1.2450 C   0  0  0  0  0  0  0  0  0  0  0  0
    4.3720  -11.9590   -1.4440 C   0  0  0  0  0  0  0  0  0  0  0  0
    5.2970  -12.2370   -0.4230 C   0  0  0  0  0  0  0  0  0  0  0  0
    6.8170  -12.0740   -0.6120 C   0  0  0  0  0  0  0  0  0  0  0  0
    7.0920  -11.1550   -1.8220 C   0  0  0  0  0  0  0  0  0  0  0  0
    7.5360  -11.4520    0.6070 C   0  0  0  0  0  0  0  0  0  0  0  0
    7.4600  -13.4540   -0.8650 C   0  0  0  0  0  0  0  0  0  0  0  0
    4.7840  -12.6890    0.8090 C   0  0  0  0  0  0  0  0  0  0  0  0
    3.4120  -12.8560    1.0140 C   0  0  0  0  0  0  0  0  0  0  0  0
    0.3180  -11.6140    0.6270 N   0  0  0  0  0  0  0  0  0  0  0  0
    1.0130  -10.3100    0.8080 C   0  0  0  0  0  0  0  0  0  0  0  0
    0.0400   -9.1560    0.7490 C   0  0  0  0  0  0  0  0  0  0  0  0
   -1.0280   -9.4140    1.7740 C   0  0  0  0  0  0  0  0  0  0  0  0
   -1.6350  -10.7080    1.4860 N   0  0  0  0  0  0  0  0  0  0  0  0
   -0.9790  -11.7300    0.9440 C   0  0  0  0  0  0  0  0  0  0  0  0
   -1.7040  -13.0000    0.6920 C   0  0  0  0  0  0  0  0  0  0  0  0
   -3.1020  -13.1260    0.8530 C   0  0  0  0  0  0  0  0  0  0  0  0
   -3.7540  -14.3370    0.6200 C   0  0  0  0  0  0  0  0  0  0  0  0
   -3.0250  -15.4410    0.2160 C   0  0  0  0  0  0  0  0  0  0  0  0
   -1.6470  -15.3320    0.0320 C   0  0  0  0  0  0  0  0  0  0  0  0
   -0.9690  -14.1180    0.2560 C   0  0  0  0  0  0  0  0  0  0  0  0
    3.1682  -15.6645   -0.0991 H   0  0  0  0  0  0  0  0  0  0  0  0
    3.9950  -16.9932   -0.9808 H   0  0  0  0  0  0  0  0  0  0  0  0
    4.6993  -15.3408   -0.9808 H   0  0  0  0  0  0  0  0  0  0  0  0
    3.4313  -14.7108   -2.7336 H   0  0  0  0  0  0  0  0  0  0  0  0
    2.9824  -16.4569   -2.9060 H   0  0  0  0  0  0  0  0  0  0  0  0
    1.2601  -14.2707   -2.3441 H   0  0  0  0  0  0  0  0  0  0  0  0
    0.8721  -16.0371   -2.3305 H   0  0  0  0  0  0  0  0  0  0  0  0
    0.7414  -16.0990   -0.0847 H   0  0  0  0  0  0  0  0  0  0  0  0
    2.2782  -15.1423    0.0900 H   0  0  0  0  0  0  0  0  0  0  0  0
    2.2960  -11.9035   -2.0630 H   0  0  0  0  0  0  0  0  0  0  0  0
    4.7362  -11.6030   -2.4190 H   0  0  0  0  0  0  0  0  0  0  0  0
    7.3903  -10.1582   -1.4650 H   0  0  0  0  0  0  0  0  0  0  0  0
    7.9013  -11.5835   -2.4315 H   0  0  0  0  0  0  0  0  0  0  0  0
    6.1804  -11.0686   -2.4315 H   0  0  0  0  0  0  0  0  0  0  0  0
    7.0881  -11.8395    1.5339 H   0  0  0  0  0  0  0  0  0  0  0  0
    8.6034  -11.7162    0.5772 H   0  0  0  0  0  0  0  0  0  0  0  0
    7.4282  -10.3577    0.5772 H   0  0  0  0  0  0  0  0  0  0  0  0
    7.6846  -13.9360    0.0980 H   0  0  0  0  0  0  0  0  0  0  0  0
    6.7628  -14.0841   -1.4366 H   0  0  0  0  0  0  0  0  0  0  0  0
    8.3910  -13.3255   -1.4366 H   0  0  0  0  0  0  0  0  0  0  0  0
    5.4807  -12.9159    1.6295 H   0  0  0  0  0  0  0  0  0  0  0  0
    3.0427  -13.2108    1.9875 H   0  0  0  0  0  0  0  0  0  0  0  0
    1.5159  -10.3049    1.7863 H   0  0  0  0  0  0  0  0  0  0  0  0
    1.7432  -10.1901   -0.0059 H   0  0  0  0  0  0  0  0  0  0  0  0
    0.5601   -8.2140    0.9772 H   0  0  0  0  0  0  0  0  0  0  0  0
   -0.3994   -9.0703   -0.2558 H   0  0  0  0  0  0  0  0  0  0  0  0
   -0.5829   -9.4274    2.7798 H   0  0  0  0  0  0  0  0  0  0  0  0
   -1.7894   -8.6211    1.7362 H   0  0  0  0  0  0  0  0  0  0  0  0
   -2.6020  -10.8380    1.7520 H   0  0  0  0  0  0  0  0  0  0  0  0
   -3.6887  -12.2507    1.1687 H   0  0  0  0  0  0  0  0  0  0  0  0
   -4.8428  -14.4137    0.7569 H   0  0  0  0  0  0  0  0  0  0  0  0
   -3.5307  -16.4019    0.0404 H   0  0  0  0  0  0  0  0  0  0  0  0
   -1.0768  -16.2139   -0.2954 H   0  0  0  0  0  0  0  0  0  0  0  0
  1  2  1  0
  2  3  1  0
  3  4  1  0
  4  5  1  0
  5  6  2  0
  6  7  1  0
  7  8  2  0
  8  9  1  0
  9 10  2  0
 10 11  1  0
 11 12  1  0
 11 13  1  0
 11 14  1  0
 10 15  1  0
 15 16  2  0
  6 17  1  0
 17 18  1  0
 18 19  1  0
 19 20  1  0
 20 21  1  0
 21 22  2  0
 22 23  1  0
 23 24  2  0
 24 25  1  0
 25 26  2  0
 26 27  1  0
 27 28  2  0
 28  5  1  0
 16  7  1  0
 22 17  1  0
 28 23  1  0
  1 29  1  0
  1 30  1  0
  1 31  1  0
  2 32  1  0
  2 33  1  0
  3 34  1  0
  3 35  1  0
  4 36  1  0
  4 37  1  0
  8 38  1  0
  9 39  1  0
 12 40  1  0
 12 41  1  0
 12 42  1  0
 13 43  1  0
 13 44  1  0
 13 45  1  0
 14 46  1  0
 14 47  1  0
 14 48  1  0
 15 49  1  0
 16 50  1  0
 18 51  1  0
 18 52  1  0
 19 53  1  0
 19 54  1  0
 20 55  1  0
 20 56  1  0
 21 57  1  0
 24 58  1  0
 25 59  1  0
 26 60  1  0
 27 61  1  0
M  CHG  1  21   1
M  END
>  <meeko>  (8) 
{"is_sidechain": [false], "free_energy": -6.316, "intermolecular_energy": -8.233, "internal_energy": -1.774}

$$$$
LIB_VNBPNFZLNMXVOP__M_PUB_ALL__e8__s20260927
     RDKit          3D

 61 64  0  0  0  0  0  0  0  0999 V2000
    6.2030  -15.1390   -3.4640 C   0  0  0  0  0  0  0  0  0  0  0  0
    6.4560  -13.8990   -4.3070 C   0  0  0  0  0  0  0  0  0  0  0  0
    7.9270  -13.7910   -4.7140 C   0  0  0  0  0  0  0  0  0  0  0  0
    8.8030  -14.7360   -3.8800 C   0  0  0  0  0  0  0  0  0  0  0  0
   10.0090  -14.0260   -3.2710 C   0  0  0  0  0  0  0  0  0  0  0  0
    9.9810  -13.4160   -2.0610 C   0  0  0  0  0  0  0  0  0  0  0  0
    8.7170  -13.4030   -1.2870 C   0  0  0  0  0  0  0  0  0  0  0  0
    7.8860  -12.2780   -1.3000 C   0  0  0  0  0  0  0  0  0  0  0  0
    6.6890  -12.2700   -0.5740 C   0  0  0  0  0  0  0  0  0  0  0  0
    6.2880  -13.3830    0.1850 C   0  0  0  0  0  0  0  0  0  0  0  0
    4.9820  -13.4040    1.0020 C   0  0  0  0  0  0  0  0  0  0  0  0
    5.3120  -13.2890    2.5060 C   0  0  0  0  0  0  0  0  0  0  0  0
    4.0110  -12.2520    0.6580 C   0  0  0  0  0  0  0  0  0  0  0  0
    4.2300  -14.7270    0.7460 C   0  0  0  0  0  0  0  0  0  0  0  0
    7.1400  -14.5050    0.1870 C   0  0  0  0  0  0  0  0  0  0  0  0
    8.3350  -14.5190   -0.5360 C   0  0  0  0  0  0  0  0  0  0  0  0
   11.0890  -12.7370   -1.5130 N   0  0  0  0  0  0  0  0  0  0  0  0
   10.9630  -12.0710   -0.1870 C   0  0  0  0  0  0  0  0  0  0  0  0
   12.3150  -11.8650    0.4540 C   0  0  0  0  0  0  0  0  0  0  0  0
   13.1660  -11.1020   -0.5220 C   0  0  0  0  0  0  0  0  0  0  0  0
   13.2180  -11.8550   -1.7690 N   0  0  0  0  0  0  0  0  0  0  0  0
   12.2250  -12.6200   -2.2140 C   0  0  0  0  0  0  0  0  0  0  0  0
   12.3930  -13.3460   -3.4980 C   0  0  0  0  0  0  0  0  0  0  0  0
   13.6220  -13.3900   -4.1950 C   0  0  0  0  0  0  0  0  0  0  0  0
   13.7470  -14.0690   -5.4060 C   0  0  0  0  0  0  0  0  0  0  0  0
   12.6510  -14.7220   -5.9410 C   0  0  0  0  0  0  0  0  0  0  0  0
   11.4340  -14.7070   -5.2590 C   0  0  0  0  0  0  0  0  0  0  0  0
   11.2870  -14.0320   -4.0330 C   0  0  0  0  0  0  0  0  0  0  0  0
    6.2569  -14.8747   -2.3976 H   0  0  0  0  0  0  0  0  0  0  0  0
    5.2045  -15.5401   -3.6923 H   0  0  0  0  0  0  0  0  0  0  0  0
    6.9645  -15.8992   -3.6923 H   0  0  0  0  0  0  0  0  0  0  0  0
    5.8365  -13.9507   -5.2145 H   0  0  0  0  0  0  0  0  0  0  0  0
    6.1969  -13.0140   -3.7073 H   0  0  0  0  0  0  0  0  0  0  0  0
    8.0256  -14.0548   -5.7773 H   0  0  0  0  0  0  0  0  0  0  0  0
    8.2627  -12.7583   -4.5386 H   0  0  0  0  0  0  0  0  0  0  0  0
    8.1934  -15.1572   -3.0670 H   0  0  0  0  0  0  0  0  0  0  0  0
    9.1802  -15.5225   -4.5502 H   0  0  0  0  0  0  0  0  0  0  0  0
    8.1752  -11.3926   -1.8852 H   0  0  0  0  0  0  0  0  0  0  0  0
    6.0498  -11.3751   -0.5980 H   0  0  0  0  0  0  0  0  0  0  0  0
    4.4364  -13.5941    3.0979 H   0  0  0  0  0  0  0  0  0  0  0  0
    6.1629  -13.9436    2.7458 H   0  0  0  0  0  0  0  0  0  0  0  0
    5.5718  -12.2474    2.7458 H   0  0  0  0  0  0  0  0  0  0  0  0
    3.6318  -11.8022    1.5875 H   0  0  0  0  0  0  0  0  0  0  0  0
    4.5417  -11.4881    0.0708 H   0  0  0  0  0  0  0  0  0  0  0  0
    3.1683  -12.6458    0.0708 H   0  0  0  0  0  0  0  0  0  0  0  0
    3.9663  -15.1909    1.7079 H   0  0  0  0  0  0  0  0  0  0  0  0
    3.3130  -14.5227    0.1738 H   0  0  0  0  0  0  0  0  0  0  0  0
    4.8747  -15.4104    0.1738 H   0  0  0  0  0  0  0  0  0  0  0  0
    6.8571  -15.3922    0.7726 H   0  0  0  0  0  0  0  0  0  0  0  0
    8.9780  -15.4112   -0.5145 H   0  0  0  0  0  0  0  0  0  0  0  0
   10.4776  -11.0932   -0.3218 H   0  0  0  0  0  0  0  0  0  0  0  0
   10.3618  -12.7165    0.4702 H   0  0  0  0  0  0  0  0  0  0  0  0
   12.2053  -11.2907    1.3857 H   0  0  0  0  0  0  0  0  0  0  0  0
   12.7788  -12.8318    0.6994 H   0  0  0  0  0  0  0  0  0  0  0  0
   12.7255  -10.1106   -0.7041 H   0  0  0  0  0  0  0  0  0  0  0  0
   14.1800  -10.9680   -0.1172 H   0  0  0  0  0  0  0  0  0  0  0  0
   14.0460  -11.7550   -2.3400 H   0  0  0  0  0  0  0  0  0  0  0  0
   14.4988  -12.8773   -3.7726 H   0  0  0  0  0  0  0  0  0  0  0  0
   14.7121  -14.0855   -5.9335 H   0  0  0  0  0  0  0  0  0  0  0  0
   12.7388  -15.2514   -6.9012 H   0  0  0  0  0  0  0  0  0  0  0  0
   10.5700  -15.2346   -5.6893 H   0  0  0  0  0  0  0  0  0  0  0  0
  1  2  1  0
  2  3  1  0
  3  4  1  0
  4  5  1  0
  5  6  2  0
  6  7  1  0
  7  8  2  0
  8  9  1  0
  9 10  2  0
 10 11  1  0
 11 12  1  0
 11 13  1  0
 11 14  1  0
 10 15  1  0
 15 16  2  0
  6 17  1  0
 17 18  1  0
 18 19  1  0
 19 20  1  0
 20 21  1  0
 21 22  2  0
 22 23  1  0
 23 24  2  0
 24 25  1  0
 25 26  2  0
 26 27  1  0
 27 28  2  0
 28  5  1  0
 16  7  1  0
 22 17  1  0
 28 23  1  0
  1 29  1  0
  1 30  1  0
  1 31  1  0
  2 32  1  0
  2 33  1  0
  3 34  1  0
  3 35  1  0
  4 36  1  0
  4 37  1  0
  8 38  1  0
  9 39  1  0
 12 40  1  0
 12 41  1  0
 12 42  1  0
 13 43  1  0
 13 44  1  0
 13 45  1  0
 14 46  1  0
 14 47  1  0
 14 48  1  0
 15 49  1  0
 16 50  1  0
 18 51  1  0
 18 52  1  0
 19 53  1  0
 19 54  1  0
 20 55  1  0
 20 56  1  0
 21 57  1  0
 24 58  1  0
 25 59  1  0
 26 60  1  0
 27 61  1  0
M  CHG  1  21   1
M  END
>  <meeko>  (9) 
{"is_sidechain": [false], "free_energy": -6.242, "intermolecular_energy": -8.095, "internal_energy": -1.817}

$$$$
