LIB_TUQMHRDZPSHMHB__M_PUB_ALL__e8__s20260927
     RDKit          3D

 61 66  0  0  0  0  0  0  0  0999 V2000
    3.5190  -11.0370   -5.0690 C   0  0  0  0  0  0  0  0  0  0  0  0
    3.3340  -12.3000   -4.2690 C   0  0  0  0  0  0  0  0  0  0  0  0
    3.2380  -13.4050   -4.7940 O   0  0  0  0  0  0  0  0  0  0  0  0
    3.3330  -12.1840   -2.7950 C   0  0  0  0  0  0  0  0  0  0  0  0
    2.1240  -11.7590   -2.2220 C   0  0  0  0  0  0  0  0  0  0  0  0
    1.9800  -11.7380   -0.8400 C   0  0  0  0  0  0  0  0  0  0  0  0
    3.0400  -12.1440   -0.0380 C   0  0  0  0  0  0  0  0  0  0  0  0
    4.2510  -12.5470   -0.6180 C   0  0  0  0  0  0  0  0  0  0  0  0
    4.4470  -12.5570   -2.0110 C   0  0  0  0  0  0  0  0  0  0  0  0
    5.6860  -12.8840   -2.5430 N   0  0  0  0  0  0  0  0  0  0  0  0
    6.5570  -11.8200   -3.0890 C   0  0  0  0  0  0  0  0  0  0  0  0
    8.0290  -12.0320   -2.6700 C   0  0  0  0  0  0  0  0  0  0  0  0
    8.5470  -13.3540   -3.0850 N   0  0  0  0  0  0  0  0  0  0  0  0
    9.7380  -13.4820   -3.7880 C   0  0  0  0  0  0  0  0  0  0  0  0
    9.7080  -14.1110   -4.9410 N   0  0  0  0  0  0  0  0  0  0  0  0
   10.8490  -14.1740   -5.6790 C   0  0  0  0  0  0  0  0  0  0  0  0
   11.1850  -14.7170   -6.9040 C   0  0  0  0  0  0  0  0  0  0  0  0
   10.1550  -15.5930   -7.9590 S   0  0  0  0  0  0  0  0  0  0  0  0
   10.9740  -15.9650   -9.0970 O   0  0  0  0  0  0  0  0  0  0  0  0
    9.5160  -16.5890   -7.1190 O   0  0  0  0  0  0  0  0  0  0  0  0
    8.9350  -14.4410   -8.5280 C   0  0  0  0  0  0  0  0  0  0  0  0
    9.2550  -13.5690   -9.5750 C   0  0  0  0  0  0  0  0  0  0  0  0
    8.2920  -12.6720  -10.0390 C   0  0  0  0  0  0  0  0  0  0  0  0
    7.0190  -12.6580   -9.4660 C   0  0  0  0  0  0  0  0  0  0  0  0
    6.7000  -13.5410   -8.4330 C   0  0  0  0  0  0  0  0  0  0  0  0
    7.6560  -14.4390   -7.9620 C   0  0  0  0  0  0  0  0  0  0  0  0
   12.5030  -14.4550   -7.1920 N   0  0  0  0  0  0  0  0  0  0  0  0
   13.0120  -13.7620   -6.1800 N   0  0  0  0  0  0  0  0  0  0  0  0
   12.0330  -13.6020   -5.2720 N   0  0  0  0  0  0  0  0  0  0  0  0
   12.1740  -12.9590   -4.0400 C   0  0  0  0  0  0  0  0  0  0  0  0
   13.3990  -12.4380   -3.6140 C   0  0  0  0  0  0  0  0  0  0  0  0
   13.4830  -11.8820   -2.3390 C   0  0  0  0  0  0  0  0  0  0  0  0
   12.3590  -11.8710   -1.5090 C   0  0  0  0  0  0  0  0  0  0  0  0
   12.4820  -11.2150    0.0780 Cl  0  0  0  0  0  0  0  0  0  0  0  0
   11.1370  -12.3900   -1.9440 C   0  0  0  0  0  0  0  0  0  0  0  0
   11.0270  -12.9110   -3.2360 C   0  0  0  0  0  0  0  0  0  0  0  0
    7.5230  -14.4160   -3.2100 C   0  0  0  0  0  0  0  0  0  0  0  0
    6.3280  -14.1810   -2.2640 C   0  0  0  0  0  0  0  0  0  0  0  0
    3.6438  -10.1847   -4.3849 H   0  0  0  0  0  0  0  0  0  0  0  0
    4.4128  -11.1322   -5.7031 H   0  0  0  0  0  0  0  0  0  0  0  0
    2.6355  -10.8719   -5.7031 H   0  0  0  0  0  0  0  0  0  0  0  0
    1.2908  -11.4427   -2.8668 H   0  0  0  0  0  0  0  0  0  0  0  0
    1.0361  -11.4032   -0.3851 H   0  0  0  0  0  0  0  0  0  0  0  0
    2.9283  -12.1491    1.0563 H   0  0  0  0  0  0  0  0  0  0  0  0
    5.0748  -12.8658    0.0375 H   0  0  0  0  0  0  0  0  0  0  0  0
    6.4915  -11.8311   -4.1870 H   0  0  0  0  0  0  0  0  0  0  0  0
    6.2173  -10.8530   -2.6895 H   0  0  0  0  0  0  0  0  0  0  0  0
    8.6454  -11.2488   -3.1354 H   0  0  0  0  0  0  0  0  0  0  0  0
    8.0765  -11.9819   -1.5722 H   0  0  0  0  0  0  0  0  0  0  0  0
   10.2571  -13.5906  -10.0282 H   0  0  0  0  0  0  0  0  0  0  0  0
    8.5357  -11.9765  -10.8556 H   0  0  0  0  0  0  0  0  0  0  0  0
    6.2630  -11.9470   -9.8307 H   0  0  0  0  0  0  0  0  0  0  0  0
    5.6931  -13.5280   -7.9903 H   0  0  0  0  0  0  0  0  0  0  0  0
    7.4068  -15.1403   -7.1520 H   0  0  0  0  0  0  0  0  0  0  0  0
   14.2797  -12.4663   -4.2724 H   0  0  0  0  0  0  0  0  0  0  0  0
   14.4324  -11.4526   -1.9866 H   0  0  0  0  0  0  0  0  0  0  0  0
   10.2656  -12.3885   -1.2727 H   0  0  0  0  0  0  0  0  0  0  0  0
    7.1565  -14.4355   -4.2470 H   0  0  0  0  0  0  0  0  0  0  0  0
    7.9908  -15.3729   -2.9350 H   0  0  0  0  0  0  0  0  0  0  0  0
    5.5917  -14.9858   -2.4064 H   0  0  0  0  0  0  0  0  0  0  0  0
    6.6951  -14.1766   -1.2271 H   0  0  0  0  0  0  0  0  0  0  0  0
  1  2  1  0
  2  3  2  0
  2  4  1  0
  4  5  2  0
  5  6  1  0
  6  7  2  0
  7  8  1  0
  8  9  2  0
  9 10  1  0
 10 11  1  0
 11 12  1  0
 12 13  1  0
 13 14  1  0
 14 15  2  0
 15 16  1  0
 16 17  2  0
 17 18  1  0
 18 19  2  0
 18 20  2  0
 18 21  1  0
 21 22  2  0
 22 23  1  0
 23 24  2  0
 24 25  1  0
 25 26  2  0
 17 27  1  0
 27 28  2  0
 28 29  1  0
 29 30  1  0
 30 31  2  0
 31 32  1  0
 32 33  2  0
 33 34  1  0
 33 35  1  0
 35 36  2  0
 13 37  1  0
 37 38  1  0
  9  4  1  0
 38 10  1  0
 36 14  1  0
 29 16  1  0
 36 30  1  0
 26 21  1  0
  1 39  1  0
  1 40  1  0
  1 41  1  0
  5 42  1  0
  6 43  1  0
  7 44  1  0
  8 45  1  0
 11 46  1  0
 11 47  1  0
 12 48  1  0
 12 49  1  0
 22 50  1  0
 23 51  1  0
 24 52  1  0
 25 53  1  0
 26 54  1  0
 31 55  1  0
 32 56  1  0
 35 57  1  0
 37 58  1  0
 37 59  1  0
 38 60  1  0
 38 61  1  0
M  END
>  <meeko>  (1) 
{"is_sidechain": [false], "free_energy": -9.085, "intermolecular_energy": -11.21, "internal_energy": -1.104}

$$$$
LIB_TUQMHRDZPSHMHB__M_PUB_ALL__e8__s20260927
     RDKit          3D

 61 66  0  0  0  0  0  0  0  0999 V2000
   -0.3430  -18.0760    5.1820 C   0  0  0  0  0  0  0  0  0  0  0  0
    1.0760  -17.6510    4.9050 C   0  0  0  0  0  0  0  0  0  0  0  0
    1.5630  -16.6300    5.3800 O   0  0  0  0  0  0  0  0  0  0  0  0
    1.9100  -18.5470    4.0760 C   0  0  0  0  0  0  0  0  0  0  0  0
    2.3600  -19.7160    4.7120 C   0  0  0  0  0  0  0  0  0  0  0  0
    3.0440  -20.6820    3.9840 C   0  0  0  0  0  0  0  0  0  0  0  0
    3.2720  -20.4800    2.6290 C   0  0  0  0  0  0  0  0  0  0  0  0
    2.8390  -19.3010    2.0070 C   0  0  0  0  0  0  0  0  0  0  0  0
    2.1670  -18.2860    2.7130 C   0  0  0  0  0  0  0  0  0  0  0  0
    1.8260  -17.0990    2.0800 N   0  0  0  0  0  0  0  0  0  0  0  0
    2.8460  -16.0430    1.8970 C   0  0  0  0  0  0  0  0  0  0  0  0
    2.7530  -15.4120    0.4900 C   0  0  0  0  0  0  0  0  0  0  0  0
    1.4110  -14.8550    0.2100 N   0  0  0  0  0  0  0  0  0  0  0  0
    1.2430  -13.5570   -0.2520 C   0  0  0  0  0  0  0  0  0  0  0  0
    0.4680  -12.7520    0.4390 N   0  0  0  0  0  0  0  0  0  0  0  0
    0.3580  -11.4550    0.0450 C   0  0  0  0  0  0  0  0  0  0  0  0
   -0.3250  -10.3500    0.5160 C   0  0  0  0  0  0  0  0  0  0  0  0
   -1.3740  -10.2900    1.8720 S   0  0  0  0  0  0  0  0  0  0  0  0
   -0.6860  -10.9930    2.9390 O   0  0  0  0  0  0  0  0  0  0  0  0
   -1.7490   -8.8930    1.9940 O   0  0  0  0  0  0  0  0  0  0  0  0
   -2.8020  -11.2420    1.4340 C   0  0  0  0  0  0  0  0  0  0  0  0
   -3.3460  -12.1270    2.3710 C   0  0  0  0  0  0  0  0  0  0  0  0
   -4.4820  -12.8660    2.0380 C   0  0  0  0  0  0  0  0  0  0  0  0
   -5.0720  -12.7100    0.7820 C   0  0  0  0  0  0  0  0  0  0  0  0
   -4.5340  -11.8130   -0.1430 C   0  0  0  0  0  0  0  0  0  0  0  0
   -3.3990  -11.0720    0.1810 C   0  0  0  0  0  0  0  0  0  0  0  0
   -0.0470   -9.2540   -0.2640 N   0  0  0  0  0  0  0  0  0  0  0  0
    0.7930   -9.6350   -1.2200 N   0  0  0  0  0  0  0  0  0  0  0  0
    1.0290  -10.9480   -1.0460 N   0  0  0  0  0  0  0  0  0  0  0  0
    1.8320  -11.7380   -1.8700 C   0  0  0  0  0  0  0  0  0  0  0  0
    2.4550  -11.2220   -3.0100 C   0  0  0  0  0  0  0  0  0  0  0  0
    3.1760  -12.0890   -3.8290 C   0  0  0  0  0  0  0  0  0  0  0  0
    3.2470  -13.4480   -3.5130 C   0  0  0  0  0  0  0  0  0  0  0  0
    4.1090  -14.5170   -4.5500 Cl  0  0  0  0  0  0  0  0  0  0  0  0
    2.6240  -13.9550   -2.3690 C   0  0  0  0  0  0  0  0  0  0  0  0
    1.9350  -13.0900   -1.5160 C   0  0  0  0  0  0  0  0  0  0  0  0
    0.2990  -15.5050    0.9420 C   0  0  0  0  0  0  0  0  0  0  0  0
    0.6050  -16.9820    1.2630 C   0  0  0  0  0  0  0  0  0  0  0  0
   -0.5056  -18.1247    6.2688 H   0  0  0  0  0  0  0  0  0  0  0  0
   -1.0373  -17.3464    4.7397 H   0  0  0  0  0  0  0  0  0  0  0  0
   -0.5219  -19.0671    4.7397 H   0  0  0  0  0  0  0  0  0  0  0  0
    2.1711  -19.8665    5.7852 H   0  0  0  0  0  0  0  0  0  0  0  0
    3.4016  -21.5983    4.4764 H   0  0  0  0  0  0  0  0  0  0  0  0
    3.7948  -21.2489    2.0412 H   0  0  0  0  0  0  0  0  0  0  0  0
    3.0306  -19.1647    0.9324 H   0  0  0  0  0  0  0  0  0  0  0  0
    2.6899  -15.2589    2.6526 H   0  0  0  0  0  0  0  0  0  0  0  0
    3.8413  -16.4979    2.0089 H   0  0  0  0  0  0  0  0  0  0  0  0
    3.4941  -14.6025    0.4160 H   0  0  0  0  0  0  0  0  0  0  0  0
    2.9479  -16.2049   -0.2471 H   0  0  0  0  0  0  0  0  0  0  0  0
   -2.8821  -12.2394    3.3621 H   0  0  0  0  0  0  0  0  0  0  0  0
   -4.9124  -13.5710    2.7645 H   0  0  0  0  0  0  0  0  0  0  0  0
   -5.9649  -13.2966    0.5200 H   0  0  0  0  0  0  0  0  0  0  0  0
   -5.0066  -11.6911   -1.1288 H   0  0  0  0  0  0  0  0  0  0  0  0
   -2.9764  -10.3595   -0.5427 H   0  0  0  0  0  0  0  0  0  0  0  0
    2.3777  -10.1526   -3.2558 H   0  0  0  0  0  0  0  0  0  0  0  0
    3.6884  -11.7038   -4.7229 H   0  0  0  0  0  0  0  0  0  0  0  0
    2.6761  -15.0300   -2.1417 H   0  0  0  0  0  0  0  0  0  0  0  0
    0.1302  -14.9641    1.8848 H   0  0  0  0  0  0  0  0  0  0  0  0
   -0.5942  -15.4743    0.3007 H   0  0  0  0  0  0  0  0  0  0  0  0
   -0.2419  -17.4134    1.8167 H   0  0  0  0  0  0  0  0  0  0  0  0
    0.7606  -17.5228    0.3179 H   0  0  0  0  0  0  0  0  0  0  0  0
  1  2  1  0
  2  3  2  0
  2  4  1  0
  4  5  2  0
  5  6  1  0
  6  7  2  0
  7  8  1  0
  8  9  2  0
  9 10  1  0
 10 11  1  0
 11 12  1  0
 12 13  1  0
 13 14  1  0
 14 15  2  0
 15 16  1  0
 16 17  2  0
 17 18  1  0
 18 19  2  0
 18 20  2  0
 18 21  1  0
 21 22  2  0
 22 23  1  0
 23 24  2  0
 24 25  1  0
 25 26  2  0
 17 27  1  0
 27 28  2  0
 28 29  1  0
 29 30  1  0
 30 31  2  0
 31 32  1  0
 32 33  2  0
 33 34  1  0
 33 35  1  0
 35 36  2  0
 13 37  1  0
 37 38  1  0
  9  4  1  0
 38 10  1  0
 36 14  1  0
 29 16  1  0
 36 30  1  0
 26 21  1  0
  1 39  1  0
  1 40  1  0
  1 41  1  0
  5 42  1  0
  6 43  1  0
  7 44  1  0
  8 45  1  0
 11 46  1  0
 11 47  1  0
 12 48  1  0
 12 49  1  0
 22 50  1  0
 23 51  1  0
 24 52  1  0
 25 53  1  0
 26 54  1  0
 31 55  1  0
 32 56  1  0
 35 57  1  0
 37 58  1  0
 37 59  1  0
 38 60  1  0
 38 61  1  0
M  END
>  <meeko>  (2) 
{"is_sidechain": [false], "free_energy": -8.936, "intermolecular_energy": -11.009, "internal_energy": -1.12}

$$$$
LIB_TUQMHRDZPSHMHB__M_PUB_ALL__e8__s20260927
     RDKit          3D

 61 66  0  0  0  0  0  0  0  0999 V2000
    6.9570  -10.6820    0.9120 C   0  0  0  0  0  0  0  0  0  0  0  0
    6.3010  -12.0390    0.9360 C   0  0  0  0  0  0  0  0  0  0  0  0
    6.7200  -12.9610    1.6280 O   0  0  0  0  0  0  0  0  0  0  0  0
    5.0740  -12.2210    0.1330 C   0  0  0  0  0  0  0  0  0  0  0  0
    3.8660  -11.9820    0.8090 C   0  0  0  0  0  0  0  0  0  0  0  0
    2.6640  -12.0030    0.1130 C   0  0  0  0  0  0  0  0  0  0  0  0
    2.6730  -12.2580   -1.2530 C   0  0  0  0  0  0  0  0  0  0  0  0
    3.8800  -12.5170   -1.9170 C   0  0  0  0  0  0  0  0  0  0  0  0
    5.1150  -12.5310   -1.2440 C   0  0  0  0  0  0  0  0  0  0  0  0
    6.2790  -12.8710   -1.9200 N   0  0  0  0  0  0  0  0  0  0  0  0
    7.0570  -11.8240   -2.6190 C   0  0  0  0  0  0  0  0  0  0  0  0
    8.5740  -12.0070   -2.3880 C   0  0  0  0  0  0  0  0  0  0  0  0
    9.0510  -13.3420   -2.8130 N   0  0  0  0  0  0  0  0  0  0  0  0
   10.1410  -13.4900   -3.6600 C   0  0  0  0  0  0  0  0  0  0  0  0
    9.9690  -14.1670   -4.7720 N   0  0  0  0  0  0  0  0  0  0  0  0
   11.0040  -14.2530   -5.6510 C   0  0  0  0  0  0  0  0  0  0  0  0
   11.1840  -14.8430   -6.8860 C   0  0  0  0  0  0  0  0  0  0  0  0
   10.0360  -15.7710   -7.7610 S   0  0  0  0  0  0  0  0  0  0  0  0
   10.7080  -16.1950   -8.9750 O   0  0  0  0  0  0  0  0  0  0  0  0
    9.5170  -16.7280   -6.8010 O   0  0  0  0  0  0  0  0  0  0  0  0
    8.7450  -14.6500   -8.2240 C   0  0  0  0  0  0  0  0  0  0  0  0
    7.5650  -14.6210   -7.4730 C   0  0  0  0  0  0  0  0  0  0  0  0
    6.5520  -13.7270   -7.8220 C   0  0  0  0  0  0  0  0  0  0  0  0
    6.7250  -12.8650   -8.9070 C   0  0  0  0  0  0  0  0  0  0  0  0
    7.9110  -12.8870   -9.6420 C   0  0  0  0  0  0  0  0  0  0  0  0
    8.9280  -13.7780   -9.3010 C   0  0  0  0  0  0  0  0  0  0  0  0
   12.4490  -14.5840   -7.3550 N   0  0  0  0  0  0  0  0  0  0  0  0
   13.0780  -13.8460   -6.4470 N   0  0  0  0  0  0  0  0  0  0  0  0
   12.2240  -13.6550   -5.4260 N   0  0  0  0  0  0  0  0  0  0  0  0
   12.5160  -12.9590   -4.2500 C   0  0  0  0  0  0  0  0  0  0  0  0
   13.7790  -12.4120   -4.0100 C   0  0  0  0  0  0  0  0  0  0  0  0
   14.0210  -11.8020   -2.7810 C   0  0  0  0  0  0  0  0  0  0  0  0
   13.0160  -11.7650   -1.8110 C   0  0  0  0  0  0  0  0  0  0  0  0
   13.3360  -11.0420   -0.2830 Cl  0  0  0  0  0  0  0  0  0  0  0  0
   11.7540  -12.3120   -2.0620 C   0  0  0  0  0  0  0  0  0  0  0  0
   11.4840  -12.8860   -3.3050 C   0  0  0  0  0  0  0  0  0  0  0  0
    8.0320  -14.4160   -2.7600 C   0  0  0  0  0  0  0  0  0  0  0  0
    6.9690  -14.1500   -1.6760 C   0  0  0  0  0  0  0  0  0  0  0  0
    7.1237  -10.3371    1.9431 H   0  0  0  0  0  0  0  0  0  0  0  0
    7.9216  -10.7503    0.3877 H   0  0  0  0  0  0  0  0  0  0  0  0
    6.3044   -9.9685    0.3877 H   0  0  0  0  0  0  0  0  0  0  0  0
    3.8719  -11.7781    1.8899 H   0  0  0  0  0  0  0  0  0  0  0  0
    1.7148  -11.8197    0.6378 H   0  0  0  0  0  0  0  0  0  0  0  0
    1.7281  -12.2566   -1.8161 H   0  0  0  0  0  0  0  0  0  0  0  0
    3.8607  -12.7156   -2.9988 H   0  0  0  0  0  0  0  0  0  0  0  0
    6.8487  -11.8822   -3.6975 H   0  0  0  0  0  0  0  0  0  0  0  0
    6.7595  -10.8435   -2.2188 H   0  0  0  0  0  0  0  0  0  0  0  0
    9.1141  -11.2395   -2.9617 H   0  0  0  0  0  0  0  0  0  0  0  0
    8.7636  -11.9103   -1.3088 H   0  0  0  0  0  0  0  0  0  0  0  0
    7.4369  -15.2971   -6.6148 H   0  0  0  0  0  0  0  0  0  0  0  0
    5.6173  -13.7013   -7.2426 H   0  0  0  0  0  0  0  0  0  0  0  0
    5.9225  -12.1653   -9.1836 H   0  0  0  0  0  0  0  0  0  0  0  0
    8.0438  -12.2007  -10.4913 H   0  0  0  0  0  0  0  0  0  0  0  0
    9.8664  -13.7945   -9.8747 H   0  0  0  0  0  0  0  0  0  0  0  0
   14.5667  -12.4620   -4.7762 H   0  0  0  0  0  0  0  0  0  0  0  0
   15.0023  -11.3499   -2.5745 H   0  0  0  0  0  0  0  0  0  0  0  0
   10.9775  -12.2900   -1.2832 H   0  0  0  0  0  0  0  0  0  0  0  0
    7.5332  -14.4809   -3.7383 H   0  0  0  0  0  0  0  0  0  0  0  0
    8.5432  -15.3576   -2.5109 H   0  0  0  0  0  0  0  0  0  0  0  0
    6.2309  -14.9655   -1.6874 H   0  0  0  0  0  0  0  0  0  0  0  0
    7.4693  -14.0988   -0.6977 H   0  0  0  0  0  0  0  0  0  0  0  0
  1  2  1  0
  2  3  2  0
  2  4  1  0
  4  5  2  0
  5  6  1  0
  6  7  2  0
  7  8  1  0
  8  9  2  0
  9 10  1  0
 10 11  1  0
 11 12  1  0
 12 13  1  0
 13 14  1  0
 14 15  2  0
 15 16  1  0
 16 17  2  0
 17 18  1  0
 18 19  2  0
 18 20  2  0
 18 21  1  0
 21 22  2  0
 22 23  1  0
 23 24  2  0
 24 25  1  0
 25 26  2  0
 17 27  1  0
 27 28  2  0
 28 29  1  0
 29 30  1  0
 30 31  2  0
 31 32  1  0
 32 33  2  0
 33 34  1  0
 33 35  1  0
 35 36  2  0
 13 37  1  0
 37 38  1  0
  9  4  1  0
 38 10  1  0
 36 14  1  0
 29 16  1  0
 36 30  1  0
 26 21  1  0
  1 39  1  0
  1 40  1  0
  1 41  1  0
  5 42  1  0
  6 43  1  0
  7 44  1  0
  8 45  1  0
 11 46  1  0
 11 47  1  0
 12 48  1  0
 12 49  1  0
 22 50  1  0
 23 51  1  0
 24 52  1  0
 25 53  1  0
 26 54  1  0
 31 55  1  0
 32 56  1  0
 35 57  1  0
 37 58  1  0
 37 59  1  0
 38 60  1  0
 38 61  1  0
M  END
>  <meeko>  (3) 
{"is_sidechain": [false], "free_energy": -8.849, "intermolecular_energy": -10.918, "internal_energy": -1.104}

$$$$
LIB_TUQMHRDZPSHMHB__M_PUB_ALL__e8__s20260927
     RDKit          3D

 61 66  0  0  0  0  0  0  0  0999 V2000
    2.0970  -19.2890    6.7220 C   0  0  0  0  0  0  0  0  0  0  0  0
    0.6540  -19.3430    6.2910 C   0  0  0  0  0  0  0  0  0  0  0  0
    0.2970  -19.8810    5.2480 O   0  0  0  0  0  0  0  0  0  0  0  0
   -0.3560  -18.7710    7.2070 C   0  0  0  0  0  0  0  0  0  0  0  0
   -0.7330  -19.5930    8.2820 C   0  0  0  0  0  0  0  0  0  0  0  0
   -1.5800  -19.1020    9.2680 C   0  0  0  0  0  0  0  0  0  0  0  0
   -2.0420  -17.7950    9.1790 C   0  0  0  0  0  0  0  0  0  0  0  0
   -1.6790  -16.9880    8.0920 C   0  0  0  0  0  0  0  0  0  0  0  0
   -0.8450  -17.4560    7.0590 C   0  0  0  0  0  0  0  0  0  0  0  0
   -0.5730  -16.6540    5.9590 N   0  0  0  0  0  0  0  0  0  0  0  0
    0.7360  -15.9720    5.8510 C   0  0  0  0  0  0  0  0  0  0  0  0
    1.2900  -16.0510    4.4110 C   0  0  0  0  0  0  0  0  0  0  0  0
    0.3540  -15.4830    3.4160 N   0  0  0  0  0  0  0  0  0  0  0  0
    0.7640  -14.5330    2.4900 C   0  0  0  0  0  0  0  0  0  0  0  0
    0.1160  -13.3910    2.4510 N   0  0  0  0  0  0  0  0  0  0  0  0
    0.5560  -12.4200    1.6060 C   0  0  0  0  0  0  0  0  0  0  0  0
    0.1540  -11.1310    1.3140 C   0  0  0  0  0  0  0  0  0  0  0  0
   -1.1850  -10.2930    1.9830 S   0  0  0  0  0  0  0  0  0  0  0  0
   -1.2830  -10.7360    3.3610 O   0  0  0  0  0  0  0  0  0  0  0  0
   -0.9640   -8.8990    1.6430 O   0  0  0  0  0  0  0  0  0  0  0  0
   -2.6170  -10.8840    1.1240 C   0  0  0  0  0  0  0  0  0  0  0  0
   -3.0250  -10.2370   -0.0480 C   0  0  0  0  0  0  0  0  0  0  0  0
   -4.1410  -10.7090   -0.7390 C   0  0  0  0  0  0  0  0  0  0  0  0
   -4.8350  -11.8240   -0.2640 C   0  0  0  0  0  0  0  0  0  0  0  0
   -4.4140  -12.4750    0.8970 C   0  0  0  0  0  0  0  0  0  0  0  0
   -3.3010  -12.0090    1.5940 C   0  0  0  0  0  0  0  0  0  0  0  0
    0.9960  -10.5730    0.3820 N   0  0  0  0  0  0  0  0  0  0  0  0
    1.9210  -11.4750    0.0740 N   0  0  0  0  0  0  0  0  0  0  0  0
    1.6560  -12.5810    0.7940 N   0  0  0  0  0  0  0  0  0  0  0  0
    2.3750  -13.7750    0.7280 C   0  0  0  0  0  0  0  0  0  0  0  0
    3.4510  -13.9440   -0.1480 C   0  0  0  0  0  0  0  0  0  0  0  0
    4.0710  -15.1900   -0.2150 C   0  0  0  0  0  0  0  0  0  0  0  0
    3.6000  -16.2450    0.5700 C   0  0  0  0  0  0  0  0  0  0  0  0
    4.3490  -17.7910    0.4530 Cl  0  0  0  0  0  0  0  0  0  0  0  0
    2.5260  -16.0670    1.4470 C   0  0  0  0  0  0  0  0  0  0  0  0
    1.9240  -14.8120    1.5570 C   0  0  0  0  0  0  0  0  0  0  0  0
   -1.0760  -15.5430    3.7960 C   0  0  0  0  0  0  0  0  0  0  0  0
   -1.3760  -16.7350    4.7260 C   0  0  0  0  0  0  0  0  0  0  0  0
    2.1517  -19.2870    7.8206 H   0  0  0  0  0  0  0  0  0  0  0  0
    2.6299  -20.1678    6.3300 H   0  0  0  0  0  0  0  0  0  0  0  0
    2.5627  -18.3728    6.3300 H   0  0  0  0  0  0  0  0  0  0  0  0
   -0.3577  -20.6252    8.3432 H   0  0  0  0  0  0  0  0  0  0  0  0
   -1.8816  -19.7418   10.1105 H   0  0  0  0  0  0  0  0  0  0  0  0
   -2.6962  -17.3912    9.9658 H   0  0  0  0  0  0  0  0  0  0  0  0
   -2.0578  -15.9564    8.0446 H   0  0  0  0  0  0  0  0  0  0  0  0
    0.6142  -14.9153    6.1311 H   0  0  0  0  0  0  0  0  0  0  0  0
    1.4463  -16.4726    6.5254 H   0  0  0  0  0  0  0  0  0  0  0  0
    2.2364  -15.4923    4.3652 H   0  0  0  0  0  0  0  0  0  0  0  0
    1.4374  -17.1131    4.1656 H   0  0  0  0  0  0  0  0  0  0  0  0
   -2.4702   -9.3635   -0.4212 H   0  0  0  0  0  0  0  0  0  0  0  0
   -4.4742  -10.2034   -1.6573 H   0  0  0  0  0  0  0  0  0  0  0  0
   -5.7180  -12.1912   -0.8076 H   0  0  0  0  0  0  0  0  0  0  0  0
   -4.9614  -13.3566    1.2619 H   0  0  0  0  0  0  0  0  0  0  0  0
   -2.9634  -12.5221    2.5065 H   0  0  0  0  0  0  0  0  0  0  0  0
    3.8016  -13.1092   -0.7726 H   0  0  0  0  0  0  0  0  0  0  0  0
    4.9300  -15.3426   -0.8850 H   0  0  0  0  0  0  0  0  0  0  0  0
    2.1570  -16.9115    2.0475 H   0  0  0  0  0  0  0  0  0  0  0  0
   -1.3451  -14.6111    4.3148 H   0  0  0  0  0  0  0  0  0  0  0  0
   -1.6670  -15.6714    2.8772 H   0  0  0  0  0  0  0  0  0  0  0  0
   -2.4438  -16.7261    4.9902 H   0  0  0  0  0  0  0  0  0  0  0  0
   -1.1188  -17.6657    4.1991 H   0  0  0  0  0  0  0  0  0  0  0  0
  1  2  1  0
  2  3  2  0
  2  4  1  0
  4  5  2  0
  5  6  1  0
  6  7  2  0
  7  8  1  0
  8  9  2  0
  9 10  1  0
 10 11  1  0
 11 12  1  0
 12 13  1  0
 13 14  1  0
 14 15  2  0
 15 16  1  0
 16 17  2  0
 17 18  1  0
 18 19  2  0
 18 20  2  0
 18 21  1  0
 21 22  2  0
 22 23  1  0
 23 24  2  0
 24 25  1  0
 25 26  2  0
 17 27  1  0
 27 28  2  0
 28 29  1  0
 29 30  1  0
 30 31  2  0
 31 32  1  0
 32 33  2  0
 33 34  1  0
 33 35  1  0
 35 36  2  0
 13 37  1  0
 37 38  1  0
  9  4  1  0
 38 10  1  0
 36 14  1  0
 29 16  1  0
 36 30  1  0
 26 21  1  0
  1 39  1  0
  1 40  1  0
  1 41  1  0
  5 42  1  0
  6 43  1  0
  7 44  1  0
  8 45  1  0
 11 46  1  0
 11 47  1  0
 12 48  1  0
 12 49  1  0
 22 50  1  0
 23 51  1  0
 24 52  1  0
 25 53  1  0
 26 54  1  0
 31 55  1  0
 32 56  1  0
 35 57  1  0
 37 58  1  0
 37 59  1  0
 38 60  1  0
 38 61  1  0
M  END
>  <meeko>  (4) 
{"is_sidechain": [false], "free_energy": -8.753, "intermolecular_energy": -10.954, "internal_energy": -0.95}

$$$$
LIB_TUQMHRDZPSHMHB__M_PUB_ALL__e8__s20260927
     RDKit          3D

 61 66  0  0  0  0  0  0  0  0999 V2000
    2.8480  -15.1410   -2.0990 C   0  0  0  0  0  0  0  0  0  0  0  0
    3.5430  -13.8550   -1.7330 C   0  0  0  0  0  0  0  0  0  0  0  0
    4.5760  -13.8300   -1.0710 O   0  0  0  0  0  0  0  0  0  0  0  0
    2.9730  -12.5950   -2.2540 C   0  0  0  0  0  0  0  0  0  0  0  0
    2.0010  -11.9890   -1.4420 C   0  0  0  0  0  0  0  0  0  0  0  0
    1.4950  -10.7390   -1.7790 C   0  0  0  0  0  0  0  0  0  0  0  0
    1.9630  -10.1010   -2.9210 C   0  0  0  0  0  0  0  0  0  0  0  0
    2.9170  -10.7220   -3.7380 C   0  0  0  0  0  0  0  0  0  0  0  0
    3.4350  -11.9970   -3.4460 C   0  0  0  0  0  0  0  0  0  0  0  0
    4.3180  -12.6130   -4.3230 N   0  0  0  0  0  0  0  0  0  0  0  0
    3.8260  -13.1370   -5.6160 C   0  0  0  0  0  0  0  0  0  0  0  0
    4.8090  -12.8100   -6.7630 C   0  0  0  0  0  0  0  0  0  0  0  0
    6.1680  -13.3330   -6.5040 N   0  0  0  0  0  0  0  0  0  0  0  0
    6.8420  -14.1050   -7.4420 C   0  0  0  0  0  0  0  0  0  0  0  0
    7.2680  -15.2910   -7.0720 N   0  0  0  0  0  0  0  0  0  0  0  0
    7.8590  -16.0910   -8.0000 C   0  0  0  0  0  0  0  0  0  0  0  0
    8.3960  -17.3630   -7.9860 C   0  0  0  0  0  0  0  0  0  0  0  0
    8.5160  -18.4150   -6.6360 S   0  0  0  0  0  0  0  0  0  0  0  0
    7.1970  -18.4430   -6.0340 O   0  0  0  0  0  0  0  0  0  0  0  0
    9.1470  -19.6160   -7.1510 O   0  0  0  0  0  0  0  0  0  0  0  0
    9.6140  -17.6250   -5.4910 C   0  0  0  0  0  0  0  0  0  0  0  0
   10.9890  -17.6300   -5.7500 C   0  0  0  0  0  0  0  0  0  0  0  0
   11.8560  -16.9940   -4.8610 C   0  0  0  0  0  0  0  0  0  0  0  0
   11.3480  -16.3500   -3.7310 C   0  0  0  0  0  0  0  0  0  0  0  0
    9.9740  -16.3350   -3.4870 C   0  0  0  0  0  0  0  0  0  0  0  0
    9.1000  -16.9690   -4.3690 C   0  0  0  0  0  0  0  0  0  0  0  0
    8.8390  -17.7030   -9.2410 N   0  0  0  0  0  0  0  0  0  0  0  0
    8.5990  -16.6790  -10.0510 N   0  0  0  0  0  0  0  0  0  0  0  0
    8.0240  -15.7120   -9.3130 N   0  0  0  0  0  0  0  0  0  0  0  0
    7.6510  -14.4520   -9.7860 C   0  0  0  0  0  0  0  0  0  0  0  0
    7.8840  -14.0590  -11.1070 C   0  0  0  0  0  0  0  0  0  0  0  0
    7.5570  -12.7590  -11.4860 C   0  0  0  0  0  0  0  0  0  0  0  0
    7.0280  -11.8710  -10.5460 C   0  0  0  0  0  0  0  0  0  0  0  0
    6.6630  -10.2560  -11.0150 Cl  0  0  0  0  0  0  0  0  0  0  0  0
    6.7950  -12.2730   -9.2280 C   0  0  0  0  0  0  0  0  0  0  0  0
    7.0760  -13.5870   -8.8460 C   0  0  0  0  0  0  0  0  0  0  0  0
    6.5240  -13.4700   -5.0730 C   0  0  0  0  0  0  0  0  0  0  0  0
    5.7770  -12.4500   -4.1920 C   0  0  0  0  0  0  0  0  0  0  0  0
    2.5591  -15.6755   -1.1820 H   0  0  0  0  0  0  0  0  0  0  0  0
    1.9486  -14.9161   -2.6911 H   0  0  0  0  0  0  0  0  0  0  0  0
    3.5289  -15.7701   -2.6911 H   0  0  0  0  0  0  0  0  0  0  0  0
    1.6399  -12.5034   -0.5392 H   0  0  0  0  0  0  0  0  0  0  0  0
    0.7319  -10.2599   -1.1480 H   0  0  0  0  0  0  0  0  0  0  0  0
    1.5826   -9.1032   -3.1851 H   0  0  0  0  0  0  0  0  0  0  0  0
    3.2722  -10.1959   -4.6363 H   0  0  0  0  0  0  0  0  0  0  0  0
    3.7128  -14.2286   -5.5409 H   0  0  0  0  0  0  0  0  0  0  0  0
    2.8598  -12.6609   -5.8394 H   0  0  0  0  0  0  0  0  0  0  0  0
    4.4289  -13.2579   -7.6930 H   0  0  0  0  0  0  0  0  0  0  0  0
    4.8796  -11.7152   -6.8438 H   0  0  0  0  0  0  0  0  0  0  0  0
   11.3829  -18.1309   -6.6466 H   0  0  0  0  0  0  0  0  0  0  0  0
   12.9396  -16.9999   -5.0503 H   0  0  0  0  0  0  0  0  0  0  0  0
   12.0340  -15.8522   -3.0299 H   0  0  0  0  0  0  0  0  0  0  0  0
    9.5799  -15.8221   -2.5973 H   0  0  0  0  0  0  0  0  0  0  0  0
    8.0159  -16.9531   -4.1835 H   0  0  0  0  0  0  0  0  0  0  0  0
    8.3172  -14.7626  -11.8332 H   0  0  0  0  0  0  0  0  0  0  0  0
    7.7151  -12.4320  -12.5243 H   0  0  0  0  0  0  0  0  0  0  0  0
    6.3924  -11.5584   -8.4951 H   0  0  0  0  0  0  0  0  0  0  0  0
    6.2650  -14.4853   -4.7382 H   0  0  0  0  0  0  0  0  0  0  0  0
    7.6028  -13.2807   -4.9717 H   0  0  0  0  0  0  0  0  0  0  0  0
    6.0639  -12.6031   -3.1411 H   0  0  0  0  0  0  0  0  0  0  0  0
    6.0488  -11.4358   -4.5199 H   0  0  0  0  0  0  0  0  0  0  0  0
  1  2  1  0
  2  3  2  0
  2  4  1  0
  4  5  2  0
  5  6  1  0
  6  7  2  0
  7  8  1  0
  8  9  2  0
  9 10  1  0
 10 11  1  0
 11 12  1  0
 12 13  1  0
 13 14  1  0
 14 15  2  0
 15 16  1  0
 16 17  2  0
 17 18  1  0
 18 19  2  0
 18 20  2  0
 18 21  1  0
 21 22  2  0
 22 23  1  0
 23 24  2  0
 24 25  1  0
 25 26  2  0
 17 27  1  0
 27 28  2  0
 28 29  1  0
 29 30  1  0
 30 31  2  0
 31 32  1  0
 32 33  2  0
 33 34  1  0
 33 35  1  0
 35 36  2  0
 13 37  1  0
 37 38  1  0
  9  4  1  0
 38 10  1  0
 36 14  1  0
 29 16  1  0
 36 30  1  0
 26 21  1  0
  1 39  1  0
  1 40  1  0
  1 41  1  0
  5 42  1  0
  6 43  1  0
  7 44  1  0
  8 45  1  0
 11 46  1  0
 11 47  1  0
 12 48  1  0
 12 49  1  0
 22 50  1  0
 23 51  1  0
 24 52  1  0
 25 53  1  0
 26 54  1  0
 31 55  1  0
 32 56  1  0
 35 57  1  0
 37 58  1  0
 37 59  1  0
 38 60  1  0
 38 61  1  0
M  END
>  <meeko>  (5) 
{"is_sidechain": [false], "free_energy": -8.736, "intermolecular_energy": -10.716, "internal_energy": -1.166}

$$$$
LIB_TUQMHRDZPSHMHB__M_PUB_ALL__e8__s20260927
     RDKit          3D

 61 66  0  0  0  0  0  0  0  0999 V2000
   -1.8150  -16.3630    7.1050 C   0  0  0  0  0  0  0  0  0  0  0  0
   -1.9590  -17.5920    6.2440 C   0  0  0  0  0  0  0  0  0  0  0  0
   -2.9850  -17.8410    5.6180 O   0  0  0  0  0  0  0  0  0  0  0  0
   -0.7860  -18.4820    6.1170 C   0  0  0  0  0  0  0  0  0  0  0  0
   -0.7550  -19.5720    7.0020 C   0  0  0  0  0  0  0  0  0  0  0  0
    0.2380  -20.5370    6.8810 C   0  0  0  0  0  0  0  0  0  0  0  0
    1.1900  -20.4110    5.8760 C   0  0  0  0  0  0  0  0  0  0  0  0
    1.1640  -19.3100    5.0100 C   0  0  0  0  0  0  0  0  0  0  0  0
    0.1930  -18.2980    5.1160 C   0  0  0  0  0  0  0  0  0  0  0  0
    0.2480  -17.1820    4.2920 N   0  0  0  0  0  0  0  0  0  0  0  0
    1.4090  -16.2680    4.3690 C   0  0  0  0  0  0  0  0  0  0  0  0
    1.8740  -15.8330    2.9610 C   0  0  0  0  0  0  0  0  0  0  0  0
    0.7900  -15.1900    2.1850 N   0  0  0  0  0  0  0  0  0  0  0  0
    0.9680  -13.9580    1.5690 C   0  0  0  0  0  0  0  0  0  0  0  0
    0.1300  -12.9920    1.8710 N   0  0  0  0  0  0  0  0  0  0  0  0
    0.3390  -11.7580    1.3380 C   0  0  0  0  0  0  0  0  0  0  0  0
   -0.2990  -10.5360    1.4380 C   0  0  0  0  0  0  0  0  0  0  0  0
   -1.7150  -10.1840    2.3390 S   0  0  0  0  0  0  0  0  0  0  0  0
   -1.4350  -10.5990    3.7000 O   0  0  0  0  0  0  0  0  0  0  0  0
   -2.0370   -8.8080    2.0100 O   0  0  0  0  0  0  0  0  0  0  0  0
   -2.9820  -11.2470    1.7030 C   0  0  0  0  0  0  0  0  0  0  0  0
   -3.4230  -11.0720    0.3860 C   0  0  0  0  0  0  0  0  0  0  0  0
   -4.4070  -11.9180   -0.1250 C   0  0  0  0  0  0  0  0  0  0  0  0
   -4.9360  -12.9360    0.6710 C   0  0  0  0  0  0  0  0  0  0  0  0
   -4.4810  -13.1160    1.9780 C   0  0  0  0  0  0  0  0  0  0  0  0
   -3.4990  -12.2740    2.4990 C   0  0  0  0  0  0  0  0  0  0  0  0
    0.3710   -9.5920    0.6970 N   0  0  0  0  0  0  0  0  0  0  0  0
    1.4150  -10.1840    0.1290 N   0  0  0  0  0  0  0  0  0  0  0  0
    1.3940  -11.4770    0.5000 N   0  0  0  0  0  0  0  0  0  0  0  0
    2.3040  -12.4500    0.0820 C   0  0  0  0  0  0  0  0  0  0  0  0
    3.3320  -12.1620   -0.8190 C   0  0  0  0  0  0  0  0  0  0  0  0
    4.1530  -13.2020   -1.2520 C   0  0  0  0  0  0  0  0  0  0  0  0
    3.9250  -14.5040   -0.8010 C   0  0  0  0  0  0  0  0  0  0  0  0
    4.9200  -15.7870   -1.3700 Cl  0  0  0  0  0  0  0  0  0  0  0  0
    2.8960  -14.7820    0.1040 C   0  0  0  0  0  0  0  0  0  0  0  0
    2.0940  -13.7430    0.5810 C   0  0  0  0  0  0  0  0  0  0  0  0
   -0.5800  -15.6180    2.5500 C   0  0  0  0  0  0  0  0  0  0  0  0
   -0.6070  -17.0590    3.0990 C   0  0  0  0  0  0  0  0  0  0  0  0
   -1.8489  -16.6524    8.1657 H   0  0  0  0  0  0  0  0  0  0  0  0
   -0.8535  -15.8744    6.8888 H   0  0  0  0  0  0  0  0  0  0  0  0
   -2.6376  -15.6654    6.8888 H   0  0  0  0  0  0  0  0  0  0  0  0
   -1.5164  -19.6620    7.7908 H   0  0  0  0  0  0  0  0  0  0  0  0
    0.2702  -21.3913    7.5732 H   0  0  0  0  0  0  0  0  0  0  0  0
    1.9680  -21.1799    5.7600 H   0  0  0  0  0  0  0  0  0  0  0  0
    1.9276  -19.2346    4.2218 H   0  0  0  0  0  0  0  0  0  0  0  0
    1.1245  -15.3748    4.9445 H   0  0  0  0  0  0  0  0  0  0  0  0
    2.2377  -16.7991    4.8602 H   0  0  0  0  0  0  0  0  0  0  0  0
    2.7041  -15.1192    3.0675 H   0  0  0  0  0  0  0  0  0  0  0  0
    2.1877  -16.7358    2.4164 H   0  0  0  0  0  0  0  0  0  0  0  0
   -2.9972  -10.2743   -0.2403 H   0  0  0  0  0  0  0  0  0  0  0  0
   -4.7666  -11.7832   -1.1558 H   0  0  0  0  0  0  0  0  0  0  0  0
   -5.7148  -13.5990    0.2661 H   0  0  0  0  0  0  0  0  0  0  0  0
   -4.8976  -13.9233    2.5982 H   0  0  0  0  0  0  0  0  0  0  0  0
   -3.1343  -12.4164    3.5270 H   0  0  0  0  0  0  0  0  0  0  0  0
    3.4905  -11.1349   -1.1796 H   0  0  0  0  0  0  0  0  0  0  0  0
    4.9797  -12.9974   -1.9482 H   0  0  0  0  0  0  0  0  0  0  0  0
    2.7190  -15.8147    0.4388 H   0  0  0  0  0  0  0  0  0  0  0  0
   -0.9717  -14.9370    3.3200 H   0  0  0  0  0  0  0  0  0  0  0  0
   -1.1991  -15.5885    1.6412 H   0  0  0  0  0  0  0  0  0  0  0  0
   -1.6405  -17.3229    3.3676 H   0  0  0  0  0  0  0  0  0  0  0  0
   -0.2269  -17.7387    2.3221 H   0  0  0  0  0  0  0  0  0  0  0  0
  1  2  1  0
  2  3  2  0
  2  4  1  0
  4  5  2  0
  5  6  1  0
  6  7  2  0
  7  8  1  0
  8  9  2  0
  9 10  1  0
 10 11  1  0
 11 12  1  0
 12 13  1  0
 13 14  1  0
 14 15  2  0
 15 16  1  0
 16 17  2  0
 17 18  1  0
 18 19  2  0
 18 20  2  0
 18 21  1  0
 21 22  2  0
 22 23  1  0
 23 24  2  0
 24 25  1  0
 25 26  2  0
 17 27  1  0
 27 28  2  0
 28 29  1  0
 29 30  1  0
 30 31  2  0
 31 32  1  0
 32 33  2  0
 33 34  1  0
 33 35  1  0
 35 36  2  0
 13 37  1  0
 37 38  1  0
  9  4  1  0
 38 10  1  0
 36 14  1  0
 29 16  1  0
 36 30  1  0
 26 21  1  0
  1 39  1  0
  1 40  1  0
  1 41  1  0
  5 42  1  0
  6 43  1  0
  7 44  1  0
  8 45  1  0
 11 46  1  0
 11 47  1  0
 12 48  1  0
 12 49  1  0
 22 50  1  0
 23 51  1  0
 24 52  1  0
 25 53  1  0
 26 54  1  0
 31 55  1  0
 32 56  1  0
 35 57  1  0
 37 58  1  0
 37 59  1  0
 38 60  1  0
 38 61  1  0
M  END
>  <meeko>  (6) 
{"is_sidechain": [false], "free_energy": -8.57, "intermolecular_energy": -10.558, "internal_energy": -1.12}

$$$$
LIB_TUQMHRDZPSHMHB__M_PUB_ALL__e8__s20260927
     RDKit          3D

 61 66  0  0  0  0  0  0  0  0999 V2000
    3.4300  -10.8670   -5.0130 C   0  0  0  0  0  0  0  0  0  0  0  0
    2.9870  -12.1190   -4.3020 C   0  0  0  0  0  0  0  0  0  0  0  0
    2.5570  -13.1010   -4.9010 O   0  0  0  0  0  0  0  0  0  0  0  0
    3.1410  -12.1650   -2.8330 C   0  0  0  0  0  0  0  0  0  0  0  0
    2.0510  -11.6770   -2.0940 C   0  0  0  0  0  0  0  0  0  0  0  0
    2.0440  -11.7910   -0.7090 C   0  0  0  0  0  0  0  0  0  0  0  0
    3.1200  -12.3940   -0.0700 C   0  0  0  0  0  0  0  0  0  0  0  0
    4.2140  -12.8590   -0.8130 C   0  0  0  0  0  0  0  0  0  0  0  0
    4.2720  -12.7390   -2.2130 C   0  0  0  0  0  0  0  0  0  0  0  0
    5.4080  -13.1380   -2.9050 N   0  0  0  0  0  0  0  0  0  0  0  0
    5.4220  -14.4410   -3.6060 C   0  0  0  0  0  0  0  0  0  0  0  0
    6.0890  -14.3220   -4.9950 C   0  0  0  0  0  0  0  0  0  0  0  0
    7.4680  -13.7920   -4.9120 N   0  0  0  0  0  0  0  0  0  0  0  0
    8.5340  -14.4370   -5.5240 C   0  0  0  0  0  0  0  0  0  0  0  0
    9.5600  -14.7770   -4.7770 N   0  0  0  0  0  0  0  0  0  0  0  0
   10.5760  -15.4810   -5.3450 C   0  0  0  0  0  0  0  0  0  0  0  0
   11.7670  -16.0100   -4.8860 C   0  0  0  0  0  0  0  0  0  0  0  0
   12.3990  -15.8960   -3.2960 S   0  0  0  0  0  0  0  0  0  0  0  0
   11.2950  -16.2030   -2.4060 O   0  0  0  0  0  0  0  0  0  0  0  0
   13.6100  -16.6960   -3.3150 O   0  0  0  0  0  0  0  0  0  0  0  0
   12.8270  -14.1940   -3.0540 C   0  0  0  0  0  0  0  0  0  0  0  0
   12.1720  -13.4600   -2.0590 C   0  0  0  0  0  0  0  0  0  0  0  0
   12.5180  -12.1250   -1.8530 C   0  0  0  0  0  0  0  0  0  0  0  0
   13.5180  -11.5350   -2.6290 C   0  0  0  0  0  0  0  0  0  0  0  0
   14.1790  -12.2760   -3.6090 C   0  0  0  0  0  0  0  0  0  0  0  0
   13.8390  -13.6110   -3.8230 C   0  0  0  0  0  0  0  0  0  0  0  0
   12.4130  -16.6710   -5.9030 N   0  0  0  0  0  0  0  0  0  0  0  0
   11.6640  -16.5740   -6.9950 N   0  0  0  0  0  0  0  0  0  0  0  0
   10.5730  -15.8570   -6.6690 N   0  0  0  0  0  0  0  0  0  0  0  0
    9.5530  -15.4960   -7.5520 C   0  0  0  0  0  0  0  0  0  0  0  0
    9.5960  -15.8310   -8.9090 C   0  0  0  0  0  0  0  0  0  0  0  0
    8.5820  -15.3690   -9.7450 C   0  0  0  0  0  0  0  0  0  0  0  0
    7.5610  -14.5690   -9.2250 C   0  0  0  0  0  0  0  0  0  0  0  0
    6.3330  -13.9720  -10.2730 Cl  0  0  0  0  0  0  0  0  0  0  0  0
    7.5240  -14.2420   -7.8670 C   0  0  0  0  0  0  0  0  0  0  0  0
    8.5090  -14.7350   -7.0090 C   0  0  0  0  0  0  0  0  0  0  0  0
    7.7330  -12.9150   -3.7480 C   0  0  0  0  0  0  0  0  0  0  0  0
    6.4620  -12.1790   -3.2790 C   0  0  0  0  0  0  0  0  0  0  0  0
    3.7011  -10.1008   -4.2718 H   0  0  0  0  0  0  0  0  0  0  0  0
    4.3029  -11.0926   -5.6432 H   0  0  0  0  0  0  0  0  0  0  0  0
    2.6095  -10.4934   -5.6432 H   0  0  0  0  0  0  0  0  0  0  0  0
    1.2029  -11.2046   -2.6114 H   0  0  0  0  0  0  0  0  0  0  0  0
    1.1947  -11.4075   -0.1244 H   0  0  0  0  0  0  0  0  0  0  0  0
    3.1136  -12.5071    1.0241 H   0  0  0  0  0  0  0  0  0  0  0  0
    5.0540  -13.3329   -0.2840 H   0  0  0  0  0  0  0  0  0  0  0  0
    5.9824  -15.1682   -3.0001 H   0  0  0  0  0  0  0  0  0  0  0  0
    4.3824  -14.7719   -3.7464 H   0  0  0  0  0  0  0  0  0  0  0  0
    6.1205  -15.3189   -5.4589 H   0  0  0  0  0  0  0  0  0  0  0  0
    5.4935  -13.6183   -5.5952 H   0  0  0  0  0  0  0  0  0  0  0  0
   11.3910  -13.9319   -1.4447 H   0  0  0  0  0  0  0  0  0  0  0  0
   12.0032  -11.5366   -1.0792 H   0  0  0  0  0  0  0  0  0  0  0  0
   13.7859  -10.4805   -2.4667 H   0  0  0  0  0  0  0  0  0  0  0  0
   14.9691  -11.8065   -4.2134 H   0  0  0  0  0  0  0  0  0  0  0  0
   14.3623  -14.2006   -4.5901 H   0  0  0  0  0  0  0  0  0  0  0  0
   10.4147  -16.4474   -9.3086 H   0  0  0  0  0  0  0  0  0  0  0  0
    8.5850  -15.6335  -10.8127 H   0  0  0  0  0  0  0  0  0  0  0  0
    6.7221  -13.5988   -7.4755 H   0  0  0  0  0  0  0  0  0  0  0  0
    8.1136  -13.5300   -2.9192 H   0  0  0  0  0  0  0  0  0  0  0  0
    8.4709  -12.1585   -4.0532 H   0  0  0  0  0  0  0  0  0  0  0  0
    6.7078  -11.5555   -2.4068 H   0  0  0  0  0  0  0  0  0  0  0  0
    6.0921  -11.5542   -4.1053 H   0  0  0  0  0  0  0  0  0  0  0  0
  1  2  1  0
  2  3  2  0
  2  4  1  0
  4  5  2  0
  5  6  1  0
  6  7  2  0
  7  8  1  0
  8  9  2  0
  9 10  1  0
 10 11  1  0
 11 12  1  0
 12 13  1  0
 13 14  1  0
 14 15  2  0
 15 16  1  0
 16 17  2  0
 17 18  1  0
 18 19  2  0
 18 20  2  0
 18 21  1  0
 21 22  2  0
 22 23  1  0
 23 24  2  0
 24 25  1  0
 25 26  2  0
 17 27  1  0
 27 28  2  0
 28 29  1  0
 29 30  1  0
 30 31  2  0
 31 32  1  0
 32 33  2  0
 33 34  1  0
 33 35  1  0
 35 36  2  0
 13 37  1  0
 37 38  1  0
  9  4  1  0
 38 10  1  0
 36 14  1  0
 29 16  1  0
 36 30  1  0
 26 21  1  0
  1 39  1  0
  1 40  1  0
  1 41  1  0
  5 42  1  0
  6 43  1  0
  7 44  1  0
  8 45  1  0
 11 46  1  0
 11 47  1  0
 12 48  1  0
 12 49  1  0
 22 50  1  0
 23 51  1  0
 24 52  1  0
 25 53  1  0
 26 54  1  0
 31 55  1  0
 32 56  1  0
 35 57  1  0
 37 58  1  0
 37 59  1  0
 38 60  1  0
 38 61  1  0
M  END
>  <meeko>  (7) 
{"is_sidechain": [false], "free_energy": -8.539, "intermolecular_energy": -10.611, "internal_energy": -1.028}

$$$$
LIB_TUQMHRDZPSHMHB__M_PUB_ALL__e8__s20260927
     RDKit          3D

 61 66  0  0  0  0  0  0  0  0999 V2000
    4.9030  -14.1220   -0.6760 C   0  0  0  0  0  0  0  0  0  0  0  0
    4.4270  -15.2090   -1.6040 C   0  0  0  0  0  0  0  0  0  0  0  0
    4.7710  -16.3810   -1.4790 O   0  0  0  0  0  0  0  0  0  0  0  0
    3.4620  -14.8360   -2.6600 C   0  0  0  0  0  0  0  0  0  0  0  0
    2.1090  -14.8660   -2.2820 C   0  0  0  0  0  0  0  0  0  0  0  0
    1.1330  -14.4120   -3.1610 C   0  0  0  0  0  0  0  0  0  0  0  0
    1.5100  -13.9280   -4.4070 C   0  0  0  0  0  0  0  0  0  0  0  0
    2.8590  -13.9210   -4.7840 C   0  0  0  0  0  0  0  0  0  0  0  0
    3.8760  -14.3960   -3.9360 C   0  0  0  0  0  0  0  0  0  0  0  0
    5.1910  -14.4470   -4.3760 N   0  0  0  0  0  0  0  0  0  0  0  0
    5.6340  -15.5620   -5.2440 C   0  0  0  0  0  0  0  0  0  0  0  0
    6.5410  -15.0540   -6.3870 C   0  0  0  0  0  0  0  0  0  0  0  0
    7.7240  -14.3220   -5.8830 N   0  0  0  0  0  0  0  0  0  0  0  0
    9.0090  -14.6380   -6.3030 C   0  0  0  0  0  0  0  0  0  0  0  0
    9.9000  -14.9400   -5.3850 N   0  0  0  0  0  0  0  0  0  0  0  0
   11.1400  -15.3300   -5.7840 C   0  0  0  0  0  0  0  0  0  0  0  0
   12.2910  -15.7270   -5.1310 C   0  0  0  0  0  0  0  0  0  0  0  0
   12.5290  -15.8280   -3.4350 S   0  0  0  0  0  0  0  0  0  0  0  0
   11.2740  -16.3010   -2.8840 O   0  0  0  0  0  0  0  0  0  0  0  0
   13.7650  -16.5730   -3.2730 O   0  0  0  0  0  0  0  0  0  0  0  0
   12.7720  -14.1650   -2.8710 C   0  0  0  0  0  0  0  0  0  0  0  0
   13.6280  -13.3200   -3.5860 C   0  0  0  0  0  0  0  0  0  0  0  0
   13.8080  -12.0050   -3.1570 C   0  0  0  0  0  0  0  0  0  0  0  0
   13.1300  -11.5400   -2.0290 C   0  0  0  0  0  0  0  0  0  0  0  0
   12.2650  -12.3830   -1.3290 C   0  0  0  0  0  0  0  0  0  0  0  0
   12.0800  -13.6990   -1.7500 C   0  0  0  0  0  0  0  0  0  0  0  0
   13.2660  -16.0510   -6.0440 N   0  0  0  0  0  0  0  0  0  0  0  0
   12.7640  -15.8670   -7.2590 N   0  0  0  0  0  0  0  0  0  0  0  0
   11.5010  -15.4280   -7.1090 N   0  0  0  0  0  0  0  0  0  0  0  0
   10.6400  -15.0790   -8.1510 C   0  0  0  0  0  0  0  0  0  0  0  0
   11.0430  -15.1240   -9.4890 C   0  0  0  0  0  0  0  0  0  0  0  0
   10.1560  -14.6840  -10.4700 C   0  0  0  0  0  0  0  0  0  0  0  0
    8.9000  -14.1920  -10.1040 C   0  0  0  0  0  0  0  0  0  0  0  0
    7.8260  -13.6180  -11.3200 Cl  0  0  0  0  0  0  0  0  0  0  0  0
    8.5040  -14.1550   -8.7640 C   0  0  0  0  0  0  0  0  0  0  0  0
    9.3660  -14.6340   -7.7750 C   0  0  0  0  0  0  0  0  0  0  0  0
    7.5400  -13.6640   -4.5690 C   0  0  0  0  0  0  0  0  0  0  0  0
    6.0710  -13.2660   -4.3240 C   0  0  0  0  0  0  0  0  0  0  0  0
    4.7626  -14.4426    0.3668 H   0  0  0  0  0  0  0  0  0  0  0  0
    5.9697  -13.9251   -0.8586 H   0  0  0  0  0  0  0  0  0  0  0  0
    4.3243  -13.2045   -0.8586 H   0  0  0  0  0  0  0  0  0  0  0  0
    1.8226  -15.2485   -1.2912 H   0  0  0  0  0  0  0  0  0  0  0  0
    0.0718  -14.4358   -2.8726 H   0  0  0  0  0  0  0  0  0  0  0  0
    0.7456  -13.5484   -5.1010 H   0  0  0  0  0  0  0  0  0  0  0  0
    3.1321  -13.5313   -5.7757 H   0  0  0  0  0  0  0  0  0  0  0  0
    6.1945  -16.2883   -4.6371 H   0  0  0  0  0  0  0  0  0  0  0  0
    4.7443  -16.0322   -5.6882 H   0  0  0  0  0  0  0  0  0  0  0  0
    6.8839  -15.9171   -6.9765 H   0  0  0  0  0  0  0  0  0  0  0  0
    5.9507  -14.3573   -7.0002 H   0  0  0  0  0  0  0  0  0  0  0  0
   14.1543  -13.6895   -4.4785 H   0  0  0  0  0  0  0  0  0  0  0  0
   14.4842  -11.3345   -3.7076 H   0  0  0  0  0  0  0  0  0  0  0  0
   13.2780  -10.5041   -1.6899 H   0  0  0  0  0  0  0  0  0  0  0  0
   11.7289  -12.0085   -0.4445 H   0  0  0  0  0  0  0  0  0  0  0  0
   11.3952  -14.3649   -1.2045 H   0  0  0  0  0  0  0  0  0  0  0  0
   12.0403  -15.4992   -9.7621 H   0  0  0  0  0  0  0  0  0  0  0  0
   10.4441  -14.7239  -11.5309 H   0  0  0  0  0  0  0  0  0  0  0  0
    7.5184  -13.7507   -8.4898 H   0  0  0  0  0  0  0  0  0  0  0  0
    7.8569  -14.3580   -3.7766 H   0  0  0  0  0  0  0  0  0  0  0  0
    8.1469  -12.7466   -4.5601 H   0  0  0  0  0  0  0  0  0  0  0  0
    5.9855  -12.7964   -3.3330 H   0  0  0  0  0  0  0  0  0  0  0  0
    5.7615  -12.5620   -5.1105 H   0  0  0  0  0  0  0  0  0  0  0  0
  1  2  1  0
  2  3  2  0
  2  4  1  0
  4  5  2  0
  5  6  1  0
  6  7  2  0
  7  8  1  0
  8  9  2  0
  9 10  1  0
 10 11  1  0
 11 12  1  0
 12 13  1  0
 13 14  1  0
 14 15  2  0
 15 16  1  0
 16 17  2  0
 17 18  1  0
 18 19  2  0
 18 20  2  0
 18 21  1  0
 21 22  2  0
 22 23  1  0
 23 24  2  0
 24 25  1  0
 25 26  2  0
 17 27  1  0
 27 28  2  0
 28 29  1  0
 29 30  1  0
 30 31  2  0
 31 32  1  0
 32 33  2  0
 33 34  1  0
 33 35  1  0
 35 36  2  0
 13 37  1  0
 37 38  1  0
  9  4  1  0
 38 10  1  0
 36 14  1  0
 29 16  1  0
 36 30  1  0
 26 21  1  0
  1 39  1  0
  1 40  1  0
  1 41  1  0
  5 42  1  0
  6 43  1  0
  7 44  1  0
  8 45  1  0
 11 46  1  0
 11 47  1  0
 12 48  1  0
 12 49  1  0
 22 50  1  0
 23 51  1  0
 24 52  1  0
 25 53  1  0
 26 54  1  0
 31 55  1  0
 32 56  1  0
 35 57  1  0
 37 58  1  0
 37 59  1  0
 38 60  1  0
 38 61  1  0
M  END
>  <meeko>  (8) 
{"is_sidechain": [false], "free_energy": -8.301, "intermolecular_energy": -10.298, "internal_energy": -1.048}

$$$$
LIB_TUQMHRDZPSHMHB__M_PUB_ALL__e8__s20260927
     RDKit          3D

 61 66  0  0  0  0  0  0  0  0999 V2000
    2.1520  -12.5630   -4.0030 C   0  0  0  0  0  0  0  0  0  0  0  0
    2.6600  -11.6650   -2.9050 C   0  0  0  0  0  0  0  0  0  0  0  0
    1.9830  -10.7580   -2.4290 O   0  0  0  0  0  0  0  0  0  0  0  0
    4.0040  -11.9440   -2.3570 C   0  0  0  0  0  0  0  0  0  0  0  0
    5.0800  -11.4340   -3.1010 C   0  0  0  0  0  0  0  0  0  0  0  0
    6.3750  -11.5340   -2.6070 C   0  0  0  0  0  0  0  0  0  0  0  0
    6.5890  -12.1360   -1.3740 C   0  0  0  0  0  0  0  0  0  0  0  0
    5.5120  -12.6620   -0.6470 C   0  0  0  0  0  0  0  0  0  0  0  0
    4.1900  -12.6060   -1.1240 C   0  0  0  0  0  0  0  0  0  0  0  0
    3.1610  -13.2090   -0.4130 N   0  0  0  0  0  0  0  0  0  0  0  0
    2.4270  -12.4400    0.6160 C   0  0  0  0  0  0  0  0  0  0  0  0
    0.9080  -12.7100    0.5390 C   0  0  0  0  0  0  0  0  0  0  0  0
    0.5850  -14.1480    0.6750 N   0  0  0  0  0  0  0  0  0  0  0  0
   -0.3580  -14.5990    1.5890 C   0  0  0  0  0  0  0  0  0  0  0  0
    0.0170  -15.5010    2.4670 N   0  0  0  0  0  0  0  0  0  0  0  0
   -0.8720  -15.8940    3.4190 C   0  0  0  0  0  0  0  0  0  0  0  0
   -0.8310  -16.7760    4.4810 C   0  0  0  0  0  0  0  0  0  0  0  0
    0.4890  -17.7680    4.9460 S   0  0  0  0  0  0  0  0  0  0  0  0
    0.7680  -18.6190    3.8050 O   0  0  0  0  0  0  0  0  0  0  0  0
    1.4800  -16.8500    5.4760 O   0  0  0  0  0  0  0  0  0  0  0  0
   -0.1070  -18.8020    6.2560 C   0  0  0  0  0  0  0  0  0  0  0  0
   -0.6680  -20.0450    5.9430 C   0  0  0  0  0  0  0  0  0  0  0  0
   -1.1220  -20.8710    6.9710 C   0  0  0  0  0  0  0  0  0  0  0  0
   -1.0050  -20.4590    8.3000 C   0  0  0  0  0  0  0  0  0  0  0  0
   -0.4300  -19.2250    8.6070 C   0  0  0  0  0  0  0  0  0  0  0  0
    0.0250  -18.3920    7.5860 C   0  0  0  0  0  0  0  0  0  0  0  0
   -2.0290  -16.7610    5.1540 N   0  0  0  0  0  0  0  0  0  0  0  0
   -2.8290  -15.8930    4.5460 N   0  0  0  0  0  0  0  0  0  0  0  0
   -2.1470  -15.3820    3.5050 N   0  0  0  0  0  0  0  0  0  0  0  0
   -2.6510  -14.4600    2.5860 C   0  0  0  0  0  0  0  0  0  0  0  0
   -3.9690  -13.9980    2.6500 C   0  0  0  0  0  0  0  0  0  0  0  0
   -4.4260  -13.1400    1.6520 C   0  0  0  0  0  0  0  0  0  0  0  0
   -3.5770  -12.7750    0.6040 C   0  0  0  0  0  0  0  0  0  0  0  0
   -4.1630  -11.7440   -0.6440 Cl  0  0  0  0  0  0  0  0  0  0  0  0
   -2.2600  -13.2390    0.5500 C   0  0  0  0  0  0  0  0  0  0  0  0
   -1.7750  -14.0640    1.5670 C   0  0  0  0  0  0  0  0  0  0  0  0
    1.6520  -15.0740    0.2290 C   0  0  0  0  0  0  0  0  0  0  0  0
    2.5270  -14.4550   -0.8800 C   0  0  0  0  0  0  0  0  0  0  0  0
    1.6562  -13.4394   -3.5600 H   0  0  0  0  0  0  0  0  0  0  0  0
    1.4327  -12.0104   -4.6253 H   0  0  0  0  0  0  0  0  0  0  0  0
    2.9962  -12.8949   -4.6253 H   0  0  0  0  0  0  0  0  0  0  0  0
    4.8979  -10.9555   -4.0746 H   0  0  0  0  0  0  0  0  0  0  0  0
    7.2225  -11.1401   -3.1871 H   0  0  0  0  0  0  0  0  0  0  0  0
    7.6084  -12.2004   -0.9659 H   0  0  0  0  0  0  0  0  0  0  0  0
    5.7070  -13.1335    0.3275 H   0  0  0  0  0  0  0  0  0  0  0  0
    2.7932  -12.7323    1.6112 H   0  0  0  0  0  0  0  0  0  0  0  0
    2.5993  -11.3682    0.4381 H   0  0  0  0  0  0  0  0  0  0  0  0
    0.4091  -12.1574    1.3487 H   0  0  0  0  0  0  0  0  0  0  0  0
    0.5572  -12.3785   -0.4495 H   0  0  0  0  0  0  0  0  0  0  0  0
   -0.7503  -20.3681    4.8947 H   0  0  0  0  0  0  0  0  0  0  0  0
   -1.5720  -21.8466    6.7349 H   0  0  0  0  0  0  0  0  0  0  0  0
   -1.3678  -21.1102    9.1089 H   0  0  0  0  0  0  0  0  0  0  0  0
   -0.3356  -18.9091    9.6564 H   0  0  0  0  0  0  0  0  0  0  0  0
    0.4836  -17.4211    7.8246 H   0  0  0  0  0  0  0  0  0  0  0  0
   -4.6320  -14.3058    3.4720 H   0  0  0  0  0  0  0  0  0  0  0  0
   -5.4540  -12.7504    1.6890 H   0  0  0  0  0  0  0  0  0  0  0  0
   -1.6083  -12.9557   -0.2897 H   0  0  0  0  0  0  0  0  0  0  0  0
    2.2911  -15.3205    1.0897 H   0  0  0  0  0  0  0  0  0  0  0  0
    1.1713  -15.9748   -0.1802 H   0  0  0  0  0  0  0  0  0  0  0  0
    3.3100  -15.1733   -1.1645 H   0  0  0  0  0  0  0  0  0  0  0  0
    1.8878  -14.2225   -1.7445 H   0  0  0  0  0  0  0  0  0  0  0  0
  1  2  1  0
  2  3  2  0
  2  4  1  0
  4  5  2  0
  5  6  1  0
  6  7  2  0
  7  8  1  0
  8  9  2  0
  9 10  1  0
 10 11  1  0
 11 12  1  0
 12 13  1  0
 13 14  1  0
 14 15  2  0
 15 16  1  0
 16 17  2  0
 17 18  1  0
 18 19  2  0
 18 20  2  0
 18 21  1  0
 21 22  2  0
 22 23  1  0
 23 24  2  0
 24 25  1  0
 25 26  2  0
 17 27  1  0
 27 28  2  0
 28 29  1  0
 29 30  1  0
 30 31  2  0
 31 32  1  0
 32 33  2  0
 33 34  1  0
 33 35  1  0
 35 36  2  0
 13 37  1  0
 37 38  1  0
  9  4  1  0
 38 10  1  0
 36 14  1  0
 29 16  1  0
 36 30  1  0
 26 21  1  0
  1 39  1  0
  1 40  1  0
  1 41  1  0
  5 42  1  0
  6 43  1  0
  7 44  1  0
  8 45  1  0
 11 46  1  0
 11 47  1  0
 12 48  1  0
 12 49  1  0
 22 50  1  0
 23 51  1  0
 24 52  1  0
 25 53  1  0
 26 54  1  0
 31 55  1  0
 32 56  1  0
 35 57  1  0
 37 58  1  0
 37 59  1  0
 38 60  1  0
 38 61  1  0
M  END
>  <meeko>  (9) 
{"is_sidechain": [false], "free_energy": -8.207, "intermolecular_energy": -10.342, "internal_energy": -0.889}

$$$$
