LIB_GAWMJJRVBHQXMS__M_PUB_ALL__e8__s20260927
     RDKit          3D

 43 46  0  0  0  0  0  0  0  0999 V2000
   -0.8840  -14.2900   -1.1570 O   0  0  0  0  0  0  0  0  0  0  0  0
    0.0560  -14.0990   -0.3980 C   0  0  0  0  0  0  0  0  0  0  0  0
    1.3460  -13.7560   -0.7900 N   0  0  0  0  0  0  0  0  0  0  0  0
    1.8190  -13.4950   -2.0900 C   0  0  0  0  0  0  0  0  0  0  0  0
    1.9910  -14.4770   -3.0690 C   0  0  0  0  0  0  0  0  0  0  0  0
    2.4600  -14.1400   -4.3430 C   0  0  0  0  0  0  0  0  0  0  0  0
    2.7580  -12.8150   -4.6500 C   0  0  0  0  0  0  0  0  0  0  0  0
    2.5860  -11.8330   -3.6800 C   0  0  0  0  0  0  0  0  0  0  0  0
    2.9510  -10.1910   -4.0550 Cl  0  0  0  0  0  0  0  0  0  0  0  0
    2.1200  -12.1640   -2.4070 C   0  0  0  0  0  0  0  0  0  0  0  0
   -0.0120  -14.1170    0.9830 N   0  0  0  0  0  0  0  0  0  0  0  0
   -0.9720  -14.7170    1.7720 C   0  0  0  0  0  0  0  0  0  0  0  0
   -1.9570  -14.0220    2.4000 C   0  0  0  0  0  0  0  0  0  0  0  0
   -2.0200  -12.5510    2.1970 C   0  0  0  0  0  0  0  0  0  0  0  0
   -2.6700  -12.0230    1.0710 C   0  0  0  0  0  0  0  0  0  0  0  0
   -2.7600  -10.6420    0.8960 C   0  0  0  0  0  0  0  0  0  0  0  0
   -2.2010   -9.7950    1.8480 C   0  0  0  0  0  0  0  0  0  0  0  0
   -2.2930   -8.4670    1.6820 F   0  0  0  0  0  0  0  0  0  0  0  0
   -1.5500  -10.3000    2.9680 C   0  0  0  0  0  0  0  0  0  0  0  0
   -1.4580  -11.6800    3.1430 C   0  0  0  0  0  0  0  0  0  0  0  0
   -2.9620  -14.4480    3.2100 N   0  0  0  0  0  0  0  0  0  0  0  0
   -3.0260  -15.7890    3.3800 C   0  0  0  0  0  0  0  0  0  0  0  0
   -4.0910  -16.3270    4.1210 C   0  0  0  0  0  0  0  0  0  0  0  0
   -4.2170  -17.7040    4.3380 C   0  0  0  0  0  0  0  0  0  0  0  0
   -3.2710  -18.5840    3.8180 C   0  0  0  0  0  0  0  0  0  0  0  0
   -2.2010  -18.0850    3.0830 C   0  0  0  0  0  0  0  0  0  0  0  0
   -2.0840  -16.7030    2.8650 C   0  0  0  0  0  0  0  0  0  0  0  0
   -0.9230  -16.1830    2.0990 C   0  0  0  0  0  0  0  0  0  0  0  0
    0.0350  -16.9100    1.8460 O   0  0  0  0  0  0  0  0  0  0  0  0
    2.0250  -13.7890   -0.0460 H   0  0  0  0  0  0  0  0  0  0  0  0
    1.7552  -15.5257   -2.8355 H   0  0  0  0  0  0  0  0  0  0  0  0
    2.5936  -14.9232   -5.1037 H   0  0  0  0  0  0  0  0  0  0  0  0
    3.1264  -12.5470   -5.6513 H   0  0  0  0  0  0  0  0  0  0  0  0
    1.9885  -11.3771   -1.6497 H   0  0  0  0  0  0  0  0  0  0  0  0
    0.5790  -13.4570    1.4620 H   0  0  0  0  0  0  0  0  0  0  0  0
   -3.1099  -12.7002    0.3241 H   0  0  0  0  0  0  0  0  0  0  0  0
   -3.2683  -10.2264    0.0134 H   0  0  0  0  0  0  0  0  0  0  0  0
   -1.1113   -9.6164    3.7097 H   0  0  0  0  0  0  0  0  0  0  0  0
   -0.9432  -12.0875    4.0255 H   0  0  0  0  0  0  0  0  0  0  0  0
   -4.8467  -15.6476    4.5423 H   0  0  0  0  0  0  0  0  0  0  0  0
   -5.0654  -18.0921    4.9207 H   0  0  0  0  0  0  0  0  0  0  0  0
   -3.3695  -19.6664    3.9875 H   0  0  0  0  0  0  0  0  0  0  0  0
   -1.4468  -18.7727    2.6727 H   0  0  0  0  0  0  0  0  0  0  0  0
  1  2  2  0
  2  3  1  0
  3  4  1  0
  4  5  2  0
  5  6  1  0
  6  7  2  0
  7  8  1  0
  8  9  1  0
  8 10  2  0
  2 11  1  0
 11 12  1  0
 12 13  2  0
 13 14  1  0
 14 15  2  0
 15 16  1  0
 16 17  2  0
 17 18  1  0
 17 19  1  0
 19 20  2  0
 13 21  1  0
 21 22  1  0
 22 23  2  0
 23 24  1  0
 24 25  2  0
 25 26  1  0
 26 27  2  0
 27 28  1  0
 28 29  2  0
 10  4  1  0
 28 12  1  0
 20 14  1  0
 27 22  1  0
  3 30  1  0
  5 31  1  0
  6 32  1  0
  7 33  1  0
 10 34  1  0
 11 35  1  0
 15 36  1  0
 16 37  1  0
 19 38  1  0
 20 39  1  0
 23 40  1  0
 24 41  1  0
 25 42  1  0
 26 43  1  0
M  CHG  1  21  -1
M  END
>  <meeko>  (1) 
{"is_sidechain": [false], "free_energy": -8.252, "intermolecular_energy": -9.7, "internal_energy": -0.914}

$$$$
LIB_GAWMJJRVBHQXMS__M_PUB_ALL__e8__s20260927
     RDKit          3D

 43 46  0  0  0  0  0  0  0  0999 V2000
    0.9300  -14.7280    0.8170 O   0  0  0  0  0  0  0  0  0  0  0  0
    1.2830  -13.8100    1.5430 C   0  0  0  0  0  0  0  0  0  0  0  0
    1.0350  -13.7270    2.9100 N   0  0  0  0  0  0  0  0  0  0  0  0
    0.4080  -14.6770    3.7380 C   0  0  0  0  0  0  0  0  0  0  0  0
    1.0800  -15.4420    4.6940 C   0  0  0  0  0  0  0  0  0  0  0  0
    0.3880  -16.3630    5.4880 C   0  0  0  0  0  0  0  0  0  0  0  0
   -0.9870  -16.5240    5.3330 C   0  0  0  0  0  0  0  0  0  0  0  0
   -1.6610  -15.7630    4.3840 C   0  0  0  0  0  0  0  0  0  0  0  0
   -3.3630  -15.9560    4.1890 Cl  0  0  0  0  0  0  0  0  0  0  0  0
   -0.9740  -14.8430    3.5890 C   0  0  0  0  0  0  0  0  0  0  0  0
    2.0540  -12.7290    1.1540 N   0  0  0  0  0  0  0  0  0  0  0  0
    2.2400  -12.2450   -0.1260 C   0  0  0  0  0  0  0  0  0  0  0  0
    1.4540  -11.2820   -0.6760 C   0  0  0  0  0  0  0  0  0  0  0  0
    0.3670  -10.7000    0.1540 C   0  0  0  0  0  0  0  0  0  0  0  0
    0.6040   -9.5480    0.9180 C   0  0  0  0  0  0  0  0  0  0  0  0
   -0.4240   -8.9800    1.6710 C   0  0  0  0  0  0  0  0  0  0  0  0
   -1.6850   -9.5680    1.6570 C   0  0  0  0  0  0  0  0  0  0  0  0
   -2.6750   -9.0190    2.3760 F   0  0  0  0  0  0  0  0  0  0  0  0
   -1.9380  -10.7130    0.9090 C   0  0  0  0  0  0  0  0  0  0  0  0
   -0.9100  -11.2810    0.1570 C   0  0  0  0  0  0  0  0  0  0  0  0
    1.4910  -10.7060   -1.9060 N   0  0  0  0  0  0  0  0  0  0  0  0
    2.5070  -11.1220   -2.6990 C   0  0  0  0  0  0  0  0  0  0  0  0
    2.6830  -10.5100   -3.9500 C   0  0  0  0  0  0  0  0  0  0  0  0
    3.7110  -10.8930   -4.8200 C   0  0  0  0  0  0  0  0  0  0  0  0
    4.5930  -11.9070   -4.4590 C   0  0  0  0  0  0  0  0  0  0  0  0
    4.4460  -12.5370   -3.2270 C   0  0  0  0  0  0  0  0  0  0  0  0
    3.4160  -12.1440   -2.3570 C   0  0  0  0  0  0  0  0  0  0  0  0
    3.2560  -12.8430   -1.0570 C   0  0  0  0  0  0  0  0  0  0  0  0
    3.8640  -13.8870   -0.8290 O   0  0  0  0  0  0  0  0  0  0  0  0
    1.2630  -12.8330    3.3170 H   0  0  0  0  0  0  0  0  0  0  0  0
    2.1653  -15.3190    4.8241 H   0  0  0  0  0  0  0  0  0  0  0  0
    0.9303  -16.9606    6.2355 H   0  0  0  0  0  0  0  0  0  0  0  0
   -1.5348  -17.2466    5.9557 H   0  0  0  0  0  0  0  0  0  0  0  0
   -1.5206  -14.2469    2.8434 H   0  0  0  0  0  0  0  0  0  0  0  0
    2.7070  -12.3840    1.8370 H   0  0  0  0  0  0  0  0  0  0  0  0
    1.6043   -9.0905    0.9235 H   0  0  0  0  0  0  0  0  0  0  0  0
   -0.2394   -8.0760    2.2700 H   0  0  0  0  0  0  0  0  0  0  0  0
   -2.9401  -11.1666    0.9106 H   0  0  0  0  0  0  0  0  0  0  0  0
   -1.1011  -12.1877   -0.4358 H   0  0  0  0  0  0  0  0  0  0  0  0
    1.9948   -9.7079   -4.2550 H   0  0  0  0  0  0  0  0  0  0  0  0
    3.8218  -10.3906   -5.7923 H   0  0  0  0  0  0  0  0  0  0  0  0
    5.4005  -12.2083   -5.1425 H   0  0  0  0  0  0  0  0  0  0  0  0
    5.1361  -13.3422   -2.9348 H   0  0  0  0  0  0  0  0  0  0  0  0
  1  2  2  0
  2  3  1  0
  3  4  1  0
  4  5  2  0
  5  6  1  0
  6  7  2  0
  7  8  1  0
  8  9  1  0
  8 10  2  0
  2 11  1  0
 11 12  1  0
 12 13  2  0
 13 14  1  0
 14 15  2  0
 15 16  1  0
 16 17  2  0
 17 18  1  0
 17 19  1  0
 19 20  2  0
 13 21  1  0
 21 22  1  0
 22 23  2  0
 23 24  1  0
 24 25  2  0
 25 26  1  0
 26 27  2  0
 27 28  1  0
 28 29  2  0
 10  4  1  0
 28 12  1  0
 20 14  1  0
 27 22  1  0
  3 30  1  0
  5 31  1  0
  6 32  1  0
  7 33  1  0
 10 34  1  0
 11 35  1  0
 15 36  1  0
 16 37  1  0
 19 38  1  0
 20 39  1  0
 23 40  1  0
 24 41  1  0
 25 42  1  0
 26 43  1  0
M  CHG  1  21  -1
M  END
>  <meeko>  (2) 
{"is_sidechain": [false], "free_energy": -8.165, "intermolecular_energy": -9.619, "internal_energy": -0.892}

$$$$
LIB_GAWMJJRVBHQXMS__M_PUB_ALL__e8__s20260927
     RDKit          3D

 43 46  0  0  0  0  0  0  0  0999 V2000
    0.7310  -13.6610   -1.0080 O   0  0  0  0  0  0  0  0  0  0  0  0
    1.4230  -12.9230   -0.3210 C   0  0  0  0  0  0  0  0  0  0  0  0
    2.4100  -12.0700   -0.8060 N   0  0  0  0  0  0  0  0  0  0  0  0
    2.7670  -11.8260   -2.1450 C   0  0  0  0  0  0  0  0  0  0  0  0
    2.4920  -10.6350   -2.8200 C   0  0  0  0  0  0  0  0  0  0  0  0
    2.8860  -10.4610   -4.1520 C   0  0  0  0  0  0  0  0  0  0  0  0
    3.5610  -11.4800   -4.8190 C   0  0  0  0  0  0  0  0  0  0  0  0
    3.8390  -12.6680   -4.1500 C   0  0  0  0  0  0  0  0  0  0  0  0
    4.6780  -13.9310   -4.9690 Cl  0  0  0  0  0  0  0  0  0  0  0  0
    3.4480  -12.8460   -2.8220 C   0  0  0  0  0  0  0  0  0  0  0  0
    1.3010  -12.7500    1.0460 N   0  0  0  0  0  0  0  0  0  0  0  0
    0.7050  -13.6030    1.9530 C   0  0  0  0  0  0  0  0  0  0  0  0
   -0.4960  -13.3470    2.5340 C   0  0  0  0  0  0  0  0  0  0  0  0
   -1.2170  -12.1070    2.1450 C   0  0  0  0  0  0  0  0  0  0  0  0
   -1.1910  -10.9840    2.9850 C   0  0  0  0  0  0  0  0  0  0  0  0
   -1.8380   -9.8080    2.6050 C   0  0  0  0  0  0  0  0  0  0  0  0
   -2.5080   -9.7600    1.3870 C   0  0  0  0  0  0  0  0  0  0  0  0
   -3.1250   -8.6270    1.0200 F   0  0  0  0  0  0  0  0  0  0  0  0
   -2.5480  -10.8640    0.5430 C   0  0  0  0  0  0  0  0  0  0  0  0
   -1.9030  -12.0410    0.9220 C   0  0  0  0  0  0  0  0  0  0  0  0
   -1.2110  -14.0630    3.4410 N   0  0  0  0  0  0  0  0  0  0  0  0
   -0.6620  -15.2520    3.7880 C   0  0  0  0  0  0  0  0  0  0  0  0
   -1.3780  -16.1030    4.6440 C   0  0  0  0  0  0  0  0  0  0  0  0
   -0.8690  -17.3440    5.0450 C   0  0  0  0  0  0  0  0  0  0  0  0
    0.3800  -17.7660    4.5980 C   0  0  0  0  0  0  0  0  0  0  0  0
    1.1180  -16.9450    3.7510 C   0  0  0  0  0  0  0  0  0  0  0  0
    0.5990  -15.7040    3.3490 C   0  0  0  0  0  0  0  0  0  0  0  0
    1.4090  -14.8280    2.4650 C   0  0  0  0  0  0  0  0  0  0  0  0
    2.5970  -15.0720    2.2610 O   0  0  0  0  0  0  0  0  0  0  0  0
    2.9820  -11.6540   -0.0880 H   0  0  0  0  0  0  0  0  0  0  0  0
    1.9601   -9.8249   -2.2996 H   0  0  0  0  0  0  0  0  0  0  0  0
    2.6621   -9.5181   -4.6724 H   0  0  0  0  0  0  0  0  0  0  0  0
    3.8718  -11.3470   -5.8658 H   0  0  0  0  0  0  0  0  0  0  0  0
    3.6753  -13.7902   -2.3054 H   0  0  0  0  0  0  0  0  0  0  0  0
    1.4770  -11.8210    1.3900 H   0  0  0  0  0  0  0  0  0  0  0  0
   -0.6587  -11.0308    3.9465 H   0  0  0  0  0  0  0  0  0  0  0  0
   -1.8185   -8.9265    3.2627 H   0  0  0  0  0  0  0  0  0  0  0  0
   -3.0841  -10.8096   -0.4160 H   0  0  0  0  0  0  0  0  0  0  0  0
   -1.9319  -12.9198    0.2610 H   0  0  0  0  0  0  0  0  0  0  0  0
   -2.3659  -15.7864    5.0098 H   0  0  0  0  0  0  0  0  0  0  0  0
   -1.4577  -17.9875    5.7153 H   0  0  0  0  0  0  0  0  0  0  0  0
    0.7805  -18.7412    4.9120 H   0  0  0  0  0  0  0  0  0  0  0  0
    2.1079  -17.2682    3.3964 H   0  0  0  0  0  0  0  0  0  0  0  0
  1  2  2  0
  2  3  1  0
  3  4  1  0
  4  5  2  0
  5  6  1  0
  6  7  2  0
  7  8  1  0
  8  9  1  0
  8 10  2  0
  2 11  1  0
 11 12  1  0
 12 13  2  0
 13 14  1  0
 14 15  2  0
 15 16  1  0
 16 17  2  0
 17 18  1  0
 17 19  1  0
 19 20  2  0
 13 21  1  0
 21 22  1  0
 22 23  2  0
 23 24  1  0
 24 25  2  0
 25 26  1  0
 26 27  2  0
 27 28  1  0
 28 29  2  0
 10  4  1  0
 28 12  1  0
 20 14  1  0
 27 22  1  0
  3 30  1  0
  5 31  1  0
  6 32  1  0
  7 33  1  0
 10 34  1  0
 11 35  1  0
 15 36  1  0
 16 37  1  0
 19 38  1  0
 20 39  1  0
 23 40  1  0
 24 41  1  0
 25 42  1  0
 26 43  1  0
M  CHG  1  21  -1
M  END
>  <meeko>  (3) 
{"is_sidechain": [false], "free_energy": -7.922, "intermolecular_energy": -9.43, "internal_energy": -0.795}

$$$$
LIB_GAWMJJRVBHQXMS__M_PUB_ALL__e8__s20260927
     RDKit          3D

 43 46  0  0  0  0  0  0  0  0999 V2000
    1.5160  -14.6330    0.7020 O   0  0  0  0  0  0  0  0  0  0  0  0
    1.4770  -13.5660    1.2970 C   0  0  0  0  0  0  0  0  0  0  0  0
    2.2200  -12.4370    0.9670 N   0  0  0  0  0  0  0  0  0  0  0  0
    3.0930  -12.2590   -0.1220 C   0  0  0  0  0  0  0  0  0  0  0  0
    4.4710  -12.4750   -0.0600 C   0  0  0  0  0  0  0  0  0  0  0  0
    5.2760  -12.2840   -1.1890 C   0  0  0  0  0  0  0  0  0  0  0  0
    4.7050  -11.8770   -2.3930 C   0  0  0  0  0  0  0  0  0  0  0  0
    3.3320  -11.6630   -2.4600 C   0  0  0  0  0  0  0  0  0  0  0  0
    2.6200  -11.1630   -3.9480 Cl  0  0  0  0  0  0  0  0  0  0  0  0
    2.5260  -11.8510   -1.3370 C   0  0  0  0  0  0  0  0  0  0  0  0
    0.6370  -13.2660    2.3550 N   0  0  0  0  0  0  0  0  0  0  0  0
   -0.0050  -14.1510    3.1980 C   0  0  0  0  0  0  0  0  0  0  0  0
   -1.3360  -14.4120    3.1240 C   0  0  0  0  0  0  0  0  0  0  0  0
   -2.1280  -13.7390    2.0620 C   0  0  0  0  0  0  0  0  0  0  0  0
   -2.6680  -12.4640    2.2860 C   0  0  0  0  0  0  0  0  0  0  0  0
   -3.3820  -11.8160    1.2790 C   0  0  0  0  0  0  0  0  0  0  0  0
   -3.5540  -12.4460    0.0500 C   0  0  0  0  0  0  0  0  0  0  0  0
   -4.2360  -11.8200   -0.9200 F   0  0  0  0  0  0  0  0  0  0  0  0
   -3.0300  -13.7110   -0.1900 C   0  0  0  0  0  0  0  0  0  0  0  0
   -2.3170  -14.3600    0.8180 C   0  0  0  0  0  0  0  0  0  0  0  0
   -2.1190  -15.2350    3.8700 N   0  0  0  0  0  0  0  0  0  0  0  0
   -1.4590  -15.9510    4.8100 C   0  0  0  0  0  0  0  0  0  0  0  0
   -2.1710  -16.9000    5.5620 C   0  0  0  0  0  0  0  0  0  0  0  0
   -1.5500  -17.6730    6.5510 C   0  0  0  0  0  0  0  0  0  0  0  0
   -0.1930  -17.5120    6.8160 C   0  0  0  0  0  0  0  0  0  0  0  0
    0.5410  -16.5780    6.0930 C   0  0  0  0  0  0  0  0  0  0  0  0
   -0.0860  -15.8110    5.0990 C   0  0  0  0  0  0  0  0  0  0  0  0
    0.7060  -14.8000    4.3520 C   0  0  0  0  0  0  0  0  0  0  0  0
    1.8290  -14.4780    4.7340 O   0  0  0  0  0  0  0  0  0  0  0  0
    2.1780  -11.7010    1.6550 H   0  0  0  0  0  0  0  0  0  0  0  0
    4.9289  -12.7988    0.8863 H   0  0  0  0  0  0  0  0  0  0  0  0
    6.3607  -12.4554   -1.1256 H   0  0  0  0  0  0  0  0  0  0  0  0
    5.3342  -11.7262   -3.2826 H   0  0  0  0  0  0  0  0  0  0  0  0
    1.4418  -11.6784   -1.4054 H   0  0  0  0  0  0  0  0  0  0  0  0
    0.2940  -12.3210    2.3910 H   0  0  0  0  0  0  0  0  0  0  0  0
   -2.5275  -11.9732    3.2604 H   0  0  0  0  0  0  0  0  0  0  0  0
   -3.8055  -10.8160    1.4542 H   0  0  0  0  0  0  0  0  0  0  0  0
   -3.1764  -14.1960   -1.1664 H   0  0  0  0  0  0  0  0  0  0  0  0
   -1.9014  -15.3623    0.6370 H   0  0  0  0  0  0  0  0  0  0  0  0
   -3.2449  -17.0397    5.3690 H   0  0  0  0  0  0  0  0  0  0  0  0
   -2.1363  -18.4095    7.1200 H   0  0  0  0  0  0  0  0  0  0  0  0
    0.2955  -18.1195    7.5921 H   0  0  0  0  0  0  0  0  0  0  0  0
    1.6125  -16.4405    6.3001 H   0  0  0  0  0  0  0  0  0  0  0  0
  1  2  2  0
  2  3  1  0
  3  4  1  0
  4  5  2  0
  5  6  1  0
  6  7  2  0
  7  8  1  0
  8  9  1  0
  8 10  2  0
  2 11  1  0
 11 12  1  0
 12 13  2  0
 13 14  1  0
 14 15  2  0
 15 16  1  0
 16 17  2  0
 17 18  1  0
 17 19  1  0
 19 20  2  0
 13 21  1  0
 21 22  1  0
 22 23  2  0
 23 24  1  0
 24 25  2  0
 25 26  1  0
 26 27  2  0
 27 28  1  0
 28 29  2  0
 10  4  1  0
 28 12  1  0
 20 14  1  0
 27 22  1  0
  3 30  1  0
  5 31  1  0
  6 32  1  0
  7 33  1  0
 10 34  1  0
 11 35  1  0
 15 36  1  0
 16 37  1  0
 19 38  1  0
 20 39  1  0
 23 40  1  0
 24 41  1  0
 25 42  1  0
 26 43  1  0
M  CHG  1  21  -1
M  END
>  <meeko>  (4) 
{"is_sidechain": [false], "free_energy": -7.686, "intermolecular_energy": -9.009, "internal_energy": -0.939}

$$$$
LIB_GAWMJJRVBHQXMS__M_PUB_ALL__e8__s20260927
     RDKit          3D

 43 46  0  0  0  0  0  0  0  0999 V2000
    1.5260  -12.9640   -1.4720 O   0  0  0  0  0  0  0  0  0  0  0  0
    1.9900  -11.8520   -1.2630 C   0  0  0  0  0  0  0  0  0  0  0  0
    1.3770  -10.8560   -0.5080 N   0  0  0  0  0  0  0  0  0  0  0  0
    0.1700  -10.9300    0.2110 C   0  0  0  0  0  0  0  0  0  0  0  0
   -1.0270  -10.3500   -0.2150 C   0  0  0  0  0  0  0  0  0  0  0  0
   -2.1920  -10.4710    0.5510 C   0  0  0  0  0  0  0  0  0  0  0  0
   -2.1680  -11.1780    1.7520 C   0  0  0  0  0  0  0  0  0  0  0  0
   -0.9790  -11.7590    2.1790 C   0  0  0  0  0  0  0  0  0  0  0  0
   -0.9440  -12.6370    3.6610 Cl  0  0  0  0  0  0  0  0  0  0  0  0
    0.1860  -11.6400    1.4180 C   0  0  0  0  0  0  0  0  0  0  0  0
    3.2340  -11.4110   -1.6760 N   0  0  0  0  0  0  0  0  0  0  0  0
    4.0140  -11.9220   -2.6940 C   0  0  0  0  0  0  0  0  0  0  0  0
    5.0850  -12.7290   -2.4750 C   0  0  0  0  0  0  0  0  0  0  0  0
    5.4070  -13.1070   -1.0740 C   0  0  0  0  0  0  0  0  0  0  0  0
    4.8840  -14.2870   -0.5240 C   0  0  0  0  0  0  0  0  0  0  0  0
    5.2120  -14.6610    0.7780 C   0  0  0  0  0  0  0  0  0  0  0  0
    6.0630  -13.8530    1.5270 C   0  0  0  0  0  0  0  0  0  0  0  0
    6.3830  -14.2160    2.7780 F   0  0  0  0  0  0  0  0  0  0  0  0
    6.5880  -12.6780    1.0010 C   0  0  0  0  0  0  0  0  0  0  0  0
    6.2580  -12.3030   -0.3010 C   0  0  0  0  0  0  0  0  0  0  0  0
    5.9530  -13.3030   -3.3480 N   0  0  0  0  0  0  0  0  0  0  0  0
    5.6800  -13.0760   -4.6550 C   0  0  0  0  0  0  0  0  0  0  0  0
    6.4660  -13.7110   -5.6300 C   0  0  0  0  0  0  0  0  0  0  0  0
    6.2400  -13.5180   -6.9980 C   0  0  0  0  0  0  0  0  0  0  0  0
    5.2170  -12.6780   -7.4280 C   0  0  0  0  0  0  0  0  0  0  0  0
    4.4210  -12.0300   -6.4880 C   0  0  0  0  0  0  0  0  0  0  0  0
    4.6500  -12.2320   -5.1180 C   0  0  0  0  0  0  0  0  0  0  0  0
    3.8090  -11.5150   -4.1260 C   0  0  0  0  0  0  0  0  0  0  0  0
    3.0730  -10.5960   -4.4790 O   0  0  0  0  0  0  0  0  0  0  0  0
    1.8280   -9.9570   -0.5700 H   0  0  0  0  0  0  0  0  0  0  0  0
   -1.0544   -9.7922   -1.1627 H   0  0  0  0  0  0  0  0  0  0  0  0
   -3.1277  -10.0076    0.2049 H   0  0  0  0  0  0  0  0  0  0  0  0
   -3.0817  -11.2755    2.3567 H   0  0  0  0  0  0  0  0  0  0  0  0
    1.1192  -12.1055    1.7678 H   0  0  0  0  0  0  0  0  0  0  0  0
    3.7140  -10.7900   -1.0450 H   0  0  0  0  0  0  0  0  0  0  0  0
    4.2123  -14.9196   -1.1228 H   0  0  0  0  0  0  0  0  0  0  0  0
    4.8022  -15.5860    1.2097 H   0  0  0  0  0  0  0  0  0  0  0  0
    7.2578  -12.0497    1.6065 H   0  0  0  0  0  0  0  0  0  0  0  0
    6.6665  -11.3732   -0.7235 H   0  0  0  0  0  0  0  0  0  0  0  0
    7.2806  -14.3775   -5.3105 H   0  0  0  0  0  0  0  0  0  0  0  0
    6.8734  -14.0322   -7.7359 H   0  0  0  0  0  0  0  0  0  0  0  0
    5.0389  -12.5273   -8.5030 H   0  0  0  0  0  0  0  0  0  0  0  0
    3.6133  -11.3603   -6.8184 H   0  0  0  0  0  0  0  0  0  0  0  0
  1  2  2  0
  2  3  1  0
  3  4  1  0
  4  5  2  0
  5  6  1  0
  6  7  2  0
  7  8  1  0
  8  9  1  0
  8 10  2  0
  2 11  1  0
 11 12  1  0
 12 13  2  0
 13 14  1  0
 14 15  2  0
 15 16  1  0
 16 17  2  0
 17 18  1  0
 17 19  1  0
 19 20  2  0
 13 21  1  0
 21 22  1  0
 22 23  2  0
 23 24  1  0
 24 25  2  0
 25 26  1  0
 26 27  2  0
 27 28  1  0
 28 29  2  0
 10  4  1  0
 28 12  1  0
 20 14  1  0
 27 22  1  0
  3 30  1  0
  5 31  1  0
  6 32  1  0
  7 33  1  0
 10 34  1  0
 11 35  1  0
 15 36  1  0
 16 37  1  0
 19 38  1  0
 20 39  1  0
 23 40  1  0
 24 41  1  0
 25 42  1  0
 26 43  1  0
M  CHG  1  21  -1
M  END
>  <meeko>  (5) 
{"is_sidechain": [false], "free_energy": -7.576, "intermolecular_energy": -8.893, "internal_energy": -0.926}

$$$$
LIB_GAWMJJRVBHQXMS__M_PUB_ALL__e8__s20260927
     RDKit          3D

 43 46  0  0  0  0  0  0  0  0999 V2000
    2.5290  -13.7600    1.4290 O   0  0  0  0  0  0  0  0  0  0  0  0
    2.2520  -12.7390    0.8150 C   0  0  0  0  0  0  0  0  0  0  0  0
    0.9710  -12.2180    0.6640 N   0  0  0  0  0  0  0  0  0  0  0  0
   -0.2320  -12.6920    1.2200 C   0  0  0  0  0  0  0  0  0  0  0  0
   -0.8410  -12.1390    2.3490 C   0  0  0  0  0  0  0  0  0  0  0  0
   -2.0430  -12.6600    2.8400 C   0  0  0  0  0  0  0  0  0  0  0  0
   -2.6470  -13.7410    2.2030 C   0  0  0  0  0  0  0  0  0  0  0  0
   -2.0460  -14.2940    1.0770 C   0  0  0  0  0  0  0  0  0  0  0  0
   -2.7910  -15.6300    0.2830 Cl  0  0  0  0  0  0  0  0  0  0  0  0
   -0.8470  -13.7780    0.5840 C   0  0  0  0  0  0  0  0  0  0  0  0
    3.1650  -11.8840    0.2260 N   0  0  0  0  0  0  0  0  0  0  0  0
    4.4650  -12.1650   -0.1460 C   0  0  0  0  0  0  0  0  0  0  0  0
    4.7890  -12.7120   -1.3470 C   0  0  0  0  0  0  0  0  0  0  0  0
    3.6960  -12.9850   -2.3160 C   0  0  0  0  0  0  0  0  0  0  0  0
    3.3050  -11.9990   -3.2340 C   0  0  0  0  0  0  0  0  0  0  0  0
    2.3030  -12.2650   -4.1660 C   0  0  0  0  0  0  0  0  0  0  0  0
    1.6950  -13.5160   -4.1780 C   0  0  0  0  0  0  0  0  0  0  0  0
    0.7350  -13.7730   -5.0780 F   0  0  0  0  0  0  0  0  0  0  0  0
    2.0660  -14.5050   -3.2730 C   0  0  0  0  0  0  0  0  0  0  0  0
    3.0670  -14.2390   -2.3400 C   0  0  0  0  0  0  0  0  0  0  0  0
    5.9980  -13.0580   -1.8640 N   0  0  0  0  0  0  0  0  0  0  0  0
    7.0590  -12.7640   -1.0760 C   0  0  0  0  0  0  0  0  0  0  0  0
    8.3530  -12.9950   -1.5690 C   0  0  0  0  0  0  0  0  0  0  0  0
    9.4930  -12.7170   -0.8070 C   0  0  0  0  0  0  0  0  0  0  0  0
    9.3670  -12.2000    0.4800 C   0  0  0  0  0  0  0  0  0  0  0  0
    8.0990  -11.9620    1.0010 C   0  0  0  0  0  0  0  0  0  0  0  0
    6.9600  -12.2380    0.2290 C   0  0  0  0  0  0  0  0  0  0  0  0
    5.6130  -12.0030    0.8090 C   0  0  0  0  0  0  0  0  0  0  0  0
    5.4790  -11.7810    2.0100 O   0  0  0  0  0  0  0  0  0  0  0  0
    0.9100  -11.4600    0.0020 H   0  0  0  0  0  0  0  0  0  0  0  0
   -0.3704  -11.2846    2.8575 H   0  0  0  0  0  0  0  0  0  0  0  0
   -2.5115  -12.2152    3.7303 H   0  0  0  0  0  0  0  0  0  0  0  0
   -3.5914  -14.1541    2.5870 H   0  0  0  0  0  0  0  0  0  0  0  0
   -0.3831  -14.2256   -0.3073 H   0  0  0  0  0  0  0  0  0  0  0  0
    2.9350  -10.9040    0.2580 H   0  0  0  0  0  0  0  0  0  0  0  0
    3.7909  -11.0122   -3.2184 H   0  0  0  0  0  0  0  0  0  0  0  0
    1.9958  -11.4921   -4.8859 H   0  0  0  0  0  0  0  0  0  0  0  0
    1.5738  -15.4885   -3.2934 H   0  0  0  0  0  0  0  0  0  0  0  0
    3.3649  -15.0152   -1.6198 H   0  0  0  0  0  0  0  0  0  0  0  0
    8.4740  -13.4058   -2.5822 H   0  0  0  0  0  0  0  0  0  0  0  0
   10.4922  -12.9074   -1.2258 H   0  0  0  0  0  0  0  0  0  0  0  0
   10.2628  -11.9816    1.0799 H   0  0  0  0  0  0  0  0  0  0  0  0
    7.9893  -11.5575    2.0180 H   0  0  0  0  0  0  0  0  0  0  0  0
  1  2  2  0
  2  3  1  0
  3  4  1  0
  4  5  2  0
  5  6  1  0
  6  7  2  0
  7  8  1  0
  8  9  1  0
  8 10  2  0
  2 11  1  0
 11 12  1  0
 12 13  2  0
 13 14  1  0
 14 15  2  0
 15 16  1  0
 16 17  2  0
 17 18  1  0
 17 19  1  0
 19 20  2  0
 13 21  1  0
 21 22  1  0
 22 23  2  0
 23 24  1  0
 24 25  2  0
 25 26  1  0
 26 27  2  0
 27 28  1  0
 28 29  2  0
 10  4  1  0
 28 12  1  0
 20 14  1  0
 27 22  1  0
  3 30  1  0
  5 31  1  0
  6 32  1  0
  7 33  1  0
 10 34  1  0
 11 35  1  0
 15 36  1  0
 16 37  1  0
 19 38  1  0
 20 39  1  0
 23 40  1  0
 24 41  1  0
 25 42  1  0
 26 43  1  0
M  CHG  1  21  -1
M  END
>  <meeko>  (6) 
{"is_sidechain": [false], "free_energy": -7.472, "intermolecular_energy": -8.771, "internal_energy": -0.926}

$$$$
LIB_GAWMJJRVBHQXMS__M_PUB_ALL__e8__s20260927
     RDKit          3D

 43 46  0  0  0  0  0  0  0  0999 V2000
    8.2840  -14.2900   -3.7640 O   0  0  0  0  0  0  0  0  0  0  0  0
    8.2480  -13.0840   -3.9610 C   0  0  0  0  0  0  0  0  0  0  0  0
    9.3180  -12.2120   -3.7890 N   0  0  0  0  0  0  0  0  0  0  0  0
   10.6440  -12.5220   -3.4330 C   0  0  0  0  0  0  0  0  0  0  0  0
   11.1910  -12.2740   -2.1720 C   0  0  0  0  0  0  0  0  0  0  0  0
   12.5170  -12.6170   -1.8880 C   0  0  0  0  0  0  0  0  0  0  0  0
   13.3080  -13.2170   -2.8660 C   0  0  0  0  0  0  0  0  0  0  0  0
   12.7670  -13.4680   -4.1220 C   0  0  0  0  0  0  0  0  0  0  0  0
   13.7400  -14.2120   -5.3350 Cl  0  0  0  0  0  0  0  0  0  0  0  0
   11.4450  -13.1270   -4.4100 C   0  0  0  0  0  0  0  0  0  0  0  0
    7.1640  -12.3830   -4.4580 N   0  0  0  0  0  0  0  0  0  0  0  0
    5.8380  -12.7690   -4.4550 C   0  0  0  0  0  0  0  0  0  0  0  0
    5.1900  -13.2040   -5.5670 C   0  0  0  0  0  0  0  0  0  0  0  0
    5.9570  -13.3030   -6.8360 C   0  0  0  0  0  0  0  0  0  0  0  0
    6.7070  -14.4540   -7.1180 C   0  0  0  0  0  0  0  0  0  0  0  0
    7.4000  -14.5630   -8.3240 C   0  0  0  0  0  0  0  0  0  0  0  0
    7.3390  -13.5200   -9.2430 C   0  0  0  0  0  0  0  0  0  0  0  0
    8.0010  -13.6280  -10.4040 F   0  0  0  0  0  0  0  0  0  0  0  0
    6.6050  -12.3700   -8.9790 C   0  0  0  0  0  0  0  0  0  0  0  0
    5.9130  -12.2600   -7.7730 C   0  0  0  0  0  0  0  0  0  0  0  0
    3.9040  -13.6080   -5.7400 N   0  0  0  0  0  0  0  0  0  0  0  0
    3.1560  -13.6270   -4.6110 C   0  0  0  0  0  0  0  0  0  0  0  0
    1.8450  -14.1240   -4.6770 C   0  0  0  0  0  0  0  0  0  0  0  0
    1.0170  -14.1700   -3.5490 C   0  0  0  0  0  0  0  0  0  0  0  0
    1.4830  -13.7150   -2.3190 C   0  0  0  0  0  0  0  0  0  0  0  0
    2.7760  -13.2130   -2.2190 C   0  0  0  0  0  0  0  0  0  0  0  0
    3.6030  -13.1750   -3.3530 C   0  0  0  0  0  0  0  0  0  0  0  0
    4.9730  -12.6130   -3.2360 C   0  0  0  0  0  0  0  0  0  0  0  0
    5.3110  -11.9920   -2.2310 O   0  0  0  0  0  0  0  0  0  0  0  0
    9.0680  -11.2370   -3.8480 H   0  0  0  0  0  0  0  0  0  0  0  0
   10.5722  -11.8037   -1.3936 H   0  0  0  0  0  0  0  0  0  0  0  0
   12.9359  -12.4129   -0.8916 H   0  0  0  0  0  0  0  0  0  0  0  0
   14.3508  -13.4895   -2.6463 H   0  0  0  0  0  0  0  0  0  0  0  0
   11.0304  -13.3340   -5.4076 H   0  0  0  0  0  0  0  0  0  0  0  0
    7.3790  -11.6110   -5.0660 H   0  0  0  0  0  0  0  0  0  0  0  0
    6.7490  -15.2738   -6.3857 H   0  0  0  0  0  0  0  0  0  0  0  0
    7.9891  -15.4650   -8.5462 H   0  0  0  0  0  0  0  0  0  0  0  0
    6.5700  -11.5532   -9.7150 H   0  0  0  0  0  0  0  0  0  0  0  0
    5.3308  -11.3523   -7.5559 H   0  0  0  0  0  0  0  0  0  0  0  0
    1.4579  -14.4870   -5.6405 H   0  0  0  0  0  0  0  0  0  0  0  0
   -0.0052  -14.5671   -3.6351 H   0  0  0  0  0  0  0  0  0  0  0  0
    0.8331  -13.7522   -1.4323 H   0  0  0  0  0  0  0  0  0  0  0  0
    3.1506  -12.8459   -1.2521 H   0  0  0  0  0  0  0  0  0  0  0  0
  1  2  2  0
  2  3  1  0
  3  4  1  0
  4  5  2  0
  5  6  1  0
  6  7  2  0
  7  8  1  0
  8  9  1  0
  8 10  2  0
  2 11  1  0
 11 12  1  0
 12 13  2  0
 13 14  1  0
 14 15  2  0
 15 16  1  0
 16 17  2  0
 17 18  1  0
 17 19  1  0
 19 20  2  0
 13 21  1  0
 21 22  1  0
 22 23  2  0
 23 24  1  0
 24 25  2  0
 25 26  1  0
 26 27  2  0
 27 28  1  0
 28 29  2  0
 10  4  1  0
 28 12  1  0
 20 14  1  0
 27 22  1  0
  3 30  1  0
  5 31  1  0
  6 32  1  0
  7 33  1  0
 10 34  1  0
 11 35  1  0
 15 36  1  0
 16 37  1  0
 19 38  1  0
 20 39  1  0
 23 40  1  0
 24 41  1  0
 25 42  1  0
 26 43  1  0
M  CHG  1  21  -1
M  END
>  <meeko>  (7) 
{"is_sidechain": [false], "free_energy": -7.46, "intermolecular_energy": -8.759, "internal_energy": -0.923}

$$$$
LIB_GAWMJJRVBHQXMS__M_PUB_ALL__e8__s20260927
     RDKit          3D

 43 46  0  0  0  0  0  0  0  0999 V2000
    2.8110  -12.1450   -0.7690 O   0  0  0  0  0  0  0  0  0  0  0  0
    2.8340  -12.1340    0.4530 C   0  0  0  0  0  0  0  0  0  0  0  0
    3.9810  -12.2500    1.2340 N   0  0  0  0  0  0  0  0  0  0  0  0
    5.3190  -12.3300    0.8060 C   0  0  0  0  0  0  0  0  0  0  0  0
    6.2040  -11.2490    0.8060 C   0  0  0  0  0  0  0  0  0  0  0  0
    7.5250  -11.4070    0.3730 C   0  0  0  0  0  0  0  0  0  0  0  0
    7.9730  -12.6520   -0.0620 C   0  0  0  0  0  0  0  0  0  0  0  0
    7.0960  -13.7320   -0.0610 C   0  0  0  0  0  0  0  0  0  0  0  0
    7.6460  -15.2760   -0.5960 Cl  0  0  0  0  0  0  0  0  0  0  0  0
    5.7770  -13.5790    0.3690 C   0  0  0  0  0  0  0  0  0  0  0  0
    1.7400  -11.9330    1.2750 N   0  0  0  0  0  0  0  0  0  0  0  0
    0.4070  -12.1020    0.9600 C   0  0  0  0  0  0  0  0  0  0  0  0
   -0.2330  -13.2970    1.0620 C   0  0  0  0  0  0  0  0  0  0  0  0
    0.5320  -14.4650    1.5710 C   0  0  0  0  0  0  0  0  0  0  0  0
    0.6520  -14.6810    2.9510 C   0  0  0  0  0  0  0  0  0  0  0  0
    1.3400  -15.7950    3.4310 C   0  0  0  0  0  0  0  0  0  0  0  0
    1.9050  -16.6900    2.5280 C   0  0  0  0  0  0  0  0  0  0  0  0
    2.5620  -17.7640    2.9890 F   0  0  0  0  0  0  0  0  0  0  0  0
    1.8000  -16.4900    1.1550 C   0  0  0  0  0  0  0  0  0  0  0  0
    1.1140  -15.3750    0.6750 C   0  0  0  0  0  0  0  0  0  0  0  0
   -1.5200  -13.6370    0.7870 N   0  0  0  0  0  0  0  0  0  0  0  0
   -2.3090  -12.6080    0.3960 C   0  0  0  0  0  0  0  0  0  0  0  0
   -3.6770  -12.8480    0.1860 C   0  0  0  0  0  0  0  0  0  0  0  0
   -4.5490  -11.8310   -0.2220 C   0  0  0  0  0  0  0  0  0  0  0  0
   -4.0700  -10.5410   -0.4340 C   0  0  0  0  0  0  0  0  0  0  0  0
   -2.7190  -10.2710   -0.2390 C   0  0  0  0  0  0  0  0  0  0  0  0
   -1.8520  -11.2930    0.1750 C   0  0  0  0  0  0  0  0  0  0  0  0
   -0.4080  -10.9950    0.3550 C   0  0  0  0  0  0  0  0  0  0  0  0
    0.0690   -9.9390   -0.0570 O   0  0  0  0  0  0  0  0  0  0  0  0
    3.7980  -12.3760    2.2170 H   0  0  0  0  0  0  0  0  0  0  0  0
    5.8585  -10.2630    1.1501 H   0  0  0  0  0  0  0  0  0  0  0  0
    8.2107  -10.5469    0.3761 H   0  0  0  0  0  0  0  0  0  0  0  0
    9.0108  -12.7802   -0.4033 H   0  0  0  0  0  0  0  0  0  0  0  0
    5.0952  -14.4422    0.3646 H   0  0  0  0  0  0  0  0  0  0  0  0
    1.9140  -11.4170    2.1220 H   0  0  0  0  0  0  0  0  0  0  0  0
    0.2016  -13.9688    3.6581 H   0  0  0  0  0  0  0  0  0  0  0  0
    1.4351  -15.9645    4.5137 H   0  0  0  0  0  0  0  0  0  0  0  0
    2.2544  -17.2056    0.4540 H   0  0  0  0  0  0  0  0  0  0  0  0
    1.0287  -15.2082   -0.4089 H   0  0  0  0  0  0  0  0  0  0  0  0
   -4.0737  -13.8614    0.3462 H   0  0  0  0  0  0  0  0  0  0  0  0
   -5.6156  -12.0520   -0.3754 H   0  0  0  0  0  0  0  0  0  0  0  0
   -4.7545   -9.7413   -0.7533 H   0  0  0  0  0  0  0  0  0  0  0  0
   -2.3308   -9.2560   -0.4095 H   0  0  0  0  0  0  0  0  0  0  0  0
  1  2  2  0
  2  3  1  0
  3  4  1  0
  4  5  2  0
  5  6  1  0
  6  7  2  0
  7  8  1  0
  8  9  1  0
  8 10  2  0
  2 11  1  0
 11 12  1  0
 12 13  2  0
 13 14  1  0
 14 15  2  0
 15 16  1  0
 16 17  2  0
 17 18  1  0
 17 19  1  0
 19 20  2  0
 13 21  1  0
 21 22  1  0
 22 23  2  0
 23 24  1  0
 24 25  2  0
 25 26  1  0
 26 27  2  0
 27 28  1  0
 28 29  2  0
 10  4  1  0
 28 12  1  0
 20 14  1  0
 27 22  1  0
  3 30  1  0
  5 31  1  0
  6 32  1  0
  7 33  1  0
 10 34  1  0
 11 35  1  0
 15 36  1  0
 16 37  1  0
 19 38  1  0
 20 39  1  0
 23 40  1  0
 24 41  1  0
 25 42  1  0
 26 43  1  0
M  CHG  1  21  -1
M  END
>  <meeko>  (8) 
{"is_sidechain": [false], "free_energy": -7.435, "intermolecular_energy": -8.719, "internal_energy": -0.934}

$$$$
LIB_GAWMJJRVBHQXMS__M_PUB_ALL__e8__s20260927
     RDKit          3D

 43 46  0  0  0  0  0  0  0  0999 V2000
    1.8390  -12.3170   -3.2710 O   0  0  0  0  0  0  0  0  0  0  0  0
    2.8580  -12.1960   -2.6060 C   0  0  0  0  0  0  0  0  0  0  0  0
    4.1520  -12.3970   -3.0780 N   0  0  0  0  0  0  0  0  0  0  0  0
    4.5610  -12.7030   -4.3890 C   0  0  0  0  0  0  0  0  0  0  0  0
    4.4080  -11.8390   -5.4760 C   0  0  0  0  0  0  0  0  0  0  0  0
    4.8460  -12.2090   -6.7520 C   0  0  0  0  0  0  0  0  0  0  0  0
    5.4460  -13.4510   -6.9500 C   0  0  0  0  0  0  0  0  0  0  0  0
    5.6040  -14.3140   -5.8710 C   0  0  0  0  0  0  0  0  0  0  0  0
    6.3480  -15.8500   -6.1110 Cl  0  0  0  0  0  0  0  0  0  0  0  0
    5.1670  -13.9490   -4.5970 C   0  0  0  0  0  0  0  0  0  0  0  0
    2.9130  -11.7690   -1.2920 N   0  0  0  0  0  0  0  0  0  0  0  0
    1.8950  -11.7790   -0.3590 C   0  0  0  0  0  0  0  0  0  0  0  0
    1.7030  -12.7990    0.5170 C   0  0  0  0  0  0  0  0  0  0  0  0
    2.6560  -13.9390    0.4930 C   0  0  0  0  0  0  0  0  0  0  0  0
    3.8200  -13.9010    1.2760 C   0  0  0  0  0  0  0  0  0  0  0  0
    4.6990  -14.9840    1.2800 C   0  0  0  0  0  0  0  0  0  0  0  0
    4.4110  -16.1000    0.5020 C   0  0  0  0  0  0  0  0  0  0  0  0
    5.2540  -17.1440    0.5100 F   0  0  0  0  0  0  0  0  0  0  0  0
    3.2650  -16.1540   -0.2850 C   0  0  0  0  0  0  0  0  0  0  0  0
    2.3870  -15.0710   -0.2910 C   0  0  0  0  0  0  0  0  0  0  0  0
    0.7590  -12.9720    1.4800 N   0  0  0  0  0  0  0  0  0  0  0  0
   -0.1020  -11.9370    1.6250 C   0  0  0  0  0  0  0  0  0  0  0  0
   -1.0490  -11.9860    2.6610 C   0  0  0  0  0  0  0  0  0  0  0  0
   -1.9700  -10.9520    2.8660 C   0  0  0  0  0  0  0  0  0  0  0  0
   -1.9700   -9.8380    2.0320 C   0  0  0  0  0  0  0  0  0  0  0  0
   -1.0470   -9.7590    0.9930 C   0  0  0  0  0  0  0  0  0  0  0  0
   -0.1230  -10.7970    0.7970 C   0  0  0  0  0  0  0  0  0  0  0  0
    0.8390  -10.7100   -0.3310 C   0  0  0  0  0  0  0  0  0  0  0  0
    0.6970   -9.8640   -1.2110 O   0  0  0  0  0  0  0  0  0  0  0  0
    4.8560  -12.4040   -2.3570 H   0  0  0  0  0  0  0  0  0  0  0  0
    3.9375  -10.8560   -5.3268 H   0  0  0  0  0  0  0  0  0  0  0  0
    4.7168  -11.5194   -7.5992 H   0  0  0  0  0  0  0  0  0  0  0  0
    5.7918  -13.7464   -7.9516 H   0  0  0  0  0  0  0  0  0  0  0  0
    5.2988  -14.6420   -3.7530 H   0  0  0  0  0  0  0  0  0  0  0  0
    3.7100  -11.2050   -1.0450 H   0  0  0  0  0  0  0  0  0  0  0  0
    4.0399  -13.0142    1.8886 H   0  0  0  0  0  0  0  0  0  0  0  0
    5.6119  -14.9555    1.8931 H   0  0  0  0  0  0  0  0  0  0  0  0
    3.0535  -17.0432   -0.8970 H   0  0  0  0  0  0  0  0  0  0  0  0
    1.4801  -15.1042   -0.9126 H   0  0  0  0  0  0  0  0  0  0  0  0
   -1.0674  -12.8599    3.3288 H   0  0  0  0  0  0  0  0  0  0  0  0
   -2.6963  -11.0203    3.6893 H   0  0  0  0  0  0  0  0  0  0  0  0
   -2.6942   -9.0257    2.1926 H   0  0  0  0  0  0  0  0  0  0  0  0
   -1.0419   -8.8840    0.3264 H   0  0  0  0  0  0  0  0  0  0  0  0
  1  2  2  0
  2  3  1  0
  3  4  1  0
  4  5  2  0
  5  6  1  0
  6  7  2  0
  7  8  1  0
  8  9  1  0
  8 10  2  0
  2 11  1  0
 11 12  1  0
 12 13  2  0
 13 14  1  0
 14 15  2  0
 15 16  1  0
 16 17  2  0
 17 18  1  0
 17 19  1  0
 19 20  2  0
 13 21  1  0
 21 22  1  0
 22 23  2  0
 23 24  1  0
 24 25  2  0
 25 26  1  0
 26 27  2  0
 27 28  1  0
 28 29  2  0
 10  4  1  0
 28 12  1  0
 20 14  1  0
 27 22  1  0
  3 30  1  0
  5 31  1  0
  6 32  1  0
  7 33  1  0
 10 34  1  0
 11 35  1  0
 15 36  1  0
 16 37  1  0
 19 38  1  0
 20 39  1  0
 23 40  1  0
 24 41  1  0
 25 42  1  0
 26 43  1  0
M  CHG  1  21  -1
M  END
>  <meeko>  (9) 
{"is_sidechain": [false], "free_energy": -7.394, "intermolecular_energy": -8.702, "internal_energy": -0.902}

$$$$
