LIB_VWPZVQSMQVKQCI__M_PUB_ALL__e8__s20260927
     RDKit          3D

 51 54  0  0  0  0  0  0  0  0999 V2000
    3.1530  -15.7730   -1.5700 C   0  0  0  0  0  0  0  0  0  0  0  0
    3.5890  -14.3980   -1.0670 C   0  0  0  0  0  0  0  0  0  0  0  0
    4.4420  -13.7050   -2.0510 N   0  0  0  0  0  0  0  0  0  0  0  0
    5.8210  -13.7800   -1.8190 C   0  0  0  0  0  0  0  0  0  0  0  0
    6.2450  -14.0130   -0.5440 N   0  0  0  0  0  0  0  0  0  0  0  0
    7.5720  -14.0580   -0.2790 C   0  0  0  0  0  0  0  0  0  0  0  0
    8.5560  -13.8930   -1.2350 C   0  0  0  0  0  0  0  0  0  0  0  0
   10.0210  -13.9140   -0.8940 C   0  0  0  0  0  0  0  0  0  0  0  0
   10.7930  -14.0490   -2.0860 O   0  0  0  0  0  0  0  0  0  0  0  0
   11.8180  -13.1640   -2.2740 C   0  0  0  0  0  0  0  0  0  0  0  0
   12.6140  -13.0580   -3.4150 C   0  0  0  0  0  0  0  0  0  0  0  0
   13.6300  -12.1000   -3.4770 C   0  0  0  0  0  0  0  0  0  0  0  0
   13.8620  -11.2470   -2.3960 C   0  0  0  0  0  0  0  0  0  0  0  0
   13.0780  -11.3570   -1.2430 C   0  0  0  0  0  0  0  0  0  0  0  0
   13.2750  -10.4750   -0.0620 C   0  0  0  0  0  0  0  0  0  0  0  0
   14.5510  -10.3000    0.3940 N   0  0  0  0  0  0  0  0  0  0  0  0
   12.3300   -9.9390    0.5040 O   0  0  0  0  0  0  0  0  0  0  0  0
   12.0520  -12.3090   -1.1930 C   0  0  0  0  0  0  0  0  0  0  0  0
    8.1180  -13.6540   -2.5370 C   0  0  0  0  0  0  0  0  0  0  0  0
    6.7420  -13.5940   -2.8370 C   0  0  0  0  0  0  0  0  0  0  0  0
    6.3730  -13.4780   -4.2580 C   0  0  0  0  0  0  0  0  0  0  0  0
    7.1460  -14.0220   -5.0540 O   0  0  0  0  0  0  0  0  0  0  0  0
    5.2950  -12.7040   -4.6990 N   0  0  0  0  0  0  0  0  0  0  0  0
    5.1900  -12.5280   -6.1490 C   0  0  0  0  0  0  0  0  0  0  0  0
    4.3090  -12.0610   -3.8790 C   0  0  0  0  0  0  0  0  0  0  0  0
    3.6670  -10.9060   -4.3730 C   0  0  0  0  0  0  0  0  0  0  0  0
    2.6410  -10.2950   -3.6640 C   0  0  0  0  0  0  0  0  0  0  0  0
    2.2700  -10.8690   -2.4740 C   0  0  0  0  0  0  0  0  0  0  0  0
    1.0060  -10.2070   -1.5260 Cl  0  0  0  0  0  0  0  0  0  0  0  0
    2.8420  -11.9690   -1.9590 N   0  0  0  0  0  0  0  0  0  0  0  0
    3.8650  -12.5630   -2.6370 C   0  0  0  0  0  0  0  0  0  0  0  0
    2.9451  -16.4285   -0.7115 H   0  0  0  0  0  0  0  0  0  0  0  0
    2.2438  -15.6688   -2.1804 H   0  0  0  0  0  0  0  0  0  0  0  0
    3.9561  -16.2117   -2.1804 H   0  0  0  0  0  0  0  0  0  0  0  0
    2.6941  -13.7871   -0.8774 H   0  0  0  0  0  0  0  0  0  0  0  0
    4.1719  -14.5381   -0.1447 H   0  0  0  0  0  0  0  0  0  0  0  0
    7.8857  -14.2367    0.7601 H   0  0  0  0  0  0  0  0  0  0  0  0
   10.2916  -12.9755   -0.3881 H   0  0  0  0  0  0  0  0  0  0  0  0
   10.2269  -14.7661   -0.2296 H   0  0  0  0  0  0  0  0  0  0  0  0
   12.4415  -13.7304   -4.2683 H   0  0  0  0  0  0  0  0  0  0  0  0
   14.2499  -12.0176   -4.3819 H   0  0  0  0  0  0  0  0  0  0  0  0
   14.6590  -10.4908   -2.4511 H   0  0  0  0  0  0  0  0  0  0  0  0
   14.6690   -9.7060    1.2040 H   0  0  0  0  0  0  0  0  0  0  0  0
   15.3570  -10.7840    0.0330 H   0  0  0  0  0  0  0  0  0  0  0  0
   11.4235  -12.3848   -0.2934 H   0  0  0  0  0  0  0  0  0  0  0  0
    8.8556  -13.5104   -3.3403 H   0  0  0  0  0  0  0  0  0  0  0  0
    4.6376  -11.6021   -6.3669 H   0  0  0  0  0  0  0  0  0  0  0  0
    6.1981  -12.4647   -6.5846 H   0  0  0  0  0  0  0  0  0  0  0  0
    4.6555  -13.3850   -6.5846 H   0  0  0  0  0  0  0  0  0  0  0  0
    3.9847  -10.4818   -5.3369 H   0  0  0  0  0  0  0  0  0  0  0  0
    2.1459   -9.3879   -4.0409 H   0  0  0  0  0  0  0  0  0  0  0  0
  1  2  1  0
  2  3  1  0
  3  4  1  0
  4  5  2  0
  5  6  1  0
  6  7  2  0
  7  8  1  0
  8  9  1  0
  9 10  1  0
 10 11  2  0
 11 12  1  0
 12 13  2  0
 13 14  1  0
 14 15  1  0
 15 16  1  0
 15 17  2  0
 14 18  2  0
  7 19  1  0
 19 20  2  0
 20 21  1  0
 21 22  2  0
 21 23  1  0
 23 24  1  0
 23 25  1  0
 25 26  2  0
 26 27  1  0
 27 28  2  0
 28 29  1  0
 28 30  1  0
 30 31  2  0
 31  3  1  0
 20  4  1  0
 31 25  1  0
 18 10  1  0
  1 32  1  0
  1 33  1  0
  1 34  1  0
  2 35  1  0
  2 36  1  0
  6 37  1  0
  8 38  1  0
  8 39  1  0
 11 40  1  0
 12 41  1  0
 13 42  1  0
 16 43  1  0
 16 44  1  0
 18 45  1  0
 19 46  1  0
 24 47  1  0
 24 48  1  0
 24 49  1  0
 26 50  1  0
 27 51  1  0
M  END
>  <meeko>  (1) 
{"is_sidechain": [false], "free_energy": -8.295, "intermolecular_energy": -10.719, "internal_energy": -0.756}

$$$$
LIB_VWPZVQSMQVKQCI__M_PUB_ALL__e8__s20260927
     RDKit          3D

 51 54  0  0  0  0  0  0  0  0999 V2000
    4.0470  -15.2840    0.5190 C   0  0  0  0  0  0  0  0  0  0  0  0
    3.9570  -13.7600    0.5790 C   0  0  0  0  0  0  0  0  0  0  0  0
    4.6830  -13.1290   -0.5390 N   0  0  0  0  0  0  0  0  0  0  0  0
    6.0320  -12.8370   -0.3000 C   0  0  0  0  0  0  0  0  0  0  0  0
    6.4350  -12.6800    0.9930 N   0  0  0  0  0  0  0  0  0  0  0  0
    7.7250  -12.3650    1.2570 C   0  0  0  0  0  0  0  0  0  0  0  0
    8.6930  -12.1980    0.2860 C   0  0  0  0  0  0  0  0  0  0  0  0
   10.1080  -11.8120    0.6180 C   0  0  0  0  0  0  0  0  0  0  0  0
   10.9170  -12.9830    0.7250 O   0  0  0  0  0  0  0  0  0  0  0  0
   11.4810  -13.4630   -0.4250 C   0  0  0  0  0  0  0  0  0  0  0  0
   11.3700  -14.7660   -0.9130 C   0  0  0  0  0  0  0  0  0  0  0  0
   11.9960  -15.1240   -2.1100 C   0  0  0  0  0  0  0  0  0  0  0  0
   12.7440  -14.1850   -2.8230 C   0  0  0  0  0  0  0  0  0  0  0  0
   12.8720  -12.8810   -2.3330 C   0  0  0  0  0  0  0  0  0  0  0  0
   13.6520  -11.8370   -3.0490 C   0  0  0  0  0  0  0  0  0  0  0  0
   15.0050  -12.0010   -3.1350 N   0  0  0  0  0  0  0  0  0  0  0  0
   13.1110  -10.8470   -3.5280 O   0  0  0  0  0  0  0  0  0  0  0  0
   12.2300  -12.5250   -1.1400 C   0  0  0  0  0  0  0  0  0  0  0  0
    8.2760  -12.3590   -1.0360 C   0  0  0  0  0  0  0  0  0  0  0  0
    6.9380  -12.6790   -1.3370 C   0  0  0  0  0  0  0  0  0  0  0  0
    6.6210  -12.9680   -2.7460 C   0  0  0  0  0  0  0  0  0  0  0  0
    7.5330  -13.4860   -3.4000 O   0  0  0  0  0  0  0  0  0  0  0  0
    5.4220  -12.5740   -3.3470 N   0  0  0  0  0  0  0  0  0  0  0  0
    5.3510  -12.7520   -4.8000 C   0  0  0  0  0  0  0  0  0  0  0  0
    4.2800  -12.0050   -2.6920 C   0  0  0  0  0  0  0  0  0  0  0  0
    3.4230  -11.1640   -3.4330 C   0  0  0  0  0  0  0  0  0  0  0  0
    2.2550  -10.6580   -2.8780 C   0  0  0  0  0  0  0  0  0  0  0  0
    1.9630  -11.0220   -1.5880 C   0  0  0  0  0  0  0  0  0  0  0  0
    0.5400  -10.4690   -0.8110 Cl  0  0  0  0  0  0  0  0  0  0  0  0
    2.7380  -11.8230   -0.8390 N   0  0  0  0  0  0  0  0  0  0  0  0
    3.8980  -12.3060   -1.3670 C   0  0  0  0  0  0  0  0  0  0  0  0
    4.0710  -15.6904    1.5409 H   0  0  0  0  0  0  0  0  0  0  0  0
    3.1708  -15.6824   -0.0135 H   0  0  0  0  0  0  0  0  0  0  0  0
    4.9640  -15.5765   -0.0135 H   0  0  0  0  0  0  0  0  0  0  0  0
    2.8990  -13.4627    0.5308 H   0  0  0  0  0  0  0  0  0  0  0  0
    4.4166  -13.4249    1.5205 H   0  0  0  0  0  0  0  0  0  0  0  0
    8.0201  -12.2341    2.3086 H   0  0  0  0  0  0  0  0  0  0  0  0
   10.5060  -11.1648   -0.1774 H   0  0  0  0  0  0  0  0  0  0  0  0
   10.1216  -11.2728    1.5767 H   0  0  0  0  0  0  0  0  0  0  0  0
   10.7880  -15.5133   -0.3537 H   0  0  0  0  0  0  0  0  0  0  0  0
   11.8990  -16.1508   -2.4925 H   0  0  0  0  0  0  0  0  0  0  0  0
   13.2312  -14.4698   -3.7672 H   0  0  0  0  0  0  0  0  0  0  0  0
   15.5240  -11.2780   -3.6150 H   0  0  0  0  0  0  0  0  0  0  0  0
   15.5200  -12.7410   -2.6830 H   0  0  0  0  0  0  0  0  0  0  0  0
   12.3165  -11.4956   -0.7619 H   0  0  0  0  0  0  0  0  0  0  0  0
    9.0016  -12.2344   -1.8533 H   0  0  0  0  0  0  0  0  0  0  0  0
    4.9523  -13.7515   -5.0279 H   0  0  0  0  0  0  0  0  0  0  0  0
    4.6895  -11.9863   -5.2313 H   0  0  0  0  0  0  0  0  0  0  0  0
    6.3579  -12.6518   -5.2313 H   0  0  0  0  0  0  0  0  0  0  0  0
    3.6849  -10.9044   -4.4693 H   0  0  0  0  0  0  0  0  0  0  0  0
    1.5911   -9.9926   -3.4493 H   0  0  0  0  0  0  0  0  0  0  0  0
  1  2  1  0
  2  3  1  0
  3  4  1  0
  4  5  2  0
  5  6  1  0
  6  7  2  0
  7  8  1  0
  8  9  1  0
  9 10  1  0
 10 11  2  0
 11 12  1  0
 12 13  2  0
 13 14  1  0
 14 15  1  0
 15 16  1  0
 15 17  2  0
 14 18  2  0
  7 19  1  0
 19 20  2  0
 20 21  1  0
 21 22  2  0
 21 23  1  0
 23 24  1  0
 23 25  1  0
 25 26  2  0
 26 27  1  0
 27 28  2  0
 28 29  1  0
 28 30  1  0
 30 31  2  0
 31  3  1  0
 20  4  1  0
 31 25  1  0
 18 10  1  0
  1 32  1  0
  1 33  1  0
  1 34  1  0
  2 35  1  0
  2 36  1  0
  6 37  1  0
  8 38  1  0
  8 39  1  0
 11 40  1  0
 12 41  1  0
 13 42  1  0
 16 43  1  0
 16 44  1  0
 18 45  1  0
 19 46  1  0
 24 47  1  0
 24 48  1  0
 24 49  1  0
 26 50  1  0
 27 51  1  0
M  END
>  <meeko>  (2) 
{"is_sidechain": [false], "free_energy": -8.277, "intermolecular_energy": -10.578, "internal_energy": -0.875}

$$$$
LIB_VWPZVQSMQVKQCI__M_PUB_ALL__e8__s20260927
     RDKit          3D

 51 54  0  0  0  0  0  0  0  0999 V2000
    3.4080  -12.6430   -5.3640 C   0  0  0  0  0  0  0  0  0  0  0  0
    4.7180  -12.3230   -6.0820 C   0  0  0  0  0  0  0  0  0  0  0  0
    5.7470  -13.3450   -5.8160 N   0  0  0  0  0  0  0  0  0  0  0  0
    6.4190  -13.2270   -4.5920 C   0  0  0  0  0  0  0  0  0  0  0  0
    6.4610  -12.0010   -4.0000 N   0  0  0  0  0  0  0  0  0  0  0  0
    7.1300  -11.8440   -2.8330 C   0  0  0  0  0  0  0  0  0  0  0  0
    7.7820  -12.8690   -2.1740 C   0  0  0  0  0  0  0  0  0  0  0  0
    8.5450  -12.6470   -0.8980 C   0  0  0  0  0  0  0  0  0  0  0  0
    9.8040  -13.3170   -0.9630 O   0  0  0  0  0  0  0  0  0  0  0  0
   10.9290  -12.5530   -0.8270 C   0  0  0  0  0  0  0  0  0  0  0  0
   11.2850  -11.8080    0.2990 C   0  0  0  0  0  0  0  0  0  0  0  0
   12.4730  -11.0710    0.3060 C   0  0  0  0  0  0  0  0  0  0  0  0
   13.3080  -11.0680   -0.8110 C   0  0  0  0  0  0  0  0  0  0  0  0
   12.9520  -11.8010   -1.9490 C   0  0  0  0  0  0  0  0  0  0  0  0
   13.8030  -11.8400   -3.1670 C   0  0  0  0  0  0  0  0  0  0  0  0
   15.1570  -11.7640   -2.9990 N   0  0  0  0  0  0  0  0  0  0  0  0
   13.3160  -11.9120   -4.2880 O   0  0  0  0  0  0  0  0  0  0  0  0
   11.7680  -12.5490   -1.9450 C   0  0  0  0  0  0  0  0  0  0  0  0
    7.7370  -14.1220   -2.7850 C   0  0  0  0  0  0  0  0  0  0  0  0
    7.0540  -14.3090   -4.0030 C   0  0  0  0  0  0  0  0  0  0  0  0
    6.9410  -15.6900   -4.5010 C   0  0  0  0  0  0  0  0  0  0  0  0
    6.8820  -16.5650   -3.6300 O   0  0  0  0  0  0  0  0  0  0  0  0
    7.0200  -16.0140   -5.8590 N   0  0  0  0  0  0  0  0  0  0  0  0
    7.0970  -17.4430   -6.1680 C   0  0  0  0  0  0  0  0  0  0  0  0
    7.0500  -15.0950   -6.9590 C   0  0  0  0  0  0  0  0  0  0  0  0
    7.6820  -15.4920   -8.1560 C   0  0  0  0  0  0  0  0  0  0  0  0
    7.6630  -14.6800   -9.2840 C   0  0  0  0  0  0  0  0  0  0  0  0
    6.9930  -13.4870   -9.1870 C   0  0  0  0  0  0  0  0  0  0  0  0
    6.8930  -12.4170  -10.5220 Cl  0  0  0  0  0  0  0  0  0  0  0  0
    6.3700  -13.0610   -8.0770 N   0  0  0  0  0  0  0  0  0  0  0  0
    6.4020  -13.8400   -6.9590 C   0  0  0  0  0  0  0  0  0  0  0  0
    3.5671  -12.6041   -4.2763 H   0  0  0  0  0  0  0  0  0  0  0  0
    2.6437  -11.9051   -5.6494 H   0  0  0  0  0  0  0  0  0  0  0  0
    3.0700  -13.6501   -5.6494 H   0  0  0  0  0  0  0  0  0  0  0  0
    4.5300  -12.2793   -7.1649 H   0  0  0  0  0  0  0  0  0  0  0  0
    5.0880  -11.3570   -5.7079 H   0  0  0  0  0  0  0  0  0  0  0  0
    7.1560  -10.8407   -2.3827 H   0  0  0  0  0  0  0  0  0  0  0  0
    8.7121  -11.5691   -0.7556 H   0  0  0  0  0  0  0  0  0  0  0  0
    7.9643  -13.0474   -0.0539 H   0  0  0  0  0  0  0  0  0  0  0  0
   10.6294  -11.8010    1.1823 H   0  0  0  0  0  0  0  0  0  0  0  0
   12.7508  -10.4901    1.1978 H   0  0  0  0  0  0  0  0  0  0  0  0
   14.2443  -10.4908   -0.7977 H   0  0  0  0  0  0  0  0  0  0  0  0
   15.7230  -11.7810   -3.8370 H   0  0  0  0  0  0  0  0  0  0  0  0
   15.6140  -11.6090   -2.1140 H   0  0  0  0  0  0  0  0  0  0  0  0
   11.4952  -13.1400   -2.8317 H   0  0  0  0  0  0  0  0  0  0  0  0
    8.2417  -14.9759   -2.3094 H   0  0  0  0  0  0  0  0  0  0  0  0
    7.1281  -18.0195   -5.2317 H   0  0  0  0  0  0  0  0  0  0  0  0
    6.2136  -17.7399   -6.7523 H   0  0  0  0  0  0  0  0  0  0  0  0
    8.0072  -17.6433   -6.7523 H   0  0  0  0  0  0  0  0  0  0  0  0
    8.1993  -16.4619   -8.1975 H   0  0  0  0  0  0  0  0  0  0  0  0
    8.1643  -14.9815  -10.2155 H   0  0  0  0  0  0  0  0  0  0  0  0
  1  2  1  0
  2  3  1  0
  3  4  1  0
  4  5  2  0
  5  6  1  0
  6  7  2  0
  7  8  1  0
  8  9  1  0
  9 10  1  0
 10 11  2  0
 11 12  1  0
 12 13  2  0
 13 14  1  0
 14 15  1  0
 15 16  1  0
 15 17  2  0
 14 18  2  0
  7 19  1  0
 19 20  2  0
 20 21  1  0
 21 22  2  0
 21 23  1  0
 23 24  1  0
 23 25  1  0
 25 26  2  0
 26 27  1  0
 27 28  2  0
 28 29  1  0
 28 30  1  0
 30 31  2  0
 31  3  1  0
 20  4  1  0
 31 25  1  0
 18 10  1  0
  1 32  1  0
  1 33  1  0
  1 34  1  0
  2 35  1  0
  2 36  1  0
  6 37  1  0
  8 38  1  0
  8 39  1  0
 11 40  1  0
 12 41  1  0
 13 42  1  0
 16 43  1  0
 16 44  1  0
 18 45  1  0
 19 46  1  0
 24 47  1  0
 24 48  1  0
 24 49  1  0
 26 50  1  0
 27 51  1  0
M  END
>  <meeko>  (3) 
{"is_sidechain": [false], "free_energy": -8.263, "intermolecular_energy": -10.745, "internal_energy": -0.69}

$$$$
LIB_VWPZVQSMQVKQCI__M_PUB_ALL__e8__s20260927
     RDKit          3D

 51 54  0  0  0  0  0  0  0  0999 V2000
    7.6600  -16.2280   -8.9280 C   0  0  0  0  0  0  0  0  0  0  0  0
    7.9180  -14.8310   -8.3640 C   0  0  0  0  0  0  0  0  0  0  0  0
    9.2590  -14.3380   -8.7280 N   0  0  0  0  0  0  0  0  0  0  0  0
   10.2080  -14.3410   -7.6970 C   0  0  0  0  0  0  0  0  0  0  0  0
    9.7580  -14.3040   -6.4110 N   0  0  0  0  0  0  0  0  0  0  0  0
   10.6490  -14.2720   -5.3920 C   0  0  0  0  0  0  0  0  0  0  0  0
   12.0200  -14.2870   -5.5650 C   0  0  0  0  0  0  0  0  0  0  0  0
   12.9770  -14.2140   -4.4070 C   0  0  0  0  0  0  0  0  0  0  0  0
   12.8670  -12.9440   -3.7670 O   0  0  0  0  0  0  0  0  0  0  0  0
   12.6060  -12.9370   -2.4250 C   0  0  0  0  0  0  0  0  0  0  0  0
   12.0040  -13.9670   -1.7000 C   0  0  0  0  0  0  0  0  0  0  0  0
   11.8000  -13.8300   -0.3240 C   0  0  0  0  0  0  0  0  0  0  0  0
   12.1870  -12.6630    0.3350 C   0  0  0  0  0  0  0  0  0  0  0  0
   12.7790  -11.6200   -0.3880 C   0  0  0  0  0  0  0  0  0  0  0  0
   13.2160  -10.3550    0.2590 C   0  0  0  0  0  0  0  0  0  0  0  0
   14.5550  -10.1760    0.4630 N   0  0  0  0  0  0  0  0  0  0  0  0
   12.4100   -9.5070    0.6220 O   0  0  0  0  0  0  0  0  0  0  0  0
   12.9940  -11.7690   -1.7630 C   0  0  0  0  0  0  0  0  0  0  0  0
   12.4760  -14.3240   -6.8830 C   0  0  0  0  0  0  0  0  0  0  0  0
   11.5690  -14.3500   -7.9600 C   0  0  0  0  0  0  0  0  0  0  0  0
   12.1370  -14.5300   -9.3080 C   0  0  0  0  0  0  0  0  0  0  0  0
   13.1670  -15.2100   -9.3630 O   0  0  0  0  0  0  0  0  0  0  0  0
   11.6290  -13.8790  -10.4360 N   0  0  0  0  0  0  0  0  0  0  0  0
   12.4310  -14.0020  -11.6550 C   0  0  0  0  0  0  0  0  0  0  0  0
   10.4270  -13.1000  -10.5080 C   0  0  0  0  0  0  0  0  0  0  0  0
   10.3380  -12.0800  -11.4790 C   0  0  0  0  0  0  0  0  0  0  0  0
    9.1660  -11.3550  -11.6560 C   0  0  0  0  0  0  0  0  0  0  0  0
    8.0980  -11.6830  -10.8590 C   0  0  0  0  0  0  0  0  0  0  0  0
    6.6000  -10.8650  -11.0040 Cl  0  0  0  0  0  0  0  0  0  0  0  0
    8.1250  -12.6470   -9.9250 N   0  0  0  0  0  0  0  0  0  0  0  0
    9.2760  -13.3480   -9.7280 C   0  0  0  0  0  0  0  0  0  0  0  0
    7.5286  -16.9394   -8.0994 H   0  0  0  0  0  0  0  0  0  0  0  0
    6.7496  -16.2119   -9.5453 H   0  0  0  0  0  0  0  0  0  0  0  0
    8.5161  -16.5381   -9.5453 H   0  0  0  0  0  0  0  0  0  0  0  0
    7.1624  -14.1392   -8.7646 H   0  0  0  0  0  0  0  0  0  0  0  0
    7.8577  -14.8862   -7.2670 H   0  0  0  0  0  0  0  0  0  0  0  0
   10.2581  -14.2316   -4.3646 H   0  0  0  0  0  0  0  0  0  0  0  0
   12.7374  -15.0085   -3.6849 H   0  0  0  0  0  0  0  0  0  0  0  0
   14.0045  -14.3459   -4.7769 H   0  0  0  0  0  0  0  0  0  0  0  0
   11.6896  -14.8881   -2.2126 H   0  0  0  0  0  0  0  0  0  0  0  0
   11.3312  -14.6478    0.2429 H   0  0  0  0  0  0  0  0  0  0  0  0
   12.0277  -12.5624    1.4187 H   0  0  0  0  0  0  0  0  0  0  0  0
   14.8380   -9.3160    0.9140 H   0  0  0  0  0  0  0  0  0  0  0  0
   15.2590  -10.8720    0.2750 H   0  0  0  0  0  0  0  0  0  0  0  0
   13.4740  -10.9572   -2.3292 H   0  0  0  0  0  0  0  0  0  0  0  0
   13.5575  -14.3330   -7.0834 H   0  0  0  0  0  0  0  0  0  0  0  0
   13.4852  -14.1637  -11.3856 H   0  0  0  0  0  0  0  0  0  0  0  0
   12.0690  -14.8551  -12.2476 H   0  0  0  0  0  0  0  0  0  0  0  0
   12.3413  -13.0796  -12.2476 H   0  0  0  0  0  0  0  0  0  0  0  0
   11.2124  -11.8547  -12.1072 H   0  0  0  0  0  0  0  0  0  0  0  0
    9.0970  -10.5514  -12.4040 H   0  0  0  0  0  0  0  0  0  0  0  0
  1  2  1  0
  2  3  1  0
  3  4  1  0
  4  5  2  0
  5  6  1  0
  6  7  2  0
  7  8  1  0
  8  9  1  0
  9 10  1  0
 10 11  2  0
 11 12  1  0
 12 13  2  0
 13 14  1  0
 14 15  1  0
 15 16  1  0
 15 17  2  0
 14 18  2  0
  7 19  1  0
 19 20  2  0
 20 21  1  0
 21 22  2  0
 21 23  1  0
 23 24  1  0
 23 25  1  0
 25 26  2  0
 26 27  1  0
 27 28  2  0
 28 29  1  0
 28 30  1  0
 30 31  2  0
 31  3  1  0
 20  4  1  0
 31 25  1  0
 18 10  1  0
  1 32  1  0
  1 33  1  0
  1 34  1  0
  2 35  1  0
  2 36  1  0
  6 37  1  0
  8 38  1  0
  8 39  1  0
 11 40  1  0
 12 41  1  0
 13 42  1  0
 16 43  1  0
 16 44  1  0
 18 45  1  0
 19 46  1  0
 24 47  1  0
 24 48  1  0
 24 49  1  0
 26 50  1  0
 27 51  1  0
M  END
>  <meeko>  (4) 
{"is_sidechain": [false], "free_energy": -8.207, "intermolecular_energy": -10.752, "internal_energy": -0.61}

$$$$
LIB_VWPZVQSMQVKQCI__M_PUB_ALL__e8__s20260927
     RDKit          3D

 51 54  0  0  0  0  0  0  0  0999 V2000
    2.6160  -15.9460    0.1960 C   0  0  0  0  0  0  0  0  0  0  0  0
    2.5940  -14.6940    1.0720 C   0  0  0  0  0  0  0  0  0  0  0  0
    3.0250  -13.4990    0.3230 N   0  0  0  0  0  0  0  0  0  0  0  0
    4.3680  -13.1330    0.4820 C   0  0  0  0  0  0  0  0  0  0  0  0
    5.0130  -13.5390    1.6120 N   0  0  0  0  0  0  0  0  0  0  0  0
    6.3010  -13.1750    1.8140 C   0  0  0  0  0  0  0  0  0  0  0  0
    7.0340  -12.4110    0.9270 C   0  0  0  0  0  0  0  0  0  0  0  0
    8.4540  -11.9970    1.2040 C   0  0  0  0  0  0  0  0  0  0  0  0
    9.3360  -12.6500    0.2920 O   0  0  0  0  0  0  0  0  0  0  0  0
   10.5520  -12.0670    0.0690 C   0  0  0  0  0  0  0  0  0  0  0  0
   11.2180  -11.1980    0.9340 C   0  0  0  0  0  0  0  0  0  0  0  0
   12.4660  -10.6750    0.5810 C   0  0  0  0  0  0  0  0  0  0  0  0
   13.0510  -11.0100   -0.6410 C   0  0  0  0  0  0  0  0  0  0  0  0
   12.3830  -11.8700   -1.5200 C   0  0  0  0  0  0  0  0  0  0  0  0
   12.9580  -12.2670   -2.8320 C   0  0  0  0  0  0  0  0  0  0  0  0
   13.4180  -13.5470   -2.9630 N   0  0  0  0  0  0  0  0  0  0  0  0
   13.0430  -11.4740   -3.7620 O   0  0  0  0  0  0  0  0  0  0  0  0
   11.1410  -12.4020   -1.1540 C   0  0  0  0  0  0  0  0  0  0  0  0
    6.3700  -11.9970   -0.2280 C   0  0  0  0  0  0  0  0  0  0  0  0
    5.0270  -12.3560   -0.4560 C   0  0  0  0  0  0  0  0  0  0  0  0
    4.4530  -11.9950   -1.7640 C   0  0  0  0  0  0  0  0  0  0  0  0
    5.2490  -11.9830   -2.7090 O   0  0  0  0  0  0  0  0  0  0  0  0
    3.1290  -11.5710   -1.9170 N   0  0  0  0  0  0  0  0  0  0  0  0
    2.7770  -11.0530   -3.2410 C   0  0  0  0  0  0  0  0  0  0  0  0
    2.1050  -11.5780   -0.9130 C   0  0  0  0  0  0  0  0  0  0  0  0
    1.0520  -10.6440   -1.0130 C   0  0  0  0  0  0  0  0  0  0  0  0
   -0.0140  -10.6620   -0.1230 C   0  0  0  0  0  0  0  0  0  0  0  0
   -0.0070  -11.6350    0.8450 C   0  0  0  0  0  0  0  0  0  0  0  0
   -1.2800  -11.7600    1.9850 Cl  0  0  0  0  0  0  0  0  0  0  0  0
    0.9640  -12.5520    0.9840 N   0  0  0  0  0  0  0  0  0  0  0  0
    2.0250  -12.5270    0.1290 C   0  0  0  0  0  0  0  0  0  0  0  0
    2.6317  -16.8408    0.8356 H   0  0  0  0  0  0  0  0  0  0  0  0
    1.7180  -15.9650   -0.4391 H   0  0  0  0  0  0  0  0  0  0  0  0
    3.5141  -15.9334   -0.4391 H   0  0  0  0  0  0  0  0  0  0  0  0
    1.5699  -14.5342    1.4404 H   0  0  0  0  0  0  0  0  0  0  0  0
    3.2930  -14.8467    1.9075 H   0  0  0  0  0  0  0  0  0  0  0  0
    6.7933  -13.5075    2.7398 H   0  0  0  0  0  0  0  0  0  0  0  0
    8.5464  -10.9075    1.0842 H   0  0  0  0  0  0  0  0  0  0  0  0
    8.7205  -12.2814    2.2326 H   0  0  0  0  0  0  0  0  0  0  0  0
   10.7603  -10.9237    1.8959 H   0  0  0  0  0  0  0  0  0  0  0  0
   12.9894   -9.9959    1.2702 H   0  0  0  0  0  0  0  0  0  0  0  0
   14.0346  -10.5991   -0.9125 H   0  0  0  0  0  0  0  0  0  0  0  0
   13.8160  -13.8000   -3.8580 H   0  0  0  0  0  0  0  0  0  0  0  0
   13.4630  -14.2170   -2.2120 H   0  0  0  0  0  0  0  0  0  0  0  0
   10.6225  -13.0915   -1.8364 H   0  0  0  0  0  0  0  0  0  0  0  0
    6.9016  -11.3828   -0.9697 H   0  0  0  0  0  0  0  0  0  0  0  0
    2.1620  -10.1479   -3.1290 H   0  0  0  0  0  0  0  0  0  0  0  0
    3.6952  -10.8062   -3.7942 H   0  0  0  0  0  0  0  0  0  0  0  0
    2.2095  -11.8158   -3.7942 H   0  0  0  0  0  0  0  0  0  0  0  0
    1.0759   -9.8873   -1.8110 H   0  0  0  0  0  0  0  0  0  0  0  0
   -0.8298   -9.9272   -0.1910 H   0  0  0  0  0  0  0  0  0  0  0  0
  1  2  1  0
  2  3  1  0
  3  4  1  0
  4  5  2  0
  5  6  1  0
  6  7  2  0
  7  8  1  0
  8  9  1  0
  9 10  1  0
 10 11  2  0
 11 12  1  0
 12 13  2  0
 13 14  1  0
 14 15  1  0
 15 16  1  0
 15 17  2  0
 14 18  2  0
  7 19  1  0
 19 20  2  0
 20 21  1  0
 21 22  2  0
 21 23  1  0
 23 24  1  0
 23 25  1  0
 25 26  2  0
 26 27  1  0
 27 28  2  0
 28 29  1  0
 28 30  1  0
 30 31  2  0
 31  3  1  0
 20  4  1  0
 31 25  1  0
 18 10  1  0
  1 32  1  0
  1 33  1  0
  1 34  1  0
  2 35  1  0
  2 36  1  0
  6 37  1  0
  8 38  1  0
  8 39  1  0
 11 40  1  0
 12 41  1  0
 13 42  1  0
 16 43  1  0
 16 44  1  0
 18 45  1  0
 19 46  1  0
 24 47  1  0
 24 48  1  0
 24 49  1  0
 26 50  1  0
 27 51  1  0
M  END
>  <meeko>  (5) 
{"is_sidechain": [false], "free_energy": -8.133, "intermolecular_energy": -10.688, "internal_energy": -0.577}

$$$$
LIB_VWPZVQSMQVKQCI__M_PUB_ALL__e8__s20260927
     RDKit          3D

 51 54  0  0  0  0  0  0  0  0999 V2000
   11.9080  -16.6570   -0.9090 C   0  0  0  0  0  0  0  0  0  0  0  0
   11.0240  -15.8230   -1.8350 C   0  0  0  0  0  0  0  0  0  0  0  0
   11.1050  -14.3860   -1.5150 N   0  0  0  0  0  0  0  0  0  0  0  0
    9.9270  -13.8060   -1.0240 C   0  0  0  0  0  0  0  0  0  0  0  0
    8.7420  -14.4040   -1.3310 N   0  0  0  0  0  0  0  0  0  0  0  0
    7.5830  -13.8510   -0.9010 C   0  0  0  0  0  0  0  0  0  0  0  0
    7.5130  -12.6990   -0.1420 C   0  0  0  0  0  0  0  0  0  0  0  0
    6.2040  -12.0960    0.2860 C   0  0  0  0  0  0  0  0  0  0  0  0
    5.1340  -12.9870   -0.0290 O   0  0  0  0  0  0  0  0  0  0  0  0
    3.9710  -12.4340   -0.4900 C   0  0  0  0  0  0  0  0  0  0  0  0
    2.8290  -12.1730    0.2680 C   0  0  0  0  0  0  0  0  0  0  0  0
    1.7050  -11.5970   -0.3320 C   0  0  0  0  0  0  0  0  0  0  0  0
    1.7120  -11.2870   -1.6920 C   0  0  0  0  0  0  0  0  0  0  0  0
    2.8490  -11.5590   -2.4620 C   0  0  0  0  0  0  0  0  0  0  0  0
    2.9170  -11.2480   -3.9140 C   0  0  0  0  0  0  0  0  0  0  0  0
    3.3470  -10.0020   -4.2770 N   0  0  0  0  0  0  0  0  0  0  0  0
    2.5790  -12.0630   -4.7620 O   0  0  0  0  0  0  0  0  0  0  0  0
    3.9770  -12.1220   -1.8520 C   0  0  0  0  0  0  0  0  0  0  0  0
    8.7290  -12.0900    0.1700 C   0  0  0  0  0  0  0  0  0  0  0  0
    9.9470  -12.6410   -0.2730 C   0  0  0  0  0  0  0  0  0  0  0  0
   11.1840  -12.0110    0.2200 C   0  0  0  0  0  0  0  0  0  0  0  0
   11.1140  -11.5180    1.3510 O   0  0  0  0  0  0  0  0  0  0  0  0
   12.3260  -11.8630   -0.5730 N   0  0  0  0  0  0  0  0  0  0  0  0
   13.3910  -11.0340   -0.0050 C   0  0  0  0  0  0  0  0  0  0  0  0
   12.5430  -12.4200   -1.8770 C   0  0  0  0  0  0  0  0  0  0  0  0
   13.4250  -11.7600   -2.7580 C   0  0  0  0  0  0  0  0  0  0  0  0
   13.7440  -12.3000   -3.9970 C   0  0  0  0  0  0  0  0  0  0  0  0
   13.1770  -13.5080   -4.3200 C   0  0  0  0  0  0  0  0  0  0  0  0
   13.5140  -14.2720   -5.8150 Cl  0  0  0  0  0  0  0  0  0  0  0  0
   12.3360  -14.1820   -3.5200 N   0  0  0  0  0  0  0  0  0  0  0  0
   12.0000  -13.6490   -2.3120 C   0  0  0  0  0  0  0  0  0  0  0  0
   11.6630  -16.4258    0.1381 H   0  0  0  0  0  0  0  0  0  0  0  0
   11.7324  -17.7261   -1.0992 H   0  0  0  0  0  0  0  0  0  0  0  0
   12.9651  -16.4195   -1.0992 H   0  0  0  0  0  0  0  0  0  0  0  0
   11.3511  -15.9762   -2.8740 H   0  0  0  0  0  0  0  0  0  0  0  0
    9.9817  -16.1472   -1.6990 H   0  0  0  0  0  0  0  0  0  0  0  0
    6.6406  -14.3492   -1.1725 H   0  0  0  0  0  0  0  0  0  0  0  0
    6.2222  -11.9167    1.3711 H   0  0  0  0  0  0  0  0  0  0  0  0
    6.0521  -11.1446   -0.2449 H   0  0  0  0  0  0  0  0  0  0  0  0
    2.8129  -12.4208    1.3396 H   0  0  0  0  0  0  0  0  0  0  0  0
    0.8100  -11.3871    0.2720 H   0  0  0  0  0  0  0  0  0  0  0  0
    0.8266  -10.8301   -2.1581 H   0  0  0  0  0  0  0  0  0  0  0  0
    3.3790   -9.8000   -5.2670 H   0  0  0  0  0  0  0  0  0  0  0  0
    3.5490   -9.2580   -3.6290 H   0  0  0  0  0  0  0  0  0  0  0  0
    4.8775  -12.3207   -2.4517 H   0  0  0  0  0  0  0  0  0  0  0  0
    8.7364  -11.1678    0.7696 H   0  0  0  0  0  0  0  0  0  0  0  0
   13.3402  -11.0735    1.0931 H   0  0  0  0  0  0  0  0  0  0  0  0
   14.3681  -11.4116   -0.3407 H   0  0  0  0  0  0  0  0  0  0  0  0
   13.2647   -9.9941   -0.3407 H   0  0  0  0  0  0  0  0  0  0  0  0
   13.8686  -10.7992   -2.4579 H   0  0  0  0  0  0  0  0  0  0  0  0
   14.4225  -11.7817   -4.6905 H   0  0  0  0  0  0  0  0  0  0  0  0
  1  2  1  0
  2  3  1  0
  3  4  1  0
  4  5  2  0
  5  6  1  0
  6  7  2  0
  7  8  1  0
  8  9  1  0
  9 10  1  0
 10 11  2  0
 11 12  1  0
 12 13  2  0
 13 14  1  0
 14 15  1  0
 15 16  1  0
 15 17  2  0
 14 18  2  0
  7 19  1  0
 19 20  2  0
 20 21  1  0
 21 22  2  0
 21 23  1  0
 23 24  1  0
 23 25  1  0
 25 26  2  0
 26 27  1  0
 27 28  2  0
 28 29  1  0
 28 30  1  0
 30 31  2  0
 31  3  1  0
 20  4  1  0
 31 25  1  0
 18 10  1  0
  1 32  1  0
  1 33  1  0
  1 34  1  0
  2 35  1  0
  2 36  1  0
  6 37  1  0
  8 38  1  0
  8 39  1  0
 11 40  1  0
 12 41  1  0
 13 42  1  0
 16 43  1  0
 16 44  1  0
 18 45  1  0
 19 46  1  0
 24 47  1  0
 24 48  1  0
 24 49  1  0
 26 50  1  0
 27 51  1  0
M  END
>  <meeko>  (6) 
{"is_sidechain": [false], "free_energy": -8.061, "intermolecular_energy": -10.56, "internal_energy": -0.613}

$$$$
LIB_VWPZVQSMQVKQCI__M_PUB_ALL__e8__s20260927
     RDKit          3D

 51 54  0  0  0  0  0  0  0  0999 V2000
   -4.3070  -11.5810   -0.6590 C   0  0  0  0  0  0  0  0  0  0  0  0
   -3.6970  -11.7040    0.7370 C   0  0  0  0  0  0  0  0  0  0  0  0
   -2.7680  -12.8460    0.8240 N   0  0  0  0  0  0  0  0  0  0  0  0
   -3.1420  -13.8690    1.7060 C   0  0  0  0  0  0  0  0  0  0  0  0
   -3.9870  -13.5560    2.7280 N   0  0  0  0  0  0  0  0  0  0  0  0
   -4.3430  -14.5120    3.6180 C   0  0  0  0  0  0  0  0  0  0  0  0
   -3.9090  -15.8220    3.5560 C   0  0  0  0  0  0  0  0  0  0  0  0
   -4.2980  -16.8480    4.5860 C   0  0  0  0  0  0  0  0  0  0  0  0
   -5.6020  -16.5580    5.0890 O   0  0  0  0  0  0  0  0  0  0  0  0
   -5.6830  -15.8190    6.2370 C   0  0  0  0  0  0  0  0  0  0  0  0
   -6.7020  -14.9260    6.5690 C   0  0  0  0  0  0  0  0  0  0  0  0
   -6.6630  -14.2350    7.7840 C   0  0  0  0  0  0  0  0  0  0  0  0
   -5.6010  -14.4260    8.6690 C   0  0  0  0  0  0  0  0  0  0  0  0
   -4.5680  -15.3090    8.3370 C   0  0  0  0  0  0  0  0  0  0  0  0
   -3.4140  -15.5570    9.2410 C   0  0  0  0  0  0  0  0  0  0  0  0
   -2.5300  -16.5380    8.8890 N   0  0  0  0  0  0  0  0  0  0  0  0
   -3.2650  -14.9260   10.2800 O   0  0  0  0  0  0  0  0  0  0  0  0
   -4.6210  -16.0090    7.1250 C   0  0  0  0  0  0  0  0  0  0  0  0
   -3.0440  -16.1380    2.5090 C   0  0  0  0  0  0  0  0  0  0  0  0
   -2.6530  -15.1590    1.5750 C   0  0  0  0  0  0  0  0  0  0  0  0
   -1.8520  -15.6140    0.4260 C   0  0  0  0  0  0  0  0  0  0  0  0
   -2.0830  -16.7650    0.0400 O   0  0  0  0  0  0  0  0  0  0  0  0
   -0.8130  -14.8530   -0.1200 N   0  0  0  0  0  0  0  0  0  0  0  0
    0.0160  -15.5340   -1.1180 C   0  0  0  0  0  0  0  0  0  0  0  0
   -0.4740  -13.5000    0.2120 C   0  0  0  0  0  0  0  0  0  0  0  0
    0.8600  -13.0740    0.0390 C   0  0  0  0  0  0  0  0  0  0  0  0
    1.2270  -11.7520    0.2570 C   0  0  0  0  0  0  0  0  0  0  0  0
    0.2370  -10.8790    0.6310 C   0  0  0  0  0  0  0  0  0  0  0  0
    0.5750   -9.2230    0.9100 Cl  0  0  0  0  0  0  0  0  0  0  0  0
   -1.0480  -11.2270    0.8050 N   0  0  0  0  0  0  0  0  0  0  0  0
   -1.4130  -12.5260    0.6160 C   0  0  0  0  0  0  0  0  0  0  0  0
   -5.3819  -11.3643   -0.5717 H   0  0  0  0  0  0  0  0  0  0  0  0
   -3.8115  -10.7647   -1.2050 H   0  0  0  0  0  0  0  0  0  0  0  0
   -4.1666  -12.5255   -1.2050 H   0  0  0  0  0  0  0  0  0  0  0  0
   -3.1489  -10.7792    0.9700 H   0  0  0  0  0  0  0  0  0  0  0  0
   -4.5130  -11.8683    1.4561 H   0  0  0  0  0  0  0  0  0  0  0  0
   -5.0179  -14.2289    4.4392 H   0  0  0  0  0  0  0  0  0  0  0  0
   -4.2983  -17.8466    4.1247 H   0  0  0  0  0  0  0  0  0  0  0  0
   -3.5752  -16.8227    5.4148 H   0  0  0  0  0  0  0  0  0  0  0  0
   -7.5385  -14.7650    5.8731 H   0  0  0  0  0  0  0  0  0  0  0  0
   -7.4732  -13.5376    8.0434 H   0  0  0  0  0  0  0  0  0  0  0  0
   -5.5762  -13.8834    9.6255 H   0  0  0  0  0  0  0  0  0  0  0  0
   -1.7560  -16.7030    9.5180 H   0  0  0  0  0  0  0  0  0  0  0  0
   -2.6470  -17.1540    8.1000 H   0  0  0  0  0  0  0  0  0  0  0  0
   -3.8179  -16.7159    6.8694 H   0  0  0  0  0  0  0  0  0  0  0  0
   -2.6621  -17.1650    2.4113 H   0  0  0  0  0  0  0  0  0  0  0  0
    0.7693  -16.1528   -0.6084 H   0  0  0  0  0  0  0  0  0  0  0  0
   -0.6196  -16.1742   -1.7474 H   0  0  0  0  0  0  0  0  0  0  0  0
    0.5206  -14.7862   -1.7474 H   0  0  0  0  0  0  0  0  0  0  0  0
    1.6231  -13.8018   -0.2741 H   0  0  0  0  0  0  0  0  0  0  0  0
    2.2682  -11.4190    0.1348 H   0  0  0  0  0  0  0  0  0  0  0  0
  1  2  1  0
  2  3  1  0
  3  4  1  0
  4  5  2  0
  5  6  1  0
  6  7  2  0
  7  8  1  0
  8  9  1  0
  9 10  1  0
 10 11  2  0
 11 12  1  0
 12 13  2  0
 13 14  1  0
 14 15  1  0
 15 16  1  0
 15 17  2  0
 14 18  2  0
  7 19  1  0
 19 20  2  0
 20 21  1  0
 21 22  2  0
 21 23  1  0
 23 24  1  0
 23 25  1  0
 25 26  2  0
 26 27  1  0
 27 28  2  0
 28 29  1  0
 28 30  1  0
 30 31  2  0
 31  3  1  0
 20  4  1  0
 31 25  1  0
 18 10  1  0
  1 32  1  0
  1 33  1  0
  1 34  1  0
  2 35  1  0
  2 36  1  0
  6 37  1  0
  8 38  1  0
  8 39  1  0
 11 40  1  0
 12 41  1  0
 13 42  1  0
 16 43  1  0
 16 44  1  0
 18 45  1  0
 19 46  1  0
 24 47  1  0
 24 48  1  0
 24 49  1  0
 26 50  1  0
 27 51  1  0
M  END
>  <meeko>  (7) 
{"is_sidechain": [false], "free_energy": -8.003, "intermolecular_energy": -10.653, "internal_energy": -0.446}

$$$$
LIB_VWPZVQSMQVKQCI__M_PUB_ALL__e8__s20260927
     RDKit          3D

 51 54  0  0  0  0  0  0  0  0999 V2000
   11.9670  -16.5830   -0.8700 C   0  0  0  0  0  0  0  0  0  0  0  0
   11.0080  -15.7610   -1.7290 C   0  0  0  0  0  0  0  0  0  0  0  0
   11.0810  -14.3240   -1.4030 N   0  0  0  0  0  0  0  0  0  0  0  0
    9.8980  -13.7500   -0.9200 C   0  0  0  0  0  0  0  0  0  0  0  0
    8.7170  -14.3500   -1.2390 N   0  0  0  0  0  0  0  0  0  0  0  0
    7.5530  -13.8030   -0.8170 C   0  0  0  0  0  0  0  0  0  0  0  0
    7.4730  -12.6540   -0.0540 C   0  0  0  0  0  0  0  0  0  0  0  0
    6.1580  -12.0560    0.3660 C   0  0  0  0  0  0  0  0  0  0  0  0
    5.0990  -12.9690    0.0810 O   0  0  0  0  0  0  0  0  0  0  0  0
    3.9820  -12.4650   -0.5260 C   0  0  0  0  0  0  0  0  0  0  0  0
    3.7380  -12.4320   -1.8990 C   0  0  0  0  0  0  0  0  0  0  0  0
    2.5450  -11.8900   -2.3870 C   0  0  0  0  0  0  0  0  0  0  0  0
    1.5940  -11.3710   -1.5080 C   0  0  0  0  0  0  0  0  0  0  0  0
    1.8380  -11.3880   -0.1300 C   0  0  0  0  0  0  0  0  0  0  0  0
    0.8610  -10.8550    0.8560 C   0  0  0  0  0  0  0  0  0  0  0  0
    1.0030   -9.5540    1.2510 N   0  0  0  0  0  0  0  0  0  0  0  0
   -0.0280  -11.5560    1.3230 O   0  0  0  0  0  0  0  0  0  0  0  0
    3.0280  -11.9460    0.3540 C   0  0  0  0  0  0  0  0  0  0  0  0
    8.6840  -12.0420    0.2700 C   0  0  0  0  0  0  0  0  0  0  0  0
    9.9080  -12.5880   -0.1650 C   0  0  0  0  0  0  0  0  0  0  0  0
   11.1390  -11.9560    0.3410 C   0  0  0  0  0  0  0  0  0  0  0  0
   11.0580  -11.4670    1.4730 O   0  0  0  0  0  0  0  0  0  0  0  0
   12.2870  -11.8010   -0.4430 N   0  0  0  0  0  0  0  0  0  0  0  0
   13.3450  -10.9710    0.1380 C   0  0  0  0  0  0  0  0  0  0  0  0
   12.5160  -12.3530   -1.7460 C   0  0  0  0  0  0  0  0  0  0  0  0
   13.4030  -11.6860   -2.6180 C   0  0  0  0  0  0  0  0  0  0  0  0
   13.7340  -12.2220   -3.8560 C   0  0  0  0  0  0  0  0  0  0  0  0
   13.1740  -13.4300   -4.1880 C   0  0  0  0  0  0  0  0  0  0  0  0
   13.5250  -14.1880   -5.6830 Cl  0  0  0  0  0  0  0  0  0  0  0  0
   12.3290  -14.1100   -3.3970 N   0  0  0  0  0  0  0  0  0  0  0  0
   11.9810  -13.5820   -2.1900 C   0  0  0  0  0  0  0  0  0  0  0  0
   11.7544  -16.4008    0.1938 H   0  0  0  0  0  0  0  0  0  0  0  0
   11.8341  -17.6520   -1.0926 H   0  0  0  0  0  0  0  0  0  0  0  0
   13.0031  -16.2882   -1.0926 H   0  0  0  0  0  0  0  0  0  0  0  0
   11.2693  -15.9002   -2.7884 H   0  0  0  0  0  0  0  0  0  0  0  0
    9.9835  -16.1074   -1.5277 H   0  0  0  0  0  0  0  0  0  0  0  0
    6.6146  -14.3032   -1.0984 H   0  0  0  0  0  0  0  0  0  0  0  0
    6.1798  -11.8476    1.4459 H   0  0  0  0  0  0  0  0  0  0  0  0
    5.9905  -11.1209   -0.1885 H   0  0  0  0  0  0  0  0  0  0  0  0
    4.4856  -12.8331   -2.5992 H   0  0  0  0  0  0  0  0  0  0  0  0
    2.3552  -11.8727   -3.4704 H   0  0  0  0  0  0  0  0  0  0  0  0
    0.6552  -10.9497   -1.8969 H   0  0  0  0  0  0  0  0  0  0  0  0
    0.3390   -9.2080    1.9300 H   0  0  0  0  0  0  0  0  0  0  0  0
    1.7660   -8.9550    0.9770 H   0  0  0  0  0  0  0  0  0  0  0  0
    3.2138  -11.9761    1.4378 H   0  0  0  0  0  0  0  0  0  0  0  0
    8.6834  -11.1217    0.8726 H   0  0  0  0  0  0  0  0  0  0  0  0
   13.2862  -11.0171    1.2355 H   0  0  0  0  0  0  0  0  0  0  0  0
   14.3260  -11.3429   -0.1926 H   0  0  0  0  0  0  0  0  0  0  0  0
   13.2173   -9.9297   -0.1926 H   0  0  0  0  0  0  0  0  0  0  0  0
   13.8401  -10.7242   -2.3117 H   0  0  0  0  0  0  0  0  0  0  0  0
   14.4170  -11.6996   -4.5421 H   0  0  0  0  0  0  0  0  0  0  0  0
  1  2  1  0
  2  3  1  0
  3  4  1  0
  4  5  2  0
  5  6  1  0
  6  7  2  0
  7  8  1  0
  8  9  1  0
  9 10  1  0
 10 11  2  0
 11 12  1  0
 12 13  2  0
 13 14  1  0
 14 15  1  0
 15 16  1  0
 15 17  2  0
 14 18  2  0
  7 19  1  0
 19 20  2  0
 20 21  1  0
 21 22  2  0
 21 23  1  0
 23 24  1  0
 23 25  1  0
 25 26  2  0
 26 27  1  0
 27 28  2  0
 28 29  1  0
 28 30  1  0
 30 31  2  0
 31  3  1  0
 20  4  1  0
 31 25  1  0
 18 10  1  0
  1 32  1  0
  1 33  1  0
  1 34  1  0
  2 35  1  0
  2 36  1  0
  6 37  1  0
  8 38  1  0
  8 39  1  0
 11 40  1  0
 12 41  1  0
 13 42  1  0
 16 43  1  0
 16 44  1  0
 18 45  1  0
 19 46  1  0
 24 47  1  0
 24 48  1  0
 24 49  1  0
 26 50  1  0
 27 51  1  0
M  END
>  <meeko>  (8) 
{"is_sidechain": [false], "free_energy": -7.988, "intermolecular_energy": -10.53, "internal_energy": -0.548}

$$$$
LIB_VWPZVQSMQVKQCI__M_PUB_ALL__e8__s20260927
     RDKit          3D

 51 54  0  0  0  0  0  0  0  0999 V2000
   11.8950  -16.7030   -0.9820 C   0  0  0  0  0  0  0  0  0  0  0  0
   11.0960  -15.9190   -2.0220 C   0  0  0  0  0  0  0  0  0  0  0  0
   11.0840  -14.4750   -1.7240 N   0  0  0  0  0  0  0  0  0  0  0  0
    9.8300  -13.9260   -1.4250 C   0  0  0  0  0  0  0  0  0  0  0  0
    8.7220  -14.5680   -1.8920 N   0  0  0  0  0  0  0  0  0  0  0  0
    7.4960  -14.0470   -1.6500 C   0  0  0  0  0  0  0  0  0  0  0  0
    7.2790  -12.8860   -0.9340 C   0  0  0  0  0  0  0  0  0  0  0  0
    5.9020  -12.3200   -0.7180 C   0  0  0  0  0  0  0  0  0  0  0  0
    5.5640  -11.4440   -1.7930 O   0  0  0  0  0  0  0  0  0  0  0  0
    4.4880  -11.7840   -2.5650 C   0  0  0  0  0  0  0  0  0  0  0  0
    3.9840  -11.0500   -3.6400 C   0  0  0  0  0  0  0  0  0  0  0  0
    2.8750  -11.5180   -4.3510 C   0  0  0  0  0  0  0  0  0  0  0  0
    2.2580  -12.7160   -3.9870 C   0  0  0  0  0  0  0  0  0  0  0  0
    2.7490  -13.4500   -2.9020 C   0  0  0  0  0  0  0  0  0  0  0  0
    2.1370  -14.7350   -2.4700 C   0  0  0  0  0  0  0  0  0  0  0  0
    0.7730  -14.8100   -2.4400 N   0  0  0  0  0  0  0  0  0  0  0  0
    2.8230  -15.6890   -2.1270 O   0  0  0  0  0  0  0  0  0  0  0  0
    3.8700  -12.9840   -2.2030 C   0  0  0  0  0  0  0  0  0  0  0  0
    8.4150  -12.2320   -0.4590 C   0  0  0  0  0  0  0  0  0  0  0  0
    9.7020  -12.7490   -0.7040 C   0  0  0  0  0  0  0  0  0  0  0  0
   10.8320  -12.0710   -0.0470 C   0  0  0  0  0  0  0  0  0  0  0  0
   10.5800  -11.5620    1.0510 O   0  0  0  0  0  0  0  0  0  0  0  0
   12.0740  -11.8980   -0.6650 N   0  0  0  0  0  0  0  0  0  0  0  0
   13.0180  -11.0250    0.0370 C   0  0  0  0  0  0  0  0  0  0  0  0
   12.4990  -12.4690   -1.9100 C   0  0  0  0  0  0  0  0  0  0  0  0
   13.4820  -11.7940   -2.6650 C   0  0  0  0  0  0  0  0  0  0  0  0
   13.9980  -12.3440   -3.8310 C   0  0  0  0  0  0  0  0  0  0  0  0
   13.5230  -13.5740   -4.2090 C   0  0  0  0  0  0  0  0  0  0  0  0
   14.1010  -14.3520   -5.6210 Cl  0  0  0  0  0  0  0  0  0  0  0  0
   12.5930  -14.2630   -3.5280 N   0  0  0  0  0  0  0  0  0  0  0  0
   12.0650  -13.7220   -2.3950 C   0  0  0  0  0  0  0  0  0  0  0  0
   11.5829  -16.3967    0.0274 H   0  0  0  0  0  0  0  0  0  0  0  0
   11.7096  -17.7794   -1.1123 H   0  0  0  0  0  0  0  0  0  0  0  0
   12.9677  -16.4973   -1.1123 H   0  0  0  0  0  0  0  0  0  0  0  0
   11.5493  -16.0751   -3.0120 H   0  0  0  0  0  0  0  0  0  0  0  0
   10.0579  -16.2822   -2.0027 H   0  0  0  0  0  0  0  0  0  0  0  0
    6.6200  -14.5805   -2.0476 H   0  0  0  0  0  0  0  0  0  0  0  0
    5.1723  -13.1420   -0.6738 H   0  0  0  0  0  0  0  0  0  0  0  0
    5.8852  -11.7575    0.2272 H   0  0  0  0  0  0  0  0  0  0  0  0
    4.4604  -10.1014   -3.9283 H   0  0  0  0  0  0  0  0  0  0  0  0
    2.4866  -10.9391   -5.2018 H   0  0  0  0  0  0  0  0  0  0  0  0
    1.3879  -13.0820   -4.5518 H   0  0  0  0  0  0  0  0  0  0  0  0
    0.3710  -15.6860   -2.1350 H   0  0  0  0  0  0  0  0  0  0  0  0
    0.1550  -14.0350   -2.6190 H   0  0  0  0  0  0  0  0  0  0  0  0
    4.2679  -13.5687   -1.3605 H   0  0  0  0  0  0  0  0  0  0  0  0
    8.3047  -11.2999    0.1147 H   0  0  0  0  0  0  0  0  0  0  0  0
   12.8894  -11.1439    1.1230 H   0  0  0  0  0  0  0  0  0  0  0  0
   14.0465  -11.2972   -0.2424 H   0  0  0  0  0  0  0  0  0  0  0  0
   12.8269   -9.9784   -0.2424 H   0  0  0  0  0  0  0  0  0  0  0  0
   13.8462  -10.8139   -2.3234 H   0  0  0  0  0  0  0  0  0  0  0  0
   14.7564  -11.8151   -4.4269 H   0  0  0  0  0  0  0  0  0  0  0  0
  1  2  1  0
  2  3  1  0
  3  4  1  0
  4  5  2  0
  5  6  1  0
  6  7  2  0
  7  8  1  0
  8  9  1  0
  9 10  1  0
 10 11  2  0
 11 12  1  0
 12 13  2  0
 13 14  1  0
 14 15  1  0
 15 16  1  0
 15 17  2  0
 14 18  2  0
  7 19  1  0
 19 20  2  0
 20 21  1  0
 21 22  2  0
 21 23  1  0
 23 24  1  0
 23 25  1  0
 25 26  2  0
 26 27  1  0
 27 28  2  0
 28 29  1  0
 28 30  1  0
 30 31  2  0
 31  3  1  0
 20  4  1  0
 31 25  1  0
 18 10  1  0
  1 32  1  0
  1 33  1  0
  1 34  1  0
  2 35  1  0
  2 36  1  0
  6 37  1  0
  8 38  1  0
  8 39  1  0
 11 40  1  0
 12 41  1  0
 13 42  1  0
 16 43  1  0
 16 44  1  0
 18 45  1  0
 19 46  1  0
 24 47  1  0
 24 48  1  0
 24 49  1  0
 26 50  1  0
 27 51  1  0
M  END
>  <meeko>  (9) 
{"is_sidechain": [false], "free_energy": -7.753, "intermolecular_energy": -10.106, "internal_energy": -0.669}

$$$$
