LIB_FXICKEZXEBWTBW__M_PUB_ALL__e8__s20260927
     RDKit          3D

 54 58  0  0  0  0  0  0  0  0999 V2000
    4.0470  -13.3670   -6.3640 O   0  0  0  0  0  0  0  0  0  0  0  0
    5.0660  -12.8660   -5.9090 C   0  0  0  0  0  0  0  0  0  0  0  0
    5.1280  -12.1050   -4.7500 N   0  0  0  0  0  0  0  0  0  0  0  0
    4.0540  -11.6760   -3.9400 C   0  0  0  0  0  0  0  0  0  0  0  0
    3.3660  -10.5280   -4.3510 C   0  0  0  0  0  0  0  0  0  0  0  0
    2.2900  -10.0420   -3.6080 C   0  0  0  0  0  0  0  0  0  0  0  0
    1.8940  -10.7000   -2.4440 C   0  0  0  0  0  0  0  0  0  0  0  0
    2.5670  -11.8500   -2.0080 C   0  0  0  0  0  0  0  0  0  0  0  0
    2.1150  -12.5390   -0.7720 C   0  0  0  0  0  0  0  0  0  0  0  0
    2.7210  -13.6780   -0.3760 C   0  0  0  0  0  0  0  0  0  0  0  0
    2.2840  -14.2830    0.7820 N   0  0  0  0  0  0  0  0  0  0  0  0
    2.6760  -15.4180    1.4360 C   0  0  0  0  0  0  0  0  0  0  0  0
    1.8560  -15.4970    2.5430 C   0  0  0  0  0  0  0  0  0  0  0  0
    0.9750  -14.4420    2.5870 N   0  0  0  0  0  0  0  0  0  0  0  0
    1.2650  -13.7370    1.5110 C   0  0  0  0  0  0  0  0  0  0  0  0
    0.6480  -12.5050    1.0540 C   0  0  0  0  0  0  0  0  0  0  0  0
   -0.3740  -11.9340    1.7690 N   0  0  0  0  0  0  0  0  0  0  0  0
   -1.0590  -10.7330    1.3800 C   0  0  0  0  0  0  0  0  0  0  0  0
   -2.4160  -11.0840    0.8260 C   0  0  0  0  0  0  0  0  0  0  0  0
   -2.9990  -10.3100   -0.1810 C   0  0  0  0  0  0  0  0  0  0  0  0
   -4.2380  -10.6880   -0.6750 C   0  0  0  0  0  0  0  0  0  0  0  0
   -4.9200  -11.7700   -0.2450 N   0  0  0  0  0  0  0  0  0  0  0  0
   -4.3330  -12.5140    0.7170 C   0  0  0  0  0  0  0  0  0  0  0  0
   -3.0990  -12.2180    1.2740 C   0  0  0  0  0  0  0  0  0  0  0  0
    1.0820  -11.9430   -0.0510 N   0  0  0  0  0  0  0  0  0  0  0  0
    3.6390  -12.3350   -2.7800 C   0  0  0  0  0  0  0  0  0  0  0  0
    6.3260  -12.9850   -6.4730 N   0  0  0  0  0  0  0  0  0  0  0  0
    6.7110  -13.7210   -7.6210 C   0  0  0  0  0  0  0  0  0  0  0  0
    6.7060  -13.1920   -8.9140 C   0  0  0  0  0  0  0  0  0  0  0  0
    7.0970  -13.9750  -10.0060 C   0  0  0  0  0  0  0  0  0  0  0  0
    7.4960  -15.2970   -9.8210 C   0  0  0  0  0  0  0  0  0  0  0  0
    7.5050  -15.8410   -8.5400 C   0  0  0  0  0  0  0  0  0  0  0  0
    7.1150  -15.0590   -7.4500 C   0  0  0  0  0  0  0  0  0  0  0  0
    7.1410  -15.7860   -5.8760 Cl  0  0  0  0  0  0  0  0  0  0  0  0
    6.0500  -11.8760   -4.4120 H   0  0  0  0  0  0  0  0  0  0  0  0
    3.6765  -10.0049   -5.2675 H   0  0  0  0  0  0  0  0  0  0  0  0
    1.7543   -9.1404   -3.9400 H   0  0  0  0  0  0  0  0  0  0  0  0
    1.0448  -10.3127   -1.8619 H   0  0  0  0  0  0  0  0  0  0  0  0
    3.5434  -14.1125   -0.9632 H   0  0  0  0  0  0  0  0  0  0  0  0
    3.4730  -16.1172    1.1429 H   0  0  0  0  0  0  0  0  0  0  0  0
    1.9012  -16.3001    3.2933 H   0  0  0  0  0  0  0  0  0  0  0  0
   -0.6690  -12.4190    2.6120 H   0  0  0  0  0  0  0  0  0  0  0  0
   -1.1790  -10.0793    2.2565 H   0  0  0  0  0  0  0  0  0  0  0  0
   -0.4730  -10.2105    0.6096 H   0  0  0  0  0  0  0  0  0  0  0  0
   -2.4857   -9.4197   -0.5734 H   0  0  0  0  0  0  0  0  0  0  0  0
   -4.6916  -10.0697   -1.4636 H   0  0  0  0  0  0  0  0  0  0  0  0
   -4.8648  -13.4062    1.0793 H   0  0  0  0  0  0  0  0  0  0  0  0
   -2.6659  -12.8626    2.0530 H   0  0  0  0  0  0  0  0  0  0  0  0
    4.1603  -13.2507   -2.4641 H   0  0  0  0  0  0  0  0  0  0  0  0
    7.0740  -12.4550   -6.0500 H   0  0  0  0  0  0  0  0  0  0  0  0
    6.3918  -12.1502   -9.0753 H   0  0  0  0  0  0  0  0  0  0  0  0
    7.0893  -13.5435  -11.0178 H   0  0  0  0  0  0  0  0  0  0  0  0
    7.8024  -15.9077  -10.6831 H   0  0  0  0  0  0  0  0  0  0  0  0
    7.8184  -16.8841   -8.3862 H   0  0  0  0  0  0  0  0  0  0  0  0
  1  2  2  0
  2  3  1  0
  3  4  1  0
  4  5  2  0
  5  6  1  0
  6  7  2  0
  7  8  1  0
  8  9  1  0
  9 10  2  0
 10 11  1  0
 11 12  1  0
 12 13  2  0
 13 14  1  0
 14 15  2  0
 15 16  1  0
 16 17  1  0
 17 18  1  0
 18 19  1  0
 19 20  2  0
 20 21  1  0
 21 22  2  0
 22 23  1  0
 23 24  2  0
 16 25  2  0
  8 26  2  0
  2 27  1  0
 27 28  1  0
 28 29  2  0
 29 30  1  0
 30 31  2  0
 31 32  1  0
 32 33  2  0
 33 34  1  0
 26  4  1  0
 33 28  1  0
 25  9  1  0
 15 11  1  0
 24 19  1  0
  3 35  1  0
  5 36  1  0
  6 37  1  0
  7 38  1  0
 10 39  1  0
 12 40  1  0
 13 41  1  0
 17 42  1  0
 18 43  1  0
 18 44  1  0
 20 45  1  0
 21 46  1  0
 23 47  1  0
 24 48  1  0
 26 49  1  0
 27 50  1  0
 29 51  1  0
 30 52  1  0
 31 53  1  0
 32 54  1  0
M  END
>  <meeko>  (1) 
{"is_sidechain": [false], "free_energy": -8.973, "intermolecular_energy": -11.596, "internal_energy": -1.072}

$$$$
LIB_FXICKEZXEBWTBW__M_PUB_ALL__e8__s20260927
     RDKit          3D

 54 58  0  0  0  0  0  0  0  0999 V2000
    4.2560  -13.1620   -6.9280 O   0  0  0  0  0  0  0  0  0  0  0  0
    5.3070  -12.9200   -6.3500 C   0  0  0  0  0  0  0  0  0  0  0  0
    5.4070  -12.3700   -5.0800 N   0  0  0  0  0  0  0  0  0  0  0  0
    4.3600  -11.8940   -4.2610 C   0  0  0  0  0  0  0  0  0  0  0  0
    3.6950  -10.7380   -4.6860 C   0  0  0  0  0  0  0  0  0  0  0  0
    2.6460  -10.2060   -3.9350 C   0  0  0  0  0  0  0  0  0  0  0  0
    2.2550  -10.8260   -2.7490 C   0  0  0  0  0  0  0  0  0  0  0  0
    2.9050  -11.9830   -2.2980 C   0  0  0  0  0  0  0  0  0  0  0  0
    2.4590  -12.6300   -1.0380 C   0  0  0  0  0  0  0  0  0  0  0  0
    3.0810  -13.7430   -0.5950 C   0  0  0  0  0  0  0  0  0  0  0  0
    2.6480  -14.3100    0.5830 N   0  0  0  0  0  0  0  0  0  0  0  0
    3.0560  -15.4130    1.2820 C   0  0  0  0  0  0  0  0  0  0  0  0
    2.2320  -15.4610    2.3880 C   0  0  0  0  0  0  0  0  0  0  0  0
    1.3350  -14.4190    2.3890 N   0  0  0  0  0  0  0  0  0  0  0  0
    1.6180  -13.7530    1.2870 C   0  0  0  0  0  0  0  0  0  0  0  0
    0.9840  -12.5490    0.7800 C   0  0  0  0  0  0  0  0  0  0  0  0
   -0.0490  -11.9660    1.4700 N   0  0  0  0  0  0  0  0  0  0  0  0
   -0.7510  -10.7920    1.0320 C   0  0  0  0  0  0  0  0  0  0  0  0
   -2.1520  -11.1660    0.6210 C   0  0  0  0  0  0  0  0  0  0  0  0
   -2.8990  -10.3310   -0.2150 C   0  0  0  0  0  0  0  0  0  0  0  0
   -4.1730  -10.7310   -0.5860 C   0  0  0  0  0  0  0  0  0  0  0  0
   -4.7410  -11.8900   -0.1910 N   0  0  0  0  0  0  0  0  0  0  0  0
   -3.9980  -12.6900    0.6040 C   0  0  0  0  0  0  0  0  0  0  0  0
   -2.7160  -12.3780    1.0280 C   0  0  0  0  0  0  0  0  0  0  0  0
    1.4150  -12.0230   -0.3440 N   0  0  0  0  0  0  0  0  0  0  0  0
    3.9490  -12.5140   -3.0770 C   0  0  0  0  0  0  0  0  0  0  0  0
    6.5690  -13.1650   -6.8670 N   0  0  0  0  0  0  0  0  0  0  0  0
    6.9120  -13.7700   -8.1020 C   0  0  0  0  0  0  0  0  0  0  0  0
    7.2240  -15.1250   -8.2370 C   0  0  0  0  0  0  0  0  0  0  0  0
    7.5570  -15.6580   -9.4880 C   0  0  0  0  0  0  0  0  0  0  0  0
    7.5850  -14.8440  -10.6180 C   0  0  0  0  0  0  0  0  0  0  0  0
    7.2800  -13.4910  -10.5010 C   0  0  0  0  0  0  0  0  0  0  0  0
    6.9470  -12.9590   -9.2540 C   0  0  0  0  0  0  0  0  0  0  0  0
    6.5780  -11.2680   -9.1620 Cl  0  0  0  0  0  0  0  0  0  0  0  0
    6.3260  -12.3580   -4.6670 H   0  0  0  0  0  0  0  0  0  0  0  0
    4.0019  -10.2446   -5.6200 H   0  0  0  0  0  0  0  0  0  0  0  0
    2.1281   -9.2983   -4.2784 H   0  0  0  0  0  0  0  0  0  0  0  0
    1.4275  -10.4026   -2.1609 H   0  0  0  0  0  0  0  0  0  0  0  0
    3.9135  -14.1864   -1.1611 H   0  0  0  0  0  0  0  0  0  0  0  0
    3.8652  -16.1103    1.0194 H   0  0  0  0  0  0  0  0  0  0  0  0
    2.2859  -16.2339    3.1688 H   0  0  0  0  0  0  0  0  0  0  0  0
   -0.3400  -12.4230    2.3290 H   0  0  0  0  0  0  0  0  0  0  0  0
   -0.7929  -10.0622    1.8540 H   0  0  0  0  0  0  0  0  0  0  0  0
   -0.2239  -10.3494    0.1739 H   0  0  0  0  0  0  0  0  0  0  0  0
   -2.4843   -9.3764   -0.5710 H   0  0  0  0  0  0  0  0  0  0  0  0
   -4.7551  -10.0654   -1.2403 H   0  0  0  0  0  0  0  0  0  0  0  0
   -4.4355  -13.6438    0.9339 H   0  0  0  0  0  0  0  0  0  0  0  0
   -2.1538  -13.0704    1.6719 H   0  0  0  0  0  0  0  0  0  0  0  0
    4.4521  -13.4353   -2.7482 H   0  0  0  0  0  0  0  0  0  0  0  0
    7.3600  -12.8440   -6.3280 H   0  0  0  0  0  0  0  0  0  0  0  0
    7.2079  -15.7789   -7.3526 H   0  0  0  0  0  0  0  0  0  0  0  0
    7.7983  -16.7273   -9.5792 H   0  0  0  0  0  0  0  0  0  0  0  0
    7.8470  -15.2685  -11.5984 H   0  0  0  0  0  0  0  0  0  0  0  0
    7.3013  -12.8423  -11.3891 H   0  0  0  0  0  0  0  0  0  0  0  0
  1  2  2  0
  2  3  1  0
  3  4  1  0
  4  5  2  0
  5  6  1  0
  6  7  2  0
  7  8  1  0
  8  9  1  0
  9 10  2  0
 10 11  1  0
 11 12  1  0
 12 13  2  0
 13 14  1  0
 14 15  2  0
 15 16  1  0
 16 17  1  0
 17 18  1  0
 18 19  1  0
 19 20  2  0
 20 21  1  0
 21 22  2  0
 22 23  1  0
 23 24  2  0
 16 25  2  0
  8 26  2  0
  2 27  1  0
 27 28  1  0
 28 29  2  0
 29 30  1  0
 30 31  2  0
 31 32  1  0
 32 33  2  0
 33 34  1  0
 26  4  1  0
 33 28  1  0
 25  9  1  0
 15 11  1  0
 24 19  1  0
  3 35  1  0
  5 36  1  0
  6 37  1  0
  7 38  1  0
 10 39  1  0
 12 40  1  0
 13 41  1  0
 17 42  1  0
 18 43  1  0
 18 44  1  0
 20 45  1  0
 21 46  1  0
 23 47  1  0
 24 48  1  0
 26 49  1  0
 27 50  1  0
 29 51  1  0
 30 52  1  0
 31 53  1  0
 32 54  1  0
M  END
>  <meeko>  (2) 
{"is_sidechain": [false], "free_energy": -8.901, "intermolecular_energy": -11.606, "internal_energy": -0.969}

$$$$
LIB_FXICKEZXEBWTBW__M_PUB_ALL__e8__s20260927
     RDKit          3D

 54 58  0  0  0  0  0  0  0  0999 V2000
    5.2270  -11.8860   -7.4340 O   0  0  0  0  0  0  0  0  0  0  0  0
    5.4960  -13.0340   -7.1060 C   0  0  0  0  0  0  0  0  0  0  0  0
    6.3380  -13.8840   -7.8080 N   0  0  0  0  0  0  0  0  0  0  0  0
    6.9550  -13.6510   -9.0570 C   0  0  0  0  0  0  0  0  0  0  0  0
    6.1550  -13.7890  -10.1970 C   0  0  0  0  0  0  0  0  0  0  0  0
    6.6870  -13.5710  -11.4680 C   0  0  0  0  0  0  0  0  0  0  0  0
    8.0280  -13.2160  -11.6090 C   0  0  0  0  0  0  0  0  0  0  0  0
    8.8540  -13.0750  -10.4850 C   0  0  0  0  0  0  0  0  0  0  0  0
   10.2750  -12.6830  -10.6630 C   0  0  0  0  0  0  0  0  0  0  0  0
   11.2280  -13.6340  -10.7630 C   0  0  0  0  0  0  0  0  0  0  0  0
   12.5340  -13.2340  -10.9400 N   0  0  0  0  0  0  0  0  0  0  0  0
   13.7040  -13.9300  -11.0710 C   0  0  0  0  0  0  0  0  0  0  0  0
   14.6810  -12.9680  -11.2210 C   0  0  0  0  0  0  0  0  0  0  0  0
   14.1430  -11.7020  -11.1900 N   0  0  0  0  0  0  0  0  0  0  0  0
   12.8520  -11.9070  -11.0180 C   0  0  0  0  0  0  0  0  0  0  0  0
   11.7940  -10.9180  -10.9170 C   0  0  0  0  0  0  0  0  0  0  0  0
   12.0850   -9.5800  -10.9960 N   0  0  0  0  0  0  0  0  0  0  0  0
   11.1080   -8.5330  -10.8810 C   0  0  0  0  0  0  0  0  0  0  0  0
   11.5790   -7.3190  -11.6400 C   0  0  0  0  0  0  0  0  0  0  0  0
   11.9870   -7.4230  -12.9730 C   0  0  0  0  0  0  0  0  0  0  0  0
   12.3870   -6.2740  -13.6360 C   0  0  0  0  0  0  0  0  0  0  0  0
   12.4030   -5.0480  -13.0720 N   0  0  0  0  0  0  0  0  0  0  0  0
   11.9910   -4.9660  -11.7890 C   0  0  0  0  0  0  0  0  0  0  0  0
   11.5730   -6.0550  -11.0430 C   0  0  0  0  0  0  0  0  0  0  0  0
   10.5540  -11.3210  -10.7510 N   0  0  0  0  0  0  0  0  0  0  0  0
    8.2940  -13.2810   -9.2100 C   0  0  0  0  0  0  0  0  0  0  0  0
    5.0090  -13.6660   -5.9730 N   0  0  0  0  0  0  0  0  0  0  0  0
    4.1720  -13.1380   -4.9600 C   0  0  0  0  0  0  0  0  0  0  0  0
    2.7910  -13.3500   -4.9120 C   0  0  0  0  0  0  0  0  0  0  0  0
    2.0210  -12.7980   -3.8820 C   0  0  0  0  0  0  0  0  0  0  0  0
    2.6190  -12.0240   -2.8890 C   0  0  0  0  0  0  0  0  0  0  0  0
    3.9930  -11.8010   -2.9230 C   0  0  0  0  0  0  0  0  0  0  0  0
    4.7620  -12.3540   -3.9500 C   0  0  0  0  0  0  0  0  0  0  0  0
    6.4670  -12.0430   -3.9470 Cl  0  0  0  0  0  0  0  0  0  0  0  0
    6.5860  -14.7480   -7.3510 H   0  0  0  0  0  0  0  0  0  0  0  0
    5.0974  -14.0719  -10.0898 H   0  0  0  0  0  0  0  0  0  0  0  0
    6.0494  -13.6790  -12.3578 H   0  0  0  0  0  0  0  0  0  0  0  0
    8.4425  -13.0446  -12.6134 H   0  0  0  0  0  0  0  0  0  0  0  0
   10.9680  -14.7012  -10.7046 H   0  0  0  0  0  0  0  0  0  0  0  0
   13.8372  -15.0218  -11.0593 H   0  0  0  0  0  0  0  0  0  0  0  0
   15.7518  -13.1849  -11.3489 H   0  0  0  0  0  0  0  0  0  0  0  0
   13.0630   -9.3310  -11.1190 H   0  0  0  0  0  0  0  0  0  0  0  0
   10.1506   -8.8777  -11.2988 H   0  0  0  0  0  0  0  0  0  0  0  0
   10.9735   -8.2725   -9.8208 H   0  0  0  0  0  0  0  0  0  0  0  0
   11.9904   -8.3967  -13.4848 H   0  0  0  0  0  0  0  0  0  0  0  0
   12.7104   -6.3665  -14.6833 H   0  0  0  0  0  0  0  0  0  0  0  0
   11.9872   -3.9766  -11.3083 H   0  0  0  0  0  0  0  0  0  0  0  0
   11.2428   -5.9281  -10.0014 H   0  0  0  0  0  0  0  0  0  0  0  0
    8.9224  -13.1482   -8.3170 H   0  0  0  0  0  0  0  0  0  0  0  0
    5.2380  -14.6430   -5.8550 H   0  0  0  0  0  0  0  0  0  0  0  0
    2.3052  -13.9562   -5.6908 H   0  0  0  0  0  0  0  0  0  0  0  0
    0.9359  -12.9763   -3.8559 H   0  0  0  0  0  0  0  0  0  0  0  0
    2.0086  -11.5915   -2.0826 H   0  0  0  0  0  0  0  0  0  0  0  0
    4.4719  -11.1908   -2.1430 H   0  0  0  0  0  0  0  0  0  0  0  0
  1  2  2  0
  2  3  1  0
  3  4  1  0
  4  5  2  0
  5  6  1  0
  6  7  2  0
  7  8  1  0
  8  9  1  0
  9 10  2  0
 10 11  1  0
 11 12  1  0
 12 13  2  0
 13 14  1  0
 14 15  2  0
 15 16  1  0
 16 17  1  0
 17 18  1  0
 18 19  1  0
 19 20  2  0
 20 21  1  0
 21 22  2  0
 22 23  1  0
 23 24  2  0
 16 25  2  0
  8 26  2  0
  2 27  1  0
 27 28  1  0
 28 29  2  0
 29 30  1  0
 30 31  2  0
 31 32  1  0
 32 33  2  0
 33 34  1  0
 26  4  1  0
 33 28  1  0
 25  9  1  0
 15 11  1  0
 24 19  1  0
  3 35  1  0
  5 36  1  0
  6 37  1  0
  7 38  1  0
 10 39  1  0
 12 40  1  0
 13 41  1  0
 17 42  1  0
 18 43  1  0
 18 44  1  0
 20 45  1  0
 21 46  1  0
 23 47  1  0
 24 48  1  0
 26 49  1  0
 27 50  1  0
 29 51  1  0
 30 52  1  0
 31 53  1  0
 32 54  1  0
M  END
>  <meeko>  (3) 
{"is_sidechain": [false], "free_energy": -8.739, "intermolecular_energy": -11.498, "internal_energy": -0.868}

$$$$
LIB_FXICKEZXEBWTBW__M_PUB_ALL__e8__s20260927
     RDKit          3D

 54 58  0  0  0  0  0  0  0  0999 V2000
    6.4480  -14.7140   -5.7170 O   0  0  0  0  0  0  0  0  0  0  0  0
    6.4610  -13.6970   -6.3960 C   0  0  0  0  0  0  0  0  0  0  0  0
    7.1760  -13.5380   -7.5750 N   0  0  0  0  0  0  0  0  0  0  0  0
    8.0860  -14.4440   -8.1620 C   0  0  0  0  0  0  0  0  0  0  0  0
    7.5710  -15.3500   -9.0960 C   0  0  0  0  0  0  0  0  0  0  0  0
    8.4060  -16.2750   -9.7240 C   0  0  0  0  0  0  0  0  0  0  0  0
    9.7660  -16.3020   -9.4190 C   0  0  0  0  0  0  0  0  0  0  0  0
   10.3100  -15.4090   -8.4850 C   0  0  0  0  0  0  0  0  0  0  0  0
   11.7640  -15.4530   -8.1890 C   0  0  0  0  0  0  0  0  0  0  0  0
   12.6540  -15.5390   -9.2010 C   0  0  0  0  0  0  0  0  0  0  0  0
   13.9960  -15.5650   -8.8900 N   0  0  0  0  0  0  0  0  0  0  0  0
   15.1220  -15.6480   -9.6630 C   0  0  0  0  0  0  0  0  0  0  0  0
   16.1730  -15.6290   -8.7690 C   0  0  0  0  0  0  0  0  0  0  0  0
   15.7240  -15.5330   -7.4730 N   0  0  0  0  0  0  0  0  0  0  0  0
   14.4120  -15.4980   -7.5900 C   0  0  0  0  0  0  0  0  0  0  0  0
   13.4210  -15.3960   -6.5340 C   0  0  0  0  0  0  0  0  0  0  0  0
   13.8110  -15.3240   -5.2210 N   0  0  0  0  0  0  0  0  0  0  0  0
   12.9020  -15.2460   -4.1110 C   0  0  0  0  0  0  0  0  0  0  0  0
   12.9930  -13.8800   -3.4800 C   0  0  0  0  0  0  0  0  0  0  0  0
   12.0750  -13.4810   -2.5040 C   0  0  0  0  0  0  0  0  0  0  0  0
   12.2170  -12.2250   -1.9360 C   0  0  0  0  0  0  0  0  0  0  0  0
   13.1970  -11.3580   -2.2630 N   0  0  0  0  0  0  0  0  0  0  0  0
   14.0830  -11.7680   -3.1960 C   0  0  0  0  0  0  0  0  0  0  0  0
   14.0260  -13.0030   -3.8220 C   0  0  0  0  0  0  0  0  0  0  0  0
   12.1460  -15.3690   -6.8520 N   0  0  0  0  0  0  0  0  0  0  0  0
    9.4540  -14.4730   -7.8750 C   0  0  0  0  0  0  0  0  0  0  0  0
    5.7560  -12.5410   -6.1030 N   0  0  0  0  0  0  0  0  0  0  0  0
    4.8630  -12.3030   -5.0290 C   0  0  0  0  0  0  0  0  0  0  0  0
    3.4760  -12.4310   -5.1370 C   0  0  0  0  0  0  0  0  0  0  0  0
    2.6490  -12.1790   -4.0350 C   0  0  0  0  0  0  0  0  0  0  0  0
    3.1980  -11.7930   -2.8140 C   0  0  0  0  0  0  0  0  0  0  0  0
    4.5780  -11.6580   -2.6900 C   0  0  0  0  0  0  0  0  0  0  0  0
    5.4030  -11.9110   -3.7890 C   0  0  0  0  0  0  0  0  0  0  0  0
    7.1140  -11.7250   -3.5820 Cl  0  0  0  0  0  0  0  0  0  0  0  0
    6.9830  -12.7040   -8.1090 H   0  0  0  0  0  0  0  0  0  0  0  0
    6.4979  -15.3328   -9.3374 H   0  0  0  0  0  0  0  0  0  0  0  0
    7.9918  -16.9815  -10.4583 H   0  0  0  0  0  0  0  0  0  0  0  0
   10.4202  -17.0327   -9.9171 H   0  0  0  0  0  0  0  0  0  0  0  0
   12.3162  -15.5871  -10.2468 H   0  0  0  0  0  0  0  0  0  0  0  0
   15.1774  -15.7153  -10.7595 H   0  0  0  0  0  0  0  0  0  0  0  0
   17.2334  -15.6836   -9.0562 H   0  0  0  0  0  0  0  0  0  0  0  0
   14.8100  -15.3540   -5.0380 H   0  0  0  0  0  0  0  0  0  0  0  0
   11.8751  -15.4181   -4.4656 H   0  0  0  0  0  0  0  0  0  0  0  0
   13.1668  -16.0114   -3.3666 H   0  0  0  0  0  0  0  0  0  0  0  0
   11.2581  -14.1492   -2.1938 H   0  0  0  0  0  0  0  0  0  0  0  0
   11.4870  -11.9168   -1.1730 H   0  0  0  0  0  0  0  0  0  0  0  0
   14.8966  -11.0823   -3.4751 H   0  0  0  0  0  0  0  0  0  0  0  0
   14.7783  -13.2872   -4.5726 H   0  0  0  0  0  0  0  0  0  0  0  0
    9.8697  -13.7497   -7.1580 H   0  0  0  0  0  0  0  0  0  0  0  0
    5.9140  -11.7400   -6.6970 H   0  0  0  0  0  0  0  0  0  0  0  0
    3.0294  -12.7324   -6.0960 H   0  0  0  0  0  0  0  0  0  0  0  0
    1.5588  -12.2866   -4.1342 H   0  0  0  0  0  0  0  0  0  0  0  0
    2.5439  -11.5958   -1.9518 H   0  0  0  0  0  0  0  0  0  0  0  0
    5.0179  -11.3529   -1.7291 H   0  0  0  0  0  0  0  0  0  0  0  0
  1  2  2  0
  2  3  1  0
  3  4  1  0
  4  5  2  0
  5  6  1  0
  6  7  2  0
  7  8  1  0
  8  9  1  0
  9 10  2  0
 10 11  1  0
 11 12  1  0
 12 13  2  0
 13 14  1  0
 14 15  2  0
 15 16  1  0
 16 17  1  0
 17 18  1  0
 18 19  1  0
 19 20  2  0
 20 21  1  0
 21 22  2  0
 22 23  1  0
 23 24  2  0
 16 25  2  0
  8 26  2  0
  2 27  1  0
 27 28  1  0
 28 29  2  0
 29 30  1  0
 30 31  2  0
 31 32  1  0
 32 33  2  0
 33 34  1  0
 26  4  1  0
 33 28  1  0
 25  9  1  0
 15 11  1  0
 24 19  1  0
  3 35  1  0
  5 36  1  0
  6 37  1  0
  7 38  1  0
 10 39  1  0
 12 40  1  0
 13 41  1  0
 17 42  1  0
 18 43  1  0
 18 44  1  0
 20 45  1  0
 21 46  1  0
 23 47  1  0
 24 48  1  0
 26 49  1  0
 27 50  1  0
 29 51  1  0
 30 52  1  0
 31 53  1  0
 32 54  1  0
M  END
>  <meeko>  (4) 
{"is_sidechain": [false], "free_energy": -8.621, "intermolecular_energy": -11.038, "internal_energy": -1.176}

$$$$
LIB_FXICKEZXEBWTBW__M_PUB_ALL__e8__s20260927
     RDKit          3D

 54 58  0  0  0  0  0  0  0  0999 V2000
    9.2340  -12.0870   -2.3380 O   0  0  0  0  0  0  0  0  0  0  0  0
    9.7110  -12.7140   -1.4020 C   0  0  0  0  0  0  0  0  0  0  0  0
    9.0090  -13.1150   -0.2740 N   0  0  0  0  0  0  0  0  0  0  0  0
    7.6750  -12.8050    0.0680 C   0  0  0  0  0  0  0  0  0  0  0  0
    7.4690  -12.1240    1.2730 C   0  0  0  0  0  0  0  0  0  0  0  0
    6.1800  -11.7760    1.6810 C   0  0  0  0  0  0  0  0  0  0  0  0
    5.0850  -12.1120    0.8850 C   0  0  0  0  0  0  0  0  0  0  0  0
    5.2620  -12.7970   -0.3240 C   0  0  0  0  0  0  0  0  0  0  0  0
    4.0790  -13.1300   -1.1580 C   0  0  0  0  0  0  0  0  0  0  0  0
    4.2360  -13.4100   -2.4690 C   0  0  0  0  0  0  0  0  0  0  0  0
    3.1170  -13.7250   -3.2090 N   0  0  0  0  0  0  0  0  0  0  0  0
    2.9420  -14.0470   -4.5260 C   0  0  0  0  0  0  0  0  0  0  0  0
    1.5860  -14.2600   -4.6670 C   0  0  0  0  0  0  0  0  0  0  0  0
    0.9260  -14.0800   -3.4740 N   0  0  0  0  0  0  0  0  0  0  0  0
    1.8820  -13.7600   -2.6250 C   0  0  0  0  0  0  0  0  0  0  0  0
    1.7600  -13.4620   -1.2090 C   0  0  0  0  0  0  0  0  0  0  0  0
    0.5330  -13.4940   -0.5970 N   0  0  0  0  0  0  0  0  0  0  0  0
    0.3140  -13.1900    0.7900 C   0  0  0  0  0  0  0  0  0  0  0  0
   -0.1840  -11.7730    0.9230 C   0  0  0  0  0  0  0  0  0  0  0  0
   -1.5450  -11.5080    1.0950 C   0  0  0  0  0  0  0  0  0  0  0  0
   -1.9510  -10.1910    1.2380 C   0  0  0  0  0  0  0  0  0  0  0  0
   -1.1060   -9.1380    1.2270 N   0  0  0  0  0  0  0  0  0  0  0  0
    0.2070   -9.4170    1.0750 C   0  0  0  0  0  0  0  0  0  0  0  0
    0.7100  -10.6990    0.9250 C   0  0  0  0  0  0  0  0  0  0  0  0
    2.8400  -13.1670   -0.5210 N   0  0  0  0  0  0  0  0  0  0  0  0
    6.5700  -13.1240   -0.7270 C   0  0  0  0  0  0  0  0  0  0  0  0
   11.0290  -13.1330   -1.3210 N   0  0  0  0  0  0  0  0  0  0  0  0
   12.0620  -12.9840   -2.2800 C   0  0  0  0  0  0  0  0  0  0  0  0
   12.1670  -13.7720   -3.4290 C   0  0  0  0  0  0  0  0  0  0  0  0
   13.2140  -13.5730   -4.3360 C   0  0  0  0  0  0  0  0  0  0  0  0
   14.1700  -12.5850   -4.1070 C   0  0  0  0  0  0  0  0  0  0  0  0
   14.0810  -11.7920   -2.9660 C   0  0  0  0  0  0  0  0  0  0  0  0
   13.0360  -11.9900   -2.0610 C   0  0  0  0  0  0  0  0  0  0  0  0
   12.9730  -10.9780   -0.6550 Cl  0  0  0  0  0  0  0  0  0  0  0  0
    9.4860  -13.7480    0.3500 H   0  0  0  0  0  0  0  0  0  0  0  0
    8.3304  -11.8605    1.9044 H   0  0  0  0  0  0  0  0  0  0  0  0
    6.0282  -11.2379    2.6283 H   0  0  0  0  0  0  0  0  0  0  0  0
    4.0711  -11.8360    1.2103 H   0  0  0  0  0  0  0  0  0  0  0  0
    5.2321  -13.3873   -2.9350 H   0  0  0  0  0  0  0  0  0  0  0  0
    3.7151  -14.1204   -5.3050 H   0  0  0  0  0  0  0  0  0  0  0  0
    1.0961  -14.5379   -5.6118 H   0  0  0  0  0  0  0  0  0  0  0  0
   -0.2650  -13.7240   -1.1830 H   0  0  0  0  0  0  0  0  0  0  0  0
   -0.4349  -13.8818    1.2029 H   0  0  0  0  0  0  0  0  0  0  0  0
    1.2590  -13.2992    1.3423 H   0  0  0  0  0  0  0  0  0  0  0  0
   -2.2785  -12.3274    1.1164 H   0  0  0  0  0  0  0  0  0  0  0  0
   -3.0249   -9.9916    1.3681 H   0  0  0  0  0  0  0  0  0  0  0  0
    0.9179   -8.5776    1.0701 H   0  0  0  0  0  0  0  0  0  0  0  0
    1.7908  -10.8681    0.8098 H   0  0  0  0  0  0  0  0  0  0  0  0
    6.7260  -13.6404   -1.6857 H   0  0  0  0  0  0  0  0  0  0  0  0
   11.3240  -13.5700   -0.4590 H   0  0  0  0  0  0  0  0  0  0  0  0
   11.4199  -14.5559   -3.6224 H   0  0  0  0  0  0  0  0  0  0  0  0
   13.2830  -14.2011   -5.2364 H   0  0  0  0  0  0  0  0  0  0  0  0
   14.9904  -12.4326   -4.8238 H   0  0  0  0  0  0  0  0  0  0  0  0
   14.8324  -11.0110   -2.7778 H   0  0  0  0  0  0  0  0  0  0  0  0
  1  2  2  0
  2  3  1  0
  3  4  1  0
  4  5  2  0
  5  6  1  0
  6  7  2  0
  7  8  1  0
  8  9  1  0
  9 10  2  0
 10 11  1  0
 11 12  1  0
 12 13  2  0
 13 14  1  0
 14 15  2  0
 15 16  1  0
 16 17  1  0
 17 18  1  0
 18 19  1  0
 19 20  2  0
 20 21  1  0
 21 22  2  0
 22 23  1  0
 23 24  2  0
 16 25  2  0
  8 26  2  0
  2 27  1  0
 27 28  1  0
 28 29  2  0
 29 30  1  0
 30 31  2  0
 31 32  1  0
 32 33  2  0
 33 34  1  0
 26  4  1  0
 33 28  1  0
 25  9  1  0
 15 11  1  0
 24 19  1  0
  3 35  1  0
  5 36  1  0
  6 37  1  0
  7 38  1  0
 10 39  1  0
 12 40  1  0
 13 41  1  0
 17 42  1  0
 18 43  1  0
 18 44  1  0
 20 45  1  0
 21 46  1  0
 23 47  1  0
 24 48  1  0
 26 49  1  0
 27 50  1  0
 29 51  1  0
 30 52  1  0
 31 53  1  0
 32 54  1  0
M  END
>  <meeko>  (5) 
{"is_sidechain": [false], "free_energy": -8.59, "intermolecular_energy": -11.186, "internal_energy": -0.987}

$$$$
LIB_FXICKEZXEBWTBW__M_PUB_ALL__e8__s20260927
     RDKit          3D

 54 58  0  0  0  0  0  0  0  0999 V2000
    6.8980  -10.7420   -0.8430 O   0  0  0  0  0  0  0  0  0  0  0  0
    6.8410  -11.9630   -0.8800 C   0  0  0  0  0  0  0  0  0  0  0  0
    5.7080  -12.6960   -1.2010 N   0  0  0  0  0  0  0  0  0  0  0  0
    4.4040  -12.2100   -1.4380 C   0  0  0  0  0  0  0  0  0  0  0  0
    4.0930  -11.8360   -2.7510 C   0  0  0  0  0  0  0  0  0  0  0  0
    2.8250  -11.3500   -3.0700 C   0  0  0  0  0  0  0  0  0  0  0  0
    1.8550  -11.2320   -2.0740 C   0  0  0  0  0  0  0  0  0  0  0  0
    2.1390  -11.5950   -0.7510 C   0  0  0  0  0  0  0  0  0  0  0  0
    1.0840  -11.4710    0.2860 C   0  0  0  0  0  0  0  0  0  0  0  0
    0.3380  -10.3480    0.3570 C   0  0  0  0  0  0  0  0  0  0  0  0
   -0.6400  -10.2730    1.3240 N   0  0  0  0  0  0  0  0  0  0  0  0
   -1.5400   -9.2970    1.6530 C   0  0  0  0  0  0  0  0  0  0  0  0
   -2.2570   -9.8120    2.7130 C   0  0  0  0  0  0  0  0  0  0  0  0
   -1.8240  -11.0760    3.0420 N   0  0  0  0  0  0  0  0  0  0  0  0
   -0.8520  -11.3130    2.1840 C   0  0  0  0  0  0  0  0  0  0  0  0
   -0.0340  -12.5070    2.0650 C   0  0  0  0  0  0  0  0  0  0  0  0
   -0.2280  -13.5680    2.9130 N   0  0  0  0  0  0  0  0  0  0  0  0
    0.5480  -14.7770    2.8850 C   0  0  0  0  0  0  0  0  0  0  0  0
   -0.3650  -15.9580    2.6790 C   0  0  0  0  0  0  0  0  0  0  0  0
   -0.7880  -16.3190    1.3970 C   0  0  0  0  0  0  0  0  0  0  0  0
   -1.6060  -17.4290    1.2570 C   0  0  0  0  0  0  0  0  0  0  0  0
   -2.0210  -18.1920    2.2890 N   0  0  0  0  0  0  0  0  0  0  0  0
   -1.5900  -17.8350    3.5180 C   0  0  0  0  0  0  0  0  0  0  0  0
   -0.7700  -16.7450    3.7610 C   0  0  0  0  0  0  0  0  0  0  0  0
    0.8910  -12.5600    1.1340 N   0  0  0  0  0  0  0  0  0  0  0  0
    3.4190  -12.1000   -0.4520 C   0  0  0  0  0  0  0  0  0  0  0  0
    7.9040  -12.8130   -0.6180 N   0  0  0  0  0  0  0  0  0  0  0  0
    9.2460  -12.4760   -0.3110 C   0  0  0  0  0  0  0  0  0  0  0  0
    9.6480  -11.9540    0.9210 C   0  0  0  0  0  0  0  0  0  0  0  0
   10.9910  -11.6410    1.1580 C   0  0  0  0  0  0  0  0  0  0  0  0
   11.9500  -11.8430    0.1670 C   0  0  0  0  0  0  0  0  0  0  0  0
   11.5670  -12.3610   -1.0680 C   0  0  0  0  0  0  0  0  0  0  0  0
   10.2260  -12.6740   -1.3040 C   0  0  0  0  0  0  0  0  0  0  0  0
    9.8010  -13.3120   -2.8590 Cl  0  0  0  0  0  0  0  0  0  0  0  0
    5.8370  -13.6880   -1.3360 H   0  0  0  0  0  0  0  0  0  0  0  0
    4.8558  -11.9263   -3.5384 H   0  0  0  0  0  0  0  0  0  0  0  0
    2.5902  -11.0603   -4.1049 H   0  0  0  0  0  0  0  0  0  0  0  0
    0.8560  -10.8496   -2.3305 H   0  0  0  0  0  0  0  0  0  0  0  0
    0.5070   -9.5139   -0.3399 H   0  0  0  0  0  0  0  0  0  0  0  0
   -1.6650   -8.3139    1.1756 H   0  0  0  0  0  0  0  0  0  0  0  0
   -3.0703   -9.2806    3.2289 H   0  0  0  0  0  0  0  0  0  0  0  0
   -0.9550  -13.4660    3.6150 H   0  0  0  0  0  0  0  0  0  0  0  0
    1.2741  -14.7271    2.0602 H   0  0  0  0  0  0  0  0  0  0  0  0
    1.0829  -14.8904    3.8395 H   0  0  0  0  0  0  0  0  0  0  0  0
   -0.4784  -15.7348    0.5179 H   0  0  0  0  0  0  0  0  0  0  0  0
   -1.9363  -17.7040    0.2445 H   0  0  0  0  0  0  0  0  0  0  0  0
   -1.9085  -18.4451    4.3761 H   0  0  0  0  0  0  0  0  0  0  0  0
   -0.4445  -16.5040    4.7837 H   0  0  0  0  0  0  0  0  0  0  0  0
    3.6483  -12.4139    0.5770 H   0  0  0  0  0  0  0  0  0  0  0  0
    7.7110  -13.8040   -0.6000 H   0  0  0  0  0  0  0  0  0  0  0  0
    8.9019  -11.7876    1.7119 H   0  0  0  0  0  0  0  0  0  0  0  0
   11.2922  -11.2324    2.1339 H   0  0  0  0  0  0  0  0  0  0  0  0
   13.0042  -11.5946    0.3592 H   0  0  0  0  0  0  0  0  0  0  0  0
   12.3181  -12.5231   -1.8551 H   0  0  0  0  0  0  0  0  0  0  0  0
  1  2  2  0
  2  3  1  0
  3  4  1  0
  4  5  2  0
  5  6  1  0
  6  7  2  0
  7  8  1  0
  8  9  1  0
  9 10  2  0
 10 11  1  0
 11 12  1  0
 12 13  2  0
 13 14  1  0
 14 15  2  0
 15 16  1  0
 16 17  1  0
 17 18  1  0
 18 19  1  0
 19 20  2  0
 20 21  1  0
 21 22  2  0
 22 23  1  0
 23 24  2  0
 16 25  2  0
  8 26  2  0
  2 27  1  0
 27 28  1  0
 28 29  2  0
 29 30  1  0
 30 31  2  0
 31 32  1  0
 32 33  2  0
 33 34  1  0
 26  4  1  0
 33 28  1  0
 25  9  1  0
 15 11  1  0
 24 19  1  0
  3 35  1  0
  5 36  1  0
  6 37  1  0
  7 38  1  0
 10 39  1  0
 12 40  1  0
 13 41  1  0
 17 42  1  0
 18 43  1  0
 18 44  1  0
 20 45  1  0
 21 46  1  0
 23 47  1  0
 24 48  1  0
 26 49  1  0
 27 50  1  0
 29 51  1  0
 30 52  1  0
 31 53  1  0
 32 54  1  0
M  END
>  <meeko>  (6) 
{"is_sidechain": [false], "free_energy": -8.526, "intermolecular_energy": -11.102, "internal_energy": -0.989}

$$$$
LIB_FXICKEZXEBWTBW__M_PUB_ALL__e8__s20260927
     RDKit          3D

 54 58  0  0  0  0  0  0  0  0999 V2000
    9.2290  -12.1400   -2.1860 O   0  0  0  0  0  0  0  0  0  0  0  0
    9.7850  -12.6790   -1.2390 C   0  0  0  0  0  0  0  0  0  0  0  0
    9.2050  -12.8960    0.0030 N   0  0  0  0  0  0  0  0  0  0  0  0
    7.9390  -12.4640    0.4530 C   0  0  0  0  0  0  0  0  0  0  0  0
    7.8320  -11.1310    0.8670 C   0  0  0  0  0  0  0  0  0  0  0  0
    6.6130  -10.6240    1.3200 C   0  0  0  0  0  0  0  0  0  0  0  0
    5.4910  -11.4490    1.3660 C   0  0  0  0  0  0  0  0  0  0  0  0
    5.5690  -12.7890    0.9610 C   0  0  0  0  0  0  0  0  0  0  0  0
    4.3540  -13.6410    1.0080 C   0  0  0  0  0  0  0  0  0  0  0  0
    4.4630  -14.9530    1.3060 C   0  0  0  0  0  0  0  0  0  0  0  0
    3.3130  -15.7110    1.3520 N   0  0  0  0  0  0  0  0  0  0  0  0
    3.0900  -17.0340    1.6150 C   0  0  0  0  0  0  0  0  0  0  0  0
    1.7230  -17.1950    1.5100 C   0  0  0  0  0  0  0  0  0  0  0  0
    1.1040  -16.0080    1.1940 N   0  0  0  0  0  0  0  0  0  0  0  0
    2.0950  -15.1440    1.1070 C   0  0  0  0  0  0  0  0  0  0  0  0
    2.0230  -13.7260    0.8000 C   0  0  0  0  0  0  0  0  0  0  0  0
    0.8110  -13.1310    0.5540 N   0  0  0  0  0  0  0  0  0  0  0  0
    0.6470  -11.7440    0.2180 C   0  0  0  0  0  0  0  0  0  0  0  0
   -0.3010  -11.0980    1.1960 C   0  0  0  0  0  0  0  0  0  0  0  0
   -0.9060   -9.8720    0.9010 C   0  0  0  0  0  0  0  0  0  0  0  0
   -1.7890   -9.3310    1.8220 C   0  0  0  0  0  0  0  0  0  0  0  0
   -2.1100   -9.9210    2.9920 N   0  0  0  0  0  0  0  0  0  0  0  0
   -1.5270  -11.1110    3.2510 C   0  0  0  0  0  0  0  0  0  0  0  0
   -0.6320  -11.7330    2.3960 C   0  0  0  0  0  0  0  0  0  0  0  0
    3.1310  -13.0210    0.7640 N   0  0  0  0  0  0  0  0  0  0  0  0
    6.8030  -13.2770    0.4900 C   0  0  0  0  0  0  0  0  0  0  0  0
   11.0800  -13.1690   -1.2560 N   0  0  0  0  0  0  0  0  0  0  0  0
   11.9950  -13.2020   -2.3380 C   0  0  0  0  0  0  0  0  0  0  0  0
   11.9130  -14.1160   -3.3910 C   0  0  0  0  0  0  0  0  0  0  0  0
   12.8520  -14.0950   -4.4290 C   0  0  0  0  0  0  0  0  0  0  0  0
   13.8860  -13.1610   -4.4270 C   0  0  0  0  0  0  0  0  0  0  0  0
   13.9840  -12.2430   -3.3850 C   0  0  0  0  0  0  0  0  0  0  0  0
   13.0470  -12.2640   -2.3490 C   0  0  0  0  0  0  0  0  0  0  0  0
   13.2160  -11.1020   -1.0740 Cl  0  0  0  0  0  0  0  0  0  0  0  0
    9.7220  -13.4790    0.6440 H   0  0  0  0  0  0  0  0  0  0  0  0
    8.7162  -10.4775    0.8350 H   0  0  0  0  0  0  0  0  0  0  0  0
    6.5381   -9.5743    1.6403 H   0  0  0  0  0  0  0  0  0  0  0  0
    4.5330  -11.0443    1.7242 H   0  0  0  0  0  0  0  0  0  0  0  0
    5.4451  -15.4058    1.5071 H   0  0  0  0  0  0  0  0  0  0  0  0
    3.8378  -17.8034    1.8577 H   0  0  0  0  0  0  0  0  0  0  0  0
    1.1967  -18.1493    1.6597 H   0  0  0  0  0  0  0  0  0  0  0  0
   -0.0090  -13.7290    0.5910 H   0  0  0  0  0  0  0  0  0  0  0  0
    1.6225  -11.2378    0.2643 H   0  0  0  0  0  0  0  0  0  0  0  0
    0.2375  -11.6595   -0.7994 H   0  0  0  0  0  0  0  0  0  0  0  0
   -0.6858   -9.3487   -0.0412 H   0  0  0  0  0  0  0  0  0  0  0  0
   -2.2556   -8.3635    1.5851 H   0  0  0  0  0  0  0  0  0  0  0  0
   -1.7772  -11.6158    4.1957 H   0  0  0  0  0  0  0  0  0  0  0  0
   -0.1910  -12.7065    2.6563 H   0  0  0  0  0  0  0  0  0  0  0  0
    6.8742  -14.3188    0.1443 H   0  0  0  0  0  0  0  0  0  0  0  0
   11.4550  -13.5170   -0.3850 H   0  0  0  0  0  0  0  0  0  0  0  0
   11.1026  -14.8596   -3.4048 H   0  0  0  0  0  0  0  0  0  0  0  0
   12.7730  -14.8208   -5.2518 H   0  0  0  0  0  0  0  0  0  0  0  0
   14.6214  -13.1491   -5.2449 H   0  0  0  0  0  0  0  0  0  0  0  0
   14.7975  -11.5026   -3.3774 H   0  0  0  0  0  0  0  0  0  0  0  0
  1  2  2  0
  2  3  1  0
  3  4  1  0
  4  5  2  0
  5  6  1  0
  6  7  2  0
  7  8  1  0
  8  9  1  0
  9 10  2  0
 10 11  1  0
 11 12  1  0
 12 13  2  0
 13 14  1  0
 14 15  2  0
 15 16  1  0
 16 17  1  0
 17 18  1  0
 18 19  1  0
 19 20  2  0
 20 21  1  0
 21 22  2  0
 22 23  1  0
 23 24  2  0
 16 25  2  0
  8 26  2  0
  2 27  1  0
 27 28  1  0
 28 29  2  0
 29 30  1  0
 30 31  2  0
 31 32  1  0
 32 33  2  0
 33 34  1  0
 26  4  1  0
 33 28  1  0
 25  9  1  0
 15 11  1  0
 24 19  1  0
  3 35  1  0
  5 36  1  0
  6 37  1  0
  7 38  1  0
 10 39  1  0
 12 40  1  0
 13 41  1  0
 17 42  1  0
 18 43  1  0
 18 44  1  0
 20 45  1  0
 21 46  1  0
 23 47  1  0
 24 48  1  0
 26 49  1  0
 27 50  1  0
 29 51  1  0
 30 52  1  0
 31 53  1  0
 32 54  1  0
M  END
>  <meeko>  (7) 
{"is_sidechain": [false], "free_energy": -8.474, "intermolecular_energy": -11.054, "internal_energy": -0.97}

$$$$
LIB_FXICKEZXEBWTBW__M_PUB_ALL__e8__s20260927
     RDKit          3D

 54 58  0  0  0  0  0  0  0  0999 V2000
    9.2800  -12.1720   -2.3290 O   0  0  0  0  0  0  0  0  0  0  0  0
    9.7770  -12.6990   -1.3430 C   0  0  0  0  0  0  0  0  0  0  0  0
    9.0800  -13.0600   -0.1990 N   0  0  0  0  0  0  0  0  0  0  0  0
    7.7240  -12.8100    0.1010 C   0  0  0  0  0  0  0  0  0  0  0  0
    7.4500  -12.1390    1.2980 C   0  0  0  0  0  0  0  0  0  0  0  0
    6.1350  -11.8490    1.6650 C   0  0  0  0  0  0  0  0  0  0  0  0
    5.0810  -12.2320    0.8360 C   0  0  0  0  0  0  0  0  0  0  0  0
    5.3260  -12.9090   -0.3670 C   0  0  0  0  0  0  0  0  0  0  0  0
    4.1850  -13.2930   -1.2370 C   0  0  0  0  0  0  0  0  0  0  0  0
    3.1850  -14.0520   -0.7400 C   0  0  0  0  0  0  0  0  0  0  0  0
    2.1370  -14.3790   -1.5720 N   0  0  0  0  0  0  0  0  0  0  0  0
    1.0010  -15.1160   -1.3810 C   0  0  0  0  0  0  0  0  0  0  0  0
    0.3420  -15.0810   -2.5920 C   0  0  0  0  0  0  0  0  0  0  0  0
    1.0400  -14.3420   -3.5190 N   0  0  0  0  0  0  0  0  0  0  0  0
    2.1120  -13.9400   -2.8660 C   0  0  0  0  0  0  0  0  0  0  0  0
    3.2030  -13.1170   -3.3560 C   0  0  0  0  0  0  0  0  0  0  0  0
    3.2000  -12.6590   -4.6500 N   0  0  0  0  0  0  0  0  0  0  0  0
    4.2470  -11.8630   -5.2270 C   0  0  0  0  0  0  0  0  0  0  0  0
    5.1090  -12.7280   -6.1100 C   0  0  0  0  0  0  0  0  0  0  0  0
    5.4250  -12.3290   -7.4120 C   0  0  0  0  0  0  0  0  0  0  0  0
    6.2420  -13.1460   -8.1760 C   0  0  0  0  0  0  0  0  0  0  0  0
    6.7610  -14.3120   -7.7370 N   0  0  0  0  0  0  0  0  0  0  0  0
    6.4570  -14.6730   -6.4720 C   0  0  0  0  0  0  0  0  0  0  0  0
    5.6500  -13.9240   -5.6300 C   0  0  0  0  0  0  0  0  0  0  0  0
    4.1910  -12.8140   -2.5450 N   0  0  0  0  0  0  0  0  0  0  0  0
    6.6600  -13.1760   -0.7280 C   0  0  0  0  0  0  0  0  0  0  0  0
   11.1170  -13.0280   -1.2140 N   0  0  0  0  0  0  0  0  0  0  0  0
   12.1550  -12.8850   -2.1670 C   0  0  0  0  0  0  0  0  0  0  0  0
   12.3040  -13.7190   -3.2770 C   0  0  0  0  0  0  0  0  0  0  0  0
   13.3550  -13.5230   -4.1810 C   0  0  0  0  0  0  0  0  0  0  0  0
   14.2720  -12.4920   -3.9850 C   0  0  0  0  0  0  0  0  0  0  0  0
   14.1400  -11.6520   -2.8820 C   0  0  0  0  0  0  0  0  0  0  0  0
   13.0910  -11.8480   -1.9810 C   0  0  0  0  0  0  0  0  0  0  0  0
   12.9740  -10.7770   -0.6230 Cl  0  0  0  0  0  0  0  0  0  0  0  0
    9.5830  -13.6150    0.4770 H   0  0  0  0  0  0  0  0  0  0  0  0
    8.2785  -11.8373    1.9557 H   0  0  0  0  0  0  0  0  0  0  0  0
    5.9302  -11.3190    2.6069 H   0  0  0  0  0  0  0  0  0  0  0  0
    4.0464  -12.0005    1.1291 H   0  0  0  0  0  0  0  0  0  0  0  0
    3.2067  -14.4005    0.3031 H   0  0  0  0  0  0  0  0  0  0  0  0
    0.6818  -15.6265   -0.4604 H   0  0  0  0  0  0  0  0  0  0  0  0
   -0.6180  -15.5797   -2.7910 H   0  0  0  0  0  0  0  0  0  0  0  0
    2.4110  -12.9320   -5.2290 H   0  0  0  0  0  0  0  0  0  0  0  0
    3.8042  -11.0540   -5.8265 H   0  0  0  0  0  0  0  0  0  0  0  0
    4.8628  -11.4308   -4.4245 H   0  0  0  0  0  0  0  0  0  0  0  0
    5.0331  -11.3861   -7.8212 H   0  0  0  0  0  0  0  0  0  0  0  0
    6.4819  -12.8257   -9.2006 H   0  0  0  0  0  0  0  0  0  0  0  0
    6.8737  -15.6156   -6.0875 H   0  0  0  0  0  0  0  0  0  0  0  0
    5.4397  -14.2638   -4.6052 H   0  0  0  0  0  0  0  0  0  0  0  0
    6.8693  -13.6828   -1.6816 H   0  0  0  0  0  0  0  0  0  0  0  0
   11.4210  -13.3830   -0.3180 H   0  0  0  0  0  0  0  0  0  0  0  0
   11.5886  -14.5380   -3.4428 H   0  0  0  0  0  0  0  0  0  0  0  0
   13.4576  -14.1872   -5.0518 H   0  0  0  0  0  0  0  0  0  0  0  0
   15.0961  -12.3424   -4.6981 H   0  0  0  0  0  0  0  0  0  0  0  0
   14.8601  -10.8362   -2.7209 H   0  0  0  0  0  0  0  0  0  0  0  0
  1  2  2  0
  2  3  1  0
  3  4  1  0
  4  5  2  0
  5  6  1  0
  6  7  2  0
  7  8  1  0
  8  9  1  0
  9 10  2  0
 10 11  1  0
 11 12  1  0
 12 13  2  0
 13 14  1  0
 14 15  2  0
 15 16  1  0
 16 17  1  0
 17 18  1  0
 18 19  1  0
 19 20  2  0
 20 21  1  0
 21 22  2  0
 22 23  1  0
 23 24  2  0
 16 25  2  0
  8 26  2  0
  2 27  1  0
 27 28  1  0
 28 29  2  0
 29 30  1  0
 30 31  2  0
 31 32  1  0
 32 33  2  0
 33 34  1  0
 26  4  1  0
 33 28  1  0
 25  9  1  0
 15 11  1  0
 24 19  1  0
  3 35  1  0
  5 36  1  0
  6 37  1  0
  7 38  1  0
 10 39  1  0
 12 40  1  0
 13 41  1  0
 17 42  1  0
 18 43  1  0
 18 44  1  0
 20 45  1  0
 21 46  1  0
 23 47  1  0
 24 48  1  0
 26 49  1  0
 27 50  1  0
 29 51  1  0
 30 52  1  0
 31 53  1  0
 32 54  1  0
M  END
>  <meeko>  (8) 
{"is_sidechain": [false], "free_energy": -8.464, "intermolecular_energy": -11.059, "internal_energy": -0.951}

$$$$
LIB_FXICKEZXEBWTBW__M_PUB_ALL__e8__s20260927
     RDKit          3D

 54 58  0  0  0  0  0  0  0  0999 V2000
    7.0060  -10.7440   -1.5940 O   0  0  0  0  0  0  0  0  0  0  0  0
    6.8670  -11.9550   -1.6960 C   0  0  0  0  0  0  0  0  0  0  0  0
    5.6670  -12.5970   -1.9660 N   0  0  0  0  0  0  0  0  0  0  0  0
    4.3830  -12.0200   -2.0710 C   0  0  0  0  0  0  0  0  0  0  0  0
    4.0410  -11.4510   -3.3030 C   0  0  0  0  0  0  0  0  0  0  0  0
    2.7890  -10.8640   -3.4910 C   0  0  0  0  0  0  0  0  0  0  0  0
    1.8690  -10.8380   -2.4440 C   0  0  0  0  0  0  0  0  0  0  0  0
    2.1860  -11.3970   -1.1980 C   0  0  0  0  0  0  0  0  0  0  0  0
    1.1820  -11.3680   -0.1040 C   0  0  0  0  0  0  0  0  0  0  0  0
    0.3050  -10.3440   -0.0220 C   0  0  0  0  0  0  0  0  0  0  0  0
   -0.6200  -10.3560    0.9990 N   0  0  0  0  0  0  0  0  0  0  0  0
   -1.6170   -9.4890    1.3510 C   0  0  0  0  0  0  0  0  0  0  0  0
   -2.2030  -10.0510    2.4670 C   0  0  0  0  0  0  0  0  0  0  0  0
   -1.5960  -11.2370    2.8060 N   0  0  0  0  0  0  0  0  0  0  0  0
   -0.6500  -11.3830    1.9000 C   0  0  0  0  0  0  0  0  0  0  0  0
    0.3040  -12.4690    1.7680 C   0  0  0  0  0  0  0  0  0  0  0  0
    0.2930  -13.5140    2.6560 N   0  0  0  0  0  0  0  0  0  0  0  0
    1.2130  -14.6160    2.6180 C   0  0  0  0  0  0  0  0  0  0  0  0
    1.1690  -15.3550    3.9310 C   0  0  0  0  0  0  0  0  0  0  0  0
    0.7750  -14.7050    5.1040 C   0  0  0  0  0  0  0  0  0  0  0  0
    0.7260  -15.4340    6.2820 C   0  0  0  0  0  0  0  0  0  0  0  0
    1.0330  -16.7450    6.3670 N   0  0  0  0  0  0  0  0  0  0  0  0
    1.3980  -17.3590    5.2210 C   0  0  0  0  0  0  0  0  0  0  0  0
    1.4760  -16.7170    3.9950 C   0  0  0  0  0  0  0  0  0  0  0  0
    1.1760  -12.4400    0.7850 N   0  0  0  0  0  0  0  0  0  0  0  0
    3.4470  -12.0000   -1.0330 C   0  0  0  0  0  0  0  0  0  0  0  0
    7.8890  -12.8810   -1.5670 N   0  0  0  0  0  0  0  0  0  0  0  0
    9.2690  -12.6460   -1.3490 C   0  0  0  0  0  0  0  0  0  0  0  0
   10.2320  -12.7090   -2.3600 C   0  0  0  0  0  0  0  0  0  0  0  0
   11.5810  -12.4670   -2.0760 C   0  0  0  0  0  0  0  0  0  0  0  0
   11.9860  -12.1600   -0.7790 C   0  0  0  0  0  0  0  0  0  0  0  0
   11.0410  -12.0950    0.2410 C   0  0  0  0  0  0  0  0  0  0  0  0
    9.6940  -12.3360   -0.0420 C   0  0  0  0  0  0  0  0  0  0  0  0
    8.5590  -12.2460    1.2640 Cl  0  0  0  0  0  0  0  0  0  0  0  0
    5.7210  -13.5840   -2.1660 H   0  0  0  0  0  0  0  0  0  0  0  0
    4.7655  -11.4666   -4.1305 H   0  0  0  0  0  0  0  0  0  0  0  0
    2.5284  -10.4224   -4.4642 H   0  0  0  0  0  0  0  0  0  0  0  0
    0.8836  -10.3738   -2.5971 H   0  0  0  0  0  0  0  0  0  0  0  0
    0.3287   -9.5214   -0.7519 H   0  0  0  0  0  0  0  0  0  0  0  0
   -1.8923   -8.5477    0.8528 H   0  0  0  0  0  0  0  0  0  0  0  0
   -3.0472   -9.6070    3.0148 H   0  0  0  0  0  0  0  0  0  0  0  0
   -0.4010  -13.4770    3.3970 H   0  0  0  0  0  0  0  0  0  0  0  0
    0.9323  -15.2996    1.8032 H   0  0  0  0  0  0  0  0  0  0  0  0
    2.2311  -14.2370    2.4454 H   0  0  0  0  0  0  0  0  0  0  0  0
    0.5094  -13.6376    5.0926 H   0  0  0  0  0  0  0  0  0  0  0  0
    0.4189  -14.9133    7.2010 H   0  0  0  0  0  0  0  0  0  0  0  0
    1.6476  -18.4295    5.2628 H   0  0  0  0  0  0  0  0  0  0  0  0
    1.7735  -17.2683    3.0908 H   0  0  0  0  0  0  0  0  0  0  0  0
    3.7008  -12.4644   -0.0687 H   0  0  0  0  0  0  0  0  0  0  0  0
    7.6340  -13.8580   -1.5890 H   0  0  0  0  0  0  0  0  0  0  0  0
    9.9268  -12.9511   -3.3887 H   0  0  0  0  0  0  0  0  0  0  0  0
   12.3268  -12.5196   -2.8829 H   0  0  0  0  0  0  0  0  0  0  0  0
   13.0475  -11.9699   -0.5619 H   0  0  0  0  0  0  0  0  0  0  0  0
   11.3540  -11.8544    1.2677 H   0  0  0  0  0  0  0  0  0  0  0  0
  1  2  2  0
  2  3  1  0
  3  4  1  0
  4  5  2  0
  5  6  1  0
  6  7  2  0
  7  8  1  0
  8  9  1  0
  9 10  2  0
 10 11  1  0
 11 12  1  0
 12 13  2  0
 13 14  1  0
 14 15  2  0
 15 16  1  0
 16 17  1  0
 17 18  1  0
 18 19  1  0
 19 20  2  0
 20 21  1  0
 21 22  2  0
 22 23  1  0
 23 24  2  0
 16 25  2  0
  8 26  2  0
  2 27  1  0
 27 28  1  0
 28 29  2  0
 29 30  1  0
 30 31  2  0
 31 32  1  0
 32 33  2  0
 33 34  1  0
 26  4  1  0
 33 28  1  0
 25  9  1  0
 15 11  1  0
 24 19  1  0
  3 35  1  0
  5 36  1  0
  6 37  1  0
  7 38  1  0
 10 39  1  0
 12 40  1  0
 13 41  1  0
 17 42  1  0
 18 43  1  0
 18 44  1  0
 20 45  1  0
 21 46  1  0
 23 47  1  0
 24 48  1  0
 26 49  1  0
 27 50  1  0
 29 51  1  0
 30 52  1  0
 31 53  1  0
 32 54  1  0
M  END
>  <meeko>  (9) 
{"is_sidechain": [false], "free_energy": -8.419, "intermolecular_energy": -11.073, "internal_energy": -0.879}

$$$$
