LIB_YJKUGONIJWVAHM__M_PUB_ALL__e8__s20260927
     RDKit          3D

 49 51  0  0  0  0  0  0  0  0999 V2000
   -3.0090   -9.9390    0.4380 C   0  0  0  0  0  0  0  0  0  0  0  0
   -2.0490  -10.3300    1.5760 C   0  0  0  0  0  0  0  0  0  0  0  0
   -1.8710   -9.1330    2.5270 C   0  0  0  0  0  0  0  0  0  0  0  0
   -2.6740  -11.4930    2.3650 C   0  0  0  0  0  0  0  0  0  0  0  0
   -0.7160  -10.7240    1.0020 C   0  0  0  0  0  0  0  0  0  0  0  0
   -0.2730  -11.7220    0.1640 C   0  0  0  0  0  0  0  0  0  0  0  0
    1.1150  -11.5020    0.0370 C   0  0  0  0  0  0  0  0  0  0  0  0
    2.0580  -12.2010   -0.6830 N   0  0  0  0  0  0  0  0  0  0  0  0
    2.4610  -11.9100   -1.9700 C   0  0  0  0  0  0  0  0  0  0  0  0
    2.0190  -10.9780   -2.6310 O   0  0  0  0  0  0  0  0  0  0  0  0
    3.4230  -12.8100   -2.4010 N   0  0  0  0  0  0  0  0  0  0  0  0
    4.0820  -12.8430   -3.6460 C   0  0  0  0  0  0  0  0  0  0  0  0
    3.4910  -13.2570   -4.8380 C   0  0  0  0  0  0  0  0  0  0  0  0
    4.2240  -13.2560   -6.0340 C   0  0  0  0  0  0  0  0  0  0  0  0
    5.5590  -12.8400   -6.0590 C   0  0  0  0  0  0  0  0  0  0  0  0
    6.2230  -12.8770   -7.3030 N   0  0  0  0  0  0  0  0  0  0  0  0
    6.8560  -13.9610   -7.8810 C   0  0  0  0  0  0  0  0  0  0  0  0
    7.0310  -15.0660   -7.3810 O   0  0  0  0  0  0  0  0  0  0  0  0
    7.4110  -13.7150   -9.2390 C   0  0  0  0  0  0  0  0  0  0  0  0
    8.7890  -13.5420   -9.3730 C   0  0  0  0  0  0  0  0  0  0  0  0
    9.2940  -13.3170  -10.6390 C   0  0  0  0  0  0  0  0  0  0  0  0
    8.5290  -13.2640  -11.7500 N   0  0  0  0  0  0  0  0  0  0  0  0
    7.2030  -13.4610  -11.5950 C   0  0  0  0  0  0  0  0  0  0  0  0
    6.5970  -13.6890  -10.3730 C   0  0  0  0  0  0  0  0  0  0  0  0
    6.1510  -12.4300   -4.8670 C   0  0  0  0  0  0  0  0  0  0  0  0
    5.4190  -12.4300   -3.6720 C   0  0  0  0  0  0  0  0  0  0  0  0
    1.4950  -10.4370    0.7510 N   0  0  0  0  0  0  0  0  0  0  0  0
    0.3520   -9.9520    1.3530 O   0  0  0  0  0  0  0  0  0  0  0  0
   -3.9477   -9.5567    0.8653 H   0  0  0  0  0  0  0  0  0  0  0  0
   -2.5439   -9.1587   -0.1823 H   0  0  0  0  0  0  0  0  0  0  0  0
   -3.2214  -10.8223   -0.1823 H   0  0  0  0  0  0  0  0  0  0  0  0
   -1.9228   -9.4817    3.5690 H   0  0  0  0  0  0  0  0  0  0  0  0
   -0.8931   -8.6630    2.3458 H   0  0  0  0  0  0  0  0  0  0  0  0
   -2.6698   -8.3988    2.3458 H   0  0  0  0  0  0  0  0  0  0  0  0
   -2.5712  -11.3016    3.4433 H   0  0  0  0  0  0  0  0  0  0  0  0
   -3.7401  -11.5794    2.1080 H   0  0  0  0  0  0  0  0  0  0  0  0
   -2.1578  -12.4297    2.1080 H   0  0  0  0  0  0  0  0  0  0  0  0
   -0.8707  -12.5177   -0.3046 H   0  0  0  0  0  0  0  0  0  0  0  0
    2.4520  -12.9780   -0.1790 H   0  0  0  0  0  0  0  0  0  0  0  0
    3.6860  -13.5320   -1.7480 H   0  0  0  0  0  0  0  0  0  0  0  0
    2.4417  -13.5871   -4.8412 H   0  0  0  0  0  0  0  0  0  0  0  0
    3.7418  -13.5872   -6.9656 H   0  0  0  0  0  0  0  0  0  0  0  0
    6.2720  -11.9950   -7.7950 H   0  0  0  0  0  0  0  0  0  0  0  0
    9.4531  -13.5835   -8.4971 H   0  0  0  0  0  0  0  0  0  0  0  0
   10.3791  -13.1731  -10.7478 H   0  0  0  0  0  0  0  0  0  0  0  0
    6.5674  -13.4390  -12.4925 H   0  0  0  0  0  0  0  0  0  0  0  0
    5.5107  -13.8446  -10.2971 H   0  0  0  0  0  0  0  0  0  0  0  0
    7.2014  -12.1036   -4.8635 H   0  0  0  0  0  0  0  0  0  0  0  0
    5.9025  -12.1005   -2.7405 H   0  0  0  0  0  0  0  0  0  0  0  0
  1  2  1  0
  2  3  1  0
  2  4  1  0
  2  5  1  0
  5  6  2  0
  6  7  1  0
  7  8  1  0
  8  9  1  0
  9 10  2  0
  9 11  1  0
 11 12  1  0
 12 13  2  0
 13 14  1  0
 14 15  2  0
 15 16  1  0
 16 17  1  0
 17 18  2  0
 17 19  1  0
 19 20  2  0
 20 21  1  0
 21 22  2  0
 22 23  1  0
 23 24  2  0
 15 25  1  0
 25 26  2  0
  7 27  2  0
 27 28  1  0
 28  5  1  0
 26 12  1  0
 24 19  1  0
  1 29  1  0
  1 30  1  0
  1 31  1  0
  3 32  1  0
  3 33  1  0
  3 34  1  0
  4 35  1  0
  4 36  1  0
  4 37  1  0
  6 38  1  0
  8 39  1  0
 11 40  1  0
 13 41  1  0
 14 42  1  0
 16 43  1  0
 20 44  1  0
 21 45  1  0
 23 46  1  0
 24 47  1  0
 25 48  1  0
 26 49  1  0
M  END
>  <meeko>  (1) 
{"is_sidechain": [false], "free_energy": -7.531, "intermolecular_energy": -9.732, "internal_energy": -0.731}

$$$$
LIB_YJKUGONIJWVAHM__M_PUB_ALL__e8__s20260927
     RDKit          3D

 49 51  0  0  0  0  0  0  0  0999 V2000
   -3.5850  -14.2170    0.1240 C   0  0  0  0  0  0  0  0  0  0  0  0
   -3.4050  -12.7900    0.6720 C   0  0  0  0  0  0  0  0  0  0  0  0
   -3.9690  -11.7790   -0.3420 C   0  0  0  0  0  0  0  0  0  0  0  0
   -4.2030  -12.6660    1.9820 C   0  0  0  0  0  0  0  0  0  0  0  0
   -1.9440  -12.5160    0.9030 C   0  0  0  0  0  0  0  0  0  0  0  0
   -0.8230  -13.2940    1.0770 C   0  0  0  0  0  0  0  0  0  0  0  0
    0.2350  -12.3770    1.2480 C   0  0  0  0  0  0  0  0  0  0  0  0
    1.5770  -12.6050    1.4580 N   0  0  0  0  0  0  0  0  0  0  0  0
    2.5890  -12.3090    0.5680 C   0  0  0  0  0  0  0  0  0  0  0  0
    2.4070  -11.7990   -0.5310 O   0  0  0  0  0  0  0  0  0  0  0  0
    3.8230  -12.6670    1.0890 N   0  0  0  0  0  0  0  0  0  0  0  0
    5.0900  -12.5210    0.4900 C   0  0  0  0  0  0  0  0  0  0  0  0
    5.5470  -13.2860   -0.5810 C   0  0  0  0  0  0  0  0  0  0  0  0
    6.8250  -13.0710   -1.1160 C   0  0  0  0  0  0  0  0  0  0  0  0
    7.6680  -12.0860   -0.5910 C   0  0  0  0  0  0  0  0  0  0  0  0
    8.9400  -11.9410   -1.1840 N   0  0  0  0  0  0  0  0  0  0  0  0
   10.1150  -12.5640   -0.8070 C   0  0  0  0  0  0  0  0  0  0  0  0
   10.2860  -13.2900    0.1650 O   0  0  0  0  0  0  0  0  0  0  0  0
   11.2890  -12.2670   -1.6700 C   0  0  0  0  0  0  0  0  0  0  0  0
   11.2000  -12.5510   -3.0330 C   0  0  0  0  0  0  0  0  0  0  0  0
   12.2960  -12.2680   -3.8260 C   0  0  0  0  0  0  0  0  0  0  0  0
   13.4390  -11.7270   -3.3560 N   0  0  0  0  0  0  0  0  0  0  0  0
   13.4880  -11.4370   -2.0390 C   0  0  0  0  0  0  0  0  0  0  0  0
   12.4500  -11.6840   -1.1590 C   0  0  0  0  0  0  0  0  0  0  0  0
    7.2130  -11.3240    0.4820 C   0  0  0  0  0  0  0  0  0  0  0  0
    5.9360  -11.5380    1.0160 C   0  0  0  0  0  0  0  0  0  0  0  0
   -0.2120  -11.1190    1.1820 N   0  0  0  0  0  0  0  0  0  0  0  0
   -1.5730  -11.2060    0.9670 O   0  0  0  0  0  0  0  0  0  0  0  0
   -3.6741  -14.9233    0.9626 H   0  0  0  0  0  0  0  0  0  0  0  0
   -4.4959  -14.2614   -0.4911 H   0  0  0  0  0  0  0  0  0  0  0  0
   -2.7137  -14.4862   -0.4911 H   0  0  0  0  0  0  0  0  0  0  0  0
   -4.4363  -10.9414    0.1966 H   0  0  0  0  0  0  0  0  0  0  0  0
   -3.1526  -11.3989   -0.9737 H   0  0  0  0  0  0  0  0  0  0  0  0
   -4.7213  -12.2741   -0.9737 H   0  0  0  0  0  0  0  0  0  0  0  0
   -3.5208  -12.7720    2.8384 H   0  0  0  0  0  0  0  0  0  0  0  0
   -4.6914  -11.6812    2.0220 H   0  0  0  0  0  0  0  0  0  0  0  0
   -4.9672  -13.4562    2.0220 H   0  0  0  0  0  0  0  0  0  0  0  0
   -0.7644  -14.3924    1.0818 H   0  0  0  0  0  0  0  0  0  0  0  0
    1.7770  -13.0230    2.3520 H   0  0  0  0  0  0  0  0  0  0  0  0
    3.8190  -13.0840    2.0070 H   0  0  0  0  0  0  0  0  0  0  0  0
    4.8999  -14.0650   -1.0103 H   0  0  0  0  0  0  0  0  0  0  0  0
    7.1696  -13.6857   -1.9606 H   0  0  0  0  0  0  0  0  0  0  0  0
    8.9920  -11.2720   -1.9400 H   0  0  0  0  0  0  0  0  0  0  0  0
   10.2861  -12.9866   -3.4631 H   0  0  0  0  0  0  0  0  0  0  0  0
   12.2328  -12.4966   -4.9001 H   0  0  0  0  0  0  0  0  0  0  0  0
   14.4058  -10.9780   -1.6428 H   0  0  0  0  0  0  0  0  0  0  0  0
   12.5363  -11.4296   -0.0923 H   0  0  0  0  0  0  0  0  0  0  0  0
    7.8618  -10.5477    0.9137 H   0  0  0  0  0  0  0  0  0  0  0  0
    5.5928  -10.9241    1.8617 H   0  0  0  0  0  0  0  0  0  0  0  0
  1  2  1  0
  2  3  1  0
  2  4  1  0
  2  5  1  0
  5  6  2  0
  6  7  1  0
  7  8  1  0
  8  9  1  0
  9 10  2  0
  9 11  1  0
 11 12  1  0
 12 13  2  0
 13 14  1  0
 14 15  2  0
 15 16  1  0
 16 17  1  0
 17 18  2  0
 17 19  1  0
 19 20  2  0
 20 21  1  0
 21 22  2  0
 22 23  1  0
 23 24  2  0
 15 25  1  0
 25 26  2  0
  7 27  2  0
 27 28  1  0
 28  5  1  0
 26 12  1  0
 24 19  1  0
  1 29  1  0
  1 30  1  0
  1 31  1  0
  3 32  1  0
  3 33  1  0
  3 34  1  0
  4 35  1  0
  4 36  1  0
  4 37  1  0
  6 38  1  0
  8 39  1  0
 11 40  1  0
 13 41  1  0
 14 42  1  0
 16 43  1  0
 20 44  1  0
 21 45  1  0
 23 46  1  0
 24 47  1  0
 25 48  1  0
 26 49  1  0
M  END
>  <meeko>  (2) 
{"is_sidechain": [false], "free_energy": -7.52, "intermolecular_energy": -9.8, "internal_energy": -0.65}

$$$$
LIB_YJKUGONIJWVAHM__M_PUB_ALL__e8__s20260927
     RDKit          3D

 49 51  0  0  0  0  0  0  0  0999 V2000
   -3.3640  -14.1270    0.3610 C   0  0  0  0  0  0  0  0  0  0  0  0
   -1.9050  -13.8170    0.7430 C   0  0  0  0  0  0  0  0  0  0  0  0
   -1.7370  -12.2970    0.9230 C   0  0  0  0  0  0  0  0  0  0  0  0
   -1.5940  -14.5050    2.0840 C   0  0  0  0  0  0  0  0  0  0  0  0
   -0.9820  -14.3050   -0.3390 C   0  0  0  0  0  0  0  0  0  0  0  0
    0.3640  -14.1870   -0.5980 C   0  0  0  0  0  0  0  0  0  0  0  0
    0.5690  -14.8990   -1.7990 C   0  0  0  0  0  0  0  0  0  0  0  0
    1.7260  -15.1080   -2.5160 N   0  0  0  0  0  0  0  0  0  0  0  0
    2.2080  -14.2880   -3.5140 C   0  0  0  0  0  0  0  0  0  0  0  0
    1.6540  -13.2590   -3.8840 O   0  0  0  0  0  0  0  0  0  0  0  0
    3.3940  -14.7860   -4.0320 N   0  0  0  0  0  0  0  0  0  0  0  0
    4.1920  -14.2340   -5.0540 C   0  0  0  0  0  0  0  0  0  0  0  0
    3.8740  -13.0770   -5.7610 C   0  0  0  0  0  0  0  0  0  0  0  0
    4.7290  -12.5990   -6.7650 C   0  0  0  0  0  0  0  0  0  0  0  0
    5.9170  -13.2680   -7.0780 C   0  0  0  0  0  0  0  0  0  0  0  0
    6.7150  -12.7220   -8.1050 N   0  0  0  0  0  0  0  0  0  0  0  0
    6.7550  -13.1140   -9.4300 C   0  0  0  0  0  0  0  0  0  0  0  0
    6.1680  -14.0630   -9.9380 O   0  0  0  0  0  0  0  0  0  0  0  0
    7.6480  -12.3010  -10.2990 C   0  0  0  0  0  0  0  0  0  0  0  0
    8.8600  -12.8560  -10.7090 C   0  0  0  0  0  0  0  0  0  0  0  0
    9.6810  -12.0940  -11.5190 C   0  0  0  0  0  0  0  0  0  0  0  0
    9.3690  -10.8490  -11.9390 N   0  0  0  0  0  0  0  0  0  0  0  0
    8.1780  -10.3480  -11.5490 C   0  0  0  0  0  0  0  0  0  0  0  0
    7.2870  -11.0260  -10.7370 C   0  0  0  0  0  0  0  0  0  0  0  0
    6.2320  -14.4270   -6.3740 C   0  0  0  0  0  0  0  0  0  0  0  0
    5.3780  -14.9050   -5.3710 C   0  0  0  0  0  0  0  0  0  0  0  0
   -0.5800  -15.4180   -2.2450 N   0  0  0  0  0  0  0  0  0  0  0  0
   -1.5480  -15.0470   -1.3330 O   0  0  0  0  0  0  0  0  0  0  0  0
   -3.9631  -14.2543    1.2747 H   0  0  0  0  0  0  0  0  0  0  0  0
   -3.7723  -13.2956   -0.2323 H   0  0  0  0  0  0  0  0  0  0  0  0
   -3.3989  -15.0526   -0.2323 H   0  0  0  0  0  0  0  0  0  0  0  0
   -1.7103  -12.0556    1.9958 H   0  0  0  0  0  0  0  0  0  0  0  0
   -0.7976  -11.9735    0.4509 H   0  0  0  0  0  0  0  0  0  0  0  0
   -2.5830  -11.7761    0.4509 H   0  0  0  0  0  0  0  0  0  0  0  0
   -1.8921  -13.8454    2.9123 H   0  0  0  0  0  0  0  0  0  0  0  0
   -2.1522  -15.4506    2.1491 H   0  0  0  0  0  0  0  0  0  0  0  0
   -0.5154  -14.7107    2.1491 H   0  0  0  0  0  0  0  0  0  0  0  0
    1.1168  -13.6536    0.0009 H   0  0  0  0  0  0  0  0  0  0  0  0
    2.2200  -15.9420   -2.2460 H   0  0  0  0  0  0  0  0  0  0  0  0
    3.7300  -15.6490   -3.6320 H   0  0  0  0  0  0  0  0  0  0  0  0
    2.9455  -12.5341   -5.5304 H   0  0  0  0  0  0  0  0  0  0  0  0
    4.4613  -11.6844   -7.3144 H   0  0  0  0  0  0  0  0  0  0  0  0
    7.3550  -11.9950   -7.8170 H   0  0  0  0  0  0  0  0  0  0  0  0
    9.1537  -13.8692  -10.3973 H   0  0  0  0  0  0  0  0  0  0  0  0
   10.6410  -12.5253  -11.8390 H   0  0  0  0  0  0  0  0  0  0  0  0
    7.8999   -9.3423  -11.8971 H   0  0  0  0  0  0  0  0  0  0  0  0
    6.3265  -10.5756  -10.4463 H   0  0  0  0  0  0  0  0  0  0  0  0
    7.1587  -14.9719   -6.6069 H   0  0  0  0  0  0  0  0  0  0  0  0
    5.6442  -15.8218   -4.8246 H   0  0  0  0  0  0  0  0  0  0  0  0
  1  2  1  0
  2  3  1  0
  2  4  1  0
  2  5  1  0
  5  6  2  0
  6  7  1  0
  7  8  1  0
  8  9  1  0
  9 10  2  0
  9 11  1  0
 11 12  1  0
 12 13  2  0
 13 14  1  0
 14 15  2  0
 15 16  1  0
 16 17  1  0
 17 18  2  0
 17 19  1  0
 19 20  2  0
 20 21  1  0
 21 22  2  0
 22 23  1  0
 23 24  2  0
 15 25  1  0
 25 26  2  0
  7 27  2  0
 27 28  1  0
 28  5  1  0
 26 12  1  0
 24 19  1  0
  1 29  1  0
  1 30  1  0
  1 31  1  0
  3 32  1  0
  3 33  1  0
  3 34  1  0
  4 35  1  0
  4 36  1  0
  4 37  1  0
  6 38  1  0
  8 39  1  0
 11 40  1  0
 13 41  1  0
 14 42  1  0
 16 43  1  0
 20 44  1  0
 21 45  1  0
 23 46  1  0
 24 47  1  0
 25 48  1  0
 26 49  1  0
M  END
>  <meeko>  (3) 
{"is_sidechain": [false], "free_energy": -7.501, "intermolecular_energy": -10.131, "internal_energy": -0.294}

$$$$
LIB_YJKUGONIJWVAHM__M_PUB_ALL__e8__s20260927
     RDKit          3D

 49 51  0  0  0  0  0  0  0  0999 V2000
   -2.4630   -9.6330    1.8380 C   0  0  0  0  0  0  0  0  0  0  0  0
   -2.6590  -11.0350    1.2330 C   0  0  0  0  0  0  0  0  0  0  0  0
   -3.5950  -11.8560    2.1380 C   0  0  0  0  0  0  0  0  0  0  0  0
   -3.3230  -10.8820   -0.1470 C   0  0  0  0  0  0  0  0  0  0  0  0
   -1.3290  -11.7280    1.1170 C   0  0  0  0  0  0  0  0  0  0  0  0
   -0.0700  -11.5090    1.6270 C   0  0  0  0  0  0  0  0  0  0  0  0
    0.7210  -12.5560    1.1070 C   0  0  0  0  0  0  0  0  0  0  0  0
    2.0580  -12.8280    1.2920 N   0  0  0  0  0  0  0  0  0  0  0  0
    3.0770  -12.4460    0.4440 C   0  0  0  0  0  0  0  0  0  0  0  0
    2.9060  -11.8080   -0.5880 O   0  0  0  0  0  0  0  0  0  0  0  0
    4.3040  -12.8810    0.9200 N   0  0  0  0  0  0  0  0  0  0  0  0
    5.5750  -12.6850    0.3440 C   0  0  0  0  0  0  0  0  0  0  0  0
    6.5030  -11.7440    0.7860 C   0  0  0  0  0  0  0  0  0  0  0  0
    7.7470  -11.6190    0.1510 C   0  0  0  0  0  0  0  0  0  0  0  0
    8.0860  -12.4320   -0.9350 C   0  0  0  0  0  0  0  0  0  0  0  0
    9.3550  -12.2350   -1.5190 N   0  0  0  0  0  0  0  0  0  0  0  0
   10.5410  -12.8530   -1.1690 C   0  0  0  0  0  0  0  0  0  0  0  0
   10.7250  -13.6220   -0.2330 O   0  0  0  0  0  0  0  0  0  0  0  0
   11.7110  -12.4930   -2.0160 C   0  0  0  0  0  0  0  0  0  0  0  0
   11.7430  -12.9520   -3.3320 C   0  0  0  0  0  0  0  0  0  0  0  0
   12.8320  -12.6090   -4.1110 C   0  0  0  0  0  0  0  0  0  0  0  0
   13.8580  -11.8510   -3.6690 N   0  0  0  0  0  0  0  0  0  0  0  0
   13.7870  -11.3980   -2.3990 C   0  0  0  0  0  0  0  0  0  0  0  0
   12.7440  -11.6860   -1.5380 C   0  0  0  0  0  0  0  0  0  0  0  0
    7.1570  -13.3700   -1.3800 C   0  0  0  0  0  0  0  0  0  0  0  0
    5.9140  -13.4960   -0.7450 C   0  0  0  0  0  0  0  0  0  0  0  0
   -0.0100  -13.3620    0.3300 N   0  0  0  0  0  0  0  0  0  0  0  0
   -1.2900  -12.8450    0.3360 O   0  0  0  0  0  0  0  0  0  0  0  0
   -2.4727   -9.7027    2.9357 H   0  0  0  0  0  0  0  0  0  0  0  0
   -1.4986   -9.2216    1.5053 H   0  0  0  0  0  0  0  0  0  0  0  0
   -3.2776   -8.9729    1.5053 H   0  0  0  0  0  0  0  0  0  0  0  0
   -3.3596  -11.6495    3.1925 H   0  0  0  0  0  0  0  0  0  0  0  0
   -4.6394  -11.5774    1.9341 H   0  0  0  0  0  0  0  0  0  0  0  0
   -3.4549  -12.9278    1.9341 H   0  0  0  0  0  0  0  0  0  0  0  0
   -4.3874  -10.6367   -0.0166 H   0  0  0  0  0  0  0  0  0  0  0  0
   -2.8264  -10.0747   -0.7054 H   0  0  0  0  0  0  0  0  0  0  0  0
   -3.2298  -11.8252   -0.7054 H   0  0  0  0  0  0  0  0  0  0  0  0
    0.2503  -10.6954    2.2944 H   0  0  0  0  0  0  0  0  0  0  0  0
    2.2490  -13.3510    2.1300 H   0  0  0  0  0  0  0  0  0  0  0  0
    4.2910  -13.4030    1.7830 H   0  0  0  0  0  0  0  0  0  0  0  0
    6.2579  -11.0945    1.6393 H   0  0  0  0  0  0  0  0  0  0  0  0
    8.4670  -10.8701    0.5126 H   0  0  0  0  0  0  0  0  0  0  0  0
    9.3950  -11.5290   -2.2410 H   0  0  0  0  0  0  0  0  0  0  0  0
   10.9270  -13.5680   -3.7378 H   0  0  0  0  0  0  0  0  0  0  0  0
   12.8645  -12.9737   -5.1483 H   0  0  0  0  0  0  0  0  0  0  0  0
   14.6056  -10.7637   -2.0281 H   0  0  0  0  0  0  0  0  0  0  0  0
   12.7292  -11.2922   -0.5110 H   0  0  0  0  0  0  0  0  0  0  0  0
    7.4009  -14.0164   -2.2360 H   0  0  0  0  0  0  0  0  0  0  0  0
    5.1937  -14.2439   -1.1082 H   0  0  0  0  0  0  0  0  0  0  0  0
  1  2  1  0
  2  3  1  0
  2  4  1  0
  2  5  1  0
  5  6  2  0
  6  7  1  0
  7  8  1  0
  8  9  1  0
  9 10  2  0
  9 11  1  0
 11 12  1  0
 12 13  2  0
 13 14  1  0
 14 15  2  0
 15 16  1  0
 16 17  1  0
 17 18  2  0
 17 19  1  0
 19 20  2  0
 20 21  1  0
 21 22  2  0
 22 23  1  0
 23 24  2  0
 15 25  1  0
 25 26  2  0
  7 27  2  0
 27 28  1  0
 28  5  1  0
 26 12  1  0
 24 19  1  0
  1 29  1  0
  1 30  1  0
  1 31  1  0
  3 32  1  0
  3 33  1  0
  3 34  1  0
  4 35  1  0
  4 36  1  0
  4 37  1  0
  6 38  1  0
  8 39  1  0
 11 40  1  0
 13 41  1  0
 14 42  1  0
 16 43  1  0
 20 44  1  0
 21 45  1  0
 23 46  1  0
 24 47  1  0
 25 48  1  0
 26 49  1  0
M  END
>  <meeko>  (4) 
{"is_sidechain": [false], "free_energy": -7.436, "intermolecular_energy": -9.62, "internal_energy": -0.72}

$$$$
LIB_YJKUGONIJWVAHM__M_PUB_ALL__e8__s20260927
     RDKit          3D

 49 51  0  0  0  0  0  0  0  0999 V2000
    7.0890  -13.5970  -11.6990 C   0  0  0  0  0  0  0  0  0  0  0  0
    7.6820  -12.7180  -10.5820 C   0  0  0  0  0  0  0  0  0  0  0  0
    9.2080  -12.6330  -10.7560 C   0  0  0  0  0  0  0  0  0  0  0  0
    7.0950  -11.3020  -10.7130 C   0  0  0  0  0  0  0  0  0  0  0  0
    7.3560  -13.3140   -9.2410 C   0  0  0  0  0  0  0  0  0  0  0  0
    6.2360  -13.3610   -8.4420 C   0  0  0  0  0  0  0  0  0  0  0  0
    6.6320  -14.0920   -7.3010 C   0  0  0  0  0  0  0  0  0  0  0  0
    5.9110  -14.4400   -6.1810 N   0  0  0  0  0  0  0  0  0  0  0  0
    5.2360  -13.5620   -5.3590 C   0  0  0  0  0  0  0  0  0  0  0  0
    5.2000  -12.3500   -5.5340 O   0  0  0  0  0  0  0  0  0  0  0  0
    4.6140  -14.2380   -4.3200 N   0  0  0  0  0  0  0  0  0  0  0  0
    3.8290  -13.6970   -3.2820 C   0  0  0  0  0  0  0  0  0  0  0  0
    4.3450  -13.0430   -2.1660 C   0  0  0  0  0  0  0  0  0  0  0  0
    3.4870  -12.5340   -1.1800 C   0  0  0  0  0  0  0  0  0  0  0  0
    2.1000  -12.6690   -1.2940 C   0  0  0  0  0  0  0  0  0  0  0  0
    1.3110  -12.1330   -0.2540 N   0  0  0  0  0  0  0  0  0  0  0  0
    0.6680  -10.9090   -0.2370 C   0  0  0  0  0  0  0  0  0  0  0  0
    0.7350  -10.0290   -1.0870 O   0  0  0  0  0  0  0  0  0  0  0  0
   -0.1530  -10.6470    0.9760 C   0  0  0  0  0  0  0  0  0  0  0  0
   -0.4080  -11.7070    1.8460 C   0  0  0  0  0  0  0  0  0  0  0  0
   -1.1690  -11.4520    2.9710 C   0  0  0  0  0  0  0  0  0  0  0  0
   -1.6690  -10.2350    3.2750 N   0  0  0  0  0  0  0  0  0  0  0  0
   -1.3840   -9.2230    2.4290 C   0  0  0  0  0  0  0  0  0  0  0  0
   -0.6360   -9.3730    1.2750 C   0  0  0  0  0  0  0  0  0  0  0  0
    1.5840  -13.3260   -2.4080 C   0  0  0  0  0  0  0  0  0  0  0  0
    2.4410  -13.8340   -3.3930 C   0  0  0  0  0  0  0  0  0  0  0  0
    7.9110  -14.4670   -7.3990 N   0  0  0  0  0  0  0  0  0  0  0  0
    8.3630  -13.9820   -8.6090 O   0  0  0  0  0  0  0  0  0  0  0  0
    6.5272  -14.4298  -11.2509 H   0  0  0  0  0  0  0  0  0  0  0  0
    6.4136  -12.9922  -12.3219 H   0  0  0  0  0  0  0  0  0  0  0  0
    7.9027  -13.9968  -12.3219 H   0  0  0  0  0  0  0  0  0  0  0  0
    9.6889  -12.6062   -9.7670 H   0  0  0  0  0  0  0  0  0  0  0  0
    9.5631  -13.5128  -11.3127 H   0  0  0  0  0  0  0  0  0  0  0  0
    9.4632  -11.7192  -11.3127 H   0  0  0  0  0  0  0  0  0  0  0  0
    6.9213  -10.8829   -9.7109 H   0  0  0  0  0  0  0  0  0  0  0  0
    7.8017  -10.6614  -11.2609 H   0  0  0  0  0  0  0  0  0  0  0  0
    6.1423  -11.3492  -11.2609 H   0  0  0  0  0  0  0  0  0  0  0  0
    5.2477  -12.9241   -8.6478 H   0  0  0  0  0  0  0  0  0  0  0  0
    5.9090  -15.4300   -5.9960 H   0  0  0  0  0  0  0  0  0  0  0  0
    4.7370  -15.2390   -4.3000 H   0  0  0  0  0  0  0  0  0  0  0  0
    5.4332  -12.9248   -2.0570 H   0  0  0  0  0  0  0  0  0  0  0  0
    3.9115  -12.0212   -0.3043 H   0  0  0  0  0  0  0  0  0  0  0  0
    1.2540  -12.6990    0.5820 H   0  0  0  0  0  0  0  0  0  0  0  0
   -0.0156  -12.7144    1.6430 H   0  0  0  0  0  0  0  0  0  0  0  0
   -1.3790  -12.2862    3.6565 H   0  0  0  0  0  0  0  0  0  0  0  0
   -1.7686   -8.2212    2.6709 H   0  0  0  0  0  0  0  0  0  0  0  0
   -0.4292   -8.5170    0.6158 H   0  0  0  0  0  0  0  0  0  0  0  0
    0.4960  -13.4470   -2.5154 H   0  0  0  0  0  0  0  0  0  0  0  0
    2.0160  -14.3486   -4.2674 H   0  0  0  0  0  0  0  0  0  0  0  0
  1  2  1  0
  2  3  1  0
  2  4  1  0
  2  5  1  0
  5  6  2  0
  6  7  1  0
  7  8  1  0
  8  9  1  0
  9 10  2  0
  9 11  1  0
 11 12  1  0
 12 13  2  0
 13 14  1  0
 14 15  2  0
 15 16  1  0
 16 17  1  0
 17 18  2  0
 17 19  1  0
 19 20  2  0
 20 21  1  0
 21 22  2  0
 22 23  1  0
 23 24  2  0
 15 25  1  0
 25 26  2  0
  7 27  2  0
 27 28  1  0
 28  5  1  0
 26 12  1  0
 24 19  1  0
  1 29  1  0
  1 30  1  0
  1 31  1  0
  3 32  1  0
  3 33  1  0
  3 34  1  0
  4 35  1  0
  4 36  1  0
  4 37  1  0
  6 38  1  0
  8 39  1  0
 11 40  1  0
 13 41  1  0
 14 42  1  0
 16 43  1  0
 20 44  1  0
 21 45  1  0
 23 46  1  0
 24 47  1  0
 25 48  1  0
 26 49  1  0
M  END
>  <meeko>  (5) 
{"is_sidechain": [false], "free_energy": -7.201, "intermolecular_energy": -9.377, "internal_energy": -0.66}

$$$$
LIB_YJKUGONIJWVAHM__M_PUB_ALL__e8__s20260927
     RDKit          3D

 49 51  0  0  0  0  0  0  0  0999 V2000
   -3.4520  -15.8510    3.5390 C   0  0  0  0  0  0  0  0  0  0  0  0
   -2.0940  -16.5500    3.3450 C   0  0  0  0  0  0  0  0  0  0  0  0
   -1.4950  -16.8930    4.7200 C   0  0  0  0  0  0  0  0  0  0  0  0
   -2.3250  -17.8600    2.5710 C   0  0  0  0  0  0  0  0  0  0  0  0
   -1.1590  -15.6400    2.5970 C   0  0  0  0  0  0  0  0  0  0  0  0
   -0.2190  -14.7010    2.9560 C   0  0  0  0  0  0  0  0  0  0  0  0
    0.2970  -14.2170    1.7350 C   0  0  0  0  0  0  0  0  0  0  0  0
    1.2640  -13.2650    1.5010 N   0  0  0  0  0  0  0  0  0  0  0  0
    2.5690  -13.5220    1.1330 C   0  0  0  0  0  0  0  0  0  0  0  0
    3.0250  -14.6470    0.9670 O   0  0  0  0  0  0  0  0  0  0  0  0
    3.2790  -12.3410    0.9790 N   0  0  0  0  0  0  0  0  0  0  0  0
    4.6300  -12.1860    0.6060 C   0  0  0  0  0  0  0  0  0  0  0  0
    5.0840  -12.1590   -0.7100 C   0  0  0  0  0  0  0  0  0  0  0  0
    6.4490  -11.9990   -0.9890 C   0  0  0  0  0  0  0  0  0  0  0  0
    7.3830  -11.8630    0.0440 C   0  0  0  0  0  0  0  0  0  0  0  0
    8.7370  -11.7130   -0.3250 N   0  0  0  0  0  0  0  0  0  0  0  0
    9.6840  -12.7120   -0.4510 C   0  0  0  0  0  0  0  0  0  0  0  0
    9.5450  -13.9000   -0.1830 O   0  0  0  0  0  0  0  0  0  0  0  0
   11.0180  -12.2570   -0.9260 C   0  0  0  0  0  0  0  0  0  0  0  0
   11.3730  -12.5090   -2.2510 C   0  0  0  0  0  0  0  0  0  0  0  0
   12.6130  -12.0790   -2.6830 C   0  0  0  0  0  0  0  0  0  0  0  0
   13.4920  -11.4230   -1.8960 N   0  0  0  0  0  0  0  0  0  0  0  0
   13.1120  -11.1680   -0.6260 C   0  0  0  0  0  0  0  0  0  0  0  0
   11.8960  -11.5590   -0.0950 C   0  0  0  0  0  0  0  0  0  0  0  0
    6.9290  -11.8940    1.3600 C   0  0  0  0  0  0  0  0  0  0  0  0
    5.5650  -12.0530    1.6380 C   0  0  0  0  0  0  0  0  0  0  0  0
   -0.2900  -14.8220    0.6980 N   0  0  0  0  0  0  0  0  0  0  0  0
   -1.1990  -15.7100    1.2360 O   0  0  0  0  0  0  0  0  0  0  0  0
   -3.6592  -15.7443    4.6140 H   0  0  0  0  0  0  0  0  0  0  0  0
   -3.4225  -14.8561    3.0708 H   0  0  0  0  0  0  0  0  0  0  0  0
   -4.2446  -16.4532    3.0708 H   0  0  0  0  0  0  0  0  0  0  0  0
   -2.1566  -16.5142    5.5130 H   0  0  0  0  0  0  0  0  0  0  0  0
   -1.3964  -17.9844    4.8151 H   0  0  0  0  0  0  0  0  0  0  0  0
   -0.5038  -16.4256    4.8151 H   0  0  0  0  0  0  0  0  0  0  0  0
   -2.4706  -18.6858    3.2830 H   0  0  0  0  0  0  0  0  0  0  0  0
   -3.2192  -17.7593    1.9384 H   0  0  0  0  0  0  0  0  0  0  0  0
   -1.4502  -18.0713    1.9384 H   0  0  0  0  0  0  0  0  0  0  0  0
    0.0676  -14.3946    3.9729 H   0  0  0  0  0  0  0  0  0  0  0  0
    0.9360  -12.3210    1.6230 H   0  0  0  0  0  0  0  0  0  0  0  0
    2.7730  -11.4870    1.1550 H   0  0  0  0  0  0  0  0  0  0  0  0
    4.3665  -12.2640   -1.5371 H   0  0  0  0  0  0  0  0  0  0  0  0
    6.7902  -11.9801   -2.0346 H   0  0  0  0  0  0  0  0  0  0  0  0
    9.0450  -10.7610   -0.4670 H   0  0  0  0  0  0  0  0  0  0  0  0
   10.6866  -13.0342   -2.9315 H   0  0  0  0  0  0  0  0  0  0  0  0
   12.8996  -12.2824   -3.7253 H   0  0  0  0  0  0  0  0  0  0  0  0
   13.8089  -10.6180    0.0235 H   0  0  0  0  0  0  0  0  0  0  0  0
   11.6299  -11.3277    0.9470 H   0  0  0  0  0  0  0  0  0  0  0  0
    7.6466  -11.7929    2.1875 H   0  0  0  0  0  0  0  0  0  0  0  0
    5.2242  -12.0736    2.6837 H   0  0  0  0  0  0  0  0  0  0  0  0
  1  2  1  0
  2  3  1  0
  2  4  1  0
  2  5  1  0
  5  6  2  0
  6  7  1  0
  7  8  1  0
  8  9  1  0
  9 10  2  0
  9 11  1  0
 11 12  1  0
 12 13  2  0
 13 14  1  0
 14 15  2  0
 15 16  1  0
 16 17  1  0
 17 18  2  0
 17 19  1  0
 19 20  2  0
 20 21  1  0
 21 22  2  0
 22 23  1  0
 23 24  2  0
 15 25  1  0
 25 26  2  0
  7 27  2  0
 27 28  1  0
 28  5  1  0
 26 12  1  0
 24 19  1  0
  1 29  1  0
  1 30  1  0
  1 31  1  0
  3 32  1  0
  3 33  1  0
  3 34  1  0
  4 35  1  0
  4 36  1  0
  4 37  1  0
  6 38  1  0
  8 39  1  0
 11 40  1  0
 13 41  1  0
 14 42  1  0
 16 43  1  0
 20 44  1  0
 21 45  1  0
 23 46  1  0
 24 47  1  0
 25 48  1  0
 26 49  1  0
M  END
>  <meeko>  (6) 
{"is_sidechain": [false], "free_energy": -7.136, "intermolecular_energy": -9.233, "internal_energy": -0.721}

$$$$
LIB_YJKUGONIJWVAHM__M_PUB_ALL__e8__s20260927
     RDKit          3D

 49 51  0  0  0  0  0  0  0  0999 V2000
   -7.9330  -16.3310    6.2360 C   0  0  0  0  0  0  0  0  0  0  0  0
   -6.5750  -16.0050    6.8850 C   0  0  0  0  0  0  0  0  0  0  0  0
   -6.4580  -14.4840    7.0880 C   0  0  0  0  0  0  0  0  0  0  0  0
   -6.5170  -16.6880    8.2630 C   0  0  0  0  0  0  0  0  0  0  0  0
   -5.4600  -16.4860    5.9980 C   0  0  0  0  0  0  0  0  0  0  0  0
   -5.2300  -16.4940    4.6410 C   0  0  0  0  0  0  0  0  0  0  0  0
   -3.9670  -17.1060    4.4900 C   0  0  0  0  0  0  0  0  0  0  0  0
   -3.2460  -17.3720    3.3470 N   0  0  0  0  0  0  0  0  0  0  0  0
   -2.5320  -16.4450    2.6170 C   0  0  0  0  0  0  0  0  0  0  0  0
   -2.4540  -15.2570    2.9070 O   0  0  0  0  0  0  0  0  0  0  0  0
   -1.9230  -17.0420    1.5230 N   0  0  0  0  0  0  0  0  0  0  0  0
   -1.1080  -16.4340    0.5470 C   0  0  0  0  0  0  0  0  0  0  0  0
    0.2830  -16.3810    0.6070 C   0  0  0  0  0  0  0  0  0  0  0  0
    1.0150  -15.7540   -0.4120 C   0  0  0  0  0  0  0  0  0  0  0  0
    0.3700  -15.1720   -1.5080 C   0  0  0  0  0  0  0  0  0  0  0  0
    1.1820  -14.5570   -2.4840 N   0  0  0  0  0  0  0  0  0  0  0  0
    1.7710  -13.3080   -2.4150 C   0  0  0  0  0  0  0  0  0  0  0  0
    1.6270  -12.4710   -1.5320 O   0  0  0  0  0  0  0  0  0  0  0  0
    2.6350  -12.9560   -3.5740 C   0  0  0  0  0  0  0  0  0  0  0  0
    3.2530  -13.9890   -4.2790 C   0  0  0  0  0  0  0  0  0  0  0  0
    4.0500  -13.6510   -5.3560 C   0  0  0  0  0  0  0  0  0  0  0  0
    4.2560  -12.3810   -5.7650 N   0  0  0  0  0  0  0  0  0  0  0  0
    3.6250  -11.4040   -5.0810 C   0  0  0  0  0  0  0  0  0  0  0  0
    2.8090  -11.6340   -3.9880 C   0  0  0  0  0  0  0  0  0  0  0  0
   -1.0210  -15.2210   -1.5650 C   0  0  0  0  0  0  0  0  0  0  0  0
   -1.7530  -15.8480   -0.5470 C   0  0  0  0  0  0  0  0  0  0  0  0
   -3.4600  -17.4490    5.6780 N   0  0  0  0  0  0  0  0  0  0  0  0
   -4.3920  -17.0620    6.6200 O   0  0  0  0  0  0  0  0  0  0  0  0
   -8.6813  -16.5106    7.0220 H   0  0  0  0  0  0  0  0  0  0  0  0
   -8.2535  -15.4843    5.6112 H   0  0  0  0  0  0  0  0  0  0  0  0
   -7.8342  -17.2309    5.6112 H   0  0  0  0  0  0  0  0  0  0  0  0
   -6.4406  -14.2580    8.1644 H   0  0  0  0  0  0  0  0  0  0  0  0
   -5.5294  -14.1223    6.6224 H   0  0  0  0  0  0  0  0  0  0  0  0
   -7.3204  -13.9845    6.6224 H   0  0  0  0  0  0  0  0  0  0  0  0
   -6.5818  -15.9255    9.0532 H   0  0  0  0  0  0  0  0  0  0  0  0
   -7.3588  -17.3893    8.3603 H   0  0  0  0  0  0  0  0  0  0  0  0
   -5.5690  -17.2373    8.3603 H   0  0  0  0  0  0  0  0  0  0  0  0
   -5.8868  -16.1079    3.8476 H   0  0  0  0  0  0  0  0  0  0  0  0
   -3.2790  -18.3390    3.0690 H   0  0  0  0  0  0  0  0  0  0  0  0
   -2.0820  -18.0310    1.4070 H   0  0  0  0  0  0  0  0  0  0  0  0
    0.8107  -16.8339    1.4593 H   0  0  0  0  0  0  0  0  0  0  0  0
    2.1126  -15.7195   -0.3482 H   0  0  0  0  0  0  0  0  0  0  0  0
    1.3020  -15.0800   -3.3400 H   0  0  0  0  0  0  0  0  0  0  0  0
    3.1103  -15.0398   -3.9867 H   0  0  0  0  0  0  0  0  0  0  0  0
    4.5442  -14.4620   -5.9111 H   0  0  0  0  0  0  0  0  0  0  0  0
    3.7677  -10.3646   -5.4116 H   0  0  0  0  0  0  0  0  0  0  0  0
    2.3141  -10.8037   -3.4629 H   0  0  0  0  0  0  0  0  0  0  0  0
   -1.5490  -14.7643   -2.4151 H   0  0  0  0  0  0  0  0  0  0  0  0
   -2.8508  -15.8796   -0.6095 H   0  0  0  0  0  0  0  0  0  0  0  0
  1  2  1  0
  2  3  1  0
  2  4  1  0
  2  5  1  0
  5  6  2  0
  6  7  1  0
  7  8  1  0
  8  9  1  0
  9 10  2  0
  9 11  1  0
 11 12  1  0
 12 13  2  0
 13 14  1  0
 14 15  2  0
 15 16  1  0
 16 17  1  0
 17 18  2  0
 17 19  1  0
 19 20  2  0
 20 21  1  0
 21 22  2  0
 22 23  1  0
 23 24  2  0
 15 25  1  0
 25 26  2  0
  7 27  2  0
 27 28  1  0
 28  5  1  0
 26 12  1  0
 24 19  1  0
  1 29  1  0
  1 30  1  0
  1 31  1  0
  3 32  1  0
  3 33  1  0
  3 34  1  0
  4 35  1  0
  4 36  1  0
  4 37  1  0
  6 38  1  0
  8 39  1  0
 11 40  1  0
 13 41  1  0
 14 42  1  0
 16 43  1  0
 20 44  1  0
 21 45  1  0
 23 46  1  0
 24 47  1  0
 25 48  1  0
 26 49  1  0
M  END
>  <meeko>  (7) 
{"is_sidechain": [false], "free_energy": -7.008, "intermolecular_energy": -9.017, "internal_energy": -0.771}

$$$$
LIB_YJKUGONIJWVAHM__M_PUB_ALL__e8__s20260927
     RDKit          3D

 49 51  0  0  0  0  0  0  0  0999 V2000
   14.1720  -16.5090  -11.5600 C   0  0  0  0  0  0  0  0  0  0  0  0
   15.2800  -15.5240  -11.1420 C   0  0  0  0  0  0  0  0  0  0  0  0
   16.6330  -16.0170  -11.6830 C   0  0  0  0  0  0  0  0  0  0  0  0
   14.9730  -14.1510  -11.7670 C   0  0  0  0  0  0  0  0  0  0  0  0
   15.3360  -15.4320   -9.6420 C   0  0  0  0  0  0  0  0  0  0  0  0
   14.5750  -14.8160   -8.6750 C   0  0  0  0  0  0  0  0  0  0  0  0
   15.2000  -15.1460   -7.4530 C   0  0  0  0  0  0  0  0  0  0  0  0
   14.8620  -14.7970   -6.1650 N   0  0  0  0  0  0  0  0  0  0  0  0
   13.5810  -14.5630   -5.7090 C   0  0  0  0  0  0  0  0  0  0  0  0
   12.5790  -14.6430   -6.4110 O   0  0  0  0  0  0  0  0  0  0  0  0
   13.5900  -14.2310   -4.3630 N   0  0  0  0  0  0  0  0  0  0  0  0
   12.4860  -13.9290   -3.5390 C   0  0  0  0  0  0  0  0  0  0  0  0
   11.8620  -14.8440   -2.6950 C   0  0  0  0  0  0  0  0  0  0  0  0
   10.7680  -14.4550   -1.9080 C   0  0  0  0  0  0  0  0  0  0  0  0
   10.2810  -13.1450   -1.9510 C   0  0  0  0  0  0  0  0  0  0  0  0
    9.1740  -12.8400   -1.1320 N   0  0  0  0  0  0  0  0  0  0  0  0
    9.1970  -12.4350    0.1900 C   0  0  0  0  0  0  0  0  0  0  0  0
   10.1790  -12.3490    0.9180 O   0  0  0  0  0  0  0  0  0  0  0  0
    7.8660  -12.1170    0.7730 C   0  0  0  0  0  0  0  0  0  0  0  0
    7.4520  -10.7850    0.7950 C   0  0  0  0  0  0  0  0  0  0  0  0
    6.2130  -10.5010    1.3360 C   0  0  0  0  0  0  0  0  0  0  0  0
    5.3820  -11.4400    1.8350 N   0  0  0  0  0  0  0  0  0  0  0  0
    5.7960  -12.7230    1.7770 C   0  0  0  0  0  0  0  0  0  0  0  0
    7.0190  -13.1130    1.2600 C   0  0  0  0  0  0  0  0  0  0  0  0
   10.9030  -12.2310   -2.7980 C   0  0  0  0  0  0  0  0  0  0  0  0
   11.9960  -12.6190   -3.5840 C   0  0  0  0  0  0  0  0  0  0  0  0
   16.2740  -15.9140   -7.6620 N   0  0  0  0  0  0  0  0  0  0  0  0
   16.3580  -16.0930   -9.0290 O   0  0  0  0  0  0  0  0  0  0  0  0
   13.6979  -16.9305  -10.6613 H   0  0  0  0  0  0  0  0  0  0  0  0
   13.4167  -15.9787  -12.1586 H   0  0  0  0  0  0  0  0  0  0  0  0
   14.6101  -17.3212  -12.1586 H   0  0  0  0  0  0  0  0  0  0  0  0
   17.2982  -16.2594  -10.8411 H   0  0  0  0  0  0  0  0  0  0  0  0
   16.4767  -16.9159  -12.2974 H   0  0  0  0  0  0  0  0  0  0  0  0
   17.0916  -15.2282  -12.2974 H   0  0  0  0  0  0  0  0  0  0  0  0
   14.8080  -13.4131  -10.9681 H   0  0  0  0  0  0  0  0  0  0  0  0
   15.8223  -13.8334  -12.3897 H   0  0  0  0  0  0  0  0  0  0  0  0
   14.0693  -14.2254  -12.3897 H   0  0  0  0  0  0  0  0  0  0  0  0
   13.6754  -14.2004   -8.8222 H   0  0  0  0  0  0  0  0  0  0  0  0
   15.6540  -14.7210   -5.5490 H   0  0  0  0  0  0  0  0  0  0  0  0
   14.4920  -14.1990   -3.9150 H   0  0  0  0  0  0  0  0  0  0  0  0
   12.2297  -15.8795   -2.6451 H   0  0  0  0  0  0  0  0  0  0  0  0
   10.2863  -15.1910   -1.2475 H   0  0  0  0  0  0  0  0  0  0  0  0
    8.2680  -12.9800   -1.5580 H   0  0  0  0  0  0  0  0  0  0  0  0
    8.0923   -9.9855    0.3940 H   0  0  0  0  0  0  0  0  0  0  0  0
    5.8856   -9.4512    1.3615 H   0  0  0  0  0  0  0  0  0  0  0  0
    5.1232  -13.5032    2.1625 H   0  0  0  0  0  0  0  0  0  0  0  0
    7.3134  -14.1725    1.2339 H   0  0  0  0  0  0  0  0  0  0  0  0
   10.5332  -11.1963   -2.8503 H   0  0  0  0  0  0  0  0  0  0  0  0
   12.4759  -11.8832   -4.2461 H   0  0  0  0  0  0  0  0  0  0  0  0
  1  2  1  0
  2  3  1  0
  2  4  1  0
  2  5  1  0
  5  6  2  0
  6  7  1  0
  7  8  1  0
  8  9  1  0
  9 10  2  0
  9 11  1  0
 11 12  1  0
 12 13  2  0
 13 14  1  0
 14 15  2  0
 15 16  1  0
 16 17  1  0
 17 18  2  0
 17 19  1  0
 19 20  2  0
 20 21  1  0
 21 22  2  0
 22 23  1  0
 23 24  2  0
 15 25  1  0
 25 26  2  0
  7 27  2  0
 27 28  1  0
 28  5  1  0
 26 12  1  0
 24 19  1  0
  1 29  1  0
  1 30  1  0
  1 31  1  0
  3 32  1  0
  3 33  1  0
  3 34  1  0
  4 35  1  0
  4 36  1  0
  4 37  1  0
  6 38  1  0
  8 39  1  0
 11 40  1  0
 13 41  1  0
 14 42  1  0
 16 43  1  0
 20 44  1  0
 21 45  1  0
 23 46  1  0
 24 47  1  0
 25 48  1  0
 26 49  1  0
M  END
>  <meeko>  (8) 
{"is_sidechain": [false], "free_energy": -6.943, "intermolecular_energy": -9.296, "internal_energy": -0.408}

$$$$
LIB_YJKUGONIJWVAHM__M_PUB_ALL__e8__s20260927
     RDKit          3D

 49 51  0  0  0  0  0  0  0  0999 V2000
   12.4650  -13.7420   -5.1950 C   0  0  0  0  0  0  0  0  0  0  0  0
   13.2530  -13.7800   -3.8720 C   0  0  0  0  0  0  0  0  0  0  0  0
   13.9130  -15.1610   -3.7120 C   0  0  0  0  0  0  0  0  0  0  0  0
   14.3590  -12.7120   -3.9320 C   0  0  0  0  0  0  0  0  0  0  0  0
   12.3210  -13.5260   -2.7190 C   0  0  0  0  0  0  0  0  0  0  0  0
   11.1490  -14.0920   -2.2710 C   0  0  0  0  0  0  0  0  0  0  0  0
   10.8060  -13.3540   -1.1180 C   0  0  0  0  0  0  0  0  0  0  0  0
    9.7290  -13.4900   -0.2720 N   0  0  0  0  0  0  0  0  0  0  0  0
    8.4470  -13.0510   -0.5310 C   0  0  0  0  0  0  0  0  0  0  0  0
    8.1130  -12.4820   -1.5630 O   0  0  0  0  0  0  0  0  0  0  0  0
    7.6020  -13.3440    0.5290 N   0  0  0  0  0  0  0  0  0  0  0  0
    6.2250  -13.0640    0.6410 C   0  0  0  0  0  0  0  0  0  0  0  0
    5.7030  -11.8740    1.1440 C   0  0  0  0  0  0  0  0  0  0  0  0
    4.3160  -11.6810    1.2190 C   0  0  0  0  0  0  0  0  0  0  0  0
    3.4270  -12.6720    0.7910 C   0  0  0  0  0  0  0  0  0  0  0  0
    2.0480  -12.3980    0.9070 N   0  0  0  0  0  0  0  0  0  0  0  0
    1.2560  -11.7030    0.0130 C   0  0  0  0  0  0  0  0  0  0  0  0
    1.6230  -11.1230   -1.0020 O   0  0  0  0  0  0  0  0  0  0  0  0
   -0.1860  -11.6340    0.3730 C   0  0  0  0  0  0  0  0  0  0  0  0
   -0.8760  -10.4480    0.1240 C   0  0  0  0  0  0  0  0  0  0  0  0
   -2.2160  -10.3960    0.4590 C   0  0  0  0  0  0  0  0  0  0  0  0
   -2.8910  -11.4300    1.0040 N   0  0  0  0  0  0  0  0  0  0  0  0
   -2.2050  -12.5740    1.2090 C   0  0  0  0  0  0  0  0  0  0  0  0
   -0.8630  -12.7290    0.9120 C   0  0  0  0  0  0  0  0  0  0  0  0
    3.9490  -13.8630    0.2920 C   0  0  0  0  0  0  0  0  0  0  0  0
    5.3350  -14.0570    0.2170 C   0  0  0  0  0  0  0  0  0  0  0  0
   11.7110  -12.4000   -0.8780 N   0  0  0  0  0  0  0  0  0  0  0  0
   12.6570  -12.5070   -1.8780 O   0  0  0  0  0  0  0  0  0  0  0  0
   11.3877  -13.6900   -4.9788 H   0  0  0  0  0  0  0  0  0  0  0  0
   12.7655  -12.8573   -5.7755 H   0  0  0  0  0  0  0  0  0  0  0  0
   12.6790  -14.6515   -5.7755 H   0  0  0  0  0  0  0  0  0  0  0  0
   14.0238  -15.3927   -2.6424 H   0  0  0  0  0  0  0  0  0  0  0  0
   13.2831  -15.9260   -4.1896 H   0  0  0  0  0  0  0  0  0  0  0  0
   14.9039  -15.1514   -4.1896 H   0  0  0  0  0  0  0  0  0  0  0  0
   14.6517  -12.4294   -2.9100 H   0  0  0  0  0  0  0  0  0  0  0  0
   15.2319  -13.1176   -4.4644 H   0  0  0  0  0  0  0  0  0  0  0  0
   13.9841  -11.8255   -4.4644 H   0  0  0  0  0  0  0  0  0  0  0  0
   10.5997  -14.9354   -2.7148 H   0  0  0  0  0  0  0  0  0  0  0  0
    9.9530  -13.9550    0.5920 H   0  0  0  0  0  0  0  0  0  0  0  0
    8.0190  -13.8120    1.3190 H   0  0  0  0  0  0  0  0  0  0  0  0
    6.3839  -11.0801    1.4848 H   0  0  0  0  0  0  0  0  0  0  0  0
    3.9214  -10.7360    1.6205 H   0  0  0  0  0  0  0  0  0  0  0  0
    1.6140  -12.7130    1.7640 H   0  0  0  0  0  0  0  0  0  0  0  0
   -0.3696   -9.5808   -0.3250 H   0  0  0  0  0  0  0  0  0  0  0  0
   -2.7626   -9.4601    0.2710 H   0  0  0  0  0  0  0  0  0  0  0  0
   -2.7439  -13.4323    1.6367 H   0  0  0  0  0  0  0  0  0  0  0  0
   -0.3468  -13.6831    1.0945 H   0  0  0  0  0  0  0  0  0  0  0  0
    3.2679  -14.6579   -0.0460 H   0  0  0  0  0  0  0  0  0  0  0  0
    5.7289  -15.0038   -0.1810 H   0  0  0  0  0  0  0  0  0  0  0  0
  1  2  1  0
  2  3  1  0
  2  4  1  0
  2  5  1  0
  5  6  2  0
  6  7  1  0
  7  8  1  0
  8  9  1  0
  9 10  2  0
  9 11  1  0
 11 12  1  0
 12 13  2  0
 13 14  1  0
 14 15  2  0
 15 16  1  0
 16 17  1  0
 17 18  2  0
 17 19  1  0
 19 20  2  0
 20 21  1  0
 21 22  2  0
 22 23  1  0
 23 24  2  0
 15 25  1  0
 25 26  2  0
  7 27  2  0
 27 28  1  0
 28  5  1  0
 26 12  1  0
 24 19  1  0
  1 29  1  0
  1 30  1  0
  1 31  1  0
  3 32  1  0
  3 33  1  0
  3 34  1  0
  4 35  1  0
  4 36  1  0
  4 37  1  0
  6 38  1  0
  8 39  1  0
 11 40  1  0
 13 41  1  0
 14 42  1  0
 16 43  1  0
 20 44  1  0
 21 45  1  0
 23 46  1  0
 24 47  1  0
 25 48  1  0
 26 49  1  0
M  END
>  <meeko>  (9) 
{"is_sidechain": [false], "free_energy": -6.74, "intermolecular_energy": -8.686, "internal_energy": -0.756}

$$$$
