LIB_YMNLMXSYVMONGN__M_PUB_ALL__e8__s20260927
     RDKit          3D

102109  0  0  0  0  0  0  0  0999 V2000
   -0.7630  -17.8320    3.5900 C   0  0  0  0  0  0  0  0  0  0  0  0
   -1.0980  -16.3480    3.4600 C   0  0  2  0  0  0  0  0  0  0  0  0
   -2.6310  -16.1320    3.4780 C   0  0  0  0  0  0  0  0  0  0  0  0
   -3.0240  -14.6620    3.1900 C   0  0  1  0  0  0  0  0  0  0  0  0
   -1.8240  -13.8840    3.0600 O   0  0  0  0  0  0  0  0  0  0  0  0
   -1.2300  -14.3850    1.8320 C   0  0  1  0  0  0  0  0  0  0  0  0
   -2.4400  -14.6550    0.9070 C   0  0  0  0  0  0  0  0  0  0  0  0
   -3.6630  -14.4410    1.8120 C   0  0  2  0  0  0  0  0  0  0  0  0
   -4.2640  -13.0080    1.6220 C   0  0  0  0  0  0  0  0  0  0  0  0
   -4.0880  -12.5280    0.1730 C   0  0  0  0  0  0  0  0  0  0  0  0
   -5.7590  -12.9520    1.9660 C   0  0  0  0  0  0  0  0  0  0  0  0
   -3.5860  -12.0620    2.4610 O   0  0  0  0  0  0  0  0  0  0  0  0
   -0.1540  -13.3810    1.3440 C   0  0  2  0  0  0  0  0  0  0  0  0
   -0.6040  -12.5350    0.2980 O   0  0  0  0  0  0  0  0  0  0  0  0
    1.0540  -14.2740    0.9620 C   0  0  1  0  0  0  0  0  0  0  0  0
    0.7930  -14.8950   -0.4470 C   0  0  0  0  0  0  0  0  0  0  0  0
    2.4240  -13.5380    0.9700 C   0  0  2  0  0  0  0  0  0  0  0  0
    2.6230  -12.5660   -0.2010 C   0  0  0  0  0  0  0  0  0  0  0  0
    3.9690  -11.8530   -0.0960 C   0  0  0  0  0  0  0  0  0  0  0  0
    5.1100  -12.8510   -0.3400 C   0  0  1  0  0  0  0  0  0  0  0  0
    6.5520  -12.2320   -0.3130 C   0  0  0  0  0  0  0  0  0  0  0  0
    6.9090  -11.6150    1.0570 C   0  0  0  0  0  0  0  0  0  0  0  0
    6.6640  -11.0940   -1.3580 C   0  0  0  0  0  0  0  0  0  0  0  0
    7.5720  -13.3500   -0.7140 C   0  0  1  0  0  0  0  0  0  0  0  0
    8.9110  -12.8530   -0.5760 O   0  0  0  0  0  0  0  0  0  0  0  0
    9.8110  -13.3500   -1.5700 C   0  0  2  0  0  0  0  0  0  0  0  0
   10.7810  -14.2530   -1.0310 O   0  0  0  0  0  0  0  0  0  0  0  0
   11.9450  -13.5900   -0.5440 C   0  0  0  0  0  0  0  0  0  0  0  0
   12.7320  -12.9390   -1.6870 C   0  0  2  0  0  0  0  0  0  0  0  0
   13.4320  -11.7940   -1.1830 O   0  0  0  0  0  0  0  0  0  0  0  0
   11.8050  -12.5230   -2.8370 C   0  0  2  0  0  0  0  0  0  0  0  0
   12.3930  -11.4250   -3.5560 O   0  0  0  0  0  0  0  0  0  0  0  0
   10.4420  -12.1270   -2.2780 C   0  0  1  0  0  0  0  0  0  0  0  0
    9.6080  -11.6440   -3.3460 O   0  0  0  0  0  0  0  0  0  0  0  0
    7.4350  -14.6070    0.1510 C   0  0  0  0  0  0  0  0  0  0  0  0
    6.0170  -15.1610    0.1210 C   0  0  0  0  0  0  0  0  0  0  0  0
    5.0130  -14.1010    0.5470 C   0  0  1  0  0  0  0  0  0  0  0  0
    4.7380  -14.0000    2.0250 C   0  0  0  0  0  0  0  0  0  0  0  0
    3.6260  -14.5150    1.1210 C   0  0  1  0  0  0  0  0  0  0  0  0
    3.3190  -16.0160    1.1850 C   0  0  0  0  0  0  0  0  0  0  0  0
    1.9800  -16.4650    1.7940 C   0  0  0  0  0  0  0  0  0  0  0  0
    1.0230  -15.3220    2.1410 C   0  0  1  0  0  0  0  0  0  0  0  0
    1.4550  -14.7530    3.5250 C   0  0  0  0  0  0  0  0  0  0  0  0
   -0.4910  -15.7160    2.1810 C   0  0  1  0  0  0  0  0  0  0  0  0
   -0.7020  -18.1022    4.6545 H   0  0  0  0  0  0  0  0  0  0  0  0
   -1.5489  -18.4292    3.1046 H   0  0  0  0  0  0  0  0  0  0  0  0
    0.2033  -18.0337    3.1046 H   0  0  0  0  0  0  0  0  0  0  0  0
   -0.6467  -15.8425    4.3265 H   0  0  0  0  0  0  0  0  0  0  0  0
   -3.0874  -16.7762    2.7120 H   0  0  0  0  0  0  0  0  0  0  0  0
   -2.9933  -16.3846    4.4855 H   0  0  0  0  0  0  0  0  0  0  0  0
   -3.7096  -14.3936    4.0072 H   0  0  0  0  0  0  0  0  0  0  0  0
   -2.4510  -13.9492    0.0633 H   0  0  0  0  0  0  0  0  0  0  0  0
   -2.4150  -15.6617    0.4644 H   0  0  0  0  0  0  0  0  0  0  0  0
   -4.5237  -15.0977    1.6173 H   0  0  0  0  0  0  0  0  0  0  0  0
   -3.7093  -11.4952    0.1723 H   0  0  0  0  0  0  0  0  0  0  0  0
   -3.3711  -13.1818   -0.3453 H   0  0  0  0  0  0  0  0  0  0  0  0
   -5.0576  -12.5634   -0.3453 H   0  0  0  0  0  0  0  0  0  0  0  0
   -5.8838  -12.9473    3.0589 H   0  0  0  0  0  0  0  0  0  0  0  0
   -6.1986  -12.0368    1.5428 H   0  0  0  0  0  0  0  0  0  0  0  0
   -6.2658  -13.8318    1.5428 H   0  0  0  0  0  0  0  0  0  0  0  0
   -4.0180  -12.1120    3.3390 H   0  0  0  0  0  0  0  0  0  0  0  0
    0.1156  -12.6516    2.1220 H   0  0  0  0  0  0  0  0  0  0  0  0
    0.1000  -12.5240   -0.3840 H   0  0  0  0  0  0  0  0  0  0  0  0
    0.3692  -15.9034   -0.3305 H   0  0  0  0  0  0  0  0  0  0  0  0
    0.0850  -14.2615   -1.0015 H   0  0  0  0  0  0  0  0  0  0  0  0
    1.7410  -14.9575   -1.0015 H   0  0  0  0  0  0  0  0  0  0  0  0
    2.3957  -12.9093    1.8721 H   0  0  0  0  0  0  0  0  0  0  0  0
    2.5863  -13.1283   -1.1457 H   0  0  0  0  0  0  0  0  0  0  0  0
    1.8230  -11.8117   -0.1708 H   0  0  0  0  0  0  0  0  0  0  0  0
    4.0174  -11.0526   -0.8490 H   0  0  0  0  0  0  0  0  0  0  0  0
    4.0733  -11.4231    0.9111 H   0  0  0  0  0  0  0  0  0  0  0  0
    4.9546  -13.1695   -1.3814 H   0  0  0  0  0  0  0  0  0  0  0  0
    6.5330  -12.2648    1.8610 H   0  0  0  0  0  0  0  0  0  0  0  0
    8.0015  -11.5202    1.1429 H   0  0  0  0  0  0  0  0  0  0  0  0
    6.4467  -10.6205    1.1429 H   0  0  0  0  0  0  0  0  0  0  0  0
    6.7590  -10.1284   -0.8398 H   0  0  0  0  0  0  0  0  0  0  0  0
    7.5501  -11.2607   -1.9881 H   0  0  0  0  0  0  0  0  0  0  0  0
    5.7624  -11.0848   -1.9881 H   0  0  0  0  0  0  0  0  0  0  0  0
    7.3534  -13.6229   -1.7569 H   0  0  0  0  0  0  0  0  0  0  0  0
    9.2640  -13.9572   -2.3063 H   0  0  0  0  0  0  0  0  0  0  0  0
   11.6415  -12.8115    0.1714 H   0  0  0  0  0  0  0  0  0  0  0  0
   12.5913  -14.3347   -0.0564 H   0  0  0  0  0  0  0  0  0  0  0  0
   13.4485  -13.6736   -2.0831 H   0  0  0  0  0  0  0  0  0  0  0  0
   13.4660  -11.9350   -0.2110 H   0  0  0  0  0  0  0  0  0  0  0  0
   11.6708  -13.3676   -3.5288 H   0  0  0  0  0  0  0  0  0  0  0  0
   12.4680  -11.7460   -4.4790 H   0  0  0  0  0  0  0  0  0  0  0  0
   10.5484  -11.3181   -1.5402 H   0  0  0  0  0  0  0  0  0  0  0  0
    8.6930  -11.6910   -3.0070 H   0  0  0  0  0  0  0  0  0  0  0  0
    8.1258  -15.3757   -0.2257 H   0  0  0  0  0  0  0  0  0  0  0  0
    7.6746  -14.3356    1.1897 H   0  0  0  0  0  0  0  0  0  0  0  0
    5.7806  -15.4913   -0.9013 H   0  0  0  0  0  0  0  0  0  0  0  0
    5.9545  -16.0070    0.8213 H   0  0  0  0  0  0  0  0  0  0  0  0
    5.2381  -14.6900    2.7206 H   0  0  0  0  0  0  0  0  0  0  0  0
    4.8111  -13.1893    2.7649 H   0  0  0  0  0  0  0  0  0  0  0  0
    3.3516  -16.3985    0.1542 H   0  0  0  0  0  0  0  0  0  0  0  0
    4.0767  -16.4171    1.8742 H   0  0  0  0  0  0  0  0  0  0  0  0
    1.4784  -17.1250    1.0710 H   0  0  0  0  0  0  0  0  0  0  0  0
    2.2216  -16.9681    2.7419 H   0  0  0  0  0  0  0  0  0  0  0  0
    0.9994  -15.3530    4.3265 H   0  0  0  0  0  0  0  0  0  0  0  0
    2.5507  -14.7952    3.6130 H   0  0  0  0  0  0  0  0  0  0  0  0
    1.1200  -13.7090    3.6130 H   0  0  0  0  0  0  0  0  0  0  0  0
   -0.6153  -16.5582    1.4844 H   0  0  0  0  0  0  0  0  0  0  0  0
  1  2  1  0
  2  3  1  0
  3  4  1  0
  4  5  1  0
  5  6  1  0
  6  7  1  6
  7  8  1  0
  8  9  1  0
  9 10  1  0
  9 11  1  0
  9 12  1  0
  6 13  1  0
 13 14  1  0
 13 15  1  0
 15 16  1  6
 15 17  1  0
 17 18  1  0
 18 19  1  0
 19 20  1  0
 20 21  1  0
 21 22  1  0
 21 23  1  0
 21 24  1  0
 24 25  1  0
 25 26  1  0
 26 27  1  0
 27 28  1  0
 28 29  1  0
 29 30  1  0
 29 31  1  0
 31 32  1  0
 31 33  1  0
 33 34  1  0
 24 35  1  0
 35 36  1  0
 37 36  1  1
 37 38  1  0
 39 38  1  1
 39 40  1  0
 40 41  1  0
 41 42  1  0
 42 43  1  1
 42 44  1  0
 44  2  1  0
  8  4  1  0
 42 15  1  0
 44  6  1  0
 39 17  1  0
 37 20  1  0
 33 26  1  0
 39 37  1  0
  1 45  1  0
  1 46  1  0
  1 47  1  0
  2 48  1  1
  3 49  1  0
  3 50  1  0
  4 51  1  1
  7 52  1  0
  7 53  1  0
  8 54  1  6
 10 55  1  0
 10 56  1  0
 10 57  1  0
 11 58  1  0
 11 59  1  0
 11 60  1  0
 12 61  1  0
 13 62  1  1
 14 63  1  0
 16 64  1  0
 16 65  1  0
 16 66  1  0
 17 67  1  1
 18 68  1  0
 18 69  1  0
 19 70  1  0
 19 71  1  0
 20 72  1  6
 22 73  1  0
 22 74  1  0
 22 75  1  0
 23 76  1  0
 23 77  1  0
 23 78  1  0
 24 79  1  6
 26 80  1  6
 28 81  1  0
 28 82  1  0
 29 83  1  6
 30 84  1  0
 31 85  1  6
 32 86  1  0
 33 87  1  1
 34 88  1  0
 35 89  1  0
 35 90  1  0
 36 91  1  0
 36 92  1  0
 38 93  1  0
 38 94  1  0
 40 95  1  0
 40 96  1  0
 41 97  1  0
 41 98  1  0
 43 99  1  0
 43100  1  0
 43101  1  0
 44102  1  6
M  END
>  <meeko>  (1) 
{"is_sidechain": [false], "free_energy": -9.423, "intermolecular_energy": -12.453, "internal_energy": -0.886}

$$$$
LIB_YMNLMXSYVMONGN__M_PUB_ALL__e8__s20260927
     RDKit          3D

102109  0  0  0  0  0  0  0  0999 V2000
    0.4380  -10.4700    0.8890 C   0  0  0  0  0  0  0  0  0  0  0  0
    0.2430  -11.8770    0.3290 C   0  0  2  0  0  0  0  0  0  0  0  0
   -1.1480  -12.4320    0.7220 C   0  0  0  0  0  0  0  0  0  0  0  0
   -1.3310  -13.9140    0.3130 C   0  0  1  0  0  0  0  0  0  0  0  0
   -0.1580  -14.3400   -0.3990 O   0  0  0  0  0  0  0  0  0  0  0  0
    0.8760  -14.3340    0.6220 C   0  0  1  0  0  0  0  0  0  0  0  0
    0.1540  -14.8300    1.8980 C   0  0  0  0  0  0  0  0  0  0  0  0
   -1.3260  -14.8970    1.4920 C   0  0  2  0  0  0  0  0  0  0  0  0
   -1.7400  -16.3530    1.0960 C   0  0  0  0  0  0  0  0  0  0  0  0
   -2.0730  -17.1860    2.3440 C   0  0  0  0  0  0  0  0  0  0  0  0
   -2.9590  -16.3810    0.1640 C   0  0  0  0  0  0  0  0  0  0  0  0
   -0.6600  -17.0190    0.4250 O   0  0  0  0  0  0  0  0  0  0  0  0
    2.0930  -15.1480    0.1150 C   0  0  2  0  0  0  0  0  0  0  0  0
    2.1530  -16.4640    0.6440 O   0  0  0  0  0  0  0  0  0  0  0  0
    3.3170  -14.2660    0.4710 C   0  0  1  0  0  0  0  0  0  0  0  0
    3.6460  -14.4520    1.9860 C   0  0  0  0  0  0  0  0  0  0  0  0
    4.5840  -14.5500   -0.3840 C   0  0  2  0  0  0  0  0  0  0  0  0
    5.2900  -15.8700   -0.0430 C   0  0  0  0  0  0  0  0  0  0  0  0
    6.4940  -16.0960   -0.9540 C   0  0  0  0  0  0  0  0  0  0  0  0
    7.5950  -15.0770   -0.6290 C   0  0  1  0  0  0  0  0  0  0  0  0
    8.9150  -15.2360   -1.4620 C   0  0  0  0  0  0  0  0  0  0  0  0
    8.6900  -15.0410   -2.9780 C   0  0  0  0  0  0  0  0  0  0  0  0
    9.4960  -16.6600   -1.2770 C   0  0  0  0  0  0  0  0  0  0  0  0
    9.9680  -14.2160   -0.9110 C   0  0  1  0  0  0  0  0  0  0  0  0
   11.1440  -14.2450   -1.7320 O   0  0  0  0  0  0  0  0  0  0  0  0
   11.4870  -12.9730   -2.2860 C   0  0  2  0  0  0  0  0  0  0  0  0
   11.1810  -12.8790   -3.6810 O   0  0  0  0  0  0  0  0  0  0  0  0
   12.2400  -13.3440   -4.5130 C   0  0  0  0  0  0  0  0  0  0  0  0
   13.4700  -12.4340   -4.4070 C   0  0  2  0  0  0  0  0  0  0  0  0
   14.6500  -13.2080   -4.6580 O   0  0  0  0  0  0  0  0  0  0  0  0
   13.5580  -11.7760   -3.0230 C   0  0  2  0  0  0  0  0  0  0  0  0
   14.9310  -11.4670   -2.7240 O   0  0  0  0  0  0  0  0  0  0  0  0
   12.9810  -12.7160   -1.9700 C   0  0  1  0  0  0  0  0  0  0  0  0
   13.1550  -12.1390   -0.6640 O   0  0  0  0  0  0  0  0  0  0  0  0
    9.4360  -12.7800   -0.8840 C   0  0  0  0  0  0  0  0  0  0  0  0
    8.1410  -12.6720   -0.0910 C   0  0  0  0  0  0  0  0  0  0  0  0
    7.0900  -13.6260   -0.6380 C   0  0  1  0  0  0  0  0  0  0  0  0
    6.2270  -13.0980   -1.7530 C   0  0  0  0  0  0  0  0  0  0  0  0
    5.5770  -13.3520   -0.4000 C   0  0  1  0  0  0  0  0  0  0  0  0
    5.2150  -12.1180    0.4380 C   0  0  0  0  0  0  0  0  0  0  0  0
    3.7300  -11.7860    0.6500 C   0  0  0  0  0  0  0  0  0  0  0  0
    2.7570  -12.8360    0.1060 C   0  0  1  0  0  0  0  0  0  0  0  0
    2.5930  -12.5750   -1.4200 C   0  0  0  0  0  0  0  0  0  0  0  0
    1.3520  -12.8560    0.7940 C   0  0  1  0  0  0  0  0  0  0  0  0
    0.4326  -10.5089    1.9883 H   0  0  0  0  0  0  0  0  0  0  0  0
    1.4006  -10.0670    0.5411 H   0  0  0  0  0  0  0  0  0  0  0  0
   -0.3787   -9.8204    0.5411 H   0  0  0  0  0  0  0  0  0  0  0  0
    0.3090  -11.7958   -0.7660 H   0  0  0  0  0  0  0  0  0  0  0  0
   -1.2656  -12.3497    1.8126 H   0  0  0  0  0  0  0  0  0  0  0  0
   -1.9071  -11.8413    0.1882 H   0  0  0  0  0  0  0  0  0  0  0  0
   -2.2856  -13.9347   -0.2332 H   0  0  0  0  0  0  0  0  0  0  0  0
    0.5227  -15.8233    2.1937 H   0  0  0  0  0  0  0  0  0  0  0  0
    0.3244  -14.1705    2.7617 H   0  0  0  0  0  0  0  0  0  0  0  0
   -2.0498  -14.6404    2.2796 H   0  0  0  0  0  0  0  0  0  0  0  0
   -1.8399  -16.6028    3.2471 H   0  0  0  0  0  0  0  0  0  0  0  0
   -3.1427  -17.4423    2.3391 H   0  0  0  0  0  0  0  0  0  0  0  0
   -1.4748  -18.1091    2.3391 H   0  0  0  0  0  0  0  0  0  0  0  0
   -3.8799  -16.4022    0.7653 H   0  0  0  0  0  0  0  0  0  0  0  0
   -2.9560  -15.4826   -0.4706 H   0  0  0  0  0  0  0  0  0  0  0  0
   -2.9148  -17.2784   -0.4706 H   0  0  0  0  0  0  0  0  0  0  0  0
   -1.0260  -17.8580    0.0770 H   0  0  0  0  0  0  0  0  0  0  0  0
    2.0390  -15.3427   -0.9663 H   0  0  0  0  0  0  0  0  0  0  0  0
    1.8860  -17.0740   -0.0750 H   0  0  0  0  0  0  0  0  0  0  0  0
    2.8473  -14.0005    2.5928 H   0  0  0  0  0  0  0  0  0  0  0  0
    3.7192  -15.5251    2.2163 H   0  0  0  0  0  0  0  0  0  0  0  0
    4.6033  -13.9614    2.2163 H   0  0  0  0  0  0  0  0  0  0  0  0
    4.2034  -14.6748   -1.4085 H   0  0  0  0  0  0  0  0  0  0  0  0
    5.6308  -15.8364    1.0023 H   0  0  0  0  0  0  0  0  0  0  0  0
    4.5790  -16.6964   -0.1894 H   0  0  0  0  0  0  0  0  0  0  0  0
    6.8820  -17.1136   -0.7996 H   0  0  0  0  0  0  0  0  0  0  0  0
    6.1833  -15.9710   -2.0018 H   0  0  0  0  0  0  0  0  0  0  0  0
    7.8776  -15.3245    0.4048 H   0  0  0  0  0  0  0  0  0  0  0  0
    7.8676  -14.3282   -3.1379 H   0  0  0  0  0  0  0  0  0  0  0  0
    9.6093  -14.6492   -3.4377 H   0  0  0  0  0  0  0  0  0  0  0  0
    8.4329  -16.0067   -3.4377 H   0  0  0  0  0  0  0  0  0  0  0  0
    9.5867  -16.8824   -0.2035 H   0  0  0  0  0  0  0  0  0  0  0  0
    8.8253  -17.3937   -1.7480 H   0  0  0  0  0  0  0  0  0  0  0  0
   10.4885  -16.7151   -1.7480 H   0  0  0  0  0  0  0  0  0  0  0  0
   10.1957  -14.5191    0.1216 H   0  0  0  0  0  0  0  0  0  0  0  0
   10.8742  -12.1834   -1.8267 H   0  0  0  0  0  0  0  0  0  0  0  0
   12.5191  -14.3619   -4.2031 H   0  0  0  0  0  0  0  0  0  0  0  0
   11.8913  -13.3377   -5.5563 H   0  0  0  0  0  0  0  0  0  0  0  0
   13.3806  -11.6323   -5.1549 H   0  0  0  0  0  0  0  0  0  0  0  0
   15.0820  -13.2900   -3.7790 H   0  0  0  0  0  0  0  0  0  0  0  0
   12.9753  -10.8430   -3.0193 H   0  0  0  0  0  0  0  0  0  0  0  0
   15.4230  -11.7150   -3.5340 H   0  0  0  0  0  0  0  0  0  0  0  0
   13.5085  -13.6812   -1.9852 H   0  0  0  0  0  0  0  0  0  0  0  0
   12.5710  -11.3560   -0.6430 H   0  0  0  0  0  0  0  0  0  0  0  0
   10.1922  -12.1287   -0.4214 H   0  0  0  0  0  0  0  0  0  0  0  0
    9.2296  -12.4722   -1.9197 H   0  0  0  0  0  0  0  0  0  0  0  0
    8.3411  -12.9213    0.9615 H   0  0  0  0  0  0  0  0  0  0  0  0
    7.7609  -11.6432   -0.1759 H   0  0  0  0  0  0  0  0  0  0  0  0
    6.3645  -12.0653   -2.1061 H   0  0  0  0  0  0  0  0  0  0  0  0
    6.0140  -13.4288   -2.7803 H   0  0  0  0  0  0  0  0  0  0  0  0
    5.6616  -12.2590    1.4333 H   0  0  0  0  0  0  0  0  0  0  0  0
    5.5991  -11.2712   -0.1497 H   0  0  0  0  0  0  0  0  0  0  0  0
    3.5528  -11.6816    1.7306 H   0  0  0  0  0  0  0  0  0  0  0  0
    3.5348  -10.8603    0.0888 H   0  0  0  0  0  0  0  0  0  0  0  0
    2.0135  -11.6528   -1.5741 H   0  0  0  0  0  0  0  0  0  0  0  0
    3.5853  -12.4661   -1.8821 H   0  0  0  0  0  0  0  0  0  0  0  0
    2.0643  -13.4217   -1.8821 H   0  0  0  0  0  0  0  0  0  0  0  0
    1.4993  -12.4910    1.8212 H   0  0  0  0  0  0  0  0  0  0  0  0
  1  2  1  0
  2  3  1  0
  3  4  1  0
  4  5  1  0
  5  6  1  0
  6  7  1  1
  7  8  1  0
  8  9  1  0
  9 10  1  0
  9 11  1  0
  9 12  1  0
  6 13  1  0
 13 14  1  0
 13 15  1  0
 15 16  1  1
 15 17  1  0
 17 18  1  0
 18 19  1  0
 19 20  1  0
 20 21  1  0
 21 22  1  0
 21 23  1  0
 21 24  1  0
 24 25  1  0
 25 26  1  0
 26 27  1  0
 27 28  1  0
 28 29  1  0
 29 30  1  0
 29 31  1  0
 31 32  1  0
 31 33  1  0
 33 34  1  0
 24 35  1  0
 35 36  1  0
 37 36  1  1
 37 38  1  0
 39 38  1  6
 39 40  1  0
 40 41  1  0
 41 42  1  0
 42 43  1  6
 42 44  1  0
 44  2  1  0
  8  4  1  0
 42 15  1  0
 44  6  1  0
 39 17  1  0
 37 20  1  0
 33 26  1  0
 39 37  1  0
  1 45  1  0
  1 46  1  0
  1 47  1  0
  2 48  1  6
  3 49  1  0
  3 50  1  0
  4 51  1  6
  7 52  1  0
  7 53  1  0
  8 54  1  1
 10 55  1  0
 10 56  1  0
 10 57  1  0
 11 58  1  0
 11 59  1  0
 11 60  1  0
 12 61  1  0
 13 62  1  6
 14 63  1  0
 16 64  1  0
 16 65  1  0
 16 66  1  0
 17 67  1  6
 18 68  1  0
 18 69  1  0
 19 70  1  0
 19 71  1  0
 20 72  1  1
 22 73  1  0
 22 74  1  0
 22 75  1  0
 23 76  1  0
 23 77  1  0
 23 78  1  0
 24 79  1  1
 26 80  1  1
 28 81  1  0
 28 82  1  0
 29 83  1  6
 30 84  1  0
 31 85  1  6
 32 86  1  0
 33 87  1  1
 34 88  1  0
 35 89  1  0
 35 90  1  0
 36 91  1  0
 36 92  1  0
 38 93  1  0
 38 94  1  0
 40 95  1  0
 40 96  1  0
 41 97  1  0
 41 98  1  0
 43 99  1  0
 43100  1  0
 43101  1  0
 44102  1  1
M  END
>  <meeko>  (2) 
{"is_sidechain": [false], "free_energy": -9.156, "intermolecular_energy": -12.119, "internal_energy": -0.866}

$$$$
LIB_YMNLMXSYVMONGN__M_PUB_ALL__e8__s20260927
     RDKit          3D

102109  0  0  0  0  0  0  0  0999 V2000
   -2.3780  -12.0320    1.4580 C   0  0  0  0  0  0  0  0  0  0  0  0
   -2.1860  -13.5410    1.3170 C   0  0  2  0  0  0  0  0  0  0  0  0
   -3.2860  -14.3050    2.0940 C   0  0  0  0  0  0  0  0  0  0  0  0
   -3.0430  -15.8340    2.1130 C   0  0  1  0  0  0  0  0  0  0  0  0
   -1.8810  -16.1230    1.3200 O   0  0  0  0  0  0  0  0  0  0  0  0
   -0.7950  -15.5380    2.0900 C   0  0  1  0  0  0  0  0  0  0  0  0
   -1.1850  -15.8080    3.5620 C   0  0  0  0  0  0  0  0  0  0  0  0
   -2.6060  -16.3850    3.4770 C   0  0  2  0  0  0  0  0  0  0  0  0
   -2.5880  -17.9490    3.5460 C   0  0  0  0  0  0  0  0  0  0  0  0
   -1.8410  -18.4330    4.7980 C   0  0  0  0  0  0  0  0  0  0  0  0
   -4.0010  -18.5480    3.5700 C   0  0  0  0  0  0  0  0  0  0  0  0
   -1.9010  -18.4940    2.4100 O   0  0  0  0  0  0  0  0  0  0  0  0
    0.5510  -16.1100    1.5800 C   0  0  2  0  0  0  0  0  0  0  0  0
    1.0740  -17.1440    2.4000 O   0  0  0  0  0  0  0  0  0  0  0  0
    1.4730  -14.8690    1.4630 C   0  0  1  0  0  0  0  0  0  0  0  0
    2.0060  -14.5030    2.8840 C   0  0  0  0  0  0  0  0  0  0  0  0
    2.6650  -15.0440    0.4800 C   0  0  2  0  0  0  0  0  0  0  0  0
    3.7780  -15.9650    0.9990 C   0  0  0  0  0  0  0  0  0  0  0  0
    4.8870  -16.1200   -0.0390 C   0  0  0  0  0  0  0  0  0  0  0  0
    5.6450  -14.7950   -0.1960 C   0  0  1  0  0  0  0  0  0  0  0  0
    6.8510  -14.8350   -1.1990 C   0  0  0  0  0  0  0  0  0  0  0  0
    6.4140  -15.1640   -2.6440 C   0  0  0  0  0  0  0  0  0  0  0  0
    7.8610  -15.9310   -0.7780 C   0  0  0  0  0  0  0  0  0  0  0  0
    7.5890  -13.4550   -1.1330 C   0  0  1  0  0  0  0  0  0  0  0  0
    8.6200  -13.4110   -2.1290 O   0  0  0  0  0  0  0  0  0  0  0  0
    9.5750  -12.3670   -1.9200 C   0  0  2  0  0  0  0  0  0  0  0  0
   10.1380  -11.8830   -3.1430 O   0  0  0  0  0  0  0  0  0  0  0  0
   11.2830  -12.6230   -3.5570 C   0  0  0  0  0  0  0  0  0  0  0  0
   12.4510  -12.4290   -2.5830 C   0  0  2  0  0  0  0  0  0  0  0  0
   13.2760  -13.6010   -2.5990 O   0  0  0  0  0  0  0  0  0  0  0  0
   11.9490  -12.1600   -1.1570 C   0  0  2  0  0  0  0  0  0  0  0  0
   12.9420  -12.5880   -0.2090 O   0  0  0  0  0  0  0  0  0  0  0  0
   10.6360  -12.9000   -0.9280 C   0  0  1  0  0  0  0  0  0  0  0  0
   10.2200  -12.7260    0.4380 O   0  0  0  0  0  0  0  0  0  0  0  0
    6.6440  -12.2720   -1.3660 C   0  0  0  0  0  0  0  0  0  0  0  0
    5.4740  -12.2840   -0.3920 C   0  0  0  0  0  0  0  0  0  0  0  0
    4.7180  -13.6020   -0.4710 C   0  0  1  0  0  0  0  0  0  0  0  0
    3.6180  -13.6790   -1.4970 C   0  0  0  0  0  0  0  0  0  0  0  0
    3.2290  -13.6840   -0.0250 C   0  0  1  0  0  0  0  0  0  0  0  0
    2.5960  -12.4020    0.5300 C   0  0  0  0  0  0  0  0  0  0  0  0
    1.1130  -12.4320    0.9320 C   0  0  0  0  0  0  0  0  0  0  0  0
    0.4610  -13.8150    0.8650 C   0  0  1  0  0  0  0  0  0  0  0  0
    0.0590  -14.0710   -0.6170 C   0  0  0  0  0  0  0  0  0  0  0  0
   -0.7860  -14.0050    1.7910 C   0  0  1  0  0  0  0  0  0  0  0  0
   -2.4120  -11.7648    2.5245 H   0  0  0  0  0  0  0  0  0  0  0  0
   -1.5392  -11.5090    0.9755 H   0  0  0  0  0  0  0  0  0  0  0  0
   -3.3211  -11.7357    0.9755 H   0  0  0  0  0  0  0  0  0  0  0  0
   -2.2665  -13.7731    0.2448 H   0  0  0  0  0  0  0  0  0  0  0  0
   -3.3057  -13.9377    3.1307 H   0  0  0  0  0  0  0  0  0  0  0  0
   -4.2435  -14.1244    1.5835 H   0  0  0  0  0  0  0  0  0  0  0  0
   -3.9976  -16.2693    1.7825 H   0  0  0  0  0  0  0  0  0  0  0  0
   -0.4967  -16.5329    4.0210 H   0  0  0  0  0  0  0  0  0  0  0  0
   -1.1353  -14.9018    4.1835 H   0  0  0  0  0  0  0  0  0  0  0  0
   -3.2842  -16.1101    4.2983 H   0  0  0  0  0  0  0  0  0  0  0  0
   -2.3721  -18.0889    5.6978 H   0  0  0  0  0  0  0  0  0  0  0  0
   -1.7964  -19.5321    4.7964 H   0  0  0  0  0  0  0  0  0  0  0  0
   -0.8196  -18.0246    4.7964 H   0  0  0  0  0  0  0  0  0  0  0  0
   -4.3236  -18.6848    4.6127 H   0  0  0  0  0  0  0  0  0  0  0  0
   -4.6966  -17.8673    3.0573 H   0  0  0  0  0  0  0  0  0  0  0  0
   -3.9955  -19.5212    3.0573 H   0  0  0  0  0  0  0  0  0  0  0  0
   -2.3560  -19.3330    2.1890 H   0  0  0  0  0  0  0  0  0  0  0  0
    0.4416  -16.6232    0.6132 H   0  0  0  0  0  0  0  0  0  0  0  0
    0.7880  -16.9530    3.3180 H   0  0  0  0  0  0  0  0  0  0  0  0
    1.3530  -14.9514    3.6473 H   0  0  0  0  0  0  0  0  0  0  0  0
    3.0287  -14.8903    3.0030 H   0  0  0  0  0  0  0  0  0  0  0  0
    2.0119  -13.4095    3.0030 H   0  0  0  0  0  0  0  0  0  0  0  0
    2.2336  -15.5634   -0.3884 H   0  0  0  0  0  0  0  0  0  0  0  0
    4.2026  -15.5341    1.9177 H   0  0  0  0  0  0  0  0  0  0  0  0
    3.3468  -16.9563    1.2025 H   0  0  0  0  0  0  0  0  0  0  0  0
    5.5862  -16.9035    0.2886 H   0  0  0  0  0  0  0  0  0  0  0  0
    4.4418  -16.3990   -1.0054 H   0  0  0  0  0  0  0  0  0  0  0  0
    6.0997  -14.6401    0.7936 H   0  0  0  0  0  0  0  0  0  0  0  0
    5.5354  -15.8254   -2.6198 H   0  0  0  0  0  0  0  0  0  0  0  0
    6.1575  -14.2329   -3.1705 H   0  0  0  0  0  0  0  0  0  0  0  0
    7.2379  -15.6679   -3.1705 H   0  0  0  0  0  0  0  0  0  0  0  0
    7.9091  -15.9832    0.3197 H   0  0  0  0  0  0  0  0  0  0  0  0
    7.5352  -16.9028   -1.1773 H   0  0  0  0  0  0  0  0  0  0  0  0
    8.8561  -15.6855   -1.1773 H   0  0  0  0  0  0  0  0  0  0  0  0
    8.0096  -13.3660   -0.1205 H   0  0  0  0  0  0  0  0  0  0  0  0
    9.0813  -11.4839   -1.4884 H   0  0  0  0  0  0  0  0  0  0  0  0
   11.0240  -13.6913   -3.5983 H   0  0  0  0  0  0  0  0  0  0  0  0
   11.5924  -12.2601   -4.5482 H   0  0  0  0  0  0  0  0  0  0  0  0
   13.0350  -11.5539   -2.9041 H   0  0  0  0  0  0  0  0  0  0  0  0
   12.9550  -14.1170   -3.3710 H   0  0  0  0  0  0  0  0  0  0  0  0
   11.7734  -11.0824   -1.0229 H   0  0  0  0  0  0  0  0  0  0  0  0
   13.4730  -11.7860   -0.0260 H   0  0  0  0  0  0  0  0  0  0  0  0
   10.7648  -13.9776   -1.1073 H   0  0  0  0  0  0  0  0  0  0  0  0
    9.8090  -13.5740    0.6980 H   0  0  0  0  0  0  0  0  0  0  0  0
    7.2065  -11.3357   -1.2357 H   0  0  0  0  0  0  0  0  0  0  0  0
    6.2409  -12.3517   -2.3864 H   0  0  0  0  0  0  0  0  0  0  0  0
    5.8550  -12.1477    0.6309 H   0  0  0  0  0  0  0  0  0  0  0  0
    4.7866  -11.4671   -0.6569 H   0  0  0  0  0  0  0  0  0  0  0  0
    3.3896  -12.8002   -2.1179 H   0  0  0  0  0  0  0  0  0  0  0  0
    3.4082  -14.3439   -2.3478 H   0  0  0  0  0  0  0  0  0  0  0  0
    3.1694  -12.1175    1.4246 H   0  0  0  0  0  0  0  0  0  0  0  0
    2.6326  -11.6964   -0.3130 H   0  0  0  0  0  0  0  0  0  0  0  0
    1.0304  -12.0638    1.9652 H   0  0  0  0  0  0  0  0  0  0  0  0
    0.5807  -11.8016    0.2045 H   0  0  0  0  0  0  0  0  0  0  0  0
   -0.8685  -14.6616   -0.6486 H   0  0  0  0  0  0  0  0  0  0  0  0
   -0.1017  -13.1086   -1.1248 H   0  0  0  0  0  0  0  0  0  0  0  0
    0.8631  -14.6237   -1.1248 H   0  0  0  0  0  0  0  0  0  0  0  0
   -0.6498  -13.3264    2.6460 H   0  0  0  0  0  0  0  0  0  0  0  0
  1  2  1  0
  2  3  1  0
  3  4  1  0
  4  5  1  0
  5  6  1  0
  6  7  1  1
  7  8  1  0
  8  9  1  0
  9 10  1  0
  9 11  1  0
  9 12  1  0
  6 13  1  0
 13 14  1  0
 13 15  1  0
 15 16  1  1
 15 17  1  0
 17 18  1  0
 18 19  1  0
 19 20  1  0
 20 21  1  0
 21 22  1  0
 21 23  1  0
 21 24  1  0
 24 25  1  0
 25 26  1  0
 26 27  1  0
 27 28  1  0
 28 29  1  0
 29 30  1  0
 29 31  1  0
 31 32  1  0
 31 33  1  0
 33 34  1  0
 24 35  1  0
 35 36  1  0
 37 36  1  6
 37 38  1  0
 39 38  1  6
 39 40  1  0
 40 41  1  0
 41 42  1  0
 42 43  1  6
 42 44  1  0
 44  2  1  0
  8  4  1  0
 42 15  1  0
 44  6  1  0
 39 17  1  0
 37 20  1  0
 33 26  1  0
 39 37  1  0
  1 45  1  0
  1 46  1  0
  1 47  1  0
  2 48  1  6
  3 49  1  0
  3 50  1  0
  4 51  1  6
  7 52  1  0
  7 53  1  0
  8 54  1  1
 10 55  1  0
 10 56  1  0
 10 57  1  0
 11 58  1  0
 11 59  1  0
 11 60  1  0
 12 61  1  0
 13 62  1  6
 14 63  1  0
 16 64  1  0
 16 65  1  0
 16 66  1  0
 17 67  1  6
 18 68  1  0
 18 69  1  0
 19 70  1  0
 19 71  1  0
 20 72  1  1
 22 73  1  0
 22 74  1  0
 22 75  1  0
 23 76  1  0
 23 77  1  0
 23 78  1  0
 24 79  1  1
 26 80  1  1
 28 81  1  0
 28 82  1  0
 29 83  1  6
 30 84  1  0
 31 85  1  6
 32 86  1  0
 33 87  1  6
 34 88  1  0
 35 89  1  0
 35 90  1  0
 36 91  1  0
 36 92  1  0
 38 93  1  0
 38 94  1  0
 40 95  1  0
 40 96  1  0
 41 97  1  0
 41 98  1  0
 43 99  1  0
 43100  1  0
 43101  1  0
 44102  1  1
M  END
>  <meeko>  (3) 
{"is_sidechain": [false], "free_energy": -9.122, "intermolecular_energy": -12.256, "internal_energy": -0.686}

$$$$
LIB_YMNLMXSYVMONGN__M_PUB_ALL__e8__s20260927
     RDKit          3D

102109  0  0  0  0  0  0  0  0999 V2000
   10.7400  -17.8130   -0.9580 C   0  0  0  0  0  0  0  0  0  0  0  0
   10.7420  -16.6800   -1.9820 C   0  0  2  0  0  0  0  0  0  0  0  0
   12.1920  -16.2730   -2.3410 C   0  0  0  0  0  0  0  0  0  0  0  0
   12.2460  -15.0240   -3.2550 C   0  0  1  0  0  0  0  0  0  0  0  0
   10.9020  -14.6350   -3.5790 O   0  0  0  0  0  0  0  0  0  0  0  0
   10.3700  -14.1750   -2.3070 C   0  0  1  0  0  0  0  0  0  0  0  0
   11.5630  -13.4570   -1.6320 C   0  0  0  0  0  0  0  0  0  0  0  0
   12.7540  -13.7550   -2.5560 C   0  0  2  0  0  0  0  0  0  0  0  0
   13.0240  -12.5650   -3.5350 C   0  0  0  0  0  0  0  0  0  0  0  0
   14.2830  -11.7880   -3.1190 C   0  0  0  0  0  0  0  0  0  0  0  0
   13.2080  -13.0320   -4.9850 C   0  0  0  0  0  0  0  0  0  0  0  0
   11.9310  -11.6350   -3.5100 O   0  0  0  0  0  0  0  0  0  0  0  0
    9.0820  -13.3530   -2.5650 C   0  0  2  0  0  0  0  0  0  0  0  0
    9.2870  -11.9500   -2.5190 O   0  0  0  0  0  0  0  0  0  0  0  0
    8.0760  -13.8800   -1.5090 C   0  0  1  0  0  0  0  0  0  0  0  0
    8.3940  -13.2120   -0.1340 C   0  0  0  0  0  0  0  0  0  0  0  0
    6.5820  -13.6510   -1.8750 C   0  0  2  0  0  0  0  0  0  0  0  0
    6.1210  -12.1910   -1.7540 C   0  0  0  0  0  0  0  0  0  0  0  0
    4.6600  -12.0430   -2.1720 C   0  0  0  0  0  0  0  0  0  0  0  0
    3.7500  -12.7290   -1.1450 C   0  0  1  0  0  0  0  0  0  0  0  0
    2.2120  -12.6020   -1.4300 C   0  0  0  0  0  0  0  0  0  0  0  0
    1.7980  -13.2620   -2.7630 C   0  0  0  0  0  0  0  0  0  0  0  0
    1.8070  -11.1100   -1.5250 C   0  0  0  0  0  0  0  0  0  0  0  0
    1.4370  -13.2310   -0.2230 C   0  0  1  0  0  0  0  0  0  0  0  0
    0.0310  -13.2470   -0.5080 O   0  0  0  0  0  0  0  0  0  0  0  0
   -0.7900  -13.0410    0.6440 C   0  0  2  0  0  0  0  0  0  0  0  0
   -2.0800  -13.6450    0.5150 O   0  0  0  0  0  0  0  0  0  0  0  0
   -3.0320  -12.7900   -0.1120 C   0  0  0  0  0  0  0  0  0  0  0  0
   -3.3480  -11.5730    0.7650 C   0  0  2  0  0  0  0  0  0  0  0  0
   -3.7160  -10.4710   -0.0740 O   0  0  0  0  0  0  0  0  0  0  0  0
   -2.1470  -11.1890    1.6400 C   0  0  2  0  0  0  0  0  0  0  0  0
   -2.2080   -9.7860    1.9530 O   0  0  0  0  0  0  0  0  0  0  0  0
   -0.8520  -11.5160    0.9040 C   0  0  1  0  0  0  0  0  0  0  0  0
    0.2700  -11.0650    1.6840 O   0  0  0  0  0  0  0  0  0  0  0  0
    1.8830  -14.6650    0.0780 C   0  0  0  0  0  0  0  0  0  0  0  0
    3.3830  -14.7500    0.3220 C   0  0  0  0  0  0  0  0  0  0  0  0
    4.1560  -14.1820   -0.8590 C   0  0  1  0  0  0  0  0  0  0  0  0
    4.4750  -15.1450   -1.9720 C   0  0  0  0  0  0  0  0  0  0  0  0
    5.6260  -14.6220   -1.1230 C   0  0  1  0  0  0  0  0  0  0  0  0
    6.2510  -15.6020   -0.1220 C   0  0  0  0  0  0  0  0  0  0  0  0
    7.6830  -16.0980   -0.3800 C   0  0  0  0  0  0  0  0  0  0  0  0
    8.3890  -15.4260   -1.5610 C   0  0  1  0  0  0  0  0  0  0  0  0
    7.9120  -16.1410   -2.8590 C   0  0  0  0  0  0  0  0  0  0  0  0
    9.9520  -15.4400   -1.4920 C   0  0  1  0  0  0  0  0  0  0  0  0
   10.7407  -17.3896    0.0573 H   0  0  0  0  0  0  0  0  0  0  0  0
    9.8408  -18.4311   -1.0968 H   0  0  0  0  0  0  0  0  0  0  0  0
   11.6370  -18.4343   -1.0968 H   0  0  0  0  0  0  0  0  0  0  0  0
   10.2355  -17.0622   -2.8805 H   0  0  0  0  0  0  0  0  0  0  0  0
   12.7378  -16.0542   -1.4114 H   0  0  0  0  0  0  0  0  0  0  0  0
   12.6489  -17.1098   -2.8896 H   0  0  0  0  0  0  0  0  0  0  0  0
   12.8977  -15.3203   -4.0902 H   0  0  0  0  0  0  0  0  0  0  0  0
   11.3807  -12.3741   -1.5674 H   0  0  0  0  0  0  0  0  0  0  0  0
   11.7332  -13.8009   -0.6011 H   0  0  0  0  0  0  0  0  0  0  0  0
   13.7251  -13.8882   -2.0569 H   0  0  0  0  0  0  0  0  0  0  0  0
   14.3445  -11.7501   -2.0214 H   0  0  0  0  0  0  0  0  0  0  0  0
   15.1745  -12.2932   -3.5189 H   0  0  0  0  0  0  0  0  0  0  0  0
   14.2311  -10.7646   -3.5189 H   0  0  0  0  0  0  0  0  0  0  0  0
   13.6112  -14.0554   -4.9922 H   0  0  0  0  0  0  0  0  0  0  0  0
   12.2367  -13.0169   -5.5011 H   0  0  0  0  0  0  0  0  0  0  0  0
   13.9080  -12.3585   -5.5011 H   0  0  0  0  0  0  0  0  0  0  0  0
   11.6610  -11.5010   -4.4420 H   0  0  0  0  0  0  0  0  0  0  0  0
    8.7018  -13.4910   -3.5880 H   0  0  0  0  0  0  0  0  0  0  0  0
    8.4100  -11.5280   -2.6370 H   0  0  0  0  0  0  0  0  0  0  0  0
    8.0761  -13.8797    0.6803 H   0  0  0  0  0  0  0  0  0  0  0  0
    9.4759  -13.0289   -0.0568 H   0  0  0  0  0  0  0  0  0  0  0  0
    7.8540  -12.2568   -0.0568 H   0  0  0  0  0  0  0  0  0  0  0  0
    6.5198  -13.8922   -2.9464 H   0  0  0  0  0  0  0  0  0  0  0  0
    6.2314  -11.8642   -0.7095 H   0  0  0  0  0  0  0  0  0  0  0  0
    6.7406  -11.5712   -2.4188 H   0  0  0  0  0  0  0  0  0  0  0  0
    4.4038  -10.9748   -2.2300 H   0  0  0  0  0  0  0  0  0  0  0  0
    4.5155  -12.5145   -3.1553 H   0  0  0  0  0  0  0  0  0  0  0  0
    3.9194  -12.1503   -0.2250 H   0  0  0  0  0  0  0  0  0  0  0  0
    1.2239  -14.1772   -2.5562 H   0  0  0  0  0  0  0  0  0  0  0  0
    1.1767  -12.5622   -3.3412 H   0  0  0  0  0  0  0  0  0  0  0  0
    2.6984  -13.5167   -3.3412 H   0  0  0  0  0  0  0  0  0  0  0  0
    1.6945  -10.6954   -0.5123 H   0  0  0  0  0  0  0  0  0  0  0  0
    2.5862  -10.5522   -2.0651 H   0  0  0  0  0  0  0  0  0  0  0  0
    0.8527  -11.0228   -2.0651 H   0  0  0  0  0  0  0  0  0  0  0  0
    1.6580  -12.6093    0.6572 H   0  0  0  0  0  0  0  0  0  0  0  0
   -0.3488  -13.5432    1.5176 H   0  0  0  0  0  0  0  0  0  0  0  0
   -2.6244  -12.4433   -1.0731 H   0  0  0  0  0  0  0  0  0  0  0  0
   -3.9612  -13.3581   -0.2665 H   0  0  0  0  0  0  0  0  0  0  0  0
   -4.1822  -11.8298    1.4345 H   0  0  0  0  0  0  0  0  0  0  0  0
   -3.5280   -9.6750    0.4690 H   0  0  0  0  0  0  0  0  0  0  0  0
   -2.1742  -11.7625    2.5783 H   0  0  0  0  0  0  0  0  0  0  0  0
   -2.0110   -9.3350    1.1060 H   0  0  0  0  0  0  0  0  0  0  0  0
   -0.8187  -10.9984   -0.0660 H   0  0  0  0  0  0  0  0  0  0  0  0
    0.4640  -11.7900    2.3090 H   0  0  0  0  0  0  0  0  0  0  0  0
    1.3554  -15.0213    0.9751 H   0  0  0  0  0  0  0  0  0  0  0  0
    1.6424  -15.2888   -0.7955 H   0  0  0  0  0  0  0  0  0  0  0  0
    3.6342  -14.1768    1.2266 H   0  0  0  0  0  0  0  0  0  0  0  0
    3.6600  -15.8069    0.4490 H   0  0  0  0  0  0  0  0  0  0  0  0
    4.1690  -16.1981   -1.8856 H   0  0  0  0  0  0  0  0  0  0  0  0
    4.2662  -15.1651   -3.0518 H   0  0  0  0  0  0  0  0  0  0  0  0
    6.2504  -15.1075    0.8606 H   0  0  0  0  0  0  0  0  0  0  0  0
    5.6321  -16.5073   -0.2081 H   0  0  0  0  0  0  0  0  0  0  0  0
    8.2785  -15.9124    0.5261 H   0  0  0  0  0  0  0  0  0  0  0  0
    7.6016  -17.1655   -0.6328 H   0  0  0  0  0  0  0  0  0  0  0  0
    7.3198  -17.0287   -2.5921 H   0  0  0  0  0  0  0  0  0  0  0  0
    7.2925  -15.4513   -3.4510 H   0  0  0  0  0  0  0  0  0  0  0  0
    8.7867  -16.4482   -3.4510 H   0  0  0  0  0  0  0  0  0  0  0  0
   10.2199  -15.4627   -0.4254 H   0  0  0  0  0  0  0  0  0  0  0  0
  1  2  1  0
  2  3  1  0
  3  4  1  0
  4  5  1  0
  5  6  1  0
  6  7  1  1
  7  8  1  0
  8  9  1  0
  9 10  1  0
  9 11  1  0
  9 12  1  0
  6 13  1  0
 13 14  1  0
 13 15  1  0
 15 16  1  1
 15 17  1  0
 17 18  1  0
 18 19  1  0
 19 20  1  0
 20 21  1  0
 21 22  1  0
 21 23  1  0
 21 24  1  0
 24 25  1  0
 25 26  1  0
 26 27  1  0
 27 28  1  0
 28 29  1  0
 29 30  1  0
 29 31  1  0
 31 32  1  0
 31 33  1  0
 33 34  1  0
 24 35  1  0
 35 36  1  0
 37 36  1  1
 37 38  1  0
 39 38  1  6
 39 40  1  0
 40 41  1  0
 41 42  1  0
 42 43  1  6
 42 44  1  0
 44  2  1  0
  8  4  1  0
 42 15  1  0
 44  6  1  0
 39 17  1  0
 37 20  1  0
 33 26  1  0
 39 37  1  0
  1 45  1  0
  1 46  1  0
  1 47  1  0
  2 48  1  6
  3 49  1  0
  3 50  1  0
  4 51  1  6
  7 52  1  0
  7 53  1  0
  8 54  1  1
 10 55  1  0
 10 56  1  0
 10 57  1  0
 11 58  1  0
 11 59  1  0
 11 60  1  0
 12 61  1  0
 13 62  1  6
 14 63  1  0
 16 64  1  0
 16 65  1  0
 16 66  1  0
 17 67  1  6
 18 68  1  0
 18 69  1  0
 19 70  1  0
 19 71  1  0
 20 72  1  1
 22 73  1  0
 22 74  1  0
 22 75  1  0
 23 76  1  0
 23 77  1  0
 23 78  1  0
 24 79  1  1
 26 80  1  1
 28 81  1  0
 28 82  1  0
 29 83  1  1
 30 84  1  0
 31 85  1  1
 32 86  1  0
 33 87  1  6
 34 88  1  0
 35 89  1  0
 35 90  1  0
 36 91  1  0
 36 92  1  0
 38 93  1  0
 38 94  1  0
 40 95  1  0
 40 96  1  0
 41 97  1  0
 41 98  1  0
 43 99  1  0
 43100  1  0
 43101  1  0
 44102  1  1
M  END
>  <meeko>  (4) 
{"is_sidechain": [false], "free_energy": -8.817, "intermolecular_energy": -11.855, "internal_energy": -0.683}

$$$$
LIB_YMNLMXSYVMONGN__M_PUB_ALL__e8__s20260927
     RDKit          3D

102109  0  0  0  0  0  0  0  0999 V2000
   12.5680  -15.3640   -0.5860 C   0  0  0  0  0  0  0  0  0  0  0  0
   12.1160  -15.6930   -2.0080 C   0  0  2  0  0  0  0  0  0  0  0  0
   13.3390  -15.8980   -2.9340 C   0  0  0  0  0  0  0  0  0  0  0  0
   12.9340  -16.0770   -4.4180 C   0  0  1  0  0  0  0  0  0  0  0  0
   11.5000  -16.0790   -4.5040 O   0  0  0  0  0  0  0  0  0  0  0  0
   11.1420  -14.7130   -4.1550 C   0  0  1  0  0  0  0  0  0  0  0  0
   12.2550  -13.8520   -4.7960 C   0  0  0  0  0  0  0  0  0  0  0  0
   13.2760  -14.8780   -5.3120 C   0  0  2  0  0  0  0  0  0  0  0  0
   13.0760  -15.1570   -6.8390 C   0  0  0  0  0  0  0  0  0  0  0  0
   12.4280  -13.9500   -7.5360 C   0  0  0  0  0  0  0  0  0  0  0  0
   14.3980  -15.4680   -7.5540 C   0  0  0  0  0  0  0  0  0  0  0  0
   12.1990  -16.2750   -7.0360 O   0  0  0  0  0  0  0  0  0  0  0  0
    9.6780  -14.4480   -4.5900 C   0  0  2  0  0  0  0  0  0  0  0  0
    9.5730  -13.7290   -5.8090 O   0  0  0  0  0  0  0  0  0  0  0  0
    9.0430  -13.7270   -3.3740 C   0  0  1  0  0  0  0  0  0  0  0  0
    9.4720  -12.2260   -3.4000 C   0  0  0  0  0  0  0  0  0  0  0  0
    7.4940  -13.8340   -3.3010 C   0  0  2  0  0  0  0  0  0  0  0  0
    6.7550  -12.9790   -4.3390 C   0  0  0  0  0  0  0  0  0  0  0  0
    5.2440  -13.1730   -4.2320 C   0  0  0  0  0  0  0  0  0  0  0  0
    4.7300  -12.5610   -2.9220 C   0  0  1  0  0  0  0  0  0  0  0  0
    3.1770  -12.6460   -2.7130 C   0  0  0  0  0  0  0  0  0  0  0  0
    2.6640  -14.1010   -2.6470 C   0  0  0  0  0  0  0  0  0  0  0  0
    2.4410  -11.9650   -3.8940 C   0  0  0  0  0  0  0  0  0  0  0  0
    2.8150  -11.8590   -1.4080 C   0  0  1  0  0  0  0  0  0  0  0  0
    1.4200  -12.0230   -1.1180 O   0  0  0  0  0  0  0  0  0  0  0  0
    1.1490  -12.2940    0.2600 C   0  0  2  0  0  0  0  0  0  0  0  0
    0.4100  -13.5040    0.4480 O   0  0  0  0  0  0  0  0  0  0  0  0
   -1.0000  -13.3070    0.3790 C   0  0  0  0  0  0  0  0  0  0  0  0
   -1.5000  -12.4570    1.5530 C   0  0  2  0  0  0  0  0  0  0  0  0
   -2.6690  -11.7360    1.1470 O   0  0  0  0  0  0  0  0  0  0  0  0
   -0.4190  -11.4780    2.0310 C   0  0  2  0  0  0  0  0  0  0  0  0
   -1.0420  -10.3340    2.6420 O   0  0  0  0  0  0  0  0  0  0  0  0
    0.4440  -11.0480    0.8490 C   0  0  1  0  0  0  0  0  0  0  0  0
    1.3910  -10.0560    1.2810 O   0  0  0  0  0  0  0  0  0  0  0  0
    3.6180  -12.3350   -0.1940 C   0  0  0  0  0  0  0  0  0  0  0  0
    5.1180  -12.2640   -0.4450 C   0  0  0  0  0  0  0  0  0  0  0  0
    5.4960  -13.0570   -1.6860 C   0  0  1  0  0  0  0  0  0  0  0  0
    5.7940  -14.5190   -1.4780 C   0  0  0  0  0  0  0  0  0  0  0  0
    6.9450  -13.5990   -1.8640 C   0  0  1  0  0  0  0  0  0  0  0  0
    7.9570  -13.2550   -0.7630 C   0  0  0  0  0  0  0  0  0  0  0  0
    9.3830  -13.8170   -0.8780 C   0  0  0  0  0  0  0  0  0  0  0  0
    9.6750  -14.5550   -2.1880 C   0  0  1  0  0  0  0  0  0  0  0  0
    9.1210  -16.0030   -2.0410 C   0  0  0  0  0  0  0  0  0  0  0  0
   11.1840  -14.6040   -2.5970 C   0  0  1  0  0  0  0  0  0  0  0  0
   11.8961  -15.8530    0.1347 H   0  0  0  0  0  0  0  0  0  0  0  0
   13.5952  -15.7272   -0.4345 H   0  0  0  0  0  0  0  0  0  0  0  0
   12.5381  -14.2749   -0.4345 H   0  0  0  0  0  0  0  0  0  0  0  0
   11.5392  -16.6279   -1.9512 H   0  0  0  0  0  0  0  0  0  0  0  0
   13.9960  -15.0197   -2.8508 H   0  0  0  0  0  0  0  0  0  0  0  0
   13.8514  -16.8171   -2.6135 H   0  0  0  0  0  0  0  0  0  0  0  0
   13.4574  -16.9895   -4.7396 H   0  0  0  0  0  0  0  0  0  0  0  0
   11.8539  -13.2501   -5.6248 H   0  0  0  0  0  0  0  0  0  0  0  0
   12.6974  -13.1385   -4.0853 H   0  0  0  0  0  0  0  0  0  0  0  0
   14.3316  -14.5743   -5.2526 H   0  0  0  0  0  0  0  0  0  0  0  0
   12.0510  -13.2477   -6.7779 H   0  0  0  0  0  0  0  0  0  0  0  0
   13.1760  -13.4444   -8.1644 H   0  0  0  0  0  0  0  0  0  0  0  0
   11.5933  -14.2941   -8.1644 H   0  0  0  0  0  0  0  0  0  0  0  0
   15.1841  -15.6529   -6.8071 H   0  0  0  0  0  0  0  0  0  0  0  0
   14.2730  -16.3613   -8.1837 H   0  0  0  0  0  0  0  0  0  0  0  0
   14.6844  -14.6127   -8.1837 H   0  0  0  0  0  0  0  0  0  0  0  0
   12.5760  -17.0170   -6.5200 H   0  0  0  0  0  0  0  0  0  0  0  0
    9.1427  -15.3786   -4.8297 H   0  0  0  0  0  0  0  0  0  0  0  0
   10.2450  -14.1000   -6.4200 H   0  0  0  0  0  0  0  0  0  0  0  0
    9.5775  -11.8569   -2.3692 H   0  0  0  0  0  0  0  0  0  0  0  0
   10.4339  -12.1286   -3.9246 H   0  0  0  0  0  0  0  0  0  0  0  0
    8.7068  -11.6350   -3.9246 H   0  0  0  0  0  0  0  0  0  0  0  0
    7.2761  -14.8782   -3.5698 H   0  0  0  0  0  0  0  0  0  0  0  0
    6.9946  -11.9191   -4.1683 H   0  0  0  0  0  0  0  0  0  0  0  0
    7.0780  -13.2902   -5.3434 H   0  0  0  0  0  0  0  0  0  0  0  0
    4.7518  -12.6794   -5.0829 H   0  0  0  0  0  0  0  0  0  0  0  0
    5.0155  -14.2489   -4.2431 H   0  0  0  0  0  0  0  0  0  0  0  0
    4.9457  -11.4886   -3.0381 H   0  0  0  0  0  0  0  0  0  0  0  0
    2.5569  -14.4047   -1.5952 H   0  0  0  0  0  0  0  0  0  0  0  0
    1.6878  -14.1687   -3.1494 H   0  0  0  0  0  0  0  0  0  0  0  0
    3.3819  -14.7660   -3.1494 H   0  0  0  0  0  0  0  0  0  0  0  0
    1.6865  -11.2669   -3.5023 H   0  0  0  0  0  0  0  0  0  0  0  0
    3.1669  -11.4130   -4.5091 H   0  0  0  0  0  0  0  0  0  0  0  0
    1.9470  -12.7315   -4.5091 H   0  0  0  0  0  0  0  0  0  0  0  0
    3.0622  -10.8031   -1.5922 H   0  0  0  0  0  0  0  0  0  0  0  0
    2.0892  -12.4722    0.8024 H   0  0  0  0  0  0  0  0  0  0  0  0
   -1.2450  -12.7960   -0.5638 H   0  0  0  0  0  0  0  0  0  0  0  0
   -1.4914  -14.2899    0.4269 H   0  0  0  0  0  0  0  0  0  0  0  0
   -1.7438  -13.1248    2.3924 H   0  0  0  0  0  0  0  0  0  0  0  0
   -2.4680  -10.7990    1.3620 H   0  0  0  0  0  0  0  0  0  0  0  0
    0.2236  -11.9717    2.7749 H   0  0  0  0  0  0  0  0  0  0  0  0
   -1.9960  -10.4350    2.4420 H   0  0  0  0  0  0  0  0  0  0  0  0
   -0.1777  -10.5979    0.0610 H   0  0  0  0  0  0  0  0  0  0  0  0
    1.5960  -10.2760    2.2110 H   0  0  0  0  0  0  0  0  0  0  0  0
    3.3708  -11.6983    0.6683 H   0  0  0  0  0  0  0  0  0  0  0  0
    3.3533  -13.3848    0.0008 H   0  0  0  0  0  0  0  0  0  0  0  0
    5.4108  -11.2130   -0.5856 H   0  0  0  0  0  0  0  0  0  0  0  0
    5.6412  -12.6947    0.4215 H   0  0  0  0  0  0  0  0  0  0  0  0
    5.7531  -14.9445   -0.4645 H   0  0  0  0  0  0  0  0  0  0  0  0
    5.3852  -15.4516   -1.8941 H   0  0  0  0  0  0  0  0  0  0  0  0
    8.0414  -12.1587   -0.7301 H   0  0  0  0  0  0  0  0  0  0  0  0
    7.5492  -13.7359    0.1383 H   0  0  0  0  0  0  0  0  0  0  0  0
   10.0899  -12.9787   -0.7918 H   0  0  0  0  0  0  0  0  0  0  0  0
    9.4914  -14.5581   -0.0724 H   0  0  0  0  0  0  0  0  0  0  0  0
    9.0255  -16.2525   -0.9739 H   0  0  0  0  0  0  0  0  0  0  0  0
    8.1342  -16.0687   -2.5226 H   0  0  0  0  0  0  0  0  0  0  0  0
    9.8119  -16.7106   -2.5226 H   0  0  0  0  0  0  0  0  0  0  0  0
   11.6556  -13.7080   -2.1671 H   0  0  0  0  0  0  0  0  0  0  0  0
  1  2  1  0
  2  3  1  0
  3  4  1  0
  4  5  1  0
  5  6  1  0
  6  7  1  6
  7  8  1  0
  8  9  1  0
  9 10  1  0
  9 11  1  0
  9 12  1  0
  6 13  1  0
 13 14  1  0
 13 15  1  0
 15 16  1  1
 15 17  1  0
 17 18  1  0
 18 19  1  0
 19 20  1  0
 20 21  1  0
 21 22  1  0
 21 23  1  0
 21 24  1  0
 24 25  1  0
 25 26  1  0
 26 27  1  0
 27 28  1  0
 28 29  1  0
 29 30  1  0
 29 31  1  0
 31 32  1  0
 31 33  1  0
 33 34  1  0
 24 35  1  0
 35 36  1  0
 37 36  1  1
 37 38  1  0
 39 38  1  1
 39 40  1  0
 40 41  1  0
 41 42  1  0
 42 43  1  1
 42 44  1  0
 44  2  1  0
  8  4  1  0
 42 15  1  0
 44  6  1  0
 39 17  1  0
 37 20  1  0
 33 26  1  0
 39 37  1  0
  1 45  1  0
  1 46  1  0
  1 47  1  0
  2 48  1  1
  3 49  1  0
  3 50  1  0
  4 51  1  6
  7 52  1  0
  7 53  1  0
  8 54  1  6
 10 55  1  0
 10 56  1  0
 10 57  1  0
 11 58  1  0
 11 59  1  0
 11 60  1  0
 12 61  1  0
 13 62  1  6
 14 63  1  0
 16 64  1  0
 16 65  1  0
 16 66  1  0
 17 67  1  6
 18 68  1  0
 18 69  1  0
 19 70  1  0
 19 71  1  0
 20 72  1  6
 22 73  1  0
 22 74  1  0
 22 75  1  0
 23 76  1  0
 23 77  1  0
 23 78  1  0
 24 79  1  6
 26 80  1  1
 28 81  1  0
 28 82  1  0
 29 83  1  1
 30 84  1  0
 31 85  1  1
 32 86  1  0
 33 87  1  6
 34 88  1  0
 35 89  1  0
 35 90  1  0
 36 91  1  0
 36 92  1  0
 38 93  1  0
 38 94  1  0
 40 95  1  0
 40 96  1  0
 41 97  1  0
 41 98  1  0
 43 99  1  0
 43100  1  0
 43101  1  0
 44102  1  6
M  END
>  <meeko>  (5) 
{"is_sidechain": [false], "free_energy": -8.724, "intermolecular_energy": -11.519, "internal_energy": -0.896}

$$$$
LIB_YMNLMXSYVMONGN__M_PUB_ALL__e8__s20260927
     RDKit          3D

102109  0  0  0  0  0  0  0  0999 V2000
    8.9100  -14.7230   -5.6890 C   0  0  0  0  0  0  0  0  0  0  0  0
    9.1050  -13.7030   -4.5690 C   0  0  2  0  0  0  0  0  0  0  0  0
   10.6120  -13.4930   -4.2800 C   0  0  0  0  0  0  0  0  0  0  0  0
   10.8570  -12.5880   -3.0480 C   0  0  1  0  0  0  0  0  0  0  0  0
    9.5880  -12.1270   -2.5580 O   0  0  0  0  0  0  0  0  0  0  0  0
    8.9670  -13.3380   -2.0450 C   0  0  1  0  0  0  0  0  0  0  0  0
   10.1380  -14.1290   -1.4170 C   0  0  0  0  0  0  0  0  0  0  0  0
   11.3890  -13.3330   -1.8160 C   0  0  2  0  0  0  0  0  0  0  0  0
   11.8500  -12.3850   -0.6600 C   0  0  0  0  0  0  0  0  0  0  0  0
   12.3700  -13.1950    0.5380 C   0  0  0  0  0  0  0  0  0  0  0  0
   12.9600  -11.4210   -1.1020 C   0  0  0  0  0  0  0  0  0  0  0  0
   10.7490  -11.5960   -0.1860 O   0  0  0  0  0  0  0  0  0  0  0  0
    7.7800  -12.9480   -1.1280 C   0  0  2  0  0  0  0  0  0  0  0  0
    8.0900  -13.0120    0.2550 O   0  0  0  0  0  0  0  0  0  0  0  0
    6.6340  -13.8950   -1.5650 C   0  0  1  0  0  0  0  0  0  0  0  0
    6.8620  -15.2950   -0.9100 C   0  0  0  0  0  0  0  0  0  0  0  0
    5.2070  -13.3780   -1.2230 C   0  0  2  0  0  0  0  0  0  0  0  0
    4.8530  -13.4490    0.2690 C   0  0  0  0  0  0  0  0  0  0  0  0
    3.4590  -12.8830    0.5270 C   0  0  0  0  0  0  0  0  0  0  0  0
    2.3970  -13.8140   -0.0750 C   0  0  1  0  0  0  0  0  0  0  0  0
    0.9120  -13.3720    0.1680 C   0  0  0  0  0  0  0  0  0  0  0  0
    0.5850  -12.0040   -0.4700 C   0  0  0  0  0  0  0  0  0  0  0  0
    0.6370  -13.2340    1.6860 C   0  0  0  0  0  0  0  0  0  0  0  0
   -0.0300  -14.4940   -0.3860 C   0  0  1  0  0  0  0  0  0  0  0  0
   -1.3960  -14.0670   -0.2950 O   0  0  0  0  0  0  0  0  0  0  0  0
   -2.2810  -15.0760    0.1970 C   0  0  2  0  0  0  0  0  0  0  0  0
   -3.1330  -14.6000    1.2420 O   0  0  0  0  0  0  0  0  0  0  0  0
   -2.5440  -14.7190    2.5340 C   0  0  0  0  0  0  0  0  0  0  0  0
   -2.3650  -16.1890    2.9300 C   0  0  2  0  0  0  0  0  0  0  0  0
   -1.2450  -16.3050    3.8160 O   0  0  0  0  0  0  0  0  0  0  0  0
   -2.1530  -17.0770    1.6950 C   0  0  2  0  0  0  0  0  0  0  0  0
   -1.4020  -18.2460    2.0670 O   0  0  0  0  0  0  0  0  0  0  0  0
   -1.4150  -16.2880    0.6180 C   0  0  1  0  0  0  0  0  0  0  0  0
   -1.1290  -17.1510   -0.4970 O   0  0  0  0  0  0  0  0  0  0  0  0
    0.2690  -14.8420   -1.8480 C   0  0  0  0  0  0  0  0  0  0  0  0
    1.7250  -15.2380   -2.0480 C   0  0  0  0  0  0  0  0  0  0  0  0
    2.6570  -14.1420   -1.5530 C   0  0  1  0  0  0  0  0  0  0  0  0
    3.0110  -13.0690   -2.5490 C   0  0  0  0  0  0  0  0  0  0  0  0
    4.1060  -14.0300   -2.1090 C   0  0  1  0  0  0  0  0  0  0  0  0
    4.5470  -15.0910   -3.1250 C   0  0  0  0  0  0  0  0  0  0  0  0
    5.9540  -14.9820   -3.7340 C   0  0  0  0  0  0  0  0  0  0  0  0
    6.8270  -13.8790   -3.1310 C   0  0  1  0  0  0  0  0  0  0  0  0
    6.4310  -12.5400   -3.8190 C   0  0  0  0  0  0  0  0  0  0  0  0
    8.3690  -14.1070   -3.2670 C   0  0  1  0  0  0  0  0  0  0  0  0
    8.7204  -15.7148   -5.2527 H   0  0  0  0  0  0  0  0  0  0  0  0
    8.0524  -14.4257   -6.3104 H   0  0  0  0  0  0  0  0  0  0  0  0
    9.8168  -14.7630   -6.3104 H   0  0  0  0  0  0  0  0  0  0  0  0
    8.6638  -12.7581   -4.9190 H   0  0  0  0  0  0  0  0  0  0  0  0
   11.0762  -14.4731   -4.0960 H   0  0  0  0  0  0  0  0  0  0  0  0
   11.0547  -12.9947   -5.1551 H   0  0  0  0  0  0  0  0  0  0  0  0
   11.5654  -11.8248   -3.4027 H   0  0  0  0  0  0  0  0  0  0  0  0
   10.0364  -14.1728   -0.3226 H   0  0  0  0  0  0  0  0  0  0  0  0
   10.1748  -15.1723   -1.7636 H   0  0  0  0  0  0  0  0  0  0  0  0
   12.2907  -13.9291   -2.0200 H   0  0  0  0  0  0  0  0  0  0  0  0
   12.0573  -12.7079    1.4734 H   0  0  0  0  0  0  0  0  0  0  0  0
   11.9566  -14.2136    0.4991 H   0  0  0  0  0  0  0  0  0  0  0  0
   13.4683  -13.2432    0.4991 H   0  0  0  0  0  0  0  0  0  0  0  0
   13.4506  -10.9950   -0.2144 H   0  0  0  0  0  0  0  0  0  0  0  0
   13.7013  -11.9668   -1.7042 H   0  0  0  0  0  0  0  0  0  0  0  0
   12.5235  -10.6105   -1.7042 H   0  0  0  0  0  0  0  0  0  0  0  0
   10.3920  -11.1240   -0.9660 H   0  0  0  0  0  0  0  0  0  0  0  0
    7.4952  -11.8920   -1.2456 H   0  0  0  0  0  0  0  0  0  0  0  0
    8.5920  -12.1980    0.4740 H   0  0  0  0  0  0  0  0  0  0  0  0
    6.8456  -15.1944    0.1853 H   0  0  0  0  0  0  0  0  0  0  0  0
    6.0640  -15.9825   -1.2271 H   0  0  0  0  0  0  0  0  0  0  0  0
    7.8369  -15.6938   -1.2271 H   0  0  0  0  0  0  0  0  0  0  0  0
    5.2350  -12.3062   -1.4688 H   0  0  0  0  0  0  0  0  0  0  0  0
    4.8814  -14.4989    0.5961 H   0  0  0  0  0  0  0  0  0  0  0  0
    5.5844  -12.8506    0.8320 H   0  0  0  0  0  0  0  0  0  0  0  0
    3.2955  -12.7963    1.6113 H   0  0  0  0  0  0  0  0  0  0  0  0
    3.3785  -11.8911    0.0582 H   0  0  0  0  0  0  0  0  0  0  0  0
    2.5155  -14.7454    0.4980 H   0  0  0  0  0  0  0  0  0  0  0  0
    0.4078  -11.2626    0.3230 H   0  0  0  0  0  0  0  0  0  0  0  0
    1.4307  -11.6788   -1.0937 H   0  0  0  0  0  0  0  0  0  0  0  0
   -0.3164  -12.0964   -1.0937 H   0  0  0  0  0  0  0  0  0  0  0  0
    1.4804  -13.6572    2.2514 H   0  0  0  0  0  0  0  0  0  0  0  0
    0.5205  -12.1707    1.9424 H   0  0  0  0  0  0  0  0  0  0  0  0
   -0.2852  -13.7761    1.9424 H   0  0  0  0  0  0  0  0  0  0  0  0
    0.1477  -15.3907    0.2258 H   0  0  0  0  0  0  0  0  0  0  0  0
   -2.9809  -15.3832   -0.5941 H   0  0  0  0  0  0  0  0  0  0  0  0
   -1.5600  -14.2274    2.5261 H   0  0  0  0  0  0  0  0  0  0  0  0
   -3.2115  -14.2406    3.2658 H   0  0  0  0  0  0  0  0  0  0  0  0
   -3.2800  -16.5306    3.4360 H   0  0  0  0  0  0  0  0  0  0  0  0
   -0.4660  -16.0960    3.2550 H   0  0  0  0  0  0  0  0  0  0  0  0
   -3.1271  -17.3943    1.2946 H   0  0  0  0  0  0  0  0  0  0  0  0
   -1.9600  -18.9990    1.7830 H   0  0  0  0  0  0  0  0  0  0  0  0
   -0.4574  -15.9091    1.0047 H   0  0  0  0  0  0  0  0  0  0  0  0
   -0.5170  -17.8300   -0.1540 H   0  0  0  0  0  0  0  0  0  0  0  0
   -0.3734  -15.6813   -2.1529 H   0  0  0  0  0  0  0  0  0  0  0  0
    0.0701  -13.9496   -2.4596 H   0  0  0  0  0  0  0  0  0  0  0  0
    1.9271  -16.1631   -1.4882 H   0  0  0  0  0  0  0  0  0  0  0  0
    1.9033  -15.3933   -3.1223 H   0  0  0  0  0  0  0  0  0  0  0  0
    2.6161  -13.1255   -3.5741 H   0  0  0  0  0  0  0  0  0  0  0  0
    2.9125  -11.9735   -2.5635 H   0  0  0  0  0  0  0  0  0  0  0  0
    4.4853  -16.0675   -2.6225 H   0  0  0  0  0  0  0  0  0  0  0  0
    3.8709  -14.9431   -3.9800 H   0  0  0  0  0  0  0  0  0  0  0  0
    6.4667  -15.9440   -3.5868 H   0  0  0  0  0  0  0  0  0  0  0  0
    5.8150  -14.7241   -4.7943 H   0  0  0  0  0  0  0  0  0  0  0  0
    6.2077  -11.7850   -3.0508 H   0  0  0  0  0  0  0  0  0  0  0  0
    7.2640  -12.1897   -4.4462 H   0  0  0  0  0  0  0  0  0  0  0  0
    5.5414  -12.6991   -4.4462 H   0  0  0  0  0  0  0  0  0  0  0  0
    8.5238  -15.1955   -3.3015 H   0  0  0  0  0  0  0  0  0  0  0  0
  1  2  1  0
  2  3  1  0
  3  4  1  0
  4  5  1  0
  5  6  1  0
  6  7  1  1
  7  8  1  0
  8  9  1  0
  9 10  1  0
  9 11  1  0
  9 12  1  0
  6 13  1  0
 13 14  1  0
 13 15  1  0
 15 16  1  1
 15 17  1  0
 17 18  1  0
 18 19  1  0
 19 20  1  0
 20 21  1  0
 21 22  1  0
 21 23  1  0
 21 24  1  0
 24 25  1  0
 25 26  1  0
 26 27  1  0
 27 28  1  0
 28 29  1  0
 29 30  1  0
 29 31  1  0
 31 32  1  0
 31 33  1  0
 33 34  1  0
 24 35  1  0
 35 36  1  0
 37 36  1  6
 37 38  1  0
 39 38  1  6
 39 40  1  0
 40 41  1  0
 41 42  1  0
 42 43  1  6
 42 44  1  0
 44  2  1  0
  8  4  1  0
 42 15  1  0
 44  6  1  0
 39 17  1  0
 37 20  1  0
 33 26  1  0
 39 37  1  0
  1 45  1  0
  1 46  1  0
  1 47  1  0
  2 48  1  6
  3 49  1  0
  3 50  1  0
  4 51  1  6
  7 52  1  0
  7 53  1  0
  8 54  1  6
 10 55  1  0
 10 56  1  0
 10 57  1  0
 11 58  1  0
 11 59  1  0
 11 60  1  0
 12 61  1  0
 13 62  1  6
 14 63  1  0
 16 64  1  0
 16 65  1  0
 16 66  1  0
 17 67  1  6
 18 68  1  0
 18 69  1  0
 19 70  1  0
 19 71  1  0
 20 72  1  1
 22 73  1  0
 22 74  1  0
 22 75  1  0
 23 76  1  0
 23 77  1  0
 23 78  1  0
 24 79  1  1
 26 80  1  6
 28 81  1  0
 28 82  1  0
 29 83  1  1
 30 84  1  0
 31 85  1  6
 32 86  1  0
 33 87  1  1
 34 88  1  0
 35 89  1  0
 35 90  1  0
 36 91  1  0
 36 92  1  0
 38 93  1  0
 38 94  1  0
 40 95  1  0
 40 96  1  0
 41 97  1  0
 41 98  1  0
 43 99  1  0
 43100  1  0
 43101  1  0
 44102  1  1
M  END
>  <meeko>  (6) 
{"is_sidechain": [false], "free_energy": -8.578, "intermolecular_energy": -12.023, "internal_energy": -0.198}

$$$$
LIB_YMNLMXSYVMONGN__M_PUB_ALL__e8__s20260927
     RDKit          3D

102109  0  0  0  0  0  0  0  0999 V2000
    3.2560  -19.2000    2.1540 C   0  0  0  0  0  0  0  0  0  0  0  0
    2.9910  -17.7210    2.4290 C   0  0  2  0  0  0  0  0  0  0  0  0
    1.9890  -17.5560    3.5970 C   0  0  0  0  0  0  0  0  0  0  0  0
    1.5670  -16.0810    3.8100 C   0  0  1  0  0  0  0  0  0  0  0  0
    2.3030  -15.2570    2.8920 O   0  0  0  0  0  0  0  0  0  0  0  0
    1.7680  -15.6410    1.5950 C   0  0  1  0  0  0  0  0  0  0  0  0
    0.2620  -15.8750    1.8590 C   0  0  0  0  0  0  0  0  0  0  0  0
    0.1250  -15.7710    3.3860 C   0  0  2  0  0  0  0  0  0  0  0  0
   -0.3640  -14.3480    3.8160 C   0  0  0  0  0  0  0  0  0  0  0  0
   -1.8540  -14.1600    3.4910 C   0  0  0  0  0  0  0  0  0  0  0  0
   -0.1650  -14.0910    5.3160 C   0  0  0  0  0  0  0  0  0  0  0  0
    0.3530  -13.3320    3.0990 O   0  0  0  0  0  0  0  0  0  0  0  0
    2.1630  -14.5680    0.5490 C   0  0  2  0  0  0  0  0  0  0  0  0
    1.1170  -13.6560    0.2520 O   0  0  0  0  0  0  0  0  0  0  0  0
    2.6520  -15.3890   -0.6720 C   0  0  1  0  0  0  0  0  0  0  0  0
    1.4080  -15.9040   -1.4620 C   0  0  0  0  0  0  0  0  0  0  0  0
    3.6020  -14.6140   -1.6280 C   0  0  2  0  0  0  0  0  0  0  0  0
    2.9020  -13.5460   -2.4810 C   0  0  0  0  0  0  0  0  0  0  0  0
    3.9070  -12.8020   -3.3570 C   0  0  0  0  0  0  0  0  0  0  0  0
    4.4500  -13.7410   -4.4430 C   0  0  1  0  0  0  0  0  0  0  0  0
    5.4570  -13.0800   -5.4490 C   0  0  0  0  0  0  0  0  0  0  0  0
    6.7370  -12.5630   -4.7570 C   0  0  0  0  0  0  0  0  0  0  0  0
    4.7990  -11.8600   -6.1400 C   0  0  0  0  0  0  0  0  0  0  0  0
    5.8000  -14.1300   -6.5590 C   0  0  1  0  0  0  0  0  0  0  0  0
    6.8150  -13.6040   -7.4250 O   0  0  0  0  0  0  0  0  0  0  0  0
    6.3540  -13.3360   -8.7520 C   0  0  2  0  0  0  0  0  0  0  0  0
    6.3520  -14.5030   -9.5790 O   0  0  0  0  0  0  0  0  0  0  0  0
    7.6000  -14.7210  -10.2330 C   0  0  0  0  0  0  0  0  0  0  0  0
    7.8900  -13.6180  -11.2570 C   0  0  2  0  0  0  0  0  0  0  0  0
    9.3080  -13.4580  -11.3860 O   0  0  0  0  0  0  0  0  0  0  0  0
    7.2470  -12.2880  -10.8410 C   0  0  2  0  0  0  0  0  0  0  0  0
    7.9930  -11.1950  -11.4060 O   0  0  0  0  0  0  0  0  0  0  0  0
    7.2190  -12.1850   -9.3200 C   0  0  1  0  0  0  0  0  0  0  0  0
    6.7070  -10.8970   -8.9350 O   0  0  0  0  0  0  0  0  0  0  0  0
    6.3020  -15.4560   -5.9790 C   0  0  0  0  0  0  0  0  0  0  0  0
    5.3110  -16.0500   -4.9870 C   0  0  0  0  0  0  0  0  0  0  0  0
    4.9970  -15.0590   -3.8770 C   0  0  1  0  0  0  0  0  0  0  0  0
    5.9140  -15.0850   -2.6820 C   0  0  0  0  0  0  0  0  0  0  0  0
    4.4810  -15.5610   -2.4960 C   0  0  1  0  0  0  0  0  0  0  0  0
    4.2660  -17.0720   -2.3400 C   0  0  0  0  0  0  0  0  0  0  0  0
    3.8060  -17.6090   -0.9750 C   0  0  0  0  0  0  0  0  0  0  0  0
    3.4680  -16.5280    0.0550 C   0  0  1  0  0  0  0  0  0  0  0  0
    4.8060  -16.0570    0.6970 C   0  0  0  0  0  0  0  0  0  0  0  0
    2.4710  -16.9710    1.1770 C   0  0  1  0  0  0  0  0  0  0  0  0
    3.3525  -19.7388    3.1081 H   0  0  0  0  0  0  0  0  0  0  0  0
    2.4191  -19.6215    1.5779 H   0  0  0  0  0  0  0  0  0  0  0  0
    4.1872  -19.3047    1.5779 H   0  0  0  0  0  0  0  0  0  0  0  0
    3.9555  -17.2712    2.7072 H   0  0  0  0  0  0  0  0  0  0  0  0
    1.0908  -18.1523    3.3786 H   0  0  0  0  0  0  0  0  0  0  0  0
    2.4867  -17.8982    4.5163 H   0  0  0  0  0  0  0  0  0  0  0  0
    1.7248  -15.9009    4.8836 H   0  0  0  0  0  0  0  0  0  0  0  0
   -0.3455  -15.1058    1.3597 H   0  0  0  0  0  0  0  0  0  0  0  0
   -0.0881  -16.8425    1.4700 H   0  0  0  0  0  0  0  0  0  0  0  0
   -0.6201  -16.4364    3.8465 H   0  0  0  0  0  0  0  0  0  0  0  0
   -2.4272  -14.0877    4.4271 H   0  0  0  0  0  0  0  0  0  0  0  0
   -1.9883  -13.2378    2.9066 H   0  0  0  0  0  0  0  0  0  0  0  0
   -2.2132  -15.0199    2.9066 H   0  0  0  0  0  0  0  0  0  0  0  0
   -0.7380  -14.8310    5.8940 H   0  0  0  0  0  0  0  0  0  0  0  0
    0.9030  -14.1788    5.5645 H   0  0  0  0  0  0  0  0  0  0  0  0
   -0.5173  -13.0790    5.5645 H   0  0  0  0  0  0  0  0  0  0  0  0
    1.2450  -13.6950    2.9230 H   0  0  0  0  0  0  0  0  0  0  0  0
    2.9488  -13.8951    0.9228 H   0  0  0  0  0  0  0  0  0  0  0  0
    1.3960  -12.7800    0.5930 H   0  0  0  0  0  0  0  0  0  0  0  0
    0.6309  -16.2257   -0.7531 H   0  0  0  0  0  0  0  0  0  0  0  0
    1.0147  -15.0947   -2.0948 H   0  0  0  0  0  0  0  0  0  0  0  0
    1.7018  -16.7544   -2.0948 H   0  0  0  0  0  0  0  0  0  0  0  0
    4.2770  -14.0610   -0.9583 H   0  0  0  0  0  0  0  0  0  0  0  0
    2.1544  -14.0326   -3.1247 H   0  0  0  0  0  0  0  0  0  0  0  0
    2.4183  -12.8217   -1.8091 H   0  0  0  0  0  0  0  0  0  0  0  0
    3.4107  -11.9431   -3.8324 H   0  0  0  0  0  0  0  0  0  0  0  0
    4.7413  -12.4506   -2.7321 H   0  0  0  0  0  0  0  0  0  0  0  0
    3.5606  -13.9818   -5.0439 H   0  0  0  0  0  0  0  0  0  0  0  0
    6.6100  -12.6143   -3.6656 H   0  0  0  0  0  0  0  0  0  0  0  0
    7.5928  -13.1860   -5.0562 H   0  0  0  0  0  0  0  0  0  0  0  0
    6.9200  -11.5204   -5.0562 H   0  0  0  0  0  0  0  0  0  0  0  0
    4.4236  -11.1639   -5.3754 H   0  0  0  0  0  0  0  0  0  0  0  0
    5.5435  -11.3484   -6.7677 H   0  0  0  0  0  0  0  0  0  0  0  0
    3.9625  -12.2011   -6.7677 H   0  0  0  0  0  0  0  0  0  0  0  0
    4.8687  -14.3258   -7.1107 H   0  0  0  0  0  0  0  0  0  0  0  0
    5.2992  -13.0247   -8.7313 H   0  0  0  0  0  0  0  0  0  0  0  0
    8.4022  -14.7317   -9.4805 H   0  0  0  0  0  0  0  0  0  0  0  0
    7.5518  -15.6838  -10.7628 H   0  0  0  0  0  0  0  0  0  0  0  0
    7.4557  -13.9125  -12.2238 H   0  0  0  0  0  0  0  0  0  0  0  0
    9.6140  -14.2940  -11.8000 H   0  0  0  0  0  0  0  0  0  0  0  0
    6.2139  -12.2437  -11.2162 H   0  0  0  0  0  0  0  0  0  0  0  0
    7.6410  -10.3980  -10.9590 H   0  0  0  0  0  0  0  0  0  0  0  0
    8.2348  -12.2804   -8.9087 H   0  0  0  0  0  0  0  0  0  0  0  0
    6.3600  -11.0130   -8.0290 H   0  0  0  0  0  0  0  0  0  0  0  0
    6.4535  -16.1700   -6.8019 H   0  0  0  0  0  0  0  0  0  0  0  0
    7.2445  -15.2614   -5.4462 H   0  0  0  0  0  0  0  0  0  0  0  0
    4.3809  -16.3056   -5.5158 H   0  0  0  0  0  0  0  0  0  0  0  0
    5.7573  -16.9503   -4.5395 H   0  0  0  0  0  0  0  0  0  0  0  0
    6.7387  -15.8120   -2.6440 H   0  0  0  0  0  0  0  0  0  0  0  0
    6.5431  -14.3337   -2.1821 H   0  0  0  0  0  0  0  0  0  0  0  0
    3.5077  -17.3704   -3.0789 H   0  0  0  0  0  0  0  0  0  0  0  0
    5.2691  -17.5027   -2.4754 H   0  0  0  0  0  0  0  0  0  0  0  0
    2.9081  -18.2244   -1.1335 H   0  0  0  0  0  0  0  0  0  0  0  0
    4.6524  -18.1780   -0.5629 H   0  0  0  0  0  0  0  0  0  0  0  0
    4.7177  -16.0881    1.7930 H   0  0  0  0  0  0  0  0  0  0  0  0
    5.6210  -16.7223    0.3758 H   0  0  0  0  0  0  0  0  0  0  0  0
    5.0246  -15.0279    0.3758 H   0  0  0  0  0  0  0  0  0  0  0  0
    1.8384  -17.7590    0.7425 H   0  0  0  0  0  0  0  0  0  0  0  0
  1  2  1  0
  2  3  1  0
  3  4  1  0
  4  5  1  0
  5  6  1  0
  6  7  1  1
  7  8  1  0
  8  9  1  0
  9 10  1  0
  9 11  1  0
  9 12  1  0
  6 13  1  0
 13 14  1  0
 13 15  1  0
 15 16  1  6
 15 17  1  0
 17 18  1  0
 18 19  1  0
 19 20  1  0
 20 21  1  0
 21 22  1  0
 21 23  1  0
 21 24  1  0
 24 25  1  0
 25 26  1  0
 26 27  1  0
 27 28  1  0
 28 29  1  0
 29 30  1  0
 29 31  1  0
 31 32  1  0
 31 33  1  0
 33 34  1  0
 24 35  1  0
 35 36  1  0
 37 36  1  6
 37 38  1  0
 39 38  1  1
 39 40  1  0
 40 41  1  0
 41 42  1  0
 42 43  1  1
 42 44  1  0
 44  2  1  0
  8  4  1  0
 42 15  1  0
 44  6  1  0
 39 17  1  0
 37 20  1  0
 33 26  1  0
 39 37  1  0
  1 45  1  0
  1 46  1  0
  1 47  1  0
  2 48  1  1
  3 49  1  0
  3 50  1  0
  4 51  1  1
  7 52  1  0
  7 53  1  0
  8 54  1  1
 10 55  1  0
 10 56  1  0
 10 57  1  0
 11 58  1  0
 11 59  1  0
 11 60  1  0
 12 61  1  0
 13 62  1  1
 14 63  1  0
 16 64  1  0
 16 65  1  0
 16 66  1  0
 17 67  1  1
 18 68  1  0
 18 69  1  0
 19 70  1  0
 19 71  1  0
 20 72  1  6
 22 73  1  0
 22 74  1  0
 22 75  1  0
 23 76  1  0
 23 77  1  0
 23 78  1  0
 24 79  1  6
 26 80  1  1
 28 81  1  0
 28 82  1  0
 29 83  1  6
 30 84  1  0
 31 85  1  6
 32 86  1  0
 33 87  1  1
 34 88  1  0
 35 89  1  0
 35 90  1  0
 36 91  1  0
 36 92  1  0
 38 93  1  0
 38 94  1  0
 40 95  1  0
 40 96  1  0
 41 97  1  0
 41 98  1  0
 43 99  1  0
 43100  1  0
 43101  1  0
 44102  1  6
M  END
>  <meeko>  (7) 
{"is_sidechain": [false], "free_energy": -8.362, "intermolecular_energy": -11.143, "internal_energy": -0.795}

$$$$
LIB_YMNLMXSYVMONGN__M_PUB_ALL__e8__s20260927
     RDKit          3D

102109  0  0  0  0  0  0  0  0999 V2000
    8.3200  -16.9100   -5.7970 C   0  0  0  0  0  0  0  0  0  0  0  0
    8.5280  -15.6200   -5.0070 C   0  0  2  0  0  0  0  0  0  0  0  0
    9.9600  -15.0740   -5.2230 C   0  0  0  0  0  0  0  0  0  0  0  0
   10.2720  -13.8560   -4.3190 C   0  0  1  0  0  0  0  0  0  0  0  0
    9.0890  -13.5240   -3.5750 O   0  0  0  0  0  0  0  0  0  0  0  0
    8.9290  -14.6550   -2.6760 C   0  0  1  0  0  0  0  0  0  0  0  0
   10.3750  -15.0350   -2.2810 C   0  0  0  0  0  0  0  0  0  0  0  0
   11.2560  -14.1540   -3.1800 C   0  0  2  0  0  0  0  0  0  0  0  0
   11.7400  -12.8740   -2.4190 C   0  0  0  0  0  0  0  0  0  0  0  0
   11.9790  -13.1790   -0.9320 C   0  0  0  0  0  0  0  0  0  0  0  0
   13.0390  -12.3030   -3.0040 C   0  0  0  0  0  0  0  0  0  0  0  0
   10.7430  -11.8440   -2.4810 O   0  0  0  0  0  0  0  0  0  0  0  0
    7.9460  -14.2660   -1.5440 C   0  0  2  0  0  0  0  0  0  0  0  0
    8.5920  -13.9190   -0.3290 O   0  0  0  0  0  0  0  0  0  0  0  0
    6.9950  -15.4860   -1.4280 C   0  0  1  0  0  0  0  0  0  0  0  0
    7.7130  -16.6060   -0.6110 C   0  0  0  0  0  0  0  0  0  0  0  0
    5.6150  -15.1660   -0.7870 C   0  0  2  0  0  0  0  0  0  0  0  0
    5.6670  -14.9170    0.7270 C   0  0  0  0  0  0  0  0  0  0  0  0
    4.2840  -14.5670    1.2700 C   0  0  0  0  0  0  0  0  0  0  0  0
    3.3680  -15.7960    1.2020 C   0  0  1  0  0  0  0  0  0  0  0  0
    1.9260  -15.5840    1.7830 C   0  0  0  0  0  0  0  0  0  0  0  0
    1.1280  -14.5070    1.0170 C   0  0  0  0  0  0  0  0  0  0  0  0
    2.0080  -15.1150    3.2570 C   0  0  0  0  0  0  0  0  0  0  0  0
    1.1820  -16.9620    1.7620 C   0  0  1  0  0  0  0  0  0  0  0  0
   -0.1810  -16.7800    2.1680 O   0  0  0  0  0  0  0  0  0  0  0  0
   -0.7670  -17.9490    2.7480 C   0  0  2  0  0  0  0  0  0  0  0  0
   -2.0020  -18.3130    2.1250 O   0  0  0  0  0  0  0  0  0  0  0  0
   -3.1290  -17.6600    2.7050 C   0  0  0  0  0  0  0  0  0  0  0  0
   -3.3610  -18.1300    4.1450 C   0  0  2  0  0  0  0  0  0  0  0  0
   -3.9810  -17.0740    4.8900 O   0  0  0  0  0  0  0  0  0  0  0  0
   -2.0440  -18.5430    4.8170 C   0  0  2  0  0  0  0  0  0  0  0  0
   -2.1570  -18.3770    6.2410 O   0  0  0  0  0  0  0  0  0  0  0  0
   -0.9020  -17.6940    4.2690 C   0  0  1  0  0  0  0  0  0  0  0  0
    0.3130  -18.0140    4.9700 O   0  0  0  0  0  0  0  0  0  0  0  0
    1.1880  -17.6110    0.3740 C   0  0  0  0  0  0  0  0  0  0  0  0
    2.6020  -17.7740   -0.1670 C   0  0  0  0  0  0  0  0  0  0  0  0
    3.3290  -16.4380   -0.1930 C   0  0  1  0  0  0  0  0  0  0  0  0
    3.1530  -15.6080   -1.4380 C   0  0  0  0  0  0  0  0  0  0  0  0
    4.5240  -16.2100   -1.1640 C   0  0  1  0  0  0  0  0  0  0  0  0
    4.9480  -17.3970   -2.0380 C   0  0  0  0  0  0  0  0  0  0  0  0
    6.0910  -17.1940   -3.0450 C   0  0  0  0  0  0  0  0  0  0  0  0
    6.7880  -15.8340   -2.9540 C   0  0  1  0  0  0  0  0  0  0  0  0
    5.9190  -14.8100   -3.7400 C   0  0  0  0  0  0  0  0  0  0  0  0
    8.2570  -15.8060   -3.4920 C   0  0  1  0  0  0  0  0  0  0  0  0
    8.1846  -17.7495   -5.0992 H   0  0  0  0  0  0  0  0  0  0  0  0
    7.4261  -16.8119   -6.4305 H   0  0  0  0  0  0  0  0  0  0  0  0
    9.1995  -17.0979   -6.4305 H   0  0  0  0  0  0  0  0  0  0  0  0
    7.7971  -14.8917   -5.3882 H   0  0  0  0  0  0  0  0  0  0  0  0
   10.6805  -15.8742   -4.9981 H   0  0  0  0  0  0  0  0  0  0  0  0
   10.0376  -14.7428   -6.2691 H   0  0  0  0  0  0  0  0  0  0  0  0
   10.6628  -13.0927   -5.0079 H   0  0  0  0  0  0  0  0  0  0  0  0
   10.5595  -14.8159   -1.2190 H   0  0  0  0  0  0  0  0  0  0  0  0
   10.5793  -16.1078   -2.4126 H   0  0  0  0  0  0  0  0  0  0  0  0
   12.1972  -14.6095   -3.5217 H   0  0  0  0  0  0  0  0  0  0  0  0
   11.4170  -12.4618   -0.3157 H   0  0  0  0  0  0  0  0  0  0  0  0
   11.6386  -14.2007   -0.7079 H   0  0  0  0  0  0  0  0  0  0  0  0
   13.0525  -13.0928   -0.7079 H   0  0  0  0  0  0  0  0  0  0  0  0
   13.7112  -12.0075   -2.1850 H   0  0  0  0  0  0  0  0  0  0  0  0
   13.5298  -13.0683   -3.6232 H   0  0  0  0  0  0  0  0  0  0  0  0
   12.8070  -11.4239   -3.6232 H   0  0  0  0  0  0  0  0  0  0  0  0
   11.1810  -11.0180   -2.1880 H   0  0  0  0  0  0  0  0  0  0  0  0
    7.3921  -13.3445   -1.7765 H   0  0  0  0  0  0  0  0  0  0  0  0
    8.8040  -14.7570    0.1330 H   0  0  0  0  0  0  0  0  0  0  0  0
    7.5887  -16.4121    0.4646 H   0  0  0  0  0  0  0  0  0  0  0  0
    7.2720  -17.5822   -0.8610 H   0  0  0  0  0  0  0  0  0  0  0  0
    8.7842  -16.6128   -0.8610 H   0  0  0  0  0  0  0  0  0  0  0  0
    5.3186  -14.2052   -1.2331 H   0  0  0  0  0  0  0  0  0  0  0  0
    6.0315  -15.8254    1.2289 H   0  0  0  0  0  0  0  0  0  0  0  0
    6.3444  -14.0723    0.9209 H   0  0  0  0  0  0  0  0  0  0  0  0
    4.3756  -14.2382    2.3157 H   0  0  0  0  0  0  0  0  0  0  0  0
    3.8508  -13.7592    0.6619 H   0  0  0  0  0  0  0  0  0  0  0  0
    3.8484  -16.5126    1.8844 H   0  0  0  0  0  0  0  0  0  0  0  0
    0.6321  -13.8378    1.7355 H   0  0  0  0  0  0  0  0  0  0  0  0
    1.8133  -13.9232    0.3849 H   0  0  0  0  0  0  0  0  0  0  0  0
    0.3700  -14.9926    0.3849 H   0  0  0  0  0  0  0  0  0  0  0  0
    1.8574  -15.9761    3.9247 H   0  0  0  0  0  0  0  0  0  0  0  0
    2.9971  -14.6726    3.4465 H   0  0  0  0  0  0  0  0  0  0  0  0
    1.2277  -14.3632    3.4465 H   0  0  0  0  0  0  0  0  0  0  0  0
    1.7189  -17.6259    2.4555 H   0  0  0  0  0  0  0  0  0  0  0  0
   -0.1184  -18.8211    2.5784 H   0  0  0  0  0  0  0  0  0  0  0  0
   -2.9534  -16.5741    2.7058 H   0  0  0  0  0  0  0  0  0  0  0  0
   -4.0200  -17.9082    2.1096 H   0  0  0  0  0  0  0  0  0  0  0  0
   -4.0179  -19.0121    4.1247 H   0  0  0  0  0  0  0  0  0  0  0  0
   -3.2990  -16.7990    5.5410 H   0  0  0  0  0  0  0  0  0  0  0  0
   -1.8332  -19.6006    4.6000 H   0  0  0  0  0  0  0  0  0  0  0  0
   -2.4180  -19.2610    6.5740 H   0  0  0  0  0  0  0  0  0  0  0  0
   -1.1091  -16.6247    4.4229 H   0  0  0  0  0  0  0  0  0  0  0  0
    0.7610  -18.6890    4.4240 H   0  0  0  0  0  0  0  0  0  0  0  0
    0.7162  -18.6024    0.4423 H   0  0  0  0  0  0  0  0  0  0  0  0
    0.6322  -16.9556   -0.3127 H   0  0  0  0  0  0  0  0  0  0  0  0
    3.1558  -18.4732    0.4767 H   0  0  0  0  0  0  0  0  0  0  0  0
    2.5433  -18.1630   -1.1943 H   0  0  0  0  0  0  0  0  0  0  0  0
    2.5445  -15.9944   -2.2689 H   0  0  0  0  0  0  0  0  0  0  0  0
    2.7884  -14.5891   -1.6351 H   0  0  0  0  0  0  0  0  0  0  0  0
    5.2529  -18.2074   -1.3595 H   0  0  0  0  0  0  0  0  0  0  0  0
    4.0676  -17.5972   -2.6663 H   0  0  0  0  0  0  0  0  0  0  0  0
    6.8437  -17.9773   -2.8719 H   0  0  0  0  0  0  0  0  0  0  0  0
    5.6369  -17.2447   -4.0456 H   0  0  0  0  0  0  0  0  0  0  0  0
    5.3753  -14.1693   -3.0301 H   0  0  0  0  0  0  0  0  0  0  0  0
    6.5685  -14.1873   -4.3727 H   0  0  0  0  0  0  0  0  0  0  0  0
    5.1989  -15.3496   -4.3727 H   0  0  0  0  0  0  0  0  0  0  0  0
    8.6610  -16.8202   -3.3574 H   0  0  0  0  0  0  0  0  0  0  0  0
  1  2  1  0
  2  3  1  0
  3  4  1  0
  4  5  1  0
  5  6  1  0
  6  7  1  1
  7  8  1  0
  8  9  1  0
  9 10  1  0
  9 11  1  0
  9 12  1  0
  6 13  1  0
 13 14  1  0
 13 15  1  0
 15 16  1  1
 15 17  1  0
 17 18  1  0
 18 19  1  0
 19 20  1  0
 20 21  1  0
 21 22  1  0
 21 23  1  0
 21 24  1  0
 24 25  1  0
 25 26  1  0
 26 27  1  0
 27 28  1  0
 28 29  1  0
 29 30  1  0
 29 31  1  0
 31 32  1  0
 31 33  1  0
 33 34  1  0
 24 35  1  0
 35 36  1  0
 37 36  1  1
 37 38  1  0
 39 38  1  6
 39 40  1  0
 40 41  1  0
 41 42  1  0
 42 43  1  6
 42 44  1  0
 44  2  1  0
  8  4  1  0
 42 15  1  0
 44  6  1  0
 39 17  1  0
 37 20  1  0
 33 26  1  0
 39 37  1  0
  1 45  1  0
  1 46  1  0
  1 47  1  0
  2 48  1  6
  3 49  1  0
  3 50  1  0
  4 51  1  6
  7 52  1  0
  7 53  1  0
  8 54  1  6
 10 55  1  0
 10 56  1  0
 10 57  1  0
 11 58  1  0
 11 59  1  0
 11 60  1  0
 12 61  1  0
 13 62  1  6
 14 63  1  0
 16 64  1  0
 16 65  1  0
 16 66  1  0
 17 67  1  6
 18 68  1  0
 18 69  1  0
 19 70  1  0
 19 71  1  0
 20 72  1  1
 22 73  1  0
 22 74  1  0
 22 75  1  0
 23 76  1  0
 23 77  1  0
 23 78  1  0
 24 79  1  1
 26 80  1  1
 28 81  1  0
 28 82  1  0
 29 83  1  6
 30 84  1  0
 31 85  1  1
 32 86  1  0
 33 87  1  6
 34 88  1  0
 35 89  1  0
 35 90  1  0
 36 91  1  0
 36 92  1  0
 38 93  1  0
 38 94  1  0
 40 95  1  0
 40 96  1  0
 41 97  1  0
 41 98  1  0
 43 99  1  0
 43100  1  0
 43101  1  0
 44102  1  1
M  END
>  <meeko>  (8) 
{"is_sidechain": [false], "free_energy": -8.154, "intermolecular_energy": -10.782, "internal_energy": -0.879}

$$$$
LIB_YMNLMXSYVMONGN__M_PUB_ALL__e8__s20260927
     RDKit          3D

102109  0  0  0  0  0  0  0  0999 V2000
    2.9590  -10.3490   -3.4000 C   0  0  0  0  0  0  0  0  0  0  0  0
    2.7710  -11.7180   -2.7490 C   0  0  2  0  0  0  0  0  0  0  0  0
    1.6180  -11.6770   -1.7180 C   0  0  0  0  0  0  0  0  0  0  0  0
    1.4920  -12.9960   -0.9170 C   0  0  1  0  0  0  0  0  0  0  0  0
    2.4560  -13.9330   -1.4240 O   0  0  0  0  0  0  0  0  0  0  0  0
    3.7290  -13.3490   -1.0330 C   0  0  1  0  0  0  0  0  0  0  0  0
    3.4560  -12.7390    0.3610 C   0  0  0  0  0  0  0  0  0  0  0  0
    1.9380  -12.8880    0.5480 C   0  0  2  0  0  0  0  0  0  0  0  0
    1.5930  -14.1520    1.4030 C   0  0  0  0  0  0  0  0  0  0  0  0
    2.7530  -14.5070    2.3480 C   0  0  0  0  0  0  0  0  0  0  0  0
    0.3290  -13.9570    2.2510 C   0  0  0  0  0  0  0  0  0  0  0  0
    1.3810  -15.2910    0.5560 O   0  0  0  0  0  0  0  0  0  0  0  0
    4.8360  -14.4270   -1.1490 C   0  0  2  0  0  0  0  0  0  0  0  0
    5.1890  -15.0110    0.0960 O   0  0  0  0  0  0  0  0  0  0  0  0
    6.0050  -13.6990   -1.8600 C   0  0  1  0  0  0  0  0  0  0  0  0
    6.7670  -12.8280   -0.8100 C   0  0  0  0  0  0  0  0  0  0  0  0
    7.0040  -14.6430   -2.5870 C   0  0  2  0  0  0  0  0  0  0  0  0
    7.9190  -15.4380   -1.6450 C   0  0  0  0  0  0  0  0  0  0  0  0
    8.8350  -16.3710   -2.4320 C   0  0  0  0  0  0  0  0  0  0  0  0
    9.8630  -15.5510   -3.2240 C   0  0  1  0  0  0  0  0  0  0  0  0
   10.9040  -16.3970   -4.0370 C   0  0  0  0  0  0  0  0  0  0  0  0
   10.2400  -17.2740   -5.1220 C   0  0  0  0  0  0  0  0  0  0  0  0
   11.6670  -17.3580   -3.0920 C   0  0  0  0  0  0  0  0  0  0  0  0
   11.9490  -15.4150   -4.6660 C   0  0  1  0  0  0  0  0  0  0  0  0
   12.8420  -16.1420   -5.5200 O   0  0  0  0  0  0  0  0  0  0  0  0
   13.1590  -15.4570   -6.7340 C   0  0  2  0  0  0  0  0  0  0  0  0
   12.4540  -15.9820   -7.8630 O   0  0  0  0  0  0  0  0  0  0  0  0
   13.1380  -17.0640   -8.4890 C   0  0  0  0  0  0  0  0  0  0  0  0
   14.4470  -16.5950   -9.1350 C   0  0  2  0  0  0  0  0  0  0  0  0
   15.3830  -17.6790   -9.1410 O   0  0  0  0  0  0  0  0  0  0  0  0
   15.0390  -15.3930   -8.3850 C   0  0  2  0  0  0  0  0  0  0  0  0
   16.4650  -15.3650   -8.5720 O   0  0  0  0  0  0  0  0  0  0  0  0
   14.6970  -15.4960   -6.9020 C   0  0  1  0  0  0  0  0  0  0  0  0
   15.3360  -14.4240   -6.1870 O   0  0  0  0  0  0  0  0  0  0  0  0
   11.2910  -14.3050   -5.4910 C   0  0  0  0  0  0  0  0  0  0  0  0
   10.2680  -13.5260   -4.6750 C   0  0  0  0  0  0  0  0  0  0  0  0
    9.2180  -14.4590   -4.0900 C   0  0  1  0  0  0  0  0  0  0  0  0
    8.0230  -14.7450   -4.9600 C   0  0  0  0  0  0  0  0  0  0  0  0
    7.8120  -13.9160   -3.7000 C   0  0  1  0  0  0  0  0  0  0  0  0
    7.5670  -12.4140   -3.8910 C   0  0  0  0  0  0  0  0  0  0  0  0
    6.1740  -11.8520   -3.5660 C   0  0  0  0  0  0  0  0  0  0  0  0
    5.2100  -12.8600   -2.9350 C   0  0  1  0  0  0  0  0  0  0  0  0
    4.5950  -13.7040   -4.0890 C   0  0  0  0  0  0  0  0  0  0  0  0
    4.0670  -12.2310   -2.0710 C   0  0  1  0  0  0  0  0  0  0  0  0
    3.0643   -9.5825   -2.6181 H   0  0  0  0  0  0  0  0  0  0  0  0
    3.8639  -10.3615   -4.0254 H   0  0  0  0  0  0  0  0  0  0  0  0
    2.0843  -10.1171   -4.0254 H   0  0  0  0  0  0  0  0  0  0  0  0
    2.5164  -12.4219   -3.5550 H   0  0  0  0  0  0  0  0  0  0  0  0
    1.8038  -10.8528   -1.0136 H   0  0  0  0  0  0  0  0  0  0  0  0
    0.6790  -11.5314   -2.2721 H   0  0  0  0  0  0  0  0  0  0  0  0
    0.4304  -13.2710   -1.0026 H   0  0  0  0  0  0  0  0  0  0  0  0
    4.0010  -13.2903    1.1414 H   0  0  0  0  0  0  0  0  0  0  0  0
    3.7887  -11.6931    0.4353 H   0  0  0  0  0  0  0  0  0  0  0  0
    1.4420  -12.0752    1.0988 H   0  0  0  0  0  0  0  0  0  0  0  0
    2.4202  -14.4051    3.3915 H   0  0  0  0  0  0  0  0  0  0  0  0
    3.0715  -15.5437    2.1643 H   0  0  0  0  0  0  0  0  0  0  0  0
    3.5971  -13.8261    2.1643 H   0  0  0  0  0  0  0  0  0  0  0  0
    0.5934  -13.9978    3.3180 H   0  0  0  0  0  0  0  0  0  0  0  0
   -0.1193  -12.9791    2.0214 H   0  0  0  0  0  0  0  0  0  0  0  0
   -0.3932  -14.7544    2.0214 H   0  0  0  0  0  0  0  0  0  0  0  0
    0.6790  -15.0360   -0.0780 H   0  0  0  0  0  0  0  0  0  0  0  0
    4.5006  -15.3038   -1.7223 H   0  0  0  0  0  0  0  0  0  0  0  0
    6.1130  -14.7440    0.2860 H   0  0  0  0  0  0  0  0  0  0  0  0
    6.4870  -13.1481    0.2044 H   0  0  0  0  0  0  0  0  0  0  0  0
    7.8512  -12.9528   -0.9477 H   0  0  0  0  0  0  0  0  0  0  0  0
    6.4993  -11.7700   -0.9477 H   0  0  0  0  0  0  0  0  0  0  0  0
    6.3671  -15.3925   -3.0795 H   0  0  0  0  0  0  0  0  0  0  0  0
    8.5344  -14.7357   -1.0636 H   0  0  0  0  0  0  0  0  0  0  0  0
    7.2913  -16.0449   -0.9759 H   0  0  0  0  0  0  0  0  0  0  0  0
    9.3612  -17.0390   -1.7343 H   0  0  0  0  0  0  0  0  0  0  0  0
    8.2299  -16.9655   -3.1323 H   0  0  0  0  0  0  0  0  0  0  0  0
   10.4517  -15.0501   -2.4414 H   0  0  0  0  0  0  0  0  0  0  0  0
    9.6428  -18.0628   -4.6411 H   0  0  0  0  0  0  0  0  0  0  0  0
    9.5862  -16.6497   -5.7487 H   0  0  0  0  0  0  0  0  0  0  0  0
   11.0183  -17.7340   -5.7487 H   0  0  0  0  0  0  0  0  0  0  0  0
   11.4542  -17.0899   -2.0466 H   0  0  0  0  0  0  0  0  0  0  0  0
   11.3410  -18.3918   -3.2791 H   0  0  0  0  0  0  0  0  0  0  0  0
   12.7478  -17.2748   -3.2791 H   0  0  0  0  0  0  0  0  0  0  0  0
   12.4900  -14.9477   -3.8299 H   0  0  0  0  0  0  0  0  0  0  0  0
   12.8237  -14.4110   -6.6759 H   0  0  0  0  0  0  0  0  0  0  0  0
   13.3656  -17.8298   -7.7328 H   0  0  0  0  0  0  0  0  0  0  0  0
   12.4898  -17.4760   -9.2765 H   0  0  0  0  0  0  0  0  0  0  0  0
   14.2359  -16.2761  -10.1664 H   0  0  0  0  0  0  0  0  0  0  0  0
   15.8010  -17.6490   -8.2530 H   0  0  0  0  0  0  0  0  0  0  0  0
   14.6108  -14.4607   -8.7819 H   0  0  0  0  0  0  0  0  0  0  0  0
   16.7360  -14.4710   -8.2760 H   0  0  0  0  0  0  0  0  0  0  0  0
   15.0656  -16.4456   -6.4867 H   0  0  0  0  0  0  0  0  0  0  0  0
   14.6100  -13.8710   -5.8380 H   0  0  0  0  0  0  0  0  0  0  0  0
   12.0701  -13.6118   -5.8410 H   0  0  0  0  0  0  0  0  0  0  0  0
   10.7686  -14.7724   -6.3387 H   0  0  0  0  0  0  0  0  0  0  0  0
   10.7830  -13.0038   -3.8552 H   0  0  0  0  0  0  0  0  0  0  0  0
    9.7675  -12.8029   -5.3357 H   0  0  0  0  0  0  0  0  0  0  0  0
    7.9407  -14.2665   -5.9470 H   0  0  0  0  0  0  0  0  0  0  0  0
    7.5672  -15.6633   -5.3588 H   0  0  0  0  0  0  0  0  0  0  0  0
    8.2885  -11.8833   -3.2524 H   0  0  0  0  0  0  0  0  0  0  0  0
    7.6743  -12.2589   -4.9747 H   0  0  0  0  0  0  0  0  0  0  0  0
    6.2978  -11.0120   -2.8667 H   0  0  0  0  0  0  0  0  0  0  0  0
    5.7274  -11.5531   -4.5258 H   0  0  0  0  0  0  0  0  0  0  0  0
    3.9973  -14.5243   -3.6650 H   0  0  0  0  0  0  0  0  0  0  0  0
    3.9507  -13.0632   -4.7088 H   0  0  0  0  0  0  0  0  0  0  0  0
    5.4024  -14.1210   -4.7088 H   0  0  0  0  0  0  0  0  0  0  0  0
    4.4562  -11.2803   -1.6778 H   0  0  0  0  0  0  0  0  0  0  0  0
  1  2  1  0
  2  3  1  0
  3  4  1  0
  4  5  1  0
  5  6  1  0
  6  7  1  1
  7  8  1  0
  8  9  1  0
  9 10  1  0
  9 11  1  0
  9 12  1  0
  6 13  1  0
 13 14  1  0
 13 15  1  0
 15 16  1  1
 15 17  1  0
 17 18  1  0
 18 19  1  0
 19 20  1  0
 20 21  1  0
 21 22  1  0
 21 23  1  0
 21 24  1  0
 24 25  1  0
 25 26  1  0
 26 27  1  0
 27 28  1  0
 28 29  1  0
 29 30  1  0
 29 31  1  0
 31 32  1  0
 31 33  1  0
 33 34  1  0
 24 35  1  0
 35 36  1  0
 37 36  1  6
 37 38  1  0
 39 38  1  6
 39 40  1  0
 40 41  1  0
 41 42  1  0
 42 43  1  6
 42 44  1  0
 44  2  1  0
  8  4  1  0
 42 15  1  0
 44  6  1  0
 39 17  1  0
 37 20  1  0
 33 26  1  0
 39 37  1  0
  1 45  1  0
  1 46  1  0
  1 47  1  0
  2 48  1  6
  3 49  1  0
  3 50  1  0
  4 51  1  1
  7 52  1  0
  7 53  1  0
  8 54  1  1
 10 55  1  0
 10 56  1  0
 10 57  1  0
 11 58  1  0
 11 59  1  0
 11 60  1  0
 12 61  1  0
 13 62  1  6
 14 63  1  0
 16 64  1  0
 16 65  1  0
 16 66  1  0
 17 67  1  6
 18 68  1  0
 18 69  1  0
 19 70  1  0
 19 71  1  0
 20 72  1  1
 22 73  1  0
 22 74  1  0
 22 75  1  0
 23 76  1  0
 23 77  1  0
 23 78  1  0
 24 79  1  1
 26 80  1  1
 28 81  1  0
 28 82  1  0
 29 83  1  6
 30 84  1  0
 31 85  1  6
 32 86  1  0
 33 87  1  1
 34 88  1  0
 35 89  1  0
 35 90  1  0
 36 91  1  0
 36 92  1  0
 38 93  1  0
 38 94  1  0
 40 95  1  0
 40 96  1  0
 41 97  1  0
 41 98  1  0
 43 99  1  0
 43100  1  0
 43101  1  0
 44102  1  1
M  END
>  <meeko>  (9) 
{"is_sidechain": [false], "free_energy": -8.064, "intermolecular_energy": -10.782, "internal_energy": -0.76}

$$$$
