LIB_KYJMGBRNBMEYEY__M_PUB_ALL__e8__s20260927
     RDKit          3D

 63 67  0  0  0  0  0  0  0  0999 V2000
    6.4580  -12.6500   -4.6660 O   0  0  0  0  0  0  0  0  0  0  0  0
    5.6570  -13.0360   -5.5110 C   0  0  0  0  0  0  0  0  0  0  0  0
    4.2810  -13.0160   -5.3840 N   0  0  0  0  0  0  0  0  0  0  0  0
    3.5280  -12.4510   -4.3360 C   0  0  0  0  0  0  0  0  0  0  0  0
    2.9750  -13.1890   -3.2890 C   0  0  0  0  0  0  0  0  0  0  0  0
    2.2360  -12.5570   -2.2840 C   0  0  0  0  0  0  0  0  0  0  0  0
    2.0220  -11.1740   -2.3210 C   0  0  0  0  0  0  0  0  0  0  0  0
    1.1470  -10.5120   -1.2860 C   0  0  0  0  0  0  0  0  0  0  0  0
    0.8200  -11.4450   -0.1120 C   0  0  0  0  0  0  0  0  0  0  0  0
    0.7130  -10.6620    1.1690 N   0  0  0  0  0  0  0  0  0  0  0  0
   -0.0100   -9.3390    1.0840 C   0  0  0  0  0  0  0  0  0  0  0  0
   -1.3410   -9.2980    1.8780 C   0  0  2  0  0  0  0  0  0  0  0  0
   -1.0790   -9.5730    3.2540 O   0  0  0  0  0  0  0  0  0  0  0  0
   -2.3630  -10.2520    1.3150 C   0  0  0  0  0  0  0  0  0  0  0  0
   -2.9350  -10.0280    0.0560 C   0  0  0  0  0  0  0  0  0  0  0  0
   -3.8220  -10.9590   -0.4800 C   0  0  0  0  0  0  0  0  0  0  0  0
   -4.0990  -12.0980    0.2530 C   0  0  0  0  0  0  0  0  0  0  0  0
   -3.5600  -12.3500    1.4650 N   0  0  0  0  0  0  0  0  0  0  0  0
   -2.7350  -11.4170    1.9790 C   0  0  0  0  0  0  0  0  0  0  0  0
    2.5970  -10.4290   -3.3570 C   0  0  0  0  0  0  0  0  0  0  0  0
    3.3460  -11.0640   -4.3510 C   0  0  0  0  0  0  0  0  0  0  0  0
    6.2040  -13.6580   -6.7560 C   0  0  0  0  0  0  0  0  0  0  0  0
    6.0380  -12.9140   -7.9390 C   0  0  0  0  0  0  0  0  0  0  0  0
    6.4960  -13.4010   -9.1630 C   0  0  0  0  0  0  0  0  0  0  0  0
    7.1210  -14.6420   -9.2230 C   0  0  0  0  0  0  0  0  0  0  0  0
    7.2770  -15.3990   -8.0600 C   0  0  0  0  0  0  0  0  0  0  0  0
    6.8130  -14.9260   -6.8180 C   0  0  0  0  0  0  0  0  0  0  0  0
    6.9940  -15.7780   -5.6440 C   0  0  0  0  0  0  0  0  0  0  0  0
    8.0250  -15.6940   -4.8280 N   0  0  0  0  0  0  0  0  0  0  0  0
    7.9050  -16.6520   -3.8320 C   0  0  0  0  0  0  0  0  0  0  0  0
    8.8340  -16.8900   -2.7990 C   0  0  0  0  0  0  0  0  0  0  0  0
    8.5800  -17.8850   -1.8490 C   0  0  0  0  0  0  0  0  0  0  0  0
    7.4160  -18.6430   -1.9180 C   0  0  0  0  0  0  0  0  0  0  0  0
    6.4800  -18.4300   -2.9340 C   0  0  0  0  0  0  0  0  0  0  0  0
    6.7460  -17.4310   -3.8840 C   0  0  0  0  0  0  0  0  0  0  0  0
    5.8070  -16.9470   -5.2430 S   0  0  0  0  0  0  0  0  0  0  0  0
    3.7400  -13.4410   -6.1370 H   0  0  0  0  0  0  0  0  0  0  0  0
    3.1217  -14.2786   -3.2537 H   0  0  0  0  0  0  0  0  0  0  0  0
    1.8194  -13.1515   -1.4575 H   0  0  0  0  0  0  0  0  0  0  0  0
    1.6689   -9.6251   -0.8974 H   0  0  0  0  0  0  0  0  0  0  0  0
    0.1986  -10.2410   -1.7728 H   0  0  0  0  0  0  0  0  0  0  0  0
   -0.1366  -11.9516   -0.3077 H   0  0  0  0  0  0  0  0  0  0  0  0
    1.6271  -12.1854   -0.0103 H   0  0  0  0  0  0  0  0  0  0  0  0
    1.6500  -10.5320    1.5770 H   0  0  0  0  0  0  0  0  0  0  0  0
    0.2020  -11.2440    1.8490 H   0  0  0  0  0  0  0  0  0  0  0  0
    0.6534   -8.5558    1.4795 H   0  0  0  0  0  0  0  0  0  0  0  0
   -0.2648   -9.1820    0.0255 H   0  0  0  0  0  0  0  0  0  0  0  0
   -1.7716   -8.2900    1.7854 H   0  0  0  0  0  0  0  0  0  0  0  0
   -1.9100   -9.9140    3.6430 H   0  0  0  0  0  0  0  0  0  0  0  0
   -2.6841   -9.1180   -0.5088 H   0  0  0  0  0  0  0  0  0  0  0  0
   -4.2900  -10.7921   -1.4614 H   0  0  0  0  0  0  0  0  0  0  0  0
   -4.7940  -12.8366   -0.1729 H   0  0  0  0  0  0  0  0  0  0  0  0
   -2.3298  -11.5869    2.9874 H   0  0  0  0  0  0  0  0  0  0  0  0
    2.4586   -9.3382   -3.3888 H   0  0  0  0  0  0  0  0  0  0  0  0
    3.7983  -10.4657   -5.1556 H   0  0  0  0  0  0  0  0  0  0  0  0
    5.5398  -11.9342   -7.8977 H   0  0  0  0  0  0  0  0  0  0  0  0
    6.3633  -12.8054  -10.0782 H   0  0  0  0  0  0  0  0  0  0  0  0
    7.4917  -15.0264  -10.1847 H   0  0  0  0  0  0  0  0  0  0  0  0
    7.7703  -16.3806   -8.1153 H   0  0  0  0  0  0  0  0  0  0  0  0
    9.7570  -16.2945   -2.7399 H   0  0  0  0  0  0  0  0  0  0  0  0
    9.3052  -18.0689   -1.0426 H   0  0  0  0  0  0  0  0  0  0  0  0
    7.2294  -19.4207   -1.1628 H   0  0  0  0  0  0  0  0  0  0  0  0
    5.5592  -19.0293   -2.9879 H   0  0  0  0  0  0  0  0  0  0  0  0
  1  2  2  0
  2  3  1  0
  3  4  1  0
  4  5  2  0
  5  6  1  0
  6  7  2  0
  7  8  1  0
  8  9  1  0
  9 10  1  0
 10 11  1  0
 11 12  1  0
 12 13  1  0
 12 14  1  0
 14 15  2  0
 15 16  1  0
 16 17  2  0
 17 18  1  0
 18 19  2  0
  7 20  1  0
 20 21  2  0
  2 22  1  0
 22 23  2  0
 23 24  1  0
 24 25  2  0
 25 26  1  0
 26 27  2  0
 27 28  1  0
 28 29  2  0
 29 30  1  0
 30 31  2  0
 31 32  1  0
 32 33  2  0
 33 34  1  0
 34 35  2  0
 35 36  1  0
 21  4  1  0
 27 22  1  0
 36 28  1  0
 19 14  1  0
 35 30  1  0
  3 37  1  0
  5 38  1  0
  6 39  1  0
  8 40  1  0
  8 41  1  0
  9 42  1  0
  9 43  1  0
 10 44  1  0
 10 45  1  0
 11 46  1  0
 11 47  1  0
 12 48  1  1
 13 49  1  0
 15 50  1  0
 16 51  1  0
 17 52  1  0
 19 53  1  0
 20 54  1  0
 21 55  1  0
 23 56  1  0
 24 57  1  0
 25 58  1  0
 26 59  1  0
 31 60  1  0
 32 61  1  0
 33 62  1  0
 34 63  1  0
M  CHG  1  10   1
M  END
>  <meeko>  (1) 
{"is_sidechain": [false], "free_energy": -8.337, "intermolecular_energy": -12.967, "internal_energy": -1.344}

$$$$
LIB_KYJMGBRNBMEYEY__M_PUB_ALL__e8__s20260927
     RDKit          3D

 63 67  0  0  0  0  0  0  0  0999 V2000
    2.3310  -11.0060    0.9080 O   0  0  0  0  0  0  0  0  0  0  0  0
    1.2390  -11.0110    0.3470 C   0  0  0  0  0  0  0  0  0  0  0  0
    1.0360  -11.1200   -1.0150 N   0  0  0  0  0  0  0  0  0  0  0  0
    2.0070  -11.3630   -2.0080 C   0  0  0  0  0  0  0  0  0  0  0  0
    2.3590  -10.4430   -2.9950 C   0  0  0  0  0  0  0  0  0  0  0  0
    3.3320  -10.7570   -3.9490 C   0  0  0  0  0  0  0  0  0  0  0  0
    3.9570  -12.0100   -3.9410 C   0  0  0  0  0  0  0  0  0  0  0  0
    4.9370  -12.3770   -5.0270 C   0  0  0  0  0  0  0  0  0  0  0  0
    6.1900  -13.0720   -4.4740 C   0  0  0  0  0  0  0  0  0  0  0  0
    7.3160  -12.0860   -4.3230 N   0  0  0  0  0  0  0  0  0  0  0  0
    7.8340  -11.8740   -2.9210 C   0  0  0  0  0  0  0  0  0  0  0  0
    6.7730  -11.3160   -1.9380 C   0  0  2  0  0  0  0  0  0  0  0  0
    7.0820   -9.9570   -1.6290 O   0  0  0  0  0  0  0  0  0  0  0  0
    6.6680  -12.1510   -0.6870 C   0  0  0  0  0  0  0  0  0  0  0  0
    5.6990  -11.8690    0.2840 C   0  0  0  0  0  0  0  0  0  0  0  0
    5.5690  -12.6980    1.3960 C   0  0  0  0  0  0  0  0  0  0  0  0
    6.4030  -13.7950    1.4980 C   0  0  0  0  0  0  0  0  0  0  0  0
    7.3420  -14.1020    0.5770 N   0  0  0  0  0  0  0  0  0  0  0  0
    7.4740  -13.2650   -0.4710 C   0  0  0  0  0  0  0  0  0  0  0  0
    3.6230  -12.9250   -2.9370 C   0  0  0  0  0  0  0  0  0  0  0  0
    2.6600  -12.6000   -1.9780 C   0  0  0  0  0  0  0  0  0  0  0  0
    0.0220  -10.8030    1.1890 C   0  0  0  0  0  0  0  0  0  0  0  0
   -0.4070   -9.4700    1.3310 C   0  0  0  0  0  0  0  0  0  0  0  0
   -1.5230   -9.1540    2.1050 C   0  0  0  0  0  0  0  0  0  0  0  0
   -2.2220  -10.1650    2.7550 C   0  0  0  0  0  0  0  0  0  0  0  0
   -1.7980  -11.4900    2.6390 C   0  0  0  0  0  0  0  0  0  0  0  0
   -0.6680  -11.8260    1.8670 C   0  0  0  0  0  0  0  0  0  0  0  0
   -0.2690  -13.2300    1.8030 C   0  0  0  0  0  0  0  0  0  0  0  0
    0.4600  -13.8290    2.7220 N   0  0  0  0  0  0  0  0  0  0  0  0
    0.6780  -15.1480    2.3530 C   0  0  0  0  0  0  0  0  0  0  0  0
    1.4440  -16.0910    3.0690 C   0  0  0  0  0  0  0  0  0  0  0  0
    1.5710  -17.3970    2.5840 C   0  0  0  0  0  0  0  0  0  0  0  0
    0.9460  -17.7730    1.4000 C   0  0  0  0  0  0  0  0  0  0  0  0
    0.1840  -16.8560    0.6690 C   0  0  0  0  0  0  0  0  0  0  0  0
    0.0660  -15.5480    1.1620 C   0  0  0  0  0  0  0  0  0  0  0  0
   -0.7810  -14.2080    0.4910 S   0  0  0  0  0  0  0  0  0  0  0  0
    0.0770  -11.0330   -1.3500 H   0  0  0  0  0  0  0  0  0  0  0  0
    1.8661   -9.4600   -3.0234 H   0  0  0  0  0  0  0  0  0  0  0  0
    3.6085  -10.0140   -4.7116 H   0  0  0  0  0  0  0  0  0  0  0  0
    4.4406  -13.0556   -5.7363 H   0  0  0  0  0  0  0  0  0  0  0  0
    5.2584  -11.4463   -5.5175 H   0  0  0  0  0  0  0  0  0  0  0  0
    5.9576  -13.5093   -3.4918 H   0  0  0  0  0  0  0  0  0  0  0  0
    6.4990  -13.8601   -5.1765 H   0  0  0  0  0  0  0  0  0  0  0  0
    7.0480  -11.1850   -4.7450 H   0  0  0  0  0  0  0  0  0  0  0  0
    8.1070  -12.4240   -4.8920 H   0  0  0  0  0  0  0  0  0  0  0  0
    8.1912  -12.8397   -2.5338 H   0  0  0  0  0  0  0  0  0  0  0  0
    8.6354  -11.1233   -2.9864 H   0  0  0  0  0  0  0  0  0  0  0  0
    5.7883  -11.3613   -2.4262 H   0  0  0  0  0  0  0  0  0  0  0  0
    8.0510   -9.8540   -1.7220 H   0  0  0  0  0  0  0  0  0  0  0  0
    5.0417  -10.9945    0.1688 H   0  0  0  0  0  0  0  0  0  0  0  0
    4.8209  -12.4846    2.1737 H   0  0  0  0  0  0  0  0  0  0  0  0
    6.2967  -14.4518    2.3740 H   0  0  0  0  0  0  0  0  0  0  0  0
    8.2688  -13.4755   -1.2017 H   0  0  0  0  0  0  0  0  0  0  0  0
    4.1209  -13.9052   -2.9022 H   0  0  0  0  0  0  0  0  0  0  0  0
    2.4122  -13.3259   -1.1895 H   0  0  0  0  0  0  0  0  0  0  0  0
    0.1462   -8.6657    0.8240 H   0  0  0  0  0  0  0  0  0  0  0  0
   -1.8494   -8.1079    2.2011 H   0  0  0  0  0  0  0  0  0  0  0  0
   -3.1079   -9.9211    3.3598 H   0  0  0  0  0  0  0  0  0  0  0  0
   -2.3546  -12.2841    3.1583 H   0  0  0  0  0  0  0  0  0  0  0  0
    1.9404  -15.8003    4.0066 H   0  0  0  0  0  0  0  0  0  0  0  0
    2.1693  -18.1315    3.1430 H   0  0  0  0  0  0  0  0  0  0  0  0
    1.0523  -18.8048    1.0338 H   0  0  0  0  0  0  0  0  0  0  0  0
   -0.3099  -17.1527   -0.2680 H   0  0  0  0  0  0  0  0  0  0  0  0
  1  2  2  0
  2  3  1  0
  3  4  1  0
  4  5  2  0
  5  6  1  0
  6  7  2  0
  7  8  1  0
  8  9  1  0
  9 10  1  0
 10 11  1  0
 11 12  1  0
 12 13  1  0
 12 14  1  0
 14 15  2  0
 15 16  1  0
 16 17  2  0
 17 18  1  0
 18 19  2  0
  7 20  1  0
 20 21  2  0
  2 22  1  0
 22 23  2  0
 23 24  1  0
 24 25  2  0
 25 26  1  0
 26 27  2  0
 27 28  1  0
 28 29  2  0
 29 30  1  0
 30 31  2  0
 31 32  1  0
 32 33  2  0
 33 34  1  0
 34 35  2  0
 35 36  1  0
 21  4  1  0
 27 22  1  0
 36 28  1  0
 19 14  1  0
 35 30  1  0
  3 37  1  0
  5 38  1  0
  6 39  1  0
  8 40  1  0
  8 41  1  0
  9 42  1  0
  9 43  1  0
 10 44  1  0
 10 45  1  0
 11 46  1  0
 11 47  1  0
 12 48  1  6
 13 49  1  0
 15 50  1  0
 16 51  1  0
 17 52  1  0
 19 53  1  0
 20 54  1  0
 21 55  1  0
 23 56  1  0
 24 57  1  0
 25 58  1  0
 26 59  1  0
 31 60  1  0
 32 61  1  0
 33 62  1  0
 34 63  1  0
M  CHG  1  10   1
M  END
>  <meeko>  (2) 
{"is_sidechain": [false], "free_energy": -8.258, "intermolecular_energy": -11.945, "internal_energy": -2.242}

$$$$
LIB_KYJMGBRNBMEYEY__M_PUB_ALL__e8__s20260927
     RDKit          3D

 63 67  0  0  0  0  0  0  0  0999 V2000
    1.6130  -14.9220    0.4870 O   0  0  0  0  0  0  0  0  0  0  0  0
    1.5790  -13.9120    1.1840 C   0  0  0  0  0  0  0  0  0  0  0  0
    2.0170  -12.6580    0.8050 N   0  0  0  0  0  0  0  0  0  0  0  0
    2.4710  -12.2590   -0.4680 C   0  0  0  0  0  0  0  0  0  0  0  0
    1.6920  -11.5590   -1.3890 C   0  0  0  0  0  0  0  0  0  0  0  0
    2.2110  -11.1990   -2.6360 C   0  0  0  0  0  0  0  0  0  0  0  0
    3.5200  -11.5520   -2.9900 C   0  0  0  0  0  0  0  0  0  0  0  0
    4.0440  -11.2420   -4.3700 C   0  0  0  0  0  0  0  0  0  0  0  0
    5.0680  -12.2790   -4.8530 C   0  0  0  0  0  0  0  0  0  0  0  0
    4.6430  -12.8640   -6.1720 N   0  0  0  0  0  0  0  0  0  0  0  0
    5.5590  -12.6040   -7.3440 C   0  0  0  0  0  0  0  0  0  0  0  0
    6.5370  -13.7680   -7.6480 C   0  0  2  0  0  0  0  0  0  0  0  0
    7.5590  -13.8000   -6.6520 O   0  0  0  0  0  0  0  0  0  0  0  0
    7.1250  -13.6650   -9.0320 C   0  0  0  0  0  0  0  0  0  0  0  0
    6.3050  -13.7370  -10.1660 C   0  0  0  0  0  0  0  0  0  0  0  0
    6.8570  -13.5640  -11.4330 C   0  0  0  0  0  0  0  0  0  0  0  0
    8.2120  -13.3100  -11.5290 C   0  0  0  0  0  0  0  0  0  0  0  0
    9.0300  -13.2260  -10.4580 N   0  0  0  0  0  0  0  0  0  0  0  0
    8.4800  -13.4340   -9.2460 C   0  0  0  0  0  0  0  0  0  0  0  0
    4.3110  -12.2320   -2.0580 C   0  0  0  0  0  0  0  0  0  0  0  0
    3.7900  -12.5770   -0.8080 C   0  0  0  0  0  0  0  0  0  0  0  0
    1.0980  -14.0540    2.5930 C   0  0  0  0  0  0  0  0  0  0  0  0
    1.9920  -14.6700    3.4880 C   0  0  0  0  0  0  0  0  0  0  0  0
    1.6460  -14.8690    4.8250 C   0  0  0  0  0  0  0  0  0  0  0  0
    0.3980  -14.4610    5.2830 C   0  0  0  0  0  0  0  0  0  0  0  0
   -0.5070  -13.8650    4.4020 C   0  0  0  0  0  0  0  0  0  0  0  0
   -0.1760  -13.6640    3.0480 C   0  0  0  0  0  0  0  0  0  0  0  0
   -1.1760  -13.0500    2.1770 C   0  0  0  0  0  0  0  0  0  0  0  0
   -1.0560  -11.8460    1.6560 N   0  0  0  0  0  0  0  0  0  0  0  0
   -2.1820  -11.5560    0.8990 C   0  0  0  0  0  0  0  0  0  0  0  0
   -2.4300  -10.3470    0.2180 C   0  0  0  0  0  0  0  0  0  0  0  0
   -3.6070  -10.1930   -0.5220 C   0  0  0  0  0  0  0  0  0  0  0  0
   -4.5350  -11.2260   -0.5900 C   0  0  0  0  0  0  0  0  0  0  0  0
   -4.3150  -12.4340    0.0780 C   0  0  0  0  0  0  0  0  0  0  0  0
   -3.1330  -12.5770    0.8210 C   0  0  0  0  0  0  0  0  0  0  0  0
   -2.5910  -13.9190    1.7520 S   0  0  0  0  0  0  0  0  0  0  0  0
    1.9990  -11.9260    1.5150 H   0  0  0  0  0  0  0  0  0  0  0  0
    0.6577  -11.2872   -1.1313 H   0  0  0  0  0  0  0  0  0  0  0  0
    1.5872  -10.6344   -3.3446 H   0  0  0  0  0  0  0  0  0  0  0  0
    3.1986  -11.2258   -5.0736 H   0  0  0  0  0  0  0  0  0  0  0  0
    4.5498  -10.2662   -4.3257 H   0  0  0  0  0  0  0  0  0  0  0  0
    6.0475  -11.7926   -4.9715 H   0  0  0  0  0  0  0  0  0  0  0  0
    5.1335  -13.0873   -4.1098 H   0  0  0  0  0  0  0  0  0  0  0  0
    3.6840  -12.5610   -6.3940 H   0  0  0  0  0  0  0  0  0  0  0  0
    4.5820  -13.8870   -6.0560 H   0  0  0  0  0  0  0  0  0  0  0  0
    4.9392  -12.4306   -8.2361 H   0  0  0  0  0  0  0  0  0  0  0  0
    6.1742  -11.7310   -7.0806 H   0  0  0  0  0  0  0  0  0  0  0  0
    5.9736  -14.7123   -7.6191 H   0  0  0  0  0  0  0  0  0  0  0  0
    7.5900  -12.9110   -6.2430 H   0  0  0  0  0  0  0  0  0  0  0  0
    5.2276  -13.9297  -10.0558 H   0  0  0  0  0  0  0  0  0  0  0  0
    6.2301  -13.6279  -12.3346 H   0  0  0  0  0  0  0  0  0  0  0  0
    8.6466  -13.1690  -12.5296 H   0  0  0  0  0  0  0  0  0  0  0  0
    9.1447  -13.4203   -8.3697 H   0  0  0  0  0  0  0  0  0  0  0  0
    5.3485  -12.4965   -2.3103 H   0  0  0  0  0  0  0  0  0  0  0  0
    4.4254  -13.1055   -0.0821 H   0  0  0  0  0  0  0  0  0  0  0  0
    2.9780  -14.9995    3.1285 H   0  0  0  0  0  0  0  0  0  0  0  0
    2.3578  -15.3469    5.5142 H   0  0  0  0  0  0  0  0  0  0  0  0
    0.1239  -14.6076    6.3382 H   0  0  0  0  0  0  0  0  0  0  0  0
   -1.4934  -13.5477    4.7713 H   0  0  0  0  0  0  0  0  0  0  0  0
   -1.6994   -9.5262    0.2684 H   0  0  0  0  0  0  0  0  0  0  0  0
   -3.7994   -9.2492   -1.0532 H   0  0  0  0  0  0  0  0  0  0  0  0
   -5.4550  -11.0908   -1.1776 H   0  0  0  0  0  0  0  0  0  0  0  0
   -5.0492  -13.2513    0.0228 H   0  0  0  0  0  0  0  0  0  0  0  0
  1  2  2  0
  2  3  1  0
  3  4  1  0
  4  5  2  0
  5  6  1  0
  6  7  2  0
  7  8  1  0
  8  9  1  0
  9 10  1  0
 10 11  1  0
 11 12  1  0
 12 13  1  0
 12 14  1  0
 14 15  2  0
 15 16  1  0
 16 17  2  0
 17 18  1  0
 18 19  2  0
  7 20  1  0
 20 21  2  0
  2 22  1  0
 22 23  2  0
 23 24  1  0
 24 25  2  0
 25 26  1  0
 26 27  2  0
 27 28  1  0
 28 29  2  0
 29 30  1  0
 30 31  2  0
 31 32  1  0
 32 33  2  0
 33 34  1  0
 34 35  2  0
 35 36  1  0
 21  4  1  0
 27 22  1  0
 36 28  1  0
 19 14  1  0
 35 30  1  0
  3 37  1  0
  5 38  1  0
  6 39  1  0
  8 40  1  0
  8 41  1  0
  9 42  1  0
  9 43  1  0
 10 44  1  0
 10 45  1  0
 11 46  1  0
 11 47  1  0
 12 48  1  6
 13 49  1  0
 15 50  1  0
 16 51  1  0
 17 52  1  0
 19 53  1  0
 20 54  1  0
 21 55  1  0
 23 56  1  0
 24 57  1  0
 25 58  1  0
 26 59  1  0
 31 60  1  0
 32 61  1  0
 33 62  1  0
 34 63  1  0
M  CHG  1  10   1
M  END
>  <meeko>  (3) 
{"is_sidechain": [false], "free_energy": -8.204, "intermolecular_energy": -12.904, "internal_energy": -1.199}

$$$$
LIB_KYJMGBRNBMEYEY__M_PUB_ALL__e8__s20260927
     RDKit          3D

 63 67  0  0  0  0  0  0  0  0999 V2000
   -3.1820  -16.9900    2.5060 O   0  0  0  0  0  0  0  0  0  0  0  0
   -3.0900  -16.0770    3.3200 C   0  0  0  0  0  0  0  0  0  0  0  0
   -1.9100  -15.5070    3.7580 N   0  0  0  0  0  0  0  0  0  0  0  0
   -0.6080  -15.7650    3.2850 C   0  0  0  0  0  0  0  0  0  0  0  0
   -0.0270  -17.0330    3.2550 C   0  0  0  0  0  0  0  0  0  0  0  0
    1.2720  -17.2110    2.7720 C   0  0  0  0  0  0  0  0  0  0  0  0
    2.0220  -16.1160    2.3270 C   0  0  0  0  0  0  0  0  0  0  0  0
    3.4550  -16.3000    1.8950 C   0  0  0  0  0  0  0  0  0  0  0  0
    3.5760  -17.1290    0.6080 C   0  0  0  0  0  0  0  0  0  0  0  0
    4.1300  -16.2870   -0.5100 N   0  0  0  0  0  0  0  0  0  0  0  0
    3.2420  -15.1730   -1.0100 C   0  0  0  0  0  0  0  0  0  0  0  0
    2.0930  -15.6530   -1.9340 C   0  0  2  0  0  0  0  0  0  0  0  0
    2.1280  -14.9140   -3.1550 O   0  0  0  0  0  0  0  0  0  0  0  0
    0.7470  -15.5430   -1.2660 C   0  0  0  0  0  0  0  0  0  0  0  0
    0.0910  -14.3080   -1.1750 C   0  0  0  0  0  0  0  0  0  0  0  0
   -1.1850  -14.2390   -0.6200 C   0  0  0  0  0  0  0  0  0  0  0  0
   -1.7760  -15.4110   -0.1860 C   0  0  0  0  0  0  0  0  0  0  0  0
   -1.1770  -16.6180   -0.2660 N   0  0  0  0  0  0  0  0  0  0  0  0
    0.0720  -16.6550   -0.7710 C   0  0  0  0  0  0  0  0  0  0  0  0
    1.4330  -14.8470    2.3330 C   0  0  0  0  0  0  0  0  0  0  0  0
    0.1280  -14.6770    2.8040 C   0  0  0  0  0  0  0  0  0  0  0  0
   -4.3480  -15.5840    3.9590 C   0  0  0  0  0  0  0  0  0  0  0  0
   -4.9390  -16.4470    4.9000 C   0  0  0  0  0  0  0  0  0  0  0  0
   -6.1230  -16.0990    5.5500 C   0  0  0  0  0  0  0  0  0  0  0  0
   -6.7370  -14.8840    5.2630 C   0  0  0  0  0  0  0  0  0  0  0  0
   -6.1720  -14.0250    4.3180 C   0  0  0  0  0  0  0  0  0  0  0  0
   -4.9810  -14.3650    3.6470 C   0  0  0  0  0  0  0  0  0  0  0  0
   -4.4540  -13.4280    2.6580 C   0  0  0  0  0  0  0  0  0  0  0  0
   -3.2900  -12.8220    2.7690 N   0  0  0  0  0  0  0  0  0  0  0  0
   -3.0980  -11.9860    1.6780 C   0  0  0  0  0  0  0  0  0  0  0  0
   -1.9850  -11.1480    1.4650 C   0  0  0  0  0  0  0  0  0  0  0  0
   -1.9150  -10.3630    0.3090 C   0  0  0  0  0  0  0  0  0  0  0  0
   -2.9380  -10.4030   -0.6320 C   0  0  0  0  0  0  0  0  0  0  0  0
   -4.0540  -11.2230   -0.4440 C   0  0  0  0  0  0  0  0  0  0  0  0
   -4.1160  -12.0040    0.7210 C   0  0  0  0  0  0  0  0  0  0  0  0
   -5.3500  -13.0880    1.2370 S   0  0  0  0  0  0  0  0  0  0  0  0
   -1.9790  -14.8060    4.4960 H   0  0  0  0  0  0  0  0  0  0  0  0
   -0.5975  -17.9017    3.6153 H   0  0  0  0  0  0  0  0  0  0  0  0
    1.7089  -18.2200    2.7412 H   0  0  0  0  0  0  0  0  0  0  0  0
    3.9015  -15.3099    1.7208 H   0  0  0  0  0  0  0  0  0  0  0  0
    3.9795  -16.8433    2.6948 H   0  0  0  0  0  0  0  0  0  0  0  0
    4.2487  -17.9806    0.7876 H   0  0  0  0  0  0  0  0  0  0  0  0
    2.5771  -17.4894    0.3212 H   0  0  0  0  0  0  0  0  0  0  0  0
    4.4170  -16.8930   -1.2920 H   0  0  0  0  0  0  0  0  0  0  0  0
    5.0020  -15.8530   -0.1730 H   0  0  0  0  0  0  0  0  0  0  0  0
    2.7984  -14.6666   -0.1401 H   0  0  0  0  0  0  0  0  0  0  0  0
    3.8761  -14.5037   -1.6099 H   0  0  0  0  0  0  0  0  0  0  0  0
    2.2446  -16.7204   -2.1522 H   0  0  0  0  0  0  0  0  0  0  0  0
    2.5520  -15.4860   -3.8260 H   0  0  0  0  0  0  0  0  0  0  0  0
    0.5827  -13.3947   -1.5411 H   0  0  0  0  0  0  0  0  0  0  0  0
   -1.7091  -13.2761   -0.5294 H   0  0  0  0  0  0  0  0  0  0  0  0
   -2.7859  -15.3572    0.2466 H   0  0  0  0  0  0  0  0  0  0  0  0
    0.5905  -17.6249   -0.7934 H   0  0  0  0  0  0  0  0  0  0  0  0
    1.9996  -13.9788    1.9653 H   0  0  0  0  0  0  0  0  0  0  0  0
   -0.3259  -13.6751    2.7963 H   0  0  0  0  0  0  0  0  0  0  0  0
   -4.4600  -17.4109    5.1266 H   0  0  0  0  0  0  0  0  0  0  0  0
   -6.5697  -16.7827    6.2869 H   0  0  0  0  0  0  0  0  0  0  0  0
   -7.6659  -14.6005    5.7795 H   0  0  0  0  0  0  0  0  0  0  0  0
   -6.6649  -13.0675    4.0940 H   0  0  0  0  0  0  0  0  0  0  0  0
   -1.1730  -11.1112    2.2061 H   0  0  0  0  0  0  0  0  0  0  0  0
   -1.0453   -9.7101    0.1435 H   0  0  0  0  0  0  0  0  0  0  0  0
   -2.8679   -9.7809   -1.5365 H   0  0  0  0  0  0  0  0  0  0  0  0
   -4.8625  -11.2556   -1.1892 H   0  0  0  0  0  0  0  0  0  0  0  0
  1  2  2  0
  2  3  1  0
  3  4  1  0
  4  5  2  0
  5  6  1  0
  6  7  2  0
  7  8  1  0
  8  9  1  0
  9 10  1  0
 10 11  1  0
 11 12  1  0
 12 13  1  0
 12 14  1  0
 14 15  2  0
 15 16  1  0
 16 17  2  0
 17 18  1  0
 18 19  2  0
  7 20  1  0
 20 21  2  0
  2 22  1  0
 22 23  2  0
 23 24  1  0
 24 25  2  0
 25 26  1  0
 26 27  2  0
 27 28  1  0
 28 29  2  0
 29 30  1  0
 30 31  2  0
 31 32  1  0
 32 33  2  0
 33 34  1  0
 34 35  2  0
 35 36  1  0
 21  4  1  0
 27 22  1  0
 36 28  1  0
 19 14  1  0
 35 30  1  0
  3 37  1  0
  5 38  1  0
  6 39  1  0
  8 40  1  0
  8 41  1  0
  9 42  1  0
  9 43  1  0
 10 44  1  0
 10 45  1  0
 11 46  1  0
 11 47  1  0
 12 48  1  6
 13 49  1  0
 15 50  1  0
 16 51  1  0
 17 52  1  0
 19 53  1  0
 20 54  1  0
 21 55  1  0
 23 56  1  0
 24 57  1  0
 25 58  1  0
 26 59  1  0
 31 60  1  0
 32 61  1  0
 33 62  1  0
 34 63  1  0
M  CHG  1  10   1
M  END
>  <meeko>  (4) 
{"is_sidechain": [false], "free_energy": -8.145, "intermolecular_energy": -10.601, "internal_energy": -3.412}

$$$$
LIB_KYJMGBRNBMEYEY__M_PUB_ALL__e8__s20260927
     RDKit          3D

 63 67  0  0  0  0  0  0  0  0999 V2000
    2.0820  -15.1510    1.0330 O   0  0  0  0  0  0  0  0  0  0  0  0
    1.4730  -14.1630    1.4310 C   0  0  0  0  0  0  0  0  0  0  0  0
    1.2840  -12.9940    0.7200 N   0  0  0  0  0  0  0  0  0  0  0  0
    1.6380  -12.7410   -0.6200 C   0  0  0  0  0  0  0  0  0  0  0  0
    1.7760  -13.7340   -1.5900 C   0  0  0  0  0  0  0  0  0  0  0  0
    2.1330  -13.4070   -2.9020 C   0  0  0  0  0  0  0  0  0  0  0  0
    2.3760  -12.0750   -3.2610 C   0  0  0  0  0  0  0  0  0  0  0  0
    2.8500  -11.7370   -4.6520 C   0  0  0  0  0  0  0  0  0  0  0  0
    4.0270  -12.6160   -5.0990 C   0  0  0  0  0  0  0  0  0  0  0  0
    5.3360  -11.9690   -4.7320 N   0  0  0  0  0  0  0  0  0  0  0  0
    6.0220  -12.5050   -3.4980 C   0  0  0  0  0  0  0  0  0  0  0  0
    6.4490  -11.4060   -2.4900 C   0  0  2  0  0  0  0  0  0  0  0  0
    7.8350  -11.1160   -2.6660 O   0  0  0  0  0  0  0  0  0  0  0  0
    6.1480  -11.7980   -1.0660 C   0  0  0  0  0  0  0  0  0  0  0  0
    6.6540  -11.0510    0.0050 C   0  0  0  0  0  0  0  0  0  0  0  0
    6.3040  -11.3840    1.3110 C   0  0  0  0  0  0  0  0  0  0  0  0
    5.4440  -12.4480    1.5080 C   0  0  0  0  0  0  0  0  0  0  0  0
    4.9300  -13.1840    0.5000 N   0  0  0  0  0  0  0  0  0  0  0  0
    5.3130  -12.8670   -0.7530 C   0  0  0  0  0  0  0  0  0  0  0  0
    2.2140  -11.0750   -2.2960 C   0  0  0  0  0  0  0  0  0  0  0  0
    1.8440  -11.4080   -0.9900 C   0  0  0  0  0  0  0  0  0  0  0  0
    0.9540  -14.1840    2.8330 C   0  0  0  0  0  0  0  0  0  0  0  0
    1.7800  -14.8080    3.7850 C   0  0  0  0  0  0  0  0  0  0  0  0
    1.3920  -14.9000    5.1220 C   0  0  0  0  0  0  0  0  0  0  0  0
    0.1690  -14.3740    5.5240 C   0  0  0  0  0  0  0  0  0  0  0  0
   -0.6700  -13.7680    4.5870 C   0  0  0  0  0  0  0  0  0  0  0  0
   -0.2970  -13.6750    3.2310 C   0  0  0  0  0  0  0  0  0  0  0  0
   -1.2300  -13.0430    2.3010 C   0  0  0  0  0  0  0  0  0  0  0  0
   -1.1760  -11.7730    1.9560 N   0  0  0  0  0  0  0  0  0  0  0  0
   -2.2120  -11.4880    1.0780 C   0  0  0  0  0  0  0  0  0  0  0  0
   -2.4970  -10.2250    0.5200 C   0  0  0  0  0  0  0  0  0  0  0  0
   -3.5710  -10.0810   -0.3650 C   0  0  0  0  0  0  0  0  0  0  0  0
   -4.3590  -11.1780   -0.7000 C   0  0  0  0  0  0  0  0  0  0  0  0
   -4.0990  -12.4400   -0.1580 C   0  0  0  0  0  0  0  0  0  0  0  0
   -3.0220  -12.5720    0.7320 C   0  0  0  0  0  0  0  0  0  0  0  0
   -2.4660  -13.9740    1.5630 S   0  0  0  0  0  0  0  0  0  0  0  0
    0.8220  -12.2250    1.2060 H   0  0  0  0  0  0  0  0  0  0  0  0
    1.6021  -14.7860   -1.3199 H   0  0  0  0  0  0  0  0  0  0  0  0
    2.2236  -14.2014   -3.6574 H   0  0  0  0  0  0  0  0  0  0  0  0
    2.0155  -11.8803   -5.3542 H   0  0  0  0  0  0  0  0  0  0  0  0
    3.1953  -10.6926   -4.6442 H   0  0  0  0  0  0  0  0  0  0  0  0
    3.9559  -13.5957   -4.6040 H   0  0  0  0  0  0  0  0  0  0  0  0
    3.9846  -12.7397   -6.1912 H   0  0  0  0  0  0  0  0  0  0  0  0
    5.2110  -10.9500   -4.6560 H   0  0  0  0  0  0  0  0  0  0  0  0
    5.9840  -12.1040   -5.5220 H   0  0  0  0  0  0  0  0  0  0  0  0
    5.3311  -13.1929   -2.9886 H   0  0  0  0  0  0  0  0  0  0  0  0
    6.9422  -13.0045   -3.8352 H   0  0  0  0  0  0  0  0  0  0  0  0
    5.8607  -10.4990   -2.6933 H   0  0  0  0  0  0  0  0  0  0  0  0
    8.3050  -11.4670   -1.8830 H   0  0  0  0  0  0  0  0  0  0  0  0
    7.3272  -10.2021   -0.1852 H   0  0  0  0  0  0  0  0  0  0  0  0
    6.7018  -10.8148    2.1641 H   0  0  0  0  0  0  0  0  0  0  0  0
    5.1640  -12.7084    2.5394 H   0  0  0  0  0  0  0  0  0  0  0  0
    4.9428  -13.4917   -1.5793 H   0  0  0  0  0  0  0  0  0  0  0  0
    2.3786  -10.0216   -2.5665 H   0  0  0  0  0  0  0  0  0  0  0  0
    1.7131  -10.6111   -0.2432 H   0  0  0  0  0  0  0  0  0  0  0  0
    2.7462  -15.2297    3.4709 H   0  0  0  0  0  0  0  0  0  0  0  0
    2.0512  -15.3870    5.8557 H   0  0  0  0  0  0  0  0  0  0  0  0
   -0.1369  -14.4353    6.5788 H   0  0  0  0  0  0  0  0  0  0  0  0
   -1.6371  -13.3568    4.9120 H   0  0  0  0  0  0  0  0  0  0  0  0
   -1.8764   -9.3548    0.7799 H   0  0  0  0  0  0  0  0  0  0  0  0
   -3.7938   -9.0949   -0.7985 H   0  0  0  0  0  0  0  0  0  0  0  0
   -5.1975  -11.0504   -1.4005 H   0  0  0  0  0  0  0  0  0  0  0  0
   -4.7223  -13.3070   -0.4222 H   0  0  0  0  0  0  0  0  0  0  0  0
  1  2  2  0
  2  3  1  0
  3  4  1  0
  4  5  2  0
  5  6  1  0
  6  7  2  0
  7  8  1  0
  8  9  1  0
  9 10  1  0
 10 11  1  0
 11 12  1  0
 12 13  1  0
 12 14  1  0
 14 15  2  0
 15 16  1  0
 16 17  2  0
 17 18  1  0
 18 19  2  0
  7 20  1  0
 20 21  2  0
  2 22  1  0
 22 23  2  0
 23 24  1  0
 24 25  2  0
 25 26  1  0
 26 27  2  0
 27 28  1  0
 28 29  2  0
 29 30  1  0
 30 31  2  0
 31 32  1  0
 32 33  2  0
 33 34  1  0
 34 35  2  0
 35 36  1  0
 21  4  1  0
 27 22  1  0
 36 28  1  0
 19 14  1  0
 35 30  1  0
  3 37  1  0
  5 38  1  0
  6 39  1  0
  8 40  1  0
  8 41  1  0
  9 42  1  0
  9 43  1  0
 10 44  1  0
 10 45  1  0
 11 46  1  0
 11 47  1  0
 12 48  1  6
 13 49  1  0
 15 50  1  0
 16 51  1  0
 17 52  1  0
 19 53  1  0
 20 54  1  0
 21 55  1  0
 23 56  1  0
 24 57  1  0
 25 58  1  0
 26 59  1  0
 31 60  1  0
 32 61  1  0
 33 62  1  0
 34 63  1  0
M  CHG  1  10   1
M  END
>  <meeko>  (5) 
{"is_sidechain": [false], "free_energy": -8.063, "intermolecular_energy": -12.094, "internal_energy": -1.79}

$$$$
LIB_KYJMGBRNBMEYEY__M_PUB_ALL__e8__s20260927
     RDKit          3D

 63 67  0  0  0  0  0  0  0  0999 V2000
    0.3770  -16.0480    0.0520 O   0  0  0  0  0  0  0  0  0  0  0  0
    0.7080  -15.5220    1.1100 C   0  0  0  0  0  0  0  0  0  0  0  0
    1.7980  -14.6930    1.2890 N   0  0  0  0  0  0  0  0  0  0  0  0
    2.6650  -14.1940    0.2970 C   0  0  0  0  0  0  0  0  0  0  0  0
    3.4340  -14.9990   -0.5430 C   0  0  0  0  0  0  0  0  0  0  0  0
    4.2740  -14.4310   -1.5050 C   0  0  0  0  0  0  0  0  0  0  0  0
    4.3730  -13.0390   -1.6300 C   0  0  0  0  0  0  0  0  0  0  0  0
    5.3490  -12.4310   -2.6050 C   0  0  0  0  0  0  0  0  0  0  0  0
    5.9180  -11.0950   -2.1060 C   0  0  0  0  0  0  0  0  0  0  0  0
    7.4200  -11.0940   -2.1990 N   0  0  0  0  0  0  0  0  0  0  0  0
    8.1150  -12.3670   -1.7780 C   0  0  0  0  0  0  0  0  0  0  0  0
    8.5700  -12.3720   -0.2950 C   0  0  2  0  0  0  0  0  0  0  0  0
    9.6580  -13.2820   -0.1370 O   0  0  0  0  0  0  0  0  0  0  0  0
    7.4370  -12.7060    0.6410 C   0  0  0  0  0  0  0  0  0  0  0  0
    7.1010  -14.0380    0.9130 C   0  0  0  0  0  0  0  0  0  0  0  0
    6.1010  -14.3270    1.8390 C   0  0  0  0  0  0  0  0  0  0  0  0
    5.4740  -13.2740    2.4780 C   0  0  0  0  0  0  0  0  0  0  0  0
    5.7770  -11.9790    2.2460 N   0  0  0  0  0  0  0  0  0  0  0  0
    6.7220  -11.7230    1.3190 C   0  0  0  0  0  0  0  0  0  0  0  0
    3.5840  -12.2300   -0.8050 C   0  0  0  0  0  0  0  0  0  0  0  0
    2.7360  -12.8050    0.1450 C   0  0  0  0  0  0  0  0  0  0  0  0
   -0.0810  -15.8630    2.3330 C   0  0  0  0  0  0  0  0  0  0  0  0
    0.3370  -17.0090    3.0350 C   0  0  0  0  0  0  0  0  0  0  0  0
   -0.3330  -17.4310    4.1830 C   0  0  0  0  0  0  0  0  0  0  0  0
   -1.4340  -16.7170    4.6430 C   0  0  0  0  0  0  0  0  0  0  0  0
   -1.8710  -15.5880    3.9470 C   0  0  0  0  0  0  0  0  0  0  0  0
   -1.2110  -15.1530    2.7810 C   0  0  0  0  0  0  0  0  0  0  0  0
   -1.7330  -13.9740    2.0930 C   0  0  0  0  0  0  0  0  0  0  0  0
   -2.7460  -14.0040    1.2510 N   0  0  0  0  0  0  0  0  0  0  0  0
   -2.9750  -12.7270    0.7580 C   0  0  0  0  0  0  0  0  0  0  0  0
   -3.9540  -12.3720   -0.1920 C   0  0  0  0  0  0  0  0  0  0  0  0
   -4.0840  -11.0380   -0.5930 C   0  0  0  0  0  0  0  0  0  0  0  0
   -3.2520  -10.0590   -0.0600 C   0  0  0  0  0  0  0  0  0  0  0  0
   -2.2710  -10.3850    0.8810 C   0  0  0  0  0  0  0  0  0  0  0  0
   -2.1470  -11.7260    1.2740 C   0  0  0  0  0  0  0  0  0  0  0  0
   -1.0410  -12.4330    2.3880 S   0  0  0  0  0  0  0  0  0  0  0  0
    1.9970  -14.3880    2.2420 H   0  0  0  0  0  0  0  0  0  0  0  0
    3.3788  -16.0934   -0.4474 H   0  0  0  0  0  0  0  0  0  0  0  0
    4.8618  -15.0818   -2.1690 H   0  0  0  0  0  0  0  0  0  0  0  0
    6.1808  -13.1345   -2.7575 H   0  0  0  0  0  0  0  0  0  0  0  0
    4.8090  -12.2364   -3.5434 H   0  0  0  0  0  0  0  0  0  0  0  0
    5.5166  -10.2776   -2.7230 H   0  0  0  0  0  0  0  0  0  0  0  0
    5.6267  -10.9548   -1.0546 H   0  0  0  0  0  0  0  0  0  0  0  0
    7.8000  -10.2910   -1.6780 H   0  0  0  0  0  0  0  0  0  0  0  0
    7.6730  -10.9210   -3.1830 H   0  0  0  0  0  0  0  0  0  0  0  0
    7.4217  -13.2072   -1.9307 H   0  0  0  0  0  0  0  0  0  0  0  0
    9.0237  -12.4535   -2.3918 H   0  0  0  0  0  0  0  0  0  0  0  0
    8.9048  -11.3584   -0.0295 H   0  0  0  0  0  0  0  0  0  0  0  0
   10.4790  -12.7510   -0.1300 H   0  0  0  0  0  0  0  0  0  0  0  0
    7.6259  -14.8550    0.3962 H   0  0  0  0  0  0  0  0  0  0  0  0
    5.8175  -15.3674    2.0562 H   0  0  0  0  0  0  0  0  0  0  0  0
    4.6882  -13.5027    3.2130 H   0  0  0  0  0  0  0  0  0  0  0  0
    6.9417  -10.6711    1.0838 H   0  0  0  0  0  0  0  0  0  0  0  0
    3.6316  -11.1356   -0.9048 H   0  0  0  0  0  0  0  0  0  0  0  0
    2.1160  -12.1570    0.7819 H   0  0  0  0  0  0  0  0  0  0  0  0
    1.2047  -17.5800    2.6730 H   0  0  0  0  0  0  0  0  0  0  0  0
    0.0086  -18.3263    4.7232 H   0  0  0  0  0  0  0  0  0  0  0  0
   -1.9597  -17.0409    5.5534 H   0  0  0  0  0  0  0  0  0  0  0  0
   -2.7443  -15.0296    4.3150 H   0  0  0  0  0  0  0  0  0  0  0  0
   -4.6143  -13.1422   -0.6171 H   0  0  0  0  0  0  0  0  0  0  0  0
   -4.8486  -10.7618   -1.3340 H   0  0  0  0  0  0  0  0  0  0  0  0
   -3.3676   -9.0140   -0.3834 H   0  0  0  0  0  0  0  0  0  0  0  0
   -1.6135   -9.6103    1.3023 H   0  0  0  0  0  0  0  0  0  0  0  0
  1  2  2  0
  2  3  1  0
  3  4  1  0
  4  5  2  0
  5  6  1  0
  6  7  2  0
  7  8  1  0
  8  9  1  0
  9 10  1  0
 10 11  1  0
 11 12  1  0
 12 13  1  0
 12 14  1  0
 14 15  2  0
 15 16  1  0
 16 17  2  0
 17 18  1  0
 18 19  2  0
  7 20  1  0
 20 21  2  0
  2 22  1  0
 22 23  2  0
 23 24  1  0
 24 25  2  0
 25 26  1  0
 26 27  2  0
 27 28  1  0
 28 29  2  0
 29 30  1  0
 30 31  2  0
 31 32  1  0
 32 33  2  0
 33 34  1  0
 34 35  2  0
 35 36  1  0
 21  4  1  0
 27 22  1  0
 36 28  1  0
 19 14  1  0
 35 30  1  0
  3 37  1  0
  5 38  1  0
  6 39  1  0
  8 40  1  0
  8 41  1  0
  9 42  1  0
  9 43  1  0
 10 44  1  0
 10 45  1  0
 11 46  1  0
 11 47  1  0
 12 48  1  1
 13 49  1  0
 15 50  1  0
 16 51  1  0
 17 52  1  0
 19 53  1  0
 20 54  1  0
 21 55  1  0
 23 56  1  0
 24 57  1  0
 25 58  1  0
 26 59  1  0
 31 60  1  0
 32 61  1  0
 33 62  1  0
 34 63  1  0
M  CHG  1  10   1
M  END
>  <meeko>  (6) 
{"is_sidechain": [false], "free_energy": -7.891, "intermolecular_energy": -11.038, "internal_energy": -2.579}

$$$$
LIB_KYJMGBRNBMEYEY__M_PUB_ALL__e8__s20260927
     RDKit          3D

 63 67  0  0  0  0  0  0  0  0999 V2000
    1.4930  -14.5210    1.6120 O   0  0  0  0  0  0  0  0  0  0  0  0
    0.6370  -15.3170    1.2370 C   0  0  0  0  0  0  0  0  0  0  0  0
    0.4310  -15.7210   -0.0680 N   0  0  0  0  0  0  0  0  0  0  0  0
    1.2160  -15.4050   -1.1950 C   0  0  0  0  0  0  0  0  0  0  0  0
    2.5770  -15.6920   -1.3020 C   0  0  0  0  0  0  0  0  0  0  0  0
    3.2910  -15.3460   -2.4530 C   0  0  0  0  0  0  0  0  0  0  0  0
    2.6560  -14.6870   -3.5120 C   0  0  0  0  0  0  0  0  0  0  0  0
    3.4500  -14.2340   -4.7110 C   0  0  0  0  0  0  0  0  0  0  0  0
    4.8420  -14.8780   -4.7690 C   0  0  0  0  0  0  0  0  0  0  0  0
    5.8480  -14.0270   -4.0410 N   0  0  0  0  0  0  0  0  0  0  0  0
    5.7680  -12.5400   -4.2890 C   0  0  0  0  0  0  0  0  0  0  0  0
    5.7260  -11.6890   -2.9930 C   0  0  2  0  0  0  0  0  0  0  0  0
    6.6850  -12.1940   -2.0650 O   0  0  0  0  0  0  0  0  0  0  0  0
    4.3460  -11.6510   -2.3880 C   0  0  0  0  0  0  0  0  0  0  0  0
    4.1080  -12.1770   -1.1120 C   0  0  0  0  0  0  0  0  0  0  0  0
    2.8430  -12.0640   -0.5400 C   0  0  0  0  0  0  0  0  0  0  0  0
    1.8550  -11.4140   -1.2540 C   0  0  0  0  0  0  0  0  0  0  0  0
    2.0510  -10.8880   -2.4820 N   0  0  0  0  0  0  0  0  0  0  0  0
    3.2710  -11.0420   -3.0310 C   0  0  0  0  0  0  0  0  0  0  0  0
    1.2850  -14.4210   -3.4170 C   0  0  0  0  0  0  0  0  0  0  0  0
    0.5740  -14.7820   -2.2700 C   0  0  0  0  0  0  0  0  0  0  0  0
   -0.3220  -15.8410    2.2580 C   0  0  0  0  0  0  0  0  0  0  0  0
    0.1020  -16.9750    2.9750 C   0  0  0  0  0  0  0  0  0  0  0  0
   -0.7150  -17.5590    3.9420 C   0  0  0  0  0  0  0  0  0  0  0  0
   -1.9710  -17.0210    4.2020 C   0  0  0  0  0  0  0  0  0  0  0  0
   -2.4130  -15.9060    3.4870 C   0  0  0  0  0  0  0  0  0  0  0  0
   -1.6030  -15.3090    2.5010 C   0  0  0  0  0  0  0  0  0  0  0  0
   -2.1340  -14.1560    1.7780 C   0  0  0  0  0  0  0  0  0  0  0  0
   -1.7030  -12.9220    1.9460 N   0  0  0  0  0  0  0  0  0  0  0  0
   -2.4260  -12.0650    1.1290 C   0  0  0  0  0  0  0  0  0  0  0  0
   -2.2730  -10.6650    1.0600 C   0  0  0  0  0  0  0  0  0  0  0  0
   -3.0640   -9.9200    0.1790 C   0  0  0  0  0  0  0  0  0  0  0  0
   -4.0010  -10.5530   -0.6310 C   0  0  0  0  0  0  0  0  0  0  0  0
   -4.1750  -11.9390   -0.5810 C   0  0  0  0  0  0  0  0  0  0  0  0
   -3.3790  -12.6760    0.3100 C   0  0  0  0  0  0  0  0  0  0  0  0
   -3.3680  -14.3710    0.6080 S   0  0  0  0  0  0  0  0  0  0  0  0
   -0.3680  -16.3300   -0.2440 H   0  0  0  0  0  0  0  0  0  0  0  0
    3.0938  -16.1959   -0.4719 H   0  0  0  0  0  0  0  0  0  0  0  0
    4.3602  -15.5936   -2.5270 H   0  0  0  0  0  0  0  0  0  0  0  0
    2.8976  -14.5043   -5.6230 H   0  0  0  0  0  0  0  0  0  0  0  0
    3.5874  -13.1456   -4.6302 H   0  0  0  0  0  0  0  0  0  0  0  0
    4.8009  -15.8717   -4.2990 H   0  0  0  0  0  0  0  0  0  0  0  0
    5.1483  -14.9685   -5.8216 H   0  0  0  0  0  0  0  0  0  0  0  0
    6.7990  -14.3710   -4.2340 H   0  0  0  0  0  0  0  0  0  0  0  0
    5.7090  -14.1750   -3.0300 H   0  0  0  0  0  0  0  0  0  0  0  0
    6.6498  -12.2382   -4.8733 H   0  0  0  0  0  0  0  0  0  0  0  0
    4.8244  -12.3553   -4.8234 H   0  0  0  0  0  0  0  0  0  0  0  0
    5.9821  -10.6503   -3.2489 H   0  0  0  0  0  0  0  0  0  0  0  0
    7.4510  -12.5110   -2.5850 H   0  0  0  0  0  0  0  0  0  0  0  0
    4.9184  -12.6784   -0.5626 H   0  0  0  0  0  0  0  0  0  0  0  0
    2.6357  -12.4822    0.4561 H   0  0  0  0  0  0  0  0  0  0  0  0
    0.8579  -11.3202   -0.7990 H   0  0  0  0  0  0  0  0  0  0  0  0
    3.4285  -10.6629   -4.0516 H   0  0  0  0  0  0  0  0  0  0  0  0
    0.7648  -13.9252   -4.2498 H   0  0  0  0  0  0  0  0  0  0  0  0
   -0.5045  -14.5736   -2.2116 H   0  0  0  0  0  0  0  0  0  0  0  0
    1.0925  -17.4070    2.7696 H   0  0  0  0  0  0  0  0  0  0  0  0
   -0.3674  -18.4425    4.4976 H   0  0  0  0  0  0  0  0  0  0  0  0
   -2.6155  -17.4734    4.9701 H   0  0  0  0  0  0  0  0  0  0  0  0
   -3.4084  -15.4876    3.6967 H   0  0  0  0  0  0  0  0  0  0  0  0
   -1.5329  -10.1595    1.6978 H   0  0  0  0  0  0  0  0  0  0  0  0
   -2.9444   -8.8278    0.1265 H   0  0  0  0  0  0  0  0  0  0  0  0
   -4.6139   -9.9542   -1.3208 H   0  0  0  0  0  0  0  0  0  0  0  0
   -4.9157  -12.4388   -1.2225 H   0  0  0  0  0  0  0  0  0  0  0  0
  1  2  2  0
  2  3  1  0
  3  4  1  0
  4  5  2  0
  5  6  1  0
  6  7  2  0
  7  8  1  0
  8  9  1  0
  9 10  1  0
 10 11  1  0
 11 12  1  0
 12 13  1  0
 12 14  1  0
 14 15  2  0
 15 16  1  0
 16 17  2  0
 17 18  1  0
 18 19  2  0
  7 20  1  0
 20 21  2  0
  2 22  1  0
 22 23  2  0
 23 24  1  0
 24 25  2  0
 25 26  1  0
 26 27  2  0
 27 28  1  0
 28 29  2  0
 29 30  1  0
 30 31  2  0
 31 32  1  0
 32 33  2  0
 33 34  1  0
 34 35  2  0
 35 36  1  0
 21  4  1  0
 27 22  1  0
 36 28  1  0
 19 14  1  0
 35 30  1  0
  3 37  1  0
  5 38  1  0
  6 39  1  0
  8 40  1  0
  8 41  1  0
  9 42  1  0
  9 43  1  0
 10 44  1  0
 10 45  1  0
 11 46  1  0
 11 47  1  0
 12 48  1  6
 13 49  1  0
 15 50  1  0
 16 51  1  0
 17 52  1  0
 19 53  1  0
 20 54  1  0
 21 55  1  0
 23 56  1  0
 24 57  1  0
 25 58  1  0
 26 59  1  0
 31 60  1  0
 32 61  1  0
 33 62  1  0
 34 63  1  0
M  CHG  1  10   1
M  END
>  <meeko>  (7) 
{"is_sidechain": [false], "free_energy": -7.827, "intermolecular_energy": -10.846, "internal_energy": -2.672}

$$$$
LIB_KYJMGBRNBMEYEY__M_PUB_ALL__e8__s20260927
     RDKit          3D

 63 67  0  0  0  0  0  0  0  0999 V2000
    6.8150  -10.5040   -1.3830 O   0  0  0  0  0  0  0  0  0  0  0  0
    6.5980  -11.7110   -1.3250 C   0  0  0  0  0  0  0  0  0  0  0  0
    7.5380  -12.7070   -1.5040 N   0  0  0  0  0  0  0  0  0  0  0  0
    8.9290  -12.5510   -1.6660 C   0  0  0  0  0  0  0  0  0  0  0  0
    9.8450  -12.5890   -0.6150 C   0  0  0  0  0  0  0  0  0  0  0  0
   11.2130  -12.4240   -0.8540 C   0  0  0  0  0  0  0  0  0  0  0  0
   11.6850  -12.1990   -2.1530 C   0  0  0  0  0  0  0  0  0  0  0  0
   13.1500  -11.9300   -2.3930 C   0  0  0  0  0  0  0  0  0  0  0  0
   13.7070  -12.7360   -3.5740 C   0  0  0  0  0  0  0  0  0  0  0  0
   13.8130  -14.1940   -3.2140 N   0  0  0  0  0  0  0  0  0  0  0  0
   13.1800  -15.1670   -4.1800 C   0  0  0  0  0  0  0  0  0  0  0  0
   12.6570  -14.5080   -5.4830 C   0  0  2  0  0  0  0  0  0  0  0  0
   11.3330  -14.9700   -5.7480 O   0  0  0  0  0  0  0  0  0  0  0  0
   13.5720  -14.7680   -6.6520 C   0  0  0  0  0  0  0  0  0  0  0  0
   13.2010  -14.3910   -7.9490 C   0  0  0  0  0  0  0  0  0  0  0  0
   14.0910  -14.5710   -9.0060 C   0  0  0  0  0  0  0  0  0  0  0  0
   15.3340  -15.1100   -8.7320 C   0  0  0  0  0  0  0  0  0  0  0  0
   15.7280  -15.4760   -7.4940 N   0  0  0  0  0  0  0  0  0  0  0  0
   14.8360  -15.3280   -6.4940 C   0  0  0  0  0  0  0  0  0  0  0  0
   10.7700  -12.1850   -3.2120 C   0  0  0  0  0  0  0  0  0  0  0  0
    9.4070  -12.3650   -2.9680 C   0  0  0  0  0  0  0  0  0  0  0  0
    5.1840  -12.1540   -1.1230 C   0  0  0  0  0  0  0  0  0  0  0  0
    4.7050  -12.0990    0.1990 C   0  0  0  0  0  0  0  0  0  0  0  0
    3.4070  -12.5010    0.5090 C   0  0  0  0  0  0  0  0  0  0  0  0
    2.5700  -12.9710   -0.4970 C   0  0  0  0  0  0  0  0  0  0  0  0
    3.0360  -13.0480   -1.8110 C   0  0  0  0  0  0  0  0  0  0  0  0
    4.3480  -12.6530   -2.1400 C   0  0  0  0  0  0  0  0  0  0  0  0
    4.7770  -12.7770   -3.5310 C   0  0  0  0  0  0  0  0  0  0  0  0
    5.6110  -13.7020   -3.9620 N   0  0  0  0  0  0  0  0  0  0  0  0
    5.8270  -13.5300   -5.3220 C   0  0  0  0  0  0  0  0  0  0  0  0
    6.6870  -14.3070   -6.1260 C   0  0  0  0  0  0  0  0  0  0  0  0
    6.8010  -14.0310   -7.4930 C   0  0  0  0  0  0  0  0  0  0  0  0
    6.0720  -12.9940   -8.0640 C   0  0  0  0  0  0  0  0  0  0  0  0
    5.2150  -12.2060   -7.2890 C   0  0  0  0  0  0  0  0  0  0  0  0
    5.1110  -12.4900   -5.9180 C   0  0  0  0  0  0  0  0  0  0  0  0
    4.1640  -11.7010   -4.7160 S   0  0  0  0  0  0  0  0  0  0  0  0
    7.2000  -13.6690   -1.5030 H   0  0  0  0  0  0  0  0  0  0  0  0
    9.4877  -12.7505    0.4127 H   0  0  0  0  0  0  0  0  0  0  0  0
   11.9234  -12.4713   -0.0155 H   0  0  0  0  0  0  0  0  0  0  0  0
   13.2826  -10.8584   -2.6028 H   0  0  0  0  0  0  0  0  0  0  0  0
   13.6993  -12.2350   -1.4901 H   0  0  0  0  0  0  0  0  0  0  0  0
   13.0349  -12.6243   -4.4376 H   0  0  0  0  0  0  0  0  0  0  0  0
   14.7094  -12.3570   -3.8221 H   0  0  0  0  0  0  0  0  0  0  0  0
   13.4460  -14.3440   -2.2640 H   0  0  0  0  0  0  0  0  0  0  0  0
   14.8140  -14.4300   -3.1570 H   0  0  0  0  0  0  0  0  0  0  0  0
   13.9310  -15.9235   -4.4517 H   0  0  0  0  0  0  0  0  0  0  0  0
   12.3080  -15.6020   -3.6698 H   0  0  0  0  0  0  0  0  0  0  0  0
   12.6374  -13.4176   -5.3395 H   0  0  0  0  0  0  0  0  0  0  0  0
   11.4070  -15.7040   -6.3910 H   0  0  0  0  0  0  0  0  0  0  0  0
   12.2086  -13.9535   -8.1329 H   0  0  0  0  0  0  0  0  0  0  0  0
   13.8115  -14.2912  -10.0324 H   0  0  0  0  0  0  0  0  0  0  0  0
   16.0383  -15.2477   -9.5657 H   0  0  0  0  0  0  0  0  0  0  0  0
   15.1256  -15.6716   -5.4900 H   0  0  0  0  0  0  0  0  0  0  0  0
   11.1263  -12.0315   -4.2413 H   0  0  0  0  0  0  0  0  0  0  0  0
    8.6996  -12.3605   -3.8104 H   0  0  0  0  0  0  0  0  0  0  0  0
    5.3648  -11.7333    0.9996 H   0  0  0  0  0  0  0  0  0  0  0  0
    3.0457  -12.4466    1.5466 H   0  0  0  0  0  0  0  0  0  0  0  0
    1.5422  -13.2817   -0.2580 H   0  0  0  0  0  0  0  0  0  0  0  0
    2.3688  -13.4227   -2.6013 H   0  0  0  0  0  0  0  0  0  0  0  0
    7.2668  -15.1281   -5.6793 H   0  0  0  0  0  0  0  0  0  0  0  0
    7.4712  -14.6380   -8.1194 H   0  0  0  0  0  0  0  0  0  0  0  0
    6.1706  -12.7904   -9.1405 H   0  0  0  0  0  0  0  0  0  0  0  0
    4.6381  -11.3859   -7.7414 H   0  0  0  0  0  0  0  0  0  0  0  0
  1  2  2  0
  2  3  1  0
  3  4  1  0
  4  5  2  0
  5  6  1  0
  6  7  2  0
  7  8  1  0
  8  9  1  0
  9 10  1  0
 10 11  1  0
 11 12  1  0
 12 13  1  0
 12 14  1  0
 14 15  2  0
 15 16  1  0
 16 17  2  0
 17 18  1  0
 18 19  2  0
  7 20  1  0
 20 21  2  0
  2 22  1  0
 22 23  2  0
 23 24  1  0
 24 25  2  0
 25 26  1  0
 26 27  2  0
 27 28  1  0
 28 29  2  0
 29 30  1  0
 30 31  2  0
 31 32  1  0
 32 33  2  0
 33 34  1  0
 34 35  2  0
 35 36  1  0
 21  4  1  0
 27 22  1  0
 36 28  1  0
 19 14  1  0
 35 30  1  0
  3 37  1  0
  5 38  1  0
  6 39  1  0
  8 40  1  0
  8 41  1  0
  9 42  1  0
  9 43  1  0
 10 44  1  0
 10 45  1  0
 11 46  1  0
 11 47  1  0
 12 48  1  1
 13 49  1  0
 15 50  1  0
 16 51  1  0
 17 52  1  0
 19 53  1  0
 20 54  1  0
 21 55  1  0
 23 56  1  0
 24 57  1  0
 25 58  1  0
 26 59  1  0
 31 60  1  0
 32 61  1  0
 33 62  1  0
 34 63  1  0
M  CHG  1  10   1
M  END
>  <meeko>  (8) 
{"is_sidechain": [false], "free_energy": -7.769, "intermolecular_energy": -11.634, "internal_energy": -1.793}

$$$$
LIB_KYJMGBRNBMEYEY__M_PUB_ALL__e8__s20260927
     RDKit          3D

 63 67  0  0  0  0  0  0  0  0999 V2000
    9.0800  -15.9110   -7.9760 O   0  0  0  0  0  0  0  0  0  0  0  0
    9.1920  -14.6950   -7.8510 C   0  0  0  0  0  0  0  0  0  0  0  0
    9.7610  -14.0460   -6.7720 N   0  0  0  0  0  0  0  0  0  0  0  0
   10.4210  -14.6310   -5.6730 C   0  0  0  0  0  0  0  0  0  0  0  0
   11.7620  -14.4060   -5.3590 C   0  0  0  0  0  0  0  0  0  0  0  0
   12.3490  -15.0250   -4.2520 C   0  0  0  0  0  0  0  0  0  0  0  0
   11.6060  -15.8970   -3.4480 C   0  0  0  0  0  0  0  0  0  0  0  0
   12.2690  -16.6340   -2.3110 C   0  0  0  0  0  0  0  0  0  0  0  0
   11.8310  -16.1050   -0.9370 C   0  0  0  0  0  0  0  0  0  0  0  0
   12.6400  -14.8940   -0.5570 N   0  0  0  0  0  0  0  0  0  0  0  0
   11.8560  -13.6590   -0.1810 C   0  0  0  0  0  0  0  0  0  0  0  0
   11.5610  -12.7150   -1.3760 C   0  0  2  0  0  0  0  0  0  0  0  0
   11.8930  -11.3750   -1.0130 O   0  0  0  0  0  0  0  0  0  0  0  0
   10.1290  -12.8180   -1.8360 C   0  0  0  0  0  0  0  0  0  0  0  0
    9.7040  -12.1740   -3.0050 C   0  0  0  0  0  0  0  0  0  0  0  0
    8.3960  -12.3420   -3.4540 C   0  0  0  0  0  0  0  0  0  0  0  0
    7.5540  -13.1630   -2.7280 C   0  0  0  0  0  0  0  0  0  0  0  0
    7.9320  -13.8060   -1.6020 N   0  0  0  0  0  0  0  0  0  0  0  0
    9.1900  -13.5980   -1.1670 C   0  0  0  0  0  0  0  0  0  0  0  0
   10.2550  -16.1050   -3.7460 C   0  0  0  0  0  0  0  0  0  0  0  0
    9.6700  -15.4730   -4.8460 C   0  0  0  0  0  0  0  0  0  0  0  0
    8.5970  -13.8280   -8.9140 C   0  0  0  0  0  0  0  0  0  0  0  0
    7.2220  -13.5560   -8.7860 C   0  0  0  0  0  0  0  0  0  0  0  0
    6.5560  -12.7710   -9.7260 C   0  0  0  0  0  0  0  0  0  0  0  0
    7.2530  -12.2510  -10.8110 C   0  0  0  0  0  0  0  0  0  0  0  0
    8.6140  -12.5270  -10.9610 C   0  0  0  0  0  0  0  0  0  0  0  0
    9.3000  -13.3250  -10.0250 C   0  0  0  0  0  0  0  0  0  0  0  0
   10.7190  -13.5890  -10.2520 C   0  0  0  0  0  0  0  0  0  0  0  0
   11.1880  -14.7250  -10.7270 N   0  0  0  0  0  0  0  0  0  0  0  0
   12.5720  -14.6590  -10.8020 C   0  0  0  0  0  0  0  0  0  0  0  0
   13.4260  -15.6950  -11.2290 C   0  0  0  0  0  0  0  0  0  0  0  0
   14.8090  -15.4870  -11.2670 C   0  0  0  0  0  0  0  0  0  0  0  0
   15.3470  -14.2630  -10.8860 C   0  0  0  0  0  0  0  0  0  0  0  0
   14.5220  -13.2190  -10.4550 C   0  0  0  0  0  0  0  0  0  0  0  0
   13.1370  -13.4400  -10.4170 C   0  0  0  0  0  0  0  0  0  0  0  0
   11.8800  -12.3700   -9.9280 S   0  0  0  0  0  0  0  0  0  0  0  0
    9.7180  -13.0270   -6.7680 H   0  0  0  0  0  0  0  0  0  0  0  0
   12.3633  -13.7344   -5.9894 H   0  0  0  0  0  0  0  0  0  0  0  0
   13.4034  -14.8253   -4.0107 H   0  0  0  0  0  0  0  0  0  0  0  0
   12.0059  -17.6999   -2.3796 H   0  0  0  0  0  0  0  0  0  0  0  0
   13.3547  -16.4808   -2.3993 H   0  0  0  0  0  0  0  0  0  0  0  0
   10.7663  -15.8314   -0.9769 H   0  0  0  0  0  0  0  0  0  0  0  0
   11.9921  -16.8913   -0.1848 H   0  0  0  0  0  0  0  0  0  0  0  0
   13.3120  -14.6750   -1.3070 H   0  0  0  0  0  0  0  0  0  0  0  0
   13.2180  -15.1460    0.2580 H   0  0  0  0  0  0  0  0  0  0  0  0
   10.8972  -13.9765    0.2547 H   0  0  0  0  0  0  0  0  0  0  0  0
   12.4748  -13.0915    0.5296 H   0  0  0  0  0  0  0  0  0  0  0  0
   12.1847  -13.0249   -2.2275 H   0  0  0  0  0  0  0  0  0  0  0  0
   12.8680  -11.3310   -0.9380 H   0  0  0  0  0  0  0  0  0  0  0  0
   10.4020  -11.5366   -3.5676 H   0  0  0  0  0  0  0  0  0  0  0  0
    8.0423  -11.8341   -4.3633 H   0  0  0  0  0  0  0  0  0  0  0  0
    6.5228  -13.2998   -3.0857 H   0  0  0  0  0  0  0  0  0  0  0  0
    9.4944  -14.0747   -0.2235 H   0  0  0  0  0  0  0  0  0  0  0  0
    9.6505  -16.7694   -3.1111 H   0  0  0  0  0  0  0  0  0  0  0  0
    8.6049  -15.6396   -5.0647 H   0  0  0  0  0  0  0  0  0  0  0  0
    6.6649  -13.9688   -7.9320 H   0  0  0  0  0  0  0  0  0  0  0  0
    5.4820  -12.5635   -9.6097 H   0  0  0  0  0  0  0  0  0  0  0  0
    6.7334  -11.6233  -11.5500 H   0  0  0  0  0  0  0  0  0  0  0  0
    9.1584  -12.1148  -11.8234 H   0  0  0  0  0  0  0  0  0  0  0  0
   13.0062  -16.6656  -11.5319 H   0  0  0  0  0  0  0  0  0  0  0  0
   15.4747  -16.2968  -11.6003 H   0  0  0  0  0  0  0  0  0  0  0  0
   16.4361  -14.1136  -10.9240 H   0  0  0  0  0  0  0  0  0  0  0  0
   14.9477  -12.2505  -10.1538 H   0  0  0  0  0  0  0  0  0  0  0  0
  1  2  2  0
  2  3  1  0
  3  4  1  0
  4  5  2  0
  5  6  1  0
  6  7  2  0
  7  8  1  0
  8  9  1  0
  9 10  1  0
 10 11  1  0
 11 12  1  0
 12 13  1  0
 12 14  1  0
 14 15  2  0
 15 16  1  0
 16 17  2  0
 17 18  1  0
 18 19  2  0
  7 20  1  0
 20 21  2  0
  2 22  1  0
 22 23  2  0
 23 24  1  0
 24 25  2  0
 25 26  1  0
 26 27  2  0
 27 28  1  0
 28 29  2  0
 29 30  1  0
 30 31  2  0
 31 32  1  0
 32 33  2  0
 33 34  1  0
 34 35  2  0
 35 36  1  0
 21  4  1  0
 27 22  1  0
 36 28  1  0
 19 14  1  0
 35 30  1  0
  3 37  1  0
  5 38  1  0
  6 39  1  0
  8 40  1  0
  8 41  1  0
  9 42  1  0
  9 43  1  0
 10 44  1  0
 10 45  1  0
 11 46  1  0
 11 47  1  0
 12 48  1  6
 13 49  1  0
 15 50  1  0
 16 51  1  0
 17 52  1  0
 19 53  1  0
 20 54  1  0
 21 55  1  0
 23 56  1  0
 24 57  1  0
 25 58  1  0
 26 59  1  0
 31 60  1  0
 32 61  1  0
 33 62  1  0
 34 63  1  0
M  CHG  1  10   1
M  END
>  <meeko>  (9) 
{"is_sidechain": [false], "free_energy": -7.719, "intermolecular_energy": -10.736, "internal_energy": -2.614}

$$$$
