LIB_CMAHGGUCLITKBY__M_PUB_ALL__e8__s20260927
     RDKit          3D

 41 43  0  0  0  0  0  0  0  0999 V2000
  -12.0070  -10.8930   -7.3430 C   0  0  0  0  0  0  0  0  0  0  0  0
  -12.0900  -11.2620   -8.8420 C   0  0  0  0  0  0  0  0  0  0  0  0
  -11.7640   -9.9720   -9.6230 C   0  0  0  0  0  0  0  0  0  0  0  0
  -13.4620  -11.5600   -9.1700 O   0  0  0  0  0  0  0  0  0  0  0  0
  -13.9230  -12.7930   -8.8110 C   0  0  0  0  0  0  0  0  0  0  0  0
  -15.3120  -12.9370   -8.8220 C   0  0  0  0  0  0  0  0  0  0  0  0
  -15.8990  -14.1480   -8.4550 C   0  0  0  0  0  0  0  0  0  0  0  0
  -15.0950  -15.2220   -8.0730 C   0  0  0  0  0  0  0  0  0  0  0  0
  -15.6890  -16.4680   -7.6850 C   0  0  0  0  0  0  0  0  0  0  0  0
  -16.1660  -17.4780   -7.3690 N   0  0  0  0  0  0  0  0  0  0  0  0
  -13.7020  -15.0770   -8.0760 C   0  0  0  0  0  0  0  0  0  0  0  0
  -13.0990  -13.8660   -8.4660 C   0  0  0  0  0  0  0  0  0  0  0  0
  -11.5890  -13.7280   -8.4750 C   0  0  1  0  0  0  0  0  0  0  0  0
  -11.0680  -14.9250   -9.0890 O   0  0  0  0  0  0  0  0  0  0  0  0
  -10.0010  -15.5110   -8.4490 C   0  0  0  0  0  0  0  0  0  0  0  0
   -8.8060  -15.5490   -9.1450 C   0  0  0  0  0  0  0  0  0  0  0  0
   -7.6960  -16.1070   -8.5200 C   0  0  0  0  0  0  0  0  0  0  0  0
   -7.8190  -16.5930   -7.2230 C   0  0  0  0  0  0  0  0  0  0  0  0
   -9.0530  -16.4960   -6.6020 C   0  0  0  0  0  0  0  0  0  0  0  0
  -10.1500  -15.9540   -7.1820 N   0  0  0  0  0  0  0  0  0  0  0  0
  -11.1320  -12.4370   -9.2320 C   0  0  1  0  0  0  0  0  0  0  0  0
  -11.0780  -12.6770  -10.7530 C   0  0  0  0  0  0  0  0  0  0  0  0
   -9.7930  -12.0600   -8.8420 O   0  0  0  0  0  0  0  0  0  0  0  0
  -12.2080  -11.7865   -6.7338 H   0  0  0  0  0  0  0  0  0  0  0  0
  -11.0007  -10.5120   -7.1143 H   0  0  0  0  0  0  0  0  0  0  0  0
  -12.7532  -10.1179   -7.1143 H   0  0  0  0  0  0  0  0  0  0  0  0
  -11.5579   -9.1564   -8.9142 H   0  0  0  0  0  0  0  0  0  0  0  0
  -10.8801  -10.1400  -10.2558 H   0  0  0  0  0  0  0  0  0  0  0  0
  -12.6216   -9.6999  -10.2558 H   0  0  0  0  0  0  0  0  0  0  0  0
  -15.9470  -12.0904   -9.1219 H   0  0  0  0  0  0  0  0  0  0  0  0
  -16.9936  -14.2558   -8.4668 H   0  0  0  0  0  0  0  0  0  0  0  0
  -13.0691  -15.9226   -7.7688 H   0  0  0  0  0  0  0  0  0  0  0  0
  -11.2008  -13.6196   -7.4515 H   0  0  0  0  0  0  0  0  0  0  0  0
   -8.7356  -15.1480  -10.1669 H   0  0  0  0  0  0  0  0  0  0  0  0
   -6.7315  -16.1633   -9.0458 H   0  0  0  0  0  0  0  0  0  0  0  0
   -6.9594  -17.0424   -6.7043 H   0  0  0  0  0  0  0  0  0  0  0  0
   -9.1477  -16.8823   -5.5764 H   0  0  0  0  0  0  0  0  0  0  0  0
  -10.8404  -13.7329  -10.9494 H   0  0  0  0  0  0  0  0  0  0  0  0
  -12.0538  -12.4319  -11.1978 H   0  0  0  0  0  0  0  0  0  0  0  0
  -10.3013  -12.0376  -11.1978 H   0  0  0  0  0  0  0  0  0  0  0  0
   -9.3570  -11.6800   -9.6350 H   0  0  0  0  0  0  0  0  0  0  0  0
  1  2  1  0
  2  3  1  0
  2  4  1  0
  4  5  1  0
  5  6  2  0
  6  7  1  0
  7  8  2  0
  8  9  1  0
  9 10  3  0
  8 11  1  0
 11 12  2  0
 12 13  1  0
 13 14  1  0
 14 15  1  0
 15 16  2  0
 16 17  1  0
 17 18  2  0
 18 19  1  0
 19 20  2  0
 13 21  1  0
 21 22  1  0
 21 23  1  1
 21  2  1  0
 12  5  1  0
 20 15  1  0
  1 24  1  0
  1 25  1  0
  1 26  1  0
  3 27  1  0
  3 28  1  0
  3 29  1  0
  6 30  1  0
  7 31  1  0
 11 32  1  0
 13 33  1  1
 16 34  1  0
 17 35  1  0
 18 36  1  0
 19 37  1  0
 22 38  1  0
 22 39  1  0
 22 40  1  0
 23 41  1  0
M  END
>  <meeko>  (1) 
{"is_sidechain": [false], "free_energy": -7.05, "intermolecular_energy": -8.081, "internal_energy": -0.663}

$$$$
LIB_CMAHGGUCLITKBY__M_PUB_ALL__e8__s20260927
     RDKit          3D

 41 43  0  0  0  0  0  0  0  0999 V2000
   -2.9690  -15.9850    0.3510 C   0  0  0  0  0  0  0  0  0  0  0  0
   -1.7030  -16.2160    1.2090 C   0  0  0  0  0  0  0  0  0  0  0  0
   -1.8630  -17.6110    1.8490 C   0  0  0  0  0  0  0  0  0  0  0  0
   -1.7210  -15.2940    2.3170 O   0  0  0  0  0  0  0  0  0  0  0  0
   -1.3420  -14.0100    2.0500 C   0  0  0  0  0  0  0  0  0  0  0  0
   -1.6870  -13.0720    3.0260 C   0  0  0  0  0  0  0  0  0  0  0  0
   -1.3680  -11.7240    2.8530 C   0  0  0  0  0  0  0  0  0  0  0  0
   -0.7020  -11.3110    1.6990 C   0  0  0  0  0  0  0  0  0  0  0  0
   -0.3780   -9.9270    1.5080 C   0  0  0  0  0  0  0  0  0  0  0  0
   -0.1150   -8.8080    1.3500 N   0  0  0  0  0  0  0  0  0  0  0  0
   -0.3470  -12.2570    0.7300 C   0  0  0  0  0  0  0  0  0  0  0  0
   -0.6450  -13.6220    0.9050 C   0  0  0  0  0  0  0  0  0  0  0  0
   -0.2440  -14.6360   -0.1490 C   0  0  1  0  0  0  0  0  0  0  0  0
    1.1120  -14.3240   -0.5280 O   0  0  0  0  0  0  0  0  0  0  0  0
    1.3020  -13.9810   -1.8460 C   0  0  0  0  0  0  0  0  0  0  0  0
    2.0300  -12.8290   -2.0870 C   0  0  0  0  0  0  0  0  0  0  0  0
    2.2700  -12.4650   -3.4080 C   0  0  0  0  0  0  0  0  0  0  0  0
    1.7850  -13.2690   -4.4330 C   0  0  0  0  0  0  0  0  0  0  0  0
    1.0810  -14.4110   -4.0920 C   0  0  0  0  0  0  0  0  0  0  0  0
    0.8350  -14.7950   -2.8170 N   0  0  0  0  0  0  0  0  0  0  0  0
   -0.3790  -16.1030    0.3810 C   0  0  1  0  0  0  0  0  0  0  0  0
    0.8640  -16.5150    1.1930 C   0  0  0  0  0  0  0  0  0  0  0  0
   -0.4660  -17.0380   -0.7160 O   0  0  0  0  0  0  0  0  0  0  0  0
   -3.8351  -15.8270    1.0105 H   0  0  0  0  0  0  0  0  0  0  0  0
   -2.8249  -15.0983   -0.2838 H   0  0  0  0  0  0  0  0  0  0  0  0
   -3.1474  -16.8654   -0.2838 H   0  0  0  0  0  0  0  0  0  0  0  0
   -1.8520  -17.5151    2.9448 H   0  0  0  0  0  0  0  0  0  0  0  0
   -2.8178  -18.0538    1.5292 H   0  0  0  0  0  0  0  0  0  0  0  0
   -1.0332  -18.2585    1.5292 H   0  0  0  0  0  0  0  0  0  0  0  0
   -2.2129  -13.3973    3.9357 H   0  0  0  0  0  0  0  0  0  0  0  0
   -1.6411  -10.9893    3.6248 H   0  0  0  0  0  0  0  0  0  0  0  0
    0.1728  -11.9289   -0.1822 H   0  0  0  0  0  0  0  0  0  0  0  0
   -0.9114  -14.5771   -1.0214 H   0  0  0  0  0  0  0  0  0  0  0  0
    2.4091  -12.2169   -1.2554 H   0  0  0  0  0  0  0  0  0  0  0  0
    2.8372  -11.5512   -3.6389 H   0  0  0  0  0  0  0  0  0  0  0  0
    1.9561  -13.0048   -5.4870 H   0  0  0  0  0  0  0  0  0  0  0  0
    0.6984  -15.0447   -4.9057 H   0  0  0  0  0  0  0  0  0  0  0  0
    0.6410  -16.4411    2.2676 H   0  0  0  0  0  0  0  0  0  0  0  0
    1.1366  -17.5516    0.9455 H   0  0  0  0  0  0  0  0  0  0  0  0
    1.7018  -15.8465    0.9455 H   0  0  0  0  0  0  0  0  0  0  0  0
   -1.3050  -16.8500   -1.1910 H   0  0  0  0  0  0  0  0  0  0  0  0
  1  2  1  0
  2  3  1  0
  2  4  1  0
  4  5  1  0
  5  6  2  0
  6  7  1  0
  7  8  2  0
  8  9  1  0
  9 10  3  0
  8 11  1  0
 11 12  2  0
 12 13  1  0
 13 14  1  0
 14 15  1  0
 15 16  2  0
 16 17  1  0
 17 18  2  0
 18 19  1  0
 19 20  2  0
 13 21  1  0
 21 22  1  0
 21 23  1  6
 21  2  1  0
 12  5  1  0
 20 15  1  0
  1 24  1  0
  1 25  1  0
  1 26  1  0
  3 27  1  0
  3 28  1  0
  3 29  1  0
  6 30  1  0
  7 31  1  0
 11 32  1  0
 13 33  1  6
 16 34  1  0
 17 35  1  0
 18 36  1  0
 19 37  1  0
 22 38  1  0
 22 39  1  0
 22 40  1  0
 23 41  1  0
M  END
>  <meeko>  (2) 
{"is_sidechain": [false], "free_energy": -6.871, "intermolecular_energy": -7.814, "internal_energy": -0.725}

$$$$
LIB_CMAHGGUCLITKBY__M_PUB_ALL__e8__s20260927
     RDKit          3D

 41 43  0  0  0  0  0  0  0  0999 V2000
    4.5230  -11.3570   -2.5980 C   0  0  0  0  0  0  0  0  0  0  0  0
    3.2300  -11.5430   -3.4260 C   0  0  0  0  0  0  0  0  0  0  0  0
    3.5460  -11.0250   -4.8440 C   0  0  0  0  0  0  0  0  0  0  0  0
    2.2220  -10.6470   -2.9180 O   0  0  0  0  0  0  0  0  0  0  0  0
    1.5810  -11.0320   -1.7760 C   0  0  0  0  0  0  0  0  0  0  0  0
    0.8730  -10.0220   -1.1210 C   0  0  0  0  0  0  0  0  0  0  0  0
    0.1940  -10.2930    0.0680 C   0  0  0  0  0  0  0  0  0  0  0  0
    0.2230  -11.5800    0.6060 C   0  0  0  0  0  0  0  0  0  0  0  0
   -0.4640  -11.8670    1.8310 C   0  0  0  0  0  0  0  0  0  0  0  0
   -1.0180  -12.1030    2.8240 N   0  0  0  0  0  0  0  0  0  0  0  0
    0.9240  -12.5920   -0.0610 C   0  0  0  0  0  0  0  0  0  0  0  0
    1.5940  -12.3340   -1.2730 C   0  0  0  0  0  0  0  0  0  0  0  0
    2.3390  -13.4430   -1.9900 C   0  0  1  0  0  0  0  0  0  0  0  0
    1.4750  -14.5980   -1.9750 O   0  0  0  0  0  0  0  0  0  0  0  0
    2.0510  -15.7710   -1.5440 C   0  0  0  0  0  0  0  0  0  0  0  0
    1.2520  -16.6120   -0.7880 C   0  0  0  0  0  0  0  0  0  0  0  0
    1.7880  -17.8210   -0.3600 C   0  0  0  0  0  0  0  0  0  0  0  0
    3.0920  -18.1490   -0.7110 C   0  0  0  0  0  0  0  0  0  0  0  0
    3.8080  -17.2500   -1.4850 C   0  0  0  0  0  0  0  0  0  0  0  0
    3.3130  -16.0680   -1.9210 N   0  0  0  0  0  0  0  0  0  0  0  0
    2.7310  -13.0270   -3.4460 C   0  0  1  0  0  0  0  0  0  0  0  0
    1.5560  -13.2430   -4.4190 C   0  0  0  0  0  0  0  0  0  0  0  0
    3.8120  -13.8470   -3.9410 O   0  0  0  0  0  0  0  0  0  0  0  0
    4.2800  -11.3920   -1.5258 H   0  0  0  0  0  0  0  0  0  0  0  0
    5.2322  -12.1624   -2.8397 H   0  0  0  0  0  0  0  0  0  0  0  0
    4.9764  -10.3844   -2.8397 H   0  0  0  0  0  0  0  0  0  0  0  0
    4.1177  -10.0879   -4.7731 H   0  0  0  0  0  0  0  0  0  0  0  0
    4.1396  -11.7766   -5.3851 H   0  0  0  0  0  0  0  0  0  0  0  0
    2.6061  -10.8411   -5.3851 H   0  0  0  0  0  0  0  0  0  0  0  0
    0.8503   -9.0071   -1.5446 H   0  0  0  0  0  0  0  0  0  0  0  0
   -0.3626   -9.4939    0.5796 H   0  0  0  0  0  0  0  0  0  0  0  0
    0.9520  -13.6044    0.3681 H   0  0  0  0  0  0  0  0  0  0  0  0
    3.2896  -13.6656   -1.4833 H   0  0  0  0  0  0  0  0  0  0  0  0
    0.2197  -16.3306   -0.5327 H   0  0  0  0  0  0  0  0  0  0  0  0
    1.1864  -18.5108    0.2501 H   0  0  0  0  0  0  0  0  0  0  0  0
    3.5437  -19.0969   -0.3832 H   0  0  0  0  0  0  0  0  0  0  0  0
    4.8398  -17.5124   -1.7615 H   0  0  0  0  0  0  0  0  0  0  0  0
    0.6323  -13.4128   -3.8464 H   0  0  0  0  0  0  0  0  0  0  0  0
    1.4361  -12.3519   -5.0526 H   0  0  0  0  0  0  0  0  0  0  0  0
    1.7608  -14.1185   -5.0526 H   0  0  0  0  0  0  0  0  0  0  0  0
    4.4750  -13.2420   -4.3410 H   0  0  0  0  0  0  0  0  0  0  0  0
  1  2  1  0
  2  3  1  0
  2  4  1  0
  4  5  1  0
  5  6  2  0
  6  7  1  0
  7  8  2  0
  8  9  1  0
  9 10  3  0
  8 11  1  0
 11 12  2  0
 12 13  1  0
 13 14  1  0
 14 15  1  0
 15 16  2  0
 16 17  1  0
 17 18  2  0
 18 19  1  0
 19 20  2  0
 13 21  1  0
 21 22  1  0
 21 23  1  6
 21  2  1  0
 12  5  1  0
 20 15  1  0
  1 24  1  0
  1 25  1  0
  1 26  1  0
  3 27  1  0
  3 28  1  0
  3 29  1  0
  6 30  1  0
  7 31  1  0
 11 32  1  0
 13 33  1  1
 16 34  1  0
 17 35  1  0
 18 36  1  0
 19 37  1  0
 22 38  1  0
 22 39  1  0
 22 40  1  0
 23 41  1  0
M  END
>  <meeko>  (3) 
{"is_sidechain": [false], "free_energy": -6.738, "intermolecular_energy": -7.604, "internal_energy": -0.782}

$$$$
LIB_CMAHGGUCLITKBY__M_PUB_ALL__e8__s20260927
     RDKit          3D

 41 43  0  0  0  0  0  0  0  0999 V2000
   -0.9210  -15.8570   -1.3300 C   0  0  0  0  0  0  0  0  0  0  0  0
    0.3120  -15.9000   -0.3970 C   0  0  0  0  0  0  0  0  0  0  0  0
    0.6560  -17.3910   -0.2050 C   0  0  0  0  0  0  0  0  0  0  0  0
   -0.0820  -15.4370    0.9100 O   0  0  0  0  0  0  0  0  0  0  0  0
   -0.1940  -14.0860    1.0720 C   0  0  0  0  0  0  0  0  0  0  0  0
   -0.8930  -13.6790    2.2110 C   0  0  0  0  0  0  0  0  0  0  0  0
   -1.0880  -12.3220    2.4720 C   0  0  0  0  0  0  0  0  0  0  0  0
   -0.5830  -11.3660    1.5890 C   0  0  0  0  0  0  0  0  0  0  0  0
   -0.7860   -9.9700    1.8440 C   0  0  0  0  0  0  0  0  0  0  0  0
   -0.9490   -8.8380    2.0450 N   0  0  0  0  0  0  0  0  0  0  0  0
    0.1270  -11.7790    0.4560 C   0  0  0  0  0  0  0  0  0  0  0  0
    0.3490  -13.1460    0.1960 C   0  0  0  0  0  0  0  0  0  0  0  0
    1.1300  -13.5770   -1.0300 C   0  0  1  0  0  0  0  0  0  0  0  0
    2.2870  -12.7200   -1.1050 O   0  0  0  0  0  0  0  0  0  0  0  0
    2.5660  -12.1960   -2.3460 C   0  0  0  0  0  0  0  0  0  0  0  0
    2.3280  -10.8430   -2.5150 C   0  0  0  0  0  0  0  0  0  0  0  0
    2.6260  -10.2690   -3.7460 C   0  0  0  0  0  0  0  0  0  0  0  0
    3.1580  -11.0640   -4.7550 C   0  0  0  0  0  0  0  0  0  0  0  0
    3.3760  -12.4050   -4.4860 C   0  0  0  0  0  0  0  0  0  0  0  0
    3.1010  -12.9910   -3.2970 N   0  0  0  0  0  0  0  0  0  0  0  0
    1.5270  -15.0890   -0.9590 C   0  0  1  0  0  0  0  0  0  0  0  0
    2.8070  -15.2860   -0.1230 C   0  0  0  0  0  0  0  0  0  0  0  0
    1.8280  -15.6030   -2.2740 O   0  0  0  0  0  0  0  0  0  0  0  0
   -1.8384  -15.8250   -0.7240 H   0  0  0  0  0  0  0  0  0  0  0  0
   -0.8694  -14.9601   -1.9648 H   0  0  0  0  0  0  0  0  0  0  0  0
   -0.9320  -16.7553   -1.9648 H   0  0  0  0  0  0  0  0  0  0  0  0
    0.7088  -17.6197    0.8697 H   0  0  0  0  0  0  0  0  0  0  0  0
   -0.1229  -18.0103   -0.6739 H   0  0  0  0  0  0  0  0  0  0  0  0
    1.6275  -17.6065   -0.6739 H   0  0  0  0  0  0  0  0  0  0  0  0
   -1.2920  -14.4324    2.9061 H   0  0  0  0  0  0  0  0  0  0  0  0
   -1.6380  -12.0066    3.3709 H   0  0  0  0  0  0  0  0  0  0  0  0
    0.5179  -11.0246   -0.2426 H   0  0  0  0  0  0  0  0  0  0  0  0
    0.5173  -13.4779   -1.9382 H   0  0  0  0  0  0  0  0  0  0  0  0
    1.9135  -10.2369   -1.6960 H   0  0  0  0  0  0  0  0  0  0  0  0
    2.4429   -9.1983   -3.9195 H   0  0  0  0  0  0  0  0  0  0  0  0
    3.3993  -10.6393   -5.7406 H   0  0  0  0  0  0  0  0  0  0  0  0
    3.7977  -13.0312   -5.2861 H   0  0  0  0  0  0  0  0  0  0  0  0
    2.5556  -15.2473    0.9472 H   0  0  0  0  0  0  0  0  0  0  0  0
    3.2528  -16.2633   -0.3598 H   0  0  0  0  0  0  0  0  0  0  0  0
    3.5261  -14.4879   -0.3598 H   0  0  0  0  0  0  0  0  0  0  0  0
    2.7560  -15.3500   -2.4780 H   0  0  0  0  0  0  0  0  0  0  0  0
  1  2  1  0
  2  3  1  0
  2  4  1  0
  4  5  1  0
  5  6  2  0
  6  7  1  0
  7  8  2  0
  8  9  1  0
  9 10  3  0
  8 11  1  0
 11 12  2  0
 12 13  1  0
 13 14  1  0
 14 15  1  0
 15 16  2  0
 16 17  1  0
 17 18  2  0
 18 19  1  0
 19 20  2  0
 13 21  1  0
 21 22  1  0
 21 23  1  6
 21  2  1  0
 12  5  1  0
 20 15  1  0
  1 24  1  0
  1 25  1  0
  1 26  1  0
  3 27  1  0
  3 28  1  0
  3 29  1  0
  6 30  1  0
  7 31  1  0
 11 32  1  0
 13 33  1  6
 16 34  1  0
 17 35  1  0
 18 36  1  0
 19 37  1  0
 22 38  1  0
 22 39  1  0
 22 40  1  0
 23 41  1  0
M  END
>  <meeko>  (4) 
{"is_sidechain": [false], "free_energy": -6.724, "intermolecular_energy": -7.54, "internal_energy": -0.83}

$$$$
LIB_CMAHGGUCLITKBY__M_PUB_ALL__e8__s20260927
     RDKit          3D

 41 43  0  0  0  0  0  0  0  0999 V2000
   -0.2910  -15.7530    5.6260 C   0  0  0  0  0  0  0  0  0  0  0  0
   -0.7930  -16.9300    4.7580 C   0  0  0  0  0  0  0  0  0  0  0  0
    0.1850  -18.0970    5.0070 C   0  0  0  0  0  0  0  0  0  0  0  0
   -0.6200  -16.5880    3.3690 O   0  0  0  0  0  0  0  0  0  0  0  0
   -1.5510  -15.7520    2.8250 C   0  0  0  0  0  0  0  0  0  0  0  0
   -1.1890  -15.1670    1.6090 C   0  0  0  0  0  0  0  0  0  0  0  0
   -2.0530  -14.2790    0.9670 C   0  0  0  0  0  0  0  0  0  0  0  0
   -3.2860  -13.9720    1.5440 C   0  0  0  0  0  0  0  0  0  0  0  0
   -4.1770  -13.0530    0.8970 C   0  0  0  0  0  0  0  0  0  0  0  0
   -4.9010  -12.3100    0.3770 N   0  0  0  0  0  0  0  0  0  0  0  0
   -3.6500  -14.5700    2.7560 C   0  0  0  0  0  0  0  0  0  0  0  0
   -2.7940  -15.4850    3.4000 C   0  0  0  0  0  0  0  0  0  0  0  0
   -3.2070  -16.1330    4.7080 C   0  0  1  0  0  0  0  0  0  0  0  0
   -4.5780  -16.5500    4.5470 O   0  0  0  0  0  0  0  0  0  0  0  0
   -5.4300  -16.2170    5.5740 C   0  0  0  0  0  0  0  0  0  0  0  0
   -6.2590  -15.1280    5.3630 C   0  0  0  0  0  0  0  0  0  0  0  0
   -7.1560  -14.7790    6.3670 C   0  0  0  0  0  0  0  0  0  0  0  0
   -7.2000  -15.5340    7.5330 C   0  0  0  0  0  0  0  0  0  0  0  0
   -6.3420  -16.6160    7.6450 C   0  0  0  0  0  0  0  0  0  0  0  0
   -5.4610  -16.9840    6.6840 N   0  0  0  0  0  0  0  0  0  0  0  0
   -2.2720  -17.3310    5.0780 C   0  0  1  0  0  0  0  0  0  0  0  0
   -2.7070  -18.6180    4.3490 C   0  0  0  0  0  0  0  0  0  0  0  0
   -2.3520  -17.6280    6.4890 O   0  0  0  0  0  0  0  0  0  0  0  0
   -0.4004  -16.0094    6.6901 H   0  0  0  0  0  0  0  0  0  0  0  0
    0.7684  -15.5585    5.4027 H   0  0  0  0  0  0  0  0  0  0  0  0
   -0.8839  -14.8538    5.4027 H   0  0  0  0  0  0  0  0  0  0  0  0
    0.3099  -18.2461    6.0897 H   0  0  0  0  0  0  0  0  0  0  0  0
   -0.2172  -19.0154    4.5544 H   0  0  0  0  0  0  0  0  0  0  0  0
    1.1596  -17.8616    4.5544 H   0  0  0  0  0  0  0  0  0  0  0  0
   -0.2166  -15.4080    1.1547 H   0  0  0  0  0  0  0  0  0  0  0  0
   -1.7631  -13.8224    0.0091 H   0  0  0  0  0  0  0  0  0  0  0  0
   -4.6194  -14.3217    3.2127 H   0  0  0  0  0  0  0  0  0  0  0  0
   -3.1157  -15.4222    5.5425 H   0  0  0  0  0  0  0  0  0  0  0  0
   -6.2094  -14.5540    4.4259 H   0  0  0  0  0  0  0  0  0  0  0  0
   -7.8238  -13.9142    6.2395 H   0  0  0  0  0  0  0  0  0  0  0  0
   -7.8971  -15.2794    8.3449 H   0  0  0  0  0  0  0  0  0  0  0  0
   -6.3783  -17.2116    8.5691 H   0  0  0  0  0  0  0  0  0  0  0  0
   -2.9675  -19.3886    5.0895 H   0  0  0  0  0  0  0  0  0  0  0  0
   -3.5828  -18.4042    3.7187 H   0  0  0  0  0  0  0  0  0  0  0  0
   -1.8811  -18.9794    3.7187 H   0  0  0  0  0  0  0  0  0  0  0  0
   -1.5950  -18.2150    6.7040 H   0  0  0  0  0  0  0  0  0  0  0  0
  1  2  1  0
  2  3  1  0
  2  4  1  0
  4  5  1  0
  5  6  2  0
  6  7  1  0
  7  8  2  0
  8  9  1  0
  9 10  3  0
  8 11  1  0
 11 12  2  0
 12 13  1  0
 13 14  1  0
 14 15  1  0
 15 16  2  0
 16 17  1  0
 17 18  2  0
 18 19  1  0
 19 20  2  0
 13 21  1  0
 21 22  1  0
 21 23  1  1
 21  2  1  0
 12  5  1  0
 20 15  1  0
  1 24  1  0
  1 25  1  0
  1 26  1  0
  3 27  1  0
  3 28  1  0
  3 29  1  0
  6 30  1  0
  7 31  1  0
 11 32  1  0
 13 33  1  1
 16 34  1  0
 17 35  1  0
 18 36  1  0
 19 37  1  0
 22 38  1  0
 22 39  1  0
 22 40  1  0
 23 41  1  0
M  END
>  <meeko>  (5) 
{"is_sidechain": [false], "free_energy": -6.581, "intermolecular_energy": -7.372, "internal_energy": -0.833}

$$$$
LIB_CMAHGGUCLITKBY__M_PUB_ALL__e8__s20260927
     RDKit          3D

 41 43  0  0  0  0  0  0  0  0999 V2000
  -14.5790  -17.6450   -8.6710 C   0  0  0  0  0  0  0  0  0  0  0  0
  -14.5850  -16.0980   -8.6860 C   0  0  0  0  0  0  0  0  0  0  0  0
  -15.7930  -15.6620   -7.8320 C   0  0  0  0  0  0  0  0  0  0  0  0
  -14.8910  -15.6500  -10.0210 O   0  0  0  0  0  0  0  0  0  0  0  0
  -13.8710  -15.6850  -10.9270 C   0  0  0  0  0  0  0  0  0  0  0  0
  -14.2580  -15.5800  -12.2650 C   0  0  0  0  0  0  0  0  0  0  0  0
  -13.3040  -15.6230  -13.2820 C   0  0  0  0  0  0  0  0  0  0  0  0
  -11.9540  -15.7720  -12.9610 C   0  0  0  0  0  0  0  0  0  0  0  0
  -10.9660  -15.8260  -13.9980 C   0  0  0  0  0  0  0  0  0  0  0  0
  -10.1630  -15.8710  -14.8350 N   0  0  0  0  0  0  0  0  0  0  0  0
  -11.5690  -15.8630  -11.6180 C   0  0  0  0  0  0  0  0  0  0  0  0
  -12.5230  -15.7990  -10.5830 C   0  0  0  0  0  0  0  0  0  0  0  0
  -12.0900  -15.8890   -9.1330 C   0  0  1  0  0  0  0  0  0  0  0  0
  -10.9400  -15.0300   -8.9910 O   0  0  0  0  0  0  0  0  0  0  0  0
   -9.8250  -15.6100   -8.4330 C   0  0  0  0  0  0  0  0  0  0  0  0
   -8.7040  -15.7000   -9.2400 C   0  0  0  0  0  0  0  0  0  0  0  0
   -7.5460  -16.2520   -8.7010 C   0  0  0  0  0  0  0  0  0  0  0  0
   -7.5500  -16.6810   -7.3790 C   0  0  0  0  0  0  0  0  0  0  0  0
   -8.7150  -16.5340   -6.6450 C   0  0  0  0  0  0  0  0  0  0  0  0
   -9.8550  -15.9960   -7.1390 N   0  0  0  0  0  0  0  0  0  0  0  0
  -13.2460  -15.4820   -8.1600 C   0  0  1  0  0  0  0  0  0  0  0  0
  -13.3220  -13.9510   -8.0000 C   0  0  0  0  0  0  0  0  0  0  0  0
  -13.0100  -16.0080   -6.8350 O   0  0  0  0  0  0  0  0  0  0  0  0
  -14.5776  -18.0016   -7.6304 H   0  0  0  0  0  0  0  0  0  0  0  0
  -15.4757  -18.0202   -9.1860 H   0  0  0  0  0  0  0  0  0  0  0  0
  -13.6794  -18.0132   -9.1860 H   0  0  0  0  0  0  0  0  0  0  0  0
  -15.5400  -15.7533   -6.7654 H   0  0  0  0  0  0  0  0  0  0  0  0
  -16.0454  -14.6161   -8.0608 H   0  0  0  0  0  0  0  0  0  0  0  0
  -16.6552  -16.3057   -8.0608 H   0  0  0  0  0  0  0  0  0  0  0  0
  -15.3219  -15.4626  -12.5185 H   0  0  0  0  0  0  0  0  0  0  0  0
  -13.6149  -15.5397  -14.3338 H   0  0  0  0  0  0  0  0  0  0  0  0
  -10.5052  -15.9864  -11.3669 H   0  0  0  0  0  0  0  0  0  0  0  0
  -11.8330  -16.9246   -8.8656 H   0  0  0  0  0  0  0  0  0  0  0  0
   -8.7280  -15.3443  -10.2806 H   0  0  0  0  0  0  0  0  0  0  0  0
   -6.6378  -16.3478   -9.3142 H   0  0  0  0  0  0  0  0  0  0  0  0
   -6.6510  -17.1258   -6.9274 H   0  0  0  0  0  0  0  0  0  0  0  0
   -8.7142  -16.8744   -5.5990 H   0  0  0  0  0  0  0  0  0  0  0  0
  -13.3347  -13.6943   -6.9304 H   0  0  0  0  0  0  0  0  0  0  0  0
  -12.4457  -13.4885   -8.4777 H   0  0  0  0  0  0  0  0  0  0  0  0
  -14.2398  -13.5775   -8.4777 H   0  0  0  0  0  0  0  0  0  0  0  0
  -12.5500  -16.8690   -6.9440 H   0  0  0  0  0  0  0  0  0  0  0  0
  1  2  1  0
  2  3  1  0
  2  4  1  0
  4  5  1  0
  5  6  2  0
  6  7  1  0
  7  8  2  0
  8  9  1  0
  9 10  3  0
  8 11  1  0
 11 12  2  0
 12 13  1  0
 13 14  1  0
 14 15  1  0
 15 16  2  0
 16 17  1  0
 17 18  2  0
 18 19  1  0
 19 20  2  0
 13 21  1  0
 21 22  1  0
 21 23  1  1
 21  2  1  0
 12  5  1  0
 20 15  1  0
  1 24  1  0
  1 25  1  0
  1 26  1  0
  3 27  1  0
  3 28  1  0
  3 29  1  0
  6 30  1  0
  7 31  1  0
 11 32  1  0
 13 33  1  1
 16 34  1  0
 17 35  1  0
 18 36  1  0
 19 37  1  0
 22 38  1  0
 22 39  1  0
 22 40  1  0
 23 41  1  0
M  END
>  <meeko>  (6) 
{"is_sidechain": [false], "free_energy": -6.563, "intermolecular_energy": -7.361, "internal_energy": -0.824}

$$$$
LIB_CMAHGGUCLITKBY__M_PUB_ALL__e8__s20260927
     RDKit          3D

 41 43  0  0  0  0  0  0  0  0999 V2000
    7.1500  -11.0100    0.2230 C   0  0  0  0  0  0  0  0  0  0  0  0
    7.4720  -12.5130    0.3910 C   0  0  0  0  0  0  0  0  0  0  0  0
    6.7110  -12.9790    1.6500 C   0  0  0  0  0  0  0  0  0  0  0  0
    8.8670  -12.6530    0.7270 O   0  0  0  0  0  0  0  0  0  0  0  0
    9.7570  -12.5480   -0.3030 C   0  0  0  0  0  0  0  0  0  0  0  0
   11.0860  -12.3440    0.0770 C   0  0  0  0  0  0  0  0  0  0  0  0
   12.0820  -12.2020   -0.8900 C   0  0  0  0  0  0  0  0  0  0  0  0
   11.7490  -12.2640   -2.2440 C   0  0  0  0  0  0  0  0  0  0  0  0
   12.7640  -12.1110   -3.2450 C   0  0  0  0  0  0  0  0  0  0  0  0
   13.5830  -11.9860   -4.0580 N   0  0  0  0  0  0  0  0  0  0  0  0
   10.4180  -12.4810   -2.6190 C   0  0  0  0  0  0  0  0  0  0  0  0
    9.4090  -12.6480   -1.6500 C   0  0  0  0  0  0  0  0  0  0  0  0
    7.9730  -12.8940   -2.0730 C   0  0  1  0  0  0  0  0  0  0  0  0
    8.0150  -13.8800   -3.1230 O   0  0  0  0  0  0  0  0  0  0  0  0
    7.2260  -13.6220   -4.2200 C   0  0  0  0  0  0  0  0  0  0  0  0
    7.3990  -14.4490   -5.3160 C   0  0  0  0  0  0  0  0  0  0  0  0
    6.5980  -14.2380   -6.4340 C   0  0  0  0  0  0  0  0  0  0  0  0
    5.6510  -13.2220   -6.4090 C   0  0  0  0  0  0  0  0  0  0  0  0
    5.5400  -12.4560   -5.2600 C   0  0  0  0  0  0  0  0  0  0  0  0
    6.3020  -12.6400   -4.1550 N   0  0  0  0  0  0  0  0  0  0  0  0
    7.0900  -13.3610   -0.8680 C   0  0  1  0  0  0  0  0  0  0  0  0
    7.2370  -14.8760   -0.6290 C   0  0  0  0  0  0  0  0  0  0  0  0
    5.6900  -13.1360   -1.1410 O   0  0  0  0  0  0  0  0  0  0  0  0
    7.0500  -10.5434    1.2141 H   0  0  0  0  0  0  0  0  0  0  0  0
    7.9637  -10.5205   -0.3323 H   0  0  0  0  0  0  0  0  0  0  0  0
    6.2072  -10.8968   -0.3323 H   0  0  0  0  0  0  0  0  0  0  0  0
    7.2518  -12.6479    2.5488 H   0  0  0  0  0  0  0  0  0  0  0  0
    5.7004  -12.5447    1.6493 H   0  0  0  0  0  0  0  0  0  0  0  0
    6.6384  -14.0766    1.6493 H   0  0  0  0  0  0  0  0  0  0  0  0
   11.3486  -12.2951    1.1441 H   0  0  0  0  0  0  0  0  0  0  0  0
   13.1269  -12.0416   -0.5859 H   0  0  0  0  0  0  0  0  0  0  0  0
   10.1558  -12.5218   -3.6865 H   0  0  0  0  0  0  0  0  0  0  0  0
    7.5073  -11.9656   -2.4351 H   0  0  0  0  0  0  0  0  0  0  0  0
    8.1503  -15.2524   -5.3037 H   0  0  0  0  0  0  0  0  0  0  0  0
    6.7134  -14.8688   -7.3278 H   0  0  0  0  0  0  0  0  0  0  0  0
    5.0058  -13.0306   -7.2791 H   0  0  0  0  0  0  0  0  0  0  0  0
    4.7897  -11.6518   -5.2439 H   0  0  0  0  0  0  0  0  0  0  0  0
    7.2564  -15.0764    0.4524 H   0  0  0  0  0  0  0  0  0  0  0  0
    6.3858  -15.4033   -1.0844 H   0  0  0  0  0  0  0  0  0  0  0  0
    8.1737  -15.2299   -1.0844 H   0  0  0  0  0  0  0  0  0  0  0  0
    5.6020  -12.2090   -1.4560 H   0  0  0  0  0  0  0  0  0  0  0  0
  1  2  1  0
  2  3  1  0
  2  4  1  0
  4  5  1  0
  5  6  2  0
  6  7  1  0
  7  8  2  0
  8  9  1  0
  9 10  3  0
  8 11  1  0
 11 12  2  0
 12 13  1  0
 13 14  1  0
 14 15  1  0
 15 16  2  0
 16 17  1  0
 17 18  2  0
 18 19  1  0
 19 20  2  0
 13 21  1  0
 21 22  1  0
 21 23  1  6
 21  2  1  0
 12  5  1  0
 20 15  1  0
  1 24  1  0
  1 25  1  0
  1 26  1  0
  3 27  1  0
  3 28  1  0
  3 29  1  0
  6 30  1  0
  7 31  1  0
 11 32  1  0
 13 33  1  6
 16 34  1  0
 17 35  1  0
 18 36  1  0
 19 37  1  0
 22 38  1  0
 22 39  1  0
 22 40  1  0
 23 41  1  0
M  END
>  <meeko>  (7) 
{"is_sidechain": [false], "free_energy": -6.526, "intermolecular_energy": -7.393, "internal_energy": -0.751}

$$$$
LIB_CMAHGGUCLITKBY__M_PUB_ALL__e8__s20260927
     RDKit          3D

 41 43  0  0  0  0  0  0  0  0999 V2000
   12.8720  -13.7180   -5.7540 C   0  0  0  0  0  0  0  0  0  0  0  0
   12.4680  -14.9000   -4.8410 C   0  0  0  0  0  0  0  0  0  0  0  0
   13.4260  -16.0590   -5.1870 C   0  0  0  0  0  0  0  0  0  0  0  0
   11.1620  -15.3640   -5.2360 O   0  0  0  0  0  0  0  0  0  0  0  0
   10.0960  -14.6300   -4.8050 C   0  0  0  0  0  0  0  0  0  0  0  0
    8.8910  -14.8840   -5.4640 C   0  0  0  0  0  0  0  0  0  0  0  0
    7.7370  -14.1790   -5.1230 C   0  0  0  0  0  0  0  0  0  0  0  0
    7.7850  -13.2130   -4.1170 C   0  0  0  0  0  0  0  0  0  0  0  0
    6.6060  -12.4770   -3.7640 C   0  0  0  0  0  0  0  0  0  0  0  0
    5.6550  -11.8790   -3.4770 N   0  0  0  0  0  0  0  0  0  0  0  0
    8.9920  -12.9710   -3.4500 C   0  0  0  0  0  0  0  0  0  0  0  0
   10.1580  -13.6930   -3.7730 C   0  0  0  0  0  0  0  0  0  0  0  0
   11.4550  -13.4260   -3.0330 C   0  0  1  0  0  0  0  0  0  0  0  0
   11.1230  -13.3470   -1.6320 O   0  0  0  0  0  0  0  0  0  0  0  0
   11.6450  -12.2710   -0.9530 C   0  0  0  0  0  0  0  0  0  0  0  0
   10.9890  -11.8930    0.2070 C   0  0  0  0  0  0  0  0  0  0  0  0
   11.5040  -10.8290    0.9380 C   0  0  0  0  0  0  0  0  0  0  0  0
   12.6560  -10.1910    0.4920 C   0  0  0  0  0  0  0  0  0  0  0  0
   13.2500  -10.6510   -0.6720 C   0  0  0  0  0  0  0  0  0  0  0  0
   12.7760  -11.6870   -1.4030 N   0  0  0  0  0  0  0  0  0  0  0  0
   12.5200  -14.5360   -3.3200 C   0  0  1  0  0  0  0  0  0  0  0  0
   12.3010  -15.7610   -2.4110 C   0  0  0  0  0  0  0  0  0  0  0  0
   13.8510  -14.0570   -3.0270 O   0  0  0  0  0  0  0  0  0  0  0  0
   13.1657  -12.8588   -5.1331 H   0  0  0  0  0  0  0  0  0  0  0  0
   13.7187  -14.0179   -6.3890 H   0  0  0  0  0  0  0  0  0  0  0  0
   12.0189  -13.4369   -6.3890 H   0  0  0  0  0  0  0  0  0  0  0  0
   13.8018  -16.5137   -4.2585 H   0  0  0  0  0  0  0  0  0  0  0  0
   12.8873  -16.8170   -5.7746 H   0  0  0  0  0  0  0  0  0  0  0  0
   14.2718  -15.6726   -5.7746 H   0  0  0  0  0  0  0  0  0  0  0  0
    8.8519  -15.6451   -6.2572 H   0  0  0  0  0  0  0  0  0  0  0  0
    6.7911  -14.3839   -5.6458 H   0  0  0  0  0  0  0  0  0  0  0  0
    9.0306  -12.2051   -2.6614 H   0  0  0  0  0  0  0  0  0  0  0  0
   11.9132  -12.4856   -3.3731 H   0  0  0  0  0  0  0  0  0  0  0  0
   10.0838  -12.4213    0.5410 H   0  0  0  0  0  0  0  0  0  0  0  0
   11.0053  -10.4951    1.8599 H   0  0  0  0  0  0  0  0  0  0  0  0
   13.0841   -9.3440    1.0482 H   0  0  0  0  0  0  0  0  0  0  0  0
   14.1610  -10.1442   -1.0231 H   0  0  0  0  0  0  0  0  0  0  0  0
   12.3565  -15.4503   -1.3573 H   0  0  0  0  0  0  0  0  0  0  0  0
   11.3109  -16.1955   -2.6135 H   0  0  0  0  0  0  0  0  0  0  0  0
   13.0792  -16.5116   -2.6135 H   0  0  0  0  0  0  0  0  0  0  0  0
   13.8370  -13.0810   -3.1340 H   0  0  0  0  0  0  0  0  0  0  0  0
  1  2  1  0
  2  3  1  0
  2  4  1  0
  4  5  1  0
  5  6  2  0
  6  7  1  0
  7  8  2  0
  8  9  1  0
  9 10  3  0
  8 11  1  0
 11 12  2  0
 12 13  1  0
 13 14  1  0
 14 15  1  0
 15 16  2  0
 16 17  1  0
 17 18  2  0
 18 19  1  0
 19 20  2  0
 13 21  1  0
 21 22  1  0
 21 23  1  1
 21  2  1  0
 12  5  1  0
 20 15  1  0
  1 24  1  0
  1 25  1  0
  1 26  1  0
  3 27  1  0
  3 28  1  0
  3 29  1  0
  6 30  1  0
  7 31  1  0
 11 32  1  0
 13 33  1  6
 16 34  1  0
 17 35  1  0
 18 36  1  0
 19 37  1  0
 22 38  1  0
 22 39  1  0
 22 40  1  0
 23 41  1  0
M  END
>  <meeko>  (8) 
{"is_sidechain": [false], "free_energy": -6.354, "intermolecular_energy": -7.182, "internal_energy": -0.764}

$$$$
LIB_CMAHGGUCLITKBY__M_PUB_ALL__e8__s20260927
     RDKit          3D

 41 43  0  0  0  0  0  0  0  0999 V2000
   -1.2170  -10.6490    3.8500 C   0  0  0  0  0  0  0  0  0  0  0  0
   -1.6120  -10.6630    2.3540 C   0  0  0  0  0  0  0  0  0  0  0  0
   -2.1620   -9.2570    2.0400 C   0  0  0  0  0  0  0  0  0  0  0  0
   -2.7340  -11.5500    2.1810 O   0  0  0  0  0  0  0  0  0  0  0  0
   -2.4590  -12.8870    2.1500 C   0  0  0  0  0  0  0  0  0  0  0  0
   -3.5610  -13.7270    2.3260 C   0  0  0  0  0  0  0  0  0  0  0  0
   -3.3980  -15.1120    2.3330 C   0  0  0  0  0  0  0  0  0  0  0  0
   -2.1270  -15.6630    2.1640 C   0  0  0  0  0  0  0  0  0  0  0  0
   -1.9480  -17.0860    2.1790 C   0  0  0  0  0  0  0  0  0  0  0  0
   -1.7990  -18.2360    2.1910 N   0  0  0  0  0  0  0  0  0  0  0  0
   -1.0270  -14.8170    1.9760 C   0  0  0  0  0  0  0  0  0  0  0  0
   -1.1850  -13.4180    1.9450 C   0  0  0  0  0  0  0  0  0  0  0  0
    0.0150  -12.5150    1.7290 C   0  0  1  0  0  0  0  0  0  0  0  0
    0.7780  -13.0930    0.6510 O   0  0  0  0  0  0  0  0  0  0  0  0
    2.1390  -13.1440    0.8400 C   0  0  0  0  0  0  0  0  0  0  0  0
    2.6470  -14.3140    1.3770 C   0  0  0  0  0  0  0  0  0  0  0  0
    4.0230  -14.4160    1.5550 C   0  0  0  0  0  0  0  0  0  0  0  0
    4.8360  -13.3530    1.1810 C   0  0  0  0  0  0  0  0  0  0  0  0
    4.2370  -12.2290    0.6370 C   0  0  0  0  0  0  0  0  0  0  0  0
    2.9030  -12.1020    0.4470 N   0  0  0  0  0  0  0  0  0  0  0  0
   -0.4190  -11.0450    1.4150 C   0  0  1  0  0  0  0  0  0  0  0  0
   -0.7640  -10.8770   -0.0770 C   0  0  0  0  0  0  0  0  0  0  0  0
    0.6610  -10.1240    1.6800 O   0  0  0  0  0  0  0  0  0  0  0  0
   -2.1255  -10.6812    4.4694 H   0  0  0  0  0  0  0  0  0  0  0  0
   -0.5906  -11.5255    4.0720 H   0  0  0  0  0  0  0  0  0  0  0  0
   -0.6542   -9.7303    4.0720 H   0  0  0  0  0  0  0  0  0  0  0  0
   -2.3697   -8.7260    2.9807 H   0  0  0  0  0  0  0  0  0  0  0  0
   -1.4179   -8.6938    1.4577 H   0  0  0  0  0  0  0  0  0  0  0  0
   -3.0907   -9.3482    1.4577 H   0  0  0  0  0  0  0  0  0  0  0  0
   -4.5631  -13.2936    2.4598 H   0  0  0  0  0  0  0  0  0  0  0  0
   -4.2695  -15.7688    2.4714 H   0  0  0  0  0  0  0  0  0  0  0  0
   -0.0244  -15.2518    1.8506 H   0  0  0  0  0  0  0  0  0  0  0  0
    0.6254  -12.4510    2.6418 H   0  0  0  0  0  0  0  0  0  0  0  0
    1.9795  -15.1426    1.6561 H   0  0  0  0  0  0  0  0  0  0  0  0
    4.4622  -15.3274    1.9867 H   0  0  0  0  0  0  0  0  0  0  0  0
    5.9268  -13.4029    1.3135 H   0  0  0  0  0  0  0  0  0  0  0  0
    4.8838  -11.3897    0.3418 H   0  0  0  0  0  0  0  0  0  0  0  0
   -1.7491  -10.3973   -0.1738 H   0  0  0  0  0  0  0  0  0  0  0  0
   -0.0014  -10.2494   -0.5613 H   0  0  0  0  0  0  0  0  0  0  0  0
   -0.7878  -11.8644   -0.5613 H   0  0  0  0  0  0  0  0  0  0  0  0
    0.2550   -9.2710    1.9490 H   0  0  0  0  0  0  0  0  0  0  0  0
  1  2  1  0
  2  3  1  0
  2  4  1  0
  4  5  1  0
  5  6  2  0
  6  7  1  0
  7  8  2  0
  8  9  1  0
  9 10  3  0
  8 11  1  0
 11 12  2  0
 12 13  1  0
 13 14  1  0
 14 15  1  0
 15 16  2  0
 16 17  1  0
 17 18  2  0
 18 19  1  0
 19 20  2  0
 13 21  1  0
 21 22  1  0
 21 23  1  1
 21  2  1  0
 12  5  1  0
 20 15  1  0
  1 24  1  0
  1 25  1  0
  1 26  1  0
  3 27  1  0
  3 28  1  0
  3 29  1  0
  6 30  1  0
  7 31  1  0
 11 32  1  0
 13 33  1  1
 16 34  1  0
 17 35  1  0
 18 36  1  0
 19 37  1  0
 22 38  1  0
 22 39  1  0
 22 40  1  0
 23 41  1  0
M  END
>  <meeko>  (9) 
{"is_sidechain": [false], "free_energy": -6.325, "intermolecular_energy": -7.091, "internal_energy": -0.821}

$$$$
