LIB_KRGWFTJXWQZJML__M_PUB_ALL__e8__s20260927
     RDKit          3D

 60 64  0  0  0  0  0  0  0  0999 V2000
    8.9580  -14.2460   -1.9770 C   0  0  0  0  0  0  0  0  0  0  0  0
    9.8340  -13.0030   -2.1660 C   0  0  0  0  0  0  0  0  0  0  0  0
   10.7290  -13.2180   -3.3920 C   0  0  0  0  0  0  0  0  0  0  0  0
    8.9770  -11.8610   -2.5140 O   0  0  0  0  0  0  0  0  0  0  0  0
    7.6810  -11.9870   -2.1120 C   0  0  0  0  0  0  0  0  0  0  0  0
    6.6910  -12.2590   -3.0540 C   0  0  0  0  0  0  0  0  0  0  0  0
    5.3560  -12.3440   -2.6570 C   0  0  0  0  0  0  0  0  0  0  0  0
    5.0050  -12.2040   -1.3110 C   0  0  0  0  0  0  0  0  0  0  0  0
    6.0220  -12.0030   -0.3890 C   0  0  0  0  0  0  0  0  0  0  0  0
    7.3640  -11.8990   -0.7650 C   0  0  0  0  0  0  0  0  0  0  0  0
    5.5860  -11.9110    1.2990 S   0  0  0  0  0  0  0  0  0  0  0  0
    6.0300  -10.6100    1.7590 O   0  0  0  0  0  0  0  0  0  0  0  0
    6.1480  -13.1100    1.8930 O   0  0  0  0  0  0  0  0  0  0  0  0
    4.0120  -11.9930    1.3050 N   0  0  0  0  0  0  0  0  0  0  0  0
    3.2580  -12.1690    0.2580 C   0  0  0  0  0  0  0  0  0  0  0  0
    1.6760  -12.2660    0.5340 C   0  0  0  0  0  0  0  0  0  0  0  0
    0.8740  -11.2330    0.1710 C   0  0  0  0  0  0  0  0  0  0  0  0
    1.2810  -10.1640   -0.3810 O   0  0  0  0  0  0  0  0  0  0  0  0
   -0.5880  -11.4400    0.4740 C   0  0  0  0  0  0  0  0  0  0  0  0
   -1.5140  -10.4310    0.1280 C   0  0  0  0  0  0  0  0  0  0  0  0
   -2.8690  -10.5790    0.3850 C   0  0  0  0  0  0  0  0  0  0  0  0
   -3.7260   -9.6050    0.0470 F   0  0  0  0  0  0  0  0  0  0  0  0
   -3.3490  -11.7250    0.9910 C   0  0  0  0  0  0  0  0  0  0  0  0
   -2.4550  -12.7370    1.3430 C   0  0  0  0  0  0  0  0  0  0  0  0
   -1.0730  -12.6110    1.0950 C   0  0  0  0  0  0  0  0  0  0  0  0
   -0.1560  -13.6420    1.4560 N   0  0  0  0  0  0  0  0  0  0  0  0
   -0.6020  -14.8540    2.1460 C   0  0  0  0  0  0  0  0  0  0  0  0
   -1.0810  -14.6000    3.5840 C   0  0  0  0  0  0  0  0  0  0  0  0
   -0.0500  -13.9160    4.4360 C   0  0  0  0  0  0  0  0  0  0  0  0
    0.0910  -14.2610    5.8960 C   0  0  0  0  0  0  0  0  0  0  0  0
    1.1510  -14.6880    4.9200 C   0  0  0  0  0  0  0  0  0  0  0  0
    1.1960  -13.5070    1.1990 C   0  0  0  0  0  0  0  0  0  0  0  0
    2.0360  -14.3650    1.5010 O   0  0  0  0  0  0  0  0  0  0  0  0
    3.6950  -12.2820   -0.9800 N   0  0  0  0  0  0  0  0  0  0  0  0
   10.7600  -12.7400   -0.9190 C   0  0  0  0  0  0  0  0  0  0  0  0
   10.4920  -13.4010    0.1280 O   0  0  0  0  0  0  0  0  0  0  0  0
   11.7110  -11.9220   -1.1030 O   0  0  0  0  0  0  0  0  0  0  0  0
    8.8221  -14.4389   -0.9026 H   0  0  0  0  0  0  0  0  0  0  0  0
    7.9774  -14.0783   -2.4464 H   0  0  0  0  0  0  0  0  0  0  0  0
    9.4457  -15.1131   -2.4464 H   0  0  0  0  0  0  0  0  0  0  0  0
   11.7495  -13.4631   -3.0625 H   0  0  0  0  0  0  0  0  0  0  0  0
   10.3301  -14.0459   -3.9966 H   0  0  0  0  0  0  0  0  0  0  0  0
   10.7496  -12.2993   -3.9966 H   0  0  0  0  0  0  0  0  0  0  0  0
    6.9617  -12.4066   -4.1099 H   0  0  0  0  0  0  0  0  0  0  0  0
    4.5735  -12.5226   -3.4092 H   0  0  0  0  0  0  0  0  0  0  0  0
    8.1503  -11.7508   -0.0101 H   0  0  0  0  0  0  0  0  0  0  0  0
    3.4850  -11.9380    2.1880 H   0  0  0  0  0  0  0  0  0  0  0  0
   -1.1537   -9.5104   -0.3544 H   0  0  0  0  0  0  0  0  0  0  0  0
   -4.4243  -11.8380    1.1936 H   0  0  0  0  0  0  0  0  0  0  0  0
   -2.8359  -13.6504    1.8231 H   0  0  0  0  0  0  0  0  0  0  0  0
   -1.4328  -15.2940    1.5749 H   0  0  0  0  0  0  0  0  0  0  0  0
    0.2649  -15.5283    2.2082 H   0  0  0  0  0  0  0  0  0  0  0  0
   -1.9802  -13.9675    3.5470 H   0  0  0  0  0  0  0  0  0  0  0  0
   -1.2855  -15.5801    4.0397 H   0  0  0  0  0  0  0  0  0  0  0  0
   -0.2088  -12.9844    3.8731 H   0  0  0  0  0  0  0  0  0  0  0  0
    0.3058  -13.4699    6.6295 H   0  0  0  0  0  0  0  0  0  0  0  0
   -0.5371  -14.7778    6.6366 H   0  0  0  0  0  0  0  0  0  0  0  0
    2.1411  -14.2092    4.9393 H   0  0  0  0  0  0  0  0  0  0  0  0
    1.6193  -15.6462    4.6508 H   0  0  0  0  0  0  0  0  0  0  0  0
    2.9790  -12.4060   -1.7050 H   0  0  0  0  0  0  0  0  0  0  0  0
  1  2  1  0
  2  3  1  0
  2  4  1  0
  4  5  1  0
  5  6  2  0
  6  7  1  0
  7  8  2  0
  8  9  1  0
  9 10  2  0
  9 11  1  0
 11 12  2  0
 11 13  2  0
 11 14  1  0
 14 15  2  0
 15 16  1  0
 16 17  2  0
 17 18  1  0
 17 19  1  0
 19 20  2  0
 20 21  1  0
 21 22  1  0
 21 23  2  0
 23 24  1  0
 24 25  2  0
 25 26  1  0
 26 27  1  0
 27 28  1  0
 28 29  1  0
 29 30  1  0
 30 31  1  0
 26 32  1  0
 32 33  2  0
 15 34  1  0
  2 35  1  0
 35 36  2  0
 35 37  1  0
 10  5  1  0
 32 16  1  0
 34  8  1  0
 25 19  1  0
 31 29  1  0
  1 38  1  0
  1 39  1  0
  1 40  1  0
  3 41  1  0
  3 42  1  0
  3 43  1  0
  6 44  1  0
  7 45  1  0
 10 46  1  0
 14 47  1  0
 20 48  1  0
 23 49  1  0
 24 50  1  0
 27 51  1  0
 27 52  1  0
 28 53  1  0
 28 54  1  0
 29 55  1  0
 30 56  1  0
 30 57  1  0
 31 58  1  0
 31 59  1  0
 34 60  1  0
M  CHG  3  14   1  18  -1  37  -1
M  END
>  <meeko>  (1) 
{"is_sidechain": [false], "free_energy": -8.256, "intermolecular_energy": -11.635, "internal_energy": -1.02}

$$$$
LIB_KRGWFTJXWQZJML__M_PUB_ALL__e8__s20260927
     RDKit          3D

 60 64  0  0  0  0  0  0  0  0999 V2000
    6.4420  -13.0780   -4.7870 C   0  0  0  0  0  0  0  0  0  0  0  0
    5.1260  -12.7270   -5.4890 C   0  0  0  0  0  0  0  0  0  0  0  0
    5.4420  -12.2680   -6.9180 C   0  0  0  0  0  0  0  0  0  0  0  0
    4.3260  -13.9490   -5.6470 O   0  0  0  0  0  0  0  0  0  0  0  0
    3.3980  -14.1440   -4.6690 C   0  0  0  0  0  0  0  0  0  0  0  0
    2.0740  -13.7740   -4.8920 C   0  0  0  0  0  0  0  0  0  0  0  0
    1.1270  -13.9280   -3.8790 C   0  0  0  0  0  0  0  0  0  0  0  0
    1.4850  -14.4950   -2.6520 C   0  0  0  0  0  0  0  0  0  0  0  0
    2.7960  -14.9170   -2.4870 C   0  0  0  0  0  0  0  0  0  0  0  0
    3.7650  -14.7590   -3.4810 C   0  0  0  0  0  0  0  0  0  0  0  0
    3.2180  -15.6980   -0.9830 S   0  0  0  0  0  0  0  0  0  0  0  0
    4.2690  -14.8940   -0.3930 O   0  0  0  0  0  0  0  0  0  0  0  0
    3.4900  -17.0770   -1.3460 O   0  0  0  0  0  0  0  0  0  0  0  0
    1.9050  -15.6170   -0.1150 N   0  0  0  0  0  0  0  0  0  0  0  0
    0.7630  -15.1330   -0.5110 C   0  0  0  0  0  0  0  0  0  0  0  0
   -0.4440  -15.2090    0.5510 C   0  0  0  0  0  0  0  0  0  0  0  0
   -0.7330  -16.3950    1.1440 C   0  0  0  0  0  0  0  0  0  0  0  0
   -0.1140  -17.4820    0.9200 O   0  0  0  0  0  0  0  0  0  0  0  0
   -1.8770  -16.3430    2.1230 C   0  0  0  0  0  0  0  0  0  0  0  0
   -2.2560  -17.5200    2.8060 C   0  0  0  0  0  0  0  0  0  0  0  0
   -3.3010  -17.5180    3.7180 C   0  0  0  0  0  0  0  0  0  0  0  0
   -3.6400  -18.6500    4.3510 F   0  0  0  0  0  0  0  0  0  0  0  0
   -4.0020  -16.3560    3.9820 C   0  0  0  0  0  0  0  0  0  0  0  0
   -3.6480  -15.1800    3.3210 C   0  0  0  0  0  0  0  0  0  0  0  0
   -2.5910  -15.1540    2.3880 C   0  0  0  0  0  0  0  0  0  0  0  0
   -2.2290  -13.9540    1.7080 N   0  0  0  0  0  0  0  0  0  0  0  0
   -2.9690  -12.7070    1.9110 C   0  0  0  0  0  0  0  0  0  0  0  0
   -2.2470  -11.7070    2.8270 C   0  0  0  0  0  0  0  0  0  0  0  0
   -2.2720  -10.3010    2.2990 C   0  0  0  0  0  0  0  0  0  0  0  0
   -1.5700   -9.1910    3.0380 C   0  0  0  0  0  0  0  0  0  0  0  0
   -1.0140   -9.6920    1.7350 C   0  0  0  0  0  0  0  0  0  0  0  0
   -1.1850  -13.9440    0.8010 C   0  0  0  0  0  0  0  0  0  0  0  0
   -0.8360  -12.9340    0.1760 O   0  0  0  0  0  0  0  0  0  0  0  0
    0.5320  -14.6090   -1.6980 N   0  0  0  0  0  0  0  0  0  0  0  0
    4.3610  -11.5610   -4.7560 C   0  0  0  0  0  0  0  0  0  0  0  0
    3.5650  -10.8780   -5.4660 O   0  0  0  0  0  0  0  0  0  0  0  0
    4.5880  -11.4490   -3.5140 O   0  0  0  0  0  0  0  0  0  0  0  0
    6.2978  -13.0395   -3.6972 H   0  0  0  0  0  0  0  0  0  0  0  0
    6.7550  -14.0910   -5.0799 H   0  0  0  0  0  0  0  0  0  0  0  0
    7.2179  -12.3554   -5.0799 H   0  0  0  0  0  0  0  0  0  0  0  0
    6.0654  -11.3624   -6.8828 H   0  0  0  0  0  0  0  0  0  0  0  0
    5.9834  -13.0655   -7.4480 H   0  0  0  0  0  0  0  0  0  0  0  0
    4.5038  -12.0469   -7.4480 H   0  0  0  0  0  0  0  0  0  0  0  0
    1.7750  -13.3605   -5.8665 H   0  0  0  0  0  0  0  0  0  0  0  0
    0.0903  -13.6007   -4.0470 H   0  0  0  0  0  0  0  0  0  0  0  0
    4.7945  -15.1138   -3.3253 H   0  0  0  0  0  0  0  0  0  0  0  0
    1.8850  -15.9910    0.8450 H   0  0  0  0  0  0  0  0  0  0  0  0
   -1.7120  -18.4559    2.6109 H   0  0  0  0  0  0  0  0  0  0  0  0
   -4.8303  -16.3589    4.7058 H   0  0  0  0  0  0  0  0  0  0  0  0
   -4.2042  -14.2547    3.5316 H   0  0  0  0  0  0  0  0  0  0  0  0
   -3.1252  -12.2316    0.9314 H   0  0  0  0  0  0  0  0  0  0  0  0
   -3.9168  -12.9702    2.4034 H   0  0  0  0  0  0  0  0  0  0  0  0
   -2.7350  -11.7196    3.8128 H   0  0  0  0  0  0  0  0  0  0  0  0
   -1.1932  -12.0170    2.8854 H   0  0  0  0  0  0  0  0  0  0  0  0
   -3.2977  -10.4603    1.9348 H   0  0  0  0  0  0  0  0  0  0  0  0
   -2.0272   -8.1920    3.0928 H   0  0  0  0  0  0  0  0  0  0  0  0
   -1.1720   -9.0651    4.0557 H   0  0  0  0  0  0  0  0  0  0  0  0
   -1.0644   -9.0596    0.8364 H   0  0  0  0  0  0  0  0  0  0  0  0
   -0.0409  -10.0844    1.4047 H   0  0  0  0  0  0  0  0  0  0  0  0
   -0.4180  -14.2570   -1.8620 H   0  0  0  0  0  0  0  0  0  0  0  0
  1  2  1  0
  2  3  1  0
  2  4  1  0
  4  5  1  0
  5  6  2  0
  6  7  1  0
  7  8  2  0
  8  9  1  0
  9 10  2  0
  9 11  1  0
 11 12  2  0
 11 13  2  0
 11 14  1  0
 14 15  2  0
 15 16  1  0
 16 17  2  0
 17 18  1  0
 17 19  1  0
 19 20  2  0
 20 21  1  0
 21 22  1  0
 21 23  2  0
 23 24  1  0
 24 25  2  0
 25 26  1  0
 26 27  1  0
 27 28  1  0
 28 29  1  0
 29 30  1  0
 30 31  1  0
 26 32  1  0
 32 33  2  0
 15 34  1  0
  2 35  1  0
 35 36  2  0
 35 37  1  0
 10  5  1  0
 32 16  1  0
 34  8  1  0
 25 19  1  0
 31 29  1  0
  1 38  1  0
  1 39  1  0
  1 40  1  0
  3 41  1  0
  3 42  1  0
  3 43  1  0
  6 44  1  0
  7 45  1  0
 10 46  1  0
 14 47  1  0
 20 48  1  0
 23 49  1  0
 24 50  1  0
 27 51  1  0
 27 52  1  0
 28 53  1  0
 28 54  1  0
 29 55  1  0
 30 56  1  0
 30 57  1  0
 31 58  1  0
 31 59  1  0
 34 60  1  0
M  CHG  3  14   1  18  -1  37  -1
M  END
>  <meeko>  (2) 
{"is_sidechain": [false], "free_energy": -8.113, "intermolecular_energy": -11.334, "internal_energy": -1.119}

$$$$
LIB_KRGWFTJXWQZJML__M_PUB_ALL__e8__s20260927
     RDKit          3D

 60 64  0  0  0  0  0  0  0  0999 V2000
    9.6790  -14.4000   -1.1370 C   0  0  0  0  0  0  0  0  0  0  0  0
   10.3430  -13.1010   -1.6040 C   0  0  0  0  0  0  0  0  0  0  0  0
   11.2960  -13.4280   -2.7610 C   0  0  0  0  0  0  0  0  0  0  0  0
    9.3210  -12.2210   -2.1870 O   0  0  0  0  0  0  0  0  0  0  0  0
    8.0480  -12.4960   -1.7860 C   0  0  0  0  0  0  0  0  0  0  0  0
    7.1770  -13.1470   -2.6570 C   0  0  0  0  0  0  0  0  0  0  0  0
    5.8590  -13.3910   -2.2710 C   0  0  0  0  0  0  0  0  0  0  0  0
    5.4130  -13.0270   -0.9970 C   0  0  0  0  0  0  0  0  0  0  0  0
    6.3240  -12.4440   -0.1290 C   0  0  0  0  0  0  0  0  0  0  0  0
    7.6450  -12.1760   -0.4990 C   0  0  0  0  0  0  0  0  0  0  0  0
    5.7840  -12.0670    1.4880 S   0  0  0  0  0  0  0  0  0  0  0  0
    5.9620  -10.6380    1.6500 O   0  0  0  0  0  0  0  0  0  0  0  0
    6.5170  -12.9810    2.3450 O   0  0  0  0  0  0  0  0  0  0  0  0
    4.2520  -12.4380    1.4890 N   0  0  0  0  0  0  0  0  0  0  0  0
    3.6020  -12.9770    0.4970 C   0  0  0  0  0  0  0  0  0  0  0  0
    2.0500  -13.3050    0.7640 C   0  0  0  0  0  0  0  0  0  0  0  0
    1.6390  -14.5980    0.7890 C   0  0  0  0  0  0  0  0  0  0  0  0
    2.4000  -15.5990    0.6080 O   0  0  0  0  0  0  0  0  0  0  0  0
    0.1670  -14.7820    1.0530 C   0  0  0  0  0  0  0  0  0  0  0  0
   -0.3660  -16.0900    1.1100 C   0  0  0  0  0  0  0  0  0  0  0  0
   -1.7150  -16.3070    1.3530 C   0  0  0  0  0  0  0  0  0  0  0  0
   -2.1940  -17.5580    1.4010 F   0  0  0  0  0  0  0  0  0  0  0  0
   -2.5750  -15.2420    1.5470 C   0  0  0  0  0  0  0  0  0  0  0  0
   -2.0740  -13.9410    1.4960 C   0  0  0  0  0  0  0  0  0  0  0  0
   -0.7080  -13.6920    1.2480 C   0  0  0  0  0  0  0  0  0  0  0  0
   -0.1930  -12.3630    1.1920 N   0  0  0  0  0  0  0  0  0  0  0  0
   -1.0680  -11.1980    1.3390 C   0  0  0  0  0  0  0  0  0  0  0  0
   -1.7830  -10.8000    0.0380 C   0  0  0  0  0  0  0  0  0  0  0  0
   -3.2690  -10.6570    0.2030 C   0  0  0  0  0  0  0  0  0  0  0  0
   -4.1520  -10.3880   -0.9880 C   0  0  0  0  0  0  0  0  0  0  0  0
   -4.1860  -11.7330   -0.3190 C   0  0  0  0  0  0  0  0  0  0  0  0
    1.1500  -12.1360    0.9550 C   0  0  0  0  0  0  0  0  0  0  0  0
    1.6470  -11.0040    0.8850 O   0  0  0  0  0  0  0  0  0  0  0  0
    4.1220  -13.2740   -0.6770 N   0  0  0  0  0  0  0  0  0  0  0  0
   11.1800  -12.4210   -0.4540 C   0  0  0  0  0  0  0  0  0  0  0  0
   11.9050  -11.4390   -0.7930 O   0  0  0  0  0  0  0  0  0  0  0  0
   11.0110  -12.9020    0.7070 O   0  0  0  0  0  0  0  0  0  0  0  0
    9.6640  -14.4294   -0.0375 H   0  0  0  0  0  0  0  0  0  0  0  0
    8.6484  -14.4429   -1.5191 H   0  0  0  0  0  0  0  0  0  0  0  0
   10.2478  -15.2605   -1.5191 H   0  0  0  0  0  0  0  0  0  0  0  0
   12.2635  -13.7600   -2.3564 H   0  0  0  0  0  0  0  0  0  0  0  0
   10.8624  -14.2288   -3.3781 H   0  0  0  0  0  0  0  0  0  0  0  0
   11.4454  -12.5297   -3.3781 H   0  0  0  0  0  0  0  0  0  0  0  0
    7.5285  -13.4684   -3.6485 H   0  0  0  0  0  0  0  0  0  0  0  0
    5.1649  -13.8737   -2.9747 H   0  0  0  0  0  0  0  0  0  0  0  0
    8.3483  -11.7218    0.2145 H   0  0  0  0  0  0  0  0  0  0  0  0
    3.6750  -12.2900    2.3290 H   0  0  0  0  0  0  0  0  0  0  0  0
    0.3008  -16.9517    0.9590 H   0  0  0  0  0  0  0  0  0  0  0  0
   -3.6435  -15.4187    1.7396 H   0  0  0  0  0  0  0  0  0  0  0  0
   -2.7573  -13.0932    1.6522 H   0  0  0  0  0  0  0  0  0  0  0  0
   -1.8297  -11.4283    2.0984 H   0  0  0  0  0  0  0  0  0  0  0  0
   -0.4311  -10.3498    1.6306 H   0  0  0  0  0  0  0  0  0  0  0  0
   -1.3747   -9.8382   -0.3059 H   0  0  0  0  0  0  0  0  0  0  0  0
   -1.6097  -11.6051   -0.6913 H   0  0  0  0  0  0  0  0  0  0  0  0
   -3.1092  -10.1657    1.1741 H   0  0  0  0  0  0  0  0  0  0  0  0
   -5.0093   -9.7053   -0.8937 H   0  0  0  0  0  0  0  0  0  0  0  0
   -3.9839  -10.0355   -2.0163 H   0  0  0  0  0  0  0  0  0  0  0  0
   -5.0682  -12.0344    0.2649 H   0  0  0  0  0  0  0  0  0  0  0  0
   -4.0530  -12.7719   -0.6551 H   0  0  0  0  0  0  0  0  0  0  0  0
    3.4800  -13.6850   -1.3650 H   0  0  0  0  0  0  0  0  0  0  0  0
  1  2  1  0
  2  3  1  0
  2  4  1  0
  4  5  1  0
  5  6  2  0
  6  7  1  0
  7  8  2  0
  8  9  1  0
  9 10  2  0
  9 11  1  0
 11 12  2  0
 11 13  2  0
 11 14  1  0
 14 15  2  0
 15 16  1  0
 16 17  2  0
 17 18  1  0
 17 19  1  0
 19 20  2  0
 20 21  1  0
 21 22  1  0
 21 23  2  0
 23 24  1  0
 24 25  2  0
 25 26  1  0
 26 27  1  0
 27 28  1  0
 28 29  1  0
 29 30  1  0
 30 31  1  0
 26 32  1  0
 32 33  2  0
 15 34  1  0
  2 35  1  0
 35 36  2  0
 35 37  1  0
 10  5  1  0
 32 16  1  0
 34  8  1  0
 25 19  1  0
 31 29  1  0
  1 38  1  0
  1 39  1  0
  1 40  1  0
  3 41  1  0
  3 42  1  0
  3 43  1  0
  6 44  1  0
  7 45  1  0
 10 46  1  0
 14 47  1  0
 20 48  1  0
 23 49  1  0
 24 50  1  0
 27 51  1  0
 27 52  1  0
 28 53  1  0
 28 54  1  0
 29 55  1  0
 30 56  1  0
 30 57  1  0
 31 58  1  0
 31 59  1  0
 34 60  1  0
M  CHG  3  14   1  18  -1  37  -1
M  END
>  <meeko>  (3) 
{"is_sidechain": [false], "free_energy": -8.068, "intermolecular_energy": -11.226, "internal_energy": -1.163}

$$$$
LIB_KRGWFTJXWQZJML__M_PUB_ALL__e8__s20260927
     RDKit          3D

 60 64  0  0  0  0  0  0  0  0999 V2000
    1.3420  -17.4770   -0.4720 C   0  0  0  0  0  0  0  0  0  0  0  0
    1.0550  -16.7620    0.8520 C   0  0  0  0  0  0  0  0  0  0  0  0
   -0.0830  -17.4990    1.5680 C   0  0  0  0  0  0  0  0  0  0  0  0
    2.2200  -16.9040    1.7370 O   0  0  0  0  0  0  0  0  0  0  0  0
    3.3670  -16.3560    1.2490 C   0  0  0  0  0  0  0  0  0  0  0  0
    4.1420  -17.0770    0.3430 C   0  0  0  0  0  0  0  0  0  0  0  0
    5.3430  -16.5420   -0.1270 C   0  0  0  0  0  0  0  0  0  0  0  0
    5.7550  -15.2660    0.2680 C   0  0  0  0  0  0  0  0  0  0  0  0
    4.9250  -14.5470    1.1160 C   0  0  0  0  0  0  0  0  0  0  0  0
    3.7270  -15.0680    1.6120 C   0  0  0  0  0  0  0  0  0  0  0  0
    5.4050  -12.9220    1.5410 S   0  0  0  0  0  0  0  0  0  0  0  0
    5.5280  -12.9030    2.9850 O   0  0  0  0  0  0  0  0  0  0  0  0
    4.4270  -12.0670    0.8950 O   0  0  0  0  0  0  0  0  0  0  0  0
    6.8150  -12.7370    0.8630 N   0  0  0  0  0  0  0  0  0  0  0  0
    7.4100  -13.6090    0.0990 C   0  0  0  0  0  0  0  0  0  0  0  0
    8.8290  -13.1610   -0.5130 C   0  0  0  0  0  0  0  0  0  0  0  0
    9.6950  -12.4600    0.2620 C   0  0  0  0  0  0  0  0  0  0  0  0
    9.4700  -12.1160    1.4630 O   0  0  0  0  0  0  0  0  0  0  0  0
   10.9920  -12.1020   -0.4170 C   0  0  0  0  0  0  0  0  0  0  0  0
   11.9710  -11.3810    0.3020 C   0  0  0  0  0  0  0  0  0  0  0  0
   13.1800  -11.0320   -0.2810 C   0  0  0  0  0  0  0  0  0  0  0  0
   14.0920  -10.3470    0.4240 F   0  0  0  0  0  0  0  0  0  0  0  0
   13.4580  -11.3830   -1.5890 C   0  0  0  0  0  0  0  0  0  0  0  0
   12.5080  -12.0950   -2.3210 C   0  0  0  0  0  0  0  0  0  0  0  0
   11.2700  -12.4610   -1.7540 C   0  0  0  0  0  0  0  0  0  0  0  0
   10.2950  -13.1850   -2.5010 N   0  0  0  0  0  0  0  0  0  0  0  0
   10.5150  -13.5380   -3.9050 C   0  0  0  0  0  0  0  0  0  0  0  0
   11.0580  -14.9630   -4.1010 C   0  0  0  0  0  0  0  0  0  0  0  0
   12.5480  -15.0530   -3.9270 C   0  0  0  0  0  0  0  0  0  0  0  0
   13.1430  -15.9140   -2.8430 C   0  0  0  0  0  0  0  0  0  0  0  0
   13.2650  -16.3300   -4.2810 C   0  0  0  0  0  0  0  0  0  0  0  0
    9.0880  -13.5440   -1.9270 C   0  0  0  0  0  0  0  0  0  0  0  0
    8.2040  -14.1630   -2.5330 O   0  0  0  0  0  0  0  0  0  0  0  0
    6.9320  -14.7990   -0.2060 N   0  0  0  0  0  0  0  0  0  0  0  0
    0.6100  -15.2670    0.6300 C   0  0  0  0  0  0  0  0  0  0  0  0
    0.6190  -14.8500   -0.5660 O   0  0  0  0  0  0  0  0  0  0  0  0
    0.2450  -14.6410    1.6710 O   0  0  0  0  0  0  0  0  0  0  0  0
    1.7446  -18.4800   -0.2673 H   0  0  0  0  0  0  0  0  0  0  0  0
    0.4102  -17.5668   -1.0497 H   0  0  0  0  0  0  0  0  0  0  0  0
    2.0772  -16.8976   -1.0497 H   0  0  0  0  0  0  0  0  0  0  0  0
    0.0514  -17.4120    2.6563 H   0  0  0  0  0  0  0  0  0  0  0  0
   -1.0466  -17.0530    1.2807 H   0  0  0  0  0  0  0  0  0  0  0  0
   -0.0702  -18.5607    1.2807 H   0  0  0  0  0  0  0  0  0  0  0  0
    3.8080  -18.0668   -0.0017 H   0  0  0  0  0  0  0  0  0  0  0  0
    5.9701  -17.1295   -0.8138 H   0  0  0  0  0  0  0  0  0  0  0  0
    3.0848  -14.4697    2.2750 H   0  0  0  0  0  0  0  0  0  0  0  0
    7.3430  -11.8600    0.9750 H   0  0  0  0  0  0  0  0  0  0  0  0
   11.7707  -11.0909    1.3440 H   0  0  0  0  0  0  0  0  0  0  0  0
   14.4181  -11.1037   -2.0475 H   0  0  0  0  0  0  0  0  0  0  0  0
   12.7289  -12.3766   -3.3612 H   0  0  0  0  0  0  0  0  0  0  0  0
    9.5573  -13.4537   -4.4394 H   0  0  0  0  0  0  0  0  0  0  0  0
   11.2741  -12.8455   -4.2977 H   0  0  0  0  0  0  0  0  0  0  0  0
   10.5786  -15.6251   -3.3649 H   0  0  0  0  0  0  0  0  0  0  0  0
   10.8288  -15.2631   -5.1341 H   0  0  0  0  0  0  0  0  0  0  0  0
   12.6419  -13.9952   -4.2139 H   0  0  0  0  0  0  0  0  0  0  0  0
   14.0313  -15.5698   -2.2931 H   0  0  0  0  0  0  0  0  0  0  0  0
   12.7586  -16.3867   -1.9271 H   0  0  0  0  0  0  0  0  0  0  0  0
   14.2426  -16.2903   -4.7837 H   0  0  0  0  0  0  0  0  0  0  0  0
   13.0069  -17.2332   -4.8533 H   0  0  0  0  0  0  0  0  0  0  0  0
    7.5220  -15.3820   -0.8110 H   0  0  0  0  0  0  0  0  0  0  0  0
  1  2  1  0
  2  3  1  0
  2  4  1  0
  4  5  1  0
  5  6  2  0
  6  7  1  0
  7  8  2  0
  8  9  1  0
  9 10  2  0
  9 11  1  0
 11 12  2  0
 11 13  2  0
 11 14  1  0
 14 15  2  0
 15 16  1  0
 16 17  2  0
 17 18  1  0
 17 19  1  0
 19 20  2  0
 20 21  1  0
 21 22  1  0
 21 23  2  0
 23 24  1  0
 24 25  2  0
 25 26  1  0
 26 27  1  0
 27 28  1  0
 28 29  1  0
 29 30  1  0
 30 31  1  0
 26 32  1  0
 32 33  2  0
 15 34  1  0
  2 35  1  0
 35 36  2  0
 35 37  1  0
 10  5  1  0
 32 16  1  0
 34  8  1  0
 25 19  1  0
 31 29  1  0
  1 38  1  0
  1 39  1  0
  1 40  1  0
  3 41  1  0
  3 42  1  0
  3 43  1  0
  6 44  1  0
  7 45  1  0
 10 46  1  0
 14 47  1  0
 20 48  1  0
 23 49  1  0
 24 50  1  0
 27 51  1  0
 27 52  1  0
 28 53  1  0
 28 54  1  0
 29 55  1  0
 30 56  1  0
 30 57  1  0
 31 58  1  0
 31 59  1  0
 34 60  1  0
M  CHG  3  14   1  18  -1  37  -1
M  END
>  <meeko>  (4) 
{"is_sidechain": [false], "free_energy": -8.002, "intermolecular_energy": -11.329, "internal_energy": -0.966}

$$$$
LIB_KRGWFTJXWQZJML__M_PUB_ALL__e8__s20260927
     RDKit          3D

 60 64  0  0  0  0  0  0  0  0999 V2000
   14.3550  -13.9900  -11.2640 C   0  0  0  0  0  0  0  0  0  0  0  0
   13.1090  -14.3790  -12.0670 C   0  0  0  0  0  0  0  0  0  0  0  0
   13.5550  -15.1480  -13.3170 C   0  0  0  0  0  0  0  0  0  0  0  0
   12.3180  -15.3410  -11.2880 O   0  0  0  0  0  0  0  0  0  0  0  0
   12.1110  -14.9800   -9.9910 C   0  0  0  0  0  0  0  0  0  0  0  0
   11.0450  -14.1420   -9.6710 C   0  0  0  0  0  0  0  0  0  0  0  0
   10.8540  -13.7300   -8.3520 C   0  0  0  0  0  0  0  0  0  0  0  0
   11.6980  -14.1870   -7.3350 C   0  0  0  0  0  0  0  0  0  0  0  0
   12.7080  -15.0750   -7.6770 C   0  0  0  0  0  0  0  0  0  0  0  0
   12.9280  -15.4900   -8.9930 C   0  0  0  0  0  0  0  0  0  0  0  0
   13.7080  -15.7060   -6.3920 S   0  0  0  0  0  0  0  0  0  0  0  0
   15.0670  -15.3170   -6.7110 O   0  0  0  0  0  0  0  0  0  0  0  0
   13.3650  -17.1140   -6.3140 O   0  0  0  0  0  0  0  0  0  0  0  0
   13.2070  -14.9570   -5.0980 N   0  0  0  0  0  0  0  0  0  0  0  0
   12.2100  -14.1190   -5.0450 C   0  0  0  0  0  0  0  0  0  0  0  0
   11.8650  -13.5230   -3.5910 C   0  0  0  0  0  0  0  0  0  0  0  0
   12.6810  -12.5840   -3.0480 C   0  0  0  0  0  0  0  0  0  0  0  0
   13.7250  -12.1260   -3.6070 O   0  0  0  0  0  0  0  0  0  0  0  0
   12.2540  -12.0970   -1.6870 C   0  0  0  0  0  0  0  0  0  0  0  0
   13.0260  -11.1090   -1.0340 C   0  0  0  0  0  0  0  0  0  0  0  0
   12.6700  -10.6300    0.2180 C   0  0  0  0  0  0  0  0  0  0  0  0
   13.4200   -9.6930    0.8150 F   0  0  0  0  0  0  0  0  0  0  0  0
   11.5440  -11.1090    0.8610 C   0  0  0  0  0  0  0  0  0  0  0  0
   10.7640  -12.0840    0.2370 C   0  0  0  0  0  0  0  0  0  0  0  0
   11.1040  -12.5900   -1.0340 C   0  0  0  0  0  0  0  0  0  0  0  0
   10.3120  -13.5890   -1.6720 N   0  0  0  0  0  0  0  0  0  0  0  0
    9.1380  -14.1690   -1.0150 C   0  0  0  0  0  0  0  0  0  0  0  0
    7.9120  -13.2440   -1.0230 C   0  0  0  0  0  0  0  0  0  0  0  0
    7.8430  -12.3680   -2.2420 C   0  0  0  0  0  0  0  0  0  0  0  0
    6.5210  -12.0770   -2.9050 C   0  0  0  0  0  0  0  0  0  0  0  0
    7.2320  -10.9950   -2.1430 C   0  0  0  0  0  0  0  0  0  0  0  0
   10.6550  -14.0710   -2.9220 C   0  0  0  0  0  0  0  0  0  0  0  0
   10.0090  -14.9440   -3.5160 O   0  0  0  0  0  0  0  0  0  0  0  0
   11.4780  -13.7470   -6.0750 N   0  0  0  0  0  0  0  0  0  0  0  0
   12.2900  -13.1160  -12.5320 C   0  0  0  0  0  0  0  0  0  0  0  0
   11.3340  -13.3320  -13.3350 O   0  0  0  0  0  0  0  0  0  0  0  0
   12.6440  -12.0120  -12.0210 O   0  0  0  0  0  0  0  0  0  0  0  0
   14.1344  -14.0589  -10.1886 H   0  0  0  0  0  0  0  0  0  0  0  0
   15.1801  -14.6733  -11.5135 H   0  0  0  0  0  0  0  0  0  0  0  0
   14.6448  -12.9586  -11.5135 H   0  0  0  0  0  0  0  0  0  0  0  0
   14.0856  -16.0629  -13.0147 H   0  0  0  0  0  0  0  0  0  0  0  0
   12.6727  -15.4169  -13.9163 H   0  0  0  0  0  0  0  0  0  0  0  0
   14.2265  -14.5157  -13.9163 H   0  0  0  0  0  0  0  0  0  0  0  0
   10.3542  -13.8054  -10.4581 H   0  0  0  0  0  0  0  0  0  0  0  0
   10.0325  -13.0397   -8.1098 H   0  0  0  0  0  0  0  0  0  0  0  0
   13.7299  -16.2041   -9.2317 H   0  0  0  0  0  0  0  0  0  0  0  0
   13.6500  -15.1300   -4.1850 H   0  0  0  0  0  0  0  0  0  0  0  0
   13.9255  -10.7129   -1.5279 H   0  0  0  0  0  0  0  0  0  0  0  0
   11.2656  -10.7259    1.8538 H   0  0  0  0  0  0  0  0  0  0  0  0
    9.8668  -12.4648    0.7469 H   0  0  0  0  0  0  0  0  0  0  0  0
    8.8737  -15.1019   -1.5345 H   0  0  0  0  0  0  0  0  0  0  0  0
    9.4077  -14.3396    0.0377 H   0  0  0  0  0  0  0  0  0  0  0  0
    7.0047  -13.8648   -0.9861 H   0  0  0  0  0  0  0  0  0  0  0  0
    7.9941  -12.5827   -0.1478 H   0  0  0  0  0  0  0  0  0  0  0  0
    8.8067  -12.7745   -2.5826 H   0  0  0  0  0  0  0  0  0  0  0  0
    6.4556  -12.0250   -4.0018 H   0  0  0  0  0  0  0  0  0  0  0  0
    5.5166  -12.5239   -2.8661 H   0  0  0  0  0  0  0  0  0  0  0  0
    7.6867  -10.1509   -2.6822 H   0  0  0  0  0  0  0  0  0  0  0  0
    6.9629  -10.3221   -1.3155 H   0  0  0  0  0  0  0  0  0  0  0  0
   10.7320  -13.0690   -5.8800 H   0  0  0  0  0  0  0  0  0  0  0  0
  1  2  1  0
  2  3  1  0
  2  4  1  0
  4  5  1  0
  5  6  2  0
  6  7  1  0
  7  8  2  0
  8  9  1  0
  9 10  2  0
  9 11  1  0
 11 12  2  0
 11 13  2  0
 11 14  1  0
 14 15  2  0
 15 16  1  0
 16 17  2  0
 17 18  1  0
 17 19  1  0
 19 20  2  0
 20 21  1  0
 21 22  1  0
 21 23  2  0
 23 24  1  0
 24 25  2  0
 25 26  1  0
 26 27  1  0
 27 28  1  0
 28 29  1  0
 29 30  1  0
 30 31  1  0
 26 32  1  0
 32 33  2  0
 15 34  1  0
  2 35  1  0
 35 36  2  0
 35 37  1  0
 10  5  1  0
 32 16  1  0
 34  8  1  0
 25 19  1  0
 31 29  1  0
  1 38  1  0
  1 39  1  0
  1 40  1  0
  3 41  1  0
  3 42  1  0
  3 43  1  0
  6 44  1  0
  7 45  1  0
 10 46  1  0
 14 47  1  0
 20 48  1  0
 23 49  1  0
 24 50  1  0
 27 51  1  0
 27 52  1  0
 28 53  1  0
 28 54  1  0
 29 55  1  0
 30 56  1  0
 30 57  1  0
 31 58  1  0
 31 59  1  0
 34 60  1  0
M  CHG  3  14   1  18  -1  37  -1
M  END
>  <meeko>  (5) 
{"is_sidechain": [false], "free_energy": -7.924, "intermolecular_energy": -11.116, "internal_energy": -1.07}

$$$$
LIB_KRGWFTJXWQZJML__M_PUB_ALL__e8__s20260927
     RDKit          3D

 60 64  0  0  0  0  0  0  0  0999 V2000
    1.7360  -17.9780    9.0830 C   0  0  0  0  0  0  0  0  0  0  0  0
    1.4630  -19.1280    8.1080 C   0  0  0  0  0  0  0  0  0  0  0  0
    1.1780  -20.3980    8.9190 C   0  0  0  0  0  0  0  0  0  0  0  0
    0.2170  -18.8530    7.3790 O   0  0  0  0  0  0  0  0  0  0  0  0
    0.3140  -17.8550    6.4560 C   0  0  0  0  0  0  0  0  0  0  0  0
    0.6550  -16.5680    6.8680 C   0  0  0  0  0  0  0  0  0  0  0  0
    0.7120  -15.5310    5.9360 C   0  0  0  0  0  0  0  0  0  0  0  0
    0.4740  -15.7800    4.5800 C   0  0  0  0  0  0  0  0  0  0  0  0
    0.2060  -17.0850    4.1950 C   0  0  0  0  0  0  0  0  0  0  0  0
    0.1290  -18.1370    5.1120 C   0  0  0  0  0  0  0  0  0  0  0  0
   -0.0090  -17.4040    2.4910 S   0  0  0  0  0  0  0  0  0  0  0  0
   -1.3400  -17.9590    2.3500 O   0  0  0  0  0  0  0  0  0  0  0  0
    1.1430  -18.2020    2.1160 O   0  0  0  0  0  0  0  0  0  0  0  0
    0.0740  -15.9840    1.8110 N   0  0  0  0  0  0  0  0  0  0  0  0
    0.3260  -14.8630    2.4240 C   0  0  0  0  0  0  0  0  0  0  0  0
    0.4040  -13.5520    1.4950 C   0  0  0  0  0  0  0  0  0  0  0  0
    1.1860  -13.5690    0.3860 C   0  0  0  0  0  0  0  0  0  0  0  0
    1.8840  -14.5630    0.0120 O   0  0  0  0  0  0  0  0  0  0  0  0
    1.1760  -12.2880   -0.4070 C   0  0  0  0  0  0  0  0  0  0  0  0
    1.9470  -12.2010   -1.5880 C   0  0  0  0  0  0  0  0  0  0  0  0
    1.9650  -11.0420   -2.3510 C   0  0  0  0  0  0  0  0  0  0  0  0
    2.7060  -10.9870   -3.4670 F   0  0  0  0  0  0  0  0  0  0  0  0
    1.2240   -9.9390   -1.9720 C   0  0  0  0  0  0  0  0  0  0  0  0
    0.4540   -9.9990   -0.8110 C   0  0  0  0  0  0  0  0  0  0  0  0
    0.4190  -11.1630   -0.0150 C   0  0  0  0  0  0  0  0  0  0  0  0
   -0.3640  -11.2260    1.1750 N   0  0  0  0  0  0  0  0  0  0  0  0
   -1.1270  -10.0700    1.6510 C   0  0  0  0  0  0  0  0  0  0  0  0
   -2.6260  -10.1490    1.3240 C   0  0  0  0  0  0  0  0  0  0  0  0
   -2.9040  -10.7510   -0.0240 C   0  0  0  0  0  0  0  0  0  0  0  0
   -3.8770  -11.8920   -0.1690 C   0  0  0  0  0  0  0  0  0  0  0  0
   -4.2410  -10.5270   -0.6810 C   0  0  0  0  0  0  0  0  0  0  0  0
   -0.3940  -12.3780    1.9400 C   0  0  0  0  0  0  0  0  0  0  0  0
   -1.0470  -12.4840    2.9860 O   0  0  0  0  0  0  0  0  0  0  0  0
    0.5290  -14.7370    3.7200 N   0  0  0  0  0  0  0  0  0  0  0  0
    2.6960  -19.4100    7.1690 C   0  0  0  0  0  0  0  0  0  0  0  0
    2.5760  -20.3780    6.3600 O   0  0  0  0  0  0  0  0  0  0  0  0
    3.6720  -18.6090    7.2880 O   0  0  0  0  0  0  0  0  0  0  0  0
    1.6489  -18.3449   10.1163 H   0  0  0  0  0  0  0  0  0  0  0  0
    2.7514  -17.5892    8.9163 H   0  0  0  0  0  0  0  0  0  0  0  0
    1.0037  -17.1743    8.9163 H   0  0  0  0  0  0  0  0  0  0  0  0
    1.2299  -20.1665    9.9931 H   0  0  0  0  0  0  0  0  0  0  0  0
    0.1735  -20.7726    8.6728 H   0  0  0  0  0  0  0  0  0  0  0  0
    1.9262  -21.1659    8.6728 H   0  0  0  0  0  0  0  0  0  0  0  0
    0.8789  -16.3699    7.9266 H   0  0  0  0  0  0  0  0  0  0  0  0
    0.9460  -14.5094    6.2702 H   0  0  0  0  0  0  0  0  0  0  0  0
   -0.0736  -19.1643    4.7748 H   0  0  0  0  0  0  0  0  0  0  0  0
   -0.0450  -15.8810    0.7930 H   0  0  0  0  0  0  0  0  0  0  0  0
    2.5438  -13.0677   -1.9084 H   0  0  0  0  0  0  0  0  0  0  0  0
    1.2414   -9.0226   -2.5802 H   0  0  0  0  0  0  0  0  0  0  0  0
   -0.1375   -9.1217   -0.5101 H   0  0  0  0  0  0  0  0  0  0  0  0
   -1.0118  -10.0023    2.7429 H   0  0  0  0  0  0  0  0  0  0  0  0
   -0.7291   -9.1843    1.1341 H   0  0  0  0  0  0  0  0  0  0  0  0
   -3.1197  -10.7642    2.0907 H   0  0  0  0  0  0  0  0  0  0  0  0
   -3.0134   -9.1196    1.3098 H   0  0  0  0  0  0  0  0  0  0  0  0
   -1.8538  -10.5890   -0.3083 H   0  0  0  0  0  0  0  0  0  0  0  0
   -3.6670  -12.7069   -0.8774 H   0  0  0  0  0  0  0  0  0  0  0  0
   -4.3396  -12.6117    0.5224 H   0  0  0  0  0  0  0  0  0  0  0  0
   -4.2974  -10.3431   -1.7641 H   0  0  0  0  0  0  0  0  0  0  0  0
   -5.0802   -9.8345   -0.5194 H   0  0  0  0  0  0  0  0  0  0  0  0
    0.7060  -13.7850    4.0610 H   0  0  0  0  0  0  0  0  0  0  0  0
  1  2  1  0
  2  3  1  0
  2  4  1  0
  4  5  1  0
  5  6  2  0
  6  7  1  0
  7  8  2  0
  8  9  1  0
  9 10  2  0
  9 11  1  0
 11 12  2  0
 11 13  2  0
 11 14  1  0
 14 15  2  0
 15 16  1  0
 16 17  2  0
 17 18  1  0
 17 19  1  0
 19 20  2  0
 20 21  1  0
 21 22  1  0
 21 23  2  0
 23 24  1  0
 24 25  2  0
 25 26  1  0
 26 27  1  0
 27 28  1  0
 28 29  1  0
 29 30  1  0
 30 31  1  0
 26 32  1  0
 32 33  2  0
 15 34  1  0
  2 35  1  0
 35 36  2  0
 35 37  1  0
 10  5  1  0
 32 16  1  0
 34  8  1  0
 25 19  1  0
 31 29  1  0
  1 38  1  0
  1 39  1  0
  1 40  1  0
  3 41  1  0
  3 42  1  0
  3 43  1  0
  6 44  1  0
  7 45  1  0
 10 46  1  0
 14 47  1  0
 20 48  1  0
 23 49  1  0
 24 50  1  0
 27 51  1  0
 27 52  1  0
 28 53  1  0
 28 54  1  0
 29 55  1  0
 30 56  1  0
 30 57  1  0
 31 58  1  0
 31 59  1  0
 34 60  1  0
M  CHG  3  14   1  18  -1  37  -1
M  END
>  <meeko>  (6) 
{"is_sidechain": [false], "free_energy": -7.9, "intermolecular_energy": -11.172, "internal_energy": -0.98}

$$$$
LIB_KRGWFTJXWQZJML__M_PUB_ALL__e8__s20260927
     RDKit          3D

 60 64  0  0  0  0  0  0  0  0999 V2000
    7.9780  -13.8860   -2.2040 C   0  0  0  0  0  0  0  0  0  0  0  0
    8.9150  -12.6740   -2.1920 C   0  0  0  0  0  0  0  0  0  0  0  0
    9.5880  -12.5640   -3.5650 C   0  0  0  0  0  0  0  0  0  0  0  0
    8.1130  -11.4490   -2.0590 O   0  0  0  0  0  0  0  0  0  0  0  0
    6.8770  -11.6420   -1.5200 C   0  0  0  0  0  0  0  0  0  0  0  0
    6.7380  -11.7480   -0.1380 C   0  0  0  0  0  0  0  0  0  0  0  0
    5.4820  -11.9910    0.4190 C   0  0  0  0  0  0  0  0  0  0  0  0
    4.3490  -12.0850   -0.3960 C   0  0  0  0  0  0  0  0  0  0  0  0
    4.5120  -11.9050   -1.7610 C   0  0  0  0  0  0  0  0  0  0  0  0
    5.7620  -11.6760   -2.3430 C   0  0  0  0  0  0  0  0  0  0  0  0
    3.0830  -11.9420   -2.7650 S   0  0  0  0  0  0  0  0  0  0  0  0
    3.2850  -13.0180   -3.7140 O   0  0  0  0  0  0  0  0  0  0  0  0
    2.9340  -10.5810   -3.2460 O   0  0  0  0  0  0  0  0  0  0  0  0
    1.9120  -12.2940   -1.7700 N   0  0  0  0  0  0  0  0  0  0  0  0
    2.0290  -12.4370   -0.4810 C   0  0  0  0  0  0  0  0  0  0  0  0
    0.6700  -12.7490    0.3220 C   0  0  0  0  0  0  0  0  0  0  0  0
    0.2410  -14.0320    0.4280 C   0  0  0  0  0  0  0  0  0  0  0  0
    0.8380  -15.0350   -0.0730 O   0  0  0  0  0  0  0  0  0  0  0  0
   -1.0390  -14.2010    1.2060 C   0  0  0  0  0  0  0  0  0  0  0  0
   -1.5710  -15.4980    1.3860 C   0  0  0  0  0  0  0  0  0  0  0  0
   -2.7440  -15.7010    2.0980 C   0  0  0  0  0  0  0  0  0  0  0  0
   -3.2270  -16.9420    2.2530 F   0  0  0  0  0  0  0  0  0  0  0  0
   -3.4250  -14.6340    2.6510 C   0  0  0  0  0  0  0  0  0  0  0  0
   -2.9210  -13.3430    2.4880 C   0  0  0  0  0  0  0  0  0  0  0  0
   -1.7320  -13.1080    1.7670 C   0  0  0  0  0  0  0  0  0  0  0  0
   -1.2160  -11.7900    1.5950 N   0  0  0  0  0  0  0  0  0  0  0  0
   -1.9240  -10.6180    2.1160 C   0  0  0  0  0  0  0  0  0  0  0  0
   -2.7530   -9.8800    1.0530 C   0  0  0  0  0  0  0  0  0  0  0  0
   -3.1050  -10.7460   -0.1230 C   0  0  0  0  0  0  0  0  0  0  0  0
   -4.3920  -11.5290   -0.1420 C   0  0  0  0  0  0  0  0  0  0  0  0
   -4.2270  -10.3380   -1.0420 C   0  0  0  0  0  0  0  0  0  0  0  0
   -0.0440  -11.5760    0.8930 C   0  0  0  0  0  0  0  0  0  0  0  0
    0.4420  -10.4530    0.7050 O   0  0  0  0  0  0  0  0  0  0  0  0
    3.1570  -12.3350    0.1930 N   0  0  0  0  0  0  0  0  0  0  0  0
   10.0430  -12.8120   -1.1000 C   0  0  0  0  0  0  0  0  0  0  0  0
    9.7510  -13.4970   -0.0750 O   0  0  0  0  0  0  0  0  0  0  0  0
   11.1480  -12.2560   -1.3770 O   0  0  0  0  0  0  0  0  0  0  0  0
    7.7488  -14.1825   -1.1698 H   0  0  0  0  0  0  0  0  0  0  0  0
    7.0457  -13.6235   -2.7254 H   0  0  0  0  0  0  0  0  0  0  0  0
    8.4668  -14.7222   -2.7254 H   0  0  0  0  0  0  0  0  0  0  0  0
   10.6656  -12.3879   -3.4321 H   0  0  0  0  0  0  0  0  0  0  0  0
    9.4355  -13.4990   -4.1241 H   0  0  0  0  0  0  0  0  0  0  0  0
    9.1458  -11.7262   -4.1241 H   0  0  0  0  0  0  0  0  0  0  0  0
    7.6177  -11.6402    0.5136 H   0  0  0  0  0  0  0  0  0  0  0  0
    5.3819  -12.1096    1.5080 H   0  0  0  0  0  0  0  0  0  0  0  0
    5.8587  -11.5263   -3.4285 H   0  0  0  0  0  0  0  0  0  0  0  0
    0.9460  -12.4010   -2.1110 H   0  0  0  0  0  0  0  0  0  0  0  0
   -1.0453  -16.3621    0.9536 H   0  0  0  0  0  0  0  0  0  0  0  0
   -4.3552  -14.8003    3.2142 H   0  0  0  0  0  0  0  0  0  0  0  0
   -3.4612  -12.4928    2.9301 H   0  0  0  0  0  0  0  0  0  0  0  0
   -2.6007  -10.9481    2.9180 H   0  0  0  0  0  0  0  0  0  0  0  0
   -1.1608   -9.9133    2.4778 H   0  0  0  0  0  0  0  0  0  0  0  0
   -3.6845   -9.5258    1.5187 H   0  0  0  0  0  0  0  0  0  0  0  0
   -2.1396   -9.0480    0.6768 H   0  0  0  0  0  0  0  0  0  0  0  0
   -2.0423  -11.0011   -0.2478 H   0  0  0  0  0  0  0  0  0  0  0  0
   -4.4127  -12.5423   -0.5694 H   0  0  0  0  0  0  0  0  0  0  0  0
   -5.1277  -11.8337    0.6169 H   0  0  0  0  0  0  0  0  0  0  0  0
   -4.1269  -10.4795   -2.1283 H   0  0  0  0  0  0  0  0  0  0  0  0
   -4.7919   -9.4100   -1.2145 H   0  0  0  0  0  0  0  0  0  0  0  0
    3.0950  -12.4860    1.2070 H   0  0  0  0  0  0  0  0  0  0  0  0
  1  2  1  0
  2  3  1  0
  2  4  1  0
  4  5  1  0
  5  6  2  0
  6  7  1  0
  7  8  2  0
  8  9  1  0
  9 10  2  0
  9 11  1  0
 11 12  2  0
 11 13  2  0
 11 14  1  0
 14 15  2  0
 15 16  1  0
 16 17  2  0
 17 18  1  0
 17 19  1  0
 19 20  2  0
 20 21  1  0
 21 22  1  0
 21 23  2  0
 23 24  1  0
 24 25  2  0
 25 26  1  0
 26 27  1  0
 27 28  1  0
 28 29  1  0
 29 30  1  0
 30 31  1  0
 26 32  1  0
 32 33  2  0
 15 34  1  0
  2 35  1  0
 35 36  2  0
 35 37  1  0
 10  5  1  0
 32 16  1  0
 34  8  1  0
 25 19  1  0
 31 29  1  0
  1 38  1  0
  1 39  1  0
  1 40  1  0
  3 41  1  0
  3 42  1  0
  3 43  1  0
  6 44  1  0
  7 45  1  0
 10 46  1  0
 14 47  1  0
 20 48  1  0
 23 49  1  0
 24 50  1  0
 27 51  1  0
 27 52  1  0
 28 53  1  0
 28 54  1  0
 29 55  1  0
 30 56  1  0
 30 57  1  0
 31 58  1  0
 31 59  1  0
 34 60  1  0
M  CHG  3  14   1  18  -1  37  -1
M  END
>  <meeko>  (7) 
{"is_sidechain": [false], "free_energy": -7.825, "intermolecular_energy": -11.183, "internal_energy": -0.864}

$$$$
LIB_KRGWFTJXWQZJML__M_PUB_ALL__e8__s20260927
     RDKit          3D

 60 64  0  0  0  0  0  0  0  0999 V2000
    8.8860  -14.6630   -2.3110 C   0  0  0  0  0  0  0  0  0  0  0  0
    9.4900  -13.6170   -3.2540 C   0  0  0  0  0  0  0  0  0  0  0  0
   10.3180  -14.3420   -4.3220 C   0  0  0  0  0  0  0  0  0  0  0  0
    8.4070  -12.9540   -3.9930 O   0  0  0  0  0  0  0  0  0  0  0  0
    7.2740  -12.7460   -3.2650 C   0  0  0  0  0  0  0  0  0  0  0  0
    7.1940  -11.6430   -2.4180 C   0  0  0  0  0  0  0  0  0  0  0  0
    6.0560  -11.4480   -1.6340 C   0  0  0  0  0  0  0  0  0  0  0  0
    4.9720  -12.3270   -1.7240 C   0  0  0  0  0  0  0  0  0  0  0  0
    5.0570  -13.3760   -2.6270 C   0  0  0  0  0  0  0  0  0  0  0  0
    6.1920  -13.6000   -3.4110 C   0  0  0  0  0  0  0  0  0  0  0  0
    3.6700  -14.4230   -2.7930 S   0  0  0  0  0  0  0  0  0  0  0  0
    4.1280  -15.7570   -2.4600 O   0  0  0  0  0  0  0  0  0  0  0  0
    3.1600  -14.1540   -4.1250 O   0  0  0  0  0  0  0  0  0  0  0  0
    2.6500  -13.9020   -1.7110 N   0  0  0  0  0  0  0  0  0  0  0  0
    2.8250  -12.8650   -0.9420 C   0  0  0  0  0  0  0  0  0  0  0  0
    1.6100  -12.5080    0.0510 C   0  0  0  0  0  0  0  0  0  0  0  0
    0.9120  -11.3600   -0.1390 C   0  0  0  0  0  0  0  0  0  0  0  0
    1.1480  -10.5180   -1.0600 O   0  0  0  0  0  0  0  0  0  0  0  0
   -0.2040  -11.1360    0.8480 C   0  0  0  0  0  0  0  0  0  0  0  0
   -1.0030   -9.9750    0.7350 C   0  0  0  0  0  0  0  0  0  0  0  0
   -2.0430   -9.7290    1.6190 C   0  0  0  0  0  0  0  0  0  0  0  0
   -2.7840   -8.6200    1.4900 F   0  0  0  0  0  0  0  0  0  0  0  0
   -2.3250  -10.6190    2.6380 C   0  0  0  0  0  0  0  0  0  0  0  0
   -1.5520  -11.7730    2.7720 C   0  0  0  0  0  0  0  0  0  0  0  0
   -0.4880  -12.0460    1.8890 C   0  0  0  0  0  0  0  0  0  0  0  0
    0.3070  -13.2230    2.0240 N   0  0  0  0  0  0  0  0  0  0  0  0
    0.0850  -14.1730    3.1160 C   0  0  0  0  0  0  0  0  0  0  0  0
   -0.8920  -15.3040    2.7550 C   0  0  0  0  0  0  0  0  0  0  0  0
   -2.1020  -15.3410    3.6440 C   0  0  0  0  0  0  0  0  0  0  0  0
   -3.4630  -14.9860    3.1030 C   0  0  0  0  0  0  0  0  0  0  0  0
   -3.1420  -16.4130    3.4460 C   0  0  0  0  0  0  0  0  0  0  0  0
    1.3430  -13.4810    1.1440 C   0  0  0  0  0  0  0  0  0  0  0  0
    2.0690  -14.4800    1.2230 O   0  0  0  0  0  0  0  0  0  0  0  0
    3.8990  -12.1010   -0.9320 N   0  0  0  0  0  0  0  0  0  0  0  0
   10.4400  -12.6160   -2.4920 C   0  0  0  0  0  0  0  0  0  0  0  0
   10.4890  -12.7380   -1.2320 O   0  0  0  0  0  0  0  0  0  0  0  0
   11.0930  -11.8130   -3.2240 O   0  0  0  0  0  0  0  0  0  0  0  0
    9.0606  -14.3606   -1.2679 H   0  0  0  0  0  0  0  0  0  0  0  0
    7.8041  -14.7405   -2.4941 H   0  0  0  0  0  0  0  0  0  0  0  0
    9.3597  -15.6388   -2.4941 H   0  0  0  0  0  0  0  0  0  0  0  0
   11.0593  -14.9911   -3.8331 H   0  0  0  0  0  0  0  0  0  0  0  0
    9.6526  -14.9532   -4.9495 H   0  0  0  0  0  0  0  0  0  0  0  0
   10.8359  -13.6017   -4.9495 H   0  0  0  0  0  0  0  0  0  0  0  0
    8.0270  -10.9264   -2.3671 H   0  0  0  0  0  0  0  0  0  0  0  0
    6.0113  -10.5960   -0.9396 H   0  0  0  0  0  0  0  0  0  0  0  0
    6.2259  -14.4343   -4.1271 H   0  0  0  0  0  0  0  0  0  0  0  0
    1.7400  -14.3650   -1.5780 H   0  0  0  0  0  0  0  0  0  0  0  0
   -0.7959   -9.2534   -0.0690 H   0  0  0  0  0  0  0  0  0  0  0  0
   -3.1509  -10.4196    3.3367 H   0  0  0  0  0  0  0  0  0  0  0  0
   -1.7772  -12.4827    3.5817 H   0  0  0  0  0  0  0  0  0  0  0  0
    1.0515  -14.6216    3.3893 H   0  0  0  0  0  0  0  0  0  0  0  0
   -0.3637  -13.6107    3.9482 H   0  0  0  0  0  0  0  0  0  0  0  0
   -1.2246  -15.1615    1.7162 H   0  0  0  0  0  0  0  0  0  0  0  0
   -0.3569  -16.2558    2.8882 H   0  0  0  0  0  0  0  0  0  0  0  0
   -1.4886  -14.9896    4.4868 H   0  0  0  0  0  0  0  0  0  0  0  0
   -4.1703  -14.4170    3.7243 H   0  0  0  0  0  0  0  0  0  0  0  0
   -3.8317  -14.4661    2.2065 H   0  0  0  0  0  0  0  0  0  0  0  0
   -3.6145  -16.8883    4.3183 H   0  0  0  0  0  0  0  0  0  0  0  0
   -3.1787  -17.3697    2.9043 H   0  0  0  0  0  0  0  0  0  0  0  0
    3.8970  -11.3250   -0.2610 H   0  0  0  0  0  0  0  0  0  0  0  0
  1  2  1  0
  2  3  1  0
  2  4  1  0
  4  5  1  0
  5  6  2  0
  6  7  1  0
  7  8  2  0
  8  9  1  0
  9 10  2  0
  9 11  1  0
 11 12  2  0
 11 13  2  0
 11 14  1  0
 14 15  2  0
 15 16  1  0
 16 17  2  0
 17 18  1  0
 17 19  1  0
 19 20  2  0
 20 21  1  0
 21 22  1  0
 21 23  2  0
 23 24  1  0
 24 25  2  0
 25 26  1  0
 26 27  1  0
 27 28  1  0
 28 29  1  0
 29 30  1  0
 30 31  1  0
 26 32  1  0
 32 33  2  0
 15 34  1  0
  2 35  1  0
 35 36  2  0
 35 37  1  0
 10  5  1  0
 32 16  1  0
 34  8  1  0
 25 19  1  0
 31 29  1  0
  1 38  1  0
  1 39  1  0
  1 40  1  0
  3 41  1  0
  3 42  1  0
  3 43  1  0
  6 44  1  0
  7 45  1  0
 10 46  1  0
 14 47  1  0
 20 48  1  0
 23 49  1  0
 24 50  1  0
 27 51  1  0
 27 52  1  0
 28 53  1  0
 28 54  1  0
 29 55  1  0
 30 56  1  0
 30 57  1  0
 31 58  1  0
 31 59  1  0
 34 60  1  0
M  CHG  3  14   1  18  -1  37  -1
M  END
>  <meeko>  (8) 
{"is_sidechain": [false], "free_energy": -7.803, "intermolecular_energy": -10.665, "internal_energy": -1.351}

$$$$
LIB_KRGWFTJXWQZJML__M_PUB_ALL__e8__s20260927
     RDKit          3D

 60 64  0  0  0  0  0  0  0  0999 V2000
   -1.7430  -10.8590    0.1920 C   0  0  0  0  0  0  0  0  0  0  0  0
   -1.6470  -10.9340    1.7200 C   0  0  0  0  0  0  0  0  0  0  0  0
   -3.0020  -11.3920    2.2720 C   0  0  0  0  0  0  0  0  0  0  0  0
   -0.7030  -11.9980    2.0900 O   0  0  0  0  0  0  0  0  0  0  0  0
    0.1920  -12.3200    1.1140 C   0  0  0  0  0  0  0  0  0  0  0  0
    1.2890  -11.4920    0.8870 C   0  0  0  0  0  0  0  0  0  0  0  0
    2.1850  -11.7900   -0.1410 C   0  0  0  0  0  0  0  0  0  0  0  0
    2.0180  -12.9400   -0.9180 C   0  0  0  0  0  0  0  0  0  0  0  0
    0.9550  -13.7790   -0.6200 C   0  0  0  0  0  0  0  0  0  0  0  0
    0.0360  -13.4940    0.3930 C   0  0  0  0  0  0  0  0  0  0  0  0
    0.7980  -15.2550   -1.5410 S   0  0  0  0  0  0  0  0  0  0  0  0
   -0.4990  -15.1930   -2.1840 O   0  0  0  0  0  0  0  0  0  0  0  0
    1.0760  -16.3150   -0.5900 O   0  0  0  0  0  0  0  0  0  0  0  0
    1.9510  -15.1760   -2.6120 N   0  0  0  0  0  0  0  0  0  0  0  0
    2.8440  -14.2310   -2.6970 C   0  0  0  0  0  0  0  0  0  0  0  0
    3.9500  -14.4050   -3.8530 C   0  0  0  0  0  0  0  0  0  0  0  0
    3.9900  -13.5100   -4.8730 C   0  0  0  0  0  0  0  0  0  0  0  0
    3.2020  -12.5220   -4.9950 O   0  0  0  0  0  0  0  0  0  0  0  0
    5.0690  -13.7710   -5.8920 C   0  0  0  0  0  0  0  0  0  0  0  0
    5.2080  -12.8940   -6.9910 C   0  0  0  0  0  0  0  0  0  0  0  0
    6.1890  -13.0940   -7.9510 C   0  0  0  0  0  0  0  0  0  0  0  0
    6.2970  -12.2470   -8.9840 F   0  0  0  0  0  0  0  0  0  0  0  0
    7.0600  -14.1630   -7.8550 C   0  0  0  0  0  0  0  0  0  0  0  0
    6.9440  -15.0430   -6.7800 C   0  0  0  0  0  0  0  0  0  0  0  0
    5.9550  -14.8650   -5.7910 C   0  0  0  0  0  0  0  0  0  0  0  0
    5.8320  -15.7660   -4.6920 N   0  0  0  0  0  0  0  0  0  0  0  0
    6.6940  -16.9430   -4.5680 C   0  0  0  0  0  0  0  0  0  0  0  0
    7.9890  -16.6750   -3.7850 C   0  0  0  0  0  0  0  0  0  0  0  0
    7.9360  -17.1750   -2.3700 C   0  0  0  0  0  0  0  0  0  0  0  0
    9.1830  -17.6670   -1.6810 C   0  0  0  0  0  0  0  0  0  0  0  0
    8.5620  -16.3630   -1.2660 C   0  0  0  0  0  0  0  0  0  0  0  0
    4.8610  -15.5730   -3.7260 C   0  0  0  0  0  0  0  0  0  0  0  0
    4.7040  -16.3290   -2.7580 O   0  0  0  0  0  0  0  0  0  0  0  0
    2.9080  -13.1760   -1.9100 N   0  0  0  0  0  0  0  0  0  0  0  0
   -1.3030   -9.5340    2.3570 C   0  0  0  0  0  0  0  0  0  0  0  0
   -1.6830   -9.3540    3.5520 O   0  0  0  0  0  0  0  0  0  0  0  0
   -0.6410   -8.7420    1.6210 O   0  0  0  0  0  0  0  0  0  0  0  0
   -2.5806  -10.2046   -0.0911 H   0  0  0  0  0  0  0  0  0  0  0  0
   -0.8057  -10.4515   -0.2147 H   0  0  0  0  0  0  0  0  0  0  0  0
   -1.9116  -11.8670   -0.2147 H   0  0  0  0  0  0  0  0  0  0  0  0
   -2.9723  -11.3820    3.3716 H   0  0  0  0  0  0  0  0  0  0  0  0
   -3.7905  -10.7105    1.9202 H   0  0  0  0  0  0  0  0  0  0  0  0
   -3.2153  -12.4122    1.9202 H   0  0  0  0  0  0  0  0  0  0  0  0
    1.4489  -10.6046    1.5170 H   0  0  0  0  0  0  0  0  0  0  0  0
    3.0295  -11.1143   -0.3414 H   0  0  0  0  0  0  0  0  0  0  0  0
   -0.7915  -14.1845    0.6133 H   0  0  0  0  0  0  0  0  0  0  0  0
    2.0730  -15.9230   -3.3110 H   0  0  0  0  0  0  0  0  0  0  0  0
    4.5256  -12.0367   -7.0871 H   0  0  0  0  0  0  0  0  0  0  0  0
    7.8364  -14.3177   -8.6187 H   0  0  0  0  0  0  0  0  0  0  0  0
    7.6378  -15.8930   -6.7018 H   0  0  0  0  0  0  0  0  0  0  0  0
    6.1313  -17.7336   -4.0500 H   0  0  0  0  0  0  0  0  0  0  0  0
    6.9870  -17.2381   -5.5864 H   0  0  0  0  0  0  0  0  0  0  0  0
    8.8208  -17.1756   -4.3022 H   0  0  0  0  0  0  0  0  0  0  0  0
    8.1269  -15.5845   -3.7426 H   0  0  0  0  0  0  0  0  0  0  0  0
    6.9400  -17.6001   -2.5629 H   0  0  0  0  0  0  0  0  0  0  0  0
    9.1336  -18.5376   -1.0104 H   0  0  0  0  0  0  0  0  0  0  0  0
   10.1833  -17.9804   -2.0145 H   0  0  0  0  0  0  0  0  0  0  0  0
    8.0583  -16.2795   -0.2917 H   0  0  0  0  0  0  0  0  0  0  0  0
    8.9201  -15.3273   -1.1702 H   0  0  0  0  0  0  0  0  0  0  0  0
    3.6630  -12.5080   -2.1060 H   0  0  0  0  0  0  0  0  0  0  0  0
  1  2  1  0
  2  3  1  0
  2  4  1  0
  4  5  1  0
  5  6  2  0
  6  7  1  0
  7  8  2  0
  8  9  1  0
  9 10  2  0
  9 11  1  0
 11 12  2  0
 11 13  2  0
 11 14  1  0
 14 15  2  0
 15 16  1  0
 16 17  2  0
 17 18  1  0
 17 19  1  0
 19 20  2  0
 20 21  1  0
 21 22  1  0
 21 23  2  0
 23 24  1  0
 24 25  2  0
 25 26  1  0
 26 27  1  0
 27 28  1  0
 28 29  1  0
 29 30  1  0
 30 31  1  0
 26 32  1  0
 32 33  2  0
 15 34  1  0
  2 35  1  0
 35 36  2  0
 35 37  1  0
 10  5  1  0
 32 16  1  0
 34  8  1  0
 25 19  1  0
 31 29  1  0
  1 38  1  0
  1 39  1  0
  1 40  1  0
  3 41  1  0
  3 42  1  0
  3 43  1  0
  6 44  1  0
  7 45  1  0
 10 46  1  0
 14 47  1  0
 20 48  1  0
 23 49  1  0
 24 50  1  0
 27 51  1  0
 27 52  1  0
 28 53  1  0
 28 54  1  0
 29 55  1  0
 30 56  1  0
 30 57  1  0
 31 58  1  0
 31 59  1  0
 34 60  1  0
M  CHG  3  14   1  18  -1  37  -1
M  END
>  <meeko>  (9) 
{"is_sidechain": [false], "free_energy": -7.73, "intermolecular_energy": -10.762, "internal_energy": -1.15}

$$$$
