LIB_JRPKYTRZLLKZAQ__M_PUB_ALL__e8__s20260927
     RDKit          3D

 50 56  0  0  0  0  0  0  0  0999 V2000
    5.8270  -17.0730   -3.6270 C   0  0  0  0  0  0  0  0  0  0  0  0
    6.5370  -16.1160   -4.5280 C   0  0  0  0  0  0  0  0  0  0  0  0
    6.1810  -15.8950   -5.8040 C   0  0  0  0  0  0  0  0  0  0  0  0
    6.9240  -14.9040   -6.6470 C   0  0  0  0  0  0  0  0  0  0  0  0
    6.3220  -14.4510   -7.6210 O   0  0  0  0  0  0  0  0  0  0  0  0
    8.3090  -14.5840   -6.1220 C   0  0  0  0  0  0  0  0  0  0  0  0
    9.3980  -14.4020   -6.9180 C   0  0  0  0  0  0  0  0  0  0  0  0
    9.3730  -14.2840   -8.1920 O   0  0  0  0  0  0  0  0  0  0  0  0
   10.7890  -14.4170   -6.0350 C   0  0  0  0  0  0  0  0  0  0  0  0
   12.0260  -14.9680   -6.5270 C   0  0  0  0  0  0  0  0  0  0  0  0
   12.2450  -15.6310   -7.6190 O   0  0  0  0  0  0  0  0  0  0  0  0
   13.1020  -14.7920   -5.6030 C   0  0  0  0  0  0  0  0  0  0  0  0
   13.1340  -14.1620   -4.3030 C   0  0  0  0  0  0  0  0  0  0  0  0
   14.2270  -14.2700   -3.6180 O   0  0  0  0  0  0  0  0  0  0  0  0
   11.8720  -13.5690   -3.8370 C   0  0  0  0  0  0  0  0  0  0  0  0
   11.6000  -12.8240   -2.5640 C   0  0  0  0  0  0  0  0  0  0  0  0
   12.6230  -11.9080   -1.7940 C   0  0  0  0  0  0  0  0  0  0  0  0
   13.4430  -11.1110   -2.3600 O   0  0  0  0  0  0  0  0  0  0  0  0
   12.4500  -11.9630   -0.4570 C   0  0  0  0  0  0  0  0  0  0  0  0
   11.2880  -12.5820    0.2220 C   0  0  0  0  0  0  0  0  0  0  0  0
   11.4530  -13.0440    1.3520 O   0  0  0  0  0  0  0  0  0  0  0  0
   10.0110  -12.5180   -0.5930 C   0  0  0  0  0  0  0  0  0  0  0  0
    8.6990  -12.3270    0.0360 C   0  0  0  0  0  0  0  0  0  0  0  0
    8.6070  -12.1230    1.3090 O   0  0  0  0  0  0  0  0  0  0  0  0
    7.5250  -12.3110   -0.8810 C   0  0  0  0  0  0  0  0  0  0  0  0
    6.0520  -12.0440   -0.5580 C   0  0  0  0  0  0  0  0  0  0  0  0
    5.5160  -11.8680    0.6050 O   0  0  0  0  0  0  0  0  0  0  0  0
    5.1480  -11.9660   -1.6460 C   0  0  0  0  0  0  0  0  0  0  0  0
    5.5140  -12.1080   -2.9710 C   0  0  0  0  0  0  0  0  0  0  0  0
    4.5330  -11.9220   -4.0810 C   0  0  0  0  0  0  0  0  0  0  0  0
    6.8440  -12.3830   -3.2450 C   0  0  0  0  0  0  0  0  0  0  0  0
    7.8460  -12.5880   -2.2710 C   0  0  0  0  0  0  0  0  0  0  0  0
    9.1600  -13.0050   -2.7710 C   0  0  0  0  0  0  0  0  0  0  0  0
   10.2650  -12.7550   -1.9810 C   0  0  0  0  0  0  0  0  0  0  0  0
    9.4520  -13.6840   -4.0330 C   0  0  0  0  0  0  0  0  0  0  0  0
    8.4160  -14.5530   -4.6740 C   0  0  0  0  0  0  0  0  0  0  0  0
    7.6110  -15.3440   -3.9350 C   0  0  0  0  0  0  0  0  0  0  0  0
   10.7220  -13.8620   -4.6530 C   0  0  0  0  0  0  0  0  0  0  0  0
    6.0254  -16.8055   -2.5786 H   0  0  0  0  0  0  0  0  0  0  0  0
    4.7451  -17.0239   -3.8195 H   0  0  0  0  0  0  0  0  0  0  0  0
    6.1877  -18.0942   -3.8195 H   0  0  0  0  0  0  0  0  0  0  0  0
    5.3337  -16.4482   -6.2354 H   0  0  0  0  0  0  0  0  0  0  0  0
   14.0655  -15.2045   -5.9368 H   0  0  0  0  0  0  0  0  0  0  0  0
   13.2300  -11.5148    0.1760 H   0  0  0  0  0  0  0  0  0  0  0  0
    4.0872  -11.7806   -1.4218 H   0  0  0  0  0  0  0  0  0  0  0  0
    3.5345  -11.7327   -3.6600 H   0  0  0  0  0  0  0  0  0  0  0  0
    4.8382  -11.0657   -4.7004 H   0  0  0  0  0  0  0  0  0  0  0  0
    4.5035  -12.8306   -4.7004 H   0  0  0  0  0  0  0  0  0  0  0  0
    7.1423  -12.4465   -4.3019 H   0  0  0  0  0  0  0  0  0  0  0  0
    7.7747  -15.4050   -2.8490 H   0  0  0  0  0  0  0  0  0  0  0  0
  1  2  1  0
  2  3  2  0
  3  4  1  0
  4  5  2  0
  4  6  1  0
  6  7  2  0
  7  8  1  0
  7  9  1  0
  9 10  1  0
 10 11  1  0
 10 12  2  0
 12 13  1  0
 13 14  1  0
 13 15  2  0
 15 16  1  0
 16 17  1  0
 17 18  1  0
 17 19  2  0
 19 20  1  0
 20 21  2  0
 20 22  1  0
 22 23  2  0
 23 24  1  0
 23 25  1  0
 25 26  2  0
 26 27  1  0
 26 28  1  0
 28 29  2  0
 29 30  1  0
 29 31  1  0
 31 32  2  0
 32 33  1  0
 33 34  1  0
 33 35  2  0
 35 36  1  0
 36 37  2  0
 35 38  1  0
 37  2  1  0
 36  6  1  0
 38  9  2  0
 38 15  1  0
 34 16  2  0
 34 22  1  0
 32 25  1  0
  1 39  1  0
  1 40  1  0
  1 41  1  0
  3 42  1  0
 12 43  1  0
 19 44  1  0
 28 45  1  0
 30 46  1  0
 30 47  1  0
 30 48  1  0
 31 49  1  0
 37 50  1  0
M  CHG  6   8  -1  11  -1  14  -1  18  -1  24  -1  27  -1
M  END
>  <meeko>  (1) 
{"is_sidechain": [false], "free_energy": -10.744, "intermolecular_energy": -10.744, "internal_energy": 0.0}

$$$$
LIB_JRPKYTRZLLKZAQ__M_PUB_ALL__e8__s20260927
     RDKit          3D

 50 56  0  0  0  0  0  0  0  0999 V2000
   -3.6740  -14.1700    1.9530 C   0  0  0  0  0  0  0  0  0  0  0  0
   -2.5390  -13.2010    2.0160 C   0  0  0  0  0  0  0  0  0  0  0  0
   -2.6140  -12.0090    2.6300 C   0  0  0  0  0  0  0  0  0  0  0  0
   -1.4290  -11.0930    2.6760 C   0  0  0  0  0  0  0  0  0  0  0  0
   -1.4240  -10.2470    3.5710 O   0  0  0  0  0  0  0  0  0  0  0  0
   -0.3910  -11.3970    1.6150 C   0  0  0  0  0  0  0  0  0  0  0  0
    0.2990  -10.4420    0.9330 C   0  0  0  0  0  0  0  0  0  0  0  0
    0.3130   -9.1940    1.2170 O   0  0  0  0  0  0  0  0  0  0  0  0
    1.0780  -11.0860   -0.3670 C   0  0  0  0  0  0  0  0  0  0  0  0
    1.2450  -10.3810   -1.6120 C   0  0  0  0  0  0  0  0  0  0  0  0
    0.7410   -9.2440   -1.9780 O   0  0  0  0  0  0  0  0  0  0  0  0
    2.0200  -11.1230   -2.5560 C   0  0  0  0  0  0  0  0  0  0  0  0
    2.6420  -12.4230   -2.4490 C   0  0  0  0  0  0  0  0  0  0  0  0
    3.1730  -12.9160   -3.5210 O   0  0  0  0  0  0  0  0  0  0  0  0
    2.4960  -13.1090   -1.1560 C   0  0  0  0  0  0  0  0  0  0  0  0
    3.0510  -14.4350   -0.7310 C   0  0  0  0  0  0  0  0  0  0  0  0
    4.4140  -15.0610   -1.2110 C   0  0  0  0  0  0  0  0  0  0  0  0
    5.4920  -14.4000   -1.3760 O   0  0  0  0  0  0  0  0  0  0  0  0
    4.3510  -16.4060   -1.3050 C   0  0  0  0  0  0  0  0  0  0  0  0
    3.2470  -17.2420   -0.7800 C   0  0  0  0  0  0  0  0  0  0  0  0
    3.0090  -18.3130   -1.3410 O   0  0  0  0  0  0  0  0  0  0  0  0
    2.5740  -16.6480    0.4430 C   0  0  0  0  0  0  0  0  0  0  0  0
    2.0700  -17.4880    1.5350 C   0  0  0  0  0  0  0  0  0  0  0  0
    2.2660  -18.7660    1.5220 O   0  0  0  0  0  0  0  0  0  0  0  0
    1.4050  -16.7750    2.6620 C   0  0  0  0  0  0  0  0  0  0  0  0
    0.8640  -17.3430    3.9770 C   0  0  0  0  0  0  0  0  0  0  0  0
    0.7920  -18.5840    4.3330 O   0  0  0  0  0  0  0  0  0  0  0  0
    0.3860  -16.4210    4.9390 C   0  0  0  0  0  0  0  0  0  0  0  0
    0.3850  -15.0490    4.7670 C   0  0  0  0  0  0  0  0  0  0  0  0
   -0.0440  -14.1210    5.8550 C   0  0  0  0  0  0  0  0  0  0  0  0
    0.8480  -14.5530    3.5590 C   0  0  0  0  0  0  0  0  0  0  0  0
    1.2650  -15.3430    2.4650 C   0  0  0  0  0  0  0  0  0  0  0  0
    1.5850  -14.6210    1.2290 C   0  0  0  0  0  0  0  0  0  0  0  0
    2.4310  -15.2290    0.3220 C   0  0  0  0  0  0  0  0  0  0  0  0
    1.0960  -13.3040    0.8220 C   0  0  0  0  0  0  0  0  0  0  0  0
   -0.2260  -12.8090    1.3160 C   0  0  0  0  0  0  0  0  0  0  0  0
   -1.2810  -13.6400    1.4460 C   0  0  0  0  0  0  0  0  0  0  0  0
    1.5900  -12.4800   -0.2310 C   0  0  0  0  0  0  0  0  0  0  0  0
   -3.9859  -14.4363    2.9737 H   0  0  0  0  0  0  0  0  0  0  0  0
   -4.5191  -13.7106    1.4195 H   0  0  0  0  0  0  0  0  0  0  0  0
   -3.3528  -15.0767    1.4195 H   0  0  0  0  0  0  0  0  0  0  0  0
   -3.5571  -11.7012    3.1051 H   0  0  0  0  0  0  0  0  0  0  0  0
    2.1674  -10.6218   -3.5240 H   0  0  0  0  0  0  0  0  0  0  0  0
    5.1824  -16.9200   -1.8096 H   0  0  0  0  0  0  0  0  0  0  0  0
   -0.0100  -16.8217    5.8838 H   0  0  0  0  0  0  0  0  0  0  0  0
    0.1678  -14.5791    6.8324 H   0  0  0  0  0  0  0  0  0  0  0  0
    0.5073  -13.1732    5.7671 H   0  0  0  0  0  0  0  0  0  0  0  0
   -1.1232  -13.9270    5.7671 H   0  0  0  0  0  0  0  0  0  0  0  0
    0.8944  -13.4601    3.4431 H   0  0  0  0  0  0  0  0  0  0  0  0
   -1.1832  -14.6825    1.1090 H   0  0  0  0  0  0  0  0  0  0  0  0
  1  2  1  0
  2  3  2  0
  3  4  1  0
  4  5  2  0
  4  6  1  0
  6  7  2  0
  7  8  1  0
  7  9  1  0
  9 10  1  0
 10 11  1  0
 10 12  2  0
 12 13  1  0
 13 14  1  0
 13 15  2  0
 15 16  1  0
 16 17  1  0
 17 18  1  0
 17 19  2  0
 19 20  1  0
 20 21  2  0
 20 22  1  0
 22 23  2  0
 23 24  1  0
 23 25  1  0
 25 26  2  0
 26 27  1  0
 26 28  1  0
 28 29  2  0
 29 30  1  0
 29 31  1  0
 31 32  2  0
 32 33  1  0
 33 34  1  0
 33 35  2  0
 35 36  1  0
 36 37  2  0
 35 38  1  0
 37  2  1  0
 36  6  1  0
 38  9  2  0
 38 15  1  0
 34 16  2  0
 34 22  1  0
 32 25  1  0
  1 39  1  0
  1 40  1  0
  1 41  1  0
  3 42  1  0
 12 43  1  0
 19 44  1  0
 28 45  1  0
 30 46  1  0
 30 47  1  0
 30 48  1  0
 31 49  1  0
 37 50  1  0
M  CHG  6   8  -1  11  -1  14  -1  18  -1  24  -1  27  -1
M  END
>  <meeko>  (2) 
{"is_sidechain": [false], "free_energy": -10.604, "intermolecular_energy": -10.604, "internal_energy": 0.0}

$$$$
LIB_JRPKYTRZLLKZAQ__M_PUB_ALL__e8__s20260927
     RDKit          3D

 50 56  0  0  0  0  0  0  0  0999 V2000
    5.6420  -11.0870   -2.2130 C   0  0  0  0  0  0  0  0  0  0  0  0
    6.7610  -11.7280   -1.4590 C   0  0  0  0  0  0  0  0  0  0  0  0
    6.7790  -11.8540   -0.1230 C   0  0  0  0  0  0  0  0  0  0  0  0
    7.9240  -12.5280    0.5690 C   0  0  0  0  0  0  0  0  0  0  0  0
    7.7000  -12.9740    1.6950 O   0  0  0  0  0  0  0  0  0  0  0  0
    9.1840  -12.5890   -0.2700 C   0  0  0  0  0  0  0  0  0  0  0  0
   10.4380  -12.4100    0.2300 C   0  0  0  0  0  0  0  0  0  0  0  0
   10.7390  -12.3610    1.4720 O   0  0  0  0  0  0  0  0  0  0  0  0
   11.5340  -12.1950   -0.9800 C   0  0  0  0  0  0  0  0  0  0  0  0
   12.6690  -11.3160   -0.8640 C   0  0  0  0  0  0  0  0  0  0  0  0
   12.9600  -10.4810    0.0840 O   0  0  0  0  0  0  0  0  0  0  0  0
   13.5100  -11.3610   -2.0190 C   0  0  0  0  0  0  0  0  0  0  0  0
   13.3990  -12.1330   -3.2350 C   0  0  0  0  0  0  0  0  0  0  0  0
   14.2390  -11.8700   -4.1840 O   0  0  0  0  0  0  0  0  0  0  0  0
   12.2570  -13.0560   -3.3170 C   0  0  0  0  0  0  0  0  0  0  0  0
   11.8950  -14.0050   -4.4210 C   0  0  0  0  0  0  0  0  0  0  0  0
   12.9110  -14.7560   -5.3610 C   0  0  0  0  0  0  0  0  0  0  0  0
   14.0150  -15.2630   -4.9700 O   0  0  0  0  0  0  0  0  0  0  0  0
   12.4240  -14.9200   -6.6080 C   0  0  0  0  0  0  0  0  0  0  0  0
   11.0190  -14.6780   -7.0080 C   0  0  0  0  0  0  0  0  0  0  0  0
   10.7940  -14.3440   -8.1730 O   0  0  0  0  0  0  0  0  0  0  0  0
   10.0250  -14.9240   -5.8890 C   0  0  0  0  0  0  0  0  0  0  0  0
    8.6960  -15.4910   -6.1440 C   0  0  0  0  0  0  0  0  0  0  0  0
    8.3660  -15.8780   -7.3330 O   0  0  0  0  0  0  0  0  0  0  0  0
    7.8110  -15.6540   -4.9570 C   0  0  0  0  0  0  0  0  0  0  0  0
    6.4210  -16.2910   -4.8710 C   0  0  0  0  0  0  0  0  0  0  0  0
    5.6920  -16.7370   -5.8410 O   0  0  0  0  0  0  0  0  0  0  0  0
    5.8440  -16.4300   -3.5840 C   0  0  0  0  0  0  0  0  0  0  0  0
    6.4580  -16.0330   -2.4110 C   0  0  0  0  0  0  0  0  0  0  0  0
    5.8420  -16.2910   -1.0760 C   0  0  0  0  0  0  0  0  0  0  0  0
    7.7010  -15.4280   -2.5090 C   0  0  0  0  0  0  0  0  0  0  0  0
    8.3640  -15.1300   -3.7200 C   0  0  0  0  0  0  0  0  0  0  0  0
    9.6070  -14.3610   -3.6060 C   0  0  0  0  0  0  0  0  0  0  0  0
   10.5250  -14.4540   -4.6340 C   0  0  0  0  0  0  0  0  0  0  0  0
   10.0010  -13.4720   -2.5130 C   0  0  0  0  0  0  0  0  0  0  0  0
    8.9560  -12.7860   -1.6910 C   0  0  0  0  0  0  0  0  0  0  0  0
    7.8280  -12.3050   -2.2520 C   0  0  0  0  0  0  0  0  0  0  0  0
   11.2930  -12.9280   -2.2560 C   0  0  0  0  0  0  0  0  0  0  0  0
    4.9131  -10.6695   -1.5028 H   0  0  0  0  0  0  0  0  0  0  0  0
    6.0409  -10.2804   -2.8457 H   0  0  0  0  0  0  0  0  0  0  0  0
    5.1480  -11.8391   -2.8457 H   0  0  0  0  0  0  0  0  0  0  0  0
    5.9426  -11.4574    0.4713 H   0  0  0  0  0  0  0  0  0  0  0  0
   14.3867  -10.6981   -1.9745 H   0  0  0  0  0  0  0  0  0  0  0  0
   13.1232  -15.2591   -7.3865 H   0  0  0  0  0  0  0  0  0  0  0  0
    4.8439  -16.8826   -3.5142 H   0  0  0  0  0  0  0  0  0  0  0  0
    6.5462  -15.9961   -0.2841 H   0  0  0  0  0  0  0  0  0  0  0  0
    4.9160  -15.7051   -0.9801 H   0  0  0  0  0  0  0  0  0  0  0  0
    5.6099  -17.3619   -0.9801 H   0  0  0  0  0  0  0  0  0  0  0  0
    8.2103  -15.1593   -1.5718 H   0  0  0  0  0  0  0  0  0  0  0  0
    7.7143  -12.3520   -3.3451 H   0  0  0  0  0  0  0  0  0  0  0  0
  1  2  1  0
  2  3  2  0
  3  4  1  0
  4  5  2  0
  4  6  1  0
  6  7  2  0
  7  8  1  0
  7  9  1  0
  9 10  1  0
 10 11  1  0
 10 12  2  0
 12 13  1  0
 13 14  1  0
 13 15  2  0
 15 16  1  0
 16 17  1  0
 17 18  1  0
 17 19  2  0
 19 20  1  0
 20 21  2  0
 20 22  1  0
 22 23  2  0
 23 24  1  0
 23 25  1  0
 25 26  2  0
 26 27  1  0
 26 28  1  0
 28 29  2  0
 29 30  1  0
 29 31  1  0
 31 32  2  0
 32 33  1  0
 33 34  1  0
 33 35  2  0
 35 36  1  0
 36 37  2  0
 35 38  1  0
 37  2  1  0
 36  6  1  0
 38  9  2  0
 38 15  1  0
 34 16  2  0
 34 22  1  0
 32 25  1  0
  1 39  1  0
  1 40  1  0
  1 41  1  0
  3 42  1  0
 12 43  1  0
 19 44  1  0
 28 45  1  0
 30 46  1  0
 30 47  1  0
 30 48  1  0
 31 49  1  0
 37 50  1  0
M  CHG  6   8  -1  11  -1  14  -1  18  -1  24  -1  27  -1
M  END
>  <meeko>  (3) 
{"is_sidechain": [false], "free_energy": -10.506, "intermolecular_energy": -10.506, "internal_energy": 0.0}

$$$$
LIB_JRPKYTRZLLKZAQ__M_PUB_ALL__e8__s20260927
     RDKit          3D

 50 56  0  0  0  0  0  0  0  0999 V2000
    0.6980  -15.3230    6.1680 C   0  0  0  0  0  0  0  0  0  0  0  0
    1.0800  -15.9100    4.8480 C   0  0  0  0  0  0  0  0  0  0  0  0
    1.3130  -17.2180    4.6570 C   0  0  0  0  0  0  0  0  0  0  0  0
    1.6710  -17.7430    3.3000 C   0  0  0  0  0  0  0  0  0  0  0  0
    1.4650  -18.9420    3.1040 O   0  0  0  0  0  0  0  0  0  0  0  0
    2.1990  -16.6780    2.3610 C   0  0  0  0  0  0  0  0  0  0  0  0
    3.2210  -16.8780    1.4840 C   0  0  0  0  0  0  0  0  0  0  0  0
    3.7370  -18.0130    1.1960 O   0  0  0  0  0  0  0  0  0  0  0  0
    3.7680  -15.4500    0.8730 C   0  0  0  0  0  0  0  0  0  0  0  0
    5.1540  -15.2070    0.5650 C   0  0  0  0  0  0  0  0  0  0  0  0
    6.1860  -15.9520    0.8110 O   0  0  0  0  0  0  0  0  0  0  0  0
    5.3610  -13.9210   -0.0220 C   0  0  0  0  0  0  0  0  0  0  0  0
    4.4220  -12.8710   -0.3470 C   0  0  0  0  0  0  0  0  0  0  0  0
    4.9110  -11.7420   -0.7490 O   0  0  0  0  0  0  0  0  0  0  0  0
    3.0070  -13.1540   -0.0630 C   0  0  0  0  0  0  0  0  0  0  0  0
    1.8090  -12.2900   -0.3180 C   0  0  0  0  0  0  0  0  0  0  0  0
    1.6430  -11.2720   -1.5080 C   0  0  0  0  0  0  0  0  0  0  0  0
    2.0300  -11.4910   -2.7030 O   0  0  0  0  0  0  0  0  0  0  0  0
    0.9240  -10.1860   -1.1520 C   0  0  0  0  0  0  0  0  0  0  0  0
    0.1500  -10.0560    0.1040 C   0  0  0  0  0  0  0  0  0  0  0  0
   -0.0120   -8.9290    0.5740 O   0  0  0  0  0  0  0  0  0  0  0  0
   -0.3790  -11.3800    0.6230 C   0  0  0  0  0  0  0  0  0  0  0  0
   -1.6810  -11.4850    1.2900 C   0  0  0  0  0  0  0  0  0  0  0  0
   -2.4570  -10.4550    1.3790 O   0  0  0  0  0  0  0  0  0  0  0  0
   -2.0650  -12.8410    1.7750 C   0  0  0  0  0  0  0  0  0  0  0  0
   -3.3770  -13.2990    2.4190 C   0  0  0  0  0  0  0  0  0  0  0  0
   -4.3900  -12.5710    2.7570 O   0  0  0  0  0  0  0  0  0  0  0  0
   -3.5300  -14.6840    2.6770 C   0  0  0  0  0  0  0  0  0  0  0  0
   -2.5760  -15.6390    2.3790 C   0  0  0  0  0  0  0  0  0  0  0  0
   -2.8310  -17.0950    2.5870 C   0  0  0  0  0  0  0  0  0  0  0  0
   -1.3810  -15.2040    1.8280 C   0  0  0  0  0  0  0  0  0  0  0  0
   -1.0380  -13.8530    1.6010 C   0  0  0  0  0  0  0  0  0  0  0  0
    0.3320  -13.6010    1.1390 C   0  0  0  0  0  0  0  0  0  0  0  0
    0.5800  -12.4280    0.4530 C   0  0  0  0  0  0  0  0  0  0  0  0
    1.5010  -14.4570    1.3320 C   0  0  0  0  0  0  0  0  0  0  0  0
    1.5740  -15.3760    2.5100 C   0  0  0  0  0  0  0  0  0  0  0  0
    1.1100  -14.9990    3.7200 C   0  0  0  0  0  0  0  0  0  0  0  0
    2.7640  -14.3640    0.6780 C   0  0  0  0  0  0  0  0  0  0  0  0
    1.1040  -15.9468    6.9780 H   0  0  0  0  0  0  0  0  0  0  0  0
    1.1072  -14.3052    6.2489 H   0  0  0  0  0  0  0  0  0  0  0  0
   -0.3984  -15.2849    6.2489 H   0  0  0  0  0  0  0  0  0  0  0  0
    1.2403  -17.9128    5.5067 H   0  0  0  0  0  0  0  0  0  0  0  0
    6.4085  -13.6918   -0.2673 H   0  0  0  0  0  0  0  0  0  0  0  0
    0.9122   -9.3336   -1.8472 H   0  0  0  0  0  0  0  0  0  0  0  0
   -4.4674  -15.0205    3.1440 H   0  0  0  0  0  0  0  0  0  0  0  0
   -2.8687  -17.3103    3.6651 H   0  0  0  0  0  0  0  0  0  0  0  0
   -3.7908  -17.3689    2.1246 H   0  0  0  0  0  0  0  0  0  0  0  0
   -2.0214  -17.6788    2.1246 H   0  0  0  0  0  0  0  0  0  0  0  0
   -0.6433  -15.9696    1.5459 H   0  0  0  0  0  0  0  0  0  0  0  0
    0.7438  -13.9705    3.8546 H   0  0  0  0  0  0  0  0  0  0  0  0
  1  2  1  0
  2  3  2  0
  3  4  1  0
  4  5  2  0
  4  6  1  0
  6  7  2  0
  7  8  1  0
  7  9  1  0
  9 10  1  0
 10 11  1  0
 10 12  2  0
 12 13  1  0
 13 14  1  0
 13 15  2  0
 15 16  1  0
 16 17  1  0
 17 18  1  0
 17 19  2  0
 19 20  1  0
 20 21  2  0
 20 22  1  0
 22 23  2  0
 23 24  1  0
 23 25  1  0
 25 26  2  0
 26 27  1  0
 26 28  1  0
 28 29  2  0
 29 30  1  0
 29 31  1  0
 31 32  2  0
 32 33  1  0
 33 34  1  0
 33 35  2  0
 35 36  1  0
 36 37  2  0
 35 38  1  0
 37  2  1  0
 36  6  1  0
 38  9  2  0
 38 15  1  0
 34 16  2  0
 34 22  1  0
 32 25  1  0
  1 39  1  0
  1 40  1  0
  1 41  1  0
  3 42  1  0
 12 43  1  0
 19 44  1  0
 28 45  1  0
 30 46  1  0
 30 47  1  0
 30 48  1  0
 31 49  1  0
 37 50  1  0
M  CHG  6   8  -1  11  -1  14  -1  18  -1  24  -1  27  -1
M  END
>  <meeko>  (4) 
{"is_sidechain": [false], "free_energy": -10.485, "intermolecular_energy": -10.485, "internal_energy": 0.0}

$$$$
LIB_JRPKYTRZLLKZAQ__M_PUB_ALL__e8__s20260927
     RDKit          3D

 50 56  0  0  0  0  0  0  0  0999 V2000
    9.5080  -13.5820   -9.9420 C   0  0  0  0  0  0  0  0  0  0  0  0
    8.8850  -14.4480   -8.8960 C   0  0  0  0  0  0  0  0  0  0  0  0
    8.0740  -15.4810   -9.1750 C   0  0  0  0  0  0  0  0  0  0  0  0
    7.5010  -16.3250   -8.0780 C   0  0  0  0  0  0  0  0  0  0  0  0
    7.1300  -17.4560   -8.3910 O   0  0  0  0  0  0  0  0  0  0  0  0
    7.5120  -15.6430   -6.7250 C   0  0  0  0  0  0  0  0  0  0  0  0
    6.5040  -15.7430   -5.8160 C   0  0  0  0  0  0  0  0  0  0  0  0
    5.5200  -16.5580   -5.8880 O   0  0  0  0  0  0  0  0  0  0  0  0
    6.6690  -14.6230   -4.6190 C   0  0  0  0  0  0  0  0  0  0  0  0
    5.5470  -13.9750   -3.9900 C   0  0  0  0  0  0  0  0  0  0  0  0
    4.2910  -14.0340   -4.3040 O   0  0  0  0  0  0  0  0  0  0  0  0
    5.9490  -13.1020   -2.9320 C   0  0  0  0  0  0  0  0  0  0  0  0
    7.2620  -12.7910   -2.4150 C   0  0  0  0  0  0  0  0  0  0  0  0
    7.3440  -11.8490   -1.5310 O   0  0  0  0  0  0  0  0  0  0  0  0
    8.3910  -13.4950   -3.0420 C   0  0  0  0  0  0  0  0  0  0  0  0
    9.8500  -13.4130   -2.7060 C   0  0  0  0  0  0  0  0  0  0  0  0
   10.4540  -13.1670   -1.2730 C   0  0  0  0  0  0  0  0  0  0  0  0
    9.9970  -13.6840   -0.2000 O   0  0  0  0  0  0  0  0  0  0  0  0
   11.5950  -12.4480   -1.3180 C   0  0  0  0  0  0  0  0  0  0  0  0
   12.3550  -12.1400   -2.5510 C   0  0  0  0  0  0  0  0  0  0  0  0
   13.0230  -11.1050   -2.5810 O   0  0  0  0  0  0  0  0  0  0  0  0
   12.2210  -13.2070   -3.6210 C   0  0  0  0  0  0  0  0  0  0  0  0
   13.3360  -13.5580   -4.5080 C   0  0  0  0  0  0  0  0  0  0  0  0
   14.4990  -13.0210   -4.3420 O   0  0  0  0  0  0  0  0  0  0  0  0
   13.0570  -14.6040   -5.5320 C   0  0  0  0  0  0  0  0  0  0  0  0
   14.0180  -15.2530   -6.5330 C   0  0  0  0  0  0  0  0  0  0  0  0
   15.2560  -14.9520   -6.7520 O   0  0  0  0  0  0  0  0  0  0  0  0
   13.5190  -16.3200   -7.3200 C   0  0  0  0  0  0  0  0  0  0  0  0
   12.2300  -16.8110   -7.2340 C   0  0  0  0  0  0  0  0  0  0  0  0
   11.7880  -18.0000   -8.0220 C   0  0  0  0  0  0  0  0  0  0  0  0
   11.3640  -16.1920   -6.3480 C   0  0  0  0  0  0  0  0  0  0  0  0
   11.6780  -15.0570   -5.5670 C   0  0  0  0  0  0  0  0  0  0  0  0
   10.5730  -14.4730   -4.7980 C   0  0  0  0  0  0  0  0  0  0  0  0
   10.8850  -13.7160   -3.6860 C   0  0  0  0  0  0  0  0  0  0  0  0
    9.1430  -14.5870   -5.0800 C   0  0  0  0  0  0  0  0  0  0  0  0
    8.6680  -14.7970   -6.4830 C   0  0  0  0  0  0  0  0  0  0  0  0
    9.2650  -14.1800   -7.5230 C   0  0  0  0  0  0  0  0  0  0  0  0
    8.0580  -14.2570   -4.2170 C   0  0  0  0  0  0  0  0  0  0  0  0
   10.0849  -12.7801   -9.4582 H   0  0  0  0  0  0  0  0  0  0  0  0
   10.1780  -14.1887  -10.5690 H   0  0  0  0  0  0  0  0  0  0  0  0
    8.7198  -13.1397  -10.5690 H   0  0  0  0  0  0  0  0  0  0  0  0
    7.8272  -15.7104  -10.2221 H   0  0  0  0  0  0  0  0  0  0  0  0
    5.1219  -12.5806   -2.4279 H   0  0  0  0  0  0  0  0  0  0  0  0
   11.9904  -12.0615   -0.3670 H   0  0  0  0  0  0  0  0  0  0  0  0
   14.2008  -16.7874   -8.0457 H   0  0  0  0  0  0  0  0  0  0  0  0
   11.4888  -18.8049   -7.3345 H   0  0  0  0  0  0  0  0  0  0  0  0
   10.9330  -17.7225   -8.6560 H   0  0  0  0  0  0  0  0  0  0  0  0
   12.6167  -18.3484   -8.6560 H   0  0  0  0  0  0  0  0  0  0  0  0
   10.3545  -16.6164   -6.2443 H   0  0  0  0  0  0  0  0  0  0  0  0
   10.0645  -13.4513   -7.3234 H   0  0  0  0  0  0  0  0  0  0  0  0
  1  2  1  0
  2  3  2  0
  3  4  1  0
  4  5  2  0
  4  6  1  0
  6  7  2  0
  7  8  1  0
  7  9  1  0
  9 10  1  0
 10 11  1  0
 10 12  2  0
 12 13  1  0
 13 14  1  0
 13 15  2  0
 15 16  1  0
 16 17  1  0
 17 18  1  0
 17 19  2  0
 19 20  1  0
 20 21  2  0
 20 22  1  0
 22 23  2  0
 23 24  1  0
 23 25  1  0
 25 26  2  0
 26 27  1  0
 26 28  1  0
 28 29  2  0
 29 30  1  0
 29 31  1  0
 31 32  2  0
 32 33  1  0
 33 34  1  0
 33 35  2  0
 35 36  1  0
 36 37  2  0
 35 38  1  0
 37  2  1  0
 36  6  1  0
 38  9  2  0
 38 15  1  0
 34 16  2  0
 34 22  1  0
 32 25  1  0
  1 39  1  0
  1 40  1  0
  1 41  1  0
  3 42  1  0
 12 43  1  0
 19 44  1  0
 28 45  1  0
 30 46  1  0
 30 47  1  0
 30 48  1  0
 31 49  1  0
 37 50  1  0
M  CHG  6   8  -1  11  -1  14  -1  18  -1  24  -1  27  -1
M  END
>  <meeko>  (5) 
{"is_sidechain": [false], "free_energy": -10.066, "intermolecular_energy": -10.066, "internal_energy": 0.0}

$$$$
LIB_JRPKYTRZLLKZAQ__M_PUB_ALL__e8__s20260927
     RDKit          3D

 50 56  0  0  0  0  0  0  0  0999 V2000
    5.8090  -13.9290    2.0490 C   0  0  0  0  0  0  0  0  0  0  0  0
    4.8250  -13.5860    0.9780 C   0  0  0  0  0  0  0  0  0  0  0  0
    5.1780  -13.1570   -0.2440 C   0  0  0  0  0  0  0  0  0  0  0  0
    4.1400  -12.8510   -1.2800 C   0  0  0  0  0  0  0  0  0  0  0  0
    4.5120  -12.8720   -2.4540 O   0  0  0  0  0  0  0  0  0  0  0  0
    2.7630  -12.6040   -0.6980 C   0  0  0  0  0  0  0  0  0  0  0  0
    1.9040  -11.6540   -1.1600 C   0  0  0  0  0  0  0  0  0  0  0  0
    2.0500  -10.9860   -2.2410 O   0  0  0  0  0  0  0  0  0  0  0  0
    0.6600  -11.4150   -0.1060 C   0  0  0  0  0  0  0  0  0  0  0  0
    0.0570  -10.1270    0.1190 C   0  0  0  0  0  0  0  0  0  0  0  0
    0.4280   -8.9660   -0.3220 O   0  0  0  0  0  0  0  0  0  0  0  0
   -1.0500  -10.1960    1.0200 C   0  0  0  0  0  0  0  0  0  0  0  0
   -1.6360  -11.3250    1.7070 C   0  0  0  0  0  0  0  0  0  0  0  0
   -2.5570  -11.0740    2.5810 O   0  0  0  0  0  0  0  0  0  0  0  0
   -1.0330  -12.6380    1.4320 C   0  0  0  0  0  0  0  0  0  0  0  0
   -1.4360  -13.9830    1.9580 C   0  0  0  0  0  0  0  0  0  0  0  0
   -2.9030  -14.4330    2.3110 C   0  0  0  0  0  0  0  0  0  0  0  0
   -3.9350  -14.1340    1.6230 O   0  0  0  0  0  0  0  0  0  0  0  0
   -2.9360  -15.2840    3.3570 C   0  0  0  0  0  0  0  0  0  0  0  0
   -1.7500  -15.9420    3.9530 C   0  0  0  0  0  0  0  0  0  0  0  0
   -1.7890  -16.2440    5.1470 O   0  0  0  0  0  0  0  0  0  0  0  0
   -0.6360  -16.1890    2.9530 C   0  0  0  0  0  0  0  0  0  0  0  0
    0.2140  -17.3840    3.0200 C   0  0  0  0  0  0  0  0  0  0  0  0
   -0.0240  -18.3090    3.8910 O   0  0  0  0  0  0  0  0  0  0  0  0
    1.2880  -17.4860    1.9930 C   0  0  0  0  0  0  0  0  0  0  0  0
    2.2690  -18.6330    1.7340 C   0  0  0  0  0  0  0  0  0  0  0  0
    2.4220  -19.7150    2.4240 O   0  0  0  0  0  0  0  0  0  0  0  0
    3.1170  -18.5260    0.6040 C   0  0  0  0  0  0  0  0  0  0  0  0
    3.1070  -17.4600   -0.2760 C   0  0  0  0  0  0  0  0  0  0  0  0
    3.9570  -17.4460   -1.5030 C   0  0  0  0  0  0  0  0  0  0  0  0
    2.2370  -16.4150   -0.0090 C   0  0  0  0  0  0  0  0  0  0  0  0
    1.4010  -16.3260    1.1260 C   0  0  0  0  0  0  0  0  0  0  0  0
    0.6600  -15.0700    1.2880 C   0  0  0  0  0  0  0  0  0  0  0  0
   -0.4930  -15.0900    2.0490 C   0  0  0  0  0  0  0  0  0  0  0  0
    1.0090  -13.7600    0.7390 C   0  0  0  0  0  0  0  0  0  0  0  0
    2.4380  -13.4200    0.4580 C   0  0  0  0  0  0  0  0  0  0  0  0
    3.4280  -13.8190    1.2850 C   0  0  0  0  0  0  0  0  0  0  0  0
    0.1830  -12.6010    0.6630 C   0  0  0  0  0  0  0  0  0  0  0  0
    5.3486  -13.7685    3.0350 H   0  0  0  0  0  0  0  0  0  0  0  0
    6.1058  -14.9836    1.9502 H   0  0  0  0  0  0  0  0  0  0  0  0
    6.6970  -13.2874    1.9502 H   0  0  0  0  0  0  0  0  0  0  0  0
    6.2429  -13.0285   -0.4878 H   0  0  0  0  0  0  0  0  0  0  0  0
   -1.5365   -9.2309    1.2246 H   0  0  0  0  0  0  0  0  0  0  0  0
   -3.9176  -15.5062    3.8010 H   0  0  0  0  0  0  0  0  0  0  0  0
    3.8286  -19.3432    0.4149 H   0  0  0  0  0  0  0  0  0  0  0  0
    5.0181  -17.4285   -1.2138 H   0  0  0  0  0  0  0  0  0  0  0  0
    3.7544  -18.3476   -2.0997 H   0  0  0  0  0  0  0  0  0  0  0  0
    3.7248  -16.5516   -2.0997 H   0  0  0  0  0  0  0  0  0  0  0  0
    2.1941  -15.5914   -0.7370 H   0  0  0  0  0  0  0  0  0  0  0  0
    3.1663  -14.3364    2.2198 H   0  0  0  0  0  0  0  0  0  0  0  0
  1  2  1  0
  2  3  2  0
  3  4  1  0
  4  5  2  0
  4  6  1  0
  6  7  2  0
  7  8  1  0
  7  9  1  0
  9 10  1  0
 10 11  1  0
 10 12  2  0
 12 13  1  0
 13 14  1  0
 13 15  2  0
 15 16  1  0
 16 17  1  0
 17 18  1  0
 17 19  2  0
 19 20  1  0
 20 21  2  0
 20 22  1  0
 22 23  2  0
 23 24  1  0
 23 25  1  0
 25 26  2  0
 26 27  1  0
 26 28  1  0
 28 29  2  0
 29 30  1  0
 29 31  1  0
 31 32  2  0
 32 33  1  0
 33 34  1  0
 33 35  2  0
 35 36  1  0
 36 37  2  0
 35 38  1  0
 37  2  1  0
 36  6  1  0
 38  9  2  0
 38 15  1  0
 34 16  2  0
 34 22  1  0
 32 25  1  0
  1 39  1  0
  1 40  1  0
  1 41  1  0
  3 42  1  0
 12 43  1  0
 19 44  1  0
 28 45  1  0
 30 46  1  0
 30 47  1  0
 30 48  1  0
 31 49  1  0
 37 50  1  0
M  CHG  6   8  -1  11  -1  14  -1  18  -1  24  -1  27  -1
M  END
>  <meeko>  (6) 
{"is_sidechain": [false], "free_energy": -9.91, "intermolecular_energy": -9.91, "internal_energy": 0.0}

$$$$
LIB_JRPKYTRZLLKZAQ__M_PUB_ALL__e8__s20260927
     RDKit          3D

 50 56  0  0  0  0  0  0  0  0999 V2000
    7.5480  -14.5780   -7.2400 C   0  0  0  0  0  0  0  0  0  0  0  0
    7.3400  -15.2030   -5.8990 C   0  0  0  0  0  0  0  0  0  0  0  0
    6.4940  -16.2230   -5.6790 C   0  0  0  0  0  0  0  0  0  0  0  0
    6.3490  -16.8180   -4.3120 C   0  0  0  0  0  0  0  0  0  0  0  0
    5.9050  -17.9660   -4.2570 O   0  0  0  0  0  0  0  0  0  0  0  0
    6.8240  -15.9030   -3.2020 C   0  0  0  0  0  0  0  0  0  0  0  0
    6.1970  -15.7790   -2.0000 C   0  0  0  0  0  0  0  0  0  0  0  0
    5.2600  -16.5370   -1.5730 O   0  0  0  0  0  0  0  0  0  0  0  0
    6.7560  -14.4700   -1.1710 C   0  0  0  0  0  0  0  0  0  0  0  0
    5.9170  -13.6560   -0.3300 C   0  0  0  0  0  0  0  0  0  0  0  0
    4.6310  -13.7020   -0.1740 O   0  0  0  0  0  0  0  0  0  0  0  0
    6.6530  -12.6290    0.3390 C   0  0  0  0  0  0  0  0  0  0  0  0
    8.0600  -12.3030    0.3020 C   0  0  0  0  0  0  0  0  0  0  0  0
    8.4340  -11.2210    0.9070 O   0  0  0  0  0  0  0  0  0  0  0  0
    8.9070  -13.1710   -0.5290 C   0  0  0  0  0  0  0  0  0  0  0  0
   10.3910  -13.1110   -0.7380 C   0  0  0  0  0  0  0  0  0  0  0  0
   11.4540  -12.6420    0.3250 C   0  0  0  0  0  0  0  0  0  0  0  0
   11.4060  -12.9280    1.5670 O   0  0  0  0  0  0  0  0  0  0  0  0
   12.4990  -12.0080   -0.2470 C   0  0  0  0  0  0  0  0  0  0  0  0
   12.7770  -11.9730   -1.7010 C   0  0  0  0  0  0  0  0  0  0  0  0
   13.3810  -11.0000   -2.1560 O   0  0  0  0  0  0  0  0  0  0  0  0
   12.2910  -13.2080   -2.4350 C   0  0  0  0  0  0  0  0  0  0  0  0
   13.0310  -13.7780   -3.5670 C   0  0  0  0  0  0  0  0  0  0  0  0
   14.1730  -13.2850   -3.9180 O   0  0  0  0  0  0  0  0  0  0  0  0
   12.4250  -14.9750   -4.2140 C   0  0  0  0  0  0  0  0  0  0  0  0
   12.9830  -15.8490   -5.3410 C   0  0  0  0  0  0  0  0  0  0  0  0
   14.0630  -15.6620   -6.0260 O   0  0  0  0  0  0  0  0  0  0  0  0
   12.2540  -17.0120   -5.6890 C   0  0  0  0  0  0  0  0  0  0  0  0
   11.0810  -17.4060   -5.0730 C   0  0  0  0  0  0  0  0  0  0  0  0
   10.4060  -18.6920   -5.4180 C   0  0  0  0  0  0  0  0  0  0  0  0
   10.5710  -16.5880   -4.0780 C   0  0  0  0  0  0  0  0  0  0  0  0
   11.1250  -15.3500   -3.6840 C   0  0  0  0  0  0  0  0  0  0  0  0
   10.3510  -14.5740   -2.7090 C   0  0  0  0  0  0  0  0  0  0  0  0
   11.0230  -13.6450   -1.9380 C   0  0  0  0  0  0  0  0  0  0  0  0
    8.9140  -14.6570   -2.4530 C   0  0  0  0  0  0  0  0  0  0  0  0
    7.9820  -15.0930   -3.5390 C   0  0  0  0  0  0  0  0  0  0  0  0
    8.1710  -14.7110   -4.8190 C   0  0  0  0  0  0  0  0  0  0  0  0
    8.1940  -14.1150   -1.3490 C   0  0  0  0  0  0  0  0  0  0  0  0
    7.8930  -13.5414   -7.1119 H   0  0  0  0  0  0  0  0  0  0  0  0
    8.3043  -15.1498   -7.7977 H   0  0  0  0  0  0  0  0  0  0  0  0
    6.5999  -14.5826   -7.7977 H   0  0  0  0  0  0  0  0  0  0  0  0
    5.9005  -16.6262   -6.5128 H   0  0  0  0  0  0  0  0  0  0  0  0
    6.0482  -11.9799    0.9892 H   0  0  0  0  0  0  0  0  0  0  0  0
   13.1970  -11.4771    0.4170 H   0  0  0  0  0  0  0  0  0  0  0  0
   12.6461  -17.6419   -6.5011 H   0  0  0  0  0  0  0  0  0  0  0  0
   10.1288  -19.2201   -4.4937 H   0  0  0  0  0  0  0  0  0  0  0  0
    9.5006  -18.4843   -6.0072 H   0  0  0  0  0  0  0  0  0  0  0  0
   11.0912  -19.3192   -6.0072 H   0  0  0  0  0  0  0  0  0  0  0  0
    9.6654  -16.9287   -3.5548 H   0  0  0  0  0  0  0  0  0  0  0  0
    8.9814  -14.0039   -5.0499 H   0  0  0  0  0  0  0  0  0  0  0  0
  1  2  1  0
  2  3  2  0
  3  4  1  0
  4  5  2  0
  4  6  1  0
  6  7  2  0
  7  8  1  0
  7  9  1  0
  9 10  1  0
 10 11  1  0
 10 12  2  0
 12 13  1  0
 13 14  1  0
 13 15  2  0
 15 16  1  0
 16 17  1  0
 17 18  1  0
 17 19  2  0
 19 20  1  0
 20 21  2  0
 20 22  1  0
 22 23  2  0
 23 24  1  0
 23 25  1  0
 25 26  2  0
 26 27  1  0
 26 28  1  0
 28 29  2  0
 29 30  1  0
 29 31  1  0
 31 32  2  0
 32 33  1  0
 33 34  1  0
 33 35  2  0
 35 36  1  0
 36 37  2  0
 35 38  1  0
 37  2  1  0
 36  6  1  0
 38  9  2  0
 38 15  1  0
 34 16  2  0
 34 22  1  0
 32 25  1  0
  1 39  1  0
  1 40  1  0
  1 41  1  0
  3 42  1  0
 12 43  1  0
 19 44  1  0
 28 45  1  0
 30 46  1  0
 30 47  1  0
 30 48  1  0
 31 49  1  0
 37 50  1  0
M  CHG  6   8  -1  11  -1  14  -1  18  -1  24  -1  27  -1
M  END
>  <meeko>  (7) 
{"is_sidechain": [false], "free_energy": -9.884, "intermolecular_energy": -9.884, "internal_energy": 0.0}

$$$$
LIB_JRPKYTRZLLKZAQ__M_PUB_ALL__e8__s20260927
     RDKit          3D

 50 56  0  0  0  0  0  0  0  0999 V2000
    6.6850  -17.5020   -4.9470 C   0  0  0  0  0  0  0  0  0  0  0  0
    7.5400  -16.2790   -5.0390 C   0  0  0  0  0  0  0  0  0  0  0  0
    8.3620  -16.0250   -6.0690 C   0  0  0  0  0  0  0  0  0  0  0  0
    9.1760  -14.7680   -6.1080 C   0  0  0  0  0  0  0  0  0  0  0  0
    9.5680  -14.4010   -7.2170 O   0  0  0  0  0  0  0  0  0  0  0  0
    9.3490  -14.1190   -4.7500 C   0  0  0  0  0  0  0  0  0  0  0  0
   10.5040  -13.5320   -4.3310 C   0  0  0  0  0  0  0  0  0  0  0  0
   11.5160  -13.2780   -5.0710 O   0  0  0  0  0  0  0  0  0  0  0  0
   10.4680  -13.2410   -2.7100 C   0  0  0  0  0  0  0  0  0  0  0  0
   11.6320  -13.3420   -1.8680 C   0  0  0  0  0  0  0  0  0  0  0  0
   12.8160  -13.7780   -2.1640 O   0  0  0  0  0  0  0  0  0  0  0  0
   11.3570  -12.9660   -0.5160 C   0  0  0  0  0  0  0  0  0  0  0  0
   10.1340  -12.5120    0.1050 C   0  0  0  0  0  0  0  0  0  0  0  0
   10.1390  -12.3720    1.3910 O   0  0  0  0  0  0  0  0  0  0  0  0
    8.9670  -12.3750   -0.7800 C   0  0  0  0  0  0  0  0  0  0  0  0
    7.5860  -11.8980   -0.4440 C   0  0  0  0  0  0  0  0  0  0  0  0
    7.2230  -10.8180    0.6430 C   0  0  0  0  0  0  0  0  0  0  0  0
    7.8940   -9.7540    0.8550 O   0  0  0  0  0  0  0  0  0  0  0  0
    6.0430  -11.0770    1.2440 C   0  0  0  0  0  0  0  0  0  0  0  0
    5.0610  -12.0860    0.7830 C   0  0  0  0  0  0  0  0  0  0  0  0
    4.3250  -12.6080    1.6220 O   0  0  0  0  0  0  0  0  0  0  0  0
    5.0850  -12.3060   -0.7170 C   0  0  0  0  0  0  0  0  0  0  0  0
    3.8620  -12.5850   -1.4790 C   0  0  0  0  0  0  0  0  0  0  0  0
    2.7080  -12.5670   -0.8950 O   0  0  0  0  0  0  0  0  0  0  0  0
    4.0330  -12.8070   -2.9420 C   0  0  0  0  0  0  0  0  0  0  0  0
    2.9630  -13.0250   -4.0160 C   0  0  0  0  0  0  0  0  0  0  0  0
    1.6880  -13.1520   -3.8490 O   0  0  0  0  0  0  0  0  0  0  0  0
    3.3940  -13.0890   -5.3640 C   0  0  0  0  0  0  0  0  0  0  0  0
    4.7110  -12.9620   -5.7650 C   0  0  0  0  0  0  0  0  0  0  0  0
    5.0940  -12.9440   -7.2080 C   0  0  0  0  0  0  0  0  0  0  0  0
    5.6710  -12.7990   -4.7790 C   0  0  0  0  0  0  0  0  0  0  0  0
    5.4150  -12.8130   -3.3890 C   0  0  0  0  0  0  0  0  0  0  0  0
    6.5910  -12.7630   -2.5140 C   0  0  0  0  0  0  0  0  0  0  0  0
    6.4220  -12.2930   -1.2260 C   0  0  0  0  0  0  0  0  0  0  0  0
    7.9550  -13.1730   -2.8410 C   0  0  0  0  0  0  0  0  0  0  0  0
    8.1950  -14.2270   -3.8760 C   0  0  0  0  0  0  0  0  0  0  0  0
    7.3840  -15.3010   -3.9810 C   0  0  0  0  0  0  0  0  0  0  0  0
    9.1470  -12.8950   -2.1110 C   0  0  0  0  0  0  0  0  0  0  0  0
    6.5119  -17.7496   -3.8893 H   0  0  0  0  0  0  0  0  0  0  0  0
    5.7209  -17.3135   -5.4420 H   0  0  0  0  0  0  0  0  0  0  0  0
    7.1931  -18.3427   -5.4420 H   0  0  0  0  0  0  0  0  0  0  0  0
    8.4389  -16.7482   -6.8942 H   0  0  0  0  0  0  0  0  0  0  0  0
   12.2193  -13.0336    0.1637 H   0  0  0  0  0  0  0  0  0  0  0  0
    5.7914  -10.4956    2.1433 H   0  0  0  0  0  0  0  0  0  0  0  0
    2.6323  -13.2500   -6.1411 H   0  0  0  0  0  0  0  0  0  0  0  0
    6.1893  -12.8925   -7.2960 H   0  0  0  0  0  0  0  0  0  0  0  0
    4.7296  -13.8603   -7.6955 H   0  0  0  0  0  0  0  0  0  0  0  0
    4.6453  -12.0660   -7.6955 H   0  0  0  0  0  0  0  0  0  0  0  0
    6.7113  -12.6472   -5.1027 H   0  0  0  0  0  0  0  0  0  0  0  0
    6.5811  -15.4379   -3.2417 H   0  0  0  0  0  0  0  0  0  0  0  0
  1  2  1  0
  2  3  2  0
  3  4  1  0
  4  5  2  0
  4  6  1  0
  6  7  2  0
  7  8  1  0
  7  9  1  0
  9 10  1  0
 10 11  1  0
 10 12  2  0
 12 13  1  0
 13 14  1  0
 13 15  2  0
 15 16  1  0
 16 17  1  0
 17 18  1  0
 17 19  2  0
 19 20  1  0
 20 21  2  0
 20 22  1  0
 22 23  2  0
 23 24  1  0
 23 25  1  0
 25 26  2  0
 26 27  1  0
 26 28  1  0
 28 29  2  0
 29 30  1  0
 29 31  1  0
 31 32  2  0
 32 33  1  0
 33 34  1  0
 33 35  2  0
 35 36  1  0
 36 37  2  0
 35 38  1  0
 37  2  1  0
 36  6  1  0
 38  9  2  0
 38 15  1  0
 34 16  2  0
 34 22  1  0
 32 25  1  0
  1 39  1  0
  1 40  1  0
  1 41  1  0
  3 42  1  0
 12 43  1  0
 19 44  1  0
 28 45  1  0
 30 46  1  0
 30 47  1  0
 30 48  1  0
 31 49  1  0
 37 50  1  0
M  CHG  6   8  -1  11  -1  14  -1  18  -1  24  -1  27  -1
M  END
>  <meeko>  (8) 
{"is_sidechain": [false], "free_energy": -9.727, "intermolecular_energy": -9.727, "internal_energy": 0.0}

$$$$
LIB_JRPKYTRZLLKZAQ__M_PUB_ALL__e8__s20260927
     RDKit          3D

 50 56  0  0  0  0  0  0  0  0999 V2000
   11.9310  -12.8660   -2.2410 C   0  0  0  0  0  0  0  0  0  0  0  0
   12.2410  -13.8260   -3.3430 C   0  0  0  0  0  0  0  0  0  0  0  0
   13.2860  -14.6680   -3.3220 C   0  0  0  0  0  0  0  0  0  0  0  0
   13.5270  -15.6210   -4.4520 C   0  0  0  0  0  0  0  0  0  0  0  0
   14.2140  -16.6120   -4.1980 O   0  0  0  0  0  0  0  0  0  0  0  0
   12.8340  -15.2200   -5.7370 C   0  0  0  0  0  0  0  0  0  0  0  0
   13.3880  -15.3570   -6.9730 C   0  0  0  0  0  0  0  0  0  0  0  0
   14.4600  -16.0030   -7.2360 O   0  0  0  0  0  0  0  0  0  0  0  0
   12.5330  -14.5190   -8.1050 C   0  0  0  0  0  0  0  0  0  0  0  0
   13.1490  -13.8590   -9.2260 C   0  0  0  0  0  0  0  0  0  0  0  0
   14.4090  -13.6880   -9.4790 O   0  0  0  0  0  0  0  0  0  0  0  0
   12.1880  -13.2670  -10.1030 C   0  0  0  0  0  0  0  0  0  0  0  0
   10.7450  -13.2400  -10.0370 C   0  0  0  0  0  0  0  0  0  0  0  0
   10.1260  -12.5040  -10.9030 O   0  0  0  0  0  0  0  0  0  0  0  0
   10.1320  -13.9550   -8.9070 C   0  0  0  0  0  0  0  0  0  0  0  0
    8.6780  -14.1350   -8.5900 C   0  0  0  0  0  0  0  0  0  0  0  0
    7.5120  -14.2510   -9.6420 C   0  0  0  0  0  0  0  0  0  0  0  0
    7.5920  -14.8990  -10.7380 O   0  0  0  0  0  0  0  0  0  0  0  0
    6.3660  -13.6960   -9.1950 C   0  0  0  0  0  0  0  0  0  0  0  0
    6.1220  -13.2620   -7.8000 C   0  0  0  0  0  0  0  0  0  0  0  0
    5.3280  -12.3390   -7.6070 O   0  0  0  0  0  0  0  0  0  0  0  0
    6.8880  -14.0760   -6.7750 C   0  0  0  0  0  0  0  0  0  0  0  0
    6.3210  -14.3970   -5.4600 C   0  0  0  0  0  0  0  0  0  0  0  0
    5.1060  -14.0620   -5.1710 O   0  0  0  0  0  0  0  0  0  0  0  0
    7.1930  -15.1800   -4.5400 C   0  0  0  0  0  0  0  0  0  0  0  0
    6.8700  -15.7480   -3.1550 C   0  0  0  0  0  0  0  0  0  0  0  0
    5.7930  -15.5790   -2.4620 O   0  0  0  0  0  0  0  0  0  0  0  0
    7.8480  -16.5680   -2.5410 C   0  0  0  0  0  0  0  0  0  0  0  0
    9.0640  -16.8890   -3.1140 C   0  0  0  0  0  0  0  0  0  0  0  0
   10.0160  -17.8350   -2.4600 C   0  0  0  0  0  0  0  0  0  0  0  0
    9.3550  -16.3410   -4.3530 C   0  0  0  0  0  0  0  0  0  0  0  0
    8.5300  -15.4300   -5.0500 C   0  0  0  0  0  0  0  0  0  0  0  0
    9.0890  -14.8610   -6.2810 C   0  0  0  0  0  0  0  0  0  0  0  0
    8.2090  -14.3800   -7.2320 C   0  0  0  0  0  0  0  0  0  0  0  0
   10.5020  -14.7260   -6.6320 C   0  0  0  0  0  0  0  0  0  0  0  0
   11.5340  -14.5990   -5.5560 C   0  0  0  0  0  0  0  0  0  0  0  0
   11.2950  -13.8790   -4.4400 C   0  0  0  0  0  0  0  0  0  0  0  0
   11.0570  -14.4260   -7.9100 C   0  0  0  0  0  0  0  0  0  0  0  0
   12.0900  -13.3583   -1.2703 H   0  0  0  0  0  0  0  0  0  0  0  0
   12.5921  -11.9904   -2.3207 H   0  0  0  0  0  0  0  0  0  0  0  0
   10.8827  -12.5424   -2.3207 H   0  0  0  0  0  0  0  0  0  0  0  0
   13.9742  -14.6580   -2.4639 H   0  0  0  0  0  0  0  0  0  0  0  0
   12.6180  -12.7461  -10.9712 H   0  0  0  0  0  0  0  0  0  0  0  0
    5.5519  -13.5553   -9.9212 H   0  0  0  0  0  0  0  0  0  0  0  0
    7.6254  -16.9756   -1.5439 H   0  0  0  0  0  0  0  0  0  0  0  0
    9.9276  -17.7471   -1.3671 H   0  0  0  0  0  0  0  0  0  0  0  0
    9.7779  -18.8645   -2.7655 H   0  0  0  0  0  0  0  0  0  0  0  0
   11.0440  -17.5904   -2.7655 H   0  0  0  0  0  0  0  0  0  0  0  0
   10.3005  -16.6379   -4.8304 H   0  0  0  0  0  0  0  0  0  0  0  0
   10.3538  -13.3152   -4.3604 H   0  0  0  0  0  0  0  0  0  0  0  0
  1  2  1  0
  2  3  2  0
  3  4  1  0
  4  5  2  0
  4  6  1  0
  6  7  2  0
  7  8  1  0
  7  9  1  0
  9 10  1  0
 10 11  1  0
 10 12  2  0
 12 13  1  0
 13 14  1  0
 13 15  2  0
 15 16  1  0
 16 17  1  0
 17 18  1  0
 17 19  2  0
 19 20  1  0
 20 21  2  0
 20 22  1  0
 22 23  2  0
 23 24  1  0
 23 25  1  0
 25 26  2  0
 26 27  1  0
 26 28  1  0
 28 29  2  0
 29 30  1  0
 29 31  1  0
 31 32  2  0
 32 33  1  0
 33 34  1  0
 33 35  2  0
 35 36  1  0
 36 37  2  0
 35 38  1  0
 37  2  1  0
 36  6  1  0
 38  9  2  0
 38 15  1  0
 34 16  2  0
 34 22  1  0
 32 25  1  0
  1 39  1  0
  1 40  1  0
  1 41  1  0
  3 42  1  0
 12 43  1  0
 19 44  1  0
 28 45  1  0
 30 46  1  0
 30 47  1  0
 30 48  1  0
 31 49  1  0
 37 50  1  0
M  CHG  6   8  -1  11  -1  14  -1  18  -1  24  -1  27  -1
M  END
>  <meeko>  (9) 
{"is_sidechain": [false], "free_energy": -9.564, "intermolecular_energy": -9.564, "internal_energy": 0.0}

$$$$
