LIB_IQYRBWJVVBVMOS__M_PUB_ALL__e8__s20260927
     RDKit          3D

 50 52  0  0  0  0  0  0  0  0999 V2000
    8.6390  -12.1170    0.7010 C   0  0  0  0  0  0  0  0  0  0  0  0
    9.8510  -12.8310    0.4710 O   0  0  0  0  0  0  0  0  0  0  0  0
   10.9600  -12.0900    0.1250 C   0  0  0  0  0  0  0  0  0  0  0  0
   11.4030  -10.9830    0.8680 C   0  0  0  0  0  0  0  0  0  0  0  0
   12.5660  -10.3020    0.5100 C   0  0  0  0  0  0  0  0  0  0  0  0
   13.2990  -10.7190   -0.5910 C   0  0  0  0  0  0  0  0  0  0  0  0
   12.8690  -11.8200   -1.3330 C   0  0  0  0  0  0  0  0  0  0  0  0
   11.6980  -12.5300   -1.0020 C   0  0  0  0  0  0  0  0  0  0  0  0
   11.3320  -13.6070   -1.7990 N   0  0  0  0  0  0  0  0  0  0  0  0
   11.8460  -14.9600   -1.5700 C   0  0  0  0  0  0  0  0  0  0  0  0
   12.7510  -15.4070   -2.7360 C   0  0  0  0  0  0  0  0  0  0  0  0
   12.0340  -15.2280   -4.0730 N   0  0  0  0  0  0  0  0  0  0  0  0
   12.8270  -15.7550   -5.2400 C   0  0  0  0  0  0  0  0  0  0  0  0
   14.0290  -14.8520   -5.5950 C   0  0  0  0  0  0  0  0  0  0  0  0
   14.2340  -14.6160   -7.0230 N   0  0  0  0  0  0  0  0  0  0  0  0
   15.2560  -15.1870   -7.7490 C   0  0  0  0  0  0  0  0  0  0  0  0
   16.1360  -15.8510   -7.2040 O   0  0  0  0  0  0  0  0  0  0  0  0
   15.2620  -14.9750   -9.2190 C   0  0  0  0  0  0  0  0  0  0  0  0
   14.5190  -13.9640   -9.8290 C   0  0  0  0  0  0  0  0  0  0  0  0
   14.6040  -13.8420  -11.2050 C   0  0  0  0  0  0  0  0  0  0  0  0
   15.3660  -14.6420  -11.9800 N   0  0  0  0  0  0  0  0  0  0  0  0
   16.0850  -15.6020  -11.3640 C   0  0  0  0  0  0  0  0  0  0  0  0
   16.0720  -15.8040   -9.9980 C   0  0  0  0  0  0  0  0  0  0  0  0
   11.5490  -13.7900   -4.2440 C   0  0  0  0  0  0  0  0  0  0  0  0
   10.6370  -13.3760   -3.0690 C   0  0  0  0  0  0  0  0  0  0  0  0
    8.4714  -12.0183    1.7837 H   0  0  0  0  0  0  0  0  0  0  0  0
    8.7110  -11.1170    0.2484 H   0  0  0  0  0  0  0  0  0  0  0  0
    7.7992  -12.6647    0.2484 H   0  0  0  0  0  0  0  0  0  0  0  0
   10.8255  -10.6494    1.7427 H   0  0  0  0  0  0  0  0  0  0  0  0
   12.9013   -9.4360    1.0996 H   0  0  0  0  0  0  0  0  0  0  0  0
   14.2161  -10.1838   -0.8784 H   0  0  0  0  0  0  0  0  0  0  0  0
   13.4617  -12.1429   -2.2016 H   0  0  0  0  0  0  0  0  0  0  0  0
   12.4283  -14.9714   -0.6368 H   0  0  0  0  0  0  0  0  0  0  0  0
   10.9948  -15.6531   -1.4988 H   0  0  0  0  0  0  0  0  0  0  0  0
   13.6688  -14.8007   -2.7341 H   0  0  0  0  0  0  0  0  0  0  0  0
   12.9973  -16.4711   -2.6056 H   0  0  0  0  0  0  0  0  0  0  0  0
   11.1680  -15.8050   -4.0080 H   0  0  0  0  0  0  0  0  0  0  0  0
   13.2017  -16.7579   -4.9876 H   0  0  0  0  0  0  0  0  0  0  0  0
   12.1589  -15.7806   -6.1135 H   0  0  0  0  0  0  0  0  0  0  0  0
   13.8771  -13.8774   -5.1080 H   0  0  0  0  0  0  0  0  0  0  0  0
   14.9242  -15.3860   -5.2438 H   0  0  0  0  0  0  0  0  0  0  0  0
   13.4710  -14.1790   -7.5280 H   0  0  0  0  0  0  0  0  0  0  0  0
   13.8868  -13.2865   -9.2362 H   0  0  0  0  0  0  0  0  0  0  0  0
   14.0183  -13.0495  -11.6938 H   0  0  0  0  0  0  0  0  0  0  0  0
   16.7150  -16.2587  -11.9820 H   0  0  0  0  0  0  0  0  0  0  0  0
   16.6819  -16.5948   -9.5369 H   0  0  0  0  0  0  0  0  0  0  0  0
   12.4189  -13.1177   -4.2796 H   0  0  0  0  0  0  0  0  0  0  0  0
   10.9733  -13.7207   -5.1788 H   0  0  0  0  0  0  0  0  0  0  0  0
   10.3857  -12.3089   -3.1595 H   0  0  0  0  0  0  0  0  0  0  0  0
    9.7153  -13.9759   -3.0943 H   0  0  0  0  0  0  0  0  0  0  0  0
  1  2  1  0
  2  3  1  0
  3  4  2  0
  4  5  1  0
  5  6  2  0
  6  7  1  0
  7  8  2  0
  8  9  1  0
  9 10  1  0
 10 11  1  0
 11 12  1  0
 12 13  1  0
 13 14  1  0
 14 15  1  0
 15 16  1  0
 16 17  2  0
 16 18  1  0
 18 19  2  0
 19 20  1  0
 20 21  2  0
 21 22  1  0
 22 23  2  0
 12 24  1  0
 24 25  1  0
  8  3  1  0
 25  9  1  0
 23 18  1  0
  1 26  1  0
  1 27  1  0
  1 28  1  0
  4 29  1  0
  5 30  1  0
  6 31  1  0
  7 32  1  0
 10 33  1  0
 10 34  1  0
 11 35  1  0
 11 36  1  0
 12 37  1  0
 13 38  1  0
 13 39  1  0
 14 40  1  0
 14 41  1  0
 15 42  1  0
 19 43  1  0
 20 44  1  0
 22 45  1  0
 23 46  1  0
 24 47  1  0
 24 48  1  0
 25 49  1  0
 25 50  1  0
M  CHG  1  12   1
M  END
>  <meeko>  (1) 
{"is_sidechain": [false], "free_energy": -6.964, "intermolecular_energy": -9.406, "internal_energy": -0.65}

$$$$
LIB_IQYRBWJVVBVMOS__M_PUB_ALL__e8__s20260927
     RDKit          3D

 50 52  0  0  0  0  0  0  0  0999 V2000
    8.7310  -13.1680   -0.5070 C   0  0  0  0  0  0  0  0  0  0  0  0
   10.0580  -13.5530   -0.1570 O   0  0  0  0  0  0  0  0  0  0  0  0
   11.0370  -12.5870   -0.2490 C   0  0  0  0  0  0  0  0  0  0  0  0
   11.2310  -11.6000    0.7310 C   0  0  0  0  0  0  0  0  0  0  0  0
   12.2740  -10.6800    0.6210 C   0  0  0  0  0  0  0  0  0  0  0  0
   13.1340  -10.7380   -0.4650 C   0  0  0  0  0  0  0  0  0  0  0  0
   12.9500  -11.7180   -1.4420 C   0  0  0  0  0  0  0  0  0  0  0  0
   11.9060  -12.6610   -1.3660 C   0  0  0  0  0  0  0  0  0  0  0  0
   11.7850  -13.5960   -2.3850 N   0  0  0  0  0  0  0  0  0  0  0  0
   12.4120  -14.9170   -2.3130 C   0  0  0  0  0  0  0  0  0  0  0  0
   13.5210  -15.0570   -3.3750 C   0  0  0  0  0  0  0  0  0  0  0  0
   12.9890  -14.6920   -4.7600 N   0  0  0  0  0  0  0  0  0  0  0  0
   13.9980  -14.9190   -5.8550 C   0  0  0  0  0  0  0  0  0  0  0  0
   13.3590  -15.4930   -7.1390 C   0  0  0  0  0  0  0  0  0  0  0  0
   13.1060  -14.5210   -8.2010 N   0  0  0  0  0  0  0  0  0  0  0  0
   11.8780  -13.9370   -8.4200 C   0  0  0  0  0  0  0  0  0  0  0  0
   10.8790  -14.2900   -7.7960 O   0  0  0  0  0  0  0  0  0  0  0  0
   11.7960  -12.8610   -9.4410 C   0  0  0  0  0  0  0  0  0  0  0  0
   10.6930  -12.7120  -10.2820 C   0  0  0  0  0  0  0  0  0  0  0  0
   10.7110  -11.6690  -11.1910 C   0  0  0  0  0  0  0  0  0  0  0  0
   11.7310  -10.7930  -11.3020 N   0  0  0  0  0  0  0  0  0  0  0  0
   12.7790  -10.9500  -10.4680 C   0  0  0  0  0  0  0  0  0  0  0  0
   12.8570  -11.9560   -9.5250 C   0  0  0  0  0  0  0  0  0  0  0  0
   12.3720  -13.2950   -4.7570 C   0  0  0  0  0  0  0  0  0  0  0  0
   11.2590  -13.1900   -3.6920 C   0  0  0  0  0  0  0  0  0  0  0  0
    8.1451  -12.9980    0.4083 H   0  0  0  0  0  0  0  0  0  0  0  0
    8.7622  -12.2419   -1.0997 H   0  0  0  0  0  0  0  0  0  0  0  0
    8.2617  -13.9670   -1.0997 H   0  0  0  0  0  0  0  0  0  0  0  0
   10.5526  -11.5517    1.5955 H   0  0  0  0  0  0  0  0  0  0  0  0
   12.4138   -9.9102    1.3942 H   0  0  0  0  0  0  0  0  0  0  0  0
   13.9578  -10.0148   -0.5564 H   0  0  0  0  0  0  0  0  0  0  0  0
   13.6410  -11.7551   -2.2970 H   0  0  0  0  0  0  0  0  0  0  0  0
   12.8508  -15.0536   -1.3136 H   0  0  0  0  0  0  0  0  0  0  0  0
   11.6444  -15.6817   -2.5028 H   0  0  0  0  0  0  0  0  0  0  0  0
   14.3535  -14.3851   -3.1190 H   0  0  0  0  0  0  0  0  0  0  0  0
   13.8660  -16.1014   -3.3917 H   0  0  0  0  0  0  0  0  0  0  0  0
   12.1950  -15.3430   -4.9370 H   0  0  0  0  0  0  0  0  0  0  0  0
   14.4767  -13.9589   -6.0981 H   0  0  0  0  0  0  0  0  0  0  0  0
   14.7293  -15.6543   -5.4883 H   0  0  0  0  0  0  0  0  0  0  0  0
   14.0338  -16.2644   -7.5385 H   0  0  0  0  0  0  0  0  0  0  0  0
   12.3735  -15.8799   -6.8407 H   0  0  0  0  0  0  0  0  0  0  0  0
   13.9180  -14.1170   -8.6540 H   0  0  0  0  0  0  0  0  0  0  0  0
    9.8373  -13.4009  -10.2244 H   0  0  0  0  0  0  0  0  0  0  0  0
    9.8462  -11.5474  -11.8598 H   0  0  0  0  0  0  0  0  0  0  0  0
   13.6155  -10.2396  -10.5427 H   0  0  0  0  0  0  0  0  0  0  0  0
   13.7288  -12.0422   -8.8597 H   0  0  0  0  0  0  0  0  0  0  0  0
   13.1551  -12.5553   -4.5345 H   0  0  0  0  0  0  0  0  0  0  0  0
   11.9327  -13.1012   -5.7467 H   0  0  0  0  0  0  0  0  0  0  0  0
   10.9035  -12.1505   -3.6361 H   0  0  0  0  0  0  0  0  0  0  0  0
   10.4253  -13.8514   -3.9703 H   0  0  0  0  0  0  0  0  0  0  0  0
  1  2  1  0
  2  3  1  0
  3  4  2  0
  4  5  1  0
  5  6  2  0
  6  7  1  0
  7  8  2  0
  8  9  1  0
  9 10  1  0
 10 11  1  0
 11 12  1  0
 12 13  1  0
 13 14  1  0
 14 15  1  0
 15 16  1  0
 16 17  2  0
 16 18  1  0
 18 19  2  0
 19 20  1  0
 20 21  2  0
 21 22  1  0
 22 23  2  0
 12 24  1  0
 24 25  1  0
  8  3  1  0
 25  9  1  0
 23 18  1  0
  1 26  1  0
  1 27  1  0
  1 28  1  0
  4 29  1  0
  5 30  1  0
  6 31  1  0
  7 32  1  0
 10 33  1  0
 10 34  1  0
 11 35  1  0
 11 36  1  0
 12 37  1  0
 13 38  1  0
 13 39  1  0
 14 40  1  0
 14 41  1  0
 15 42  1  0
 19 43  1  0
 20 44  1  0
 22 45  1  0
 23 46  1  0
 24 47  1  0
 24 48  1  0
 25 49  1  0
 25 50  1  0
M  CHG  1  12   1
M  END
>  <meeko>  (2) 
{"is_sidechain": [false], "free_energy": -6.717, "intermolecular_energy": -8.897, "internal_energy": -0.825}

$$$$
LIB_IQYRBWJVVBVMOS__M_PUB_ALL__e8__s20260927
     RDKit          3D

 50 52  0  0  0  0  0  0  0  0999 V2000
    4.8810  -12.8890   -6.4630 C   0  0  0  0  0  0  0  0  0  0  0  0
    4.8030  -13.8770   -5.4390 O   0  0  0  0  0  0  0  0  0  0  0  0
    3.7930  -13.7430   -4.5120 C   0  0  0  0  0  0  0  0  0  0  0  0
    2.4390  -13.9600   -4.8180 C   0  0  0  0  0  0  0  0  0  0  0  0
    1.4600  -13.8690   -3.8300 C   0  0  0  0  0  0  0  0  0  0  0  0
    1.8210  -13.5620   -2.5260 C   0  0  0  0  0  0  0  0  0  0  0  0
    3.1630  -13.3470   -2.2120 C   0  0  0  0  0  0  0  0  0  0  0  0
    4.1790  -13.4280   -3.1850 C   0  0  0  0  0  0  0  0  0  0  0  0
    5.4900  -13.1890   -2.7930 N   0  0  0  0  0  0  0  0  0  0  0  0
    6.2320  -14.1170   -1.9360 C   0  0  0  0  0  0  0  0  0  0  0  0
    6.5280  -13.4790   -0.5640 C   0  0  0  0  0  0  0  0  0  0  0  0
    7.1970  -12.1160   -0.7370 N   0  0  0  0  0  0  0  0  0  0  0  0
    7.6130  -11.4960    0.5710 C   0  0  0  0  0  0  0  0  0  0  0  0
    9.0380  -11.9140    0.9980 C   0  0  0  0  0  0  0  0  0  0  0  0
   10.0460  -11.8700   -0.0590 N   0  0  0  0  0  0  0  0  0  0  0  0
   11.2540  -12.5290    0.0140 C   0  0  0  0  0  0  0  0  0  0  0  0
   11.6070  -13.1100    1.0380 O   0  0  0  0  0  0  0  0  0  0  0  0
   12.1240  -12.5140   -1.1900 C   0  0  0  0  0  0  0  0  0  0  0  0
   13.0090  -11.4700   -1.4580 C   0  0  0  0  0  0  0  0  0  0  0  0
   13.7840  -11.5580   -2.6010 C   0  0  0  0  0  0  0  0  0  0  0  0
   13.7300  -12.5960   -3.4610 N   0  0  0  0  0  0  0  0  0  0  0  0
   12.8750  -13.5990   -3.1730 C   0  0  0  0  0  0  0  0  0  0  0  0
   12.0620  -13.6070   -2.0570 C   0  0  0  0  0  0  0  0  0  0  0  0
    6.3530  -11.2020   -1.6230 C   0  0  0  0  0  0  0  0  0  0  0  0
    6.0830  -11.8630   -2.9920 C   0  0  0  0  0  0  0  0  0  0  0  0
    4.9597  -11.8919   -6.0052 H   0  0  0  0  0  0  0  0  0  0  0  0
    5.7671  -13.0769   -7.0871 H   0  0  0  0  0  0  0  0  0  0  0  0
    3.9764  -12.9356   -7.0871 H   0  0  0  0  0  0  0  0  0  0  0  0
    2.1479  -14.2048   -5.8502 H   0  0  0  0  0  0  0  0  0  0  0  0
    0.4034  -14.0402   -4.0836 H   0  0  0  0  0  0  0  0  0  0  0  0
    1.0520  -13.4884   -1.7429 H   0  0  0  0  0  0  0  0  0  0  0  0
    3.4363  -13.1071   -1.1739 H   0  0  0  0  0  0  0  0  0  0  0  0
    5.6336  -15.0281   -1.7883 H   0  0  0  0  0  0  0  0  0  0  0  0
    7.1870  -14.3606   -2.4245 H   0  0  0  0  0  0  0  0  0  0  0  0
    5.5841  -13.3511   -0.0138 H   0  0  0  0  0  0  0  0  0  0  0  0
    7.2079  -14.1391   -0.0055 H   0  0  0  0  0  0  0  0  0  0  0  0
    8.0680  -12.2970   -1.2800 H   0  0  0  0  0  0  0  0  0  0  0  0
    7.5827  -10.4013    0.4678 H   0  0  0  0  0  0  0  0  0  0  0  0
    6.9154  -11.8491    1.3448 H   0  0  0  0  0  0  0  0  0  0  0  0
    9.3622  -11.2401    1.8047 H   0  0  0  0  0  0  0  0  0  0  0  0
    8.9661  -12.9678    1.3053 H   0  0  0  0  0  0  0  0  0  0  0  0
    9.7500  -11.5070   -0.9580 H   0  0  0  0  0  0  0  0  0  0  0  0
   13.0884  -10.6051   -0.7830 H   0  0  0  0  0  0  0  0  0  0  0  0
   14.4822  -10.7368   -2.8203 H   0  0  0  0  0  0  0  0  0  0  0  0
   12.8229  -14.4544   -3.8627 H   0  0  0  0  0  0  0  0  0  0  0  0
   11.3848  -14.4503   -1.8566 H   0  0  0  0  0  0  0  0  0  0  0  0
    5.3935  -11.0013   -1.1238 H   0  0  0  0  0  0  0  0  0  0  0  0
    6.9028  -10.2634   -1.7867 H   0  0  0  0  0  0  0  0  0  0  0  0
    5.3891  -11.2354   -3.5704 H   0  0  0  0  0  0  0  0  0  0  0  0
    7.0315  -11.9669   -3.5394 H   0  0  0  0  0  0  0  0  0  0  0  0
  1  2  1  0
  2  3  1  0
  3  4  2  0
  4  5  1  0
  5  6  2  0
  6  7  1  0
  7  8  2  0
  8  9  1  0
  9 10  1  0
 10 11  1  0
 11 12  1  0
 12 13  1  0
 13 14  1  0
 14 15  1  0
 15 16  1  0
 16 17  2  0
 16 18  1  0
 18 19  2  0
 19 20  1  0
 20 21  2  0
 21 22  1  0
 22 23  2  0
 12 24  1  0
 24 25  1  0
  8  3  1  0
 25  9  1  0
 23 18  1  0
  1 26  1  0
  1 27  1  0
  1 28  1  0
  4 29  1  0
  5 30  1  0
  6 31  1  0
  7 32  1  0
 10 33  1  0
 10 34  1  0
 11 35  1  0
 11 36  1  0
 12 37  1  0
 13 38  1  0
 13 39  1  0
 14 40  1  0
 14 41  1  0
 15 42  1  0
 19 43  1  0
 20 44  1  0
 22 45  1  0
 23 46  1  0
 24 47  1  0
 24 48  1  0
 25 49  1  0
 25 50  1  0
M  CHG  1  12   1
M  END
>  <meeko>  (3) 
{"is_sidechain": [false], "free_energy": -6.59, "intermolecular_energy": -8.837, "internal_energy": -0.714}

$$$$
LIB_IQYRBWJVVBVMOS__M_PUB_ALL__e8__s20260927
     RDKit          3D

 50 52  0  0  0  0  0  0  0  0999 V2000
    3.1490  -12.8450   -0.1840 C   0  0  0  0  0  0  0  0  0  0  0  0
    3.7950  -12.1420   -1.2410 O   0  0  0  0  0  0  0  0  0  0  0  0
    3.6080  -12.6190   -2.5200 C   0  0  0  0  0  0  0  0  0  0  0  0
    2.3420  -12.7270   -3.1190 C   0  0  0  0  0  0  0  0  0  0  0  0
    2.2100  -13.1610   -4.4370 C   0  0  0  0  0  0  0  0  0  0  0  0
    3.3390  -13.4900   -5.1720 C   0  0  0  0  0  0  0  0  0  0  0  0
    4.6010  -13.3840   -4.5860 C   0  0  0  0  0  0  0  0  0  0  0  0
    4.7730  -12.9520   -3.2560 C   0  0  0  0  0  0  0  0  0  0  0  0
    6.0620  -12.8850   -2.7440 N   0  0  0  0  0  0  0  0  0  0  0  0
    6.6470  -13.9710   -1.9550 C   0  0  0  0  0  0  0  0  0  0  0  0
    6.8820  -13.5250   -0.4970 C   0  0  0  0  0  0  0  0  0  0  0  0
    7.6780  -12.2210   -0.4550 N   0  0  0  0  0  0  0  0  0  0  0  0
    8.0360  -11.7970    0.9450 C   0  0  0  0  0  0  0  0  0  0  0  0
    9.5610  -11.7850    1.1890 C   0  0  0  0  0  0  0  0  0  0  0  0
   10.3860  -11.7060   -0.0150 N   0  0  0  0  0  0  0  0  0  0  0  0
   11.3750  -12.6170   -0.3190 C   0  0  0  0  0  0  0  0  0  0  0  0
   11.7000  -13.4990    0.4720 O   0  0  0  0  0  0  0  0  0  0  0  0
   12.0390  -12.4980   -1.6430 C   0  0  0  0  0  0  0  0  0  0  0  0
   11.5650  -13.1580   -2.7770 C   0  0  0  0  0  0  0  0  0  0  0  0
   12.2500  -12.9710   -3.9650 C   0  0  0  0  0  0  0  0  0  0  0  0
   13.3410  -12.1860   -4.0820 N   0  0  0  0  0  0  0  0  0  0  0  0
   13.7700  -11.5480   -2.9740 C   0  0  0  0  0  0  0  0  0  0  0  0
   13.1560  -11.6660   -1.7430 C   0  0  0  0  0  0  0  0  0  0  0  0
    6.9920  -11.1360   -1.2830 C   0  0  0  0  0  0  0  0  0  0  0  0
    6.7820  -11.6080   -2.7370 C   0  0  0  0  0  0  0  0  0  0  0  0
    3.5034  -12.4593    0.7833 H   0  0  0  0  0  0  0  0  0  0  0  0
    2.0610  -12.7016   -0.2595 H   0  0  0  0  0  0  0  0  0  0  0  0
    3.3837  -13.9170   -0.2595 H   0  0  0  0  0  0  0  0  0  0  0  0
    1.4435  -12.4658   -2.5407 H   0  0  0  0  0  0  0  0  0  0  0  0
    1.2124  -13.2424   -4.8932 H   0  0  0  0  0  0  0  0  0  0  0  0
    3.2402  -13.8330   -6.2125 H   0  0  0  0  0  0  0  0  0  0  0  0
    5.4887  -13.6457   -5.1806 H   0  0  0  0  0  0  0  0  0  0  0  0
    5.9620  -14.8316   -1.9627 H   0  0  0  0  0  0  0  0  0  0  0  0
    7.6147  -14.2473   -2.3991 H   0  0  0  0  0  0  0  0  0  0  0  0
    5.9103  -13.3714   -0.0049 H   0  0  0  0  0  0  0  0  0  0  0  0
    7.4537  -14.3064    0.0251 H   0  0  0  0  0  0  0  0  0  0  0  0
    8.5720  -12.4220   -0.9510 H   0  0  0  0  0  0  0  0  0  0  0  0
    7.6434  -10.7841    1.1178 H   0  0  0  0  0  0  0  0  0  0  0  0
    7.5929  -12.5270    1.6383 H   0  0  0  0  0  0  0  0  0  0  0  0
    9.7972  -10.9158    1.8204 H   0  0  0  0  0  0  0  0  0  0  0  0
    9.8012  -12.7499    1.6593 H   0  0  0  0  0  0  0  0  0  0  0  0
   10.0740  -11.0740   -0.7430 H   0  0  0  0  0  0  0  0  0  0  0  0
   10.6768  -13.8052   -2.7286 H   0  0  0  0  0  0  0  0  0  0  0  0
   11.8849  -13.4909   -4.8630 H   0  0  0  0  0  0  0  0  0  0  0  0
   14.6551  -10.8999   -3.0552 H   0  0  0  0  0  0  0  0  0  0  0  0
   13.5357  -11.1205   -0.8665 H   0  0  0  0  0  0  0  0  0  0  0  0
    6.0149  -10.9036   -0.8345 H   0  0  0  0  0  0  0  0  0  0  0  0
    7.6316  -10.2411   -1.2914 H   0  0  0  0  0  0  0  0  0  0  0  0
    6.1961  -10.8551   -3.2846 H   0  0  0  0  0  0  0  0  0  0  0  0
    7.7606  -11.7395   -3.2217 H   0  0  0  0  0  0  0  0  0  0  0  0
  1  2  1  0
  2  3  1  0
  3  4  2  0
  4  5  1  0
  5  6  2  0
  6  7  1  0
  7  8  2  0
  8  9  1  0
  9 10  1  0
 10 11  1  0
 11 12  1  0
 12 13  1  0
 13 14  1  0
 14 15  1  0
 15 16  1  0
 16 17  2  0
 16 18  1  0
 18 19  2  0
 19 20  1  0
 20 21  2  0
 21 22  1  0
 22 23  2  0
 12 24  1  0
 24 25  1  0
  8  3  1  0
 25  9  1  0
 23 18  1  0
  1 26  1  0
  1 27  1  0
  1 28  1  0
  4 29  1  0
  5 30  1  0
  6 31  1  0
  7 32  1  0
 10 33  1  0
 10 34  1  0
 11 35  1  0
 11 36  1  0
 12 37  1  0
 13 38  1  0
 13 39  1  0
 14 40  1  0
 14 41  1  0
 15 42  1  0
 19 43  1  0
 20 44  1  0
 22 45  1  0
 23 46  1  0
 24 47  1  0
 24 48  1  0
 25 49  1  0
 25 50  1  0
M  CHG  1  12   1
M  END
>  <meeko>  (4) 
{"is_sidechain": [false], "free_energy": -6.58, "intermolecular_energy": -8.745, "internal_energy": -0.794}

$$$$
LIB_IQYRBWJVVBVMOS__M_PUB_ALL__e8__s20260927
     RDKit          3D

 50 52  0  0  0  0  0  0  0  0999 V2000
   15.3480  -14.9390  -10.9470 C   0  0  0  0  0  0  0  0  0  0  0  0
   15.0490  -14.0720   -9.8570 O   0  0  0  0  0  0  0  0  0  0  0  0
   13.8460  -14.2640   -9.2130 C   0  0  0  0  0  0  0  0  0  0  0  0
   13.6250  -15.3080   -8.3000 C   0  0  0  0  0  0  0  0  0  0  0  0
   12.4080  -15.4260   -7.6290 C   0  0  0  0  0  0  0  0  0  0  0  0
   11.4000  -14.5020   -7.8620 C   0  0  0  0  0  0  0  0  0  0  0  0
   11.6110  -13.4600   -8.7650 C   0  0  0  0  0  0  0  0  0  0  0  0
   12.8260  -13.3110   -9.4620 C   0  0  0  0  0  0  0  0  0  0  0  0
   12.9520  -12.2540  -10.3530 N   0  0  0  0  0  0  0  0  0  0  0  0
   13.6900  -11.0330  -10.0190 C   0  0  0  0  0  0  0  0  0  0  0  0
   12.7370   -9.8240   -9.9280 C   0  0  0  0  0  0  0  0  0  0  0  0
   11.8860   -9.7130  -11.1920 N   0  0  0  0  0  0  0  0  0  0  0  0
   11.0160   -8.4840  -11.2080 C   0  0  0  0  0  0  0  0  0  0  0  0
   11.7520   -7.2320  -10.6800 C   0  0  0  0  0  0  0  0  0  0  0  0
   11.2110   -5.9520  -11.1320 N   0  0  0  0  0  0  0  0  0  0  0  0
   11.9250   -5.0510  -11.8920 C   0  0  0  0  0  0  0  0  0  0  0  0
   13.1150   -5.2250  -12.1440 O   0  0  0  0  0  0  0  0  0  0  0  0
   11.2060   -3.8540  -12.4010 C   0  0  0  0  0  0  0  0  0  0  0  0
   11.8760   -2.7050  -12.8220 C   0  0  0  0  0  0  0  0  0  0  0  0
   11.1140   -1.6500  -13.2910 C   0  0  0  0  0  0  0  0  0  0  0  0
    9.7670   -1.6770  -13.3660 N   0  0  0  0  0  0  0  0  0  0  0  0
    9.1450   -2.8040  -12.9660 C   0  0  0  0  0  0  0  0  0  0  0  0
    9.8140   -3.9120  -12.4850 C   0  0  0  0  0  0  0  0  0  0  0  0
   11.1330  -11.0160  -11.4580 C   0  0  0  0  0  0  0  0  0  0  0  0
   12.1140  -12.2050  -11.5550 C   0  0  0  0  0  0  0  0  0  0  0  0
   15.6837  -15.9124  -10.5599 H   0  0  0  0  0  0  0  0  0  0  0  0
   14.4465  -15.0799  -11.5614 H   0  0  0  0  0  0  0  0  0  0  0  0
   16.1447  -14.4942  -11.5614 H   0  0  0  0  0  0  0  0  0  0  0  0
   14.4221  -16.0422   -8.1116 H   0  0  0  0  0  0  0  0  0  0  0  0
   12.2480  -16.2493   -6.9172 H   0  0  0  0  0  0  0  0  0  0  0  0
   10.4377  -14.5907   -7.3365 H   0  0  0  0  0  0  0  0  0  0  0  0
   10.8042  -12.7326   -8.9381 H   0  0  0  0  0  0  0  0  0  0  0  0
   14.1929  -11.1693   -9.0503 H   0  0  0  0  0  0  0  0  0  0  0  0
   14.4290  -10.8403  -10.8107 H   0  0  0  0  0  0  0  0  0  0  0  0
   12.0764   -9.9493   -9.0574 H   0  0  0  0  0  0  0  0  0  0  0  0
   13.3362   -8.9076   -9.8226 H   0  0  0  0  0  0  0  0  0  0  0  0
   12.5620   -9.6200  -11.9790 H   0  0  0  0  0  0  0  0  0  0  0  0
   10.6931   -8.2936  -12.2422 H   0  0  0  0  0  0  0  0  0  0  0  0
   10.1586   -8.6724  -10.5452 H   0  0  0  0  0  0  0  0  0  0  0  0
   11.7081   -7.2503   -9.5810 H   0  0  0  0  0  0  0  0  0  0  0  0
   12.7745   -7.2886  -11.0815 H   0  0  0  0  0  0  0  0  0  0  0  0
   10.2090   -5.8240  -11.0510 H   0  0  0  0  0  0  0  0  0  0  0  0
   12.9734   -2.6401  -12.7823 H   0  0  0  0  0  0  0  0  0  0  0  0
   11.6348   -0.7390  -13.6209 H   0  0  0  0  0  0  0  0  0  0  0  0
    8.0473   -2.8430  -13.0259 H   0  0  0  0  0  0  0  0  0  0  0  0
    9.2657   -4.8144  -12.1769 H   0  0  0  0  0  0  0  0  0  0  0  0
   10.4254  -11.1982  -10.6357 H   0  0  0  0  0  0  0  0  0  0  0  0
   10.5943  -10.9239  -12.4126 H   0  0  0  0  0  0  0  0  0  0  0  0
   11.5449  -13.1423  -11.6424 H   0  0  0  0  0  0  0  0  0  0  0  0
   12.7543  -12.0775  -12.4403 H   0  0  0  0  0  0  0  0  0  0  0  0
  1  2  1  0
  2  3  1  0
  3  4  2  0
  4  5  1  0
  5  6  2  0
  6  7  1  0
  7  8  2  0
  8  9  1  0
  9 10  1  0
 10 11  1  0
 11 12  1  0
 12 13  1  0
 13 14  1  0
 14 15  1  0
 15 16  1  0
 16 17  2  0
 16 18  1  0
 18 19  2  0
 19 20  1  0
 20 21  2  0
 21 22  1  0
 22 23  2  0
 12 24  1  0
 24 25  1  0
  8  3  1  0
 25  9  1  0
 23 18  1  0
  1 26  1  0
  1 27  1  0
  1 28  1  0
  4 29  1  0
  5 30  1  0
  6 31  1  0
  7 32  1  0
 10 33  1  0
 10 34  1  0
 11 35  1  0
 11 36  1  0
 12 37  1  0
 13 38  1  0
 13 39  1  0
 14 40  1  0
 14 41  1  0
 15 42  1  0
 19 43  1  0
 20 44  1  0
 22 45  1  0
 23 46  1  0
 24 47  1  0
 24 48  1  0
 25 49  1  0
 25 50  1  0
M  CHG  1  12   1
M  END
>  <meeko>  (5) 
{"is_sidechain": [false], "free_energy": -6.509, "intermolecular_energy": -8.912, "internal_energy": -0.53}

$$$$
LIB_IQYRBWJVVBVMOS__M_PUB_ALL__e8__s20260927
     RDKit          3D

 50 52  0  0  0  0  0  0  0  0999 V2000
    9.3120   -9.6260  -11.8990 C   0  0  0  0  0  0  0  0  0  0  0  0
    9.1790  -11.0180  -12.1700 O   0  0  0  0  0  0  0  0  0  0  0  0
    8.6910  -11.8130  -11.1560 C   0  0  0  0  0  0  0  0  0  0  0  0
    7.3430  -11.8070  -10.7610 C   0  0  0  0  0  0  0  0  0  0  0  0
    6.8860  -12.6730   -9.7680 C   0  0  0  0  0  0  0  0  0  0  0  0
    7.7680  -13.5540   -9.1610 C   0  0  0  0  0  0  0  0  0  0  0  0
    9.1080  -13.5690   -9.5490 C   0  0  0  0  0  0  0  0  0  0  0  0
    9.6060  -12.7070  -10.5460 C   0  0  0  0  0  0  0  0  0  0  0  0
   10.9560  -12.7770  -10.8650 N   0  0  0  0  0  0  0  0  0  0  0  0
   11.5390  -13.9340  -11.5470 C   0  0  0  0  0  0  0  0  0  0  0  0
   12.5200  -14.6800  -10.6200 C   0  0  0  0  0  0  0  0  0  0  0  0
   13.5490  -13.7140  -10.0360 N   0  0  0  0  0  0  0  0  0  0  0  0
   14.6020  -14.4060   -9.2120 C   0  0  0  0  0  0  0  0  0  0  0  0
   14.0090  -15.1410   -7.9880 C   0  0  0  0  0  0  0  0  0  0  0  0
   13.5840  -14.2790   -6.8870 N   0  0  0  0  0  0  0  0  0  0  0  0
   13.7690  -14.5960   -5.5590 C   0  0  0  0  0  0  0  0  0  0  0  0
   14.2080  -15.6920   -5.2160 O   0  0  0  0  0  0  0  0  0  0  0  0
   13.4170  -13.5660   -4.5480 C   0  0  0  0  0  0  0  0  0  0  0  0
   14.3700  -12.7150   -3.9880 C   0  0  0  0  0  0  0  0  0  0  0  0
   13.9360  -11.7810   -3.0630 C   0  0  0  0  0  0  0  0  0  0  0  0
   12.6490  -11.6500   -2.6820 N   0  0  0  0  0  0  0  0  0  0  0  0
   11.7450  -12.4760   -3.2480 C   0  0  0  0  0  0  0  0  0  0  0  0
   12.0750  -13.4390   -4.1820 C   0  0  0  0  0  0  0  0  0  0  0  0
   12.8620  -12.5500   -9.3250 C   0  0  0  0  0  0  0  0  0  0  0  0
   11.8970  -11.8170  -10.2810 C   0  0  0  0  0  0  0  0  0  0  0  0
    9.3275   -9.4641  -10.8111 H   0  0  0  0  0  0  0  0  0  0  0  0
   10.2497   -9.2549  -12.3383 H   0  0  0  0  0  0  0  0  0  0  0  0
    8.4615   -9.0840  -12.3383 H   0  0  0  0  0  0  0  0  0  0  0  0
    6.6393  -11.1108  -11.2407 H   0  0  0  0  0  0  0  0  0  0  0  0
    5.8281  -12.6572   -9.4670 H   0  0  0  0  0  0  0  0  0  0  0  0
    7.4126  -14.2384   -8.3766 H   0  0  0  0  0  0  0  0  0  0  0  0
    9.7965  -14.2751   -9.0618 H   0  0  0  0  0  0  0  0  0  0  0  0
   10.7329  -14.6202  -11.8459 H   0  0  0  0  0  0  0  0  0  0  0  0
   12.0895  -13.5810  -12.4315 H   0  0  0  0  0  0  0  0  0  0  0  0
   11.9567  -15.1477   -9.7990 H   0  0  0  0  0  0  0  0  0  0  0  0
   13.0470  -15.4474  -11.2059 H   0  0  0  0  0  0  0  0  0  0  0  0
   14.0330  -13.2900  -10.8550 H   0  0  0  0  0  0  0  0  0  0  0  0
   15.1206  -15.1397   -9.8467 H   0  0  0  0  0  0  0  0  0  0  0  0
   15.2919  -13.6357   -8.8369 H   0  0  0  0  0  0  0  0  0  0  0  0
   13.1341  -15.7149   -8.3274 H   0  0  0  0  0  0  0  0  0  0  0  0
   14.8195  -15.7679   -7.5878 H   0  0  0  0  0  0  0  0  0  0  0  0
   13.3310  -13.3260   -7.1240 H   0  0  0  0  0  0  0  0  0  0  0  0
   15.4305  -12.7838   -4.2719 H   0  0  0  0  0  0  0  0  0  0  0  0
   14.6819  -11.1087   -2.6140 H   0  0  0  0  0  0  0  0  0  0  0  0
   10.6906  -12.3777   -2.9505 H   0  0  0  0  0  0  0  0  0  0  0  0
   11.3037  -14.0866   -4.6244 H   0  0  0  0  0  0  0  0  0  0  0  0
   12.2942  -12.9366   -8.4659 H   0  0  0  0  0  0  0  0  0  0  0  0
   13.6310  -11.8397   -8.9871 H   0  0  0  0  0  0  0  0  0  0  0  0
   11.3388  -11.0521   -9.7213 H   0  0  0  0  0  0  0  0  0  0  0  0
   12.4749  -11.3381  -11.0852 H   0  0  0  0  0  0  0  0  0  0  0  0
  1  2  1  0
  2  3  1  0
  3  4  2  0
  4  5  1  0
  5  6  2  0
  6  7  1  0
  7  8  2  0
  8  9  1  0
  9 10  1  0
 10 11  1  0
 11 12  1  0
 12 13  1  0
 13 14  1  0
 14 15  1  0
 15 16  1  0
 16 17  2  0
 16 18  1  0
 18 19  2  0
 19 20  1  0
 20 21  2  0
 21 22  1  0
 22 23  2  0
 12 24  1  0
 24 25  1  0
  8  3  1  0
 25  9  1  0
 23 18  1  0
  1 26  1  0
  1 27  1  0
  1 28  1  0
  4 29  1  0
  5 30  1  0
  6 31  1  0
  7 32  1  0
 10 33  1  0
 10 34  1  0
 11 35  1  0
 11 36  1  0
 12 37  1  0
 13 38  1  0
 13 39  1  0
 14 40  1  0
 14 41  1  0
 15 42  1  0
 19 43  1  0
 20 44  1  0
 22 45  1  0
 23 46  1  0
 24 47  1  0
 24 48  1  0
 25 49  1  0
 25 50  1  0
M  CHG  1  12   1
M  END
>  <meeko>  (6) 
{"is_sidechain": [false], "free_energy": -6.477, "intermolecular_energy": -8.951, "internal_energy": -0.448}

$$$$
LIB_IQYRBWJVVBVMOS__M_PUB_ALL__e8__s20260927
     RDKit          3D

 50 52  0  0  0  0  0  0  0  0999 V2000
   -3.3800  -16.3740    8.4290 C   0  0  0  0  0  0  0  0  0  0  0  0
   -4.2050  -17.0510    7.4860 O   0  0  0  0  0  0  0  0  0  0  0  0
   -4.9510  -16.2700    6.6290 C   0  0  0  0  0  0  0  0  0  0  0  0
   -6.0880  -15.5550    7.0410 C   0  0  0  0  0  0  0  0  0  0  0  0
   -6.7750  -14.7330    6.1480 C   0  0  0  0  0  0  0  0  0  0  0  0
   -6.3350  -14.6140    4.8390 C   0  0  0  0  0  0  0  0  0  0  0  0
   -5.2040  -15.3180    4.4220 C   0  0  0  0  0  0  0  0  0  0  0  0
   -4.4870  -16.1610    5.2950 C   0  0  0  0  0  0  0  0  0  0  0  0
   -3.3790  -16.8360    4.7980 N   0  0  0  0  0  0  0  0  0  0  0  0
   -2.0270  -16.2780    4.8690 C   0  0  0  0  0  0  0  0  0  0  0  0
   -1.4910  -15.9610    3.4580 C   0  0  0  0  0  0  0  0  0  0  0  0
   -1.6180  -17.1800    2.5470 N   0  0  0  0  0  0  0  0  0  0  0  0
   -1.0050  -16.9640    1.1880 C   0  0  0  0  0  0  0  0  0  0  0  0
   -2.0050  -16.3590    0.1770 C   0  0  0  0  0  0  0  0  0  0  0  0
   -1.9970  -14.9010    0.0860 N   0  0  0  0  0  0  0  0  0  0  0  0
   -2.9710  -14.0990    0.6400 C   0  0  0  0  0  0  0  0  0  0  0  0
   -3.9790  -14.5780    1.1560 O   0  0  0  0  0  0  0  0  0  0  0  0
   -2.7650  -12.6290    0.5940 C   0  0  0  0  0  0  0  0  0  0  0  0
   -3.6060  -11.7790   -0.1250 C   0  0  0  0  0  0  0  0  0  0  0  0
   -3.3340  -10.4230   -0.0920 C   0  0  0  0  0  0  0  0  0  0  0  0
   -2.3070   -9.8840    0.5970 N   0  0  0  0  0  0  0  0  0  0  0  0
   -1.5170  -10.7250    1.2950 C   0  0  0  0  0  0  0  0  0  0  0  0
   -1.7050  -12.0920    1.3290 C   0  0  0  0  0  0  0  0  0  0  0  0
   -3.0580  -17.6870    2.5110 C   0  0  0  0  0  0  0  0  0  0  0  0
   -3.5620  -18.0070    3.9350 C   0  0  0  0  0  0  0  0  0  0  0  0
   -3.6984  -16.6353    9.4490 H   0  0  0  0  0  0  0  0  0  0  0  0
   -2.3324  -16.6762    8.2832 H   0  0  0  0  0  0  0  0  0  0  0  0
   -3.4719  -15.2876    8.2832 H   0  0  0  0  0  0  0  0  0  0  0  0
   -6.4402  -15.6445    8.0792 H   0  0  0  0  0  0  0  0  0  0  0  0
   -7.6651  -14.1797    6.4821 H   0  0  0  0  0  0  0  0  0  0  0  0
   -6.8749  -13.9674    4.1316 H   0  0  0  0  0  0  0  0  0  0  0  0
   -4.8624  -15.2118    3.3818 H   0  0  0  0  0  0  0  0  0  0  0  0
   -2.0496  -15.3522    5.4627 H   0  0  0  0  0  0  0  0  0  0  0  0
   -1.3640  -17.0186    5.3401 H   0  0  0  0  0  0  0  0  0  0  0  0
   -2.0693  -15.1286    3.0304 H   0  0  0  0  0  0  0  0  0  0  0  0
   -0.4287  -15.6865    3.5362 H   0  0  0  0  0  0  0  0  0  0  0  0
   -1.0710  -17.9360    3.0110 H   0  0  0  0  0  0  0  0  0  0  0  0
   -0.1502  -16.2794    1.2914 H   0  0  0  0  0  0  0  0  0  0  0  0
   -0.6927  -17.9457    0.8024 H   0  0  0  0  0  0  0  0  0  0  0  0
   -1.7679  -16.7627   -0.8184 H   0  0  0  0  0  0  0  0  0  0  0  0
   -3.0066  -16.6353    0.5381 H   0  0  0  0  0  0  0  0  0  0  0  0
   -1.1340  -14.4660   -0.2210 H   0  0  0  0  0  0  0  0  0  0  0  0
   -4.4571  -12.1740   -0.6991 H   0  0  0  0  0  0  0  0  0  0  0  0
   -3.9913   -9.7471   -0.6587 H   0  0  0  0  0  0  0  0  0  0  0  0
   -0.6793  -10.2995    1.8670 H   0  0  0  0  0  0  0  0  0  0  0  0
   -1.0393  -12.7401    1.9179 H   0  0  0  0  0  0  0  0  0  0  0  0
   -3.7016  -16.9139    2.0658 H   0  0  0  0  0  0  0  0  0  0  0  0
   -3.0930  -18.6072    1.9093 H   0  0  0  0  0  0  0  0  0  0  0  0
   -4.6297  -18.2686    3.8949 H   0  0  0  0  0  0  0  0  0  0  0  0
   -2.9897  -18.8533    4.3427 H   0  0  0  0  0  0  0  0  0  0  0  0
  1  2  1  0
  2  3  1  0
  3  4  2  0
  4  5  1  0
  5  6  2  0
  6  7  1  0
  7  8  2  0
  8  9  1  0
  9 10  1  0
 10 11  1  0
 11 12  1  0
 12 13  1  0
 13 14  1  0
 14 15  1  0
 15 16  1  0
 16 17  2  0
 16 18  1  0
 18 19  2  0
 19 20  1  0
 20 21  2  0
 21 22  1  0
 22 23  2  0
 12 24  1  0
 24 25  1  0
  8  3  1  0
 25  9  1  0
 23 18  1  0
  1 26  1  0
  1 27  1  0
  1 28  1  0
  4 29  1  0
  5 30  1  0
  6 31  1  0
  7 32  1  0
 10 33  1  0
 10 34  1  0
 11 35  1  0
 11 36  1  0
 12 37  1  0
 13 38  1  0
 13 39  1  0
 14 40  1  0
 14 41  1  0
 15 42  1  0
 19 43  1  0
 20 44  1  0
 22 45  1  0
 23 46  1  0
 24 47  1  0
 24 48  1  0
 25 49  1  0
 25 50  1  0
M  CHG  1  12   1
M  END
>  <meeko>  (7) 
{"is_sidechain": [false], "free_energy": -6.388, "intermolecular_energy": -8.173, "internal_energy": -1.106}

$$$$
LIB_IQYRBWJVVBVMOS__M_PUB_ALL__e8__s20260927
     RDKit          3D

 50 52  0  0  0  0  0  0  0  0999 V2000
   13.8370  -11.2810   -3.2040 C   0  0  0  0  0  0  0  0  0  0  0  0
   13.5290  -12.3540   -2.3200 O   0  0  0  0  0  0  0  0  0  0  0  0
   12.7230  -12.0680   -1.2390 C   0  0  0  0  0  0  0  0  0  0  0  0
   12.9530  -10.9800   -0.3810 C   0  0  0  0  0  0  0  0  0  0  0  0
   12.0740  -10.6980    0.6650 C   0  0  0  0  0  0  0  0  0  0  0  0
   10.9580  -11.4970    0.8630 C   0  0  0  0  0  0  0  0  0  0  0  0
   10.7200  -12.5770    0.0130 C   0  0  0  0  0  0  0  0  0  0  0  0
   11.5870  -12.8940   -1.0510 C   0  0  0  0  0  0  0  0  0  0  0  0
   11.2850  -13.9940   -1.8430 N   0  0  0  0  0  0  0  0  0  0  0  0
   12.0030  -15.2650   -1.7220 C   0  0  0  0  0  0  0  0  0  0  0  0
   12.8240  -15.5540   -2.9960 C   0  0  0  0  0  0  0  0  0  0  0  0
   11.9440  -15.4490   -4.2400 N   0  0  0  0  0  0  0  0  0  0  0  0
   12.6660  -15.8330   -5.5040 C   0  0  0  0  0  0  0  0  0  0  0  0
   13.8450  -14.8860   -5.8240 C   0  0  0  0  0  0  0  0  0  0  0  0
   14.1150  -14.6820   -7.2450 N   0  0  0  0  0  0  0  0  0  0  0  0
   15.1930  -15.2360   -7.9010 C   0  0  0  0  0  0  0  0  0  0  0  0
   16.0650  -15.8530   -7.2940 O   0  0  0  0  0  0  0  0  0  0  0  0
   15.2680  -15.0620   -9.3750 C   0  0  0  0  0  0  0  0  0  0  0  0
   14.4500  -14.1650  -10.0630 C   0  0  0  0  0  0  0  0  0  0  0  0
   14.6090  -14.0700  -11.4350 C   0  0  0  0  0  0  0  0  0  0  0  0
   15.5090  -14.7920  -12.1340 N   0  0  0  0  0  0  0  0  0  0  0  0
   16.2960  -15.6410  -11.4440 C   0  0  0  0  0  0  0  0  0  0  0  0
   16.2190  -15.8080  -10.0750 C   0  0  0  0  0  0  0  0  0  0  0  0
   11.2490  -14.0900   -4.3030 C   0  0  0  0  0  0  0  0  0  0  0  0
   10.4270  -13.8350   -3.0210 C   0  0  0  0  0  0  0  0  0  0  0  0
   14.0939  -10.3859   -2.6186 H   0  0  0  0  0  0  0  0  0  0  0  0
   14.6908  -11.5619   -3.8382 H   0  0  0  0  0  0  0  0  0  0  0  0
   12.9642  -11.0663   -3.8382 H   0  0  0  0  0  0  0  0  0  0  0  0
   13.8363  -10.3430   -0.5356 H   0  0  0  0  0  0  0  0  0  0  0  0
   12.2657   -9.8439    1.3311 H   0  0  0  0  0  0  0  0  0  0  0  0
   10.2629  -11.2798    1.6875 H   0  0  0  0  0  0  0  0  0  0  0  0
    9.8286  -13.1998    0.1785 H   0  0  0  0  0  0  0  0  0  0  0  0
   12.6828  -15.2144   -0.8587 H   0  0  0  0  0  0  0  0  0  0  0  0
   11.2691  -16.0728   -1.5847 H   0  0  0  0  0  0  0  0  0  0  0  0
   13.6437  -14.8243   -3.0708 H   0  0  0  0  0  0  0  0  0  0  0  0
   13.2273  -16.5754   -2.9330 H   0  0  0  0  0  0  0  0  0  0  0  0
   11.1790  -16.1430   -4.1020 H   0  0  0  0  0  0  0  0  0  0  0  0
   13.0556  -16.8554   -5.3908 H   0  0  0  0  0  0  0  0  0  0  0  0
   11.9470  -15.7633   -6.3336 H   0  0  0  0  0  0  0  0  0  0  0  0
   13.6246  -13.9058   -5.3760 H   0  0  0  0  0  0  0  0  0  0  0  0
   14.7429  -15.3683   -5.4104 H   0  0  0  0  0  0  0  0  0  0  0  0
   13.3660  -14.2850   -7.8010 H   0  0  0  0  0  0  0  0  0  0  0  0
   13.7042  -13.5541   -9.5333 H   0  0  0  0  0  0  0  0  0  0  0  0
   13.9662  -13.3672  -11.9854 H   0  0  0  0  0  0  0  0  0  0  0  0
   17.0386  -16.2319  -12.0002 H   0  0  0  0  0  0  0  0  0  0  0  0
   16.8869  -16.5079   -9.5515 H   0  0  0  0  0  0  0  0  0  0  0  0
   12.0083  -13.3010   -4.4075 H   0  0  0  0  0  0  0  0  0  0  0  0
   10.5675  -14.0820   -5.1664 H   0  0  0  0  0  0  0  0  0  0  0  0
   10.0228  -12.8122   -3.0434 H   0  0  0  0  0  0  0  0  0  0  0  0
    9.6000  -14.5584   -2.9691 H   0  0  0  0  0  0  0  0  0  0  0  0
  1  2  1  0
  2  3  1  0
  3  4  2  0
  4  5  1  0
  5  6  2  0
  6  7  1  0
  7  8  2  0
  8  9  1  0
  9 10  1  0
 10 11  1  0
 11 12  1  0
 12 13  1  0
 13 14  1  0
 14 15  1  0
 15 16  1  0
 16 17  2  0
 16 18  1  0
 18 19  2  0
 19 20  1  0
 20 21  2  0
 21 22  1  0
 22 23  2  0
 12 24  1  0
 24 25  1  0
  8  3  1  0
 25  9  1  0
 23 18  1  0
  1 26  1  0
  1 27  1  0
  1 28  1  0
  4 29  1  0
  5 30  1  0
  6 31  1  0
  7 32  1  0
 10 33  1  0
 10 34  1  0
 11 35  1  0
 11 36  1  0
 12 37  1  0
 13 38  1  0
 13 39  1  0
 14 40  1  0
 14 41  1  0
 15 42  1  0
 19 43  1  0
 20 44  1  0
 22 45  1  0
 23 46  1  0
 24 47  1  0
 24 48  1  0
 25 49  1  0
 25 50  1  0
M  CHG  1  12   1
M  END
>  <meeko>  (8) 
{"is_sidechain": [false], "free_energy": -6.371, "intermolecular_energy": -8.609, "internal_energy": -0.646}

$$$$
LIB_IQYRBWJVVBVMOS__M_PUB_ALL__e8__s20260927
     RDKit          3D

 50 52  0  0  0  0  0  0  0  0999 V2000
   -8.0540  -18.4740   10.1070 C   0  0  0  0  0  0  0  0  0  0  0  0
   -7.6390  -18.1730    8.7790 O   0  0  0  0  0  0  0  0  0  0  0  0
   -7.1960  -16.8910    8.5340 C   0  0  0  0  0  0  0  0  0  0  0  0
   -6.0490  -16.3500    9.1360 C   0  0  0  0  0  0  0  0  0  0  0  0
   -5.6090  -15.0660    8.8110 C   0  0  0  0  0  0  0  0  0  0  0  0
   -6.3090  -14.3120    7.8810 C   0  0  0  0  0  0  0  0  0  0  0  0
   -7.4480  -14.8430    7.2760 C   0  0  0  0  0  0  0  0  0  0  0  0
   -7.9240  -16.1330    7.5820 C   0  0  0  0  0  0  0  0  0  0  0  0
   -9.0720  -16.5830    6.9440 N   0  0  0  0  0  0  0  0  0  0  0  0
  -10.4010  -16.4600    7.5490 C   0  0  0  0  0  0  0  0  0  0  0  0
  -10.9820  -17.8490    7.8820 C   0  0  0  0  0  0  0  0  0  0  0  0
  -10.9340  -18.7610    6.6570 N   0  0  0  0  0  0  0  0  0  0  0  0
  -11.5920  -20.0950    6.8920 C   0  0  0  0  0  0  0  0  0  0  0  0
  -10.5740  -21.2560    6.9540 C   0  0  0  0  0  0  0  0  0  0  0  0
  -11.0610  -22.4830    7.5800 N   0  0  0  0  0  0  0  0  0  0  0  0
  -10.9030  -22.7670    8.9190 C   0  0  0  0  0  0  0  0  0  0  0  0
  -10.2340  -22.0440    9.6540 O   0  0  0  0  0  0  0  0  0  0  0  0
  -11.5710  -23.9830    9.4510 C   0  0  0  0  0  0  0  0  0  0  0  0
  -12.1800  -24.9230    8.6190 C   0  0  0  0  0  0  0  0  0  0  0  0
  -12.7630  -26.0290    9.2140 C   0  0  0  0  0  0  0  0  0  0  0  0
  -12.7700  -26.2430   10.5460 N   0  0  0  0  0  0  0  0  0  0  0  0
  -12.1630  -25.3260   11.3260 C   0  0  0  0  0  0  0  0  0  0  0  0
  -11.5500  -24.1920   10.8310 C   0  0  0  0  0  0  0  0  0  0  0  0
   -9.5140  -18.8530    6.1010 C   0  0  0  0  0  0  0  0  0  0  0  0
   -8.9650  -17.4490    5.7670 C   0  0  0  0  0  0  0  0  0  0  0  0
   -7.3777  -17.9835   10.8226 H   0  0  0  0  0  0  0  0  0  0  0  0
   -9.0798  -18.1085   10.2623 H   0  0  0  0  0  0  0  0  0  0  0  0
   -8.0252  -19.5626   10.2623 H   0  0  0  0  0  0  0  0  0  0  0  0
   -5.4901  -16.9454    9.8730 H   0  0  0  0  0  0  0  0  0  0  0  0
   -4.7095  -14.6532    9.2911 H   0  0  0  0  0  0  0  0  0  0  0  0
   -5.9672  -13.2991    7.6215 H   0  0  0  0  0  0  0  0  0  0  0  0
   -7.9914  -14.2357    6.5371 H   0  0  0  0  0  0  0  0  0  0  0  0
  -10.3228  -15.8706    8.4744 H   0  0  0  0  0  0  0  0  0  0  0  0
  -11.0697  -15.9608    6.8323 H   0  0  0  0  0  0  0  0  0  0  0  0
  -10.3930  -18.3021    8.6930 H   0  0  0  0  0  0  0  0  0  0  0  0
  -12.0302  -17.7291    8.1934 H   0  0  0  0  0  0  0  0  0  0  0  0
  -11.4870  -18.2730    5.9210 H   0  0  0  0  0  0  0  0  0  0  0  0
  -12.1394  -20.0549    7.8453 H   0  0  0  0  0  0  0  0  0  0  0  0
  -12.2668  -20.2879    6.0450 H   0  0  0  0  0  0  0  0  0  0  0  0
  -10.2711  -21.4973    5.9244 H   0  0  0  0  0  0  0  0  0  0  0  0
   -9.7468  -20.9007    7.5860 H   0  0  0  0  0  0  0  0  0  0  0  0
  -11.7150  -23.0410    7.0440 H   0  0  0  0  0  0  0  0  0  0  0  0
  -12.1964  -24.7899    7.5272 H   0  0  0  0  0  0  0  0  0  0  0  0
  -13.2469  -26.7739    8.5652 H   0  0  0  0  0  0  0  0  0  0  0  0
  -12.1557  -25.4898   12.4137 H   0  0  0  0  0  0  0  0  0  0  0  0
  -11.0593  -23.4741   11.5047 H   0  0  0  0  0  0  0  0  0  0  0  0
   -8.8629  -19.3260    6.8508 H   0  0  0  0  0  0  0  0  0  0  0  0
   -9.5340  -19.4527    5.1791 H   0  0  0  0  0  0  0  0  0  0  0  0
   -7.9095  -17.5309    5.4682 H   0  0  0  0  0  0  0  0  0  0  0  0
   -9.5503  -17.0161    4.9424 H   0  0  0  0  0  0  0  0  0  0  0  0
  1  2  1  0
  2  3  1  0
  3  4  2  0
  4  5  1  0
  5  6  2  0
  6  7  1  0
  7  8  2  0
  8  9  1  0
  9 10  1  0
 10 11  1  0
 11 12  1  0
 12 13  1  0
 13 14  1  0
 14 15  1  0
 15 16  1  0
 16 17  2  0
 16 18  1  0
 18 19  2  0
 19 20  1  0
 20 21  2  0
 21 22  1  0
 22 23  2  0
 12 24  1  0
 24 25  1  0
  8  3  1  0
 25  9  1  0
 23 18  1  0
  1 26  1  0
  1 27  1  0
  1 28  1  0
  4 29  1  0
  5 30  1  0
  6 31  1  0
  7 32  1  0
 10 33  1  0
 10 34  1  0
 11 35  1  0
 11 36  1  0
 12 37  1  0
 13 38  1  0
 13 39  1  0
 14 40  1  0
 14 41  1  0
 15 42  1  0
 19 43  1  0
 20 44  1  0
 22 45  1  0
 23 46  1  0
 24 47  1  0
 24 48  1  0
 25 49  1  0
 25 50  1  0
M  CHG  1  12   1
M  END
>  <meeko>  (9) 
{"is_sidechain": [false], "free_energy": -6.251, "intermolecular_energy": -8.401, "internal_energy": -0.692}

$$$$
