LIB_IWDJIZYURLLLMQ__M_PUB_ALL__e8__s20260927
     RDKit          3D

 43 45  0  0  0  0  0  0  0  0999 V2000
  -14.0860  -17.1410   -4.7120 C   0  0  0  0  0  0  0  0  0  0  0  0
  -13.3080  -17.0920   -6.0150 C   0  0  0  0  0  0  0  0  0  0  0  0
  -12.5930  -15.8590   -6.0510 O   0  0  0  0  0  0  0  0  0  0  0  0
  -11.4680  -15.7960   -6.8340 C   0  0  0  0  0  0  0  0  0  0  0  0
  -10.2520  -16.4160   -6.5200 C   0  0  0  0  0  0  0  0  0  0  0  0
   -9.2060  -16.2790   -7.4090 C   0  0  0  0  0  0  0  0  0  0  0  0
   -9.3280  -15.5640   -8.5740 C   0  0  0  0  0  0  0  0  0  0  0  0
  -10.5050  -14.9380   -8.9160 C   0  0  0  0  0  0  0  0  0  0  0  0
  -11.5970  -15.0440   -8.0330 C   0  0  0  0  0  0  0  0  0  0  0  0
  -12.9040  -14.3770   -8.4100 C   0  0  0  0  0  0  0  0  0  0  0  0
  -13.0280  -13.0000   -7.8200 C   0  0  0  0  0  0  0  0  0  0  0  0
  -13.9440  -12.0970   -8.2050 C   0  0  0  0  0  0  0  0  0  0  0  0
  -14.0620  -10.7510   -7.6310 C   0  0  0  0  0  0  0  0  0  0  0  0
  -15.3230  -10.1450   -7.5720 C   0  0  0  0  0  0  0  0  0  0  0  0
  -15.4850   -8.8730   -7.0070 C   0  0  0  0  0  0  0  0  0  0  0  0
  -14.3860   -8.1940   -6.4820 C   0  0  0  0  0  0  0  0  0  0  0  0
  -14.4040   -6.9550   -5.9050 O   0  0  0  0  0  0  0  0  0  0  0  0
  -13.4830   -6.7260   -4.8470 C   0  0  0  0  0  0  0  0  0  0  0  0
  -13.1290   -8.8010   -6.5240 C   0  0  0  0  0  0  0  0  0  0  0  0
  -12.9670  -10.0700   -7.0890 C   0  0  0  0  0  0  0  0  0  0  0  0
   -8.1820  -15.5590   -9.3060 O   0  0  0  0  0  0  0  0  0  0  0  0
   -7.3220  -16.3580   -8.4680 C   0  0  0  0  0  0  0  0  0  0  0  0
   -7.9640  -16.8160   -7.2590 O   0  0  0  0  0  0  0  0  0  0  0  0
  -13.3857  -17.0969   -3.8649 H   0  0  0  0  0  0  0  0  0  0  0  0
  -14.7744  -16.2844   -4.6636 H   0  0  0  0  0  0  0  0  0  0  0  0
  -14.6615  -18.0772   -4.6636 H   0  0  0  0  0  0  0  0  0  0  0  0
  -12.6026  -17.9348   -6.0613 H   0  0  0  0  0  0  0  0  0  0  0  0
  -13.9922  -17.1640   -6.8733 H   0  0  0  0  0  0  0  0  0  0  0  0
  -10.1345  -16.9950   -5.5921 H   0  0  0  0  0  0  0  0  0  0  0  0
  -10.5905  -14.3700   -9.8541 H   0  0  0  0  0  0  0  0  0  0  0  0
  -12.9593  -14.2994   -9.5059 H   0  0  0  0  0  0  0  0  0  0  0  0
  -13.7247  -14.9912   -8.0110 H   0  0  0  0  0  0  0  0  0  0  0  0
  -12.3249  -12.7145   -7.0237 H   0  0  0  0  0  0  0  0  0  0  0  0
  -14.6492  -12.3833   -8.9992 H   0  0  0  0  0  0  0  0  0  0  0  0
  -16.1987  -10.6750   -7.9749 H   0  0  0  0  0  0  0  0  0  0  0  0
  -16.4818   -8.4088   -6.9775 H   0  0  0  0  0  0  0  0  0  0  0  0
  -13.9946   -6.8532   -3.8816 H   0  0  0  0  0  0  0  0  0  0  0  0
  -12.6541   -7.4454   -4.9203 H   0  0  0  0  0  0  0  0  0  0  0  0
  -13.0875   -5.7022   -4.9203 H   0  0  0  0  0  0  0  0  0  0  0  0
  -12.2568   -8.2753   -6.1082 H   0  0  0  0  0  0  0  0  0  0  0  0
  -11.9708  -10.5362   -7.1073 H   0  0  0  0  0  0  0  0  0  0  0  0
   -6.9935  -17.2366   -9.0427 H   0  0  0  0  0  0  0  0  0  0  0  0
   -6.4787  -15.7196   -8.1660 H   0  0  0  0  0  0  0  0  0  0  0  0
  1  2  1  0
  2  3  1  0
  3  4  1  0
  4  5  2  0
  5  6  1  0
  6  7  2  0
  7  8  1  0
  8  9  2  0
  9 10  1  0
 10 11  1  0
 11 12  2  0
 12 13  1  0
 13 14  2  0
 14 15  1  0
 15 16  2  0
 16 17  1  0
 17 18  1  0
 16 19  1  0
 19 20  2  0
  7 21  1  0
 21 22  1  0
 22 23  1  0
  9  4  1  0
 20 13  1  0
 23  6  1  0
  1 24  1  0
  1 25  1  0
  1 26  1  0
  2 27  1  0
  2 28  1  0
  5 29  1  0
  8 30  1  0
 10 31  1  0
 10 32  1  0
 11 33  1  0
 12 34  1  0
 14 35  1  0
 15 36  1  0
 18 37  1  0
 18 38  1  0
 18 39  1  0
 19 40  1  0
 20 41  1  0
 22 42  1  0
 22 43  1  0
M  END
>  <meeko>  (1) 
{"is_sidechain": [false], "free_energy": -6.975, "intermolecular_energy": -9.422, "internal_energy": -0.636}

$$$$
LIB_IWDJIZYURLLLMQ__M_PUB_ALL__e8__s20260927
     RDKit          3D

 43 45  0  0  0  0  0  0  0  0999 V2000
   -3.3040  -10.3850   -0.0560 C   0  0  0  0  0  0  0  0  0  0  0  0
   -4.2770  -11.3460   -0.7180 C   0  0  0  0  0  0  0  0  0  0  0  0
   -4.7970  -12.2060    0.2940 O   0  0  0  0  0  0  0  0  0  0  0  0
   -4.0320  -13.2820    0.6690 C   0  0  0  0  0  0  0  0  0  0  0  0
   -3.1610  -13.9690   -0.1860 C   0  0  0  0  0  0  0  0  0  0  0  0
   -2.4440  -15.0270    0.3320 C   0  0  0  0  0  0  0  0  0  0  0  0
   -2.5600  -15.4140    1.6430 C   0  0  0  0  0  0  0  0  0  0  0  0
   -3.4070  -14.7670    2.5140 C   0  0  0  0  0  0  0  0  0  0  0  0
   -4.1660  -13.6860    2.0250 C   0  0  0  0  0  0  0  0  0  0  0  0
   -5.0850  -12.9530    2.9800 C   0  0  0  0  0  0  0  0  0  0  0  0
   -6.0810  -13.8750    3.6280 C   0  0  0  0  0  0  0  0  0  0  0  0
   -6.1490  -14.0980    4.9500 C   0  0  0  0  0  0  0  0  0  0  0  0
   -7.1190  -15.0020    5.5820 C   0  0  0  0  0  0  0  0  0  0  0  0
   -7.2090  -15.0340    6.9780 C   0  0  0  0  0  0  0  0  0  0  0  0
   -8.1400  -15.8610    7.6210 C   0  0  0  0  0  0  0  0  0  0  0  0
   -9.0030  -16.6600    6.8710 C   0  0  0  0  0  0  0  0  0  0  0  0
   -9.9520  -17.5080    7.3690 O   0  0  0  0  0  0  0  0  0  0  0  0
   -9.5020  -18.7700    7.8420 C   0  0  0  0  0  0  0  0  0  0  0  0
   -8.9270  -16.6190    5.4780 C   0  0  0  0  0  0  0  0  0  0  0  0
   -7.9970  -15.7950    4.8360 C   0  0  0  0  0  0  0  0  0  0  0  0
   -1.7630  -16.4720    1.9470 O   0  0  0  0  0  0  0  0  0  0  0  0
   -1.1280  -16.7070    0.6740 C   0  0  0  0  0  0  0  0  0  0  0  0
   -1.5570  -15.7950   -0.3590 O   0  0  0  0  0  0  0  0  0  0  0  0
   -3.3907  -10.4706    1.0372 H   0  0  0  0  0  0  0  0  0  0  0  0
   -2.2773  -10.6333   -0.3630 H   0  0  0  0  0  0  0  0  0  0  0  0
   -3.5396   -9.3553   -0.3630 H   0  0  0  0  0  0  0  0  0  0  0  0
   -5.0968  -10.7834   -1.1885 H   0  0  0  0  0  0  0  0  0  0  0  0
   -3.7676  -11.9329   -1.4965 H   0  0  0  0  0  0  0  0  0  0  0  0
   -3.0520  -13.6733   -1.2399 H   0  0  0  0  0  0  0  0  0  0  0  0
   -3.4889  -15.0856    3.5637 H   0  0  0  0  0  0  0  0  0  0  0  0
   -4.4765  -12.4803    3.7650 H   0  0  0  0  0  0  0  0  0  0  0  0
   -5.6446  -12.2027    2.4021 H   0  0  0  0  0  0  0  0  0  0  0  0
   -6.7979  -14.3989    2.9787 H   0  0  0  0  0  0  0  0  0  0  0  0
   -5.4345  -13.5715    5.5998 H   0  0  0  0  0  0  0  0  0  0  0  0
   -6.5396  -14.4012    7.5792 H   0  0  0  0  0  0  0  0  0  0  0  0
   -8.1903  -15.8801    8.7197 H   0  0  0  0  0  0  0  0  0  0  0  0
   -9.5018  -18.7705    8.9420 H   0  0  0  0  0  0  0  0  0  0  0  0
  -10.1739  -19.5599    7.4751 H   0  0  0  0  0  0  0  0  0  0  0  0
   -8.4819  -18.9566    7.4751 H   0  0  0  0  0  0  0  0  0  0  0  0
   -9.6065  -17.2421    4.8780 H   0  0  0  0  0  0  0  0  0  0  0  0
   -7.9558  -15.7704    3.7370 H   0  0  0  0  0  0  0  0  0  0  0  0
   -0.0406  -16.6015    0.8023 H   0  0  0  0  0  0  0  0  0  0  0  0
   -1.4131  -17.7193    0.3515 H   0  0  0  0  0  0  0  0  0  0  0  0
  1  2  1  0
  2  3  1  0
  3  4  1  0
  4  5  2  0
  5  6  1  0
  6  7  2  0
  7  8  1  0
  8  9  2  0
  9 10  1  0
 10 11  1  0
 11 12  2  0
 12 13  1  0
 13 14  2  0
 14 15  1  0
 15 16  2  0
 16 17  1  0
 17 18  1  0
 16 19  1  0
 19 20  2  0
  7 21  1  0
 21 22  1  0
 22 23  1  0
  9  4  1  0
 20 13  1  0
 23  6  1  0
  1 24  1  0
  1 25  1  0
  1 26  1  0
  2 27  1  0
  2 28  1  0
  5 29  1  0
  8 30  1  0
 10 31  1  0
 10 32  1  0
 11 33  1  0
 12 34  1  0
 14 35  1  0
 15 36  1  0
 18 37  1  0
 18 38  1  0
 18 39  1  0
 19 40  1  0
 20 41  1  0
 22 42  1  0
 22 43  1  0
M  END
>  <meeko>  (2) 
{"is_sidechain": [false], "free_energy": -6.899, "intermolecular_energy": -9.189, "internal_energy": -0.765}

$$$$
LIB_IWDJIZYURLLLMQ__M_PUB_ALL__e8__s20260927
     RDKit          3D

 43 45  0  0  0  0  0  0  0  0999 V2000
   10.1460  -11.7920   13.5950 C   0  0  0  0  0  0  0  0  0  0  0  0
   10.8620  -12.8690   14.3910 C   0  0  0  0  0  0  0  0  0  0  0  0
   10.9900  -14.0180   13.5560 O   0  0  0  0  0  0  0  0  0  0  0  0
   12.0950  -14.8110   13.7300 C   0  0  0  0  0  0  0  0  0  0  0  0
   12.3060  -15.6400   14.8400 C   0  0  0  0  0  0  0  0  0  0  0  0
   13.4600  -16.3950   14.8770 C   0  0  0  0  0  0  0  0  0  0  0  0
   14.3900  -16.3550   13.8670 C   0  0  0  0  0  0  0  0  0  0  0  0
   14.2200  -15.5530   12.7630 C   0  0  0  0  0  0  0  0  0  0  0  0
   13.0600  -14.7570   12.6880 C   0  0  0  0  0  0  0  0  0  0  0  0
   12.8530  -13.8870   11.4660 C   0  0  0  0  0  0  0  0  0  0  0  0
   13.7750  -12.6990   11.4540 C   0  0  0  0  0  0  0  0  0  0  0  0
   13.4770  -11.5110   12.0040 C   0  0  0  0  0  0  0  0  0  0  0  0
   14.3760  -10.3500   11.9880 C   0  0  0  0  0  0  0  0  0  0  0  0
   13.9020   -9.1300   11.4910 C   0  0  0  0  0  0  0  0  0  0  0  0
   14.7160   -7.9890   11.4840 C   0  0  0  0  0  0  0  0  0  0  0  0
   16.0150   -8.0530   11.9860 C   0  0  0  0  0  0  0  0  0  0  0  0
   16.9100   -7.0220   12.0380 O   0  0  0  0  0  0  0  0  0  0  0  0
   16.6630   -5.9130   11.1820 C   0  0  0  0  0  0  0  0  0  0  0  0
   16.4870   -9.2630   12.4980 C   0  0  0  0  0  0  0  0  0  0  0  0
   15.6740  -10.4020   12.5040 C   0  0  0  0  0  0  0  0  0  0  0  0
   15.4460  -17.1770   14.1000 O   0  0  0  0  0  0  0  0  0  0  0  0
   15.0750  -17.7430   15.3730 C   0  0  0  0  0  0  0  0  0  0  0  0
   13.8160  -17.2480   15.8760 O   0  0  0  0  0  0  0  0  0  0  0  0
    9.6722  -11.0793   14.2860 H   0  0  0  0  0  0  0  0  0  0  0  0
   10.8715  -11.2611   12.9612 H   0  0  0  0  0  0  0  0  0  0  0  0
    9.3757  -12.2555   12.9612 H   0  0  0  0  0  0  0  0  0  0  0  0
   11.8583  -12.5121   14.6911 H   0  0  0  0  0  0  0  0  0  0  0  0
   10.2932  -13.1165   15.2994 H   0  0  0  0  0  0  0  0  0  0  0  0
   11.5725  -15.6873   15.6583 H   0  0  0  0  0  0  0  0  0  0  0  0
   14.9705  -15.5335   11.9590 H   0  0  0  0  0  0  0  0  0  0  0  0
   13.0402  -14.4902   10.5654 H   0  0  0  0  0  0  0  0  0  0  0  0
   11.8189  -13.5127   11.4882 H   0  0  0  0  0  0  0  0  0  0  0  0
   14.7538  -12.8102   10.9645 H   0  0  0  0  0  0  0  0  0  0  0  0
   12.4997  -11.4006   12.4967 H   0  0  0  0  0  0  0  0  0  0  0  0
   12.8757   -9.0660   11.1003 H   0  0  0  0  0  0  0  0  0  0  0  0
   14.3291   -7.0412   11.0816 H   0  0  0  0  0  0  0  0  0  0  0  0
   16.4637   -5.0180   11.7897 H   0  0  0  0  0  0  0  0  0  0  0  0
   17.5438   -5.7365   10.5472 H   0  0  0  0  0  0  0  0  0  0  0  0
   15.7905   -6.1270   10.5472 H   0  0  0  0  0  0  0  0  0  0  0  0
   17.5088   -9.3217   12.9010 H   0  0  0  0  0  0  0  0  0  0  0  0
   16.0594  -11.3455   12.9180 H   0  0  0  0  0  0  0  0  0  0  0  0
   15.0005  -18.8347   15.2606 H   0  0  0  0  0  0  0  0  0  0  0  0
   15.8507  -17.4511   16.0963 H   0  0  0  0  0  0  0  0  0  0  0  0
  1  2  1  0
  2  3  1  0
  3  4  1  0
  4  5  2  0
  5  6  1  0
  6  7  2  0
  7  8  1  0
  8  9  2  0
  9 10  1  0
 10 11  1  0
 11 12  2  0
 12 13  1  0
 13 14  2  0
 14 15  1  0
 15 16  2  0
 16 17  1  0
 17 18  1  0
 16 19  1  0
 19 20  2  0
  7 21  1  0
 21 22  1  0
 22 23  1  0
  9  4  1  0
 20 13  1  0
 23  6  1  0
  1 24  1  0
  1 25  1  0
  1 26  1  0
  2 27  1  0
  2 28  1  0
  5 29  1  0
  8 30  1  0
 10 31  1  0
 10 32  1  0
 11 33  1  0
 12 34  1  0
 14 35  1  0
 15 36  1  0
 18 37  1  0
 18 38  1  0
 18 39  1  0
 19 40  1  0
 20 41  1  0
 22 42  1  0
 22 43  1  0
M  END
>  <meeko>  (3) 
{"is_sidechain": [false], "free_energy": -6.847, "intermolecular_energy": -8.834, "internal_energy": -1.05}

$$$$
LIB_IWDJIZYURLLLMQ__M_PUB_ALL__e8__s20260927
     RDKit          3D

 43 45  0  0  0  0  0  0  0  0999 V2000
   -1.6900   -9.1090    2.7710 C   0  0  0  0  0  0  0  0  0  0  0  0
   -2.2750   -9.9020    1.6160 C   0  0  0  0  0  0  0  0  0  0  0  0
   -2.8650  -11.0840    2.1520 O   0  0  0  0  0  0  0  0  0  0  0  0
   -2.7000  -12.2520    1.4520 C   0  0  0  0  0  0  0  0  0  0  0  0
   -1.4940  -12.6590    0.8670 C   0  0  0  0  0  0  0  0  0  0  0  0
   -1.4710  -13.8670    0.2010 C   0  0  0  0  0  0  0  0  0  0  0  0
   -2.5820  -14.6670    0.1030 C   0  0  0  0  0  0  0  0  0  0  0  0
   -3.7850  -14.3010    0.6610 C   0  0  0  0  0  0  0  0  0  0  0  0
   -3.8570  -13.0700    1.3420 C   0  0  0  0  0  0  0  0  0  0  0  0
   -5.1720  -12.6680    1.9790 C   0  0  0  0  0  0  0  0  0  0  0  0
   -5.3600  -13.2960    3.3320 C   0  0  0  0  0  0  0  0  0  0  0  0
   -6.4100  -14.0640    3.6640 C   0  0  0  0  0  0  0  0  0  0  0  0
   -6.5970  -14.6730    4.9870 C   0  0  0  0  0  0  0  0  0  0  0  0
   -6.4260  -13.8830    6.1300 C   0  0  0  0  0  0  0  0  0  0  0  0
   -6.6220  -14.4150    7.4110 C   0  0  0  0  0  0  0  0  0  0  0  0
   -7.0050  -15.7480    7.5640 C   0  0  0  0  0  0  0  0  0  0  0  0
   -7.2280  -16.3900    8.7500 O   0  0  0  0  0  0  0  0  0  0  0  0
   -8.4130  -17.1710    8.8440 C   0  0  0  0  0  0  0  0  0  0  0  0
   -7.1930  -16.5350    6.4280 C   0  0  0  0  0  0  0  0  0  0  0  0
   -6.9960  -16.0040    5.1490 C   0  0  0  0  0  0  0  0  0  0  0  0
   -2.3400  -15.8120   -0.5880 O   0  0  0  0  0  0  0  0  0  0  0  0
   -0.9450  -15.6440   -0.9130 C   0  0  0  0  0  0  0  0  0  0  0  0
   -0.3860  -14.4080   -0.4180 O   0  0  0  0  0  0  0  0  0  0  0  0
   -2.0171   -9.5524    3.7231 H   0  0  0  0  0  0  0  0  0  0  0  0
   -0.5918   -9.1332    2.7134 H   0  0  0  0  0  0  0  0  0  0  0  0
   -2.0373   -8.0669    2.7134 H   0  0  0  0  0  0  0  0  0  0  0  0
   -3.0400   -9.3028    1.1005 H   0  0  0  0  0  0  0  0  0  0  0  0
   -1.4892  -10.1602    0.8909 H   0  0  0  0  0  0  0  0  0  0  0  0
   -0.5917  -12.0337    0.9366 H   0  0  0  0  0  0  0  0  0  0  0  0
   -4.6674  -14.9524    0.5776 H   0  0  0  0  0  0  0  0  0  0  0  0
   -5.1926  -11.5738    2.0898 H   0  0  0  0  0  0  0  0  0  0  0  0
   -5.9856  -13.0184    1.3268 H   0  0  0  0  0  0  0  0  0  0  0  0
   -4.5902  -13.1152    4.0967 H   0  0  0  0  0  0  0  0  0  0  0  0
   -7.1774  -14.2484    2.8978 H   0  0  0  0  0  0  0  0  0  0  0  0
   -6.1332  -12.8283    6.0206 H   0  0  0  0  0  0  0  0  0  0  0  0
   -6.4738  -13.7810    8.2976 H   0  0  0  0  0  0  0  0  0  0  0  0
   -8.6613  -17.3346    9.9031 H   0  0  0  0  0  0  0  0  0  0  0  0
   -9.2414  -16.6413    8.3508 H   0  0  0  0  0  0  0  0  0  0  0  0
   -8.2528  -18.1411    8.3508 H   0  0  0  0  0  0  0  0  0  0  0  0
   -7.4998  -17.5855    6.5391 H   0  0  0  0  0  0  0  0  0  0  0  0
   -7.1560  -16.6376    4.2642 H   0  0  0  0  0  0  0  0  0  0  0  0
   -0.3817  -16.4814   -0.4755 H   0  0  0  0  0  0  0  0  0  0  0  0
   -0.8677  -15.6192   -2.0100 H   0  0  0  0  0  0  0  0  0  0  0  0
  1  2  1  0
  2  3  1  0
  3  4  1  0
  4  5  2  0
  5  6  1  0
  6  7  2  0
  7  8  1  0
  8  9  2  0
  9 10  1  0
 10 11  1  0
 11 12  2  0
 12 13  1  0
 13 14  2  0
 14 15  1  0
 15 16  2  0
 16 17  1  0
 17 18  1  0
 16 19  1  0
 19 20  2  0
  7 21  1  0
 21 22  1  0
 22 23  1  0
  9  4  1  0
 20 13  1  0
 23  6  1  0
  1 24  1  0
  1 25  1  0
  1 26  1  0
  2 27  1  0
  2 28  1  0
  5 29  1  0
  8 30  1  0
 10 31  1  0
 10 32  1  0
 11 33  1  0
 12 34  1  0
 14 35  1  0
 15 36  1  0
 18 37  1  0
 18 38  1  0
 18 39  1  0
 19 40  1  0
 20 41  1  0
 22 42  1  0
 22 43  1  0
M  END
>  <meeko>  (4) 
{"is_sidechain": [false], "free_energy": -6.788, "intermolecular_energy": -9.065, "internal_energy": -0.739}

$$$$
LIB_IWDJIZYURLLLMQ__M_PUB_ALL__e8__s20260927
     RDKit          3D

 43 45  0  0  0  0  0  0  0  0999 V2000
   -1.5790   -9.2920    2.9560 C   0  0  0  0  0  0  0  0  0  0  0  0
   -2.3420   -9.2590    1.6430 C   0  0  0  0  0  0  0  0  0  0  0  0
   -1.5460   -9.9160    0.6590 O   0  0  0  0  0  0  0  0  0  0  0  0
   -1.6130  -11.2840    0.5950 C   0  0  0  0  0  0  0  0  0  0  0  0
   -2.8080  -12.0160    0.5680 C   0  0  0  0  0  0  0  0  0  0  0  0
   -2.7240  -13.3910    0.4910 C   0  0  0  0  0  0  0  0  0  0  0  0
   -1.5200  -14.0470    0.4390 C   0  0  0  0  0  0  0  0  0  0  0  0
   -0.3260  -13.3640    0.4660 C   0  0  0  0  0  0  0  0  0  0  0  0
   -0.3630  -11.9590    0.5540 C   0  0  0  0  0  0  0  0  0  0  0  0
    0.9460  -11.1960    0.5630 C   0  0  0  0  0  0  0  0  0  0  0  0
    1.7950  -11.5140   -0.6360 C   0  0  0  0  0  0  0  0  0  0  0  0
    1.6450  -10.9350   -1.8380 C   0  0  0  0  0  0  0  0  0  0  0  0
    2.4710  -11.2500   -3.0110 C   0  0  0  0  0  0  0  0  0  0  0  0
    2.8890  -12.5700   -3.2130 C   0  0  0  0  0  0  0  0  0  0  0  0
    3.6540  -12.9210   -4.3340 C   0  0  0  0  0  0  0  0  0  0  0  0
    4.0010  -11.9510   -5.2750 C   0  0  0  0  0  0  0  0  0  0  0  0
    4.7400  -12.1560   -6.4070 O   0  0  0  0  0  0  0  0  0  0  0  0
    5.3570  -13.4290   -6.5490 C   0  0  0  0  0  0  0  0  0  0  0  0
    3.5730  -10.6360   -5.0860 C   0  0  0  0  0  0  0  0  0  0  0  0
    2.8100  -10.2870   -3.9660 C   0  0  0  0  0  0  0  0  0  0  0  0
   -1.6640  -15.3960    0.3600 O   0  0  0  0  0  0  0  0  0  0  0  0
   -3.1010  -15.5160    0.3670 C   0  0  0  0  0  0  0  0  0  0  0  0
   -3.7820  -14.2460    0.4530 O   0  0  0  0  0  0  0  0  0  0  0  0
   -2.2905   -9.2612    3.7944 H   0  0  0  0  0  0  0  0  0  0  0  0
   -0.9858  -10.2166    3.0122 H   0  0  0  0  0  0  0  0  0  0  0  0
   -0.9082   -8.4220    3.0122 H   0  0  0  0  0  0  0  0  0  0  0  0
   -3.3036   -9.7811    1.7559 H   0  0  0  0  0  0  0  0  0  0  0  0
   -2.5442   -8.2204    1.3424 H   0  0  0  0  0  0  0  0  0  0  0  0
   -3.7836  -11.5094    0.6070 H   0  0  0  0  0  0  0  0  0  0  0  0
    0.6327  -13.9014    0.4200 H   0  0  0  0  0  0  0  0  0  0  0  0
    0.7279  -10.1178    0.5671 H   0  0  0  0  0  0  0  0  0  0  0  0
    1.5052  -11.4939    1.4622 H   0  0  0  0  0  0  0  0  0  0  0  0
    2.5881  -12.2676   -0.5215 H   0  0  0  0  0  0  0  0  0  0  0  0
    0.8549  -10.1781   -1.9513 H   0  0  0  0  0  0  0  0  0  0  0  0
    2.6132  -13.3437   -2.4813 H   0  0  0  0  0  0  0  0  0  0  0  0
    3.9810  -13.9622   -4.4719 H   0  0  0  0  0  0  0  0  0  0  0  0
    5.5613  -13.8505   -5.5537 H   0  0  0  0  0  0  0  0  0  0  0  0
    4.6853  -14.1024   -7.1016 H   0  0  0  0  0  0  0  0  0  0  0  0
    6.3018  -13.3190   -7.1016 H   0  0  0  0  0  0  0  0  0  0  0  0
    3.8382   -9.8658   -5.8252 H   0  0  0  0  0  0  0  0  0  0  0  0
    2.4746   -9.2475   -3.8361 H   0  0  0  0  0  0  0  0  0  0  0  0
   -3.4136  -16.0171   -0.5610 H   0  0  0  0  0  0  0  0  0  0  0  0
   -3.3743  -16.0924    1.2632 H   0  0  0  0  0  0  0  0  0  0  0  0
  1  2  1  0
  2  3  1  0
  3  4  1  0
  4  5  2  0
  5  6  1  0
  6  7  2  0
  7  8  1  0
  8  9  2  0
  9 10  1  0
 10 11  1  0
 11 12  2  0
 12 13  1  0
 13 14  2  0
 14 15  1  0
 15 16  2  0
 16 17  1  0
 17 18  1  0
 16 19  1  0
 19 20  2  0
  7 21  1  0
 21 22  1  0
 22 23  1  0
  9  4  1  0
 20 13  1  0
 23  6  1  0
  1 24  1  0
  1 25  1  0
  1 26  1  0
  2 27  1  0
  2 28  1  0
  5 29  1  0
  8 30  1  0
 10 31  1  0
 10 32  1  0
 11 33  1  0
 12 34  1  0
 14 35  1  0
 15 36  1  0
 18 37  1  0
 18 38  1  0
 18 39  1  0
 19 40  1  0
 20 41  1  0
 22 42  1  0
 22 43  1  0
M  END
>  <meeko>  (5) 
{"is_sidechain": [false], "free_energy": -6.72, "intermolecular_energy": -8.761, "internal_energy": -0.951}

$$$$
LIB_IWDJIZYURLLLMQ__M_PUB_ALL__e8__s20260927
     RDKit          3D

 43 45  0  0  0  0  0  0  0  0999 V2000
   -2.9770  -10.3310    0.1000 C   0  0  0  0  0  0  0  0  0  0  0  0
   -2.3380   -9.9550    1.4250 C   0  0  0  0  0  0  0  0  0  0  0  0
   -2.9050  -10.7870    2.4350 O   0  0  0  0  0  0  0  0  0  0  0  0
   -2.3510  -12.0280    2.6230 C   0  0  0  0  0  0  0  0  0  0  0  0
   -0.9810  -12.2630    2.7980 C   0  0  0  0  0  0  0  0  0  0  0  0
   -0.5660  -13.5650    2.9900 C   0  0  0  0  0  0  0  0  0  0  0  0
   -1.4490  -14.6160    3.0140 C   0  0  0  0  0  0  0  0  0  0  0  0
   -2.8000  -14.4250    2.8430 C   0  0  0  0  0  0  0  0  0  0  0  0
   -3.2680  -13.1130    2.6350 C   0  0  0  0  0  0  0  0  0  0  0  0
   -4.7570  -12.8910    2.4670 C   0  0  0  0  0  0  0  0  0  0  0  0
   -5.5350  -13.3250    3.6780 C   0  0  0  0  0  0  0  0  0  0  0  0
   -6.0410  -14.5570    3.8450 C   0  0  0  0  0  0  0  0  0  0  0  0
   -6.8050  -14.9780    5.0260 C   0  0  0  0  0  0  0  0  0  0  0  0
   -6.4880  -14.4270    6.2730 C   0  0  0  0  0  0  0  0  0  0  0  0
   -7.2100  -14.7790    7.4210 C   0  0  0  0  0  0  0  0  0  0  0  0
   -8.2690  -15.6820    7.3330 C   0  0  0  0  0  0  0  0  0  0  0  0
   -9.0520  -16.1100    8.3690 O   0  0  0  0  0  0  0  0  0  0  0  0
  -10.4010  -15.6620    8.3820 C   0  0  0  0  0  0  0  0  0  0  0  0
   -8.6000  -16.2220    6.0890 C   0  0  0  0  0  0  0  0  0  0  0  0
   -7.8780  -15.8710    4.9430 C   0  0  0  0  0  0  0  0  0  0  0  0
   -0.8320  -15.8090    3.2200 O   0  0  0  0  0  0  0  0  0  0  0  0
    0.5430  -15.3900    3.3260 C   0  0  0  0  0  0  0  0  0  0  0  0
    0.7220  -13.9650    3.1770 O   0  0  0  0  0  0  0  0  0  0  0  0
   -3.9113  -10.8808    0.2864 H   0  0  0  0  0  0  0  0  0  0  0  0
   -3.1968   -9.4182   -0.4732 H   0  0  0  0  0  0  0  0  0  0  0  0
   -2.2858  -10.9664   -0.4732 H   0  0  0  0  0  0  0  0  0  0  0  0
   -1.2509  -10.1155    1.3749 H   0  0  0  0  0  0  0  0  0  0  0  0
   -2.5223   -8.8948    1.6529 H   0  0  0  0  0  0  0  0  0  0  0  0
   -0.2577  -11.4344    2.7828 H   0  0  0  0  0  0  0  0  0  0  0  0
   -3.4974  -15.2753    2.8680 H   0  0  0  0  0  0  0  0  0  0  0  0
   -4.9384  -11.8199    2.2943 H   0  0  0  0  0  0  0  0  0  0  0  0
   -5.0949  -13.4965    1.6131 H   0  0  0  0  0  0  0  0  0  0  0  0
   -5.6998  -12.5870    4.4769 H   0  0  0  0  0  0  0  0  0  0  0  0
   -5.8730  -15.2965    3.0482 H   0  0  0  0  0  0  0  0  0  0  0  0
   -5.6600  -13.7072    6.3529 H   0  0  0  0  0  0  0  0  0  0  0  0
   -6.9409  -14.3420    8.3940 H   0  0  0  0  0  0  0  0  0  0  0  0
  -10.7400  -15.5494    9.4224 H   0  0  0  0  0  0  0  0  0  0  0  0
  -10.4704  -14.6926    7.8668 H   0  0  0  0  0  0  0  0  0  0  0  0
  -11.0365  -16.3973    7.8668 H   0  0  0  0  0  0  0  0  0  0  0  0
   -9.4373  -16.9309    6.0088 H   0  0  0  0  0  0  0  0  0  0  0  0
   -8.1565  -16.3007    3.9695 H   0  0  0  0  0  0  0  0  0  0  0  0
    0.9228  -15.6875    4.3145 H   0  0  0  0  0  0  0  0  0  0  0  0
    1.0937  -15.8737    2.5058 H   0  0  0  0  0  0  0  0  0  0  0  0
  1  2  1  0
  2  3  1  0
  3  4  1  0
  4  5  2  0
  5  6  1  0
  6  7  2  0
  7  8  1  0
  8  9  2  0
  9 10  1  0
 10 11  1  0
 11 12  2  0
 12 13  1  0
 13 14  2  0
 14 15  1  0
 15 16  2  0
 16 17  1  0
 17 18  1  0
 16 19  1  0
 19 20  2  0
  7 21  1  0
 21 22  1  0
 22 23  1  0
  9  4  1  0
 20 13  1  0
 23  6  1  0
  1 24  1  0
  1 25  1  0
  1 26  1  0
  2 27  1  0
  2 28  1  0
  5 29  1  0
  8 30  1  0
 10 31  1  0
 10 32  1  0
 11 33  1  0
 12 34  1  0
 14 35  1  0
 15 36  1  0
 18 37  1  0
 18 38  1  0
 18 39  1  0
 19 40  1  0
 20 41  1  0
 22 42  1  0
 22 43  1  0
M  END
>  <meeko>  (6) 
{"is_sidechain": [false], "free_energy": -6.707, "intermolecular_energy": -8.926, "internal_energy": -0.769}

$$$$
LIB_IWDJIZYURLLLMQ__M_PUB_ALL__e8__s20260927
     RDKit          3D

 43 45  0  0  0  0  0  0  0  0999 V2000
   -9.5430  -12.4420  -11.5410 C   0  0  0  0  0  0  0  0  0  0  0  0
   -9.4840  -13.7860  -12.2480 C   0  0  0  0  0  0  0  0  0  0  0  0
  -10.3670  -14.6760  -11.5690 O   0  0  0  0  0  0  0  0  0  0  0  0
   -9.9750  -15.1500  -10.3430 C   0  0  0  0  0  0  0  0  0  0  0  0
   -8.6960  -15.6480  -10.0600 C   0  0  0  0  0  0  0  0  0  0  0  0
   -8.4380  -16.0810   -8.7760 C   0  0  0  0  0  0  0  0  0  0  0  0
   -9.3870  -16.0350   -7.7860 C   0  0  0  0  0  0  0  0  0  0  0  0
  -10.6550  -15.5550   -8.0250 C   0  0  0  0  0  0  0  0  0  0  0  0
  -10.9660  -15.1110   -9.3250 C   0  0  0  0  0  0  0  0  0  0  0  0
  -12.3520  -14.5620   -9.5920 C   0  0  0  0  0  0  0  0  0  0  0  0
  -12.5120  -13.1560   -9.0840 C   0  0  0  0  0  0  0  0  0  0  0  0
  -13.5030  -12.7590   -8.2700 C   0  0  0  0  0  0  0  0  0  0  0  0
  -13.6620  -11.3850   -7.7780 C   0  0  0  0  0  0  0  0  0  0  0  0
  -14.9310  -10.7950   -7.8040 C   0  0  0  0  0  0  0  0  0  0  0  0
  -15.1330   -9.4960   -7.3180 C   0  0  0  0  0  0  0  0  0  0  0  0
  -14.0650   -8.7740   -6.7880 C   0  0  0  0  0  0  0  0  0  0  0  0
  -14.1230   -7.5050   -6.2830 O   0  0  0  0  0  0  0  0  0  0  0  0
  -15.2610   -7.1780   -5.4960 C   0  0  0  0  0  0  0  0  0  0  0  0
  -12.8000   -9.3630   -6.7450 C   0  0  0  0  0  0  0  0  0  0  0  0
  -12.5990  -10.6590   -7.2310 C   0  0  0  0  0  0  0  0  0  0  0  0
   -8.9240  -16.5040   -6.5980 O   0  0  0  0  0  0  0  0  0  0  0  0
   -7.5700  -16.8500   -6.9520 C   0  0  0  0  0  0  0  0  0  0  0  0
   -7.2540  -16.5880   -8.3360 O   0  0  0  0  0  0  0  0  0  0  0  0
   -9.5361  -12.5997  -10.4524 H   0  0  0  0  0  0  0  0  0  0  0  0
   -8.6705  -11.8373  -11.8294 H   0  0  0  0  0  0  0  0  0  0  0  0
  -10.4651  -11.9161  -11.8294 H   0  0  0  0  0  0  0  0  0  0  0  0
   -9.8005  -13.6719  -13.2953 H   0  0  0  0  0  0  0  0  0  0  0  0
   -8.4574  -14.1809  -12.2365 H   0  0  0  0  0  0  0  0  0  0  0  0
   -7.9206  -15.6923  -10.8389 H   0  0  0  0  0  0  0  0  0  0  0  0
  -11.4056  -15.5192   -7.2217 H   0  0  0  0  0  0  0  0  0  0  0  0
  -12.5334  -14.5698  -10.6769 H   0  0  0  0  0  0  0  0  0  0  0  0
  -13.0758  -15.1979   -9.0612 H   0  0  0  0  0  0  0  0  0  0  0  0
  -11.7712  -12.4062   -9.3988 H   0  0  0  0  0  0  0  0  0  0  0  0
  -14.2415  -13.5096   -7.9520 H   0  0  0  0  0  0  0  0  0  0  0  0
  -15.7825  -11.3593   -8.2120 H   0  0  0  0  0  0  0  0  0  0  0  0
  -16.1359   -9.0456   -7.3549 H   0  0  0  0  0  0  0  0  0  0  0  0
  -15.0027   -7.2522   -4.4293 H   0  0  0  0  0  0  0  0  0  0  0  0
  -15.5823   -6.1512   -5.7249 H   0  0  0  0  0  0  0  0  0  0  0  0
  -16.0784   -7.8776   -5.7249 H   0  0  0  0  0  0  0  0  0  0  0  0
  -11.9524   -8.8019   -6.3245 H   0  0  0  0  0  0  0  0  0  0  0  0
  -11.5972  -11.1108   -7.1827 H   0  0  0  0  0  0  0  0  0  0  0  0
   -6.8845  -16.2651   -6.3212 H   0  0  0  0  0  0  0  0  0  0  0  0
   -7.4597  -17.9329   -6.7933 H   0  0  0  0  0  0  0  0  0  0  0  0
  1  2  1  0
  2  3  1  0
  3  4  1  0
  4  5  2  0
  5  6  1  0
  6  7  2  0
  7  8  1  0
  8  9  2  0
  9 10  1  0
 10 11  1  0
 11 12  2  0
 12 13  1  0
 13 14  2  0
 14 15  1  0
 15 16  2  0
 16 17  1  0
 17 18  1  0
 16 19  1  0
 19 20  2  0
  7 21  1  0
 21 22  1  0
 22 23  1  0
  9  4  1  0
 20 13  1  0
 23  6  1  0
  1 24  1  0
  1 25  1  0
  1 26  1  0
  2 27  1  0
  2 28  1  0
  5 29  1  0
  8 30  1  0
 10 31  1  0
 10 32  1  0
 11 33  1  0
 12 34  1  0
 14 35  1  0
 15 36  1  0
 18 37  1  0
 18 38  1  0
 18 39  1  0
 19 40  1  0
 20 41  1  0
 22 42  1  0
 22 43  1  0
M  END
>  <meeko>  (7) 
{"is_sidechain": [false], "free_energy": -6.525, "intermolecular_energy": -8.53, "internal_energy": -0.919}

$$$$
LIB_IWDJIZYURLLLMQ__M_PUB_ALL__e8__s20260927
     RDKit          3D

 43 45  0  0  0  0  0  0  0  0999 V2000
   -3.0320   -9.9590    0.2230 C   0  0  0  0  0  0  0  0  0  0  0  0
   -2.5780   -9.3170    1.5220 C   0  0  0  0  0  0  0  0  0  0  0  0
   -1.1670   -9.4920    1.6270 O   0  0  0  0  0  0  0  0  0  0  0  0
   -0.6960  -10.7640    1.8320 C   0  0  0  0  0  0  0  0  0  0  0  0
   -1.0920  -11.5910    2.8920 C   0  0  0  0  0  0  0  0  0  0  0  0
   -0.5440  -12.8550    2.9670 C   0  0  0  0  0  0  0  0  0  0  0  0
    0.3610  -13.3140    2.0430 C   0  0  0  0  0  0  0  0  0  0  0  0
    0.7750  -12.5310    0.9900 C   0  0  0  0  0  0  0  0  0  0  0  0
    0.2490  -11.2300    0.8800 C   0  0  0  0  0  0  0  0  0  0  0  0
    0.6830  -10.3680   -0.2890 C   0  0  0  0  0  0  0  0  0  0  0  0
    1.4280  -11.1570   -1.3290 C   0  0  0  0  0  0  0  0  0  0  0  0
    1.8970  -10.6370   -2.4740 C   0  0  0  0  0  0  0  0  0  0  0  0
    2.6210  -11.4100   -3.4920 C   0  0  0  0  0  0  0  0  0  0  0  0
    3.2940  -10.7280   -4.5130 C   0  0  0  0  0  0  0  0  0  0  0  0
    4.0200  -11.4240   -5.4880 C   0  0  0  0  0  0  0  0  0  0  0  0
    4.0920  -12.8160   -5.4460 C   0  0  0  0  0  0  0  0  0  0  0  0
    4.7620  -13.6150   -6.3300 O   0  0  0  0  0  0  0  0  0  0  0  0
    5.6060  -14.6170   -5.7780 C   0  0  0  0  0  0  0  0  0  0  0  0
    3.4360  -13.5000   -4.4210 C   0  0  0  0  0  0  0  0  0  0  0  0
    2.7100  -12.8050   -3.4490 C   0  0  0  0  0  0  0  0  0  0  0  0
    0.7700  -14.5850    2.3000 O   0  0  0  0  0  0  0  0  0  0  0  0
    0.0150  -14.8760    3.4940 C   0  0  0  0  0  0  0  0  0  0  0  0
   -0.8200  -13.7800    3.9270 O   0  0  0  0  0  0  0  0  0  0  0  0
   -3.6539  -10.8384    0.4464 H   0  0  0  0  0  0  0  0  0  0  0  0
   -3.6188   -9.2333   -0.3592 H   0  0  0  0  0  0  0  0  0  0  0  0
   -2.1522  -10.2704   -0.3592 H   0  0  0  0  0  0  0  0  0  0  0  0
   -2.8221   -8.2445    1.5142 H   0  0  0  0  0  0  0  0  0  0  0  0
   -3.0869   -9.7833    2.3785 H   0  0  0  0  0  0  0  0  0  0  0  0
   -1.8179  -11.2428    3.6416 H   0  0  0  0  0  0  0  0  0  0  0  0
    1.4980  -12.9117    0.2535 H   0  0  0  0  0  0  0  0  0  0  0  0
   -0.2102   -9.9244   -0.7531 H   0  0  0  0  0  0  0  0  0  0  0  0
    1.3606   -9.5919    0.0963 H   0  0  0  0  0  0  0  0  0  0  0  0
    1.5995  -12.2270   -1.1400 H   0  0  0  0  0  0  0  0  0  0  0  0
    1.7289   -9.5662   -2.6617 H   0  0  0  0  0  0  0  0  0  0  0  0
    3.2520   -9.6294   -4.5500 H   0  0  0  0  0  0  0  0  0  0  0  0
    4.5342  -10.8715   -6.2882 H   0  0  0  0  0  0  0  0  0  0  0  0
    5.5643  -14.5674   -4.6799 H   0  0  0  0  0  0  0  0  0  0  0  0
    5.2665  -15.6080   -6.1135 H   0  0  0  0  0  0  0  0  0  0  0  0
    6.6403  -14.4508   -6.1135 H   0  0  0  0  0  0  0  0  0  0  0  0
    3.4909  -14.5978   -4.3776 H   0  0  0  0  0  0  0  0  0  0  0  0
    2.2050  -13.3596   -2.6444 H   0  0  0  0  0  0  0  0  0  0  0  0
   -0.6275  -15.7467    3.2965 H   0  0  0  0  0  0  0  0  0  0  0  0
    0.7408  -15.0681    4.2979 H   0  0  0  0  0  0  0  0  0  0  0  0
  1  2  1  0
  2  3  1  0
  3  4  1  0
  4  5  2  0
  5  6  1  0
  6  7  2  0
  7  8  1  0
  8  9  2  0
  9 10  1  0
 10 11  1  0
 11 12  2  0
 12 13  1  0
 13 14  2  0
 14 15  1  0
 15 16  2  0
 16 17  1  0
 17 18  1  0
 16 19  1  0
 19 20  2  0
  7 21  1  0
 21 22  1  0
 22 23  1  0
  9  4  1  0
 20 13  1  0
 23  6  1  0
  1 24  1  0
  1 25  1  0
  1 26  1  0
  2 27  1  0
  2 28  1  0
  5 29  1  0
  8 30  1  0
 10 31  1  0
 10 32  1  0
 11 33  1  0
 12 34  1  0
 14 35  1  0
 15 36  1  0
 18 37  1  0
 18 38  1  0
 18 39  1  0
 19 40  1  0
 20 41  1  0
 22 42  1  0
 22 43  1  0
M  END
>  <meeko>  (8) 
{"is_sidechain": [false], "free_energy": -6.463, "intermolecular_energy": -8.548, "internal_energy": -0.817}

$$$$
LIB_IWDJIZYURLLLMQ__M_PUB_ALL__e8__s20260927
     RDKit          3D

 43 45  0  0  0  0  0  0  0  0999 V2000
    7.7020  -11.4550  -11.0840 C   0  0  0  0  0  0  0  0  0  0  0  0
    7.5780  -12.9320  -11.4190 C   0  0  0  0  0  0  0  0  0  0  0  0
    6.5470  -13.4800  -10.6020 O   0  0  0  0  0  0  0  0  0  0  0  0
    6.9180  -14.3380   -9.5980 C   0  0  0  0  0  0  0  0  0  0  0  0
    7.5890  -15.5510   -9.8030 C   0  0  0  0  0  0  0  0  0  0  0  0
    7.9120  -16.3090   -8.6950 C   0  0  0  0  0  0  0  0  0  0  0  0
    7.5990  -15.9070   -7.4210 C   0  0  0  0  0  0  0  0  0  0  0  0
    6.9390  -14.7240   -7.1790 C   0  0  0  0  0  0  0  0  0  0  0  0
    6.5810  -13.9240   -8.2810 C   0  0  0  0  0  0  0  0  0  0  0  0
    5.8740  -12.6090   -8.0240 C   0  0  0  0  0  0  0  0  0  0  0  0
    5.1300  -12.6120   -6.7180 C   0  0  0  0  0  0  0  0  0  0  0  0
    4.3800  -11.5890   -6.2770 C   0  0  0  0  0  0  0  0  0  0  0  0
    3.6570  -11.5910   -4.9980 C   0  0  0  0  0  0  0  0  0  0  0  0
    3.2550  -10.3710   -4.4430 C   0  0  0  0  0  0  0  0  0  0  0  0
    2.5380  -10.3280   -3.2390 C   0  0  0  0  0  0  0  0  0  0  0  0
    2.2040  -11.5120   -2.5810 C   0  0  0  0  0  0  0  0  0  0  0  0
    1.5120  -11.6120   -1.4070 O   0  0  0  0  0  0  0  0  0  0  0  0
    1.3940  -12.9110   -0.8400 C   0  0  0  0  0  0  0  0  0  0  0  0
    2.5890  -12.7320   -3.1400 C   0  0  0  0  0  0  0  0  0  0  0  0
    3.3050  -12.7740   -4.3400 C   0  0  0  0  0  0  0  0  0  0  0  0
    8.0110  -16.7960   -6.4790 O   0  0  0  0  0  0  0  0  0  0  0  0
    8.6230  -17.8050   -7.3070 C   0  0  0  0  0  0  0  0  0  0  0  0
    8.5610  -17.5050   -8.7180 O   0  0  0  0  0  0  0  0  0  0  0  0
    7.7128  -11.3264   -9.9916 H   0  0  0  0  0  0  0  0  0  0  0  0
    8.6365  -11.0598  -11.5090 H   0  0  0  0  0  0  0  0  0  0  0  0
    6.8465  -10.9096  -11.5090 H   0  0  0  0  0  0  0  0  0  0  0  0
    7.3183  -13.0541  -12.4809 H   0  0  0  0  0  0  0  0  0  0  0  0
    8.5309  -13.4491  -11.2327 H   0  0  0  0  0  0  0  0  0  0  0  0
    7.8506  -15.8893  -10.8165 H   0  0  0  0  0  0  0  0  0  0  0  0
    6.6976  -14.4117   -6.1522 H   0  0  0  0  0  0  0  0  0  0  0  0
    6.6217  -11.8024   -8.0043 H   0  0  0  0  0  0  0  0  0  0  0  0
    5.1417  -12.4553   -8.8303 H   0  0  0  0  0  0  0  0  0  0  0  0
    5.2045  -13.5078   -6.0840 H   0  0  0  0  0  0  0  0  0  0  0  0
    4.3022  -10.6945   -6.9125 H   0  0  0  0  0  0  0  0  0  0  0  0
    3.5051   -9.4322   -4.9588 H   0  0  0  0  0  0  0  0  0  0  0  0
    2.2384   -9.3593   -2.8125 H   0  0  0  0  0  0  0  0  0  0  0  0
    1.4010  -12.8341    0.2573 H   0  0  0  0  0  0  0  0  0  0  0  0
    0.4504  -13.3705   -1.1694 H   0  0  0  0  0  0  0  0  0  0  0  0
    2.2393  -13.5330   -1.1694 H   0  0  0  0  0  0  0  0  0  0  0  0
    2.3260  -13.6708   -2.6305 H   0  0  0  0  0  0  0  0  0  0  0  0
    3.5937  -13.7445   -4.7699 H   0  0  0  0  0  0  0  0  0  0  0  0
    9.6798  -17.9000   -7.0170 H   0  0  0  0  0  0  0  0  0  0  0  0
    8.0626  -18.7382   -7.1488 H   0  0  0  0  0  0  0  0  0  0  0  0
  1  2  1  0
  2  3  1  0
  3  4  1  0
  4  5  2  0
  5  6  1  0
  6  7  2  0
  7  8  1  0
  8  9  2  0
  9 10  1  0
 10 11  1  0
 11 12  2  0
 12 13  1  0
 13 14  2  0
 14 15  1  0
 15 16  2  0
 16 17  1  0
 17 18  1  0
 16 19  1  0
 19 20  2  0
  7 21  1  0
 21 22  1  0
 22 23  1  0
  9  4  1  0
 20 13  1  0
 23  6  1  0
  1 24  1  0
  1 25  1  0
  1 26  1  0
  2 27  1  0
  2 28  1  0
  5 29  1  0
  8 30  1  0
 10 31  1  0
 10 32  1  0
 11 33  1  0
 12 34  1  0
 14 35  1  0
 15 36  1  0
 18 37  1  0
 18 38  1  0
 18 39  1  0
 19 40  1  0
 20 41  1  0
 22 42  1  0
 22 43  1  0
M  END
>  <meeko>  (9) 
{"is_sidechain": [false], "free_energy": -6.404, "intermolecular_energy": -8.475, "internal_energy": -0.811}

$$$$
