LIB_YBNGDFSHNFUPMT__M_PUB_ALL__e8__s20260927
     RDKit          3D

 57 60  0  0  0  0  0  0  0  0999 V2000
    1.5750  -10.2280   -2.4900 O   0  0  0  0  0  0  0  0  0  0  0  0
    2.2280  -11.2000   -2.1270 C   0  0  0  0  0  0  0  0  0  0  0  0
    1.9310  -12.0490   -1.0760 N   0  0  0  0  0  0  0  0  0  0  0  0
    0.8750  -11.9170   -0.1480 C   0  0  0  0  0  0  0  0  0  0  0  0
    0.1600  -13.0780    0.1730 C   0  0  0  0  0  0  0  0  0  0  0  0
   -0.9010  -13.0350    1.0840 C   0  0  0  0  0  0  0  0  0  0  0  0
   -1.2570  -11.8290    1.6880 C   0  0  0  0  0  0  0  0  0  0  0  0
   -2.5760  -11.8450    2.8020 Cl  0  0  0  0  0  0  0  0  0  0  0  0
   -0.5470  -10.6660    1.3790 C   0  0  0  0  0  0  0  0  0  0  0  0
   -0.9270   -9.1360    2.0890 Cl  0  0  0  0  0  0  0  0  0  0  0  0
    0.5160  -10.7130    0.4650 C   0  0  0  0  0  0  0  0  0  0  0  0
    3.4460  -11.5480   -2.9160 C   0  0  0  0  0  0  0  0  0  0  0  0
    4.6000  -11.9220   -2.2060 C   0  0  0  0  0  0  0  0  0  0  0  0
    5.7890  -12.3040   -2.8470 C   0  0  0  0  0  0  0  0  0  0  0  0
    6.9120  -12.6930   -2.1220 N   0  0  0  0  0  0  0  0  0  0  0  0
    6.8540  -12.8700   -0.6730 C   0  0  0  0  0  0  0  0  0  0  0  0
    8.1520  -12.3490   -0.0640 C   0  0  0  0  0  0  0  0  0  0  0  0
    9.3910  -13.0650   -0.6280 C   0  0  0  0  0  0  0  0  0  0  0  0
   10.5170  -12.0410   -0.7950 N   0  0  0  0  0  0  0  0  0  0  0  0
   11.2990  -11.7400    0.4860 C   0  0  0  0  0  0  0  0  0  0  0  0
   12.7650  -11.8480    0.1040 C   0  0  0  0  0  0  0  0  0  0  0  0
   12.7830  -11.6090   -1.3880 C   0  0  0  0  0  0  0  0  0  0  0  0
   11.5570  -12.3630   -1.8540 C   0  0  0  0  0  0  0  0  0  0  0  0
    9.0970  -13.7980   -1.9420 C   0  0  0  0  0  0  0  0  0  0  0  0
    8.1510  -13.0070   -2.8340 C   0  0  0  0  0  0  0  0  0  0  0  0
    5.7750  -12.2780   -4.2500 C   0  0  0  0  0  0  0  0  0  0  0  0
    4.6330  -11.9100   -4.9900 C   0  0  0  0  0  0  0  0  0  0  0  0
    4.6700  -11.9400   -6.5000 C   0  0  0  0  0  0  0  0  0  0  0  0
    5.9370  -11.9530   -6.9970 F   0  0  0  0  0  0  0  0  0  0  0  0
    4.0560  -10.8590   -7.0490 F   0  0  0  0  0  0  0  0  0  0  0  0
    4.0500  -13.0330   -7.0210 F   0  0  0  0  0  0  0  0  0  0  0  0
    3.4590  -11.5610   -4.3110 C   0  0  0  0  0  0  0  0  0  0  0  0
    2.4970  -12.8820   -0.9740 H   0  0  0  0  0  0  0  0  0  0  0  0
    0.4357  -14.0339   -0.2963 H   0  0  0  0  0  0  0  0  0  0  0  0
   -1.4556  -13.9540    1.3245 H   0  0  0  0  0  0  0  0  0  0  0  0
    1.0723   -9.7940    0.2284 H   0  0  0  0  0  0  0  0  0  0  0  0
    4.5703  -11.9151   -1.1064 H   0  0  0  0  0  0  0  0  0  0  0  0
    6.0016  -12.3068   -0.2652 H   0  0  0  0  0  0  0  0  0  0  0  0
    6.7275  -13.9354   -0.4305 H   0  0  0  0  0  0  0  0  0  0  0  0
    8.2367  -11.2735   -0.2789 H   0  0  0  0  0  0  0  0  0  0  0  0
    8.1164  -12.5412    1.0185 H   0  0  0  0  0  0  0  0  0  0  0  0
    9.7019  -13.8440    0.0837 H   0  0  0  0  0  0  0  0  0  0  0  0
   10.0810  -11.1500   -1.0760 H   0  0  0  0  0  0  0  0  0  0  0  0
   11.0698  -10.7264    0.8467 H   0  0  0  0  0  0  0  0  0  0  0  0
   11.0370  -12.4364    1.2962 H   0  0  0  0  0  0  0  0  0  0  0  0
   13.3609  -11.0859    0.6275 H   0  0  0  0  0  0  0  0  0  0  0  0
   13.1992  -12.8208    0.3782 H   0  0  0  0  0  0  0  0  0  0  0  0
   12.7025  -10.5368   -1.6200 H   0  0  0  0  0  0  0  0  0  0  0  0
   13.7127  -11.9394   -1.8743 H   0  0  0  0  0  0  0  0  0  0  0  0
   11.2318  -12.0107   -2.8440 H   0  0  0  0  0  0  0  0  0  0  0  0
   11.7351  -13.4429   -1.9643 H   0  0  0  0  0  0  0  0  0  0  0  0
   10.0433  -13.9570   -2.4799 H   0  0  0  0  0  0  0  0  0  0  0  0
    8.6140  -14.7555   -1.6974 H   0  0  0  0  0  0  0  0  0  0  0  0
    8.6402  -12.0700   -3.1384 H   0  0  0  0  0  0  0  0  0  0  0  0
    7.9072  -13.6143   -3.7182 H   0  0  0  0  0  0  0  0  0  0  0  0
    6.6904  -12.5555   -4.7932 H   0  0  0  0  0  0  0  0  0  0  0  0
    2.5517  -11.2984   -4.8747 H   0  0  0  0  0  0  0  0  0  0  0  0
  1  2  2  0
  2  3  1  0
  3  4  1  0
  4  5  2  0
  5  6  1  0
  6  7  2  0
  7  8  1  0
  7  9  1  0
  9 10  1  0
  9 11  2  0
  2 12  1  0
 12 13  2  0
 13 14  1  0
 14 15  1  0
 15 16  1  0
 16 17  1  0
 17 18  1  0
 18 19  1  0
 19 20  1  0
 20 21  1  0
 21 22  1  0
 22 23  1  0
 18 24  1  0
 24 25  1  0
 14 26  2  0
 26 27  1  0
 27 28  1  0
 28 29  1  0
 28 30  1  0
 28 31  1  0
 27 32  2  0
 11  4  1  0
 32 12  1  0
 25 15  1  0
 23 19  1  0
  3 33  1  0
  5 34  1  0
  6 35  1  0
 11 36  1  0
 13 37  1  0
 16 38  1  0
 16 39  1  0
 17 40  1  0
 17 41  1  0
 18 42  1  0
 19 43  1  0
 20 44  1  0
 20 45  1  0
 21 46  1  0
 21 47  1  0
 22 48  1  0
 22 49  1  0
 23 50  1  0
 23 51  1  0
 24 52  1  0
 24 53  1  0
 25 54  1  0
 25 55  1  0
 26 56  1  0
 32 57  1  0
M  CHG  1  19   1
M  END
>  <meeko>  (1) 
{"is_sidechain": [false], "free_energy": -8.575, "intermolecular_energy": -11.082, "internal_energy": -0.94}

$$$$
LIB_YBNGDFSHNFUPMT__M_PUB_ALL__e8__s20260927
     RDKit          3D

 57 60  0  0  0  0  0  0  0  0999 V2000
    1.1640  -10.3680   -1.4160 O   0  0  0  0  0  0  0  0  0  0  0  0
    1.3130  -11.4730   -0.9060 C   0  0  0  0  0  0  0  0  0  0  0  0
    2.1280  -12.4920   -1.3660 N   0  0  0  0  0  0  0  0  0  0  0  0
    2.8760  -12.5080   -2.5640 C   0  0  0  0  0  0  0  0  0  0  0  0
    2.1820  -12.8010   -3.7440 C   0  0  0  0  0  0  0  0  0  0  0  0
    2.8470  -12.8370   -4.9740 C   0  0  0  0  0  0  0  0  0  0  0  0
    4.2170  -12.5780   -5.0380 C   0  0  0  0  0  0  0  0  0  0  0  0
    4.9770  -12.6400   -6.5860 Cl  0  0  0  0  0  0  0  0  0  0  0  0
    4.9180  -12.2810   -3.8660 C   0  0  0  0  0  0  0  0  0  0  0  0
    6.6150  -11.9460   -3.8660 Cl  0  0  0  0  0  0  0  0  0  0  0  0
    4.2470  -12.2450   -2.6350 C   0  0  0  0  0  0  0  0  0  0  0  0
    0.5870  -11.7500    0.3680 C   0  0  0  0  0  0  0  0  0  0  0  0
    0.7200  -13.0310    0.9310 C   0  0  0  0  0  0  0  0  0  0  0  0
    0.1110  -13.3880    2.1450 C   0  0  0  0  0  0  0  0  0  0  0  0
    0.2770  -14.6560    2.6950 N   0  0  0  0  0  0  0  0  0  0  0  0
    1.1690  -15.6370    2.0810 C   0  0  0  0  0  0  0  0  0  0  0  0
    0.5240  -17.0160    2.1820 C   0  0  0  0  0  0  0  0  0  0  0  0
    0.2280  -17.4180    3.6360 C   0  0  0  0  0  0  0  0  0  0  0  0
   -1.1100  -18.1630    3.6770 N   0  0  0  0  0  0  0  0  0  0  0  0
   -1.8560  -18.0590    5.0100 C   0  0  0  0  0  0  0  0  0  0  0  0
   -3.2800  -17.6740    4.6510 C   0  0  0  0  0  0  0  0  0  0  0  0
   -3.4470  -18.1420    3.2240 C   0  0  0  0  0  0  0  0  0  0  0  0
   -2.1150  -17.7840    2.6040 C   0  0  0  0  0  0  0  0  0  0  0  0
    0.2330  -16.2180    4.5890 C   0  0  0  0  0  0  0  0  0  0  0  0
   -0.3930  -14.9840    3.9530 C   0  0  0  0  0  0  0  0  0  0  0  0
   -0.6610  -12.3960    2.7680 C   0  0  0  0  0  0  0  0  0  0  0  0
   -0.8120  -11.1020    2.2300 C   0  0  0  0  0  0  0  0  0  0  0  0
   -1.6250  -10.0660    2.9700 C   0  0  0  0  0  0  0  0  0  0  0  0
   -1.3840  -10.0660    4.3100 F   0  0  0  0  0  0  0  0  0  0  0  0
   -2.9610  -10.2620    2.8220 F   0  0  0  0  0  0  0  0  0  0  0  0
   -1.3770   -8.7980    2.5440 F   0  0  0  0  0  0  0  0  0  0  0  0
   -0.1650  -10.7800    1.0300 C   0  0  0  0  0  0  0  0  0  0  0  0
    2.2430  -13.3020   -0.7710 H   0  0  0  0  0  0  0  0  0  0  0  0
    1.1019  -13.0051   -3.7034 H   0  0  0  0  0  0  0  0  0  0  0  0
    2.2890  -13.0699   -5.8929 H   0  0  0  0  0  0  0  0  0  0  0  0
    4.8047  -12.0076   -1.7170 H   0  0  0  0  0  0  0  0  0  0  0  0
    1.3238  -13.7821    0.4007 H   0  0  0  0  0  0  0  0  0  0  0  0
    1.3297  -15.3802    1.0235 H   0  0  0  0  0  0  0  0  0  0  0  0
    2.1388  -15.6381    2.6002 H   0  0  0  0  0  0  0  0  0  0  0  0
   -0.4207  -17.0065    1.6185 H   0  0  0  0  0  0  0  0  0  0  0  0
    1.2320  -17.7492    1.7682 H   0  0  0  0  0  0  0  0  0  0  0  0
    1.0321  -18.0806    3.9886 H   0  0  0  0  0  0  0  0  0  0  0  0
   -0.9060  -19.1650    3.5440 H   0  0  0  0  0  0  0  0  0  0  0  0
   -1.8402  -19.0253    5.5354 H   0  0  0  0  0  0  0  0  0  0  0  0
   -1.3912  -17.3211    5.6804 H   0  0  0  0  0  0  0  0  0  0  0  0
   -3.9986  -18.1793    5.3131 H   0  0  0  0  0  0  0  0  0  0  0  0
   -3.4637  -16.5952    4.7629 H   0  0  0  0  0  0  0  0  0  0  0  0
   -3.6275  -19.2262    3.1798 H   0  0  0  0  0  0  0  0  0  0  0  0
   -4.3063  -17.6858    2.7107 H   0  0  0  0  0  0  0  0  0  0  0  0
   -1.9427  -18.3603    1.6830 H   0  0  0  0  0  0  0  0  0  0  0  0
   -2.0498  -16.7257    2.3112 H   0  0  0  0  0  0  0  0  0  0  0  0
   -0.3365  -16.4796    5.4930 H   0  0  0  0  0  0  0  0  0  0  0  0
    1.2791  -15.9816    4.8334 H   0  0  0  0  0  0  0  0  0  0  0  0
   -1.4572  -15.1799    3.7552 H   0  0  0  0  0  0  0  0  0  0  0  0
   -0.2838  -14.1353    4.6442 H   0  0  0  0  0  0  0  0  0  0  0  0
   -1.1685  -12.6376    3.7136 H   0  0  0  0  0  0  0  0  0  0  0  0
   -0.2498   -9.7662    0.6116 H   0  0  0  0  0  0  0  0  0  0  0  0
  1  2  2  0
  2  3  1  0
  3  4  1  0
  4  5  2  0
  5  6  1  0
  6  7  2  0
  7  8  1  0
  7  9  1  0
  9 10  1  0
  9 11  2  0
  2 12  1  0
 12 13  2  0
 13 14  1  0
 14 15  1  0
 15 16  1  0
 16 17  1  0
 17 18  1  0
 18 19  1  0
 19 20  1  0
 20 21  1  0
 21 22  1  0
 22 23  1  0
 18 24  1  0
 24 25  1  0
 14 26  2  0
 26 27  1  0
 27 28  1  0
 28 29  1  0
 28 30  1  0
 28 31  1  0
 27 32  2  0
 11  4  1  0
 32 12  1  0
 25 15  1  0
 23 19  1  0
  3 33  1  0
  5 34  1  0
  6 35  1  0
 11 36  1  0
 13 37  1  0
 16 38  1  0
 16 39  1  0
 17 40  1  0
 17 41  1  0
 18 42  1  0
 19 43  1  0
 20 44  1  0
 20 45  1  0
 21 46  1  0
 21 47  1  0
 22 48  1  0
 22 49  1  0
 23 50  1  0
 23 51  1  0
 24 52  1  0
 24 53  1  0
 25 54  1  0
 25 55  1  0
 26 56  1  0
 32 57  1  0
M  CHG  1  19   1
M  END
>  <meeko>  (2) 
{"is_sidechain": [false], "free_energy": -8.341, "intermolecular_energy": -10.394, "internal_energy": -1.324}

$$$$
LIB_YBNGDFSHNFUPMT__M_PUB_ALL__e8__s20260927
     RDKit          3D

 57 60  0  0  0  0  0  0  0  0999 V2000
    5.7970  -13.1270    1.0160 O   0  0  0  0  0  0  0  0  0  0  0  0
    5.7650  -12.6730   -0.1230 C   0  0  0  0  0  0  0  0  0  0  0  0
    6.8460  -12.4600   -0.9590 N   0  0  0  0  0  0  0  0  0  0  0  0
    8.2120  -12.6270   -0.6430 C   0  0  0  0  0  0  0  0  0  0  0  0
    8.7170  -11.8710    0.4220 C   0  0  0  0  0  0  0  0  0  0  0  0
   10.0590  -11.9770    0.8020 C   0  0  0  0  0  0  0  0  0  0  0  0
   10.9130  -12.8450    0.1200 C   0  0  0  0  0  0  0  0  0  0  0  0
   12.5580  -12.9270    0.6380 Cl  0  0  0  0  0  0  0  0  0  0  0  0
   10.4180  -13.6070   -0.9410 C   0  0  0  0  0  0  0  0  0  0  0  0
   11.4140  -14.7060   -1.8310 Cl  0  0  0  0  0  0  0  0  0  0  0  0
    9.0720  -13.4980   -1.3180 C   0  0  0  0  0  0  0  0  0  0  0  0
    4.4260  -12.3550   -0.7020 C   0  0  0  0  0  0  0  0  0  0  0  0
    3.2950  -12.5870    0.1000 C   0  0  0  0  0  0  0  0  0  0  0  0
    1.9920  -12.2900   -0.3300 C   0  0  0  0  0  0  0  0  0  0  0  0
    0.8900  -12.5060    0.4910 N   0  0  0  0  0  0  0  0  0  0  0  0
    0.3760  -13.8540    0.7290 C   0  0  0  0  0  0  0  0  0  0  0  0
   -1.1480  -13.7980    0.7630 C   0  0  0  0  0  0  0  0  0  0  0  0
   -1.6740  -12.8400    1.8450 C   0  0  0  0  0  0  0  0  0  0  0  0
   -2.9030  -12.1070    1.2970 N   0  0  0  0  0  0  0  0  0  0  0  0
   -2.7200  -10.5970    1.1280 C   0  0  0  0  0  0  0  0  0  0  0  0
   -3.2120  -10.2800   -0.2730 C   0  0  0  0  0  0  0  0  0  0  0  0
   -4.1580  -11.4120   -0.6030 C   0  0  0  0  0  0  0  0  0  0  0  0
   -3.4420  -12.6140   -0.0290 C   0  0  0  0  0  0  0  0  0  0  0  0
   -0.6020  -11.8580    2.3300 C   0  0  0  0  0  0  0  0  0  0  0  0
    0.2830  -11.3740    1.1900 C   0  0  0  0  0  0  0  0  0  0  0  0
    1.8710  -11.7580   -1.6230 C   0  0  0  0  0  0  0  0  0  0  0  0
    2.9860  -11.5120   -2.4500 C   0  0  0  0  0  0  0  0  0  0  0  0
    2.7920  -10.9000   -3.8180 C   0  0  0  0  0  0  0  0  0  0  0  0
    3.9640  -10.7270   -4.4890 F   0  0  0  0  0  0  0  0  0  0  0  0
    2.2050   -9.6760   -3.7530 F   0  0  0  0  0  0  0  0  0  0  0  0
    2.0030  -11.6570   -4.6270 F   0  0  0  0  0  0  0  0  0  0  0  0
    4.2710  -11.7990   -1.9710 C   0  0  0  0  0  0  0  0  0  0  0  0
    6.6510  -12.1960   -1.9160 H   0  0  0  0  0  0  0  0  0  0  0  0
    8.0505  -11.1857    0.9662 H   0  0  0  0  0  0  0  0  0  0  0  0
   10.4418  -11.3754    1.6396 H   0  0  0  0  0  0  0  0  0  0  0  0
    8.6892  -14.1035   -2.1527 H   0  0  0  0  0  0  0  0  0  0  0  0
    3.4363  -13.0175    1.1023 H   0  0  0  0  0  0  0  0  0  0  0  0
    0.7037  -14.5232   -0.0802 H   0  0  0  0  0  0  0  0  0  0  0  0
    0.7582  -14.2369    1.6868 H   0  0  0  0  0  0  0  0  0  0  0  0
   -1.5112  -13.4572   -0.2178 H   0  0  0  0  0  0  0  0  0  0  0  0
   -1.5161  -14.8071    0.9999 H   0  0  0  0  0  0  0  0  0  0  0  0
   -1.9583  -13.4292    2.7293 H   0  0  0  0  0  0  0  0  0  0  0  0
   -3.6610  -12.2260    1.9840 H   0  0  0  0  0  0  0  0  0  0  0  0
   -3.3145  -10.0521    1.8761 H   0  0  0  0  0  0  0  0  0  0  0  0
   -1.6714  -10.2959    1.2688 H   0  0  0  0  0  0  0  0  0  0  0  0
   -3.7386   -9.3144   -0.2917 H   0  0  0  0  0  0  0  0  0  0  0  0
   -2.3890  -10.1959   -0.9979 H   0  0  0  0  0  0  0  0  0  0  0  0
   -5.1366  -11.2652   -0.1226 H   0  0  0  0  0  0  0  0  0  0  0  0
   -4.3757  -11.5028   -1.6774 H   0  0  0  0  0  0  0  0  0  0  0  0
   -4.1395  -13.4507    0.1244 H   0  0  0  0  0  0  0  0  0  0  0  0
   -2.6536  -12.9996   -0.6922 H   0  0  0  0  0  0  0  0  0  0  0  0
   -1.0970  -10.9896    2.7891 H   0  0  0  0  0  0  0  0  0  0  0  0
    0.0356  -12.3818    3.0574 H   0  0  0  0  0  0  0  0  0  0  0  0
   -0.3266  -10.7959    0.4800 H   0  0  0  0  0  0  0  0  0  0  0  0
    1.0835  -10.7446    1.6061 H   0  0  0  0  0  0  0  0  0  0  0  0
    0.8669  -11.5238   -2.0062 H   0  0  0  0  0  0  0  0  0  0  0  0
    5.1530  -11.5867   -2.5930 H   0  0  0  0  0  0  0  0  0  0  0  0
  1  2  2  0
  2  3  1  0
  3  4  1  0
  4  5  2  0
  5  6  1  0
  6  7  2  0
  7  8  1  0
  7  9  1  0
  9 10  1  0
  9 11  2  0
  2 12  1  0
 12 13  2  0
 13 14  1  0
 14 15  1  0
 15 16  1  0
 16 17  1  0
 17 18  1  0
 18 19  1  0
 19 20  1  0
 20 21  1  0
 21 22  1  0
 22 23  1  0
 18 24  1  0
 24 25  1  0
 14 26  2  0
 26 27  1  0
 27 28  1  0
 28 29  1  0
 28 30  1  0
 28 31  1  0
 27 32  2  0
 11  4  1  0
 32 12  1  0
 25 15  1  0
 23 19  1  0
  3 33  1  0
  5 34  1  0
  6 35  1  0
 11 36  1  0
 13 37  1  0
 16 38  1  0
 16 39  1  0
 17 40  1  0
 17 41  1  0
 18 42  1  0
 19 43  1  0
 20 44  1  0
 20 45  1  0
 21 46  1  0
 21 47  1  0
 22 48  1  0
 22 49  1  0
 23 50  1  0
 23 51  1  0
 24 52  1  0
 24 53  1  0
 25 54  1  0
 25 55  1  0
 26 56  1  0
 32 57  1  0
M  CHG  1  19   1
M  END
>  <meeko>  (3) 
{"is_sidechain": [false], "free_energy": -8.319, "intermolecular_energy": -10.845, "internal_energy": -0.845}

$$$$
LIB_YBNGDFSHNFUPMT__M_PUB_ALL__e8__s20260927
     RDKit          3D

 57 60  0  0  0  0  0  0  0  0999 V2000
    3.2240  -12.0370   -0.7120 O   0  0  0  0  0  0  0  0  0  0  0  0
    2.1060  -12.1640   -1.1980 C   0  0  0  0  0  0  0  0  0  0  0  0
    1.8040  -12.3850   -2.5290 N   0  0  0  0  0  0  0  0  0  0  0  0
    2.7080  -12.4120   -3.6140 C   0  0  0  0  0  0  0  0  0  0  0  0
    2.8520  -11.2310   -4.3530 C   0  0  0  0  0  0  0  0  0  0  0  0
    3.7270  -11.1720   -5.4430 C   0  0  0  0  0  0  0  0  0  0  0  0
    4.4720  -12.2950   -5.8050 C   0  0  0  0  0  0  0  0  0  0  0  0
    5.5330  -12.1560   -7.1600 Cl  0  0  0  0  0  0  0  0  0  0  0  0
    4.3390  -13.4770   -5.0700 C   0  0  0  0  0  0  0  0  0  0  0  0
    5.2300  -14.9080   -5.4560 Cl  0  0  0  0  0  0  0  0  0  0  0  0
    3.4610  -13.5320   -3.9790 C   0  0  0  0  0  0  0  0  0  0  0  0
    0.9390  -12.1260   -0.2680 C   0  0  0  0  0  0  0  0  0  0  0  0
    0.3240  -13.3470    0.0590 C   0  0  0  0  0  0  0  0  0  0  0  0
   -0.7570  -13.4310    0.9520 C   0  0  0  0  0  0  0  0  0  0  0  0
   -1.3350  -14.6540    1.2780 N   0  0  0  0  0  0  0  0  0  0  0  0
   -2.7000  -14.7320    1.7970 C   0  0  0  0  0  0  0  0  0  0  0  0
   -2.7510  -15.8070    2.8790 C   0  0  0  0  0  0  0  0  0  0  0  0
   -2.3110  -17.1840    2.3570 C   0  0  0  0  0  0  0  0  0  0  0  0
   -1.4980  -17.8870    3.4490 N   0  0  0  0  0  0  0  0  0  0  0  0
   -0.6440  -16.9520    4.3080 C   0  0  0  0  0  0  0  0  0  0  0  0
   -0.9380  -17.3390    5.7470 C   0  0  0  0  0  0  0  0  0  0  0  0
   -1.4240  -18.7680    5.6600 C   0  0  0  0  0  0  0  0  0  0  0  0
   -2.2910  -18.7430    4.4210 C   0  0  0  0  0  0  0  0  0  0  0  0
   -1.5260  -17.0910    1.0430 C   0  0  0  0  0  0  0  0  0  0  0  0
   -0.5930  -15.8880    1.0240 C   0  0  0  0  0  0  0  0  0  0  0  0
   -1.2090  -12.2190    1.4970 C   0  0  0  0  0  0  0  0  0  0  0  0
   -0.6110  -10.9800    1.1910 C   0  0  0  0  0  0  0  0  0  0  0  0
   -1.1190   -9.7150    1.8420 C   0  0  0  0  0  0  0  0  0  0  0  0
   -2.2580   -9.2450    1.2630 F   0  0  0  0  0  0  0  0  0  0  0  0
   -0.2120   -8.7040    1.7740 F   0  0  0  0  0  0  0  0  0  0  0  0
   -1.4070   -9.8790    3.1610 F   0  0  0  0  0  0  0  0  0  0  0  0
    0.4820  -10.9440    0.3150 C   0  0  0  0  0  0  0  0  0  0  0  0
    0.8410  -12.5920   -2.7620 H   0  0  0  0  0  0  0  0  0  0  0  0
    2.2707  -10.3400   -4.0733 H   0  0  0  0  0  0  0  0  0  0  0  0
    3.8279  -10.2384   -6.0159 H   0  0  0  0  0  0  0  0  0  0  0  0
    3.3634  -14.4650   -3.4046 H   0  0  0  0  0  0  0  0  0  0  0  0
    0.7034  -14.2711   -0.4016 H   0  0  0  0  0  0  0  0  0  0  0  0
   -2.9891  -13.7611    2.2258 H   0  0  0  0  0  0  0  0  0  0  0  0
   -3.3964  -14.9850    0.9840 H   0  0  0  0  0  0  0  0  0  0  0  0
   -2.0841  -15.5116    3.7024 H   0  0  0  0  0  0  0  0  0  0  0  0
   -3.7942  -15.8938    3.2171 H   0  0  0  0  0  0  0  0  0  0  0  0
   -3.2091  -17.7752    2.1249 H   0  0  0  0  0  0  0  0  0  0  0  0
   -0.8360  -18.5210    2.9770 H   0  0  0  0  0  0  0  0  0  0  0  0
    0.4236  -17.0918    4.0830 H   0  0  0  0  0  0  0  0  0  0  0  0
   -0.8772  -15.8945    4.1146 H   0  0  0  0  0  0  0  0  0  0  0  0
   -0.0278  -17.2741    6.3613 H   0  0  0  0  0  0  0  0  0  0  0  0
   -1.6759  -16.6730    6.2180 H   0  0  0  0  0  0  0  0  0  0  0  0
   -0.5832  -19.4676    5.5430 H   0  0  0  0  0  0  0  0  0  0  0  0
   -1.9562  -19.1062    6.5613 H   0  0  0  0  0  0  0  0  0  0  0  0
   -2.4364  -19.7579    4.0226 H   0  0  0  0  0  0  0  0  0  0  0  0
   -3.3002  -18.3495    4.6128 H   0  0  0  0  0  0  0  0  0  0  0  0
   -0.9287  -18.0065    0.9198 H   0  0  0  0  0  0  0  0  0  0  0  0
   -2.2483  -16.9757    0.2214 H   0  0  0  0  0  0  0  0  0  0  0  0
    0.1747  -16.0142    1.8016 H   0  0  0  0  0  0  0  0  0  0  0  0
   -0.1236  -15.8203    0.0315 H   0  0  0  0  0  0  0  0  0  0  0  0
   -2.0632  -12.2369    2.1899 H   0  0  0  0  0  0  0  0  0  0  0  0
    0.9773   -9.9884    0.0881 H   0  0  0  0  0  0  0  0  0  0  0  0
  1  2  2  0
  2  3  1  0
  3  4  1  0
  4  5  2  0
  5  6  1  0
  6  7  2  0
  7  8  1  0
  7  9  1  0
  9 10  1  0
  9 11  2  0
  2 12  1  0
 12 13  2  0
 13 14  1  0
 14 15  1  0
 15 16  1  0
 16 17  1  0
 17 18  1  0
 18 19  1  0
 19 20  1  0
 20 21  1  0
 21 22  1  0
 22 23  1  0
 18 24  1  0
 24 25  1  0
 14 26  2  0
 26 27  1  0
 27 28  1  0
 28 29  1  0
 28 30  1  0
 28 31  1  0
 27 32  2  0
 11  4  1  0
 32 12  1  0
 25 15  1  0
 23 19  1  0
  3 33  1  0
  5 34  1  0
  6 35  1  0
 11 36  1  0
 13 37  1  0
 16 38  1  0
 16 39  1  0
 17 40  1  0
 17 41  1  0
 18 42  1  0
 19 43  1  0
 20 44  1  0
 20 45  1  0
 21 46  1  0
 21 47  1  0
 22 48  1  0
 22 49  1  0
 23 50  1  0
 23 51  1  0
 24 52  1  0
 24 53  1  0
 25 54  1  0
 25 55  1  0
 26 56  1  0
 32 57  1  0
M  CHG  1  19   1
M  END
>  <meeko>  (4) 
{"is_sidechain": [false], "free_energy": -8.222, "intermolecular_energy": -10.401, "internal_energy": -1.163}

$$$$
LIB_YBNGDFSHNFUPMT__M_PUB_ALL__e8__s20260927
     RDKit          3D

 57 60  0  0  0  0  0  0  0  0999 V2000
    7.1470  -11.4860   -0.2480 O   0  0  0  0  0  0  0  0  0  0  0  0
    7.3840  -12.6730   -0.0480 C   0  0  0  0  0  0  0  0  0  0  0  0
    8.6290  -13.2490    0.1250 N   0  0  0  0  0  0  0  0  0  0  0  0
    9.8850  -12.6120    0.0110 C   0  0  0  0  0  0  0  0  0  0  0  0
   10.2860  -11.7990    1.0790 C   0  0  0  0  0  0  0  0  0  0  0  0
   11.5160  -11.1330    1.0470 C   0  0  0  0  0  0  0  0  0  0  0  0
   12.3610  -11.2740   -0.0550 C   0  0  0  0  0  0  0  0  0  0  0  0
   13.8620  -10.4230   -0.0310 Cl  0  0  0  0  0  0  0  0  0  0  0  0
   11.9710  -12.0860   -1.1230 C   0  0  0  0  0  0  0  0  0  0  0  0
   12.9660  -12.3120   -2.5200 Cl  0  0  0  0  0  0  0  0  0  0  0  0
   10.7380  -12.7530   -1.0870 C   0  0  0  0  0  0  0  0  0  0  0  0
    6.2200  -13.5990    0.0700 C   0  0  0  0  0  0  0  0  0  0  0  0
    4.9330  -13.0330    0.0900 C   0  0  0  0  0  0  0  0  0  0  0  0
    3.7680  -13.8130    0.1610 C   0  0  0  0  0  0  0  0  0  0  0  0
    2.5040  -13.2310    0.1560 N   0  0  0  0  0  0  0  0  0  0  0  0
    2.0900  -12.3300   -0.9180 C   0  0  0  0  0  0  0  0  0  0  0  0
    1.2670  -11.1950   -0.3140 C   0  0  0  0  0  0  0  0  0  0  0  0
    0.0310  -11.7080    0.4430 C   0  0  0  0  0  0  0  0  0  0  0  0
   -0.1690  -10.8500    1.6960 N   0  0  0  0  0  0  0  0  0  0  0  0
   -0.5890   -9.4050    1.4180 C   0  0  0  0  0  0  0  0  0  0  0  0
   -1.7750   -9.1410    2.3290 C   0  0  0  0  0  0  0  0  0  0  0  0
   -1.6170  -10.1430    3.4490 C   0  0  0  0  0  0  0  0  0  0  0  0
   -1.1590  -11.3840    2.7160 C   0  0  0  0  0  0  0  0  0  0  0  0
    0.1320  -13.1970    0.7910 C   0  0  0  0  0  0  0  0  0  0  0  0
    1.5450  -13.5900    1.2000 C   0  0  0  0  0  0  0  0  0  0  0  0
    3.9530  -15.2030    0.2300 C   0  0  0  0  0  0  0  0  0  0  0  0
    5.2290  -15.8000    0.2090 C   0  0  0  0  0  0  0  0  0  0  0  0
    5.3610  -17.3050    0.2460 C   0  0  0  0  0  0  0  0  0  0  0  0
    6.6200  -17.7310   -0.0460 F   0  0  0  0  0  0  0  0  0  0  0  0
    4.5360  -17.9120   -0.6470 F   0  0  0  0  0  0  0  0  0  0  0  0
    5.0580  -17.8320    1.4620 F   0  0  0  0  0  0  0  0  0  0  0  0
    6.3660  -14.9860    0.1110 C   0  0  0  0  0  0  0  0  0  0  0  0
    8.6590  -14.2200    0.4050 H   0  0  0  0  0  0  0  0  0  0  0  0
    9.6269  -11.6830    1.9520 H   0  0  0  0  0  0  0  0  0  0  0  0
   11.8178  -10.4969    1.8921 H   0  0  0  0  0  0  0  0  0  0  0  0
   10.4396  -13.3929   -1.9305 H   0  0  0  0  0  0  0  0  0  0  0  0
    4.8354  -11.9381    0.0485 H   0  0  0  0  0  0  0  0  0  0  0  0
    2.9785  -11.9174   -1.4183 H   0  0  0  0  0  0  0  0  0  0  0  0
    1.4869  -12.8788   -1.6563 H   0  0  0  0  0  0  0  0  0  0  0  0
    1.9017  -10.6317    0.3859 H   0  0  0  0  0  0  0  0  0  0  0  0
    0.9154  -10.5586   -1.1395 H   0  0  0  0  0  0  0  0  0  0  0  0
   -0.8468  -11.6156   -0.2134 H   0  0  0  0  0  0  0  0  0  0  0  0
    0.7410  -10.7930    2.1760 H   0  0  0  0  0  0  0  0  0  0  0  0
    0.2349   -8.7143    1.6506 H   0  0  0  0  0  0  0  0  0  0  0  0
   -0.8474   -9.2531    0.3596 H   0  0  0  0  0  0  0  0  0  0  0  0
   -1.7453   -8.1129    2.7191 H   0  0  0  0  0  0  0  0  0  0  0  0
   -2.7373   -9.2440    1.8061 H   0  0  0  0  0  0  0  0  0  0  0  0
   -0.8624   -9.8100    4.1768 H   0  0  0  0  0  0  0  0  0  0  0  0
   -2.5355  -10.2939    4.0351 H   0  0  0  0  0  0  0  0  0  0  0  0
   -0.6714  -12.0897    3.4047 H   0  0  0  0  0  0  0  0  0  0  0  0
   -1.9892  -11.9401    2.2560 H   0  0  0  0  0  0  0  0  0  0  0  0
   -0.5528  -13.4148    1.6238 H   0  0  0  0  0  0  0  0  0  0  0  0
   -0.1368  -13.7755   -0.1052 H   0  0  0  0  0  0  0  0  0  0  0  0
    1.8106  -13.0660    2.1300 H   0  0  0  0  0  0  0  0  0  0  0  0
    1.5792  -14.6789    1.3523 H   0  0  0  0  0  0  0  0  0  0  0  0
    3.0673  -15.8512    0.3033 H   0  0  0  0  0  0  0  0  0  0  0  0
    7.3678  -15.4382    0.0667 H   0  0  0  0  0  0  0  0  0  0  0  0
  1  2  2  0
  2  3  1  0
  3  4  1  0
  4  5  2  0
  5  6  1  0
  6  7  2  0
  7  8  1  0
  7  9  1  0
  9 10  1  0
  9 11  2  0
  2 12  1  0
 12 13  2  0
 13 14  1  0
 14 15  1  0
 15 16  1  0
 16 17  1  0
 17 18  1  0
 18 19  1  0
 19 20  1  0
 20 21  1  0
 21 22  1  0
 22 23  1  0
 18 24  1  0
 24 25  1  0
 14 26  2  0
 26 27  1  0
 27 28  1  0
 28 29  1  0
 28 30  1  0
 28 31  1  0
 27 32  2  0
 11  4  1  0
 32 12  1  0
 25 15  1  0
 23 19  1  0
  3 33  1  0
  5 34  1  0
  6 35  1  0
 11 36  1  0
 13 37  1  0
 16 38  1  0
 16 39  1  0
 17 40  1  0
 17 41  1  0
 18 42  1  0
 19 43  1  0
 20 44  1  0
 20 45  1  0
 21 46  1  0
 21 47  1  0
 22 48  1  0
 22 49  1  0
 23 50  1  0
 23 51  1  0
 24 52  1  0
 24 53  1  0
 25 54  1  0
 25 55  1  0
 26 56  1  0
 32 57  1  0
M  CHG  1  19   1
M  END
>  <meeko>  (5) 
{"is_sidechain": [false], "free_energy": -8.221, "intermolecular_energy": -10.448, "internal_energy": -1.116}

$$$$
LIB_YBNGDFSHNFUPMT__M_PUB_ALL__e8__s20260927
     RDKit          3D

 57 60  0  0  0  0  0  0  0  0999 V2000
   13.5740  -12.1210   -4.4450 O   0  0  0  0  0  0  0  0  0  0  0  0
   12.6490  -12.9230   -4.3880 C   0  0  0  0  0  0  0  0  0  0  0  0
   12.4240  -13.9870   -5.2430 N   0  0  0  0  0  0  0  0  0  0  0  0
   13.1540  -14.3110   -6.4080 C   0  0  0  0  0  0  0  0  0  0  0  0
   14.3650  -14.9930   -6.2320 C   0  0  0  0  0  0  0  0  0  0  0  0
   15.1490  -15.3530   -7.3330 C   0  0  0  0  0  0  0  0  0  0  0  0
   14.7300  -15.0360   -8.6250 C   0  0  0  0  0  0  0  0  0  0  0  0
   15.7450  -15.5080   -9.9400 Cl  0  0  0  0  0  0  0  0  0  0  0  0
   13.5210  -14.3600   -8.8120 C   0  0  0  0  0  0  0  0  0  0  0  0
   12.9340  -13.9370  -10.3830 Cl  0  0  0  0  0  0  0  0  0  0  0  0
   12.7380  -14.0020   -7.7060 C   0  0  0  0  0  0  0  0  0  0  0  0
   11.6790  -12.7820   -3.2620 C   0  0  0  0  0  0  0  0  0  0  0  0
   10.3190  -13.0030   -3.5390 C   0  0  0  0  0  0  0  0  0  0  0  0
    9.3270  -12.9330   -2.5480 C   0  0  0  0  0  0  0  0  0  0  0  0
    7.9890  -13.1780   -2.8410 N   0  0  0  0  0  0  0  0  0  0  0  0
    7.3400  -14.4220   -2.4300 C   0  0  0  0  0  0  0  0  0  0  0  0
    6.3990  -14.8730   -3.5440 C   0  0  0  0  0  0  0  0  0  0  0  0
    5.3350  -13.8140   -3.8760 C   0  0  0  0  0  0  0  0  0  0  0  0
    5.1080  -13.8030   -5.3910 N   0  0  0  0  0  0  0  0  0  0  0  0
    4.4860  -12.5150   -5.9330 C   0  0  0  0  0  0  0  0  0  0  0  0
    5.3460  -12.1120   -7.1180 C   0  0  0  0  0  0  0  0  0  0  0  0
    5.9980  -13.4020   -7.5630 C   0  0  0  0  0  0  0  0  0  0  0  0
    6.3330  -14.0690   -6.2480 C   0  0  0  0  0  0  0  0  0  0  0  0
    5.7100  -12.4230   -3.3530 C   0  0  0  0  0  0  0  0  0  0  0  0
    7.1980  -12.1410   -3.5030 C   0  0  0  0  0  0  0  0  0  0  0  0
    9.7630  -12.6100   -1.2540 C   0  0  0  0  0  0  0  0  0  0  0  0
   11.1200  -12.3850   -0.9440 C   0  0  0  0  0  0  0  0  0  0  0  0
   11.5300  -12.0810    0.4770 C   0  0  0  0  0  0  0  0  0  0  0  0
   12.0980  -10.8510    0.6100 F   0  0  0  0  0  0  0  0  0  0  0  0
   12.4400  -12.9740    0.9500 F   0  0  0  0  0  0  0  0  0  0  0  0
   10.4840  -12.1090    1.3460 F   0  0  0  0  0  0  0  0  0  0  0  0
   12.0810  -12.4910   -1.9590 C   0  0  0  0  0  0  0  0  0  0  0  0
   11.6880  -14.6360   -4.9970 H   0  0  0  0  0  0  0  0  0  0  0  0
   14.7030  -15.2482   -5.2168 H   0  0  0  0  0  0  0  0  0  0  0  0
   16.0982  -15.8873   -7.1795 H   0  0  0  0  0  0  0  0  0  0  0  0
   11.7864  -13.4725   -7.8612 H   0  0  0  0  0  0  0  0  0  0  0  0
   10.0206  -13.2397   -4.5710 H   0  0  0  0  0  0  0  0  0  0  0  0
    8.1014  -15.1958   -2.2524 H   0  0  0  0  0  0  0  0  0  0  0  0
    6.7723  -14.2602   -1.5018 H   0  0  0  0  0  0  0  0  0  0  0  0
    6.9924  -15.0734   -4.4483 H   0  0  0  0  0  0  0  0  0  0  0  0
    5.8765  -15.7766   -3.1968 H   0  0  0  0  0  0  0  0  0  0  0  0
    4.3993  -14.0821   -3.3637 H   0  0  0  0  0  0  0  0  0  0  0  0
    4.4350  -14.5550   -5.6050 H   0  0  0  0  0  0  0  0  0  0  0  0
    3.4496  -12.6951   -6.2546 H   0  0  0  0  0  0  0  0  0  0  0  0
    4.4532  -11.7258   -5.1674 H   0  0  0  0  0  0  0  0  0  0  0  0
    4.7266  -11.6905   -7.9234 H   0  0  0  0  0  0  0  0  0  0  0  0
    6.0822  -11.3369   -6.8585 H   0  0  0  0  0  0  0  0  0  0  0  0
    5.3025  -14.0157   -8.1544 H   0  0  0  0  0  0  0  0  0  0  0  0
    6.8721  -13.2503   -8.2133 H   0  0  0  0  0  0  0  0  0  0  0  0
    6.4901  -15.1492   -6.3842 H   0  0  0  0  0  0  0  0  0  0  0  0
    7.2609  -13.6858   -5.7983 H   0  0  0  0  0  0  0  0  0  0  0  0
    5.1462  -11.6667   -3.9188 H   0  0  0  0  0  0  0  0  0  0  0  0
    5.4625  -12.3840   -2.2819 H   0  0  0  0  0  0  0  0  0  0  0  0
    7.4553  -12.1177   -4.5722 H   0  0  0  0  0  0  0  0  0  0  0  0
    7.4235  -11.1711   -3.0355 H   0  0  0  0  0  0  0  0  0  0  0  0
    9.0168  -12.5291   -0.4498 H   0  0  0  0  0  0  0  0  0  0  0  0
   13.1467  -12.3454   -1.7287 H   0  0  0  0  0  0  0  0  0  0  0  0
  1  2  2  0
  2  3  1  0
  3  4  1  0
  4  5  2  0
  5  6  1  0
  6  7  2  0
  7  8  1  0
  7  9  1  0
  9 10  1  0
  9 11  2  0
  2 12  1  0
 12 13  2  0
 13 14  1  0
 14 15  1  0
 15 16  1  0
 16 17  1  0
 17 18  1  0
 18 19  1  0
 19 20  1  0
 20 21  1  0
 21 22  1  0
 22 23  1  0
 18 24  1  0
 24 25  1  0
 14 26  2  0
 26 27  1  0
 27 28  1  0
 28 29  1  0
 28 30  1  0
 28 31  1  0
 27 32  2  0
 11  4  1  0
 32 12  1  0
 25 15  1  0
 23 19  1  0
  3 33  1  0
  5 34  1  0
  6 35  1  0
 11 36  1  0
 13 37  1  0
 16 38  1  0
 16 39  1  0
 17 40  1  0
 17 41  1  0
 18 42  1  0
 19 43  1  0
 20 44  1  0
 20 45  1  0
 21 46  1  0
 21 47  1  0
 22 48  1  0
 22 49  1  0
 23 50  1  0
 23 51  1  0
 24 52  1  0
 24 53  1  0
 25 54  1  0
 25 55  1  0
 26 56  1  0
 32 57  1  0
M  CHG  1  19   1
M  END
>  <meeko>  (6) 
{"is_sidechain": [false], "free_energy": -8.18, "intermolecular_energy": -10.209, "internal_energy": -1.301}

$$$$
LIB_YBNGDFSHNFUPMT__M_PUB_ALL__e8__s20260927
     RDKit          3D

 57 60  0  0  0  0  0  0  0  0999 V2000
    0.8450  -10.6990    1.0270 O   0  0  0  0  0  0  0  0  0  0  0  0
    0.9190  -11.6380    0.2410 C   0  0  0  0  0  0  0  0  0  0  0  0
   -0.0090  -12.6500    0.0730 N   0  0  0  0  0  0  0  0  0  0  0  0
   -1.1790  -12.8660    0.8330 C   0  0  0  0  0  0  0  0  0  0  0  0
   -2.2440  -11.9800    0.6290 C   0  0  0  0  0  0  0  0  0  0  0  0
   -3.4400  -12.1240    1.3400 C   0  0  0  0  0  0  0  0  0  0  0  0
   -3.5850  -13.1590    2.2650 C   0  0  0  0  0  0  0  0  0  0  0  0
   -5.0860  -13.2790    3.1100 Cl  0  0  0  0  0  0  0  0  0  0  0  0
   -2.5300  -14.0510    2.4730 C   0  0  0  0  0  0  0  0  0  0  0  0
   -2.6370  -15.3600    3.5980 Cl  0  0  0  0  0  0  0  0  0  0  0  0
   -1.3330  -13.9040    1.7570 C   0  0  0  0  0  0  0  0  0  0  0  0
    2.1010  -11.6860   -0.6680 C   0  0  0  0  0  0  0  0  0  0  0  0
    3.3450  -12.0230   -0.1070 C   0  0  0  0  0  0  0  0  0  0  0  0
    4.5150  -12.1340   -0.8760 C   0  0  0  0  0  0  0  0  0  0  0  0
    5.7300  -12.4910   -0.3000 N   0  0  0  0  0  0  0  0  0  0  0  0
    5.9960  -12.2560    1.1180 C   0  0  0  0  0  0  0  0  0  0  0  0
    7.4470  -11.8120    1.2760 C   0  0  0  0  0  0  0  0  0  0  0  0
    8.4390  -12.8490    0.7250 C   0  0  0  0  0  0  0  0  0  0  0  0
    9.5940  -12.1090    0.0410 N   0  0  0  0  0  0  0  0  0  0  0  0
   10.7130  -11.6650    0.9850 C   0  0  0  0  0  0  0  0  0  0  0  0
   12.0050  -12.1190    0.3290 C   0  0  0  0  0  0  0  0  0  0  0  0
   11.6590  -12.2390   -1.1380 C   0  0  0  0  0  0  0  0  0  0  0  0
   10.2750  -12.8480   -1.0970 C   0  0  0  0  0  0  0  0  0  0  0  0
    7.7730  -13.8510   -0.2240 C   0  0  0  0  0  0  0  0  0  0  0  0
    6.7290  -13.1870   -1.1110 C   0  0  0  0  0  0  0  0  0  0  0  0
    4.3830  -11.8710   -2.2480 C   0  0  0  0  0  0  0  0  0  0  0  0
    3.1500  -11.5340   -2.8410 C   0  0  0  0  0  0  0  0  0  0  0  0
    3.0670  -11.3030   -4.3320 C   0  0  0  0  0  0  0  0  0  0  0  0
    2.9470   -9.9850   -4.6550 F   0  0  0  0  0  0  0  0  0  0  0  0
    1.9970  -11.9300   -4.8890 F   0  0  0  0  0  0  0  0  0  0  0  0
    4.1620  -11.7550   -4.9990 F   0  0  0  0  0  0  0  0  0  0  0  0
    2.0020  -11.4600   -2.0410 C   0  0  0  0  0  0  0  0  0  0  0  0
    0.1300  -13.2870   -0.7000 H   0  0  0  0  0  0  0  0  0  0  0  0
   -2.1389  -11.1616   -0.0985 H   0  0  0  0  0  0  0  0  0  0  0  0
   -4.2679  -11.4201    1.1697 H   0  0  0  0  0  0  0  0  0  0  0  0
   -0.5077  -14.6119    1.9239 H   0  0  0  0  0  0  0  0  0  0  0  0
    3.4044  -12.2068    0.9759 H   0  0  0  0  0  0  0  0  0  0  0  0
    5.3252  -11.4701    1.4952 H   0  0  0  0  0  0  0  0  0  0  0  0
    5.8219  -13.1792    1.6902 H   0  0  0  0  0  0  0  0  0  0  0  0
    7.5880  -10.8652    0.7341 H   0  0  0  0  0  0  0  0  0  0  0  0
    7.6470  -11.6939    2.3512 H   0  0  0  0  0  0  0  0  0  0  0  0
    8.8262  -13.4462    1.5637 H   0  0  0  0  0  0  0  0  0  0  0  0
    9.2050  -11.2450   -0.3650 H   0  0  0  0  0  0  0  0  0  0  0  0
   10.7054  -10.5712    1.1018 H   0  0  0  0  0  0  0  0  0  0  0  0
   10.5931  -12.0966    1.9896 H   0  0  0  0  0  0  0  0  0  0  0  0
   12.8014  -11.3757    0.4817 H   0  0  0  0  0  0  0  0  0  0  0  0
   12.3802  -13.0633    0.7502 H   0  0  0  0  0  0  0  0  0  0  0  0
   11.6456  -11.2530   -1.6256 H   0  0  0  0  0  0  0  0  0  0  0  0
   12.3839  -12.8338   -1.7131 H   0  0  0  0  0  0  0  0  0  0  0  0
    9.7445  -12.6821   -2.0463 H   0  0  0  0  0  0  0  0  0  0  0  0
   10.2916  -13.9380   -0.9498 H   0  0  0  0  0  0  0  0  0  0  0  0
    8.5460  -14.3035   -0.8626 H   0  0  0  0  0  0  0  0  0  0  0  0
    7.2661  -14.6128    0.3865 H   0  0  0  0  0  0  0  0  0  0  0  0
    7.2256  -12.4623   -1.7730 H   0  0  0  0  0  0  0  0  0  0  0  0
    6.2244  -13.9628   -1.7055 H   0  0  0  0  0  0  0  0  0  0  0  0
    5.2773  -11.9302   -2.8857 H   0  0  0  0  0  0  0  0  0  0  0  0
    1.0273  -11.2248   -2.4935 H   0  0  0  0  0  0  0  0  0  0  0  0
  1  2  2  0
  2  3  1  0
  3  4  1  0
  4  5  2  0
  5  6  1  0
  6  7  2  0
  7  8  1  0
  7  9  1  0
  9 10  1  0
  9 11  2  0
  2 12  1  0
 12 13  2  0
 13 14  1  0
 14 15  1  0
 15 16  1  0
 16 17  1  0
 17 18  1  0
 18 19  1  0
 19 20  1  0
 20 21  1  0
 21 22  1  0
 22 23  1  0
 18 24  1  0
 24 25  1  0
 14 26  2  0
 26 27  1  0
 27 28  1  0
 28 29  1  0
 28 30  1  0
 28 31  1  0
 27 32  2  0
 11  4  1  0
 32 12  1  0
 25 15  1  0
 23 19  1  0
  3 33  1  0
  5 34  1  0
  6 35  1  0
 11 36  1  0
 13 37  1  0
 16 38  1  0
 16 39  1  0
 17 40  1  0
 17 41  1  0
 18 42  1  0
 19 43  1  0
 20 44  1  0
 20 45  1  0
 21 46  1  0
 21 47  1  0
 22 48  1  0
 22 49  1  0
 23 50  1  0
 23 51  1  0
 24 52  1  0
 24 53  1  0
 25 54  1  0
 25 55  1  0
 26 56  1  0
 32 57  1  0
M  CHG  1  19   1
M  END
>  <meeko>  (7) 
{"is_sidechain": [false], "free_energy": -8.154, "intermolecular_energy": -10.455, "internal_energy": -1.022}

$$$$
LIB_YBNGDFSHNFUPMT__M_PUB_ALL__e8__s20260927
     RDKit          3D

 57 60  0  0  0  0  0  0  0  0999 V2000
    3.1320  -12.1130    0.2040 O   0  0  0  0  0  0  0  0  0  0  0  0
    1.9550  -12.1230   -0.1390 C   0  0  0  0  0  0  0  0  0  0  0  0
    1.4720  -12.1370   -1.4350 N   0  0  0  0  0  0  0  0  0  0  0  0
    2.2260  -12.0430   -2.6250 C   0  0  0  0  0  0  0  0  0  0  0  0
    2.3780  -10.7670   -3.1830 C   0  0  0  0  0  0  0  0  0  0  0  0
    3.1110  -10.5860   -4.3610 C   0  0  0  0  0  0  0  0  0  0  0  0
    3.7020  -11.6800   -4.9940 C   0  0  0  0  0  0  0  0  0  0  0  0
    4.5910  -11.3870   -6.4450 Cl  0  0  0  0  0  0  0  0  0  0  0  0
    3.5590  -12.9560   -4.4430 C   0  0  0  0  0  0  0  0  0  0  0  0
    4.2650  -14.3580   -5.1680 Cl  0  0  0  0  0  0  0  0  0  0  0  0
    2.8250  -13.1330   -3.2620 C   0  0  0  0  0  0  0  0  0  0  0  0
    0.9220  -12.1740    0.9380 C   0  0  0  0  0  0  0  0  0  0  0  0
    0.7510  -13.3890    1.6220 C   0  0  0  0  0  0  0  0  0  0  0  0
   -0.1660  -13.5390    2.6760 C   0  0  0  0  0  0  0  0  0  0  0  0
   -0.3010  -14.7460    3.3550 N   0  0  0  0  0  0  0  0  0  0  0  0
   -1.6040  -15.3940    3.4940 C   0  0  0  0  0  0  0  0  0  0  0  0
   -1.7000  -16.0050    4.8890 C   0  0  0  0  0  0  0  0  0  0  0  0
   -0.5790  -17.0210    5.1610 C   0  0  0  0  0  0  0  0  0  0  0  0
   -0.1230  -16.8720    6.6160 N   0  0  0  0  0  0  0  0  0  0  0  0
   -1.2080  -17.1600    7.6560 C   0  0  0  0  0  0  0  0  0  0  0  0
   -0.5730  -18.1090    8.6570 C   0  0  0  0  0  0  0  0  0  0  0  0
    0.9120  -17.8610    8.5180 C   0  0  0  0  0  0  0  0  0  0  0  0
    1.0800  -17.7050    7.0240 C   0  0  0  0  0  0  0  0  0  0  0  0
    0.5940  -16.8760    4.1860 C   0  0  0  0  0  0  0  0  0  0  0  0
    0.8920  -15.4170    3.8690 C   0  0  0  0  0  0  0  0  0  0  0  0
   -0.9240  -12.4050    3.0050 C   0  0  0  0  0  0  0  0  0  0  0  0
   -0.7730  -11.1720    2.3390 C   0  0  0  0  0  0  0  0  0  0  0  0
   -1.5910   -9.9760    2.7680 C   0  0  0  0  0  0  0  0  0  0  0  0
   -1.2760   -8.8460    2.0760 F   0  0  0  0  0  0  0  0  0  0  0  0
   -1.4160   -9.6800    4.0830 F   0  0  0  0  0  0  0  0  0  0  0  0
   -2.9280  -10.1620    2.5950 F   0  0  0  0  0  0  0  0  0  0  0  0
    0.1720  -11.0590    1.3110 C   0  0  0  0  0  0  0  0  0  0  0  0
    0.4770  -12.2690   -1.5610 H   0  0  0  0  0  0  0  0  0  0  0  0
    1.9164   -9.8987   -2.6901 H   0  0  0  0  0  0  0  0  0  0  0  0
    3.2216   -9.5788   -4.7891 H   0  0  0  0  0  0  0  0  0  0  0  0
    2.7195  -14.1401   -2.8323 H   0  0  0  0  0  0  0  0  0  0  0  0
    1.3579  -14.2557    1.3211 H   0  0  0  0  0  0  0  0  0  0  0  0
   -2.4034  -14.6504    3.3597 H   0  0  0  0  0  0  0  0  0  0  0  0
   -1.7151  -16.1797    2.7322 H   0  0  0  0  0  0  0  0  0  0  0  0
   -1.6340  -15.1980    5.6336 H   0  0  0  0  0  0  0  0  0  0  0  0
   -2.6599  -16.5378    4.9569 H   0  0  0  0  0  0  0  0  0  0  0  0
   -0.9757  -18.0341    4.9990 H   0  0  0  0  0  0  0  0  0  0  0  0
    0.1460  -15.8870    6.7520 H   0  0  0  0  0  0  0  0  0  0  0  0
   -1.5197  -16.2297    8.1533 H   0  0  0  0  0  0  0  0  0  0  0  0
   -2.1071  -17.5958    7.1960 H   0  0  0  0  0  0  0  0  0  0  0  0
   -0.9120  -17.8816    9.6785 H   0  0  0  0  0  0  0  0  0  0  0  0
   -0.8428  -19.1589    8.4699 H   0  0  0  0  0  0  0  0  0  0  0  0
    1.2136  -16.9463    9.0495 H   0  0  0  0  0  0  0  0  0  0  0  0
    1.5321  -18.6617    8.9474 H   0  0  0  0  0  0  0  0  0  0  0  0
    2.0185  -17.1827    6.7864 H   0  0  0  0  0  0  0  0  0  0  0  0
    1.1323  -18.6687    6.4962 H   0  0  0  0  0  0  0  0  0  0  0  0
    1.4884  -17.3321    4.6354 H   0  0  0  0  0  0  0  0  0  0  0  0
    0.3210  -17.3799    3.2471 H   0  0  0  0  0  0  0  0  0  0  0  0
    1.2253  -14.9090    4.7860 H   0  0  0  0  0  0  0  0  0  0  0  0
    1.6794  -15.3753    3.1021 H   0  0  0  0  0  0  0  0  0  0  0  0
   -1.6651  -12.4812    3.8143 H   0  0  0  0  0  0  0  0  0  0  0  0
    0.3216  -10.0960    0.8008 H   0  0  0  0  0  0  0  0  0  0  0  0
  1  2  2  0
  2  3  1  0
  3  4  1  0
  4  5  2  0
  5  6  1  0
  6  7  2  0
  7  8  1  0
  7  9  1  0
  9 10  1  0
  9 11  2  0
  2 12  1  0
 12 13  2  0
 13 14  1  0
 14 15  1  0
 15 16  1  0
 16 17  1  0
 17 18  1  0
 18 19  1  0
 19 20  1  0
 20 21  1  0
 21 22  1  0
 22 23  1  0
 18 24  1  0
 24 25  1  0
 14 26  2  0
 26 27  1  0
 27 28  1  0
 28 29  1  0
 28 30  1  0
 28 31  1  0
 27 32  2  0
 11  4  1  0
 32 12  1  0
 25 15  1  0
 23 19  1  0
  3 33  1  0
  5 34  1  0
  6 35  1  0
 11 36  1  0
 13 37  1  0
 16 38  1  0
 16 39  1  0
 17 40  1  0
 17 41  1  0
 18 42  1  0
 19 43  1  0
 20 44  1  0
 20 45  1  0
 21 46  1  0
 21 47  1  0
 22 48  1  0
 22 49  1  0
 23 50  1  0
 23 51  1  0
 24 52  1  0
 24 53  1  0
 25 54  1  0
 25 55  1  0
 26 56  1  0
 32 57  1  0
M  CHG  1  19   1
M  END
>  <meeko>  (8) 
{"is_sidechain": [false], "free_energy": -8.021, "intermolecular_energy": -10.182, "internal_energy": -1.123}

$$$$
LIB_YBNGDFSHNFUPMT__M_PUB_ALL__e8__s20260927
     RDKit          3D

 57 60  0  0  0  0  0  0  0  0999 V2000
    6.3440  -15.4280   -5.8000 O   0  0  0  0  0  0  0  0  0  0  0  0
    6.1970  -14.3730   -6.4070 C   0  0  0  0  0  0  0  0  0  0  0  0
    5.3410  -13.3390   -6.0730 N   0  0  0  0  0  0  0  0  0  0  0  0
    4.3920  -13.3250   -5.0260 C   0  0  0  0  0  0  0  0  0  0  0  0
    4.8080  -12.7980   -3.7970 C   0  0  0  0  0  0  0  0  0  0  0  0
    3.9300  -12.7460   -2.7090 C   0  0  0  0  0  0  0  0  0  0  0  0
    2.6240  -13.2190   -2.8380 C   0  0  0  0  0  0  0  0  0  0  0  0
    1.5930  -13.1270   -1.4570 Cl  0  0  0  0  0  0  0  0  0  0  0  0
    2.1990  -13.7430   -4.0620 C   0  0  0  0  0  0  0  0  0  0  0  0
    0.5950  -14.3450   -4.3000 Cl  0  0  0  0  0  0  0  0  0  0  0  0
    3.0810  -13.7930   -5.1510 C   0  0  0  0  0  0  0  0  0  0  0  0
    7.0560  -14.1400   -7.6050 C   0  0  0  0  0  0  0  0  0  0  0  0
    8.4330  -14.3920   -7.4820 C   0  0  0  0  0  0  0  0  0  0  0  0
    9.3260  -14.2410   -8.5550 C   0  0  0  0  0  0  0  0  0  0  0  0
   10.6820  -14.5200   -8.4150 N   0  0  0  0  0  0  0  0  0  0  0  0
   11.3620  -14.3510   -7.1320 C   0  0  0  0  0  0  0  0  0  0  0  0
   12.7550  -13.7840   -7.3860 C   0  0  0  0  0  0  0  0  0  0  0  0
   13.5940  -14.6860   -8.3060 C   0  0  0  0  0  0  0  0  0  0  0  0
   14.4220  -13.8000   -9.2420 N   0  0  0  0  0  0  0  0  0  0  0  0
   15.0300  -14.5320  -10.4410 C   0  0  0  0  0  0  0  0  0  0  0  0
   14.6890  -13.6830  -11.6530 C   0  0  0  0  0  0  0  0  0  0  0  0
   14.4630  -12.2980  -11.0900 C   0  0  0  0  0  0  0  0  0  0  0  0
   13.7090  -12.5850   -9.8100 C   0  0  0  0  0  0  0  0  0  0  0  0
   12.7350  -15.6840   -9.0910 C   0  0  0  0  0  0  0  0  0  0  0  0
   11.4230  -15.0650   -9.5520 C   0  0  0  0  0  0  0  0  0  0  0  0
    8.7720  -13.8050   -9.7680 C   0  0  0  0  0  0  0  0  0  0  0  0
    7.3950  -13.5460   -9.9240 C   0  0  0  0  0  0  0  0  0  0  0  0
    6.8540  -13.1170  -11.2680 C   0  0  0  0  0  0  0  0  0  0  0  0
    7.7030  -13.4020  -12.2930 F   0  0  0  0  0  0  0  0  0  0  0  0
    6.6240  -11.7790  -11.3240 F   0  0  0  0  0  0  0  0  0  0  0  0
    5.6740  -13.7180  -11.5780 F   0  0  0  0  0  0  0  0  0  0  0  0
    6.5350  -13.7340   -8.8340 C   0  0  0  0  0  0  0  0  0  0  0  0
    5.4200  -12.4790   -6.5980 H   0  0  0  0  0  0  0  0  0  0  0  0
    5.8354  -12.4211   -3.6860 H   0  0  0  0  0  0  0  0  0  0  0  0
    4.2705  -12.3309   -1.7489 H   0  0  0  0  0  0  0  0  0  0  0  0
    2.7381  -14.2041   -6.1119 H   0  0  0  0  0  0  0  0  0  0  0  0
    8.8261  -14.7199   -6.5084 H   0  0  0  0  0  0  0  0  0  0  0  0
   10.7899  -13.6569   -6.4988 H   0  0  0  0  0  0  0  0  0  0  0  0
   11.4407  -15.3212   -6.6196 H   0  0  0  0  0  0  0  0  0  0  0  0
   12.6538  -12.7951   -7.8569 H   0  0  0  0  0  0  0  0  0  0  0  0
   13.2725  -13.7172   -6.4177 H   0  0  0  0  0  0  0  0  0  0  0  0
   14.2650  -15.2960   -7.6834 H   0  0  0  0  0  0  0  0  0  0  0  0
   15.2190  -13.4400   -8.6960 H   0  0  0  0  0  0  0  0  0  0  0  0
   16.1207  -14.6171  -10.3263 H   0  0  0  0  0  0  0  0  0  0  0  0
   14.6361  -15.5546  -10.5363 H   0  0  0  0  0  0  0  0  0  0  0  0
   15.5210  -13.6797  -12.3726 H   0  0  0  0  0  0  0  0  0  0  0  0
   13.8119  -14.0626  -12.1976 H   0  0  0  0  0  0  0  0  0  0  0  0
   15.4176  -11.7917  -10.8842 H   0  0  0  0  0  0  0  0  0  0  0  0
   13.9241  -11.6279  -11.7760 H   0  0  0  0  0  0  0  0  0  0  0  0
   13.7720  -11.7329   -9.1173 H   0  0  0  0  0  0  0  0  0  0  0  0
   12.6352  -12.7573   -9.9752 H   0  0  0  0  0  0  0  0  0  0  0  0
   13.2986  -16.0210   -9.9735 H   0  0  0  0  0  0  0  0  0  0  0  0
   12.4985  -16.5272   -8.4254 H   0  0  0  0  0  0  0  0  0  0  0  0
   11.6365  -14.2555  -10.2656 H   0  0  0  0  0  0  0  0  0  0  0  0
   10.8128  -15.8446  -10.0314 H   0  0  0  0  0  0  0  0  0  0  0  0
    9.4382  -13.6595  -10.6312 H   0  0  0  0  0  0  0  0  0  0  0  0
    5.4543  -13.5624   -8.9466 H   0  0  0  0  0  0  0  0  0  0  0  0
  1  2  2  0
  2  3  1  0
  3  4  1  0
  4  5  2  0
  5  6  1  0
  6  7  2  0
  7  8  1  0
  7  9  1  0
  9 10  1  0
  9 11  2  0
  2 12  1  0
 12 13  2  0
 13 14  1  0
 14 15  1  0
 15 16  1  0
 16 17  1  0
 17 18  1  0
 18 19  1  0
 19 20  1  0
 20 21  1  0
 21 22  1  0
 22 23  1  0
 18 24  1  0
 24 25  1  0
 14 26  2  0
 26 27  1  0
 27 28  1  0
 28 29  1  0
 28 30  1  0
 28 31  1  0
 27 32  2  0
 11  4  1  0
 32 12  1  0
 25 15  1  0
 23 19  1  0
  3 33  1  0
  5 34  1  0
  6 35  1  0
 11 36  1  0
 13 37  1  0
 16 38  1  0
 16 39  1  0
 17 40  1  0
 17 41  1  0
 18 42  1  0
 19 43  1  0
 20 44  1  0
 20 45  1  0
 21 46  1  0
 21 47  1  0
 22 48  1  0
 22 49  1  0
 23 50  1  0
 23 51  1  0
 24 52  1  0
 24 53  1  0
 25 54  1  0
 25 55  1  0
 26 56  1  0
 32 57  1  0
M  CHG  1  19   1
M  END
>  <meeko>  (9) 
{"is_sidechain": [false], "free_energy": -7.917, "intermolecular_energy": -9.938, "internal_energy": -1.232}

$$$$
