LIB_DPJUXYQWXGNKHO__M_PUB_ALL__e8__s20260927
     RDKit          3D

 29 32  0  0  0  0  0  0  0  0999 V2000
   -0.1690  -12.4890    1.3350 Cl  0  0  0  0  0  0  0  0  0  0  0  0
   -1.6530  -11.9340    0.6380 C   0  0  0  0  0  0  0  0  0  0  0  0
   -1.8570  -10.5490    0.5940 C   0  0  0  0  0  0  0  0  0  0  0  0
   -3.0530  -10.0270    0.1020 C   0  0  0  0  0  0  0  0  0  0  0  0
   -4.0540  -10.8870   -0.3390 C   0  0  0  0  0  0  0  0  0  0  0  0
   -3.8550  -12.2680   -0.2980 C   0  0  0  0  0  0  0  0  0  0  0  0
   -2.6470  -12.8110    0.1740 C   0  0  0  0  0  0  0  0  0  0  0  0
   -2.5040  -14.2630    0.1720 C   0  0  0  0  0  0  0  0  0  0  0  0
   -2.3040  -15.0420   -0.8900 N   0  0  0  0  0  0  0  0  0  0  0  0
   -2.1920  -16.3640   -0.4660 N   0  0  0  0  0  0  0  0  0  0  0  0
   -2.3040  -16.3220    0.8280 C   0  0  0  0  0  0  0  0  0  0  0  0
   -2.2460  -17.4230    2.1290 S   0  0  0  0  0  0  0  0  0  0  0  0
   -2.4400  -16.0070    3.2040 C   0  0  0  0  0  0  0  0  0  0  0  0
   -2.4820  -16.1890    4.6700 C   0  0  0  0  0  0  0  0  0  0  0  0
   -1.3970  -15.9640    5.5230 C   0  0  0  0  0  0  0  0  0  0  0  0
   -1.5460  -16.1640    6.8950 C   0  0  0  0  0  0  0  0  0  0  0  0
   -2.7740  -16.5840    7.3740 C   0  0  0  0  0  0  0  0  0  0  0  0
   -3.8430  -16.8110    6.5830 N   0  0  0  0  0  0  0  0  0  0  0  0
   -3.6740  -16.6100    5.2520 C   0  0  0  0  0  0  0  0  0  0  0  0
   -2.5380  -14.8350    2.6300 N   0  0  0  0  0  0  0  0  0  0  0  0
   -2.4740  -15.0630    1.2890 N   0  0  0  0  0  0  0  0  0  0  0  0
   -1.0690   -9.8688    0.9497 H   0  0  0  0  0  0  0  0  0  0  0  0
   -3.2046   -8.9382    0.0627 H   0  0  0  0  0  0  0  0  0  0  0  0
   -5.0018  -10.4787   -0.7198 H   0  0  0  0  0  0  0  0  0  0  0  0
   -4.6549  -12.9413   -0.6399 H   0  0  0  0  0  0  0  0  0  0  0  0
   -0.4316  -15.6312    5.1141 H   0  0  0  0  0  0  0  0  0  0  0  0
   -0.7046  -15.9914    7.5821 H   0  0  0  0  0  0  0  0  0  0  0  0
   -2.8846  -16.7412    8.4571 H   0  0  0  0  0  0  0  0  0  0  0  0
   -4.5340  -16.7914    4.5906 H   0  0  0  0  0  0  0  0  0  0  0  0
  1  2  1  0
  2  3  2  0
  3  4  1  0
  4  5  2  0
  5  6  1  0
  6  7  2  0
  7  8  1  0
  8  9  2  0
  9 10  1  0
 10 11  2  0
 11 12  1  0
 12 13  1  0
 13 14  1  0
 14 15  2  0
 15 16  1  0
 16 17  2  0
 17 18  1  0
 18 19  2  0
 13 20  2  0
 20 21  1  0
  7  2  1  0
 21  8  1  0
 21 11  1  0
 19 14  1  0
  3 22  1  0
  4 23  1  0
  5 24  1  0
  6 25  1  0
 15 26  1  0
 16 27  1  0
 17 28  1  0
 19 29  1  0
M  END
>  <meeko>  (1) 
{"is_sidechain": [false], "free_energy": -6.877, "intermolecular_energy": -7.682, "internal_energy": -0.481}

$$$$
LIB_DPJUXYQWXGNKHO__M_PUB_ALL__e8__s20260927
     RDKit          3D

 29 32  0  0  0  0  0  0  0  0999 V2000
   -0.4720  -11.9230    1.8780 Cl  0  0  0  0  0  0  0  0  0  0  0  0
   -1.8690  -11.6740    0.8870 C   0  0  0  0  0  0  0  0  0  0  0  0
   -2.1680  -10.3540    0.5290 C   0  0  0  0  0  0  0  0  0  0  0  0
   -3.3110  -10.0660   -0.2170 C   0  0  0  0  0  0  0  0  0  0  0  0
   -4.1650  -11.0960   -0.5990 C   0  0  0  0  0  0  0  0  0  0  0  0
   -3.8700  -12.4140   -0.2460 C   0  0  0  0  0  0  0  0  0  0  0  0
   -2.7110  -12.7240    0.4870 C   0  0  0  0  0  0  0  0  0  0  0  0
   -2.4610  -14.1250    0.8080 C   0  0  0  0  0  0  0  0  0  0  0  0
   -1.5930  -14.9360    0.2050 N   0  0  0  0  0  0  0  0  0  0  0  0
   -1.6330  -16.1830    0.8250 N   0  0  0  0  0  0  0  0  0  0  0  0
   -2.5010  -16.0620    1.7850 C   0  0  0  0  0  0  0  0  0  0  0  0
   -3.1290  -17.0340    3.0370 S   0  0  0  0  0  0  0  0  0  0  0  0
   -4.0600  -15.5950    3.5490 C   0  0  0  0  0  0  0  0  0  0  0  0
   -4.9540  -15.6690    4.7240 C   0  0  0  0  0  0  0  0  0  0  0  0
   -6.0930  -14.8760    4.8980 C   0  0  0  0  0  0  0  0  0  0  0  0
   -6.8700  -15.0290    6.0460 C   0  0  0  0  0  0  0  0  0  0  0  0
   -6.4850  -15.9680    6.9870 C   0  0  0  0  0  0  0  0  0  0  0  0
   -5.3940  -16.7510    6.8540 N   0  0  0  0  0  0  0  0  0  0  0  0
   -4.6540  -16.5840    5.7290 C   0  0  0  0  0  0  0  0  0  0  0  0
   -3.9050  -14.5050    2.8410 N   0  0  0  0  0  0  0  0  0  0  0  0
   -3.0290  -14.8200    1.8470 N   0  0  0  0  0  0  0  0  0  0  0  0
   -1.4973   -9.5387    0.8380 H   0  0  0  0  0  0  0  0  0  0  0  0
   -3.5365   -9.0279   -0.5024 H   0  0  0  0  0  0  0  0  0  0  0  0
   -5.0724  -10.8718   -1.1790 H   0  0  0  0  0  0  0  0  0  0  0  0
   -4.5541  -13.2216   -0.5456 H   0  0  0  0  0  0  0  0  0  0  0  0
   -6.3742  -14.1362    4.1340 H   0  0  0  0  0  0  0  0  0  0  0  0
   -7.7702  -14.4160    6.2004 H   0  0  0  0  0  0  0  0  0  0  0  0
   -7.1009  -16.0821    7.8912 H   0  0  0  0  0  0  0  0  0  0  0  0
   -3.7597  -17.2120    5.6032 H   0  0  0  0  0  0  0  0  0  0  0  0
  1  2  1  0
  2  3  2  0
  3  4  1  0
  4  5  2  0
  5  6  1  0
  6  7  2  0
  7  8  1  0
  8  9  2  0
  9 10  1  0
 10 11  2  0
 11 12  1  0
 12 13  1  0
 13 14  1  0
 14 15  2  0
 15 16  1  0
 16 17  2  0
 17 18  1  0
 18 19  2  0
 13 20  2  0
 20 21  1  0
  7  2  1  0
 21  8  1  0
 21 11  1  0
 19 14  1  0
  3 22  1  0
  4 23  1  0
  5 24  1  0
  6 25  1  0
 15 26  1  0
 16 27  1  0
 17 28  1  0
 19 29  1  0
M  END
>  <meeko>  (2) 
{"is_sidechain": [false], "free_energy": -6.793, "intermolecular_energy": -7.576, "internal_energy": -0.493}

$$$$
LIB_DPJUXYQWXGNKHO__M_PUB_ALL__e8__s20260927
     RDKit          3D

 29 32  0  0  0  0  0  0  0  0999 V2000
   11.3130  -15.1060   -2.3850 Cl  0  0  0  0  0  0  0  0  0  0  0  0
   12.3270  -13.7130   -2.5550 C   0  0  0  0  0  0  0  0  0  0  0  0
   13.3190  -13.7640   -3.5420 C   0  0  0  0  0  0  0  0  0  0  0  0
   14.2130  -12.7060   -3.7000 C   0  0  0  0  0  0  0  0  0  0  0  0
   14.1260  -11.5960   -2.8650 C   0  0  0  0  0  0  0  0  0  0  0  0
   13.1380  -11.5400   -1.8800 C   0  0  0  0  0  0  0  0  0  0  0  0
   12.2140  -12.5880   -1.7220 C   0  0  0  0  0  0  0  0  0  0  0  0
   11.2000  -12.4530   -0.6820 C   0  0  0  0  0  0  0  0  0  0  0  0
   11.4140  -12.3600    0.6300 N   0  0  0  0  0  0  0  0  0  0  0  0
   10.1890  -12.2130    1.2780 N   0  0  0  0  0  0  0  0  0  0  0  0
    9.2980  -12.1990    0.3320 C   0  0  0  0  0  0  0  0  0  0  0  0
    7.6070  -12.0190    0.2030 S   0  0  0  0  0  0  0  0  0  0  0  0
    7.8360  -12.1020   -1.5690 C   0  0  0  0  0  0  0  0  0  0  0  0
    6.6690  -12.0020   -2.4730 C   0  0  0  0  0  0  0  0  0  0  0  0
    5.3880  -11.6190   -2.0650 C   0  0  0  0  0  0  0  0  0  0  0  0
    4.3570  -11.5560   -3.0010 C   0  0  0  0  0  0  0  0  0  0  0  0
    4.6370  -11.8770   -4.3180 C   0  0  0  0  0  0  0  0  0  0  0  0
    5.8590  -12.2500   -4.7490 N   0  0  0  0  0  0  0  0  0  0  0  0
    6.8460  -12.3050   -3.8190 C   0  0  0  0  0  0  0  0  0  0  0  0
    9.0610  -12.2500   -2.0040 N   0  0  0  0  0  0  0  0  0  0  0  0
    9.8500  -12.3170   -0.8960 N   0  0  0  0  0  0  0  0  0  0  0  0
   13.3934  -14.6446   -4.1970 H   0  0  0  0  0  0  0  0  0  0  0  0
   14.9850  -12.7484   -4.4824 H   0  0  0  0  0  0  0  0  0  0  0  0
   14.8352  -10.7632   -2.9810 H   0  0  0  0  0  0  0  0  0  0  0  0
   13.0817  -10.6633   -1.2180 H   0  0  0  0  0  0  0  0  0  0  0  0
    5.1947  -11.3688   -1.0114 H   0  0  0  0  0  0  0  0  0  0  0  0
    3.3422  -11.2574   -2.6993 H   0  0  0  0  0  0  0  0  0  0  0  0
    3.8193  -11.8251   -5.0519 H   0  0  0  0  0  0  0  0  0  0  0  0
    7.8499  -12.6085   -4.1508 H   0  0  0  0  0  0  0  0  0  0  0  0
  1  2  1  0
  2  3  2  0
  3  4  1  0
  4  5  2  0
  5  6  1  0
  6  7  2  0
  7  8  1  0
  8  9  2  0
  9 10  1  0
 10 11  2  0
 11 12  1  0
 12 13  1  0
 13 14  1  0
 14 15  2  0
 15 16  1  0
 16 17  2  0
 17 18  1  0
 18 19  2  0
 13 20  2  0
 20 21  1  0
  7  2  1  0
 21  8  1  0
 21 11  1  0
 19 14  1  0
  3 22  1  0
  4 23  1  0
  5 24  1  0
  6 25  1  0
 15 26  1  0
 16 27  1  0
 17 28  1  0
 19 29  1  0
M  END
>  <meeko>  (3) 
{"is_sidechain": [false], "free_energy": -6.723, "intermolecular_energy": -7.488, "internal_energy": -0.502}

$$$$
LIB_DPJUXYQWXGNKHO__M_PUB_ALL__e8__s20260927
     RDKit          3D

 29 32  0  0  0  0  0  0  0  0999 V2000
   -3.2330  -10.3460   -0.5960 Cl  0  0  0  0  0  0  0  0  0  0  0  0
   -2.5660  -10.4760    0.9960 C   0  0  0  0  0  0  0  0  0  0  0  0
   -2.3090   -9.2810    1.6780 C   0  0  0  0  0  0  0  0  0  0  0  0
   -1.7170   -9.3010    2.9410 C   0  0  0  0  0  0  0  0  0  0  0  0
   -1.3700  -10.5170    3.5230 C   0  0  0  0  0  0  0  0  0  0  0  0
   -1.6250  -11.7120    2.8470 C   0  0  0  0  0  0  0  0  0  0  0  0
   -2.2420  -11.7100    1.5830 C   0  0  0  0  0  0  0  0  0  0  0  0
   -2.4910  -12.9980    0.9440 C   0  0  0  0  0  0  0  0  0  0  0  0
   -3.6480  -13.6560    0.9060 N   0  0  0  0  0  0  0  0  0  0  0  0
   -3.4770  -14.8290    0.1750 N   0  0  0  0  0  0  0  0  0  0  0  0
   -2.2370  -14.8150   -0.2150 C   0  0  0  0  0  0  0  0  0  0  0  0
   -1.2080  -15.7920   -1.1600 S   0  0  0  0  0  0  0  0  0  0  0  0
    0.0460  -14.5410   -0.9050 C   0  0  0  0  0  0  0  0  0  0  0  0
    1.3890  -14.7040   -1.5000 C   0  0  0  0  0  0  0  0  0  0  0  0
    2.0240  -13.7380   -2.2860 C   0  0  0  0  0  0  0  0  0  0  0  0
    3.2960  -13.9940   -2.7990 C   0  0  0  0  0  0  0  0  0  0  0  0
    3.8950  -15.2080   -2.5110 C   0  0  0  0  0  0  0  0  0  0  0  0
    3.3140  -16.1640   -1.7570 N   0  0  0  0  0  0  0  0  0  0  0  0
    2.0770  -15.8920   -1.2710 C   0  0  0  0  0  0  0  0  0  0  0  0
   -0.2900  -13.5040   -0.1810 N   0  0  0  0  0  0  0  0  0  0  0  0
   -1.5810  -13.7090    0.2010 N   0  0  0  0  0  0  0  0  0  0  0  0
   -2.5757   -8.3195    1.2149 H   0  0  0  0  0  0  0  0  0  0  0  0
   -1.5250   -8.3589    3.4753 H   0  0  0  0  0  0  0  0  0  0  0  0
   -0.8951  -10.5366    4.5150 H   0  0  0  0  0  0  0  0  0  0  0  0
   -1.3393  -12.6683    3.3095 H   0  0  0  0  0  0  0  0  0  0  0  0
    1.5238  -12.7817   -2.4988 H   0  0  0  0  0  0  0  0  0  0  0  0
    3.8120  -13.2465   -3.4194 H   0  0  0  0  0  0  0  0  0  0  0  0
    4.8978  -15.4037   -2.9184 H   0  0  0  0  0  0  0  0  0  0  0  0
    1.5858  -16.6604   -0.6559 H   0  0  0  0  0  0  0  0  0  0  0  0
  1  2  1  0
  2  3  2  0
  3  4  1  0
  4  5  2  0
  5  6  1  0
  6  7  2  0
  7  8  1  0
  8  9  2  0
  9 10  1  0
 10 11  2  0
 11 12  1  0
 12 13  1  0
 13 14  1  0
 14 15  2  0
 15 16  1  0
 16 17  2  0
 17 18  1  0
 18 19  2  0
 13 20  2  0
 20 21  1  0
  7  2  1  0
 21  8  1  0
 21 11  1  0
 19 14  1  0
  3 22  1  0
  4 23  1  0
  5 24  1  0
  6 25  1  0
 15 26  1  0
 16 27  1  0
 17 28  1  0
 19 29  1  0
M  END
>  <meeko>  (4) 
{"is_sidechain": [false], "free_energy": -6.653, "intermolecular_energy": -7.416, "internal_energy": -0.496}

$$$$
LIB_DPJUXYQWXGNKHO__M_PUB_ALL__e8__s20260927
     RDKit          3D

 29 32  0  0  0  0  0  0  0  0999 V2000
   11.7110  -13.7060  -12.9870 Cl  0  0  0  0  0  0  0  0  0  0  0  0
   12.5050  -12.6570  -11.8620 C   0  0  0  0  0  0  0  0  0  0  0  0
   13.8900  -12.8110  -11.7150 C   0  0  0  0  0  0  0  0  0  0  0  0
   14.5910  -12.0450  -10.7840 C   0  0  0  0  0  0  0  0  0  0  0  0
   13.9100  -11.1280   -9.9890 C   0  0  0  0  0  0  0  0  0  0  0  0
   12.5300  -10.9690  -10.1340 C   0  0  0  0  0  0  0  0  0  0  0  0
   11.8110  -11.7170  -11.0820 C   0  0  0  0  0  0  0  0  0  0  0  0
   10.3750  -11.4870  -11.1860 C   0  0  0  0  0  0  0  0  0  0  0  0
    9.7700  -10.5460  -11.9100 N   0  0  0  0  0  0  0  0  0  0  0  0
    8.3920  -10.6800  -11.7650 N   0  0  0  0  0  0  0  0  0  0  0  0
    8.2250  -11.7050  -10.9830 C   0  0  0  0  0  0  0  0  0  0  0  0
    6.9190  -12.5850  -10.3290 S   0  0  0  0  0  0  0  0  0  0  0  0
    8.1440  -13.6720   -9.6100 C   0  0  0  0  0  0  0  0  0  0  0  0
    7.7210  -14.8300   -8.7930 C   0  0  0  0  0  0  0  0  0  0  0  0
    7.2410  -14.7350   -7.4830 C   0  0  0  0  0  0  0  0  0  0  0  0
    6.8660  -15.8930   -6.8010 C   0  0  0  0  0  0  0  0  0  0  0  0
    6.9820  -17.1100   -7.4490 C   0  0  0  0  0  0  0  0  0  0  0  0
    7.4410  -17.2410   -8.7110 N   0  0  0  0  0  0  0  0  0  0  0  0
    7.8000  -16.1010   -9.3530 C   0  0  0  0  0  0  0  0  0  0  0  0
    9.4000  -13.3890   -9.8450 N   0  0  0  0  0  0  0  0  0  0  0  0
    9.3980  -12.2620  -10.6100 N   0  0  0  0  0  0  0  0  0  0  0  0
   14.4278  -13.5408  -12.3380 H   0  0  0  0  0  0  0  0  0  0  0  0
   15.6793  -12.1653  -10.6783 H   0  0  0  0  0  0  0  0  0  0  0  0
   14.4582  -10.5289   -9.2470 H   0  0  0  0  0  0  0  0  0  0  0  0
   11.9979  -10.2475   -9.4966 H   0  0  0  0  0  0  0  0  0  0  0  0
    7.1596  -13.7534   -6.9933 H   0  0  0  0  0  0  0  0  0  0  0  0
    6.4862  -15.8396   -5.7700 H   0  0  0  0  0  0  0  0  0  0  0  0
    6.6841  -18.0193   -6.9063 H   0  0  0  0  0  0  0  0  0  0  0  0
    8.1778  -16.1872  -10.3825 H   0  0  0  0  0  0  0  0  0  0  0  0
  1  2  1  0
  2  3  2  0
  3  4  1  0
  4  5  2  0
  5  6  1  0
  6  7  2  0
  7  8  1  0
  8  9  2  0
  9 10  1  0
 10 11  2  0
 11 12  1  0
 12 13  1  0
 13 14  1  0
 14 15  2  0
 15 16  1  0
 16 17  2  0
 17 18  1  0
 18 19  2  0
 13 20  2  0
 20 21  1  0
  7  2  1  0
 21  8  1  0
 21 11  1  0
 19 14  1  0
  3 22  1  0
  4 23  1  0
  5 24  1  0
  6 25  1  0
 15 26  1  0
 16 27  1  0
 17 28  1  0
 19 29  1  0
M  END
>  <meeko>  (5) 
{"is_sidechain": [false], "free_energy": -6.601, "intermolecular_energy": -7.351, "internal_energy": -0.503}

$$$$
LIB_DPJUXYQWXGNKHO__M_PUB_ALL__e8__s20260927
     RDKit          3D

 29 32  0  0  0  0  0  0  0  0999 V2000
   -4.7290  -12.0420    0.0900 Cl  0  0  0  0  0  0  0  0  0  0  0  0
   -3.0670  -11.6800    0.4120 C   0  0  0  0  0  0  0  0  0  0  0  0
   -2.7130  -10.3270    0.4830 C   0  0  0  0  0  0  0  0  0  0  0  0
   -1.3830   -9.9540    0.6790 C   0  0  0  0  0  0  0  0  0  0  0  0
   -0.4000  -10.9330    0.7950 C   0  0  0  0  0  0  0  0  0  0  0  0
   -0.7490  -12.2830    0.7270 C   0  0  0  0  0  0  0  0  0  0  0  0
   -2.0880  -12.6760    0.5510 C   0  0  0  0  0  0  0  0  0  0  0  0
   -2.3790  -14.1050    0.5040 C   0  0  0  0  0  0  0  0  0  0  0  0
   -2.5430  -14.8480   -0.5890 N   0  0  0  0  0  0  0  0  0  0  0  0
   -2.7740  -16.1670   -0.2090 N   0  0  0  0  0  0  0  0  0  0  0  0
   -2.7150  -16.1670    1.0890 C   0  0  0  0  0  0  0  0  0  0  0  0
   -2.8290  -17.3090    2.3500 S   0  0  0  0  0  0  0  0  0  0  0  0
   -2.4710  -15.9590    3.4680 C   0  0  0  0  0  0  0  0  0  0  0  0
   -2.3910  -16.2030    4.9240 C   0  0  0  0  0  0  0  0  0  0  0  0
   -1.2390  -16.0100    5.6930 C   0  0  0  0  0  0  0  0  0  0  0  0
   -1.2730  -16.2690    7.0630 C   0  0  0  0  0  0  0  0  0  0  0  0
   -2.4580  -16.7130    7.6240 C   0  0  0  0  0  0  0  0  0  0  0  0
   -3.5890  -16.9110    6.9160 N   0  0  0  0  0  0  0  0  0  0  0  0
   -3.5300  -16.6530    5.5850 C   0  0  0  0  0  0  0  0  0  0  0  0
   -2.2880  -14.7790    2.9340 N   0  0  0  0  0  0  0  0  0  0  0  0
   -2.4520  -14.9410    1.5920 N   0  0  0  0  0  0  0  0  0  0  0  0
   -3.4886   -9.5533    0.3836 H   0  0  0  0  0  0  0  0  0  0  0  0
   -1.1119   -8.8898    0.7417 H   0  0  0  0  0  0  0  0  0  0  0  0
    0.6511  -10.6430    0.9402 H   0  0  0  0  0  0  0  0  0  0  0  0
    0.0345  -13.0504    0.8123 H   0  0  0  0  0  0  0  0  0  0  0  0
   -0.3112  -15.6559    5.2200 H   0  0  0  0  0  0  0  0  0  0  0  0
   -0.3772  -16.1235    7.6845 H   0  0  0  0  0  0  0  0  0  0  0  0
   -2.4785  -16.9152    8.7051 H   0  0  0  0  0  0  0  0  0  0  0  0
   -4.4417  -16.8098    4.9899 H   0  0  0  0  0  0  0  0  0  0  0  0
  1  2  1  0
  2  3  2  0
  3  4  1  0
  4  5  2  0
  5  6  1  0
  6  7  2  0
  7  8  1  0
  8  9  2  0
  9 10  1  0
 10 11  2  0
 11 12  1  0
 12 13  1  0
 13 14  1  0
 14 15  2  0
 15 16  1  0
 16 17  2  0
 17 18  1  0
 18 19  2  0
 13 20  2  0
 20 21  1  0
  7  2  1  0
 21  8  1  0
 21 11  1  0
 19 14  1  0
  3 22  1  0
  4 23  1  0
  5 24  1  0
  6 25  1  0
 15 26  1  0
 16 27  1  0
 17 28  1  0
 19 29  1  0
M  END
>  <meeko>  (6) 
{"is_sidechain": [false], "free_energy": -6.589, "intermolecular_energy": -7.374, "internal_energy": -0.466}

$$$$
LIB_DPJUXYQWXGNKHO__M_PUB_ALL__e8__s20260927
     RDKit          3D

 29 32  0  0  0  0  0  0  0  0999 V2000
   12.3540  -10.7850   14.9550 Cl  0  0  0  0  0  0  0  0  0  0  0  0
   12.8960   -9.9680   13.5280 C   0  0  0  0  0  0  0  0  0  0  0  0
   13.4090  -10.7630   12.4960 C   0  0  0  0  0  0  0  0  0  0  0  0
   13.9200  -10.1740   11.3390 C   0  0  0  0  0  0  0  0  0  0  0  0
   13.9310   -8.7880   11.2150 C   0  0  0  0  0  0  0  0  0  0  0  0
   13.4190   -7.9920   12.2410 C   0  0  0  0  0  0  0  0  0  0  0  0
   12.8790   -8.5690   13.4040 C   0  0  0  0  0  0  0  0  0  0  0  0
   12.3490   -7.6750   14.4270 C   0  0  0  0  0  0  0  0  0  0  0  0
   13.0550   -6.9490   15.2920 N   0  0  0  0  0  0  0  0  0  0  0  0
   12.1790   -6.2060   16.0800 N   0  0  0  0  0  0  0  0  0  0  0  0
   10.9900   -6.4970   15.6410 C   0  0  0  0  0  0  0  0  0  0  0  0
    9.3820   -6.0360   15.9740 S   0  0  0  0  0  0  0  0  0  0  0  0
    8.9040   -7.1000   14.6180 C   0  0  0  0  0  0  0  0  0  0  0  0
    7.4790   -7.2360   14.2480 C   0  0  0  0  0  0  0  0  0  0  0  0
    6.7510   -6.2680   13.5490 C   0  0  0  0  0  0  0  0  0  0  0  0
    5.4090   -6.4990   13.2500 C   0  0  0  0  0  0  0  0  0  0  0  0
    4.8330   -7.6900   13.6580 C   0  0  0  0  0  0  0  0  0  0  0  0
    5.5030   -8.6460   14.3330 N   0  0  0  0  0  0  0  0  0  0  0  0
    6.8070   -8.3980   14.6140 C   0  0  0  0  0  0  0  0  0  0  0  0
    9.8640   -7.7300   13.9910 N   0  0  0  0  0  0  0  0  0  0  0  0
   11.0220   -7.3730   14.6130 N   0  0  0  0  0  0  0  0  0  0  0  0
   13.4092  -11.8583   12.5979 H   0  0  0  0  0  0  0  0  0  0  0  0
   14.3131  -10.8035   10.5271 H   0  0  0  0  0  0  0  0  0  0  0  0
   14.3430   -8.3199   10.3088 H   0  0  0  0  0  0  0  0  0  0  0  0
   13.4383   -6.8970   12.1382 H   0  0  0  0  0  0  0  0  0  0  0  0
    7.2341   -5.3303   13.2371 H   0  0  0  0  0  0  0  0  0  0  0  0
    4.8196   -5.7499   12.7009 H   0  0  0  0  0  0  0  0  0  0  0  0
    3.7737   -7.8656   13.4191 H   0  0  0  0  0  0  0  0  0  0  0  0
    7.3691   -9.1651   15.1668 H   0  0  0  0  0  0  0  0  0  0  0  0
  1  2  1  0
  2  3  2  0
  3  4  1  0
  4  5  2  0
  5  6  1  0
  6  7  2  0
  7  8  1  0
  8  9  2  0
  9 10  1  0
 10 11  2  0
 11 12  1  0
 12 13  1  0
 13 14  1  0
 14 15  2  0
 15 16  1  0
 16 17  2  0
 17 18  1  0
 18 19  2  0
 13 20  2  0
 20 21  1  0
  7  2  1  0
 21  8  1  0
 21 11  1  0
 19 14  1  0
  3 22  1  0
  4 23  1  0
  5 24  1  0
  6 25  1  0
 15 26  1  0
 16 27  1  0
 17 28  1  0
 19 29  1  0
M  END
>  <meeko>  (7) 
{"is_sidechain": [false], "free_energy": -6.553, "intermolecular_energy": -7.31, "internal_energy": -0.491}

$$$$
LIB_DPJUXYQWXGNKHO__M_PUB_ALL__e8__s20260927
     RDKit          3D

 29 32  0  0  0  0  0  0  0  0999 V2000
   -1.5190  -11.4790    3.1780 Cl  0  0  0  0  0  0  0  0  0  0  0  0
   -2.5120  -11.5140    1.7600 C   0  0  0  0  0  0  0  0  0  0  0  0
   -2.4490  -10.4020    0.9110 C   0  0  0  0  0  0  0  0  0  0  0  0
   -3.2630  -10.3300   -0.2190 C   0  0  0  0  0  0  0  0  0  0  0  0
   -4.1510  -11.3630   -0.4990 C   0  0  0  0  0  0  0  0  0  0  0  0
   -4.2170  -12.4740    0.3440 C   0  0  0  0  0  0  0  0  0  0  0  0
   -3.3880  -12.5740    1.4750 C   0  0  0  0  0  0  0  0  0  0  0  0
   -3.5010  -13.7710    2.3010 C   0  0  0  0  0  0  0  0  0  0  0  0
   -4.4740  -14.0510    3.1670 N   0  0  0  0  0  0  0  0  0  0  0  0
   -4.2320  -15.3020    3.7300 N   0  0  0  0  0  0  0  0  0  0  0  0
   -3.1420  -15.7300    3.1640 C   0  0  0  0  0  0  0  0  0  0  0  0
   -2.1730  -17.1320    3.2090 S   0  0  0  0  0  0  0  0  0  0  0  0
   -1.1830  -16.3640    1.9320 C   0  0  0  0  0  0  0  0  0  0  0  0
   -0.0050  -17.0690    1.3820 C   0  0  0  0  0  0  0  0  0  0  0  0
    0.9660  -17.7050    2.1610 C   0  0  0  0  0  0  0  0  0  0  0  0
    2.0390  -18.3430    1.5400 C   0  0  0  0  0  0  0  0  0  0  0  0
    2.1100  -18.3270    0.1580 C   0  0  0  0  0  0  0  0  0  0  0  0
    1.1930  -17.7240   -0.6270 N   0  0  0  0  0  0  0  0  0  0  0  0
    0.1590  -17.1090    0.0010 C   0  0  0  0  0  0  0  0  0  0  0  0
   -1.5540  -15.1770    1.5250 N   0  0  0  0  0  0  0  0  0  0  0  0
   -2.6540  -14.8520    2.2600 N   0  0  0  0  0  0  0  0  0  0  0  0
   -1.7533   -9.5805    1.1369 H   0  0  0  0  0  0  0  0  0  0  0  0
   -3.2029   -9.4583   -0.8872 H   0  0  0  0  0  0  0  0  0  0  0  0
   -4.8012  -11.3048   -1.3844 H   0  0  0  0  0  0  0  0  0  0  0  0
   -4.9280  -13.2829    0.1200 H   0  0  0  0  0  0  0  0  0  0  0  0
    0.8840  -17.7021    3.2579 H   0  0  0  0  0  0  0  0  0  0  0  0
    2.8130  -18.8485    2.1361 H   0  0  0  0  0  0  0  0  0  0  0  0
    2.9587  -18.8325   -0.3260 H   0  0  0  0  0  0  0  0  0  0  0  0
   -0.5981  -16.6101   -0.6219 H   0  0  0  0  0  0  0  0  0  0  0  0
  1  2  1  0
  2  3  2  0
  3  4  1  0
  4  5  2  0
  5  6  1  0
  6  7  2  0
  7  8  1  0
  8  9  2  0
  9 10  1  0
 10 11  2  0
 11 12  1  0
 12 13  1  0
 13 14  1  0
 14 15  2  0
 15 16  1  0
 16 17  2  0
 17 18  1  0
 18 19  2  0
 13 20  2  0
 20 21  1  0
  7  2  1  0
 21  8  1  0
 21 11  1  0
 19 14  1  0
  3 22  1  0
  4 23  1  0
  5 24  1  0
  6 25  1  0
 15 26  1  0
 16 27  1  0
 17 28  1  0
 19 29  1  0
M  END
>  <meeko>  (8) 
{"is_sidechain": [false], "free_energy": -6.431, "intermolecular_energy": -7.159, "internal_energy": -0.506}

$$$$
LIB_DPJUXYQWXGNKHO__M_PUB_ALL__e8__s20260927
     RDKit          3D

 29 32  0  0  0  0  0  0  0  0999 V2000
   -5.7140  -16.6880    5.0180 Cl  0  0  0  0  0  0  0  0  0  0  0  0
   -4.3350  -16.6530    6.0640 C   0  0  0  0  0  0  0  0  0  0  0  0
   -4.5610  -16.3060    7.4020 C   0  0  0  0  0  0  0  0  0  0  0  0
   -3.4930  -16.1970    8.2930 C   0  0  0  0  0  0  0  0  0  0  0  0
   -2.1940  -16.4240    7.8470 C   0  0  0  0  0  0  0  0  0  0  0  0
   -1.9650  -16.7710    6.5140 C   0  0  0  0  0  0  0  0  0  0  0  0
   -3.0320  -16.9070    5.6080 C   0  0  0  0  0  0  0  0  0  0  0  0
   -2.7170  -17.2870    4.2360 C   0  0  0  0  0  0  0  0  0  0  0  0
   -2.4650  -18.5160    3.7890 N   0  0  0  0  0  0  0  0  0  0  0  0
   -2.2420  -18.4600    2.4150 N   0  0  0  0  0  0  0  0  0  0  0  0
   -2.3920  -17.2100    2.0920 C   0  0  0  0  0  0  0  0  0  0  0  0
   -2.3500  -16.2680    0.6710 S   0  0  0  0  0  0  0  0  0  0  0  0
   -2.8060  -14.8780    1.7010 C   0  0  0  0  0  0  0  0  0  0  0  0
   -2.9840  -13.5380    1.1030 C   0  0  0  0  0  0  0  0  0  0  0  0
   -4.0440  -13.1860    0.2610 C   0  0  0  0  0  0  0  0  0  0  0  0
   -4.1180  -11.8910   -0.2490 C   0  0  0  0  0  0  0  0  0  0  0  0
   -3.1310  -10.9840    0.0970 C   0  0  0  0  0  0  0  0  0  0  0  0
   -2.0940  -11.2860    0.9060 N   0  0  0  0  0  0  0  0  0  0  0  0
   -2.0440  -12.5530    1.3890 C   0  0  0  0  0  0  0  0  0  0  0  0
   -2.9680  -15.1140    2.9780 N   0  0  0  0  0  0  0  0  0  0  0  0
   -2.7070  -16.4390    3.1550 N   0  0  0  0  0  0  0  0  0  0  0  0
   -5.5867  -16.1183    7.7524 H   0  0  0  0  0  0  0  0  0  0  0  0
   -3.6768  -15.9325    9.3448 H   0  0  0  0  0  0  0  0  0  0  0  0
   -1.3484  -16.3301    8.5443 H   0  0  0  0  0  0  0  0  0  0  0  0
   -0.9349  -16.9405    6.1674 H   0  0  0  0  0  0  0  0  0  0  0  0
   -4.8148  -13.9270    0.0028 H   0  0  0  0  0  0  0  0  0  0  0  0
   -4.9438  -11.5956   -0.9129 H   0  0  0  0  0  0  0  0  0  0  0  0
   -3.1954   -9.9636   -0.3088 H   0  0  0  0  0  0  0  0  0  0  0  0
   -1.2056  -12.8187    2.0497 H   0  0  0  0  0  0  0  0  0  0  0  0
  1  2  1  0
  2  3  2  0
  3  4  1  0
  4  5  2  0
  5  6  1  0
  6  7  2  0
  7  8  1  0
  8  9  2  0
  9 10  1  0
 10 11  2  0
 11 12  1  0
 12 13  1  0
 13 14  1  0
 14 15  2  0
 15 16  1  0
 16 17  2  0
 17 18  1  0
 18 19  2  0
 13 20  2  0
 20 21  1  0
  7  2  1  0
 21  8  1  0
 21 11  1  0
 19 14  1  0
  3 22  1  0
  4 23  1  0
  5 24  1  0
  6 25  1  0
 15 26  1  0
 16 27  1  0
 17 28  1  0
 19 29  1  0
M  END
>  <meeko>  (9) 
{"is_sidechain": [false], "free_energy": -6.406, "intermolecular_energy": -7.115, "internal_energy": -0.522}

$$$$
