LIB_SPJBPKGFJMQWSO__M_PUB_ALL__e8__s20260927
     RDKit          3D

 40 43  0  0  0  0  0  0  0  0999 V2000
   13.8080  -12.5450   -4.0560 C   0  0  0  0  0  0  0  0  0  0  0  0
   13.0130  -13.1390   -3.0090 N   0  0  0  0  0  0  0  0  0  0  0  0
   12.4230  -14.3900   -3.0310 C   0  0  0  0  0  0  0  0  0  0  0  0
   12.5460  -15.3310   -4.1890 C   0  0  0  0  0  0  0  0  0  0  0  0
   11.4070  -15.1030   -5.0200 O   0  0  0  0  0  0  0  0  0  0  0  0
   11.6870  -14.8400   -6.3350 C   0  0  0  0  0  0  0  0  0  0  0  0
   12.9450  -14.9520   -6.9270 C   0  0  0  0  0  0  0  0  0  0  0  0
   13.1150  -14.5990   -8.2660 C   0  0  0  0  0  0  0  0  0  0  0  0
   12.0340  -14.1450   -9.0330 C   0  0  0  0  0  0  0  0  0  0  0  0
   12.2650  -13.7290  -10.4750 C   0  0  0  0  0  0  0  0  0  0  0  0
   11.8360  -12.3300  -10.7760 C   0  0  0  0  0  0  0  0  0  0  0  0
   12.7510  -10.9400  -10.2880 S   0  0  0  0  0  0  0  0  0  0  0  0
   11.5210   -9.8630  -11.0120 C   0  0  0  0  0  0  0  0  0  0  0  0
   11.6660   -8.6430  -10.9690 O   0  0  0  0  0  0  0  0  0  0  0  0
   10.5130  -10.5680  -11.5570 N   0  0  0  0  0  0  0  0  0  0  0  0
   10.7200  -11.9090  -11.4040 C   0  0  0  0  0  0  0  0  0  0  0  0
    9.7700  -12.5610  -11.9150 O   0  0  0  0  0  0  0  0  0  0  0  0
   10.7680  -14.0710   -8.4440 C   0  0  0  0  0  0  0  0  0  0  0  0
   10.5960  -14.4240   -7.1030 C   0  0  0  0  0  0  0  0  0  0  0  0
   11.7740  -14.6230   -1.8990 N   0  0  0  0  0  0  0  0  0  0  0  0
   11.9300  -13.4910   -1.1460 C   0  0  0  0  0  0  0  0  0  0  0  0
   11.4550  -13.1660    0.1300 C   0  0  0  0  0  0  0  0  0  0  0  0
   11.7900  -11.9080    0.6330 C   0  0  0  0  0  0  0  0  0  0  0  0
   12.5670  -11.0580   -0.1480 C   0  0  0  0  0  0  0  0  0  0  0  0
   12.9910   -9.5010    0.4510 Cl  0  0  0  0  0  0  0  0  0  0  0  0
   13.0530  -11.3190   -1.3830 N   0  0  0  0  0  0  0  0  0  0  0  0
   12.6980  -12.5470   -1.8170 C   0  0  0  0  0  0  0  0  0  0  0  0
   14.6130  -11.9435   -3.6087 H   0  0  0  0  0  0  0  0  0  0  0  0
   14.2462  -13.3388   -4.6788 H   0  0  0  0  0  0  0  0  0  0  0  0
   13.1710  -11.8998   -4.6788 H   0  0  0  0  0  0  0  0  0  0  0  0
   13.4711  -15.1267   -4.7480 H   0  0  0  0  0  0  0  0  0  0  0  0
   12.5875  -16.3764   -3.8492 H   0  0  0  0  0  0  0  0  0  0  0  0
   13.8004  -15.3175   -6.3399 H   0  0  0  0  0  0  0  0  0  0  0  0
   14.1112  -14.6782   -8.7257 H   0  0  0  0  0  0  0  0  0  0  0  0
   13.3396  -13.8166  -10.6931 H   0  0  0  0  0  0  0  0  0  0  0  0
   11.6521  -14.3935  -11.1018 H   0  0  0  0  0  0  0  0  0  0  0  0
    9.9054  -13.7341   -9.0377 H   0  0  0  0  0  0  0  0  0  0  0  0
    9.5954  -14.3741   -6.6489 H   0  0  0  0  0  0  0  0  0  0  0  0
   10.8438  -13.8720    0.7114 H   0  0  0  0  0  0  0  0  0  0  0  0
   11.4458  -11.5939    1.6294 H   0  0  0  0  0  0  0  0  0  0  0  0
  1  2  1  0
  2  3  1  0
  3  4  1  0
  4  5  1  0
  5  6  1  0
  6  7  2  0
  7  8  1  0
  8  9  2  0
  9 10  1  0
 10 11  1  0
 11 12  1  0
 12 13  1  0
 13 14  2  0
 13 15  1  0
 15 16  1  0
 16 17  1  0
  9 18  1  0
 18 19  2  0
  3 20  2  0
 20 21  1  0
 21 22  2  0
 22 23  1  0
 23 24  2  0
 24 25  1  0
 24 26  1  0
 26 27  2  0
 27  2  1  0
 19  6  1  0
 27 21  1  0
 16 11  2  0
  1 28  1  0
  1 29  1  0
  1 30  1  0
  4 31  1  0
  4 32  1  0
  7 33  1  0
  8 34  1  0
 10 35  1  0
 10 36  1  0
 18 37  1  0
 19 38  1  0
 22 39  1  0
 23 40  1  0
M  CHG  2  15  -1  17  -1
M  END
>  <meeko>  (1) 
{"is_sidechain": [false], "free_energy": -7.089, "intermolecular_energy": -9.161, "internal_energy": -0.74}

$$$$
LIB_SPJBPKGFJMQWSO__M_PUB_ALL__e8__s20260927
     RDKit          3D

 40 43  0  0  0  0  0  0  0  0999 V2000
    8.9160  -13.3050   -2.7170 C   0  0  0  0  0  0  0  0  0  0  0  0
    9.4960  -12.8990   -1.4590 N   0  0  0  0  0  0  0  0  0  0  0  0
    8.8740  -12.9040   -0.2240 C   0  0  0  0  0  0  0  0  0  0  0  0
    7.4610  -13.3570   -0.0230 C   0  0  0  0  0  0  0  0  0  0  0  0
    6.6590  -12.1760    0.0260 O   0  0  0  0  0  0  0  0  0  0  0  0
    5.3120  -12.3780   -0.1210 C   0  0  0  0  0  0  0  0  0  0  0  0
    4.5620  -12.0110   -1.2380 C   0  0  0  0  0  0  0  0  0  0  0  0
    3.1820  -12.2190   -1.2460 C   0  0  0  0  0  0  0  0  0  0  0  0
    2.5380  -12.8080   -0.1510 C   0  0  0  0  0  0  0  0  0  0  0  0
    1.0300  -12.9800   -0.1760 C   0  0  0  0  0  0  0  0  0  0  0  0
    0.2920  -11.9720    0.6430 C   0  0  0  0  0  0  0  0  0  0  0  0
    0.1380  -10.3090    0.1750 S   0  0  0  0  0  0  0  0  0  0  0  0
   -0.7850   -9.9640    1.6670 C   0  0  0  0  0  0  0  0  0  0  0  0
   -1.2020   -8.8280    1.8860 O   0  0  0  0  0  0  0  0  0  0  0  0
   -0.9210  -11.0670    2.4250 N   0  0  0  0  0  0  0  0  0  0  0  0
   -0.3170  -12.1390    1.8350 C   0  0  0  0  0  0  0  0  0  0  0  0
   -0.4470  -13.1670    2.5530 O   0  0  0  0  0  0  0  0  0  0  0  0
    3.3010  -13.2080    0.9510 C   0  0  0  0  0  0  0  0  0  0  0  0
    4.6830  -13.0000    0.9600 C   0  0  0  0  0  0  0  0  0  0  0  0
    9.7010  -12.4810    0.7210 N   0  0  0  0  0  0  0  0  0  0  0  0
   10.8690  -12.1760    0.0770 C   0  0  0  0  0  0  0  0  0  0  0  0
   12.0820  -11.6770    0.5650 C   0  0  0  0  0  0  0  0  0  0  0  0
   13.1040  -11.4660   -0.3620 C   0  0  0  0  0  0  0  0  0  0  0  0
   12.8660  -11.7580   -1.7020 C   0  0  0  0  0  0  0  0  0  0  0  0
   14.1100  -11.5040   -2.8630 Cl  0  0  0  0  0  0  0  0  0  0  0  0
   11.7180  -12.2420   -2.2280 N   0  0  0  0  0  0  0  0  0  0  0  0
   10.7680  -12.4260   -1.2860 C   0  0  0  0  0  0  0  0  0  0  0  0
    8.0283  -13.9264   -2.5279 H   0  0  0  0  0  0  0  0  0  0  0  0
    8.6238  -12.4132   -3.2909 H   0  0  0  0  0  0  0  0  0  0  0  0
    9.6539  -13.8848   -3.2909 H   0  0  0  0  0  0  0  0  0  0  0  0
    7.1444  -13.9968   -0.8600 H   0  0  0  0  0  0  0  0  0  0  0  0
    7.3597  -13.9450    0.9011 H   0  0  0  0  0  0  0  0  0  0  0  0
    5.0567  -11.5589   -2.1103 H   0  0  0  0  0  0  0  0  0  0  0  0
    2.5925  -11.9163   -2.1240 H   0  0  0  0  0  0  0  0  0  0  0  0
    0.6891  -12.8958   -1.2184 H   0  0  0  0  0  0  0  0  0  0  0  0
    0.8139  -13.9662    0.2608 H   0  0  0  0  0  0  0  0  0  0  0  0
    2.8124  -13.6872    1.8122 H   0  0  0  0  0  0  0  0  0  0  0  0
    5.2793  -13.3283    1.8241 H   0  0  0  0  0  0  0  0  0  0  0  0
   12.2240  -11.4602    1.6340 H   0  0  0  0  0  0  0  0  0  0  0  0
   14.0805  -11.0758   -0.0392 H   0  0  0  0  0  0  0  0  0  0  0  0
  1  2  1  0
  2  3  1  0
  3  4  1  0
  4  5  1  0
  5  6  1  0
  6  7  2  0
  7  8  1  0
  8  9  2  0
  9 10  1  0
 10 11  1  0
 11 12  1  0
 12 13  1  0
 13 14  2  0
 13 15  1  0
 15 16  1  0
 16 17  1  0
  9 18  1  0
 18 19  2  0
  3 20  2  0
 20 21  1  0
 21 22  2  0
 22 23  1  0
 23 24  2  0
 24 25  1  0
 24 26  1  0
 26 27  2  0
 27  2  1  0
 19  6  1  0
 27 21  1  0
 16 11  2  0
  1 28  1  0
  1 29  1  0
  1 30  1  0
  4 31  1  0
  4 32  1  0
  7 33  1  0
  8 34  1  0
 10 35  1  0
 10 36  1  0
 18 37  1  0
 19 38  1  0
 22 39  1  0
 23 40  1  0
M  CHG  2  15  -1  17  -1
M  END
>  <meeko>  (2) 
{"is_sidechain": [false], "free_energy": -7.019, "intermolecular_energy": -9.246, "internal_energy": -0.564}

$$$$
LIB_SPJBPKGFJMQWSO__M_PUB_ALL__e8__s20260927
     RDKit          3D

 40 43  0  0  0  0  0  0  0  0999 V2000
   14.7080  -21.7310   -5.0520 C   0  0  0  0  0  0  0  0  0  0  0  0
   15.0720  -21.7880   -3.6570 N   0  0  0  0  0  0  0  0  0  0  0  0
   14.4830  -21.0860   -2.6210 C   0  0  0  0  0  0  0  0  0  0  0  0
   13.3380  -20.1420   -2.8210 C   0  0  0  0  0  0  0  0  0  0  0  0
   13.8970  -18.9220   -3.3080 O   0  0  0  0  0  0  0  0  0  0  0  0
   13.1870  -17.7920   -3.0010 C   0  0  0  0  0  0  0  0  0  0  0  0
   12.1010  -17.7370   -2.1270 C   0  0  0  0  0  0  0  0  0  0  0  0
   11.4210  -16.5320   -1.9400 C   0  0  0  0  0  0  0  0  0  0  0  0
   11.8240  -15.3680   -2.6070 C   0  0  0  0  0  0  0  0  0  0  0  0
   11.0350  -14.0860   -2.4130 C   0  0  0  0  0  0  0  0  0  0  0  0
   11.8530  -12.9450   -1.9030 C   0  0  0  0  0  0  0  0  0  0  0  0
   12.1420  -12.6750   -0.2140 S   0  0  0  0  0  0  0  0  0  0  0  0
   13.0900  -11.2090   -0.6000 C   0  0  0  0  0  0  0  0  0  0  0  0
   13.6000  -10.5480    0.3030 O   0  0  0  0  0  0  0  0  0  0  0  0
   13.1350  -10.9900   -1.9260 N   0  0  0  0  0  0  0  0  0  0  0  0
   12.4460  -11.9550   -2.6020 C   0  0  0  0  0  0  0  0  0  0  0  0
   12.4910  -11.7410   -3.8430 O   0  0  0  0  0  0  0  0  0  0  0  0
   12.9370  -15.4220   -3.4530 C   0  0  0  0  0  0  0  0  0  0  0  0
   13.6180  -16.6270   -3.6410 C   0  0  0  0  0  0  0  0  0  0  0  0
   15.0570  -21.3840   -1.4640 N   0  0  0  0  0  0  0  0  0  0  0  0
   16.0500  -22.2770   -1.7670 C   0  0  0  0  0  0  0  0  0  0  0  0
   16.9830  -22.9220   -0.9470 C   0  0  0  0  0  0  0  0  0  0  0  0
   17.8830  -23.7910   -1.5670 C   0  0  0  0  0  0  0  0  0  0  0  0
   17.8050  -23.9660   -2.9450 C   0  0  0  0  0  0  0  0  0  0  0  0
   18.9050  -25.0300   -3.7320 Cl  0  0  0  0  0  0  0  0  0  0  0  0
   16.9260  -23.3710   -3.7840 N   0  0  0  0  0  0  0  0  0  0  0  0
   16.0820  -22.5450   -3.1290 C   0  0  0  0  0  0  0  0  0  0  0  0
   13.6249  -21.5614   -5.1417 H   0  0  0  0  0  0  0  0  0  0  0  0
   15.2498  -20.9067   -5.5389 H   0  0  0  0  0  0  0  0  0  0  0  0
   14.9719  -22.6814   -5.5389 H   0  0  0  0  0  0  0  0  0  0  0  0
   12.6294  -20.5544   -3.5544 H   0  0  0  0  0  0  0  0  0  0  0  0
   12.7881  -19.9801   -1.8822 H   0  0  0  0  0  0  0  0  0  0  0  0
   11.7814  -18.6403   -1.5868 H   0  0  0  0  0  0  0  0  0  0  0  0
   10.5573  -16.4962   -1.2598 H   0  0  0  0  0  0  0  0  0  0  0  0
   10.6013  -13.7960   -3.3814 H   0  0  0  0  0  0  0  0  0  0  0  0
   10.2676  -14.2945   -1.6530 H   0  0  0  0  0  0  0  0  0  0  0  0
   13.2767  -14.5132   -3.9714 H   0  0  0  0  0  0  0  0  0  0  0  0
   14.4999  -16.6591   -4.2976 H   0  0  0  0  0  0  0  0  0  0  0  0
   17.0062  -22.7516    0.1395 H   0  0  0  0  0  0  0  0  0  0  0  0
   18.6402  -24.3277   -0.9765 H   0  0  0  0  0  0  0  0  0  0  0  0
  1  2  1  0
  2  3  1  0
  3  4  1  0
  4  5  1  0
  5  6  1  0
  6  7  2  0
  7  8  1  0
  8  9  2  0
  9 10  1  0
 10 11  1  0
 11 12  1  0
 12 13  1  0
 13 14  2  0
 13 15  1  0
 15 16  1  0
 16 17  1  0
  9 18  1  0
 18 19  2  0
  3 20  2  0
 20 21  1  0
 21 22  2  0
 22 23  1  0
 23 24  2  0
 24 25  1  0
 24 26  1  0
 26 27  2  0
 27  2  1  0
 19  6  1  0
 27 21  1  0
 16 11  2  0
  1 28  1  0
  1 29  1  0
  1 30  1  0
  4 31  1  0
  4 32  1  0
  7 33  1  0
  8 34  1  0
 10 35  1  0
 10 36  1  0
 18 37  1  0
 19 38  1  0
 22 39  1  0
 23 40  1  0
M  CHG  2  15  -1  17  -1
M  END
>  <meeko>  (3) 
{"is_sidechain": [false], "free_energy": -7.005, "intermolecular_energy": -9.274, "internal_energy": -0.52}

$$$$
LIB_SPJBPKGFJMQWSO__M_PUB_ALL__e8__s20260927
     RDKit          3D

 40 43  0  0  0  0  0  0  0  0999 V2000
   17.3150   -9.9700   13.6750 C   0  0  0  0  0  0  0  0  0  0  0  0
   16.7700   -8.8360   12.9690 N   0  0  0  0  0  0  0  0  0  0  0  0
   15.4810   -8.3450   13.0660 C   0  0  0  0  0  0  0  0  0  0  0  0
   14.4430   -8.9490   13.9610 C   0  0  0  0  0  0  0  0  0  0  0  0
   13.3410   -9.3020   13.1240 O   0  0  0  0  0  0  0  0  0  0  0  0
   13.2540  -10.6310   12.8050 C   0  0  0  0  0  0  0  0  0  0  0  0
   14.0300  -11.2800   11.8460 C   0  0  0  0  0  0  0  0  0  0  0  0
   13.8070  -12.6300   11.5700 C   0  0  0  0  0  0  0  0  0  0  0  0
   12.8200  -13.3500   12.2550 C   0  0  0  0  0  0  0  0  0  0  0  0
   12.5760  -14.8060   11.8990 C   0  0  0  0  0  0  0  0  0  0  0  0
   12.9110  -15.7610   12.9970 C   0  0  0  0  0  0  0  0  0  0  0  0
   14.5070  -16.3950   13.2390 S   0  0  0  0  0  0  0  0  0  0  0  0
   13.9240  -17.3630   14.6250 C   0  0  0  0  0  0  0  0  0  0  0  0
   14.7050  -18.0750   15.2530 O   0  0  0  0  0  0  0  0  0  0  0  0
   12.6060  -17.1830   14.8280 N   0  0  0  0  0  0  0  0  0  0  0  0
   12.0900  -16.3060   13.9180 C   0  0  0  0  0  0  0  0  0  0  0  0
   10.8550  -16.1460   14.1140 O   0  0  0  0  0  0  0  0  0  0  0  0
   12.0710  -12.7030   13.2420 C   0  0  0  0  0  0  0  0  0  0  0  0
   12.2930  -11.3520   13.5200 C   0  0  0  0  0  0  0  0  0  0  0  0
   15.3210   -7.2830   12.2890 N   0  0  0  0  0  0  0  0  0  0  0  0
   16.5240   -7.1040   11.6620 C   0  0  0  0  0  0  0  0  0  0  0  0
   16.9360   -6.1490   10.7240 C   0  0  0  0  0  0  0  0  0  0  0  0
   18.2510   -6.2340   10.2640 C   0  0  0  0  0  0  0  0  0  0  0  0
   19.0700   -7.2470   10.7540 C   0  0  0  0  0  0  0  0  0  0  0  0
   20.6940   -7.3720   10.2000 Cl  0  0  0  0  0  0  0  0  0  0  0  0
   18.7270   -8.1930   11.6580 N   0  0  0  0  0  0  0  0  0  0  0  0
   17.4460   -8.0610   12.0670 C   0  0  0  0  0  0  0  0  0  0  0  0
   17.2337   -9.8008   14.7589 H   0  0  0  0  0  0  0  0  0  0  0  0
   16.7539  -10.8760   13.4022 H   0  0  0  0  0  0  0  0  0  0  0  0
   18.3729  -10.0979   13.4022 H   0  0  0  0  0  0  0  0  0  0  0  0
   14.8445   -9.8443   14.4582 H   0  0  0  0  0  0  0  0  0  0  0  0
   14.1356   -8.2428   14.7464 H   0  0  0  0  0  0  0  0  0  0  0  0
   14.8161  -10.7297   11.3081 H   0  0  0  0  0  0  0  0  0  0  0  0
   14.4144  -13.1350   10.8045 H   0  0  0  0  0  0  0  0  0  0  0  0
   11.5122  -14.9274   11.6467 H   0  0  0  0  0  0  0  0  0  0  0  0
   13.2397  -15.0441   11.0547 H   0  0  0  0  0  0  0  0  0  0  0  0
   11.3045  -13.2592   13.8015 H   0  0  0  0  0  0  0  0  0  0  0  0
   11.7081  -10.8525   14.3063 H   0  0  0  0  0  0  0  0  0  0  0  0
   16.2524   -5.3654   10.3652 H   0  0  0  0  0  0  0  0  0  0  0  0
   18.6335   -5.5127    9.5268 H   0  0  0  0  0  0  0  0  0  0  0  0
  1  2  1  0
  2  3  1  0
  3  4  1  0
  4  5  1  0
  5  6  1  0
  6  7  2  0
  7  8  1  0
  8  9  2  0
  9 10  1  0
 10 11  1  0
 11 12  1  0
 12 13  1  0
 13 14  2  0
 13 15  1  0
 15 16  1  0
 16 17  1  0
  9 18  1  0
 18 19  2  0
  3 20  2  0
 20 21  1  0
 21 22  2  0
 22 23  1  0
 23 24  2  0
 24 25  1  0
 24 26  1  0
 26 27  2  0
 27  2  1  0
 19  6  1  0
 27 21  1  0
 16 11  2  0
  1 28  1  0
  1 29  1  0
  1 30  1  0
  4 31  1  0
  4 32  1  0
  7 33  1  0
  8 34  1  0
 10 35  1  0
 10 36  1  0
 18 37  1  0
 19 38  1  0
 22 39  1  0
 23 40  1  0
M  CHG  2  15  -1  17  -1
M  END
>  <meeko>  (4) 
{"is_sidechain": [false], "free_energy": -6.958, "intermolecular_energy": -9.061, "internal_energy": -0.671}

$$$$
LIB_SPJBPKGFJMQWSO__M_PUB_ALL__e8__s20260927
     RDKit          3D

 40 43  0  0  0  0  0  0  0  0999 V2000
    7.1920  -11.1450   -2.5500 C   0  0  0  0  0  0  0  0  0  0  0  0
    5.9060  -11.7950   -2.4790 N   0  0  0  0  0  0  0  0  0  0  0  0
    5.1720  -12.0500   -1.3340 C   0  0  0  0  0  0  0  0  0  0  0  0
    5.6350  -11.6600    0.0360 C   0  0  0  0  0  0  0  0  0  0  0  0
    6.2360  -12.8230    0.6070 O   0  0  0  0  0  0  0  0  0  0  0  0
    7.5520  -13.0200    0.2830 C   0  0  0  0  0  0  0  0  0  0  0  0
    8.0370  -14.0600   -0.5090 C   0  0  0  0  0  0  0  0  0  0  0  0
    9.4110  -14.1870   -0.7220 C   0  0  0  0  0  0  0  0  0  0  0  0
   10.3130  -13.2740   -0.1610 C   0  0  0  0  0  0  0  0  0  0  0  0
   11.8020  -13.4670   -0.3780 C   0  0  0  0  0  0  0  0  0  0  0  0
   12.2990  -12.9310   -1.6810 C   0  0  0  0  0  0  0  0  0  0  0  0
   12.4550  -13.9110   -3.1040 S   0  0  0  0  0  0  0  0  0  0  0  0
   13.0890  -12.5090   -4.0130 C   0  0  0  0  0  0  0  0  0  0  0  0
   13.3930  -12.6270   -5.1990 O   0  0  0  0  0  0  0  0  0  0  0  0
   13.1620  -11.4130   -3.2350 N   0  0  0  0  0  0  0  0  0  0  0  0
   12.7270  -11.6860   -1.9710 C   0  0  0  0  0  0  0  0  0  0  0  0
   12.8010  -10.6550   -1.2490 O   0  0  0  0  0  0  0  0  0  0  0  0
    9.8160  -12.2110    0.6010 C   0  0  0  0  0  0  0  0  0  0  0  0
    8.4420  -12.0830    0.8140 C   0  0  0  0  0  0  0  0  0  0  0  0
    4.0290  -12.6510   -1.6320 N   0  0  0  0  0  0  0  0  0  0  0  0
    4.0400  -12.8060   -2.9910 C   0  0  0  0  0  0  0  0  0  0  0  0
    3.1030  -13.3840   -3.8550 C   0  0  0  0  0  0  0  0  0  0  0  0
    3.4100  -13.3910   -5.2170 C   0  0  0  0  0  0  0  0  0  0  0  0
    4.6130  -12.8320   -5.6360 C   0  0  0  0  0  0  0  0  0  0  0  0
    5.0140  -12.8310   -7.3100 Cl  0  0  0  0  0  0  0  0  0  0  0  0
    5.5530  -12.2600   -4.8490 N   0  0  0  0  0  0  0  0  0  0  0  0
    5.2020  -12.2820   -3.5450 C   0  0  0  0  0  0  0  0  0  0  0  0
    7.5644  -10.9568   -1.5322 H   0  0  0  0  0  0  0  0  0  0  0  0
    7.9012  -11.7929   -3.0860 H   0  0  0  0  0  0  0  0  0  0  0  0
    7.0909  -10.1897   -3.0860 H   0  0  0  0  0  0  0  0  0  0  0  0
    6.3709  -10.8450   -0.0292 H   0  0  0  0  0  0  0  0  0  0  0  0
    4.7972  -11.3018    0.6522 H   0  0  0  0  0  0  0  0  0  0  0  0
    7.3393  -14.7781   -0.9646 H   0  0  0  0  0  0  0  0  0  0  0  0
    9.7902  -15.0152   -1.3387 H   0  0  0  0  0  0  0  0  0  0  0  0
   12.3394  -12.9557    0.4343 H   0  0  0  0  0  0  0  0  0  0  0  0
   11.9849  -14.5516   -0.3886 H   0  0  0  0  0  0  0  0  0  0  0  0
   10.5093  -11.4744    1.0333 H   0  0  0  0  0  0  0  0  0  0  0  0
    8.0574  -11.2382    1.4042 H   0  0  0  0  0  0  0  0  0  0  0  0
    2.1641  -13.8147   -3.4769 H   0  0  0  0  0  0  0  0  0  0  0  0
    2.7131  -13.8307   -5.9457 H   0  0  0  0  0  0  0  0  0  0  0  0
  1  2  1  0
  2  3  1  0
  3  4  1  0
  4  5  1  0
  5  6  1  0
  6  7  2  0
  7  8  1  0
  8  9  2  0
  9 10  1  0
 10 11  1  0
 11 12  1  0
 12 13  1  0
 13 14  2  0
 13 15  1  0
 15 16  1  0
 16 17  1  0
  9 18  1  0
 18 19  2  0
  3 20  2  0
 20 21  1  0
 21 22  2  0
 22 23  1  0
 23 24  2  0
 24 25  1  0
 24 26  1  0
 26 27  2  0
 27  2  1  0
 19  6  1  0
 27 21  1  0
 16 11  2  0
  1 28  1  0
  1 29  1  0
  1 30  1  0
  4 31  1  0
  4 32  1  0
  7 33  1  0
  8 34  1  0
 10 35  1  0
 10 36  1  0
 18 37  1  0
 19 38  1  0
 22 39  1  0
 23 40  1  0
M  CHG  2  15  -1  17  -1
M  END
>  <meeko>  (5) 
{"is_sidechain": [false], "free_energy": -6.921, "intermolecular_energy": -8.899, "internal_energy": -0.786}

$$$$
LIB_SPJBPKGFJMQWSO__M_PUB_ALL__e8__s20260927
     RDKit          3D

 40 43  0  0  0  0  0  0  0  0999 V2000
    5.9410  -15.4170   -4.2180 C   0  0  0  0  0  0  0  0  0  0  0  0
    5.8040  -14.3760   -5.2080 N   0  0  0  0  0  0  0  0  0  0  0  0
    5.2010  -13.1440   -5.0320 C   0  0  0  0  0  0  0  0  0  0  0  0
    4.5940  -12.7100   -3.7330 C   0  0  0  0  0  0  0  0  0  0  0  0
    5.3820  -11.6170   -3.2620 O   0  0  0  0  0  0  0  0  0  0  0  0
    6.6050  -11.9570   -2.7500 C   0  0  0  0  0  0  0  0  0  0  0  0
    7.8290  -11.7470   -3.3850 C   0  0  0  0  0  0  0  0  0  0  0  0
    9.0080  -12.1910   -2.7850 C   0  0  0  0  0  0  0  0  0  0  0  0
    8.9830  -12.8350   -1.5410 C   0  0  0  0  0  0  0  0  0  0  0  0
   10.2800  -13.3430   -0.9370 C   0  0  0  0  0  0  0  0  0  0  0  0
   11.2840  -12.2690   -0.6700 C   0  0  0  0  0  0  0  0  0  0  0  0
   11.2550  -11.2890    0.7610 S   0  0  0  0  0  0  0  0  0  0  0  0
   12.6850  -10.3860    0.1840 C   0  0  0  0  0  0  0  0  0  0  0  0
   13.1620   -9.4820    0.8680 O   0  0  0  0  0  0  0  0  0  0  0  0
   13.0960  -10.8350   -1.0160 N   0  0  0  0  0  0  0  0  0  0  0  0
   12.3050  -11.8590   -1.4490 C   0  0  0  0  0  0  0  0  0  0  0  0
   12.6960  -12.2710   -2.5740 O   0  0  0  0  0  0  0  0  0  0  0  0
    7.7560  -13.0080   -0.8920 C   0  0  0  0  0  0  0  0  0  0  0  0
    6.5760  -12.5640   -1.4920 C   0  0  0  0  0  0  0  0  0  0  0  0
    5.2620  -12.4270   -6.1450 N   0  0  0  0  0  0  0  0  0  0  0  0
    5.8950  -13.2240   -7.0600 C   0  0  0  0  0  0  0  0  0  0  0  0
    6.2240  -12.9950   -8.4010 C   0  0  0  0  0  0  0  0  0  0  0  0
    6.8790  -14.0240   -9.0810 C   0  0  0  0  0  0  0  0  0  0  0  0
    7.1660  -15.2030   -8.3990 C   0  0  0  0  0  0  0  0  0  0  0  0
    7.9710  -16.4850   -9.2160 Cl  0  0  0  0  0  0  0  0  0  0  0  0
    6.8730  -15.4770   -7.1070 N   0  0  0  0  0  0  0  0  0  0  0  0
    6.2420  -14.4480   -6.5020 C   0  0  0  0  0  0  0  0  0  0  0  0
    5.8830  -14.9761   -3.2119 H   0  0  0  0  0  0  0  0  0  0  0  0
    5.1318  -16.1514   -4.3437 H   0  0  0  0  0  0  0  0  0  0  0  0
    6.9127  -15.9170   -4.3437 H   0  0  0  0  0  0  0  0  0  0  0  0
    3.5534  -12.3890   -3.8884 H   0  0  0  0  0  0  0  0  0  0  0  0
    4.5819  -13.5343   -3.0047 H   0  0  0  0  0  0  0  0  0  0  0  0
    7.8648  -11.2325   -4.3566 H   0  0  0  0  0  0  0  0  0  0  0  0
    9.9696  -12.0333   -3.2954 H   0  0  0  0  0  0  0  0  0  0  0  0
   10.0466  -13.8434    0.0144 H   0  0  0  0  0  0  0  0  0  0  0  0
   10.7299  -14.0253   -1.6733 H   0  0  0  0  0  0  0  0  0  0  0  0
    7.7206  -13.4951    0.0936 H   0  0  0  0  0  0  0  0  0  0  0  0
    5.6163  -12.6931   -0.9702 H   0  0  0  0  0  0  0  0  0  0  0  0
    5.9772  -12.0452   -8.8980 H   0  0  0  0  0  0  0  0  0  0  0  0
    7.1631  -13.9049  -10.1370 H   0  0  0  0  0  0  0  0  0  0  0  0
  1  2  1  0
  2  3  1  0
  3  4  1  0
  4  5  1  0
  5  6  1  0
  6  7  2  0
  7  8  1  0
  8  9  2  0
  9 10  1  0
 10 11  1  0
 11 12  1  0
 12 13  1  0
 13 14  2  0
 13 15  1  0
 15 16  1  0
 16 17  1  0
  9 18  1  0
 18 19  2  0
  3 20  2  0
 20 21  1  0
 21 22  2  0
 22 23  1  0
 23 24  2  0
 24 25  1  0
 24 26  1  0
 26 27  2  0
 27  2  1  0
 19  6  1  0
 27 21  1  0
 16 11  2  0
  1 28  1  0
  1 29  1  0
  1 30  1  0
  4 31  1  0
  4 32  1  0
  7 33  1  0
  8 34  1  0
 10 35  1  0
 10 36  1  0
 18 37  1  0
 19 38  1  0
 22 39  1  0
 23 40  1  0
M  CHG  2  15  -1  17  -1
M  END
>  <meeko>  (6) 
{"is_sidechain": [false], "free_energy": -6.842, "intermolecular_energy": -8.829, "internal_energy": -0.753}

$$$$
LIB_SPJBPKGFJMQWSO__M_PUB_ALL__e8__s20260927
     RDKit          3D

 40 43  0  0  0  0  0  0  0  0999 V2000
    8.7820  -14.3650   -1.7570 C   0  0  0  0  0  0  0  0  0  0  0  0
    9.7580  -14.0940   -2.7850 N   0  0  0  0  0  0  0  0  0  0  0  0
    9.7430  -14.5700   -4.0840 C   0  0  0  0  0  0  0  0  0  0  0  0
    8.6620  -15.4600   -4.6140 C   0  0  0  0  0  0  0  0  0  0  0  0
    7.5780  -14.6070   -4.9830 O   0  0  0  0  0  0  0  0  0  0  0  0
    7.4160  -14.4170   -6.3290 C   0  0  0  0  0  0  0  0  0  0  0  0
    8.1900  -15.0140   -7.3240 C   0  0  0  0  0  0  0  0  0  0  0  0
    7.9640  -14.6950   -8.6640 C   0  0  0  0  0  0  0  0  0  0  0  0
    6.9580  -13.7910   -9.0280 C   0  0  0  0  0  0  0  0  0  0  0  0
    6.7690  -13.4360  -10.4920 C   0  0  0  0  0  0  0  0  0  0  0  0
    7.7500  -12.4310  -11.0020 C   0  0  0  0  0  0  0  0  0  0  0  0
    7.4200  -10.7290  -11.0390 S   0  0  0  0  0  0  0  0  0  0  0  0
    9.0230  -10.4240  -11.7700 C   0  0  0  0  0  0  0  0  0  0  0  0
    9.3730   -9.2750  -12.0340 O   0  0  0  0  0  0  0  0  0  0  0  0
    9.7020  -11.5700  -11.9560 N   0  0  0  0  0  0  0  0  0  0  0  0
    8.9730  -12.6420  -11.5290 C   0  0  0  0  0  0  0  0  0  0  0  0
    9.6160  -13.7110  -11.7090 O   0  0  0  0  0  0  0  0  0  0  0  0
    6.1610  -13.2250   -8.0280 C   0  0  0  0  0  0  0  0  0  0  0  0
    6.3860  -13.5430   -6.6870 C   0  0  0  0  0  0  0  0  0  0  0  0
   10.7850  -14.1140   -4.7640 N   0  0  0  0  0  0  0  0  0  0  0  0
   11.4960  -13.3510   -3.8780 C   0  0  0  0  0  0  0  0  0  0  0  0
   12.6880  -12.6340   -4.0360 C   0  0  0  0  0  0  0  0  0  0  0  0
   13.1690  -11.9430   -2.9230 C   0  0  0  0  0  0  0  0  0  0  0  0
   12.4480  -12.0020   -1.7340 C   0  0  0  0  0  0  0  0  0  0  0  0
   13.0220  -11.1590   -0.3480 Cl  0  0  0  0  0  0  0  0  0  0  0  0
   11.2940  -12.6750   -1.5250 N   0  0  0  0  0  0  0  0  0  0  0  0
   10.8780  -13.3230   -2.6340 C   0  0  0  0  0  0  0  0  0  0  0  0
    9.2458  -14.2362   -0.7679 H   0  0  0  0  0  0  0  0  0  0  0  0
    7.9378  -13.6673   -1.8598 H   0  0  0  0  0  0  0  0  0  0  0  0
    8.4184  -15.3981   -1.8598 H   0  0  0  0  0  0  0  0  0  0  0  0
    9.0238  -16.0158   -5.4916 H   0  0  0  0  0  0  0  0  0  0  0  0
    8.3488  -16.1971   -3.8600 H   0  0  0  0  0  0  0  0  0  0  0  0
    8.9763  -15.7341   -7.0535 H   0  0  0  0  0  0  0  0  0  0  0  0
    8.5843  -15.1598   -9.4445 H   0  0  0  0  0  0  0  0  0  0  0  0
    6.8730  -14.3549  -11.0876 H   0  0  0  0  0  0  0  0  0  0  0  0
    5.7706  -12.9838  -10.5849 H   0  0  0  0  0  0  0  0  0  0  0  0
    5.3547  -12.5274   -8.2985 H   0  0  0  0  0  0  0  0  0  0  0  0
    5.7479  -13.1024   -5.9068 H   0  0  0  0  0  0  0  0  0  0  0  0
   13.2230  -12.6160   -4.9970 H   0  0  0  0  0  0  0  0  0  0  0  0
   14.1012  -11.3622   -2.9843 H   0  0  0  0  0  0  0  0  0  0  0  0
  1  2  1  0
  2  3  1  0
  3  4  1  0
  4  5  1  0
  5  6  1  0
  6  7  2  0
  7  8  1  0
  8  9  2  0
  9 10  1  0
 10 11  1  0
 11 12  1  0
 12 13  1  0
 13 14  2  0
 13 15  1  0
 15 16  1  0
 16 17  1  0
  9 18  1  0
 18 19  2  0
  3 20  2  0
 20 21  1  0
 21 22  2  0
 22 23  1  0
 23 24  2  0
 24 25  1  0
 24 26  1  0
 26 27  2  0
 27  2  1  0
 19  6  1  0
 27 21  1  0
 16 11  2  0
  1 28  1  0
  1 29  1  0
  1 30  1  0
  4 31  1  0
  4 32  1  0
  7 33  1  0
  8 34  1  0
 10 35  1  0
 10 36  1  0
 18 37  1  0
 19 38  1  0
 22 39  1  0
 23 40  1  0
M  CHG  2  15  -1  17  -1
M  END
>  <meeko>  (7) 
{"is_sidechain": [false], "free_energy": -6.782, "intermolecular_energy": -8.806, "internal_energy": -0.699}

$$$$
LIB_SPJBPKGFJMQWSO__M_PUB_ALL__e8__s20260927
     RDKit          3D

 40 43  0  0  0  0  0  0  0  0999 V2000
    2.5160  -14.8060   -1.7180 C   0  0  0  0  0  0  0  0  0  0  0  0
    2.3760  -13.3820   -1.9050 N   0  0  0  0  0  0  0  0  0  0  0  0
    1.7720  -12.4910   -1.0370 C   0  0  0  0  0  0  0  0  0  0  0  0
    1.1670  -12.9060    0.2690 C   0  0  0  0  0  0  0  0  0  0  0  0
   -0.2310  -12.6310    0.1740 O   0  0  0  0  0  0  0  0  0  0  0  0
   -1.0420  -13.4830    0.8760 C   0  0  0  0  0  0  0  0  0  0  0  0
   -2.0200  -14.3050    0.3170 C   0  0  0  0  0  0  0  0  0  0  0  0
   -2.8240  -15.0890    1.1460 C   0  0  0  0  0  0  0  0  0  0  0  0
   -2.6540  -15.0740    2.5360 C   0  0  0  0  0  0  0  0  0  0  0  0
   -3.5740  -15.9070    3.4090 C   0  0  0  0  0  0  0  0  0  0  0  0
   -2.8870  -17.0330    4.1100 C   0  0  0  0  0  0  0  0  0  0  0  0
   -2.6110  -17.0480    5.8220 S   0  0  0  0  0  0  0  0  0  0  0  0
   -1.7870  -18.6280    5.6870 C   0  0  0  0  0  0  0  0  0  0  0  0
   -1.3440  -19.1820    6.6910 O   0  0  0  0  0  0  0  0  0  0  0  0
   -1.7480  -19.0520    4.4100 N   0  0  0  0  0  0  0  0  0  0  0  0
   -2.3540  -18.1530    3.5810 C   0  0  0  0  0  0  0  0  0  0  0  0
   -2.3100  -18.5570    2.3880 O   0  0  0  0  0  0  0  0  0  0  0  0
   -1.6460  -14.2760    3.0870 C   0  0  0  0  0  0  0  0  0  0  0  0
   -0.8410  -13.4910    2.2590 C   0  0  0  0  0  0  0  0  0  0  0  0
    1.8300  -11.2560   -1.5150 N   0  0  0  0  0  0  0  0  0  0  0  0
    2.4610  -11.3590   -2.7240 C   0  0  0  0  0  0  0  0  0  0  0  0
    2.7870  -10.3840   -3.6740 C   0  0  0  0  0  0  0  0  0  0  0  0
    3.4430  -10.8150   -4.8300 C   0  0  0  0  0  0  0  0  0  0  0  0
    3.7320  -12.1680   -4.9730 C   0  0  0  0  0  0  0  0  0  0  0  0
    4.5370  -12.7220   -6.3880 Cl  0  0  0  0  0  0  0  0  0  0  0  0
    3.4430  -13.1510   -4.0890 N   0  0  0  0  0  0  0  0  0  0  0  0
    2.8110  -12.6770   -2.9940 C   0  0  0  0  0  0  0  0  0  0  0  0
    2.5384  -15.0341   -0.6421 H   0  0  0  0  0  0  0  0  0  0  0  0
    1.6643  -15.3226   -2.1847 H   0  0  0  0  0  0  0  0  0  0  0  0
    3.4520  -15.1468   -2.1847 H   0  0  0  0  0  0  0  0  0  0  0  0
    1.3322  -13.9800    0.4401 H   0  0  0  0  0  0  0  0  0  0  0  0
    1.6231  -12.3621    1.1093 H   0  0  0  0  0  0  0  0  0  0  0  0
   -2.1574  -14.3355   -0.7740 H   0  0  0  0  0  0  0  0  0  0  0  0
   -3.6017  -15.7273    0.7014 H   0  0  0  0  0  0  0  0  0  0  0  0
   -4.0218  -15.2483    4.1677 H   0  0  0  0  0  0  0  0  0  0  0  0
   -4.3257  -16.3563    2.7434 H   0  0  0  0  0  0  0  0  0  0  0  0
   -1.4870  -14.2668    4.1754 H   0  0  0  0  0  0  0  0  0  0  0  0
   -0.0430  -12.8745    2.6984 H   0  0  0  0  0  0  0  0  0  0  0  0
    2.5375   -9.3242   -3.5173 H   0  0  0  0  0  0  0  0  0  0  0  0
    3.7260  -10.0966   -5.6135 H   0  0  0  0  0  0  0  0  0  0  0  0
  1  2  1  0
  2  3  1  0
  3  4  1  0
  4  5  1  0
  5  6  1  0
  6  7  2  0
  7  8  1  0
  8  9  2  0
  9 10  1  0
 10 11  1  0
 11 12  1  0
 12 13  1  0
 13 14  2  0
 13 15  1  0
 15 16  1  0
 16 17  1  0
  9 18  1  0
 18 19  2  0
  3 20  2  0
 20 21  1  0
 21 22  2  0
 22 23  1  0
 23 24  2  0
 24 25  1  0
 24 26  1  0
 26 27  2  0
 27  2  1  0
 19  6  1  0
 27 21  1  0
 16 11  2  0
  1 28  1  0
  1 29  1  0
  1 30  1  0
  4 31  1  0
  4 32  1  0
  7 33  1  0
  8 34  1  0
 10 35  1  0
 10 36  1  0
 18 37  1  0
 19 38  1  0
 22 39  1  0
 23 40  1  0
M  CHG  2  15  -1  17  -1
M  END
>  <meeko>  (8) 
{"is_sidechain": [false], "free_energy": -6.772, "intermolecular_energy": -8.877, "internal_energy": -0.615}

$$$$
LIB_SPJBPKGFJMQWSO__M_PUB_ALL__e8__s20260927
     RDKit          3D

 40 43  0  0  0  0  0  0  0  0999 V2000
    6.9670  -11.6780    1.2770 C   0  0  0  0  0  0  0  0  0  0  0  0
    7.4120  -12.7690    0.4440 N   0  0  0  0  0  0  0  0  0  0  0  0
    6.6270  -13.7740   -0.0890 C   0  0  0  0  0  0  0  0  0  0  0  0
    5.1480  -13.8600    0.1330 C   0  0  0  0  0  0  0  0  0  0  0  0
    4.5300  -13.3330   -1.0410 O   0  0  0  0  0  0  0  0  0  0  0  0
    3.4610  -12.5070   -0.8160 C   0  0  0  0  0  0  0  0  0  0  0  0
    2.8920  -12.2490    0.4300 C   0  0  0  0  0  0  0  0  0  0  0  0
    1.7650  -11.4310    0.5230 C   0  0  0  0  0  0  0  0  0  0  0  0
    1.2020  -10.8500   -0.6200 C   0  0  0  0  0  0  0  0  0  0  0  0
   -0.0490  -10.0000   -0.4870 C   0  0  0  0  0  0  0  0  0  0  0  0
   -0.9660  -10.4420    0.6060 C   0  0  0  0  0  0  0  0  0  0  0  0
   -1.8650  -11.9240    0.5380 S   0  0  0  0  0  0  0  0  0  0  0  0
   -2.6040  -11.5600    2.1250 C   0  0  0  0  0  0  0  0  0  0  0  0
   -3.4000  -12.3490    2.6310 O   0  0  0  0  0  0  0  0  0  0  0  0
   -2.1680  -10.3830    2.6100 N   0  0  0  0  0  0  0  0  0  0  0  0
   -1.2800   -9.8030    1.7510 C   0  0  0  0  0  0  0  0  0  0  0  0
   -0.8800   -8.7000    2.2120 O   0  0  0  0  0  0  0  0  0  0  0  0
    1.8000  -11.0820   -1.8630 C   0  0  0  0  0  0  0  0  0  0  0  0
    2.9280  -11.9000   -1.9570 C   0  0  0  0  0  0  0  0  0  0  0  0
    7.3580  -14.6060   -0.8170 N   0  0  0  0  0  0  0  0  0  0  0  0
    8.6410  -14.1400   -0.7290 C   0  0  0  0  0  0  0  0  0  0  0  0
    9.8320  -14.6230   -1.2840 C   0  0  0  0  0  0  0  0  0  0  0  0
   11.0010  -13.9110   -1.0040 C   0  0  0  0  0  0  0  0  0  0  0  0
   10.9200  -12.7780   -0.2010 C   0  0  0  0  0  0  0  0  0  0  0  0
   12.3470  -11.8870    0.1590 Cl  0  0  0  0  0  0  0  0  0  0  0  0
    9.8000  -12.2660    0.3590 N   0  0  0  0  0  0  0  0  0  0  0  0
    8.7040  -12.9940    0.0540 C   0  0  0  0  0  0  0  0  0  0  0  0
    7.0800  -11.9551    2.3355 H   0  0  0  0  0  0  0  0  0  0  0  0
    7.5725  -10.7844    1.0653 H   0  0  0  0  0  0  0  0  0  0  0  0
    5.9092  -11.4628    1.0653 H   0  0  0  0  0  0  0  0  0  0  0  0
    4.8467  -14.9072    0.2835 H   0  0  0  0  0  0  0  0  0  0  0  0
    4.8469  -13.2959    1.0281 H   0  0  0  0  0  0  0  0  0  0  0  0
    3.3302  -12.6891    1.3379 H   0  0  0  0  0  0  0  0  0  0  0  0
    1.3129  -11.2401    1.5075 H   0  0  0  0  0  0  0  0  0  0  0  0
    0.2566   -8.9628   -0.2849 H   0  0  0  0  0  0  0  0  0  0  0  0
   -0.6051  -10.0993   -1.4309 H   0  0  0  0  0  0  0  0  0  0  0  0
    1.3808  -10.6191   -2.7686 H   0  0  0  0  0  0  0  0  0  0  0  0
    3.4006  -12.0679   -2.9360 H   0  0  0  0  0  0  0  0  0  0  0  0
    9.8468  -15.5248   -1.9138 H   0  0  0  0  0  0  0  0  0  0  0  0
   11.9682  -14.2405   -1.4113 H   0  0  0  0  0  0  0  0  0  0  0  0
  1  2  1  0
  2  3  1  0
  3  4  1  0
  4  5  1  0
  5  6  1  0
  6  7  2  0
  7  8  1  0
  8  9  2  0
  9 10  1  0
 10 11  1  0
 11 12  1  0
 12 13  1  0
 13 14  2  0
 13 15  1  0
 15 16  1  0
 16 17  1  0
  9 18  1  0
 18 19  2  0
  3 20  2  0
 20 21  1  0
 21 22  2  0
 22 23  1  0
 23 24  2  0
 24 25  1  0
 24 26  1  0
 26 27  2  0
 27  2  1  0
 19  6  1  0
 27 21  1  0
 16 11  2  0
  1 28  1  0
  1 29  1  0
  1 30  1  0
  4 31  1  0
  4 32  1  0
  7 33  1  0
  8 34  1  0
 10 35  1  0
 10 36  1  0
 18 37  1  0
 19 38  1  0
 22 39  1  0
 23 40  1  0
M  CHG  2  15  -1  17  -1
M  END
>  <meeko>  (9) 
{"is_sidechain": [false], "free_energy": -6.75, "intermolecular_energy": -8.901, "internal_energy": -0.562}

$$$$
