LIB_KWWHIDCVULQSFZ__M_PUB_ALL__e8__s20260927
     RDKit          3D

 25 26  0  0  0  0  0  0  0  0999 V2000
   12.3630    0.6220  -12.1180 N   0  0  0  0  0  0  0  0  0  0  0  0
   11.9960   -0.5450  -11.2290 C   0  0  0  0  0  0  0  0  0  0  0  0
   11.9300   -1.6850  -12.2020 C   0  0  1  0  0  0  0  0  0  0  0  0
   12.9620   -2.4440  -12.9670 C   0  0  0  0  0  0  0  0  0  0  0  0
   12.0230   -3.5570  -13.5210 C   0  0  0  0  0  0  0  0  0  0  0  0
   10.8430   -3.6230  -12.5170 C   0  0  2  0  0  0  0  0  0  0  0  0
    9.5290   -3.0050  -12.9600 C   0  0  0  0  0  0  0  0  0  0  0  0
    9.2860   -2.0730  -13.9460 C   0  0  0  0  0  0  0  0  0  0  0  0
    7.9670   -1.8070  -13.9470 N   0  0  0  0  0  0  0  0  0  0  0  0
    7.3760   -2.5860  -13.0310 C   0  0  0  0  0  0  0  0  0  0  0  0
    8.3080   -3.3120  -12.3660 N   0  0  0  0  0  0  0  0  0  0  0  0
   11.3330   -2.7800  -11.4570 O   0  0  0  0  0  0  0  0  0  0  0  0
   12.3040    1.4920  -11.5710 H   0  0  0  0  0  0  0  0  0  0  0  0
   13.2080    0.5800  -12.6800 H   0  0  0  0  0  0  0  0  0  0  0  0
   11.5400    0.8590  -12.7680 H   0  0  0  0  0  0  0  0  0  0  0  0
   12.7665   -0.7196  -10.4636 H   0  0  0  0  0  0  0  0  0  0  0  0
   11.0624   -0.3925  -10.6677 H   0  0  0  0  0  0  0  0  0  0  0  0
   11.5253   -1.0586  -13.0106 H   0  0  0  0  0  0  0  0  0  0  0  0
   13.4169   -1.8424  -13.7678 H   0  0  0  0  0  0  0  0  0  0  0  0
   13.8399   -2.7841  -12.3981 H   0  0  0  0  0  0  0  0  0  0  0  0
   11.6614   -3.2930  -14.5258 H   0  0  0  0  0  0  0  0  0  0  0  0
   12.5393   -4.5237  -13.6160 H   0  0  0  0  0  0  0  0  0  0  0  0
   10.6032   -4.6764  -12.3101 H   0  0  0  0  0  0  0  0  0  0  0  0
   10.0372   -1.6259  -14.6137 H   0  0  0  0  0  0  0  0  0  0  0  0
    6.2926   -2.6301  -12.8456 H   0  0  0  0  0  0  0  0  0  0  0  0
  1  2  1  0
  2  3  1  0
  3  4  1  0
  4  5  1  0
  5  6  1  0
  6  7  1  0
  7  8  2  0
  8  9  1  0
  9 10  1  0
 10 11  2  0
  6 12  1  0
 12  3  1  0
 11  7  1  0
  1 13  1  0
  1 14  1  0
  1 15  1  0
  2 16  1  0
  2 17  1  0
  3 18  1  6
  4 19  1  0
  4 20  1  0
  5 21  1  0
  5 22  1  0
  6 23  1  1
  8 24  1  0
 10 25  1  0
M  CHG  2   1   1   9  -1
M  END
>  <meeko>  (1) 
{"is_sidechain": [false], "free_energy": -6.175, "intermolecular_energy": -7.077, "internal_energy": 0.141}

$$$$
LIB_KWWHIDCVULQSFZ__M_PUB_ALL__e8__s20260927
     RDKit          3D

 25 26  0  0  0  0  0  0  0  0999 V2000
    8.3870   -3.5570  -12.2360 N   0  0  0  0  0  0  0  0  0  0  0  0
    8.6040   -2.5730  -13.3640 C   0  0  0  0  0  0  0  0  0  0  0  0
   10.0970   -2.4400  -13.3940 C   0  0  1  0  0  0  0  0  0  0  0  0
   11.0260   -1.4090  -13.9430 C   0  0  0  0  0  0  0  0  0  0  0  0
   12.3410   -1.9750  -13.3270 C   0  0  0  0  0  0  0  0  0  0  0  0
   11.8860   -2.7820  -12.0830 C   0  0  2  0  0  0  0  0  0  0  0  0
   11.8940   -4.2950  -12.2040 C   0  0  0  0  0  0  0  0  0  0  0  0
   12.5830   -5.1000  -13.0860 C   0  0  0  0  0  0  0  0  0  0  0  0
   12.2440   -6.3770  -12.8310 N   0  0  0  0  0  0  0  0  0  0  0  0
   11.4090   -6.3930  -11.7820 C   0  0  0  0  0  0  0  0  0  0  0  0
   11.1310   -5.1250  -11.3890 N   0  0  0  0  0  0  0  0  0  0  0  0
   10.4990   -2.4040  -11.9990 O   0  0  0  0  0  0  0  0  0  0  0  0
    9.0340   -4.3490  -12.3520 H   0  0  0  0  0  0  0  0  0  0  0  0
    8.3580   -3.2240  -11.2760 H   0  0  0  0  0  0  0  0  0  0  0  0
    7.4970   -4.1320  -12.4180 H   0  0  0  0  0  0  0  0  0  0  0  0
    8.2207   -2.9686  -14.3162 H   0  0  0  0  0  0  0  0  0  0  0  0
    8.0808   -1.6163  -13.2188 H   0  0  0  0  0  0  0  0  0  0  0  0
   10.2175   -3.2219  -14.1583 H   0  0  0  0  0  0  0  0  0  0  0  0
   11.0458   -1.4058  -15.0428 H   0  0  0  0  0  0  0  0  0  0  0  0
   10.7875   -0.3614  -13.7070 H   0  0  0  0  0  0  0  0  0  0  0  0
   12.8544   -2.6300  -14.0463 H   0  0  0  0  0  0  0  0  0  0  0  0
   13.0516   -1.1773  -13.0650 H   0  0  0  0  0  0  0  0  0  0  0  0
   12.5631   -2.5639  -11.2440 H   0  0  0  0  0  0  0  0  0  0  0  0
   13.2853   -4.7589  -13.8608 H   0  0  0  0  0  0  0  0  0  0  0  0
   11.0081   -7.3017  -11.3093 H   0  0  0  0  0  0  0  0  0  0  0  0
  1  2  1  0
  2  3  1  0
  3  4  1  0
  4  5  1  0
  5  6  1  0
  6  7  1  0
  7  8  2  0
  8  9  1  0
  9 10  1  0
 10 11  2  0
  6 12  1  0
 12  3  1  0
 11  7  1  0
  1 13  1  0
  1 14  1  0
  1 15  1  0
  2 16  1  0
  2 17  1  0
  3 18  1  6
  4 19  1  0
  4 20  1  0
  5 21  1  0
  5 22  1  0
  6 23  1  1
  8 24  1  0
 10 25  1  0
M  CHG  2   1   1   9  -1
M  END
>  <meeko>  (2) 
{"is_sidechain": [false], "free_energy": -5.877, "intermolecular_energy": -6.195, "internal_energy": -0.4}

$$$$
LIB_KWWHIDCVULQSFZ__M_PUB_ALL__e8__s20260927
     RDKit          3D

 25 26  0  0  0  0  0  0  0  0999 V2000
   13.5810   -5.5310  -12.6750 N   0  0  0  0  0  0  0  0  0  0  0  0
   12.6160   -4.9920  -13.7080 C   0  0  0  0  0  0  0  0  0  0  0  0
   12.4220   -3.5740  -13.2590 C   0  0  1  0  0  0  0  0  0  0  0  0
   13.3380   -2.5420  -12.6900 C   0  0  0  0  0  0  0  0  0  0  0  0
   12.3460   -1.3410  -12.7460 C   0  0  0  0  0  0  0  0  0  0  0  0
   11.3380   -1.7050  -13.8680 C   0  0  2  0  0  0  0  0  0  0  0  0
    9.9590   -2.1630  -13.4290 C   0  0  0  0  0  0  0  0  0  0  0  0
    9.5920   -3.2920  -12.7270 C   0  0  0  0  0  0  0  0  0  0  0  0
    8.2520   -3.2840  -12.6050 N   0  0  0  0  0  0  0  0  0  0  0  0
    7.7810   -2.1590  -13.1600 C   0  0  0  0  0  0  0  0  0  0  0  0
    8.7960   -1.4560  -13.7200 N   0  0  0  0  0  0  0  0  0  0  0  0
   11.9700   -2.8640  -14.4430 O   0  0  0  0  0  0  0  0  0  0  0  0
   13.1440   -6.3280  -12.1920 H   0  0  0  0  0  0  0  0  0  0  0  0
   14.5430   -5.7230  -12.9380 H   0  0  0  0  0  0  0  0  0  0  0  0
   13.5910   -4.8880  -11.8140 H   0  0  0  0  0  0  0  0  0  0  0  0
   13.0499   -5.0338  -14.7179 H   0  0  0  0  0  0  0  0  0  0  0  0
   11.6788   -5.5640  -13.7744 H   0  0  0  0  0  0  0  0  0  0  0  0
   11.8838   -3.8666  -12.3454 H   0  0  0  0  0  0  0  0  0  0  0  0
   13.6508   -2.7798  -11.6626 H   0  0  0  0  0  0  0  0  0  0  0  0
   14.3003   -2.4054  -13.2051 H   0  0  0  0  0  0  0  0  0  0  0  0
   11.8270   -1.2230  -11.7833 H   0  0  0  0  0  0  0  0  0  0  0  0
   12.8602   -0.3892  -12.9452 H   0  0  0  0  0  0  0  0  0  0  0  0
   11.1547   -0.8177  -14.4918 H   0  0  0  0  0  0  0  0  0  0  0  0
   10.2735   -4.0620  -12.3363 H   0  0  0  0  0  0  0  0  0  0  0  0
    6.7250   -1.8509  -13.1611 H   0  0  0  0  0  0  0  0  0  0  0  0
  1  2  1  0
  2  3  1  0
  3  4  1  0
  4  5  1  0
  5  6  1  0
  6  7  1  0
  7  8  2  0
  8  9  1  0
  9 10  1  0
 10 11  2  0
  6 12  1  0
 12  3  1  0
 11  7  1  0
  1 13  1  0
  1 14  1  0
  1 15  1  0
  2 16  1  0
  2 17  1  0
  3 18  1  1
  4 19  1  0
  4 20  1  0
  5 21  1  0
  5 22  1  0
  6 23  1  6
  8 24  1  0
 10 25  1  0
M  CHG  2   1   1   9  -1
M  END
>  <meeko>  (3) 
{"is_sidechain": [false], "free_energy": -5.181, "intermolecular_energy": -6.36, "internal_energy": 0.562}

$$$$
LIB_KWWHIDCVULQSFZ__M_PUB_ALL__e8__s20260927
     RDKit          3D

 25 26  0  0  0  0  0  0  0  0999 V2000
   15.1290  -12.0370   -3.1200 N   0  0  0  0  0  0  0  0  0  0  0  0
   13.7660  -11.3910   -3.2270 C   0  0  0  0  0  0  0  0  0  0  0  0
   13.1680  -11.6710   -1.8800 C   0  0  1  0  0  0  0  0  0  0  0  0
   13.2070  -10.9570   -0.5700 C   0  0  0  0  0  0  0  0  0  0  0  0
   12.1490  -11.8330    0.1660 C   0  0  0  0  0  0  0  0  0  0  0  0
   11.2670  -12.4300   -0.9600 C   0  0  2  0  0  0  0  0  0  0  0  0
   11.4880  -13.8910   -1.3040 C   0  0  0  0  0  0  0  0  0  0  0  0
   11.0770  -14.6040   -2.4100 C   0  0  0  0  0  0  0  0  0  0  0  0
   11.4810  -15.8780   -2.2550 N   0  0  0  0  0  0  0  0  0  0  0  0
   12.1790  -15.9660   -1.1130 C   0  0  0  0  0  0  0  0  0  0  0  0
   12.1730  -14.7720   -0.4710 N   0  0  0  0  0  0  0  0  0  0  0  0
   11.7330  -11.6850   -2.1020 O   0  0  0  0  0  0  0  0  0  0  0  0
   15.7630  -11.4020   -2.6170 H   0  0  0  0  0  0  0  0  0  0  0  0
   15.2070  -12.9950   -2.7920 H   0  0  0  0  0  0  0  0  0  0  0  0
   15.6440  -11.9630   -4.0610 H   0  0  0  0  0  0  0  0  0  0  0  0
   13.8517  -10.3092   -3.4069 H   0  0  0  0  0  0  0  0  0  0  0  0
   13.1630  -11.7748   -4.0631 H   0  0  0  0  0  0  0  0  0  0  0  0
   13.8711  -12.4889   -1.6641 H   0  0  0  0  0  0  0  0  0  0  0  0
   14.1975  -11.0075   -0.0942 H   0  0  0  0  0  0  0  0  0  0  0  0
   13.0124   -9.8747   -0.5970 H   0  0  0  0  0  0  0  0  0  0  0  0
   12.6407  -12.6341    0.7374 H   0  0  0  0  0  0  0  0  0  0  0  0
   11.5584  -11.2482    0.8866 H   0  0  0  0  0  0  0  0  0  0  0  0
   10.2100  -12.3681   -0.6619 H   0  0  0  0  0  0  0  0  0  0  0  0
   10.5176  -14.2023   -3.2677 H   0  0  0  0  0  0  0  0  0  0  0  0
   12.6827  -16.8742   -0.7504 H   0  0  0  0  0  0  0  0  0  0  0  0
  1  2  1  0
  2  3  1  0
  3  4  1  0
  4  5  1  0
  5  6  1  0
  6  7  1  0
  7  8  2  0
  8  9  1  0
  9 10  1  0
 10 11  2  0
  6 12  1  0
 12  3  1  0
 11  7  1  0
  1 13  1  0
  1 14  1  0
  1 15  1  0
  2 16  1  0
  2 17  1  0
  3 18  1  1
  4 19  1  0
  4 20  1  0
  5 21  1  0
  5 22  1  0
  6 23  1  1
  8 24  1  0
 10 25  1  0
M  CHG  2   1   1   9  -1
M  END
>  <meeko>  (4) 
{"is_sidechain": [false], "free_energy": -5.103, "intermolecular_energy": -5.557, "internal_energy": -0.151}

$$$$
LIB_KWWHIDCVULQSFZ__M_PUB_ALL__e8__s20260927
     RDKit          3D

 25 26  0  0  0  0  0  0  0  0999 V2000
   12.3480   -6.5080  -11.3330 N   0  0  0  0  0  0  0  0  0  0  0  0
   11.4140   -5.3190  -11.2770 C   0  0  0  0  0  0  0  0  0  0  0  0
   11.9660   -4.4250  -12.3470 C   0  0  1  0  0  0  0  0  0  0  0  0
   12.6990   -4.6800  -13.6220 C   0  0  0  0  0  0  0  0  0  0  0  0
   12.6620   -3.2210  -14.1700 C   0  0  0  0  0  0  0  0  0  0  0  0
   11.4310   -2.5680  -13.4890 C   0  0  2  0  0  0  0  0  0  0  0  0
   11.7090   -1.5940  -12.3590 C   0  0  0  0  0  0  0  0  0  0  0  0
   11.7130   -1.8080  -10.9970 C   0  0  0  0  0  0  0  0  0  0  0  0
   11.9800   -0.6350  -10.3950 N   0  0  0  0  0  0  0  0  0  0  0  0
   12.1970    0.2890  -11.3410 C   0  0  0  0  0  0  0  0  0  0  0  0
   11.9980   -0.2480  -12.5700 N   0  0  0  0  0  0  0  0  0  0  0  0
   10.8130   -3.7140  -12.8740 O   0  0  0  0  0  0  0  0  0  0  0  0
   12.9670   -6.4100  -12.1490 H   0  0  0  0  0  0  0  0  0  0  0  0
   12.8550   -6.7890  -10.4990 H   0  0  0  0  0  0  0  0  0  0  0  0
   11.8230   -7.3670  -11.7110 H   0  0  0  0  0  0  0  0  0  0  0  0
   10.3787   -5.6154  -11.5011 H   0  0  0  0  0  0  0  0  0  0  0  0
   11.3681   -4.8425  -10.2866 H   0  0  0  0  0  0  0  0  0  0  0  0
   12.8010   -4.0789  -11.7201 H   0  0  0  0  0  0  0  0  0  0  0  0
   13.7251   -5.0377  -13.4513 H   0  0  0  0  0  0  0  0  0  0  0  0
   12.2824   -5.4588  -14.2777 H   0  0  0  0  0  0  0  0  0  0  0  0
   13.5832   -2.6834  -13.9010 H   0  0  0  0  0  0  0  0  0  0  0  0
   12.5904   -3.1933  -15.2673 H   0  0  0  0  0  0  0  0  0  0  0  0
   10.8734   -1.9826  -14.2349 H   0  0  0  0  0  0  0  0  0  0  0  0
   11.5302   -2.7680  -10.4920 H   0  0  0  0  0  0  0  0  0  0  0  0
   12.4932    1.3307  -11.1486 H   0  0  0  0  0  0  0  0  0  0  0  0
  1  2  1  0
  2  3  1  0
  3  4  1  0
  4  5  1  0
  5  6  1  0
  6  7  1  0
  7  8  2  0
  8  9  1  0
  9 10  1  0
 10 11  2  0
  6 12  1  0
 12  3  1  0
 11  7  1  0
  1 13  1  0
  1 14  1  0
  1 15  1  0
  2 16  1  0
  2 17  1  0
  3 18  1  1
  4 19  1  0
  4 20  1  0
  5 21  1  0
  5 22  1  0
  6 23  1  6
  8 24  1  0
 10 25  1  0
M  CHG  2   1   1   9  -1
M  END
>  <meeko>  (5) 
{"is_sidechain": [false], "free_energy": -5.005, "intermolecular_energy": -6.096, "internal_energy": 0.5}

$$$$
LIB_KWWHIDCVULQSFZ__M_PUB_ALL__e8__s20260927
     RDKit          3D

 25 26  0  0  0  0  0  0  0  0999 V2000
   12.7760  -15.4330   -0.6100 N   0  0  0  0  0  0  0  0  0  0  0  0
   12.6810  -15.9120   -2.0420 C   0  0  0  0  0  0  0  0  0  0  0  0
   12.8690  -14.6440   -2.8200 C   0  0  1  0  0  0  0  0  0  0  0  0
   13.3950  -14.3430   -4.1840 C   0  0  0  0  0  0  0  0  0  0  0  0
   13.0070  -12.8350   -4.2200 C   0  0  0  0  0  0  0  0  0  0  0  0
   11.8240  -12.7000   -3.2270 C   0  0  2  0  0  0  0  0  0  0  0  0
   12.1260  -12.0650   -1.8820 C   0  0  0  0  0  0  0  0  0  0  0  0
   11.4440  -12.1730   -0.6880 C   0  0  0  0  0  0  0  0  0  0  0  0
   12.0720  -11.4020    0.2180 N   0  0  0  0  0  0  0  0  0  0  0  0
   13.1540  -10.8610   -0.3610 C   0  0  0  0  0  0  0  0  0  0  0  0
   13.2030  -11.2090   -1.6710 N   0  0  0  0  0  0  0  0  0  0  0  0
   11.5350  -14.0830   -2.9500 O   0  0  0  0  0  0  0  0  0  0  0  0
   11.9750  -15.8030   -0.0790 H   0  0  0  0  0  0  0  0  0  0  0  0
   13.6500  -15.5320   -0.1030 H   0  0  0  0  0  0  0  0  0  0  0  0
   12.4670  -14.4050   -0.5480 H   0  0  0  0  0  0  0  0  0  0  0  0
   13.4728  -16.6404   -2.2711 H   0  0  0  0  0  0  0  0  0  0  0  0
   11.7383  -16.4312   -2.2697 H   0  0  0  0  0  0  0  0  0  0  0  0
   13.7304  -14.3226   -2.2161 H   0  0  0  0  0  0  0  0  0  0  0  0
   14.4815  -14.4982   -4.2580 H   0  0  0  0  0  0  0  0  0  0  0  0
   13.0102  -14.9663   -5.0046 H   0  0  0  0  0  0  0  0  0  0  0  0
   13.8538  -12.2104   -3.8994 H   0  0  0  0  0  0  0  0  0  0  0  0
   12.7356  -12.5027   -5.2329 H   0  0  0  0  0  0  0  0  0  0  0  0
   11.0490  -12.0594   -3.6730 H   0  0  0  0  0  0  0  0  0  0  0  0
   10.5456  -12.7818   -0.5084 H   0  0  0  0  0  0  0  0  0  0  0  0
   13.8933  -10.2279    0.1514 H   0  0  0  0  0  0  0  0  0  0  0  0
  1  2  1  0
  2  3  1  0
  3  4  1  0
  4  5  1  0
  5  6  1  0
  6  7  1  0
  7  8  2  0
  8  9  1  0
  9 10  1  0
 10 11  2  0
  6 12  1  0
 12  3  1  0
 11  7  1  0
  1 13  1  0
  1 14  1  0
  1 15  1  0
  2 16  1  0
  2 17  1  0
  3 18  1  1
  4 19  1  0
  4 20  1  0
  5 21  1  0
  5 22  1  0
  6 23  1  6
  8 24  1  0
 10 25  1  0
M  CHG  2   1   1   9  -1
M  END
>  <meeko>  (6) 
{"is_sidechain": [false], "free_energy": -4.961, "intermolecular_energy": -5.339, "internal_energy": -0.207}

$$$$
LIB_KWWHIDCVULQSFZ__M_PUB_ALL__e8__s20260927
     RDKit          3D

 25 26  0  0  0  0  0  0  0  0999 V2000
   13.9590  -11.4120   -1.7480 N   0  0  0  0  0  0  0  0  0  0  0  0
   13.1770  -11.0420   -0.5060 C   0  0  0  0  0  0  0  0  0  0  0  0
   12.0510  -12.0320   -0.5270 C   0  0  1  0  0  0  0  0  0  0  0  0
   10.7910  -12.1710    0.2610 C   0  0  0  0  0  0  0  0  0  0  0  0
   10.1540  -13.3170   -0.5820 C   0  0  0  0  0  0  0  0  0  0  0  0
   10.7980  -13.1890   -1.9870 C   0  0  2  0  0  0  0  0  0  0  0  0
   11.8640  -14.2070   -2.3480 C   0  0  0  0  0  0  0  0  0  0  0  0
   12.1380  -15.4310   -1.7770 C   0  0  0  0  0  0  0  0  0  0  0  0
   13.1970  -15.9580   -2.4160 N   0  0  0  0  0  0  0  0  0  0  0  0
   13.5550  -15.1250   -3.4040 C   0  0  0  0  0  0  0  0  0  0  0  0
   12.7860  -14.0090   -3.3720 N   0  0  0  0  0  0  0  0  0  0  0  0
   11.4860  -11.9300   -1.8620 O   0  0  0  0  0  0  0  0  0  0  0  0
   13.9770  -12.4370   -1.8390 H   0  0  0  0  0  0  0  0  0  0  0  0
   13.7500  -10.9520   -2.6290 H   0  0  0  0  0  0  0  0  0  0  0  0
   15.0130  -11.3120   -1.5590 H   0  0  0  0  0  0  0  0  0  0  0  0
   13.7908  -11.1568    0.3996 H   0  0  0  0  0  0  0  0  0  0  0  0
   12.8409   -9.9947   -0.4942 H   0  0  0  0  0  0  0  0  0  0  0  0
   12.6512  -12.8256   -0.0579 H   0  0  0  0  0  0  0  0  0  0  0  0
   10.9787  -12.4710    1.3025 H   0  0  0  0  0  0  0  0  0  0  0  0
   10.1872  -11.2596    0.3825 H   0  0  0  0  0  0  0  0  0  0  0  0
   10.3850  -14.2969   -0.1389 H   0  0  0  0  0  0  0  0  0  0  0  0
    9.0575  -13.2394   -0.6220 H   0  0  0  0  0  0  0  0  0  0  0  0
   10.0200  -13.3119   -2.7548 H   0  0  0  0  0  0  0  0  0  0  0  0
   11.5875  -15.8949   -0.9453 H   0  0  0  0  0  0  0  0  0  0  0  0
   14.3552  -15.3188   -4.1334 H   0  0  0  0  0  0  0  0  0  0  0  0
  1  2  1  0
  2  3  1  0
  3  4  1  0
  4  5  1  0
  5  6  1  0
  6  7  1  0
  7  8  2  0
  8  9  1  0
  9 10  1  0
 10 11  2  0
  6 12  1  0
 12  3  1  0
 11  7  1  0
  1 13  1  0
  1 14  1  0
  1 15  1  0
  2 16  1  0
  2 17  1  0
  3 18  1  6
  4 19  1  0
  4 20  1  0
  5 21  1  0
  5 22  1  0
  6 23  1  6
  8 24  1  0
 10 25  1  0
M  CHG  2   1   1   9  -1
M  END
>  <meeko>  (7) 
{"is_sidechain": [false], "free_energy": -4.842, "intermolecular_energy": -5.007, "internal_energy": -0.402}

$$$$
LIB_KWWHIDCVULQSFZ__M_PUB_ALL__e8__s20260927
     RDKit          3D

 25 26  0  0  0  0  0  0  0  0999 V2000
   12.9270  -15.3210   -0.6050 N   0  0  0  0  0  0  0  0  0  0  0  0
   11.6480  -16.0550   -0.9420 C   0  0  0  0  0  0  0  0  0  0  0  0
   10.7100  -14.9330   -1.2770 C   0  0  1  0  0  0  0  0  0  0  0  0
    9.2240  -14.8270   -1.3630 C   0  0  0  0  0  0  0  0  0  0  0  0
    9.1430  -13.2810   -1.5420 C   0  0  0  0  0  0  0  0  0  0  0  0
   10.4480  -12.7350   -0.9060 C   0  0  2  0  0  0  0  0  0  0  0  0
   11.5360  -12.2760   -1.8600 C   0  0  0  0  0  0  0  0  0  0  0  0
   11.4860  -12.0960   -3.2260 C   0  0  0  0  0  0  0  0  0  0  0  0
   12.7080  -11.7110   -3.6360 N   0  0  0  0  0  0  0  0  0  0  0  0
   13.5000  -11.5920   -2.5610 C   0  0  0  0  0  0  0  0  0  0  0  0
   12.8300  -11.9740   -1.4460 N   0  0  0  0  0  0  0  0  0  0  0  0
   10.9630  -13.9190   -0.2680 O   0  0  0  0  0  0  0  0  0  0  0  0
   13.7290  -15.9270   -0.8230 H   0  0  0  0  0  0  0  0  0  0  0  0
   13.0640  -14.3700   -0.9360 H   0  0  0  0  0  0  0  0  0  0  0  0
   13.0840  -15.3300    0.4590 H   0  0  0  0  0  0  0  0  0  0  0  0
   11.7892  -16.7257   -1.8023 H   0  0  0  0  0  0  0  0  0  0  0  0
   11.2860  -16.7021   -0.1295 H   0  0  0  0  0  0  0  0  0  0  0  0
   10.9548  -14.9594   -2.3491 H   0  0  0  0  0  0  0  0  0  0  0  0
    8.8143  -15.3710   -2.2268 H   0  0  0  0  0  0  0  0  0  0  0  0
    8.6546  -15.2520   -0.5233 H   0  0  0  0  0  0  0  0  0  0  0  0
    9.0929  -13.0173   -2.6087 H   0  0  0  0  0  0  0  0  0  0  0  0
    8.2443  -12.8567   -1.0705 H   0  0  0  0  0  0  0  0  0  0  0  0
   10.2110  -11.8480   -0.3001 H   0  0  0  0  0  0  0  0  0  0  0  0
   10.6037  -12.2414   -3.8667 H   0  0  0  0  0  0  0  0  0  0  0  0
   14.5408  -11.2366   -2.5807 H   0  0  0  0  0  0  0  0  0  0  0  0
  1  2  1  0
  2  3  1  0
  3  4  1  0
  4  5  1  0
  5  6  1  0
  6  7  1  0
  7  8  2  0
  8  9  1  0
  9 10  1  0
 10 11  2  0
  6 12  1  0
 12  3  1  0
 11  7  1  0
  1 13  1  0
  1 14  1  0
  1 15  1  0
  2 16  1  0
  2 17  1  0
  3 18  1  6
  4 19  1  0
  4 20  1  0
  5 21  1  0
  5 22  1  0
  6 23  1  1
  8 24  1  0
 10 25  1  0
M  CHG  2   1   1   9  -1
M  END
>  <meeko>  (8) 
{"is_sidechain": [false], "free_energy": -4.739, "intermolecular_energy": -4.987, "internal_energy": -0.304}

$$$$
LIB_KWWHIDCVULQSFZ__M_PUB_ALL__e8__s20260927
     RDKit          3D

 25 26  0  0  0  0  0  0  0  0999 V2000
    8.5360  -11.8820   -1.7610 N   0  0  0  0  0  0  0  0  0  0  0  0
    8.5330  -12.2980   -0.3060 C   0  0  0  0  0  0  0  0  0  0  0  0
    9.9880  -12.2360    0.0510 C   0  0  1  0  0  0  0  0  0  0  0  0
   10.7240  -11.9420    1.3160 C   0  0  0  0  0  0  0  0  0  0  0  0
   12.1480  -12.3220    0.8120 C   0  0  0  0  0  0  0  0  0  0  0  0
   11.9100  -13.3240   -0.3480 C   0  0  2  0  0  0  0  0  0  0  0  0
   12.1060  -12.8010   -1.7590 C   0  0  0  0  0  0  0  0  0  0  0  0
   12.9800  -11.8420   -2.2250 C   0  0  0  0  0  0  0  0  0  0  0  0
   12.7640  -11.6920   -3.5450 N   0  0  0  0  0  0  0  0  0  0  0  0
   11.8220  -12.5680   -3.9230 C   0  0  0  0  0  0  0  0  0  0  0  0
   11.3560  -13.2450   -2.8440 N   0  0  0  0  0  0  0  0  0  0  0  0
   10.4970  -13.5700   -0.2160 O   0  0  0  0  0  0  0  0  0  0  0  0
    8.0070  -11.0040   -1.8590 H   0  0  0  0  0  0  0  0  0  0  0  0
    9.4110  -11.8620   -2.2760 H   0  0  0  0  0  0  0  0  0  0  0  0
    7.8340  -12.4800   -2.3140 H   0  0  0  0  0  0  0  0  0  0  0  0
    7.9432  -11.5998    0.3061 H   0  0  0  0  0  0  0  0  0  0  0  0
    8.0802  -13.2854   -0.1327 H   0  0  0  0  0  0  0  0  0  0  0  0
   10.1462  -11.2853   -0.4793 H   0  0  0  0  0  0  0  0  0  0  0  0
   10.6509  -10.8838    1.6073 H   0  0  0  0  0  0  0  0  0  0  0  0
   10.3705  -12.4613    2.2190 H   0  0  0  0  0  0  0  0  0  0  0  0
   12.6804  -11.4303    0.4494 H   0  0  0  0  0  0  0  0  0  0  0  0
   12.7670  -12.7553    1.6115 H   0  0  0  0  0  0  0  0  0  0  0  0
   12.6209  -14.1584   -0.2560 H   0  0  0  0  0  0  0  0  0  0  0  0
   13.7224  -11.2961   -1.6244 H   0  0  0  0  0  0  0  0  0  0  0  0
   11.4774  -12.7160   -4.9571 H   0  0  0  0  0  0  0  0  0  0  0  0
  1  2  1  0
  2  3  1  0
  3  4  1  0
  4  5  1  0
  5  6  1  0
  6  7  1  0
  7  8  2  0
  8  9  1  0
  9 10  1  0
 10 11  2  0
  6 12  1  0
 12  3  1  0
 11  7  1  0
  1 13  1  0
  1 14  1  0
  1 15  1  0
  2 16  1  0
  2 17  1  0
  3 18  1  6
  4 19  1  0
  4 20  1  0
  5 21  1  0
  5 22  1  0
  6 23  1  1
  8 24  1  0
 10 25  1  0
M  CHG  2   1   1   9  -1
M  END
>  <meeko>  (9) 
{"is_sidechain": [false], "free_energy": -4.669, "intermolecular_energy": -4.839, "internal_energy": -0.371}

$$$$
