LIB_QUVFHVHLCFFINS__M_PUB_ALL__e8__s20260927
     RDKit          3D

 26 27  0  0  0  0  0  0  0  0999 V2000
   10.9610  -12.7570   14.0820 N   0  0  0  0  0  0  0  0  0  0  0  0
   12.0280  -12.6280   13.2100 C   0  0  0  0  0  0  0  0  0  0  0  0
   12.4630  -13.7180   12.4560 C   0  0  0  0  0  0  0  0  0  0  0  0
   13.5180  -13.5800   11.5520 C   0  0  0  0  0  0  0  0  0  0  0  0
   14.1390  -12.3410   11.3880 C   0  0  0  0  0  0  0  0  0  0  0  0
   13.7160  -11.2220   12.1210 C   0  0  0  0  0  0  0  0  0  0  0  0
   14.3660   -9.9120   11.9480 C   0  0  0  0  0  0  0  0  0  0  0  0
   13.6890   -8.8430   11.3410 C   0  0  0  0  0  0  0  0  0  0  0  0
   14.3070   -7.5970   11.1780 C   0  0  0  0  0  0  0  0  0  0  0  0
   15.6210   -7.3790   11.6150 C   0  0  0  0  0  0  0  0  0  0  0  0
   16.2900   -6.0290   11.4370 C   0  0  0  0  0  0  0  0  0  0  0  0
   15.5650   -4.9970   11.6000 O   0  0  0  0  0  0  0  0  0  0  0  0
   17.5260   -6.0290   11.1400 O   0  0  0  0  0  0  0  0  0  0  0  0
   16.2990   -8.4460   12.2210 C   0  0  0  0  0  0  0  0  0  0  0  0
   15.6810   -9.6920   12.3850 C   0  0  0  0  0  0  0  0  0  0  0  0
   12.6500  -11.3890   13.0240 C   0  0  0  0  0  0  0  0  0  0  0  0
   10.0600  -12.3720   13.8310 H   0  0  0  0  0  0  0  0  0  0  0  0
   11.1070  -13.0750   15.0280 H   0  0  0  0  0  0  0  0  0  0  0  0
   11.9707  -14.6945   12.5747 H   0  0  0  0  0  0  0  0  0  0  0  0
   13.8598  -14.4479   10.9690 H   0  0  0  0  0  0  0  0  0  0  0  0
   14.9706  -12.2405   10.6750 H   0  0  0  0  0  0  0  0  0  0  0  0
   12.6571   -8.9860   10.9879 H   0  0  0  0  0  0  0  0  0  0  0  0
   13.7526   -6.7763   10.6995 H   0  0  0  0  0  0  0  0  0  0  0  0
   17.3313   -8.3025   12.5728 H   0  0  0  0  0  0  0  0  0  0  0  0
   16.2358  -10.5119   12.8645 H   0  0  0  0  0  0  0  0  0  0  0  0
   12.2959  -10.5211   13.5997 H   0  0  0  0  0  0  0  0  0  0  0  0
  1  2  1  0
  2  3  2  0
  3  4  1  0
  4  5  2  0
  5  6  1  0
  6  7  1  0
  7  8  2  0
  8  9  1  0
  9 10  2  0
 10 11  1  0
 11 12  2  0
 11 13  1  0
 10 14  1  0
 14 15  2  0
  6 16  2  0
 16  2  1  0
 15  7  1  0
  1 17  1  0
  1 18  1  0
  3 19  1  0
  4 20  1  0
  5 21  1  0
  8 22  1  0
  9 23  1  0
 14 24  1  0
 15 25  1  0
 16 26  1  0
M  CHG  1  13  -1
M  END
>  <meeko>  (1) 
{"is_sidechain": [false], "free_energy": -6.677, "intermolecular_energy": -7.653, "internal_energy": -0.329}

$$$$
LIB_QUVFHVHLCFFINS__M_PUB_ALL__e8__s20260927
     RDKit          3D

 26 27  0  0  0  0  0  0  0  0999 V2000
   14.9830   -6.4690   11.2500 N   0  0  0  0  0  0  0  0  0  0  0  0
   15.4190   -7.7100   11.6780 C   0  0  0  0  0  0  0  0  0  0  0  0
   16.7240   -7.8840   12.1390 C   0  0  0  0  0  0  0  0  0  0  0  0
   17.1540   -9.1290   12.6020 C   0  0  0  0  0  0  0  0  0  0  0  0
   16.2720  -10.2100   12.6180 C   0  0  0  0  0  0  0  0  0  0  0  0
   14.9490  -10.0650   12.1750 C   0  0  0  0  0  0  0  0  0  0  0  0
   14.0140  -11.2030   12.1930 C   0  0  0  0  0  0  0  0  0  0  0  0
   12.8070  -11.1350   12.9070 C   0  0  0  0  0  0  0  0  0  0  0  0
   11.9180  -12.2160   12.9240 C   0  0  0  0  0  0  0  0  0  0  0  0
   12.2050  -13.4000   12.2300 C   0  0  0  0  0  0  0  0  0  0  0  0
   11.2410  -14.5710   12.2490 C   0  0  0  0  0  0  0  0  0  0  0  0
   11.6600  -15.6590   12.7580 O   0  0  0  0  0  0  0  0  0  0  0  0
   10.0850  -14.3790   11.7550 O   0  0  0  0  0  0  0  0  0  0  0  0
   13.4100  -13.4690   11.5170 C   0  0  0  0  0  0  0  0  0  0  0  0
   14.3000  -12.3880   11.4990 C   0  0  0  0  0  0  0  0  0  0  0  0
   14.5420   -8.8000   11.7140 C   0  0  0  0  0  0  0  0  0  0  0  0
   15.2050   -6.1560   10.3150 H   0  0  0  0  0  0  0  0  0  0  0  0
   14.5980   -5.8060   11.9070 H   0  0  0  0  0  0  0  0  0  0  0  0
   17.4206   -7.0327   12.1377 H   0  0  0  0  0  0  0  0  0  0  0  0
   18.1881   -9.2577   12.9542 H   0  0  0  0  0  0  0  0  0  0  0  0
   16.6185  -11.1883   12.9826 H   0  0  0  0  0  0  0  0  0  0  0  0
   12.5563  -10.2185   13.4613 H   0  0  0  0  0  0  0  0  0  0  0  0
   10.9789  -12.1353   13.4911 H   0  0  0  0  0  0  0  0  0  0  0  0
   13.6602  -14.3860   10.9634 H   0  0  0  0  0  0  0  0  0  0  0  0
   15.2387  -12.4694   10.9314 H   0  0  0  0  0  0  0  0  0  0  0  0
   13.5054   -8.6636   11.3722 H   0  0  0  0  0  0  0  0  0  0  0  0
  1  2  1  0
  2  3  2  0
  3  4  1  0
  4  5  2  0
  5  6  1  0
  6  7  1  0
  7  8  2  0
  8  9  1  0
  9 10  2  0
 10 11  1  0
 11 12  2  0
 11 13  1  0
 10 14  1  0
 14 15  2  0
  6 16  2  0
 16  2  1  0
 15  7  1  0
  1 17  1  0
  1 18  1  0
  3 19  1  0
  4 20  1  0
  5 21  1  0
  8 22  1  0
  9 23  1  0
 14 24  1  0
 15 25  1  0
 16 26  1  0
M  CHG  1  13  -1
M  END
>  <meeko>  (2) 
{"is_sidechain": [false], "free_energy": -6.66, "intermolecular_energy": -7.633, "internal_energy": -0.33}

$$$$
LIB_QUVFHVHLCFFINS__M_PUB_ALL__e8__s20260927
     RDKit          3D

 26 27  0  0  0  0  0  0  0  0999 V2000
   17.8200   -8.5680   12.9450 N   0  0  0  0  0  0  0  0  0  0  0  0
   16.5220   -8.6470   12.4730 C   0  0  0  0  0  0  0  0  0  0  0  0
   15.9140   -7.5420   11.8780 C   0  0  0  0  0  0  0  0  0  0  0  0
   14.6170   -7.6310   11.3710 C   0  0  0  0  0  0  0  0  0  0  0  0
   13.9190   -8.8370   11.4480 C   0  0  0  0  0  0  0  0  0  0  0  0
   14.5070   -9.9720   12.0270 C   0  0  0  0  0  0  0  0  0  0  0  0
   13.7760  -11.2480   12.1060 C   0  0  0  0  0  0  0  0  0  0  0  0
   14.2230  -12.3820   11.4090 C   0  0  0  0  0  0  0  0  0  0  0  0
   13.5290  -13.5950   11.4840 C   0  0  0  0  0  0  0  0  0  0  0  0
   12.3650  -13.7160   12.2580 C   0  0  0  0  0  0  0  0  0  0  0  0
   11.6140  -15.0310   12.3390 C   0  0  0  0  0  0  0  0  0  0  0  0
   10.4550  -15.0050   12.8640 O   0  0  0  0  0  0  0  0  0  0  0  0
   12.1970  -16.0620   11.8760 O   0  0  0  0  0  0  0  0  0  0  0  0
   11.9180  -12.5840   12.9540 C   0  0  0  0  0  0  0  0  0  0  0  0
   12.6120  -11.3700   12.8800 C   0  0  0  0  0  0  0  0  0  0  0  0
   15.8160   -9.8540   12.5290 C   0  0  0  0  0  0  0  0  0  0  0  0
   18.5900   -8.5600   12.2910 H   0  0  0  0  0  0  0  0  0  0  0  0
   18.0160   -8.6880   13.9280 H   0  0  0  0  0  0  0  0  0  0  0  0
   16.4622   -6.5909   11.8076 H   0  0  0  0  0  0  0  0  0  0  0  0
   14.1448   -6.7506   10.9107 H   0  0  0  0  0  0  0  0  0  0  0  0
   12.8954   -8.8986   11.0500 H   0  0  0  0  0  0  0  0  0  0  0  0
   15.1329  -12.3159   10.7944 H   0  0  0  0  0  0  0  0  0  0  0  0
   13.9020  -14.4673   10.9273 H   0  0  0  0  0  0  0  0  0  0  0  0
   11.0077  -12.6505   13.5679 H   0  0  0  0  0  0  0  0  0  0  0  0
   12.2388  -10.4982   13.4374 H   0  0  0  0  0  0  0  0  0  0  0  0
   16.2979  -10.7350   12.9780 H   0  0  0  0  0  0  0  0  0  0  0  0
  1  2  1  0
  2  3  2  0
  3  4  1  0
  4  5  2  0
  5  6  1  0
  6  7  1  0
  7  8  2  0
  8  9  1  0
  9 10  2  0
 10 11  1  0
 11 12  2  0
 11 13  1  0
 10 14  1  0
 14 15  2  0
  6 16  2  0
 16  2  1  0
 15  7  1  0
  1 17  1  0
  1 18  1  0
  3 19  1  0
  4 20  1  0
  5 21  1  0
  8 22  1  0
  9 23  1  0
 14 24  1  0
 15 25  1  0
 16 26  1  0
M  CHG  1  13  -1
M  END
>  <meeko>  (3) 
{"is_sidechain": [false], "free_energy": -6.469, "intermolecular_energy": -7.408, "internal_energy": -0.335}

$$$$
LIB_QUVFHVHLCFFINS__M_PUB_ALL__e8__s20260927
     RDKit          3D

 26 27  0  0  0  0  0  0  0  0999 V2000
   -6.6190  -13.6240    8.8170 N   0  0  0  0  0  0  0  0  0  0  0  0
   -7.0210  -14.3200    7.6910 C   0  0  0  0  0  0  0  0  0  0  0  0
   -6.4230  -14.0750    6.4540 C   0  0  0  0  0  0  0  0  0  0  0  0
   -6.8050  -14.8000    5.3240 C   0  0  0  0  0  0  0  0  0  0  0  0
   -7.7850  -15.7880    5.4280 C   0  0  0  0  0  0  0  0  0  0  0  0
   -8.3960  -16.0690    6.6590 C   0  0  0  0  0  0  0  0  0  0  0  0
   -9.4280  -17.1130    6.7730 C   0  0  0  0  0  0  0  0  0  0  0  0
   -9.2830  -18.3480    6.1230 C   0  0  0  0  0  0  0  0  0  0  0  0
  -10.2640  -19.3410    6.2320 C   0  0  0  0  0  0  0  0  0  0  0  0
  -11.4230  -19.1320    6.9940 C   0  0  0  0  0  0  0  0  0  0  0  0
  -12.4850  -20.2080    7.1120 C   0  0  0  0  0  0  0  0  0  0  0  0
  -13.4430  -20.1710    6.2760 O   0  0  0  0  0  0  0  0  0  0  0  0
  -12.3390  -21.0680    8.0370 O   0  0  0  0  0  0  0  0  0  0  0  0
  -11.5690  -17.8980    7.6440 C   0  0  0  0  0  0  0  0  0  0  0  0
  -10.5880  -16.9050    7.5350 C   0  0  0  0  0  0  0  0  0  0  0  0
   -7.9920  -15.3240    7.7820 C   0  0  0  0  0  0  0  0  0  0  0  0
   -7.2590  -13.5120    9.5910 H   0  0  0  0  0  0  0  0  0  0  0  0
   -5.7650  -13.0860    8.8100 H   0  0  0  0  0  0  0  0  0  0  0  0
   -5.6435  -13.3035    6.3687 H   0  0  0  0  0  0  0  0  0  0  0  0
   -6.3337  -14.5926    4.3519 H   0  0  0  0  0  0  0  0  0  0  0  0
   -8.0823  -16.3539    4.5328 H   0  0  0  0  0  0  0  0  0  0  0  0
   -8.3843  -18.5391    5.5182 H   0  0  0  0  0  0  0  0  0  0  0  0
  -10.1236  -20.3001    5.7119 H   0  0  0  0  0  0  0  0  0  0  0  0
  -12.4679  -17.7073    8.2487 H   0  0  0  0  0  0  0  0  0  0  0  0
  -10.7288  -15.9461    8.0552 H   0  0  0  0  0  0  0  0  0  0  0  0
   -8.4519  -15.5364    8.7584 H   0  0  0  0  0  0  0  0  0  0  0  0
  1  2  1  0
  2  3  2  0
  3  4  1  0
  4  5  2  0
  5  6  1  0
  6  7  1  0
  7  8  2  0
  8  9  1  0
  9 10  2  0
 10 11  1  0
 11 12  2  0
 11 13  1  0
 10 14  1  0
 14 15  2  0
  6 16  2  0
 16  2  1  0
 15  7  1  0
  1 17  1  0
  1 18  1  0
  3 19  1  0
  4 20  1  0
  5 21  1  0
  8 22  1  0
  9 23  1  0
 14 24  1  0
 15 25  1  0
 16 26  1  0
M  CHG  1  13  -1
M  END
>  <meeko>  (4) 
{"is_sidechain": [false], "free_energy": -6.11, "intermolecular_energy": -6.995, "internal_energy": -0.337}

$$$$
LIB_QUVFHVHLCFFINS__M_PUB_ALL__e8__s20260927
     RDKit          3D

 26 27  0  0  0  0  0  0  0  0999 V2000
   12.7630  -14.4780   11.4210 N   0  0  0  0  0  0  0  0  0  0  0  0
   12.5890  -13.2670   12.0670 C   0  0  0  0  0  0  0  0  0  0  0  0
   11.5640  -13.1010   12.9990 C   0  0  0  0  0  0  0  0  0  0  0  0
   11.4080  -11.8900   13.6760 C   0  0  0  0  0  0  0  0  0  0  0  0
   12.2880  -10.8350   13.4300 C   0  0  0  0  0  0  0  0  0  0  0  0
   13.3380  -10.9740   12.5100 C   0  0  0  0  0  0  0  0  0  0  0  0
   14.2710   -9.8650   12.2510 C   0  0  0  0  0  0  0  0  0  0  0  0
   13.8370   -8.6840   11.6290 C   0  0  0  0  0  0  0  0  0  0  0  0
   14.7250   -7.6300   11.3830 C   0  0  0  0  0  0  0  0  0  0  0  0
   16.0750   -7.7210   11.7490 C   0  0  0  0  0  0  0  0  0  0  0  0
   17.0360   -6.5780   11.4820 C   0  0  0  0  0  0  0  0  0  0  0  0
   17.1840   -6.2150   10.2720 O   0  0  0  0  0  0  0  0  0  0  0  0
   17.6220   -6.0660   12.4880 O   0  0  0  0  0  0  0  0  0  0  0  0
   16.5100   -8.9000   12.3710 C   0  0  0  0  0  0  0  0  0  0  0  0
   15.6230   -9.9550   12.6170 C   0  0  0  0  0  0  0  0  0  0  0  0
   13.4730  -12.2060   11.8430 C   0  0  0  0  0  0  0  0  0  0  0  0
   13.0250  -14.4910   10.4450 H   0  0  0  0  0  0  0  0  0  0  0  0
   12.4710  -15.3390   11.8590 H   0  0  0  0  0  0  0  0  0  0  0  0
   10.8724  -13.9319   13.2022 H   0  0  0  0  0  0  0  0  0  0  0  0
   10.5917  -11.7674   14.4031 H   0  0  0  0  0  0  0  0  0  0  0  0
   12.1566   -9.8825   13.9642 H   0  0  0  0  0  0  0  0  0  0  0  0
   12.7830   -8.5851   11.3302 H   0  0  0  0  0  0  0  0  0  0  0  0
   14.3573   -6.7156   10.8945 H   0  0  0  0  0  0  0  0  0  0  0  0
   17.5640   -8.9975   12.6702 H   0  0  0  0  0  0  0  0  0  0  0  0
   15.9917  -10.8693   13.1050 H   0  0  0  0  0  0  0  0  0  0  0  0
   14.2964  -12.3383   11.1257 H   0  0  0  0  0  0  0  0  0  0  0  0
  1  2  1  0
  2  3  2  0
  3  4  1  0
  4  5  2  0
  5  6  1  0
  6  7  1  0
  7  8  2  0
  8  9  1  0
  9 10  2  0
 10 11  1  0
 11 12  2  0
 11 13  1  0
 10 14  1  0
 14 15  2  0
  6 16  2  0
 16  2  1  0
 15  7  1  0
  1 17  1  0
  1 18  1  0
  3 19  1  0
  4 20  1  0
  5 21  1  0
  8 22  1  0
  9 23  1  0
 14 24  1  0
 15 25  1  0
 16 26  1  0
M  CHG  1  13  -1
M  END
>  <meeko>  (5) 
{"is_sidechain": [false], "free_energy": -6.079, "intermolecular_energy": -6.97, "internal_energy": -0.326}

$$$$
LIB_QUVFHVHLCFFINS__M_PUB_ALL__e8__s20260927
     RDKit          3D

 26 27  0  0  0  0  0  0  0  0999 V2000
   11.2800  -11.2370   14.6850 N   0  0  0  0  0  0  0  0  0  0  0  0
   12.2400  -11.4470   13.7120 C   0  0  0  0  0  0  0  0  0  0  0  0
   12.1470  -12.5380   12.8460 C   0  0  0  0  0  0  0  0  0  0  0  0
   13.0970  -12.7320   11.8430 C   0  0  0  0  0  0  0  0  0  0  0  0
   14.1470  -11.8250   11.6910 C   0  0  0  0  0  0  0  0  0  0  0  0
   14.2620  -10.7100   12.5350 C   0  0  0  0  0  0  0  0  0  0  0  0
   15.3650   -9.7480   12.3760 C   0  0  0  0  0  0  0  0  0  0  0  0
   15.1220   -8.4300   11.9610 C   0  0  0  0  0  0  0  0  0  0  0  0
   16.1710   -7.5150   11.8100 C   0  0  0  0  0  0  0  0  0  0  0  0
   17.4980   -7.8880   12.0690 C   0  0  0  0  0  0  0  0  0  0  0  0
   18.6340   -6.8960   11.9050 C   0  0  0  0  0  0  0  0  0  0  0  0
   18.6710   -6.2300   10.8220 O   0  0  0  0  0  0  0  0  0  0  0  0
   19.4650   -6.8030   12.8630 O   0  0  0  0  0  0  0  0  0  0  0  0
   17.7420   -9.2040   12.4830 C   0  0  0  0  0  0  0  0  0  0  0  0
   16.6940  -10.1200   12.6350 C   0  0  0  0  0  0  0  0  0  0  0  0
   13.2900  -10.5380   13.5380 C   0  0  0  0  0  0  0  0  0  0  0  0
   11.5610  -11.1200   15.6490 H   0  0  0  0  0  0  0  0  0  0  0  0
   10.3010  -11.3670   14.4760 H   0  0  0  0  0  0  0  0  0  0  0  0
   11.3169  -13.2514   12.9555 H   0  0  0  0  0  0  0  0  0  0  0  0
   13.0186  -13.5999   11.1718 H   0  0  0  0  0  0  0  0  0  0  0  0
   14.8937  -11.9864   10.8996 H   0  0  0  0  0  0  0  0  0  0  0  0
   14.0907   -8.1103   11.7509 H   0  0  0  0  0  0  0  0  0  0  0  0
   15.9510   -6.4879   11.4833 H   0  0  0  0  0  0  0  0  0  0  0  0
   18.7738   -9.5229   12.6921 H   0  0  0  0  0  0  0  0  0  0  0  0
   16.9151  -11.1466   12.9623 H   0  0  0  0  0  0  0  0  0  0  0  0
   13.3573   -9.6649   14.2037 H   0  0  0  0  0  0  0  0  0  0  0  0
  1  2  1  0
  2  3  2  0
  3  4  1  0
  4  5  2  0
  5  6  1  0
  6  7  1  0
  7  8  2  0
  8  9  1  0
  9 10  2  0
 10 11  1  0
 11 12  2  0
 11 13  1  0
 10 14  1  0
 14 15  2  0
  6 16  2  0
 16  2  1  0
 15  7  1  0
  1 17  1  0
  1 18  1  0
  3 19  1  0
  4 20  1  0
  5 21  1  0
  8 22  1  0
  9 23  1  0
 14 24  1  0
 15 25  1  0
 16 26  1  0
M  CHG  1  13  -1
M  END
>  <meeko>  (6) 
{"is_sidechain": [false], "free_energy": -6.04, "intermolecular_energy": -6.924, "internal_energy": -0.328}

$$$$
LIB_QUVFHVHLCFFINS__M_PUB_ALL__e8__s20260927
     RDKit          3D

 26 27  0  0  0  0  0  0  0  0999 V2000
    3.4690  -14.5340   -4.3560 N   0  0  0  0  0  0  0  0  0  0  0  0
    3.2700  -13.2000   -4.0490 C   0  0  0  0  0  0  0  0  0  0  0  0
    3.7720  -12.1970   -4.8790 C   0  0  0  0  0  0  0  0  0  0  0  0
    3.5430  -10.8520   -4.5870 C   0  0  0  0  0  0  0  0  0  0  0  0
    2.7960  -10.4990   -3.4630 C   0  0  0  0  0  0  0  0  0  0  0  0
    2.2640  -11.4820   -2.6150 C   0  0  0  0  0  0  0  0  0  0  0  0
    1.4720  -11.1150   -1.4300 C   0  0  0  0  0  0  0  0  0  0  0  0
    0.7490   -9.9120   -1.3870 C   0  0  0  0  0  0  0  0  0  0  0  0
   -0.0050   -9.5630   -0.2600 C   0  0  0  0  0  0  0  0  0  0  0  0
   -0.0610  -10.4030    0.8610 C   0  0  0  0  0  0  0  0  0  0  0  0
   -0.8780  -10.0240    2.0820 C   0  0  0  0  0  0  0  0  0  0  0  0
   -1.0900  -10.9350    2.9440 O   0  0  0  0  0  0  0  0  0  0  0  0
   -1.2900   -8.8230    2.1540 O   0  0  0  0  0  0  0  0  0  0  0  0
    0.6600  -11.6040    0.8200 C   0  0  0  0  0  0  0  0  0  0  0  0
    1.4140  -11.9550   -0.3070 C   0  0  0  0  0  0  0  0  0  0  0  0
    2.5090  -12.8310   -2.9330 C   0  0  0  0  0  0  0  0  0  0  0  0
    4.2980  -14.8120   -4.8630 H   0  0  0  0  0  0  0  0  0  0  0  0
    2.7250  -15.2050   -4.2330 H   0  0  0  0  0  0  0  0  0  0  0  0
    4.3538  -12.4692   -5.7720 H   0  0  0  0  0  0  0  0  0  0  0  0
    3.9517  -10.0696   -5.2434 H   0  0  0  0  0  0  0  0  0  0  0  0
    2.6218   -9.4363   -3.2387 H   0  0  0  0  0  0  0  0  0  0  0  0
    0.7754   -9.2332   -2.2522 H   0  0  0  0  0  0  0  0  0  0  0  0
   -0.5623   -8.6146   -0.2541 H   0  0  0  0  0  0  0  0  0  0  0  0
    0.6334  -12.2815    1.6862 H   0  0  0  0  0  0  0  0  0  0  0  0
    1.9697  -12.9043   -0.3121 H   0  0  0  0  0  0  0  0  0  0  0  0
    2.0911  -13.6172   -2.2870 H   0  0  0  0  0  0  0  0  0  0  0  0
  1  2  1  0
  2  3  2  0
  3  4  1  0
  4  5  2  0
  5  6  1  0
  6  7  1  0
  7  8  2  0
  8  9  1  0
  9 10  2  0
 10 11  1  0
 11 12  2  0
 11 13  1  0
 10 14  1  0
 14 15  2  0
  6 16  2  0
 16  2  1  0
 15  7  1  0
  1 17  1  0
  1 18  1  0
  3 19  1  0
  4 20  1  0
  5 21  1  0
  8 22  1  0
  9 23  1  0
 14 24  1  0
 15 25  1  0
 16 26  1  0
M  CHG  1  13  -1
M  END
>  <meeko>  (7) 
{"is_sidechain": [false], "free_energy": -6.04, "intermolecular_energy": -6.896, "internal_energy": -0.356}

$$$$
LIB_QUVFHVHLCFFINS__M_PUB_ALL__e8__s20260927
     RDKit          3D

 26 27  0  0  0  0  0  0  0  0999 V2000
   -1.4210   -9.6370    1.3390 N   0  0  0  0  0  0  0  0  0  0  0  0
   -2.4870  -10.4590    1.0190 C   0  0  0  0  0  0  0  0  0  0  0  0
   -3.1020  -10.3700   -0.2300 C   0  0  0  0  0  0  0  0  0  0  0  0
   -4.1560  -11.2210   -0.5650 C   0  0  0  0  0  0  0  0  0  0  0  0
   -4.5970  -12.1790    0.3490 C   0  0  0  0  0  0  0  0  0  0  0  0
   -3.9900  -12.3050    1.6070 C   0  0  0  0  0  0  0  0  0  0  0  0
   -4.4490  -13.3170    2.5730 C   0  0  0  0  0  0  0  0  0  0  0  0
   -5.6770  -13.1770    3.2400 C   0  0  0  0  0  0  0  0  0  0  0  0
   -6.1130  -14.1400    4.1580 C   0  0  0  0  0  0  0  0  0  0  0  0
   -5.3380  -15.2740    4.4400 C   0  0  0  0  0  0  0  0  0  0  0  0
   -5.8110  -16.3170    5.4350 C   0  0  0  0  0  0  0  0  0  0  0  0
   -7.0280  -16.2590    5.8000 O   0  0  0  0  0  0  0  0  0  0  0  0
   -4.9560  -17.1720    5.8290 O   0  0  0  0  0  0  0  0  0  0  0  0
   -4.1120  -15.4150    3.7750 C   0  0  0  0  0  0  0  0  0  0  0  0
   -3.6740  -14.4530    2.8560 C   0  0  0  0  0  0  0  0  0  0  0  0
   -2.9290  -11.4350    1.9190 C   0  0  0  0  0  0  0  0  0  0  0  0
   -1.4270   -9.1250    2.2100 H   0  0  0  0  0  0  0  0  0  0  0  0
   -0.7230   -9.4100    0.6460 H   0  0  0  0  0  0  0  0  0  0  0  0
   -2.7529   -9.6223   -0.9573 H   0  0  0  0  0  0  0  0  0  0  0  0
   -4.6393  -11.1367   -1.5496 H   0  0  0  0  0  0  0  0  0  0  0  0
   -5.4311  -12.8435    0.0794 H   0  0  0  0  0  0  0  0  0  0  0  0
   -6.3058  -12.2973    3.0381 H   0  0  0  0  0  0  0  0  0  0  0  0
   -7.0791  -14.0048    4.6662 H   0  0  0  0  0  0  0  0  0  0  0  0
   -3.4841  -16.2950    3.9781 H   0  0  0  0  0  0  0  0  0  0  0  0
   -2.7079  -14.5896    2.3481 H   0  0  0  0  0  0  0  0  0  0  0  0
   -2.4336  -11.5246    2.8970 H   0  0  0  0  0  0  0  0  0  0  0  0
  1  2  1  0
  2  3  2  0
  3  4  1  0
  4  5  2  0
  5  6  1  0
  6  7  1  0
  7  8  2  0
  8  9  1  0
  9 10  2  0
 10 11  1  0
 11 12  2  0
 11 13  1  0
 10 14  1  0
 14 15  2  0
  6 16  2  0
 16  2  1  0
 15  7  1  0
  1 17  1  0
  1 18  1  0
  3 19  1  0
  4 20  1  0
  5 21  1  0
  8 22  1  0
  9 23  1  0
 14 24  1  0
 15 25  1  0
 16 26  1  0
M  CHG  1  13  -1
M  END
>  <meeko>  (8) 
{"is_sidechain": [false], "free_energy": -6.024, "intermolecular_energy": -6.902, "internal_energy": -0.332}

$$$$
LIB_QUVFHVHLCFFINS__M_PUB_ALL__e8__s20260927
     RDKit          3D

 26 27  0  0  0  0  0  0  0  0999 V2000
    9.8660  -12.2630    1.5130 N   0  0  0  0  0  0  0  0  0  0  0  0
   10.9090  -11.8580    0.6990 C   0  0  0  0  0  0  0  0  0  0  0  0
   11.6200  -10.6920    0.9840 C   0  0  0  0  0  0  0  0  0  0  0  0
   12.6940  -10.3020    0.1820 C   0  0  0  0  0  0  0  0  0  0  0  0
   13.0720  -11.0860   -0.9090 C   0  0  0  0  0  0  0  0  0  0  0  0
   12.3870  -12.2710   -1.2140 C   0  0  0  0  0  0  0  0  0  0  0  0
   12.7840  -13.1030   -2.3620 C   0  0  0  0  0  0  0  0  0  0  0  0
   12.4440  -14.4640   -2.4210 C   0  0  0  0  0  0  0  0  0  0  0  0
   12.8220  -15.2560   -3.5130 C   0  0  0  0  0  0  0  0  0  0  0  0
   13.5520  -14.7140   -4.5800 C   0  0  0  0  0  0  0  0  0  0  0  0
   13.9610  -15.5720   -5.7620 C   0  0  0  0  0  0  0  0  0  0  0  0
   13.2200  -16.5680   -6.0390 O   0  0  0  0  0  0  0  0  0  0  0  0
   15.0140  -15.2320   -6.3890 O   0  0  0  0  0  0  0  0  0  0  0  0
   13.8930  -13.3550   -4.5220 C   0  0  0  0  0  0  0  0  0  0  0  0
   13.5150  -12.5630   -3.4310 C   0  0  0  0  0  0  0  0  0  0  0  0
   11.3090  -12.6420   -0.3890 C   0  0  0  0  0  0  0  0  0  0  0  0
    9.1290  -12.8400    1.1320 H   0  0  0  0  0  0  0  0  0  0  0  0
    9.7410  -11.8550    2.4270 H   0  0  0  0  0  0  0  0  0  0  0  0
   11.3319  -10.0749    1.8478 H   0  0  0  0  0  0  0  0  0  0  0  0
   13.2427   -9.3763    0.4101 H   0  0  0  0  0  0  0  0  0  0  0  0
   13.9178  -10.7704   -1.5375 H   0  0  0  0  0  0  0  0  0  0  0  0
   11.8719  -14.9154   -1.5970 H   0  0  0  0  0  0  0  0  0  0  0  0
   12.5417  -16.3195   -3.5335 H   0  0  0  0  0  0  0  0  0  0  0  0
   14.4660  -12.9045   -5.3459 H   0  0  0  0  0  0  0  0  0  0  0  0
   13.7958  -11.4996   -3.4116 H   0  0  0  0  0  0  0  0  0  0  0  0
   10.7659  -13.5738   -0.6053 H   0  0  0  0  0  0  0  0  0  0  0  0
  1  2  1  0
  2  3  2  0
  3  4  1  0
  4  5  2  0
  5  6  1  0
  6  7  1  0
  7  8  2  0
  8  9  1  0
  9 10  2  0
 10 11  1  0
 11 12  2  0
 11 13  1  0
 10 14  1  0
 14 15  2  0
  6 16  2  0
 16  2  1  0
 15  7  1  0
  1 17  1  0
  1 18  1  0
  3 19  1  0
  4 20  1  0
  5 21  1  0
  8 22  1  0
  9 23  1  0
 14 24  1  0
 15 25  1  0
 16 26  1  0
M  CHG  1  13  -1
M  END
>  <meeko>  (9) 
{"is_sidechain": [false], "free_energy": -5.961, "intermolecular_energy": -6.805, "internal_energy": -0.356}

$$$$
