LIB_PEYZUNUITLDLNI__M_PUB_ALL__e8__s20260927
     RDKit          3D

 38 41  0  0  0  0  0  0  0  0999 V2000
   12.0430  -10.8190    0.6450 O   0  0  0  0  0  0  0  0  0  0  0  0
   12.0460  -12.0490    0.3390 C   0  0  0  0  0  0  0  0  0  0  0  0
   11.7340  -13.0250    1.0840 O   0  0  0  0  0  0  0  0  0  0  0  0
   12.4690  -12.3900   -1.0770 C   0  0  0  0  0  0  0  0  0  0  0  0
   13.2160  -11.4800   -1.8380 C   0  0  0  0  0  0  0  0  0  0  0  0
   13.6020  -11.7910   -3.1370 C   0  0  0  0  0  0  0  0  0  0  0  0
   13.2450  -13.0270   -3.6730 C   0  0  0  0  0  0  0  0  0  0  0  0
   12.5030  -13.9610   -2.9540 C   0  0  0  0  0  0  0  0  0  0  0  0
   12.1160  -13.6230   -1.6500 C   0  0  0  0  0  0  0  0  0  0  0  0
   12.1020  -15.2870   -3.5290 C   0  0  2  0  0  0  0  0  0  0  0  0
   12.7450  -16.4710   -2.8600 C   0  0  0  0  0  0  0  0  0  0  0  0
   13.0350  -17.4370   -3.7370 C   0  0  0  0  0  0  0  0  0  0  0  0
   12.6350  -17.0440   -5.1190 C   0  0  0  0  0  0  0  0  0  0  0  0
   12.5220  -15.5110   -5.0000 C   0  0  2  0  0  0  0  0  0  0  0  0
   13.8510  -14.7830   -5.3060 C   0  0  1  0  0  0  0  0  0  0  0  0
   14.2470  -14.9160   -6.7730 C   0  0  0  0  0  0  0  0  0  0  0  0
   15.5200  -15.3810   -6.9740 N   0  0  0  0  0  0  0  0  0  0  0  0
   15.9390  -15.5140   -8.2600 C   0  0  0  0  0  0  0  0  0  0  0  0
   15.1450  -15.2290   -9.3580 C   0  0  0  0  0  0  0  0  0  0  0  0
   15.7450  -15.4290  -10.9520 Cl  0  0  0  0  0  0  0  0  0  0  0  0
   13.8460  -14.7850   -9.1410 C   0  0  0  0  0  0  0  0  0  0  0  0
   13.3830  -14.6280   -7.8350 C   0  0  0  0  0  0  0  0  0  0  0  0
   11.7590  -14.1100   -7.6020 Cl  0  0  0  0  0  0  0  0  0  0  0  0
   13.6360  -13.3150   -5.0320 N   0  0  0  0  0  0  0  0  0  0  0  0
   13.4996  -10.5102   -1.4031 H   0  0  0  0  0  0  0  0  0  0  0  0
   14.1814  -11.0711   -3.7337 H   0  0  0  0  0  0  0  0  0  0  0  0
   11.5228  -14.3390   -1.0623 H   0  0  0  0  0  0  0  0  0  0  0  0
   11.0122  -15.2330   -3.3899 H   0  0  0  0  0  0  0  0  0  0  0  0
   12.9512  -16.5340   -1.7813 H   0  0  0  0  0  0  0  0  0  0  0  0
   13.5065  -18.3954   -3.4742 H   0  0  0  0  0  0  0  0  0  0  0  0
   13.4016  -17.3319   -5.8535 H   0  0  0  0  0  0  0  0  0  0  0  0
   11.7115  -17.5298   -5.4671 H   0  0  0  0  0  0  0  0  0  0  0  0
   11.8080  -15.1023   -5.7302 H   0  0  0  0  0  0  0  0  0  0  0  0
   14.6434  -15.2257   -4.6847 H   0  0  0  0  0  0  0  0  0  0  0  0
   16.9653  -15.8675   -8.4384 H   0  0  0  0  0  0  0  0  0  0  0  0
   13.1880  -14.5591   -9.9931 H   0  0  0  0  0  0  0  0  0  0  0  0
   12.9160  -12.9640   -5.6800 H   0  0  0  0  0  0  0  0  0  0  0  0
   14.4930  -12.8000   -5.2530 H   0  0  0  0  0  0  0  0  0  0  0  0
  1  2  2  0
  2  3  1  0
  2  4  1  0
  4  5  2  0
  5  6  1  0
  6  7  2  0
  7  8  1  0
  8  9  2  0
  8 10  1  0
 10 11  1  0
 11 12  2  0
 12 13  1  0
 13 14  1  0
 14 15  1  0
 15 16  1  0
 16 17  2  0
 17 18  1  0
 18 19  2  0
 19 20  1  0
 19 21  1  0
 21 22  2  0
 22 23  1  0
 15 24  1  0
  9  4  1  0
 14 10  1  0
 22 16  1  0
 24  7  1  0
  5 25  1  0
  6 26  1  0
  9 27  1  0
 10 28  1  6
 11 29  1  0
 12 30  1  0
 13 31  1  0
 13 32  1  0
 14 33  1  6
 15 34  1  1
 18 35  1  0
 21 36  1  0
 24 37  1  0
 24 38  1  0
M  CHG  2   3  -1  24   1
M  END
>  <meeko>  (1) 
{"is_sidechain": [false], "free_energy": -7.846, "intermolecular_energy": -8.763, "internal_energy": -0.211}

$$$$
LIB_PEYZUNUITLDLNI__M_PUB_ALL__e8__s20260927
     RDKit          3D

 38 41  0  0  0  0  0  0  0  0999 V2000
    6.6820  -13.7650   -9.8490 O   0  0  0  0  0  0  0  0  0  0  0  0
    6.5330  -12.8690   -8.9640 C   0  0  0  0  0  0  0  0  0  0  0  0
    6.7600  -11.6290   -9.0840 O   0  0  0  0  0  0  0  0  0  0  0  0
    6.0260  -13.3350   -7.6130 C   0  0  0  0  0  0  0  0  0  0  0  0
    6.6240  -14.4240   -6.9620 C   0  0  0  0  0  0  0  0  0  0  0  0
    6.1580  -14.8520   -5.7240 C   0  0  0  0  0  0  0  0  0  0  0  0
    5.0910  -14.1790   -5.1310 C   0  0  0  0  0  0  0  0  0  0  0  0
    4.4670  -13.0940   -5.7410 C   0  0  0  0  0  0  0  0  0  0  0  0
    4.9460  -12.6840   -6.9930 C   0  0  0  0  0  0  0  0  0  0  0  0
    3.3090  -12.3740   -5.1160 C   0  0  2  0  0  0  0  0  0  0  0  0
    3.6080  -10.9550   -4.7160 C   0  0  0  0  0  0  0  0  0  0  0  0
    2.9870  -10.6200   -3.5800 C   0  0  0  0  0  0  0  0  0  0  0  0
    2.1880  -11.7620   -3.0500 C   0  0  0  0  0  0  0  0  0  0  0  0
    2.8240  -12.9660   -3.7720 C   0  0  2  0  0  0  0  0  0  0  0  0
    4.0050  -13.5840   -2.9890 C   0  0  1  0  0  0  0  0  0  0  0  0
    3.5430  -14.2530   -1.6990 C   0  0  0  0  0  0  0  0  0  0  0  0
    2.9680  -15.4840   -1.8760 N   0  0  0  0  0  0  0  0  0  0  0  0
    2.5260  -16.1310   -0.7660 C   0  0  0  0  0  0  0  0  0  0  0  0
    2.6490  -15.6230    0.5170 C   0  0  0  0  0  0  0  0  0  0  0  0
    2.0700  -16.5050    1.8690 Cl  0  0  0  0  0  0  0  0  0  0  0  0
    3.2590  -14.3870    0.6860 C   0  0  0  0  0  0  0  0  0  0  0  0
    3.7180  -13.6890   -0.4310 C   0  0  0  0  0  0  0  0  0  0  0  0
    4.5020  -12.1770   -0.1820 Cl  0  0  0  0  0  0  0  0  0  0  0  0
    4.6100  -14.6600   -3.8580 N   0  0  0  0  0  0  0  0  0  0  0  0
    7.4697  -14.9443   -7.4354 H   0  0  0  0  0  0  0  0  0  0  0  0
    6.6252  -15.7104   -5.2191 H   0  0  0  0  0  0  0  0  0  0  0  0
    4.4662  -11.8345   -7.5010 H   0  0  0  0  0  0  0  0  0  0  0  0
    2.5690  -12.4647   -5.9248 H   0  0  0  0  0  0  0  0  0  0  0  0
    4.2578  -10.2762   -5.2878 H   0  0  0  0  0  0  0  0  0  0  0  0
    3.0564   -9.6327   -3.1001 H   0  0  0  0  0  0  0  0  0  0  0  0
    2.2933  -11.8501   -1.9586 H   0  0  0  0  0  0  0  0  0  0  0  0
    1.1064  -11.6631   -3.2243 H   0  0  0  0  0  0  0  0  0  0  0  0
    2.1059  -13.7914   -3.8864 H   0  0  0  0  0  0  0  0  0  0  0  0
    4.7152  -12.7826   -2.7372 H   0  0  0  0  0  0  0  0  0  0  0  0
    2.0442  -17.1117   -0.8930 H   0  0  0  0  0  0  0  0  0  0  0  0
    3.3793  -13.9616    1.6932 H   0  0  0  0  0  0  0  0  0  0  0  0
    3.9030  -15.3930   -4.0110 H   0  0  0  0  0  0  0  0  0  0  0  0
    5.3800  -15.1090   -3.3540 H   0  0  0  0  0  0  0  0  0  0  0  0
  1  2  2  0
  2  3  1  0
  2  4  1  0
  4  5  2  0
  5  6  1  0
  6  7  2  0
  7  8  1  0
  8  9  2  0
  8 10  1  0
 10 11  1  0
 11 12  2  0
 12 13  1  0
 13 14  1  0
 14 15  1  0
 15 16  1  0
 16 17  2  0
 17 18  1  0
 18 19  2  0
 19 20  1  0
 19 21  1  0
 21 22  2  0
 22 23  1  0
 15 24  1  0
  9  4  1  0
 14 10  1  0
 22 16  1  0
 24  7  1  0
  5 25  1  0
  6 26  1  0
  9 27  1  0
 10 28  1  6
 11 29  1  0
 12 30  1  0
 13 31  1  0
 13 32  1  0
 14 33  1  6
 15 34  1  1
 18 35  1  0
 21 36  1  0
 24 37  1  0
 24 38  1  0
M  CHG  2   3  -1  24   1
M  END
>  <meeko>  (2) 
{"is_sidechain": [false], "free_energy": -7.424, "intermolecular_energy": -7.861, "internal_energy": -0.642}

$$$$
LIB_PEYZUNUITLDLNI__M_PUB_ALL__e8__s20260927
     RDKit          3D

 38 41  0  0  0  0  0  0  0  0999 V2000
    9.2830  -12.5280   -1.4790 O   0  0  0  0  0  0  0  0  0  0  0  0
    8.9830  -12.5150   -0.2470 C   0  0  0  0  0  0  0  0  0  0  0  0
    9.7820  -12.5450    0.7360 O   0  0  0  0  0  0  0  0  0  0  0  0
    7.5050  -12.4550    0.0860 C   0  0  0  0  0  0  0  0  0  0  0  0
    7.0790  -12.2390    1.4040 C   0  0  0  0  0  0  0  0  0  0  0  0
    5.7230  -12.1870    1.7090 C   0  0  0  0  0  0  0  0  0  0  0  0
    4.7900  -12.3430    0.6860 C   0  0  0  0  0  0  0  0  0  0  0  0
    5.1690  -12.5600   -0.6360 C   0  0  0  0  0  0  0  0  0  0  0  0
    6.5400  -12.6190   -0.9220 C   0  0  0  0  0  0  0  0  0  0  0  0
    4.1700  -12.7440   -1.7410 C   0  0  2  0  0  0  0  0  0  0  0  0
    4.1690  -11.6390   -2.7620 C   0  0  0  0  0  0  0  0  0  0  0  0
    2.9340  -11.3750   -3.2020 C   0  0  0  0  0  0  0  0  0  0  0  0
    1.9290  -12.2560   -2.5400 C   0  0  0  0  0  0  0  0  0  0  0  0
    2.6910  -12.7340   -1.2890 C   0  0  2  0  0  0  0  0  0  0  0  0
    2.4980  -11.8010   -0.0710 C   0  0  1  0  0  0  0  0  0  0  0  0
    1.0650  -11.8370    0.4500 C   0  0  0  0  0  0  0  0  0  0  0  0
    0.8080  -12.8650    1.3190 N   0  0  0  0  0  0  0  0  0  0  0  0
   -0.4540  -12.9610    1.8150 C   0  0  0  0  0  0  0  0  0  0  0  0
   -1.4680  -12.0690    1.5070 C   0  0  0  0  0  0  0  0  0  0  0  0
   -3.0340  -12.2540    2.1800 Cl  0  0  0  0  0  0  0  0  0  0  0  0
   -1.1860  -11.0140    0.6470 C   0  0  0  0  0  0  0  0  0  0  0  0
    0.0960  -10.8880    0.1110 C   0  0  0  0  0  0  0  0  0  0  0  0
    0.4200   -9.5510   -0.9220 Cl  0  0  0  0  0  0  0  0  0  0  0  0
    3.3900  -12.3100    1.0340 N   0  0  0  0  0  0  0  0  0  0  0  0
    7.8233  -12.1096    2.2035 H   0  0  0  0  0  0  0  0  0  0  0  0
    5.3912  -12.0247    2.7451 H   0  0  0  0  0  0  0  0  0  0  0  0
    6.8671  -12.7974   -1.9570 H   0  0  0  0  0  0  0  0  0  0  0  0
    4.4984  -13.7170   -2.1352 H   0  0  0  0  0  0  0  0  0  0  0  0
    5.0725  -11.1132   -3.1043 H   0  0  0  0  0  0  0  0  0  0  0  0
    2.6914  -10.6090   -3.9532 H   0  0  0  0  0  0  0  0  0  0  0  0
    1.0244  -11.6935   -2.2656 H   0  0  0  0  0  0  0  0  0  0  0  0
    1.5706  -13.0761   -3.1795 H   0  0  0  0  0  0  0  0  0  0  0  0
    2.3269  -13.7141   -0.9470 H   0  0  0  0  0  0  0  0  0  0  0  0
    2.7365  -10.7716   -0.3767 H   0  0  0  0  0  0  0  0  0  0  0  0
   -0.6824  -13.7923    2.4982 H   0  0  0  0  0  0  0  0  0  0  0  0
   -1.9678  -10.2838    0.3909 H   0  0  0  0  0  0  0  0  0  0  0  0
    3.0770  -13.2560    1.2970 H   0  0  0  0  0  0  0  0  0  0  0  0
    3.2620  -11.7270    1.8670 H   0  0  0  0  0  0  0  0  0  0  0  0
  1  2  2  0
  2  3  1  0
  2  4  1  0
  4  5  2  0
  5  6  1  0
  6  7  2  0
  7  8  1  0
  8  9  2  0
  8 10  1  0
 10 11  1  0
 11 12  2  0
 12 13  1  0
 13 14  1  0
 14 15  1  0
 15 16  1  0
 16 17  2  0
 17 18  1  0
 18 19  2  0
 19 20  1  0
 19 21  1  0
 21 22  2  0
 22 23  1  0
 15 24  1  0
  9  4  1  0
 14 10  1  0
 22 16  1  0
 24  7  1  0
  5 25  1  0
  6 26  1  0
  9 27  1  0
 10 28  1  6
 11 29  1  0
 12 30  1  0
 13 31  1  0
 13 32  1  0
 14 33  1  1
 15 34  1  6
 18 35  1  0
 21 36  1  0
 24 37  1  0
 24 38  1  0
M  CHG  2   3  -1  24   1
M  END
>  <meeko>  (3) 
{"is_sidechain": [false], "free_energy": -7.33, "intermolecular_energy": -7.809, "internal_energy": -0.589}

$$$$
LIB_PEYZUNUITLDLNI__M_PUB_ALL__e8__s20260927
     RDKit          3D

 38 41  0  0  0  0  0  0  0  0999 V2000
   -1.2190  -10.9900    2.9120 O   0  0  0  0  0  0  0  0  0  0  0  0
   -0.9790  -10.0530    2.0930 C   0  0  0  0  0  0  0  0  0  0  0  0
   -1.3800   -8.8530    2.1630 O   0  0  0  0  0  0  0  0  0  0  0  0
   -0.1160  -10.4080    0.8970 C   0  0  0  0  0  0  0  0  0  0  0  0
   -0.0880   -9.5800   -0.2340 C   0  0  0  0  0  0  0  0  0  0  0  0
    0.7020   -9.9060   -1.3310 C   0  0  0  0  0  0  0  0  0  0  0  0
    1.4750  -11.0650   -1.2900 C   0  0  0  0  0  0  0  0  0  0  0  0
    1.4780  -11.9160   -0.1870 C   0  0  0  0  0  0  0  0  0  0  0  0
    0.6670  -11.5740    0.9040 C   0  0  0  0  0  0  0  0  0  0  0  0
    2.2960  -13.1720   -0.1410 C   0  0  2  0  0  0  0  0  0  0  0  0
    3.4020  -13.1520    0.8790 C   0  0  0  0  0  0  0  0  0  0  0  0
    4.4930  -13.7870    0.4380 C   0  0  0  0  0  0  0  0  0  0  0  0
    4.2830  -14.3200   -0.9390 C   0  0  0  0  0  0  0  0  0  0  0  0
    3.0880  -13.4800   -1.4330 C   0  0  2  0  0  0  0  0  0  0  0  0
    3.5200  -12.1710   -2.1340 C   0  0  1  0  0  0  0  0  0  0  0  0
    4.2290  -12.4430   -3.4570 C   0  0  0  0  0  0  0  0  0  0  0  0
    3.4240  -12.9770   -4.4290 N   0  0  0  0  0  0  0  0  0  0  0  0
    3.9960  -13.2520   -5.6310 C   0  0  0  0  0  0  0  0  0  0  0  0
    5.3270  -12.9990   -5.9210 C   0  0  0  0  0  0  0  0  0  0  0  0
    5.9740  -13.3690   -7.4660 Cl  0  0  0  0  0  0  0  0  0  0  0  0
    6.1260  -12.4320   -4.9360 C   0  0  0  0  0  0  0  0  0  0  0  0
    5.5760  -12.1440   -3.6870 C   0  0  0  0  0  0  0  0  0  0  0  0
    6.5840  -11.4090   -2.5020 Cl  0  0  0  0  0  0  0  0  0  0  0  0
    2.2670  -11.3940   -2.4510 N   0  0  0  0  0  0  0  0  0  0  0  0
   -0.6966   -8.6639   -0.2538 H   0  0  0  0  0  0  0  0  0  0  0  0
    0.7166   -9.2576   -2.2195 H   0  0  0  0  0  0  0  0  0  0  0  0
    0.6433  -12.2329    1.7845 H   0  0  0  0  0  0  0  0  0  0  0  0
    1.5051  -13.9065    0.0712 H   0  0  0  0  0  0  0  0  0  0  0  0
    3.3228  -12.6737    1.8664 H   0  0  0  0  0  0  0  0  0  0  0  0
    5.4227  -13.9012    1.0147 H   0  0  0  0  0  0  0  0  0  0  0  0
    5.1707  -14.1600   -1.5686 H   0  0  0  0  0  0  0  0  0  0  0  0
    4.1040  -15.4049   -0.9707 H   0  0  0  0  0  0  0  0  0  0  0  0
    2.5027  -14.0207   -2.1914 H   0  0  0  0  0  0  0  0  0  0  0  0
    4.2077  -11.6281   -1.4689 H   0  0  0  0  0  0  0  0  0  0  0  0
    3.3684  -13.6995   -6.4158 H   0  0  0  0  0  0  0  0  0  0  0  0
    7.1843  -12.2119   -5.1396 H   0  0  0  0  0  0  0  0  0  0  0  0
    1.6980  -11.9440   -3.1110 H   0  0  0  0  0  0  0  0  0  0  0  0
    2.5180  -10.5310   -2.9430 H   0  0  0  0  0  0  0  0  0  0  0  0
  1  2  2  0
  2  3  1  0
  2  4  1  0
  4  5  2  0
  5  6  1  0
  6  7  2  0
  7  8  1  0
  8  9  2  0
  8 10  1  0
 10 11  1  0
 11 12  2  0
 12 13  1  0
 13 14  1  0
 14 15  1  0
 15 16  1  0
 16 17  2  0
 17 18  1  0
 18 19  2  0
 19 20  1  0
 19 21  1  0
 21 22  2  0
 22 23  1  0
 15 24  1  0
  9  4  1  0
 14 10  1  0
 22 16  1  0
 24  7  1  0
  5 25  1  0
  6 26  1  0
  9 27  1  0
 10 28  1  1
 11 29  1  0
 12 30  1  0
 13 31  1  0
 13 32  1  0
 14 33  1  6
 15 34  1  1
 18 35  1  0
 21 36  1  0
 24 37  1  0
 24 38  1  0
M  CHG  2   3  -1  24   1
M  END
>  <meeko>  (4) 
{"is_sidechain": [false], "free_energy": -7.098, "intermolecular_energy": -7.506, "internal_energy": -0.633}

$$$$
LIB_PEYZUNUITLDLNI__M_PUB_ALL__e8__s20260927
     RDKit          3D

 38 41  0  0  0  0  0  0  0  0999 V2000
  -13.3090   -8.3590   -5.7620 O   0  0  0  0  0  0  0  0  0  0  0  0
  -13.1510   -8.6160   -6.9930 C   0  0  0  0  0  0  0  0  0  0  0  0
  -12.7840   -7.8130   -7.9020 O   0  0  0  0  0  0  0  0  0  0  0  0
  -13.4310  -10.0420   -7.4250 C   0  0  0  0  0  0  0  0  0  0  0  0
  -14.7410  -10.4610   -7.6980 C   0  0  0  0  0  0  0  0  0  0  0  0
  -14.9980  -11.7690   -8.0930 C   0  0  0  0  0  0  0  0  0  0  0  0
  -13.9340  -12.6600   -8.2230 C   0  0  0  0  0  0  0  0  0  0  0  0
  -12.6180  -12.2870   -7.9620 C   0  0  0  0  0  0  0  0  0  0  0  0
  -12.3820  -10.9670   -7.5560 C   0  0  0  0  0  0  0  0  0  0  0  0
  -11.4700  -13.2450   -8.0850 C   0  0  2  0  0  0  0  0  0  0  0  0
  -10.5020  -12.9090   -9.1870 C   0  0  0  0  0  0  0  0  0  0  0  0
  -10.0290  -14.0100   -9.7820 C   0  0  0  0  0  0  0  0  0  0  0  0
  -10.6110  -15.2400   -9.1710 C   0  0  0  0  0  0  0  0  0  0  0  0
  -11.8660  -14.6900   -8.4660 C   0  0  2  0  0  0  0  0  0  0  0  0
  -13.1180  -14.6930   -9.3730 C   0  0  1  0  0  0  0  0  0  0  0  0
  -13.5830  -16.1090   -9.6940 C   0  0  0  0  0  0  0  0  0  0  0  0
  -14.3310  -16.6950   -8.7060 N   0  0  0  0  0  0  0  0  0  0  0  0
  -14.7700  -17.9620   -8.9250 C   0  0  0  0  0  0  0  0  0  0  0  0
  -14.5220  -18.6680  -10.0900 C   0  0  0  0  0  0  0  0  0  0  0  0
  -15.1180  -20.2630  -10.2940 Cl  0  0  0  0  0  0  0  0  0  0  0  0
  -13.7870  -18.0530  -11.0960 C   0  0  0  0  0  0  0  0  0  0  0  0
  -13.3120  -16.7560  -10.9040 C   0  0  0  0  0  0  0  0  0  0  0  0
  -12.4350  -16.0110  -12.1840 Cl  0  0  0  0  0  0  0  0  0  0  0  0
  -14.2310  -14.0190   -8.6090 N   0  0  0  0  0  0  0  0  0  0  0  0
  -15.5730   -9.7483   -7.5987 H   0  0  0  0  0  0  0  0  0  0  0  0
  -16.0275  -12.0964   -8.3002 H   0  0  0  0  0  0  0  0  0  0  0  0
  -11.3527  -10.6480   -7.3350 H   0  0  0  0  0  0  0  0  0  0  0  0
  -11.0439  -13.1629   -7.0742 H   0  0  0  0  0  0  0  0  0  0  0  0
  -10.2182  -11.8843   -9.4687 H   0  0  0  0  0  0  0  0  0  0  0  0
   -9.3068  -14.0084  -10.6117 H   0  0  0  0  0  0  0  0  0  0  0  0
  -10.8775  -15.9798   -9.9402 H   0  0  0  0  0  0  0  0  0  0  0  0
   -9.9206  -15.7672   -8.4962 H   0  0  0  0  0  0  0  0  0  0  0  0
  -12.1478  -15.3123   -7.6039 H   0  0  0  0  0  0  0  0  0  0  0  0
  -12.8697  -14.1808  -10.3143 H   0  0  0  0  0  0  0  0  0  0  0  0
  -15.3544  -18.4538   -8.1335 H   0  0  0  0  0  0  0  0  0  0  0  0
  -13.5814  -18.5850  -12.0366 H   0  0  0  0  0  0  0  0  0  0  0  0
  -14.4370  -14.5790   -7.7690 H   0  0  0  0  0  0  0  0  0  0  0  0
  -15.0850  -14.0310   -9.1740 H   0  0  0  0  0  0  0  0  0  0  0  0
  1  2  2  0
  2  3  1  0
  2  4  1  0
  4  5  2  0
  5  6  1  0
  6  7  2  0
  7  8  1  0
  8  9  2  0
  8 10  1  0
 10 11  1  0
 11 12  2  0
 12 13  1  0
 13 14  1  0
 14 15  1  0
 15 16  1  0
 16 17  2  0
 17 18  1  0
 18 19  2  0
 19 20  1  0
 19 21  1  0
 21 22  2  0
 22 23  1  0
 15 24  1  0
  9  4  1  0
 14 10  1  0
 22 16  1  0
 24  7  1  0
  5 25  1  0
  6 26  1  0
  9 27  1  0
 10 28  1  1
 11 29  1  0
 12 30  1  0
 13 31  1  0
 13 32  1  0
 14 33  1  1
 15 34  1  6
 18 35  1  0
 21 36  1  0
 24 37  1  0
 24 38  1  0
M  CHG  2   3  -1  24   1
M  END
>  <meeko>  (5) 
{"is_sidechain": [false], "free_energy": -6.931, "intermolecular_energy": -7.329, "internal_energy": -0.623}

$$$$
LIB_PEYZUNUITLDLNI__M_PUB_ALL__e8__s20260927
     RDKit          3D

 38 41  0  0  0  0  0  0  0  0999 V2000
   -0.3100  -17.0940    7.6000 O   0  0  0  0  0  0  0  0  0  0  0  0
   -1.1670  -16.4390    6.9340 C   0  0  0  0  0  0  0  0  0  0  0  0
   -2.4040  -16.3240    7.1810 O   0  0  0  0  0  0  0  0  0  0  0  0
   -0.6540  -15.7130    5.7050 C   0  0  0  0  0  0  0  0  0  0  0  0
    0.6190  -15.1250    5.7030 C   0  0  0  0  0  0  0  0  0  0  0  0
    1.0880  -14.4570    4.5780 C   0  0  0  0  0  0  0  0  0  0  0  0
    0.2810  -14.3860    3.4440 C   0  0  0  0  0  0  0  0  0  0  0  0
   -0.9900  -14.9560    3.4020 C   0  0  0  0  0  0  0  0  0  0  0  0
   -1.4480  -15.6160    4.5500 C   0  0  0  0  0  0  0  0  0  0  0  0
   -1.8710  -14.8710    2.1910 C   0  0  2  0  0  0  0  0  0  0  0  0
   -2.1300  -16.1940    1.5220 C   0  0  0  0  0  0  0  0  0  0  0  0
   -2.1850  -16.0730    0.1920 C   0  0  0  0  0  0  0  0  0  0  0  0
   -1.9670  -14.6580   -0.2260 C   0  0  0  0  0  0  0  0  0  0  0  0
   -1.2850  -14.0530    1.0160 C   0  0  2  0  0  0  0  0  0  0  0  0
    0.2550  -14.1760    0.9790 C   0  0  1  0  0  0  0  0  0  0  0  0
    0.8680  -13.3100   -0.1170 C   0  0  0  0  0  0  0  0  0  0  0  0
    0.8680  -11.9670    0.1600 N   0  0  0  0  0  0  0  0  0  0  0  0
    1.3920  -11.1380   -0.7810 C   0  0  0  0  0  0  0  0  0  0  0  0
    1.9380  -11.5810   -1.9740 C   0  0  0  0  0  0  0  0  0  0  0  0
    2.5860  -10.4700   -3.1090 Cl  0  0  0  0  0  0  0  0  0  0  0  0
    1.9580  -12.9460   -2.2300 C   0  0  0  0  0  0  0  0  0  0  0  0
    1.4210  -13.8280   -1.2920 C   0  0  0  0  0  0  0  0  0  0  0  0
    1.4940  -15.5150   -1.6240 Cl  0  0  0  0  0  0  0  0  0  0  0  0
    0.7810  -13.6650    2.2980 N   0  0  0  0  0  0  0  0  0  0  0  0
    1.2522  -15.1930    6.5999 H   0  0  0  0  0  0  0  0  0  0  0  0
    2.0840  -13.9901    4.5827 H   0  0  0  0  0  0  0  0  0  0  0  0
   -2.4509  -16.0679    4.5469 H   0  0  0  0  0  0  0  0  0  0  0  0
   -2.7655  -14.4125    2.6379 H   0  0  0  0  0  0  0  0  0  0  0  0
   -2.2583  -17.1440    2.0614 H   0  0  0  0  0  0  0  0  0  0  0  0
   -2.3669  -16.9066   -0.5023 H   0  0  0  0  0  0  0  0  0  0  0  0
   -1.3130  -14.5991   -1.1085 H   0  0  0  0  0  0  0  0  0  0  0  0
   -2.8902  -14.1374   -0.5204 H   0  0  0  0  0  0  0  0  0  0  0  0
   -1.4741  -12.9720    1.0922 H   0  0  0  0  0  0  0  0  0  0  0  0
    0.5174  -15.2270    0.7877 H   0  0  0  0  0  0  0  0  0  0  0  0
    1.3818  -10.0558   -0.5841 H   0  0  0  0  0  0  0  0  0  0  0  0
    2.3937  -13.3285   -3.1648 H   0  0  0  0  0  0  0  0  0  0  0  0
    0.5370  -12.6680    2.3840 H   0  0  0  0  0  0  0  0  0  0  0  0
    1.8050  -13.7070    2.2940 H   0  0  0  0  0  0  0  0  0  0  0  0
  1  2  2  0
  2  3  1  0
  2  4  1  0
  4  5  2  0
  5  6  1  0
  6  7  2  0
  7  8  1  0
  8  9  2  0
  8 10  1  0
 10 11  1  0
 11 12  2  0
 12 13  1  0
 13 14  1  0
 14 15  1  0
 15 16  1  0
 16 17  2  0
 17 18  1  0
 18 19  2  0
 19 20  1  0
 19 21  1  0
 21 22  2  0
 22 23  1  0
 15 24  1  0
  9  4  1  0
 14 10  1  0
 22 16  1  0
 24  7  1  0
  5 25  1  0
  6 26  1  0
  9 27  1  0
 10 28  1  1
 11 29  1  0
 12 30  1  0
 13 31  1  0
 13 32  1  0
 14 33  1  1
 15 34  1  6
 18 35  1  0
 21 36  1  0
 24 37  1  0
 24 38  1  0
M  CHG  2   3  -1  24   1
M  END
>  <meeko>  (6) 
{"is_sidechain": [false], "free_energy": -6.927, "intermolecular_energy": -7.302, "internal_energy": -0.646}

$$$$
LIB_PEYZUNUITLDLNI__M_PUB_ALL__e8__s20260927
     RDKit          3D

 38 41  0  0  0  0  0  0  0  0999 V2000
   18.8860  -26.4060    3.0140 O   0  0  0  0  0  0  0  0  0  0  0  0
   19.8170  -26.2270    2.1720 C   0  0  0  0  0  0  0  0  0  0  0  0
   21.0300  -25.9580    2.4180 O   0  0  0  0  0  0  0  0  0  0  0  0
   19.4360  -26.3490    0.7100 C   0  0  0  0  0  0  0  0  0  0  0  0
   19.4130  -27.6010    0.0800 C   0  0  0  0  0  0  0  0  0  0  0  0
   19.0660  -27.7130   -1.2620 C   0  0  0  0  0  0  0  0  0  0  0  0
   18.7320  -26.5630   -1.9750 C   0  0  0  0  0  0  0  0  0  0  0  0
   18.7410  -25.2990   -1.3890 C   0  0  0  0  0  0  0  0  0  0  0  0
   19.1040  -25.2070   -0.0390 C   0  0  0  0  0  0  0  0  0  0  0  0
   18.3960  -24.0550   -2.1540 C   0  0  2  0  0  0  0  0  0  0  0  0
   17.1330  -23.3790   -1.6950 C   0  0  0  0  0  0  0  0  0  0  0  0
   16.4530  -22.8540   -2.7200 C   0  0  0  0  0  0  0  0  0  0  0  0
   17.1550  -23.1040   -4.0120 C   0  0  0  0  0  0  0  0  0  0  0  0
   18.0890  -24.2770   -3.6530 C   0  0  2  0  0  0  0  0  0  0  0  0
   17.4350  -25.6600   -3.8780 C   0  0  1  0  0  0  0  0  0  0  0  0
   17.1990  -25.9420   -5.3580 C   0  0  0  0  0  0  0  0  0  0  0  0
   18.2970  -26.4200   -6.0230 N   0  0  0  0  0  0  0  0  0  0  0  0
   18.1570  -26.6840   -7.3480 C   0  0  0  0  0  0  0  0  0  0  0  0
   16.9690  -26.5180   -8.0410 C   0  0  0  0  0  0  0  0  0  0  0  0
   16.8710  -26.8800   -9.7150 Cl  0  0  0  0  0  0  0  0  0  0  0  0
   15.8550  -26.0600   -7.3500 C   0  0  0  0  0  0  0  0  0  0  0  0
   15.9630  -25.7700   -5.9890 C   0  0  0  0  0  0  0  0  0  0  0  0
   14.5550  -25.2380   -5.1550 Cl  0  0  0  0  0  0  0  0  0  0  0  0
   18.4000  -26.7030   -3.3720 N   0  0  0  0  0  0  0  0  0  0  0  0
   19.6720  -28.5037    0.6527 H   0  0  0  0  0  0  0  0  0  0  0  0
   19.0553  -28.6966   -1.7544 H   0  0  0  0  0  0  0  0  0  0  0  0
   19.1297  -24.2197    0.4452 H   0  0  0  0  0  0  0  0  0  0  0  0
   19.3077  -23.4648   -1.9796 H   0  0  0  0  0  0  0  0  0  0  0  0
   16.8086  -23.3233   -0.6454 H   0  0  0  0  0  0  0  0  0  0  0  0
   15.5019  -22.3099   -2.6230 H   0  0  0  0  0  0  0  0  0  0  0  0
   16.4453  -23.3870   -4.8034 H   0  0  0  0  0  0  0  0  0  0  0  0
   17.6834  -22.2230   -4.4053 H   0  0  0  0  0  0  0  0  0  0  0  0
   18.9850  -24.2878   -4.2910 H   0  0  0  0  0  0  0  0  0  0  0  0
   16.4669  -25.6792   -3.3561 H   0  0  0  0  0  0  0  0  0  0  0  0
   19.0348  -27.0496   -7.9010 H   0  0  0  0  0  0  0  0  0  0  0  0
   14.8954  -25.9268   -7.8709 H   0  0  0  0  0  0  0  0  0  0  0  0
   19.2600  -26.6550   -3.9370 H   0  0  0  0  0  0  0  0  0  0  0  0
   18.0060  -27.6350   -3.5340 H   0  0  0  0  0  0  0  0  0  0  0  0
  1  2  2  0
  2  3  1  0
  2  4  1  0
  4  5  2  0
  5  6  1  0
  6  7  2  0
  7  8  1  0
  8  9  2  0
  8 10  1  0
 10 11  1  0
 11 12  2  0
 12 13  1  0
 13 14  1  0
 14 15  1  0
 15 16  1  0
 16 17  2  0
 17 18  1  0
 18 19  2  0
 19 20  1  0
 19 21  1  0
 21 22  2  0
 22 23  1  0
 15 24  1  0
  9  4  1  0
 14 10  1  0
 22 16  1  0
 24  7  1  0
  5 25  1  0
  6 26  1  0
  9 27  1  0
 10 28  1  6
 11 29  1  0
 12 30  1  0
 13 31  1  0
 13 32  1  0
 14 33  1  6
 15 34  1  1
 18 35  1  0
 21 36  1  0
 24 37  1  0
 24 38  1  0
M  CHG  2   3  -1  24   1
M  END
>  <meeko>  (7) 
{"is_sidechain": [false], "free_energy": -6.854, "intermolecular_energy": -7.263, "internal_energy": -0.603}

$$$$
LIB_PEYZUNUITLDLNI__M_PUB_ALL__e8__s20260927
     RDKit          3D

 38 41  0  0  0  0  0  0  0  0999 V2000
    1.2700  -15.7410    0.0720 O   0  0  0  0  0  0  0  0  0  0  0  0
    2.1430  -16.2890    0.8090 C   0  0  0  0  0  0  0  0  0  0  0  0
    1.9710  -17.2540    1.6120 O   0  0  0  0  0  0  0  0  0  0  0  0
    3.5490  -15.7280    0.7200 C   0  0  0  0  0  0  0  0  0  0  0  0
    4.6550  -16.5130    1.0770 C   0  0  0  0  0  0  0  0  0  0  0  0
    5.9440  -15.9980    0.9970 C   0  0  0  0  0  0  0  0  0  0  0  0
    6.1270  -14.6910    0.5480 C   0  0  0  0  0  0  0  0  0  0  0  0
    5.0570  -13.8770    0.1840 C   0  0  0  0  0  0  0  0  0  0  0  0
    3.7660  -14.4110    0.2810 C   0  0  0  0  0  0  0  0  0  0  0  0
    5.2440  -12.4640   -0.2860 C   0  0  2  0  0  0  0  0  0  0  0  0
    4.8690  -12.2370   -1.7250 C   0  0  0  0  0  0  0  0  0  0  0  0
    5.6860  -11.3600   -2.3170 C   0  0  0  0  0  0  0  0  0  0  0  0
    6.7290  -10.8750   -1.3670 C   0  0  0  0  0  0  0  0  0  0  0  0
    6.7080  -11.9640   -0.2770 C   0  0  2  0  0  0  0  0  0  0  0  0
    7.6840  -13.1270   -0.5690 C   0  0  1  0  0  0  0  0  0  0  0  0
    9.1400  -12.6810   -0.4810 C   0  0  0  0  0  0  0  0  0  0  0  0
    9.5390  -12.3010    0.7730 N   0  0  0  0  0  0  0  0  0  0  0  0
   10.8240  -11.8830    0.9190 C   0  0  0  0  0  0  0  0  0  0  0  0
   11.7400  -11.8480   -0.1200 C   0  0  0  0  0  0  0  0  0  0  0  0
   13.3480  -11.3140    0.1460 Cl  0  0  0  0  0  0  0  0  0  0  0  0
   11.3320  -12.2640   -1.3810 C   0  0  0  0  0  0  0  0  0  0  0  0
   10.0170  -12.6910   -1.5710 C   0  0  0  0  0  0  0  0  0  0  0  0
    9.5540  -13.2330   -3.1370 Cl  0  0  0  0  0  0  0  0  0  0  0  0
    7.4720  -14.1730    0.4990 N   0  0  0  0  0  0  0  0  0  0  0  0
    4.5013  -17.5456    1.4235 H   0  0  0  0  0  0  0  0  0  0  0  0
    6.8087  -16.6142    1.2844 H   0  0  0  0  0  0  0  0  0  0  0  0
    2.9032  -13.7859    0.0076 H   0  0  0  0  0  0  0  0  0  0  0  0
    4.5989  -11.9373    0.4326 H   0  0  0  0  0  0  0  0  0  0  0  0
    4.0256  -12.7321   -2.2286 H   0  0  0  0  0  0  0  0  0  0  0  0
    5.6005  -11.0386   -3.3655 H   0  0  0  0  0  0  0  0  0  0  0  0
    7.7142  -10.8157   -1.8526 H   0  0  0  0  0  0  0  0  0  0  0  0
    6.5395   -9.8619   -0.9827 H   0  0  0  0  0  0  0  0  0  0  0  0
    7.0330  -11.5664    0.6958 H   0  0  0  0  0  0  0  0  0  0  0  0
    7.4893  -13.5016   -1.5847 H   0  0  0  0  0  0  0  0  0  0  0  0
   11.1545  -11.5549    1.9155 H   0  0  0  0  0  0  0  0  0  0  0  0
   12.0397  -12.2569   -2.2231 H   0  0  0  0  0  0  0  0  0  0  0  0
    7.7180  -13.7630    1.4110 H   0  0  0  0  0  0  0  0  0  0  0  0
    8.1270  -14.9460    0.3490 H   0  0  0  0  0  0  0  0  0  0  0  0
  1  2  2  0
  2  3  1  0
  2  4  1  0
  4  5  2  0
  5  6  1  0
  6  7  2  0
  7  8  1  0
  8  9  2  0
  8 10  1  0
 10 11  1  0
 11 12  2  0
 12 13  1  0
 13 14  1  0
 14 15  1  0
 15 16  1  0
 16 17  2  0
 17 18  1  0
 18 19  2  0
 19 20  1  0
 19 21  1  0
 21 22  2  0
 22 23  1  0
 15 24  1  0
  9  4  1  0
 14 10  1  0
 22 16  1  0
 24  7  1  0
  5 25  1  0
  6 26  1  0
  9 27  1  0
 10 28  1  1
 11 29  1  0
 12 30  1  0
 13 31  1  0
 13 32  1  0
 14 33  1  1
 15 34  1  6
 18 35  1  0
 21 36  1  0
 24 37  1  0
 24 38  1  0
M  CHG  2   3  -1  24   1
M  END
>  <meeko>  (8) 
{"is_sidechain": [false], "free_energy": -6.845, "intermolecular_energy": -7.235, "internal_energy": -0.622}

$$$$
LIB_PEYZUNUITLDLNI__M_PUB_ALL__e8__s20260927
     RDKit          3D

 38 41  0  0  0  0  0  0  0  0999 V2000
   13.4870  -10.3590    0.1800 O   0  0  0  0  0  0  0  0  0  0  0  0
   12.5850  -11.1660   -0.1970 C   0  0  0  0  0  0  0  0  0  0  0  0
   11.5850  -11.5630    0.4710 O   0  0  0  0  0  0  0  0  0  0  0  0
   12.7170  -11.7140   -1.6050 C   0  0  0  0  0  0  0  0  0  0  0  0
   13.9110  -11.5560   -2.3230 C   0  0  0  0  0  0  0  0  0  0  0  0
   14.0310  -12.0560   -3.6150 C   0  0  0  0  0  0  0  0  0  0  0  0
   12.9520  -12.7270   -4.1870 C   0  0  0  0  0  0  0  0  0  0  0  0
   11.7480  -12.9070   -3.5090 C   0  0  0  0  0  0  0  0  0  0  0  0
   11.6440  -12.3860   -2.2120 C   0  0  0  0  0  0  0  0  0  0  0  0
   10.5760  -13.6150   -4.1230 C   0  0  2  0  0  0  0  0  0  0  0  0
   10.2230  -14.9170   -3.4560 C   0  0  0  0  0  0  0  0  0  0  0  0
    9.8140  -15.8310   -4.3420 C   0  0  0  0  0  0  0  0  0  0  0  0
    9.8370  -15.2810   -5.7280 C   0  0  0  0  0  0  0  0  0  0  0  0
   10.7870  -14.0760   -5.5840 C   0  0  2  0  0  0  0  0  0  0  0  0
   12.2680  -14.4430   -5.8330 C   0  0  1  0  0  0  0  0  0  0  0  0
   12.5230  -14.8200   -7.2880 C   0  0  0  0  0  0  0  0  0  0  0  0
   12.6540  -13.7480   -8.1330 N   0  0  0  0  0  0  0  0  0  0  0  0
   12.8740  -14.0140   -9.4470 C   0  0  0  0  0  0  0  0  0  0  0  0
   12.9940  -15.2960   -9.9600 C   0  0  0  0  0  0  0  0  0  0  0  0
   13.2790  -15.5490  -11.6320 Cl  0  0  0  0  0  0  0  0  0  0  0  0
   12.8880  -16.3730   -9.0890 C   0  0  0  0  0  0  0  0  0  0  0  0
   12.6540  -16.1390   -7.7330 C   0  0  0  0  0  0  0  0  0  0  0  0
   12.5640  -17.4930   -6.6760 Cl  0  0  0  0  0  0  0  0  0  0  0  0
   13.0940  -13.2150   -5.5370 N   0  0  0  0  0  0  0  0  0  0  0  0
   14.7602  -11.0319   -1.8602 H   0  0  0  0  0  0  0  0  0  0  0  0
   14.9663  -11.9234   -4.1786 H   0  0  0  0  0  0  0  0  0  0  0  0
   10.7015  -12.5062   -1.6577 H   0  0  0  0  0  0  0  0  0  0  0  0
    9.8065  -12.8358   -4.0189 H   0  0  0  0  0  0  0  0  0  0  0  0
   10.2929  -15.0949   -2.3727 H   0  0  0  0  0  0  0  0  0  0  0  0
    9.5018  -16.8534   -4.0829 H   0  0  0  0  0  0  0  0  0  0  0  0
   10.2325  -16.0175   -6.4429 H   0  0  0  0  0  0  0  0  0  0  0  0
    8.8419  -15.0153   -6.1143 H   0  0  0  0  0  0  0  0  0  0  0  0
   10.5656  -13.2976   -6.3290 H   0  0  0  0  0  0  0  0  0  0  0  0
   12.5278  -15.3010   -5.1955 H   0  0  0  0  0  0  0  0  0  0  0  0
   12.9617  -13.1656  -10.1417 H   0  0  0  0  0  0  0  0  0  0  0  0
   12.9877  -17.4020   -9.4649 H   0  0  0  0  0  0  0  0  0  0  0  0
   12.8260  -12.4740   -6.2010 H   0  0  0  0  0  0  0  0  0  0  0  0
   14.0810  -13.4180   -5.7210 H   0  0  0  0  0  0  0  0  0  0  0  0
  1  2  2  0
  2  3  1  0
  2  4  1  0
  4  5  2  0
  5  6  1  0
  6  7  2  0
  7  8  1  0
  8  9  2  0
  8 10  1  0
 10 11  1  0
 11 12  2  0
 12 13  1  0
 13 14  1  0
 14 15  1  0
 15 16  1  0
 16 17  2  0
 17 18  1  0
 18 19  2  0
 19 20  1  0
 19 21  1  0
 21 22  2  0
 22 23  1  0
 15 24  1  0
  9  4  1  0
 14 10  1  0
 22 16  1  0
 24  7  1  0
  5 25  1  0
  6 26  1  0
  9 27  1  0
 10 28  1  6
 11 29  1  0
 12 30  1  0
 13 31  1  0
 13 32  1  0
 14 33  1  6
 15 34  1  1
 18 35  1  0
 21 36  1  0
 24 37  1  0
 24 38  1  0
M  CHG  2   3  -1  24   1
M  END
>  <meeko>  (9) 
{"is_sidechain": [false], "free_energy": -6.835, "intermolecular_energy": -7.204, "internal_energy": -0.641}

$$$$
