LIB_WSTGIXIJIWZIHP__M_PUB_ALL__e8__s20260927
     RDKit          3D

 65 71  0  0  0  0  0  0  0  0999 V2000
   -3.2250  -12.5470   -0.1930 O   0  0  0  0  0  0  0  0  0  0  0  0
   -2.3440  -12.9450    0.5690 C   0  0  0  0  0  0  0  0  0  0  0  0
   -1.0160  -12.3230    0.5420 C   0  0  0  0  0  0  0  0  0  0  0  0
   -0.5280  -11.1250    1.1580 C   0  0  0  0  0  0  0  0  0  0  0  0
    0.8100  -10.9730    0.8430 C   0  0  0  0  0  0  0  0  0  0  0  0
    1.1620  -12.0500    0.1010 N   0  0  0  0  0  0  0  0  0  0  0  0
    0.0860  -12.8700   -0.0990 C   0  0  0  0  0  0  0  0  0  0  0  0
    0.3320  -14.0820   -0.9130 C   0  0  0  0  0  0  0  0  0  0  0  0
    2.0690  -13.9430   -1.4900 S   0  0  0  0  0  0  0  0  0  0  0  0
    2.4290  -12.4210   -0.5150 C   0  0  2  0  0  0  0  0  0  0  0  0
    3.5340  -12.6540    0.4830 C   0  0  0  0  0  0  0  0  0  0  0  0
    4.6520  -11.8210    0.6130 C   0  0  0  0  0  0  0  0  0  0  0  0
    5.6220  -12.1010    1.5720 C   0  0  0  0  0  0  0  0  0  0  0  0
    5.4410  -13.2050    2.3840 C   0  0  0  0  0  0  0  0  0  0  0  0
    4.3730  -14.0260    2.3070 N   0  0  0  0  0  0  0  0  0  0  0  0
    3.4480  -13.7310    1.3640 C   0  0  0  0  0  0  0  0  0  0  0  0
   -2.6070  -14.0180    1.5340 C   0  0  0  0  0  0  0  0  0  0  0  0
   -1.8260  -15.1270    1.8040 C   0  0  0  0  0  0  0  0  0  0  0  0
   -2.3710  -15.8560    2.8530 N   0  0  0  0  0  0  0  0  0  0  0  0
   -1.7440  -16.9470    3.5090 C   0  0  0  0  0  0  0  0  0  0  0  0
   -1.7180  -18.0370    2.9330 O   0  0  0  0  0  0  0  0  0  0  0  0
   -1.3190  -16.9390    4.9260 C   0  0  0  0  0  0  0  0  0  0  0  0
   -2.0400  -17.7840    5.7890 C   0  0  0  0  0  0  0  0  0  0  0  0
   -1.7310  -17.8430    7.1500 C   0  0  0  0  0  0  0  0  0  0  0  0
   -0.6930  -17.0680    7.6610 C   0  0  0  0  0  0  0  0  0  0  0  0
    0.0400  -16.2420    6.8090 C   0  0  0  0  0  0  0  0  0  0  0  0
   -0.2710  -16.1760    5.4410 C   0  0  0  0  0  0  0  0  0  0  0  0
    0.7680  -15.1400    4.3980 S   0  0  0  0  0  0  0  0  0  0  0  0
   -0.0850  -14.0020    4.0890 O   0  0  0  0  0  0  0  0  0  0  0  0
    1.0710  -16.0130    3.2690 O   0  0  0  0  0  0  0  0  0  0  0  0
    1.8790  -14.8690    5.3010 O   0  0  0  0  0  0  0  0  0  0  0  0
   -3.5620  -15.2290    3.2270 C   0  0  0  0  0  0  0  0  0  0  0  0
   -4.5260  -15.5820    4.1970 C   0  0  0  0  0  0  0  0  0  0  0  0
   -5.6450  -14.7570    4.4120 C   0  0  0  0  0  0  0  0  0  0  0  0
   -6.6550  -15.1100    5.4280 C   0  0  0  0  0  0  0  0  0  0  0  0
   -7.7550  -15.9240    5.1030 C   0  0  0  0  0  0  0  0  0  0  0  0
   -8.7100  -16.2640    6.0660 C   0  0  0  0  0  0  0  0  0  0  0  0
   -8.5720  -15.7900    7.3630 C   0  0  0  0  0  0  0  0  0  0  0  0
   -9.4850  -16.1170    8.2870 F   0  0  0  0  0  0  0  0  0  0  0  0
   -7.5020  -14.9790    7.7140 C   0  0  0  0  0  0  0  0  0  0  0  0
   -6.5480  -14.6400    6.7510 C   0  0  0  0  0  0  0  0  0  0  0  0
   -5.7750  -13.5950    3.6440 C   0  0  0  0  0  0  0  0  0  0  0  0
   -4.8300  -13.2520    2.6700 C   0  0  0  0  0  0  0  0  0  0  0  0
   -3.7080  -14.0800    2.4460 C   0  0  0  0  0  0  0  0  0  0  0  0
   -1.1208  -10.4382    1.7800 H   0  0  0  0  0  0  0  0  0  0  0  0
    1.4626  -10.1382    1.1382 H   0  0  0  0  0  0  0  0  0  0  0  0
    0.2012  -14.9878   -0.3027 H   0  0  0  0  0  0  0  0  0  0  0  0
   -0.3722  -14.1575   -1.7547 H   0  0  0  0  0  0  0  0  0  0  0  0
    2.8043  -11.6002   -1.1438 H   0  0  0  0  0  0  0  0  0  0  0  0
    4.7641  -10.9450   -0.0428 H   0  0  0  0  0  0  0  0  0  0  0  0
    6.5094  -11.4602    1.6806 H   0  0  0  0  0  0  0  0  0  0  0  0
    6.2122  -13.4270    3.1363 H   0  0  0  0  0  0  0  0  0  0  0  0
    2.5677  -14.3862    1.2875 H   0  0  0  0  0  0  0  0  0  0  0  0
   -0.9049  -15.3935    1.2650 H   0  0  0  0  0  0  0  0  0  0  0  0
   -2.8551  -18.4044    5.3882 H   0  0  0  0  0  0  0  0  0  0  0  0
   -2.3070  -18.5009    7.8174 H   0  0  0  0  0  0  0  0  0  0  0  0
   -0.4518  -17.1071    8.7335 H   0  0  0  0  0  0  0  0  0  0  0  0
    0.8670  -15.6384    7.2111 H   0  0  0  0  0  0  0  0  0  0  0  0
   -4.4016  -16.5032    4.7851 H   0  0  0  0  0  0  0  0  0  0  0  0
   -7.8657  -16.2991    4.0749 H   0  0  0  0  0  0  0  0  0  0  0  0
   -9.5645  -16.9026    5.7975 H   0  0  0  0  0  0  0  0  0  0  0  0
   -7.4055  -14.6053    8.7441 H   0  0  0  0  0  0  0  0  0  0  0  0
   -5.7008  -13.9964    7.0306 H   0  0  0  0  0  0  0  0  0  0  0  0
   -6.6398  -12.9356    3.8093 H   0  0  0  0  0  0  0  0  0  0  0  0
   -4.9617  -12.3348    2.0772 H   0  0  0  0  0  0  0  0  0  0  0  0
  1  2  2  0
  2  3  1  0
  3  4  1  0
  4  5  2  0
  5  6  1  0
  6  7  1  0
  7  8  1  0
  8  9  1  0
  9 10  1  0
 10 11  1  0
 11 12  2  0
 12 13  1  0
 13 14  2  0
 14 15  1  0
 15 16  2  0
  2 17  1  0
 17 18  2  0
 18 19  1  0
 19 20  1  0
 20 21  2  0
 20 22  1  0
 22 23  2  0
 23 24  1  0
 24 25  2  0
 25 26  1  0
 26 27  2  0
 27 28  1  0
 28 29  2  0
 28 30  2  0
 28 31  1  0
 19 32  1  0
 32 33  2  0
 33 34  1  0
 34 35  1  0
 35 36  2  0
 36 37  1  0
 37 38  2  0
 38 39  1  0
 38 40  1  0
 40 41  2  0
 34 42  2  0
 42 43  1  0
 43 44  2  0
  7  3  2  0
 16 11  1  0
 44 17  1  0
 10  6  1  0
 27 22  1  0
 44 32  1  0
 41 35  1  0
  4 45  1  0
  5 46  1  0
  8 47  1  0
  8 48  1  0
 10 49  1  6
 12 50  1  0
 13 51  1  0
 14 52  1  0
 16 53  1  0
 18 54  1  0
 23 55  1  0
 24 56  1  0
 25 57  1  0
 26 58  1  0
 33 59  1  0
 36 60  1  0
 37 61  1  0
 40 62  1  0
 41 63  1  0
 42 64  1  0
 43 65  1  0
M  CHG  1  31  -1
M  END
>  <meeko>  (1) 
{"is_sidechain": [false], "free_energy": -9.655, "intermolecular_energy": -13.607, "internal_energy": -2.069}

$$$$
LIB_WSTGIXIJIWZIHP__M_PUB_ALL__e8__s20260927
     RDKit          3D

 65 71  0  0  0  0  0  0  0  0999 V2000
   -2.4180  -12.4820    1.0450 O   0  0  0  0  0  0  0  0  0  0  0  0
   -1.9180  -13.6060    1.0290 C   0  0  0  0  0  0  0  0  0  0  0  0
   -0.8580  -13.9230    0.0650 C   0  0  0  0  0  0  0  0  0  0  0  0
   -0.8590  -14.7830   -1.0800 C   0  0  0  0  0  0  0  0  0  0  0  0
    0.3870  -14.7330   -1.6780 C   0  0  0  0  0  0  0  0  0  0  0  0
    1.1250  -13.8450   -0.9710 N   0  0  0  0  0  0  0  0  0  0  0  0
    0.4050  -13.3510    0.0820 C   0  0  0  0  0  0  0  0  0  0  0  0
    1.1040  -12.3780    0.9510 C   0  0  0  0  0  0  0  0  0  0  0  0
    2.8260  -12.3020    0.3190 S   0  0  0  0  0  0  0  0  0  0  0  0
    2.5030  -13.3980   -1.1270 C   0  0  2  0  0  0  0  0  0  0  0  0
    2.7540  -12.6820   -2.4290 C   0  0  0  0  0  0  0  0  0  0  0  0
    2.5220  -11.3130   -2.6200 C   0  0  0  0  0  0  0  0  0  0  0  0
    2.7930  -10.7270   -3.8530 C   0  0  0  0  0  0  0  0  0  0  0  0
    3.3000  -11.5250   -4.8620 C   0  0  0  0  0  0  0  0  0  0  0  0
    3.5550  -12.8420   -4.7190 N   0  0  0  0  0  0  0  0  0  0  0  0
    3.2790  -13.3860   -3.5110 C   0  0  0  0  0  0  0  0  0  0  0  0
   -2.3420  -14.6360    1.9830 C   0  0  0  0  0  0  0  0  0  0  0  0
   -1.6690  -15.7900    2.3420 C   0  0  0  0  0  0  0  0  0  0  0  0
   -2.3560  -16.4550    3.3490 N   0  0  0  0  0  0  0  0  0  0  0  0
   -1.8700  -17.5720    4.0780 C   0  0  0  0  0  0  0  0  0  0  0  0
   -2.1300  -18.7010    3.6560 O   0  0  0  0  0  0  0  0  0  0  0  0
   -1.2690  -17.4920    5.4260 C   0  0  0  0  0  0  0  0  0  0  0  0
   -2.1740  -17.4730    6.5030 C   0  0  0  0  0  0  0  0  0  0  0  0
   -1.7140  -17.3850    7.8190 C   0  0  0  0  0  0  0  0  0  0  0  0
   -0.3460  -17.3260    8.0750 C   0  0  0  0  0  0  0  0  0  0  0  0
    0.5600  -17.3640    7.0140 C   0  0  0  0  0  0  0  0  0  0  0  0
    0.1000  -17.4470    5.6890 C   0  0  0  0  0  0  0  0  0  0  0  0
    1.3340  -17.5620    4.3840 S   0  0  0  0  0  0  0  0  0  0  0  0
    1.3650  -16.2200    3.8230 O   0  0  0  0  0  0  0  0  0  0  0  0
    0.7870  -18.5890    3.5050 O   0  0  0  0  0  0  0  0  0  0  0  0
    2.5100  -17.9520    5.1520 O   0  0  0  0  0  0  0  0  0  0  0  0
   -3.5300  -15.7390    3.6010 C   0  0  0  0  0  0  0  0  0  0  0  0
   -4.5990  -16.0020    4.4840 C   0  0  0  0  0  0  0  0  0  0  0  0
   -5.6730  -15.0980    4.5820 C   0  0  0  0  0  0  0  0  0  0  0  0
   -6.7920  -15.3570    5.5070 C   0  0  0  0  0  0  0  0  0  0  0  0
   -7.9430  -16.0420    5.0750 C   0  0  0  0  0  0  0  0  0  0  0  0
   -9.0030  -16.2930    5.9520 C   0  0  0  0  0  0  0  0  0  0  0  0
   -8.9200  -15.8590    7.2670 C   0  0  0  0  0  0  0  0  0  0  0  0
   -9.9340  -16.1010    8.1090 F   0  0  0  0  0  0  0  0  0  0  0  0
   -7.8010  -15.1750    7.7230 C   0  0  0  0  0  0  0  0  0  0  0  0
   -6.7430  -14.9250    6.8450 C   0  0  0  0  0  0  0  0  0  0  0  0
   -5.6500  -13.9480    3.7860 C   0  0  0  0  0  0  0  0  0  0  0  0
   -4.5990  -13.6930    2.8970 C   0  0  0  0  0  0  0  0  0  0  0  0
   -3.5230  -14.6010    2.7910 C   0  0  0  0  0  0  0  0  0  0  0  0
   -1.7116  -15.3851   -1.4272 H   0  0  0  0  0  0  0  0  0  0  0  0
    0.7153  -15.3047   -2.5586 H   0  0  0  0  0  0  0  0  0  0  0  0
    0.6259  -11.3896    0.8833 H   0  0  0  0  0  0  0  0  0  0  0  0
    1.0709  -12.6788    2.0085 H   0  0  0  0  0  0  0  0  0  0  0  0
    3.1854  -14.2602   -1.1583 H   0  0  0  0  0  0  0  0  0  0  0  0
    2.1258  -10.7019   -1.7956 H   0  0  0  0  0  0  0  0  0  0  0  0
    2.6084   -9.6556   -4.0206 H   0  0  0  0  0  0  0  0  0  0  0  0
    3.5072  -11.0594   -5.8368 H   0  0  0  0  0  0  0  0  0  0  0  0
    3.4832  -14.4581   -3.3737 H   0  0  0  0  0  0  0  0  0  0  0  0
   -0.7245  -16.1320    1.8938 H   0  0  0  0  0  0  0  0  0  0  0  0
   -3.2549  -17.5280    6.3067 H   0  0  0  0  0  0  0  0  0  0  0  0
   -2.4315  -17.3623    8.6525 H   0  0  0  0  0  0  0  0  0  0  0  0
    0.0190  -17.2497    9.1099 H   0  0  0  0  0  0  0  0  0  0  0  0
    1.6407  -17.3288    7.2163 H   0  0  0  0  0  0  0  0  0  0  0  0
   -4.5927  -16.9154    5.0969 H   0  0  0  0  0  0  0  0  0  0  0  0
   -8.0099  -16.3851    4.0320 H   0  0  0  0  0  0  0  0  0  0  0  0
   -9.8963  -16.8308    5.6016 H   0  0  0  0  0  0  0  0  0  0  0  0
   -7.7478  -14.8327    8.7670 H   0  0  0  0  0  0  0  0  0  0  0  0
   -5.8574  -14.3815    7.2059 H   0  0  0  0  0  0  0  0  0  0  0  0
   -6.4773  -13.2269    3.8603 H   0  0  0  0  0  0  0  0  0  0  0  0
   -4.6115  -12.7828    2.2794 H   0  0  0  0  0  0  0  0  0  0  0  0
  1  2  2  0
  2  3  1  0
  3  4  1  0
  4  5  2  0
  5  6  1  0
  6  7  1  0
  7  8  1  0
  8  9  1  0
  9 10  1  0
 10 11  1  0
 11 12  2  0
 12 13  1  0
 13 14  2  0
 14 15  1  0
 15 16  2  0
  2 17  1  0
 17 18  2  0
 18 19  1  0
 19 20  1  0
 20 21  2  0
 20 22  1  0
 22 23  2  0
 23 24  1  0
 24 25  2  0
 25 26  1  0
 26 27  2  0
 27 28  1  0
 28 29  2  0
 28 30  2  0
 28 31  1  0
 19 32  1  0
 32 33  2  0
 33 34  1  0
 34 35  1  0
 35 36  2  0
 36 37  1  0
 37 38  2  0
 38 39  1  0
 38 40  1  0
 40 41  2  0
 34 42  2  0
 42 43  1  0
 43 44  2  0
  7  3  2  0
 16 11  1  0
 44 17  1  0
 10  6  1  0
 27 22  1  0
 44 32  1  0
 41 35  1  0
  4 45  1  0
  5 46  1  0
  8 47  1  0
  8 48  1  0
 10 49  1  1
 12 50  1  0
 13 51  1  0
 14 52  1  0
 16 53  1  0
 18 54  1  0
 23 55  1  0
 24 56  1  0
 25 57  1  0
 26 58  1  0
 33 59  1  0
 36 60  1  0
 37 61  1  0
 40 62  1  0
 41 63  1  0
 42 64  1  0
 43 65  1  0
M  CHG  1  31  -1
M  END
>  <meeko>  (2) 
{"is_sidechain": [false], "free_energy": -9.356, "intermolecular_energy": -13.705, "internal_energy": -1.549}

$$$$
LIB_WSTGIXIJIWZIHP__M_PUB_ALL__e8__s20260927
     RDKit          3D

 65 71  0  0  0  0  0  0  0  0999 V2000
    6.7290  -16.3460   -6.7140 O   0  0  0  0  0  0  0  0  0  0  0  0
    7.0590  -15.1610   -6.6880 C   0  0  0  0  0  0  0  0  0  0  0  0
    7.3800  -14.4620   -7.9370 C   0  0  0  0  0  0  0  0  0  0  0  0
    6.6480  -13.4760   -8.6750 C   0  0  0  0  0  0  0  0  0  0  0  0
    7.3850  -13.1120   -9.7870 C   0  0  0  0  0  0  0  0  0  0  0  0
    8.5480  -13.8030   -9.7300 N   0  0  0  0  0  0  0  0  0  0  0  0
    8.5670  -14.6230   -8.6350 C   0  0  0  0  0  0  0  0  0  0  0  0
    9.7820  -15.4520   -8.4620 C   0  0  0  0  0  0  0  0  0  0  0  0
   10.8080  -15.1370   -9.9510 S   0  0  0  0  0  0  0  0  0  0  0  0
    9.6950  -13.8350  -10.6290 C   0  0  2  0  0  0  0  0  0  0  0  0
   10.4010  -12.5090  -10.7410 C   0  0  0  0  0  0  0  0  0  0  0  0
   11.6440  -12.2380  -10.1540 C   0  0  0  0  0  0  0  0  0  0  0  0
   12.2340  -10.9880  -10.3170 C   0  0  0  0  0  0  0  0  0  0  0  0
   11.5690  -10.0430  -11.0760 C   0  0  0  0  0  0  0  0  0  0  0  0
   10.3800  -10.2630  -11.6750 N   0  0  0  0  0  0  0  0  0  0  0  0
    9.8290  -11.4860  -11.4950 C   0  0  0  0  0  0  0  0  0  0  0  0
    7.1080  -14.4180   -5.4250 C   0  0  0  0  0  0  0  0  0  0  0  0
    6.0480  -14.0370   -4.6220 C   0  0  0  0  0  0  0  0  0  0  0  0
    6.5150  -13.4340   -3.4610 N   0  0  0  0  0  0  0  0  0  0  0  0
    5.7200  -13.0840   -2.3380 C   0  0  0  0  0  0  0  0  0  0  0  0
    4.4990  -13.2400   -2.4180 O   0  0  0  0  0  0  0  0  0  0  0  0
    6.2150  -12.3360   -1.1630 C   0  0  0  0  0  0  0  0  0  0  0  0
    6.4220  -10.9570   -1.3550 C   0  0  0  0  0  0  0  0  0  0  0  0
    6.9020  -10.1580   -0.3140 C   0  0  0  0  0  0  0  0  0  0  0  0
    7.1710  -10.7240    0.9300 C   0  0  0  0  0  0  0  0  0  0  0  0
    6.9510  -12.0860    1.1340 C   0  0  0  0  0  0  0  0  0  0  0  0
    6.4730  -12.8940    0.0890 C   0  0  0  0  0  0  0  0  0  0  0  0
    6.1500  -14.6260    0.4550 S   0  0  0  0  0  0  0  0  0  0  0  0
    6.8650  -15.3370   -0.5940 O   0  0  0  0  0  0  0  0  0  0  0  0
    4.6950  -14.7110    0.3800 O   0  0  0  0  0  0  0  0  0  0  0  0
    6.7190  -14.7350    1.7920 O   0  0  0  0  0  0  0  0  0  0  0  0
    7.9080  -13.3750   -3.5490 C   0  0  0  0  0  0  0  0  0  0  0  0
    8.8650  -12.8200   -2.6720 C   0  0  0  0  0  0  0  0  0  0  0  0
   10.2370  -12.9150   -2.9720 C   0  0  0  0  0  0  0  0  0  0  0  0
   11.2470  -12.3470   -2.0600 C   0  0  0  0  0  0  0  0  0  0  0  0
   12.5050  -11.9370   -2.5390 C   0  0  0  0  0  0  0  0  0  0  0  0
   13.4620  -11.3930   -1.6770 C   0  0  0  0  0  0  0  0  0  0  0  0
   13.1680  -11.2570   -0.3280 C   0  0  0  0  0  0  0  0  0  0  0  0
   14.0830  -10.7330    0.4990 F   0  0  0  0  0  0  0  0  0  0  0  0
   11.9390  -11.6580    0.1780 C   0  0  0  0  0  0  0  0  0  0  0  0
   10.9840  -12.2010   -0.6850 C   0  0  0  0  0  0  0  0  0  0  0  0
   10.6180  -13.5650   -4.1500 C   0  0  0  0  0  0  0  0  0  0  0  0
    9.6700  -14.1020   -5.0310 C   0  0  0  0  0  0  0  0  0  0  0  0
    8.2920  -14.0020   -4.7370 C   0  0  0  0  0  0  0  0  0  0  0  0
    5.6611  -13.0742   -8.4017 H   0  0  0  0  0  0  0  0  0  0  0  0
    7.0842  -12.3981  -10.5679 H   0  0  0  0  0  0  0  0  0  0  0  0
   10.3238  -15.1546   -7.5521 H   0  0  0  0  0  0  0  0  0  0  0  0
    9.5359  -16.5187   -8.3546 H   0  0  0  0  0  0  0  0  0  0  0  0
    9.3721  -14.0557  -11.6571 H   0  0  0  0  0  0  0  0  0  0  0  0
   12.1540  -13.0137   -9.5639 H   0  0  0  0  0  0  0  0  0  0  0  0
   13.2048  -10.7578   -9.8537 H   0  0  0  0  0  0  0  0  0  0  0  0
   12.0361   -9.0547  -11.1987 H   0  0  0  0  0  0  0  0  0  0  0  0
    8.8613  -11.6867  -11.9780 H   0  0  0  0  0  0  0  0  0  0  0  0
    4.9867  -14.1897   -4.8678 H   0  0  0  0  0  0  0  0  0  0  0  0
    6.2039  -10.5042   -2.3335 H   0  0  0  0  0  0  0  0  0  0  0  0
    7.0673   -9.0827   -0.4768 H   0  0  0  0  0  0  0  0  0  0  0  0
    7.5558  -10.0986    1.7490 H   0  0  0  0  0  0  0  0  0  0  0  0
    7.1531  -12.5305    2.1197 H   0  0  0  0  0  0  0  0  0  0  0  0
    8.5379  -12.3124   -1.7526 H   0  0  0  0  0  0  0  0  0  0  0  0
   12.7391  -12.0462   -3.6082 H   0  0  0  0  0  0  0  0  0  0  0  0
   14.4408  -11.0752   -2.0655 H   0  0  0  0  0  0  0  0  0  0  0  0
   11.7188  -11.5490    1.2502 H   0  0  0  0  0  0  0  0  0  0  0  0
   10.0107  -12.5196   -0.2834 H   0  0  0  0  0  0  0  0  0  0  0  0
   11.6874  -13.6569   -4.3908 H   0  0  0  0  0  0  0  0  0  0  0  0
    9.9995  -14.6025   -5.9535 H   0  0  0  0  0  0  0  0  0  0  0  0
  1  2  2  0
  2  3  1  0
  3  4  1  0
  4  5  2  0
  5  6  1  0
  6  7  1  0
  7  8  1  0
  8  9  1  0
  9 10  1  0
 10 11  1  0
 11 12  2  0
 12 13  1  0
 13 14  2  0
 14 15  1  0
 15 16  2  0
  2 17  1  0
 17 18  2  0
 18 19  1  0
 19 20  1  0
 20 21  2  0
 20 22  1  0
 22 23  2  0
 23 24  1  0
 24 25  2  0
 25 26  1  0
 26 27  2  0
 27 28  1  0
 28 29  2  0
 28 30  2  0
 28 31  1  0
 19 32  1  0
 32 33  2  0
 33 34  1  0
 34 35  1  0
 35 36  2  0
 36 37  1  0
 37 38  2  0
 38 39  1  0
 38 40  1  0
 40 41  2  0
 34 42  2  0
 42 43  1  0
 43 44  2  0
  7  3  2  0
 16 11  1  0
 44 17  1  0
 10  6  1  0
 27 22  1  0
 44 32  1  0
 41 35  1  0
  4 45  1  0
  5 46  1  0
  8 47  1  0
  8 48  1  0
 10 49  1  6
 12 50  1  0
 13 51  1  0
 14 52  1  0
 16 53  1  0
 18 54  1  0
 23 55  1  0
 24 56  1  0
 25 57  1  0
 26 58  1  0
 33 59  1  0
 36 60  1  0
 37 61  1  0
 40 62  1  0
 41 63  1  0
 42 64  1  0
 43 65  1  0
M  CHG  1  31  -1
M  END
>  <meeko>  (3) 
{"is_sidechain": [false], "free_energy": -9.299, "intermolecular_energy": -13.301, "internal_energy": -1.873}

$$$$
LIB_WSTGIXIJIWZIHP__M_PUB_ALL__e8__s20260927
     RDKit          3D

 65 71  0  0  0  0  0  0  0  0999 V2000
    1.5830  -16.0410   -1.1490 O   0  0  0  0  0  0  0  0  0  0  0  0
    1.7050  -15.0390   -0.4440 C   0  0  0  0  0  0  0  0  0  0  0  0
    2.8180  -14.1120   -0.6760 C   0  0  0  0  0  0  0  0  0  0  0  0
    2.9860  -13.0730   -1.6480 C   0  0  0  0  0  0  0  0  0  0  0  0
    4.2120  -12.4660   -1.4460 C   0  0  0  0  0  0  0  0  0  0  0  0
    4.7720  -13.0640   -0.3670 N   0  0  0  0  0  0  0  0  0  0  0  0
    3.9610  -14.0570    0.1080 C   0  0  0  0  0  0  0  0  0  0  0  0
    4.4640  -14.8050    1.2820 C   0  0  0  0  0  0  0  0  0  0  0  0
    6.1550  -14.1580    1.5890 S   0  0  0  0  0  0  0  0  0  0  0  0
    6.0520  -12.8490    0.2960 C   0  0  2  0  0  0  0  0  0  0  0  0
    6.1920  -11.4720    0.8930 C   0  0  0  0  0  0  0  0  0  0  0  0
    7.1910  -10.5630    0.5230 C   0  0  0  0  0  0  0  0  0  0  0  0
    7.2420   -9.3040    1.1150 C   0  0  0  0  0  0  0  0  0  0  0  0
    6.2820   -8.9840    2.0570 C   0  0  0  0  0  0  0  0  0  0  0  0
    5.2910   -9.8200    2.4330 N   0  0  0  0  0  0  0  0  0  0  0  0
    5.2690  -11.0370    1.8420 C   0  0  0  0  0  0  0  0  0  0  0  0
    0.7350  -14.7360    0.6120 C   0  0  0  0  0  0  0  0  0  0  0  0
   -0.3220  -13.8460    0.5640 C   0  0  0  0  0  0  0  0  0  0  0  0
   -1.0670  -13.9180    1.7340 N   0  0  0  0  0  0  0  0  0  0  0  0
   -2.3160  -13.2800    1.9550 C   0  0  0  0  0  0  0  0  0  0  0  0
   -3.0770  -13.7650    2.7950 O   0  0  0  0  0  0  0  0  0  0  0  0
   -2.8720  -12.2120    1.0970 C   0  0  0  0  0  0  0  0  0  0  0  0
   -3.9220  -12.5960    0.2410 C   0  0  0  0  0  0  0  0  0  0  0  0
   -4.5120  -11.6690   -0.6220 C   0  0  0  0  0  0  0  0  0  0  0  0
   -4.0680  -10.3490   -0.6340 C   0  0  0  0  0  0  0  0  0  0  0  0
   -3.0410   -9.9560    0.2240 C   0  0  0  0  0  0  0  0  0  0  0  0
   -2.4420  -10.8860    1.0910 C   0  0  0  0  0  0  0  0  0  0  0  0
   -1.1730  -10.2820    2.2140 S   0  0  0  0  0  0  0  0  0  0  0  0
    0.0660  -10.7590    1.6200 O   0  0  0  0  0  0  0  0  0  0  0  0
   -1.5340  -10.9070    3.4820 O   0  0  0  0  0  0  0  0  0  0  0  0
   -1.3970   -8.8440    2.1350 O   0  0  0  0  0  0  0  0  0  0  0  0
   -0.4370  -14.8360    2.5770 C   0  0  0  0  0  0  0  0  0  0  0  0
   -0.7460  -15.2430    3.8940 C   0  0  0  0  0  0  0  0  0  0  0  0
    0.0360  -16.2240    4.5310 C   0  0  0  0  0  0  0  0  0  0  0  0
   -0.2820  -16.6630    5.9030 C   0  0  0  0  0  0  0  0  0  0  0  0
   -1.5790  -16.5180    6.4280 C   0  0  0  0  0  0  0  0  0  0  0  0
   -1.8830  -16.9390    7.7260 C   0  0  0  0  0  0  0  0  0  0  0  0
   -0.8900  -17.5080    8.5100 C   0  0  0  0  0  0  0  0  0  0  0  0
   -1.1800  -17.9140    9.7530 F   0  0  0  0  0  0  0  0  0  0  0  0
    0.4020  -17.6590    8.0250 C   0  0  0  0  0  0  0  0  0  0  0  0
    0.7040  -17.2390    6.7270 C   0  0  0  0  0  0  0  0  0  0  0  0
    1.1150  -16.7740    3.8330 C   0  0  0  0  0  0  0  0  0  0  0  0
    1.4340  -16.3610    2.5330 C   0  0  0  0  0  0  0  0  0  0  0  0
    0.6560  -15.3720    1.8920 C   0  0  0  0  0  0  0  0  0  0  0  0
    2.2587  -12.8023   -2.4276 H   0  0  0  0  0  0  0  0  0  0  0  0
    4.6485  -11.6539   -2.0459 H   0  0  0  0  0  0  0  0  0  0  0  0
    3.8199  -14.6272    2.1558 H   0  0  0  0  0  0  0  0  0  0  0  0
    4.4688  -15.8903    1.1027 H   0  0  0  0  0  0  0  0  0  0  0  0
    6.8759  -12.9119   -0.4301 H   0  0  0  0  0  0  0  0  0  0  0  0
    7.9360  -10.8440   -0.2360 H   0  0  0  0  0  0  0  0  0  0  0  0
    8.0257   -8.5826    0.8404 H   0  0  0  0  0  0  0  0  0  0  0  0
    6.3284   -7.9907    2.5273 H   0  0  0  0  0  0  0  0  0  0  0  0
    4.4664  -11.7315    2.1309 H   0  0  0  0  0  0  0  0  0  0  0  0
   -0.5416  -13.1763   -0.2805 H   0  0  0  0  0  0  0  0  0  0  0  0
   -4.2812  -13.6357    0.2518 H   0  0  0  0  0  0  0  0  0  0  0  0
   -5.3268  -11.9816   -1.2916 H   0  0  0  0  0  0  0  0  0  0  0  0
   -4.5257   -9.6189   -1.3178 H   0  0  0  0  0  0  0  0  0  0  0  0
   -2.6975   -8.9110    0.2221 H   0  0  0  0  0  0  0  0  0  0  0  0
   -1.5992  -14.7923    4.4222 H   0  0  0  0  0  0  0  0  0  0  0  0
   -2.3667  -16.0661    5.8072 H   0  0  0  0  0  0  0  0  0  0  0  0
   -2.9020  -16.8200    8.1227 H   0  0  0  0  0  0  0  0  0  0  0  0
    1.1825  -18.1062    8.6581 H   0  0  0  0  0  0  0  0  0  0  0  0
    1.7276  -17.3602    6.3430 H   0  0  0  0  0  0  0  0  0  0  0  0
    1.7280  -17.5493    4.3159 H   0  0  0  0  0  0  0  0  0  0  0  0
    2.2924  -16.8081    2.0103 H   0  0  0  0  0  0  0  0  0  0  0  0
  1  2  2  0
  2  3  1  0
  3  4  1  0
  4  5  2  0
  5  6  1  0
  6  7  1  0
  7  8  1  0
  8  9  1  0
  9 10  1  0
 10 11  1  0
 11 12  2  0
 12 13  1  0
 13 14  2  0
 14 15  1  0
 15 16  2  0
  2 17  1  0
 17 18  2  0
 18 19  1  0
 19 20  1  0
 20 21  2  0
 20 22  1  0
 22 23  2  0
 23 24  1  0
 24 25  2  0
 25 26  1  0
 26 27  2  0
 27 28  1  0
 28 29  2  0
 28 30  2  0
 28 31  1  0
 19 32  1  0
 32 33  2  0
 33 34  1  0
 34 35  1  0
 35 36  2  0
 36 37  1  0
 37 38  2  0
 38 39  1  0
 38 40  1  0
 40 41  2  0
 34 42  2  0
 42 43  1  0
 43 44  2  0
  7  3  2  0
 16 11  1  0
 44 17  1  0
 10  6  1  0
 27 22  1  0
 44 32  1  0
 41 35  1  0
  4 45  1  0
  5 46  1  0
  8 47  1  0
  8 48  1  0
 10 49  1  6
 12 50  1  0
 13 51  1  0
 14 52  1  0
 16 53  1  0
 18 54  1  0
 23 55  1  0
 24 56  1  0
 25 57  1  0
 26 58  1  0
 33 59  1  0
 36 60  1  0
 37 61  1  0
 40 62  1  0
 41 63  1  0
 42 64  1  0
 43 65  1  0
M  CHG  1  31  -1
M  END
>  <meeko>  (4) 
{"is_sidechain": [false], "free_energy": -9.264, "intermolecular_energy": -13.355, "internal_energy": -1.769}

$$$$
LIB_WSTGIXIJIWZIHP__M_PUB_ALL__e8__s20260927
     RDKit          3D

 65 71  0  0  0  0  0  0  0  0999 V2000
    7.5400  -17.2130   -8.5900 O   0  0  0  0  0  0  0  0  0  0  0  0
    7.5710  -16.0030   -8.3670 C   0  0  0  0  0  0  0  0  0  0  0  0
    7.6910  -15.0560   -9.4810 C   0  0  0  0  0  0  0  0  0  0  0  0
    6.6980  -14.2800  -10.1630 C   0  0  0  0  0  0  0  0  0  0  0  0
    7.3160  -13.5220  -11.1400 C   0  0  0  0  0  0  0  0  0  0  0  0
    8.6440  -13.7730  -11.0490 N   0  0  0  0  0  0  0  0  0  0  0  0
    8.8940  -14.6930  -10.0680 C   0  0  0  0  0  0  0  0  0  0  0  0
   10.3110  -15.0710   -9.8730 C   0  0  0  0  0  0  0  0  0  0  0  0
   11.2380  -14.2020  -11.1990 S   0  0  0  0  0  0  0  0  0  0  0  0
    9.7730  -13.2730  -11.8220 C   0  0  2  0  0  0  0  0  0  0  0  0
    9.9700  -11.7840  -11.6970 C   0  0  0  0  0  0  0  0  0  0  0  0
    8.9460  -10.8470  -11.8860 C   0  0  0  0  0  0  0  0  0  0  0  0
    9.2100   -9.4880  -11.7390 C   0  0  0  0  0  0  0  0  0  0  0  0
   10.4930   -9.1030  -11.3950 C   0  0  0  0  0  0  0  0  0  0  0  0
   11.5060   -9.9700  -11.1870 N   0  0  0  0  0  0  0  0  0  0  0  0
   11.2210  -11.2830  -11.3400 C   0  0  0  0  0  0  0  0  0  0  0  0
    7.4600  -15.4830   -7.0010 C   0  0  0  0  0  0  0  0  0  0  0  0
    6.3510  -15.4960   -6.1750 C   0  0  0  0  0  0  0  0  0  0  0  0
    6.6770  -14.9970   -4.9210 N   0  0  0  0  0  0  0  0  0  0  0  0
    5.8360  -15.0290   -3.7780 C   0  0  0  0  0  0  0  0  0  0  0  0
    5.0560  -15.9760   -3.6550 O   0  0  0  0  0  0  0  0  0  0  0  0
    5.6610  -13.9010   -2.8370 C   0  0  0  0  0  0  0  0  0  0  0  0
    6.2230  -14.0750   -1.5580 C   0  0  0  0  0  0  0  0  0  0  0  0
    6.1050  -13.0780   -0.5870 C   0  0  0  0  0  0  0  0  0  0  0  0
    5.4330  -11.8950   -0.8840 C   0  0  0  0  0  0  0  0  0  0  0  0
    4.8890  -11.7060   -2.1550 C   0  0  0  0  0  0  0  0  0  0  0  0
    5.0030  -12.7080   -3.1330 C   0  0  0  0  0  0  0  0  0  0  0  0
    4.3350  -12.3580   -4.7670 S   0  0  0  0  0  0  0  0  0  0  0  0
    5.5190  -12.2330   -5.6020 O   0  0  0  0  0  0  0  0  0  0  0  0
    3.5890  -11.1210   -4.5580 O   0  0  0  0  0  0  0  0  0  0  0  0
    3.5260  -13.5490   -4.9940 O   0  0  0  0  0  0  0  0  0  0  0  0
    8.0160  -14.6000   -4.9620 C   0  0  0  0  0  0  0  0  0  0  0  0
    8.8270  -13.9850   -3.9830 C   0  0  0  0  0  0  0  0  0  0  0  0
   10.1790  -13.7070   -4.2590 C   0  0  0  0  0  0  0  0  0  0  0  0
   11.0390  -13.0730   -3.2420 C   0  0  0  0  0  0  0  0  0  0  0  0
   10.6100  -12.9500   -1.9070 C   0  0  0  0  0  0  0  0  0  0  0  0
   11.4260  -12.3540   -0.9400 C   0  0  0  0  0  0  0  0  0  0  0  0
   12.6770  -11.8760   -1.3030 C   0  0  0  0  0  0  0  0  0  0  0  0
   13.4610  -11.3070   -0.3770 F   0  0  0  0  0  0  0  0  0  0  0  0
   13.1270  -11.9760   -2.6120 C   0  0  0  0  0  0  0  0  0  0  0  0
   12.3100  -12.5720   -3.5770 C   0  0  0  0  0  0  0  0  0  0  0  0
   10.6870  -14.0500   -5.5160 C   0  0  0  0  0  0  0  0  0  0  0  0
    9.8810  -14.6440   -6.4950 C   0  0  0  0  0  0  0  0  0  0  0  0
    8.5220  -14.9190   -6.2240 C   0  0  0  0  0  0  0  0  0  0  0  0
    5.6199  -14.2864   -9.9447 H   0  0  0  0  0  0  0  0  0  0  0  0
    6.8240  -12.8452  -11.8540 H   0  0  0  0  0  0  0  0  0  0  0  0
   10.6625  -14.7467   -8.8824 H   0  0  0  0  0  0  0  0  0  0  0  0
   10.4531  -16.1606   -9.9227 H   0  0  0  0  0  0  0  0  0  0  0  0
    9.6029  -13.4320  -12.8971 H   0  0  0  0  0  0  0  0  0  0  0  0
    7.9332  -11.1850  -12.1506 H   0  0  0  0  0  0  0  0  0  0  0  0
    8.4185   -8.7397  -11.8925 H   0  0  0  0  0  0  0  0  0  0  0  0
   10.6996   -8.0282  -11.2846 H   0  0  0  0  0  0  0  0  0  0  0  0
   12.0326  -12.0060  -11.1710 H   0  0  0  0  0  0  0  0  0  0  0  0
    5.3525  -15.8512   -6.4696 H   0  0  0  0  0  0  0  0  0  0  0  0
    6.7603  -15.0052   -1.3211 H   0  0  0  0  0  0  0  0  0  0  0  0
    6.5424  -13.2271    0.4112 H   0  0  0  0  0  0  0  0  0  0  0  0
    5.3313  -11.1115   -0.1186 H   0  0  0  0  0  0  0  0  0  0  0  0
    4.3678  -10.7669   -2.3925 H   0  0  0  0  0  0  0  0  0  0  0  0
    8.4014  -13.7228   -3.0031 H   0  0  0  0  0  0  0  0  0  0  0  0
    9.6178  -13.3284   -1.6199 H   0  0  0  0  0  0  0  0  0  0  0  0
   11.0788  -12.2649    0.1000 H   0  0  0  0  0  0  0  0  0  0  0  0
   14.1191  -11.5892   -2.8881 H   0  0  0  0  0  0  0  0  0  0  0  0
   12.6666  -12.6505   -4.6146 H   0  0  0  0  0  0  0  0  0  0  0  0
   11.7447  -13.8484   -5.7410 H   0  0  0  0  0  0  0  0  0  0  0  0
   10.3069  -14.8970   -7.4771 H   0  0  0  0  0  0  0  0  0  0  0  0
  1  2  2  0
  2  3  1  0
  3  4  1  0
  4  5  2  0
  5  6  1  0
  6  7  1  0
  7  8  1  0
  8  9  1  0
  9 10  1  0
 10 11  1  0
 11 12  2  0
 12 13  1  0
 13 14  2  0
 14 15  1  0
 15 16  2  0
  2 17  1  0
 17 18  2  0
 18 19  1  0
 19 20  1  0
 20 21  2  0
 20 22  1  0
 22 23  2  0
 23 24  1  0
 24 25  2  0
 25 26  1  0
 26 27  2  0
 27 28  1  0
 28 29  2  0
 28 30  2  0
 28 31  1  0
 19 32  1  0
 32 33  2  0
 33 34  1  0
 34 35  1  0
 35 36  2  0
 36 37  1  0
 37 38  2  0
 38 39  1  0
 38 40  1  0
 40 41  2  0
 34 42  2  0
 42 43  1  0
 43 44  2  0
  7  3  2  0
 16 11  1  0
 44 17  1  0
 10  6  1  0
 27 22  1  0
 44 32  1  0
 41 35  1  0
  4 45  1  0
  5 46  1  0
  8 47  1  0
  8 48  1  0
 10 49  1  6
 12 50  1  0
 13 51  1  0
 14 52  1  0
 16 53  1  0
 18 54  1  0
 23 55  1  0
 24 56  1  0
 25 57  1  0
 26 58  1  0
 33 59  1  0
 36 60  1  0
 37 61  1  0
 40 62  1  0
 41 63  1  0
 42 64  1  0
 43 65  1  0
M  CHG  1  31  -1
M  END
>  <meeko>  (5) 
{"is_sidechain": [false], "free_energy": -9.254, "intermolecular_energy": -13.353, "internal_energy": -1.757}

$$$$
LIB_WSTGIXIJIWZIHP__M_PUB_ALL__e8__s20260927
     RDKit          3D

 65 71  0  0  0  0  0  0  0  0999 V2000
    0.8050   -9.8970   -1.5760 O   0  0  0  0  0  0  0  0  0  0  0  0
    1.1030  -10.8240   -0.8240 C   0  0  0  0  0  0  0  0  0  0  0  0
    0.2300  -11.1590    0.3070 C   0  0  0  0  0  0  0  0  0  0  0  0
   -0.2190  -10.3650    1.4120 C   0  0  0  0  0  0  0  0  0  0  0  0
   -1.0460  -11.1350    2.2080 C   0  0  0  0  0  0  0  0  0  0  0  0
   -1.1530  -12.3440    1.6080 N   0  0  0  0  0  0  0  0  0  0  0  0
   -0.3940  -12.3870    0.4720 C   0  0  0  0  0  0  0  0  0  0  0  0
   -0.4070  -13.6640   -0.2750 C   0  0  0  0  0  0  0  0  0  0  0  0
   -1.4000  -14.8210    0.7480 S   0  0  0  0  0  0  0  0  0  0  0  0
   -1.8770  -13.5490    1.9930 C   0  0  2  0  0  0  0  0  0  0  0  0
   -3.3720  -13.3580    2.0400 C   0  0  0  0  0  0  0  0  0  0  0  0
   -4.1590  -13.6690    3.1560 C   0  0  0  0  0  0  0  0  0  0  0  0
   -5.5330  -13.4500    3.1220 C   0  0  0  0  0  0  0  0  0  0  0  0
   -6.0830  -12.9130    1.9720 C   0  0  0  0  0  0  0  0  0  0  0  0
   -5.3630  -12.5820    0.8800 N   0  0  0  0  0  0  0  0  0  0  0  0
   -4.0300  -12.8090    0.9410 C   0  0  0  0  0  0  0  0  0  0  0  0
    2.3070  -11.6280   -1.0540 C   0  0  0  0  0  0  0  0  0  0  0  0
    3.0610  -12.3150   -0.1210 C   0  0  0  0  0  0  0  0  0  0  0  0
    4.0680  -13.0350   -0.7490 N   0  0  0  0  0  0  0  0  0  0  0  0
    4.9120  -13.9880   -0.1230 C   0  0  0  0  0  0  0  0  0  0  0  0
    4.5240  -14.5120    0.9240 O   0  0  0  0  0  0  0  0  0  0  0  0
    6.3200  -14.2370   -0.5030 C   0  0  0  0  0  0  0  0  0  0  0  0
    6.5560  -15.4010   -1.2580 C   0  0  0  0  0  0  0  0  0  0  0  0
    7.8510  -15.7390   -1.6590 C   0  0  0  0  0  0  0  0  0  0  0  0
    8.9210  -14.9150   -1.3200 C   0  0  0  0  0  0  0  0  0  0  0  0
    8.6940  -13.7490   -0.5880 C   0  0  0  0  0  0  0  0  0  0  0  0
    7.3930  -13.4080   -0.1790 C   0  0  0  0  0  0  0  0  0  0  0  0
    7.1760  -11.8530    0.7010 S   0  0  0  0  0  0  0  0  0  0  0  0
    6.4120  -12.2300    1.8790 O   0  0  0  0  0  0  0  0  0  0  0  0
    6.4590  -11.0280   -0.2660 O   0  0  0  0  0  0  0  0  0  0  0  0
    8.5640  -11.4780    0.9410 O   0  0  0  0  0  0  0  0  0  0  0  0
    3.9930  -12.7560   -2.1170 C   0  0  0  0  0  0  0  0  0  0  0  0
    4.8050  -13.1810   -3.1910 C   0  0  0  0  0  0  0  0  0  0  0  0
    4.5030  -12.7820   -4.5050 C   0  0  0  0  0  0  0  0  0  0  0  0
    5.3380  -13.2260   -5.6370 C   0  0  0  0  0  0  0  0  0  0  0  0
    6.2910  -14.2480   -5.4760 C   0  0  0  0  0  0  0  0  0  0  0  0
    7.0800  -14.6740   -6.5480 C   0  0  0  0  0  0  0  0  0  0  0  0
    6.9210  -14.0790   -7.7920 C   0  0  0  0  0  0  0  0  0  0  0  0
    7.6750  -14.4880   -8.8220 F   0  0  0  0  0  0  0  0  0  0  0  0
    5.9940  -13.0640   -7.9830 C   0  0  0  0  0  0  0  0  0  0  0  0
    5.2070  -12.6400   -6.9100 C   0  0  0  0  0  0  0  0  0  0  0  0
    3.3910  -11.9600   -4.7130 C   0  0  0  0  0  0  0  0  0  0  0  0
    2.5940  -11.5220   -3.6480 C   0  0  0  0  0  0  0  0  0  0  0  0
    2.8980  -11.9160   -2.3260 C   0  0  0  0  0  0  0  0  0  0  0  0
    0.0504   -9.3146    1.5966 H   0  0  0  0  0  0  0  0  0  0  0  0
   -1.5252  -10.8251    3.1484 H   0  0  0  0  0  0  0  0  0  0  0  0
   -0.8727  -13.5272   -1.2621 H   0  0  0  0  0  0  0  0  0  0  0  0
    0.6101  -14.0445   -0.4503 H   0  0  0  0  0  0  0  0  0  0  0  0
   -1.6109  -13.8459    3.0182 H   0  0  0  0  0  0  0  0  0  0  0  0
   -3.6910  -14.0865    4.0597 H   0  0  0  0  0  0  0  0  0  0  0  0
   -6.1653  -13.6976    3.9874 H   0  0  0  0  0  0  0  0  0  0  0  0
   -7.1700  -12.7462    1.9463 H   0  0  0  0  0  0  0  0  0  0  0  0
   -3.4243  -12.5417    0.0625 H   0  0  0  0  0  0  0  0  0  0  0  0
    2.8876  -12.2941    0.9650 H   0  0  0  0  0  0  0  0  0  0  0  0
    5.7129  -16.0509   -1.5351 H   0  0  0  0  0  0  0  0  0  0  0  0
    8.0251  -16.6554   -2.2421 H   0  0  0  0  0  0  0  0  0  0  0  0
    9.9424  -15.1825   -1.6284 H   0  0  0  0  0  0  0  0  0  0  0  0
    9.5381  -13.0927   -0.3294 H   0  0  0  0  0  0  0  0  0  0  0  0
    5.6756  -13.8255   -2.9994 H   0  0  0  0  0  0  0  0  0  0  0  0
    6.4173  -14.7196   -4.4903 H   0  0  0  0  0  0  0  0  0  0  0  0
    7.8212  -15.4745   -6.4071 H   0  0  0  0  0  0  0  0  0  0  0  0
    5.8799  -12.5969   -8.9723 H   0  0  0  0  0  0  0  0  0  0  0  0
    4.4729  -11.8351   -7.0622 H   0  0  0  0  0  0  0  0  0  0  0  0
    3.1363  -11.6501   -5.7373 H   0  0  0  0  0  0  0  0  0  0  0  0
    1.7295  -10.8698   -3.8413 H   0  0  0  0  0  0  0  0  0  0  0  0
  1  2  2  0
  2  3  1  0
  3  4  1  0
  4  5  2  0
  5  6  1  0
  6  7  1  0
  7  8  1  0
  8  9  1  0
  9 10  1  0
 10 11  1  0
 11 12  2  0
 12 13  1  0
 13 14  2  0
 14 15  1  0
 15 16  2  0
  2 17  1  0
 17 18  2  0
 18 19  1  0
 19 20  1  0
 20 21  2  0
 20 22  1  0
 22 23  2  0
 23 24  1  0
 24 25  2  0
 25 26  1  0
 26 27  2  0
 27 28  1  0
 28 29  2  0
 28 30  2  0
 28 31  1  0
 19 32  1  0
 32 33  2  0
 33 34  1  0
 34 35  1  0
 35 36  2  0
 36 37  1  0
 37 38  2  0
 38 39  1  0
 38 40  1  0
 40 41  2  0
 34 42  2  0
 42 43  1  0
 43 44  2  0
  7  3  2  0
 16 11  1  0
 44 17  1  0
 10  6  1  0
 27 22  1  0
 44 32  1  0
 41 35  1  0
  4 45  1  0
  5 46  1  0
  8 47  1  0
  8 48  1  0
 10 49  1  1
 12 50  1  0
 13 51  1  0
 14 52  1  0
 16 53  1  0
 18 54  1  0
 23 55  1  0
 24 56  1  0
 25 57  1  0
 26 58  1  0
 33 59  1  0
 36 60  1  0
 37 61  1  0
 40 62  1  0
 41 63  1  0
 42 64  1  0
 43 65  1  0
M  CHG  1  31  -1
M  END
>  <meeko>  (6) 
{"is_sidechain": [false], "free_energy": -9.166, "intermolecular_energy": -13.32, "internal_energy": -1.666}

$$$$
LIB_WSTGIXIJIWZIHP__M_PUB_ALL__e8__s20260927
     RDKit          3D

 65 71  0  0  0  0  0  0  0  0999 V2000
    2.8850  -13.7170   -5.1550 O   0  0  0  0  0  0  0  0  0  0  0  0
    3.2800  -13.6230   -3.9930 C   0  0  0  0  0  0  0  0  0  0  0  0
    4.6380  -13.1410   -3.7190 C   0  0  0  0  0  0  0  0  0  0  0  0
    5.2420  -11.8610   -3.9410 C   0  0  0  0  0  0  0  0  0  0  0  0
    6.5500  -11.9010   -3.4950 C   0  0  0  0  0  0  0  0  0  0  0  0
    6.7490  -13.1350   -2.9740 N   0  0  0  0  0  0  0  0  0  0  0  0
    5.6220  -13.8990   -3.1010 C   0  0  0  0  0  0  0  0  0  0  0  0
    5.7100  -15.2830   -2.5840 C   0  0  0  0  0  0  0  0  0  0  0  0
    7.4550  -15.5000   -2.0540 S   0  0  0  0  0  0  0  0  0  0  0  0
    7.9270  -13.7480   -2.3740 C   0  0  2  0  0  0  0  0  0  0  0  0
    8.3810  -13.0600   -1.1120 C   0  0  0  0  0  0  0  0  0  0  0  0
    7.5050  -12.4750   -0.1880 C   0  0  0  0  0  0  0  0  0  0  0  0
    8.0070  -11.8690    0.9600 C   0  0  0  0  0  0  0  0  0  0  0  0
    9.3750  -11.8740    1.1600 C   0  0  0  0  0  0  0  0  0  0  0  0
   10.2550  -12.4390    0.3070 N   0  0  0  0  0  0  0  0  0  0  0  0
    9.7390  -13.0170   -0.8020 C   0  0  0  0  0  0  0  0  0  0  0  0
    2.4030  -13.9580   -2.8680 C   0  0  0  0  0  0  0  0  0  0  0  0
    1.9930  -15.2120   -2.4530 C   0  0  0  0  0  0  0  0  0  0  0  0
    1.2450  -15.1150   -1.2880 N   0  0  0  0  0  0  0  0  0  0  0  0
    0.8170  -16.2090   -0.4910 C   0  0  0  0  0  0  0  0  0  0  0  0
    1.3460  -17.3080   -0.6770 O   0  0  0  0  0  0  0  0  0  0  0  0
   -0.3710  -16.1890    0.3890 C   0  0  0  0  0  0  0  0  0  0  0  0
   -1.6180  -16.1300   -0.2630 C   0  0  0  0  0  0  0  0  0  0  0  0
   -2.8040  -16.0920    0.4730 C   0  0  0  0  0  0  0  0  0  0  0  0
   -2.7610  -16.1230    1.8650 C   0  0  0  0  0  0  0  0  0  0  0  0
   -1.5310  -16.2000    2.5190 C   0  0  0  0  0  0  0  0  0  0  0  0
   -0.3350  -16.2340    1.7820 C   0  0  0  0  0  0  0  0  0  0  0  0
    1.2040  -16.4040    2.6990 S   0  0  0  0  0  0  0  0  0  0  0  0
    0.8220  -16.1020    4.0700 O   0  0  0  0  0  0  0  0  0  0  0  0
    2.0730  -15.4180    2.0660 O   0  0  0  0  0  0  0  0  0  0  0  0
    1.5320  -17.7980    2.4270 O   0  0  0  0  0  0  0  0  0  0  0  0
    1.1220  -13.7580   -0.9790 C   0  0  0  0  0  0  0  0  0  0  0  0
    0.4260  -13.1080    0.0630 C   0  0  0  0  0  0  0  0  0  0  0  0
    0.4810  -11.7070    0.1830 C   0  0  0  0  0  0  0  0  0  0  0  0
   -0.2350  -11.0170    1.2730 C   0  0  0  0  0  0  0  0  0  0  0  0
   -0.7690  -11.7370    2.3580 C   0  0  0  0  0  0  0  0  0  0  0  0
   -1.4420  -11.0840    3.3940 C   0  0  0  0  0  0  0  0  0  0  0  0
   -1.5900   -9.7040    3.3510 C   0  0  0  0  0  0  0  0  0  0  0  0
   -2.2330   -9.0770    4.3440 F   0  0  0  0  0  0  0  0  0  0  0  0
   -1.0810   -8.9660    2.2920 C   0  0  0  0  0  0  0  0  0  0  0  0
   -0.4070   -9.6200    1.2570 C   0  0  0  0  0  0  0  0  0  0  0  0
    1.2340  -10.9880   -0.7500 C   0  0  0  0  0  0  0  0  0  0  0  0
    1.9120  -11.6280   -1.7950 C   0  0  0  0  0  0  0  0  0  0  0  0
    1.8540  -13.0330   -1.9230 C   0  0  0  0  0  0  0  0  0  0  0  0
    4.7462  -10.9890   -4.3925 H   0  0  0  0  0  0  0  0  0  0  0  0
    7.2874  -11.0868   -3.5523 H   0  0  0  0  0  0  0  0  0  0  0  0
    5.0295  -15.4183   -1.7304 H   0  0  0  0  0  0  0  0  0  0  0  0
    5.4203  -16.0219   -3.3456 H   0  0  0  0  0  0  0  0  0  0  0  0
    8.7898  -13.6646   -3.0512 H   0  0  0  0  0  0  0  0  0  0  0  0
    6.4203  -12.4947   -0.3700 H   0  0  0  0  0  0  0  0  0  0  0  0
    7.3322  -11.3979    1.6899 H   0  0  0  0  0  0  0  0  0  0  0  0
    9.7685  -11.3899    2.0660 H   0  0  0  0  0  0  0  0  0  0  0  0
   10.4402  -13.4857   -1.5082 H   0  0  0  0  0  0  0  0  0  0  0  0
    2.2267  -16.1529   -2.9727 H   0  0  0  0  0  0  0  0  0  0  0  0
   -1.6580  -16.1137   -1.3622 H   0  0  0  0  0  0  0  0  0  0  0  0
   -3.7722  -16.0376   -0.0463 H   0  0  0  0  0  0  0  0  0  0  0  0
   -3.6939  -16.0869    2.4467 H   0  0  0  0  0  0  0  0  0  0  0  0
   -1.4972  -16.2343    3.6179 H   0  0  0  0  0  0  0  0  0  0  0  0
   -0.1606  -13.6979    0.7827 H   0  0  0  0  0  0  0  0  0  0  0  0
   -0.6548  -12.8306    2.3910 H   0  0  0  0  0  0  0  0  0  0  0  0
   -1.8516  -11.6590    4.2375 H   0  0  0  0  0  0  0  0  0  0  0  0
   -1.2071   -7.8735    2.2672 H   0  0  0  0  0  0  0  0  0  0  0  0
   -0.0049   -9.0343    0.4172 H   0  0  0  0  0  0  0  0  0  0  0  0
    1.2954   -9.8933   -0.6612 H   0  0  0  0  0  0  0  0  0  0  0  0
    2.4912  -11.0347   -2.5179 H   0  0  0  0  0  0  0  0  0  0  0  0
  1  2  2  0
  2  3  1  0
  3  4  1  0
  4  5  2  0
  5  6  1  0
  6  7  1  0
  7  8  1  0
  8  9  1  0
  9 10  1  0
 10 11  1  0
 11 12  2  0
 12 13  1  0
 13 14  2  0
 14 15  1  0
 15 16  2  0
  2 17  1  0
 17 18  2  0
 18 19  1  0
 19 20  1  0
 20 21  2  0
 20 22  1  0
 22 23  2  0
 23 24  1  0
 24 25  2  0
 25 26  1  0
 26 27  2  0
 27 28  1  0
 28 29  2  0
 28 30  2  0
 28 31  1  0
 19 32  1  0
 32 33  2  0
 33 34  1  0
 34 35  1  0
 35 36  2  0
 36 37  1  0
 37 38  2  0
 38 39  1  0
 38 40  1  0
 40 41  2  0
 34 42  2  0
 42 43  1  0
 43 44  2  0
  7  3  2  0
 16 11  1  0
 44 17  1  0
 10  6  1  0
 27 22  1  0
 44 32  1  0
 41 35  1  0
  4 45  1  0
  5 46  1  0
  8 47  1  0
  8 48  1  0
 10 49  1  6
 12 50  1  0
 13 51  1  0
 14 52  1  0
 16 53  1  0
 18 54  1  0
 23 55  1  0
 24 56  1  0
 25 57  1  0
 26 58  1  0
 33 59  1  0
 36 60  1  0
 37 61  1  0
 40 62  1  0
 41 63  1  0
 42 64  1  0
 43 65  1  0
M  CHG  1  31  -1
M  END
>  <meeko>  (7) 
{"is_sidechain": [false], "free_energy": -9.127, "intermolecular_energy": -12.811, "internal_energy": -2.12}

$$$$
LIB_WSTGIXIJIWZIHP__M_PUB_ALL__e8__s20260927
     RDKit          3D

 65 71  0  0  0  0  0  0  0  0999 V2000
    7.5570  -17.1260   -9.0730 O   0  0  0  0  0  0  0  0  0  0  0  0
    7.8190  -16.2830   -8.2150 C   0  0  0  0  0  0  0  0  0  0  0  0
    8.8600  -15.2820   -8.4670 C   0  0  0  0  0  0  0  0  0  0  0  0
   10.1290  -15.0680   -7.8360 C   0  0  0  0  0  0  0  0  0  0  0  0
   10.7570  -13.9990   -8.4450 C   0  0  0  0  0  0  0  0  0  0  0  0
    9.9440  -13.5840   -9.4460 N   0  0  0  0  0  0  0  0  0  0  0  0
    8.7990  -14.3320   -9.4760 C   0  0  0  0  0  0  0  0  0  0  0  0
    7.8110  -13.9710  -10.5170 C   0  0  0  0  0  0  0  0  0  0  0  0
    8.4870  -12.4750  -11.3390 S   0  0  0  0  0  0  0  0  0  0  0  0
   10.0780  -12.4990  -10.4090 C   0  0  2  0  0  0  0  0  0  0  0  0
   11.2560  -12.6640  -11.3340 C   0  0  0  0  0  0  0  0  0  0  0  0
   12.5460  -12.2040  -11.0400 C   0  0  0  0  0  0  0  0  0  0  0  0
   13.5820  -12.4090  -11.9460 C   0  0  0  0  0  0  0  0  0  0  0  0
   13.3020  -13.0810  -13.1220 C   0  0  0  0  0  0  0  0  0  0  0  0
   12.0800  -13.5570  -13.4410 N   0  0  0  0  0  0  0  0  0  0  0  0
   11.0920  -13.3400  -12.5420 C   0  0  0  0  0  0  0  0  0  0  0  0
    7.0830  -16.2410   -6.9480 C   0  0  0  0  0  0  0  0  0  0  0  0
    7.0470  -17.2030   -5.9540 C   0  0  0  0  0  0  0  0  0  0  0  0
    6.3140  -16.7460   -4.8670 N   0  0  0  0  0  0  0  0  0  0  0  0
    6.2200  -17.3940   -3.6070 C   0  0  0  0  0  0  0  0  0  0  0  0
    6.4470  -18.6050   -3.5560 O   0  0  0  0  0  0  0  0  0  0  0  0
    5.6500  -16.7760   -2.3910 C   0  0  0  0  0  0  0  0  0  0  0  0
    4.2870  -17.0330   -2.1510 C   0  0  0  0  0  0  0  0  0  0  0  0
    3.6440  -16.4880   -1.0370 C   0  0  0  0  0  0  0  0  0  0  0  0
    4.3560  -15.6890   -0.1460 C   0  0  0  0  0  0  0  0  0  0  0  0
    5.7120  -15.4450   -0.3650 C   0  0  0  0  0  0  0  0  0  0  0  0
    6.3610  -15.9880   -1.4860 C   0  0  0  0  0  0  0  0  0  0  0  0
    8.1260  -15.6820   -1.6580 S   0  0  0  0  0  0  0  0  0  0  0  0
    8.2210  -14.9000   -2.8810 O   0  0  0  0  0  0  0  0  0  0  0  0
    8.6850  -17.0280   -1.7380 O   0  0  0  0  0  0  0  0  0  0  0  0
    8.4010  -14.9590   -0.4230 O   0  0  0  0  0  0  0  0  0  0  0  0
    5.8190  -15.4810   -5.1950 C   0  0  0  0  0  0  0  0  0  0  0  0
    4.9790  -14.6040   -4.4750 C   0  0  0  0  0  0  0  0  0  0  0  0
    4.6410  -13.3490   -5.0150 C   0  0  0  0  0  0  0  0  0  0  0  0
    3.7710  -12.4190   -4.2690 C   0  0  0  0  0  0  0  0  0  0  0  0
    3.0300  -12.8570   -3.1570 C   0  0  0  0  0  0  0  0  0  0  0  0
    2.2100  -11.9760   -2.4450 C   0  0  0  0  0  0  0  0  0  0  0  0
    2.1240  -10.6500   -2.8430 C   0  0  0  0  0  0  0  0  0  0  0  0
    1.3410   -9.8040   -2.1610 F   0  0  0  0  0  0  0  0  0  0  0  0
    2.8370  -10.1880   -3.9410 C   0  0  0  0  0  0  0  0  0  0  0  0
    3.6570  -11.0690   -4.6500 C   0  0  0  0  0  0  0  0  0  0  0  0
    5.1510  -13.0040   -6.2710 C   0  0  0  0  0  0  0  0  0  0  0  0
    5.9700  -13.8790   -6.9950 C   0  0  0  0  0  0  0  0  0  0  0  0
    6.3070  -15.1420   -6.4590 C   0  0  0  0  0  0  0  0  0  0  0  0
   10.5365  -15.6589   -7.0024 H   0  0  0  0  0  0  0  0  0  0  0  0
   11.7307  -13.5674   -8.1699 H   0  0  0  0  0  0  0  0  0  0  0  0
    7.6999  -14.7907  -11.2420 H   0  0  0  0  0  0  0  0  0  0  0  0
    6.8155  -13.7854  -10.0874 H   0  0  0  0  0  0  0  0  0  0  0  0
   10.2741  -11.5481   -9.8919 H   0  0  0  0  0  0  0  0  0  0  0  0
   12.7401  -11.6804  -10.0923 H   0  0  0  0  0  0  0  0  0  0  0  0
   14.5981  -12.0458  -11.7323 H   0  0  0  0  0  0  0  0  0  0  0  0
   14.1222  -13.2364  -13.8383 H   0  0  0  0  0  0  0  0  0  0  0  0
   10.0893  -13.7239  -12.7813 H   0  0  0  0  0  0  0  0  0  0  0  0
    7.5302  -18.1892   -6.0162 H   0  0  0  0  0  0  0  0  0  0  0  0
    3.7223  -17.6697   -2.8480 H   0  0  0  0  0  0  0  0  0  0  0  0
    2.5766  -16.6897   -0.8638 H   0  0  0  0  0  0  0  0  0  0  0  0
    3.8508  -15.2516    0.7278 H   0  0  0  0  0  0  0  0  0  0  0  0
    6.2768  -14.8231    0.3451 H   0  0  0  0  0  0  0  0  0  0  0  0
    4.5882  -14.9019   -3.4908 H   0  0  0  0  0  0  0  0  0  0  0  0
    3.0964  -13.9089   -2.8423 H   0  0  0  0  0  0  0  0  0  0  0  0
    1.6374  -12.3319   -1.5758 H   0  0  0  0  0  0  0  0  0  0  0  0
    2.7568   -9.1355   -4.2505 H   0  0  0  0  0  0  0  0  0  0  0  0
    4.2222  -10.7020   -5.5194 H   0  0  0  0  0  0  0  0  0  0  0  0
    4.9028  -12.0220   -6.7001 H   0  0  0  0  0  0  0  0  0  0  0  0
    6.3518  -13.5824   -7.9831 H   0  0  0  0  0  0  0  0  0  0  0  0
  1  2  2  0
  2  3  1  0
  3  4  1  0
  4  5  2  0
  5  6  1  0
  6  7  1  0
  7  8  1  0
  8  9  1  0
  9 10  1  0
 10 11  1  0
 11 12  2  0
 12 13  1  0
 13 14  2  0
 14 15  1  0
 15 16  2  0
  2 17  1  0
 17 18  2  0
 18 19  1  0
 19 20  1  0
 20 21  2  0
 20 22  1  0
 22 23  2  0
 23 24  1  0
 24 25  2  0
 25 26  1  0
 26 27  2  0
 27 28  1  0
 28 29  2  0
 28 30  2  0
 28 31  1  0
 19 32  1  0
 32 33  2  0
 33 34  1  0
 34 35  1  0
 35 36  2  0
 36 37  1  0
 37 38  2  0
 38 39  1  0
 38 40  1  0
 40 41  2  0
 34 42  2  0
 42 43  1  0
 43 44  2  0
  7  3  2  0
 16 11  1  0
 44 17  1  0
 10  6  1  0
 27 22  1  0
 44 32  1  0
 41 35  1  0
  4 45  1  0
  5 46  1  0
  8 47  1  0
  8 48  1  0
 10 49  1  1
 12 50  1  0
 13 51  1  0
 14 52  1  0
 16 53  1  0
 18 54  1  0
 23 55  1  0
 24 56  1  0
 25 57  1  0
 26 58  1  0
 33 59  1  0
 36 60  1  0
 37 61  1  0
 40 62  1  0
 41 63  1  0
 42 64  1  0
 43 65  1  0
M  CHG  1  31  -1
M  END
>  <meeko>  (8) 
{"is_sidechain": [false], "free_energy": -9.079, "intermolecular_energy": -12.748, "internal_energy": -2.115}

$$$$
LIB_WSTGIXIJIWZIHP__M_PUB_ALL__e8__s20260927
     RDKit          3D

 65 71  0  0  0  0  0  0  0  0999 V2000
    5.5700  -13.3270    2.8900 O   0  0  0  0  0  0  0  0  0  0  0  0
    5.1660  -13.3900    1.7290 C   0  0  0  0  0  0  0  0  0  0  0  0
    5.9950  -12.8730    0.6360 C   0  0  0  0  0  0  0  0  0  0  0  0
    6.1480  -11.5430    0.1240 C   0  0  0  0  0  0  0  0  0  0  0  0
    7.0650  -11.5660   -0.9110 C   0  0  0  0  0  0  0  0  0  0  0  0
    7.5040  -12.8420   -1.0170 N   0  0  0  0  0  0  0  0  0  0  0  0
    6.8750  -13.6450   -0.1070 C   0  0  0  0  0  0  0  0  0  0  0  0
    7.2520  -15.0760   -0.1280 C   0  0  0  0  0  0  0  0  0  0  0  0
    8.4010  -15.2610   -1.5490 S   0  0  0  0  0  0  0  0  0  0  0  0
    8.4580  -13.4590   -1.9300 C   0  0  2  0  0  0  0  0  0  0  0  0
    9.8550  -12.9110   -1.7950 C   0  0  0  0  0  0  0  0  0  0  0  0
   10.5600  -12.8700   -0.5840 C   0  0  0  0  0  0  0  0  0  0  0  0
   11.8530  -12.3570   -0.5490 C   0  0  0  0  0  0  0  0  0  0  0  0
   12.4140  -11.9080   -1.7300 C   0  0  0  0  0  0  0  0  0  0  0  0
   11.7800  -11.9430   -2.9210 N   0  0  0  0  0  0  0  0  0  0  0  0
   10.5230  -12.4430   -2.9250 C   0  0  0  0  0  0  0  0  0  0  0  0
    3.8730  -14.0060    1.4120 C   0  0  0  0  0  0  0  0  0  0  0  0
    3.5680  -15.3530    1.3450 C   0  0  0  0  0  0  0  0  0  0  0  0
    2.2100  -15.5290    1.1110 N   0  0  0  0  0  0  0  0  0  0  0  0
    1.5210  -16.7680    1.1610 C   0  0  0  0  0  0  0  0  0  0  0  0
    1.9430  -17.6990    0.4700 O   0  0  0  0  0  0  0  0  0  0  0  0
    0.2030  -16.9670    1.8010 C   0  0  0  0  0  0  0  0  0  0  0  0
   -0.9050  -16.9940    0.9330 C   0  0  0  0  0  0  0  0  0  0  0  0
   -2.1980  -17.1630    1.4340 C   0  0  0  0  0  0  0  0  0  0  0  0
   -2.3990  -17.3140    2.8040 C   0  0  0  0  0  0  0  0  0  0  0  0
   -1.3050  -17.3070    3.6700 C   0  0  0  0  0  0  0  0  0  0  0  0
   -0.0030  -17.1340    3.1700 C   0  0  0  0  0  0  0  0  0  0  0  0
    1.3570  -17.2070    4.3460 S   0  0  0  0  0  0  0  0  0  0  0  0
    1.8640  -15.8430    4.3690 O   0  0  0  0  0  0  0  0  0  0  0  0
    2.2540  -18.1910    3.7480 O   0  0  0  0  0  0  0  0  0  0  0  0
    0.6590  -17.6420    5.5480 O   0  0  0  0  0  0  0  0  0  0  0  0
    1.6410  -14.2610    0.9670 C   0  0  0  0  0  0  0  0  0  0  0  0
    0.3170  -13.8730    0.6690 C   0  0  0  0  0  0  0  0  0  0  0  0
   -0.0220  -12.5080    0.6070 C   0  0  0  0  0  0  0  0  0  0  0  0
   -1.4040  -12.0900    0.3050 C   0  0  0  0  0  0  0  0  0  0  0  0
   -1.7270  -10.7310    0.1370 C   0  0  0  0  0  0  0  0  0  0  0  0
   -3.0350  -10.3320   -0.1550 C   0  0  0  0  0  0  0  0  0  0  0  0
   -4.0310  -11.2910   -0.2780 C   0  0  0  0  0  0  0  0  0  0  0  0
   -5.2840  -10.9110   -0.5600 F   0  0  0  0  0  0  0  0  0  0  0  0
   -3.7460  -12.6390   -0.1120 C   0  0  0  0  0  0  0  0  0  0  0  0
   -2.4380  -13.0360    0.1790 C   0  0  0  0  0  0  0  0  0  0  0  0
    0.9800  -11.5620    0.8430 C   0  0  0  0  0  0  0  0  0  0  0  0
    2.2980  -11.9430    1.1220 C   0  0  0  0  0  0  0  0  0  0  0  0
    2.6440  -13.3120    1.1790 C   0  0  0  0  0  0  0  0  0  0  0  0
    5.6222  -10.6503    0.4937 H   0  0  0  0  0  0  0  0  0  0  0  0
    7.3775  -10.7115   -1.5293 H   0  0  0  0  0  0  0  0  0  0  0  0
    7.7534  -15.3551    0.8105 H   0  0  0  0  0  0  0  0  0  0  0  0
    6.3718  -15.7281   -0.2278 H   0  0  0  0  0  0  0  0  0  0  0  0
    8.1847  -13.2432   -2.9734 H   0  0  0  0  0  0  0  0  0  0  0  0
   10.0911  -13.2433    0.3384 H   0  0  0  0  0  0  0  0  0  0  0  0
   12.4151  -12.3099    0.3954 H   0  0  0  0  0  0  0  0  0  0  0  0
   13.4347  -11.4991   -1.6972 H   0  0  0  0  0  0  0  0  0  0  0  0
    9.9912  -12.4829   -3.8871 H   0  0  0  0  0  0  0  0  0  0  0  0
    4.2967  -16.1689    1.4605 H   0  0  0  0  0  0  0  0  0  0  0  0
   -0.7511  -16.8809   -0.1503 H   0  0  0  0  0  0  0  0  0  0  0  0
   -3.0569  -17.1768    0.7470 H   0  0  0  0  0  0  0  0  0  0  0  0
   -3.4169  -17.4384    3.2019 H   0  0  0  0  0  0  0  0  0  0  0  0
   -1.4626  -17.4377    4.7508 H   0  0  0  0  0  0  0  0  0  0  0  0
   -0.4512  -14.6385    0.4849 H   0  0  0  0  0  0  0  0  0  0  0  0
   -0.9384   -9.9706    0.2369 H   0  0  0  0  0  0  0  0  0  0  0  0
   -3.2729   -9.2661   -0.2863 H   0  0  0  0  0  0  0  0  0  0  0  0
   -4.5441  -13.3898   -0.2088 H   0  0  0  0  0  0  0  0  0  0  0  0
   -2.2133  -14.1046    0.3116 H   0  0  0  0  0  0  0  0  0  0  0  0
    0.7266  -10.4921    0.8086 H   0  0  0  0  0  0  0  0  0  0  0  0
    3.0659  -11.1751    1.2972 H   0  0  0  0  0  0  0  0  0  0  0  0
  1  2  2  0
  2  3  1  0
  3  4  1  0
  4  5  2  0
  5  6  1  0
  6  7  1  0
  7  8  1  0
  8  9  1  0
  9 10  1  0
 10 11  1  0
 11 12  2  0
 12 13  1  0
 13 14  2  0
 14 15  1  0
 15 16  2  0
  2 17  1  0
 17 18  2  0
 18 19  1  0
 19 20  1  0
 20 21  2  0
 20 22  1  0
 22 23  2  0
 23 24  1  0
 24 25  2  0
 25 26  1  0
 26 27  2  0
 27 28  1  0
 28 29  2  0
 28 30  2  0
 28 31  1  0
 19 32  1  0
 32 33  2  0
 33 34  1  0
 34 35  1  0
 35 36  2  0
 36 37  1  0
 37 38  2  0
 38 39  1  0
 38 40  1  0
 40 41  2  0
 34 42  2  0
 42 43  1  0
 43 44  2  0
  7  3  2  0
 16 11  1  0
 44 17  1  0
 10  6  1  0
 27 22  1  0
 44 32  1  0
 41 35  1  0
  4 45  1  0
  5 46  1  0
  8 47  1  0
  8 48  1  0
 10 49  1  6
 12 50  1  0
 13 51  1  0
 14 52  1  0
 16 53  1  0
 18 54  1  0
 23 55  1  0
 24 56  1  0
 25 57  1  0
 26 58  1  0
 33 59  1  0
 36 60  1  0
 37 61  1  0
 40 62  1  0
 41 63  1  0
 42 64  1  0
 43 65  1  0
M  CHG  1  31  -1
M  END
>  <meeko>  (9) 
{"is_sidechain": [false], "free_energy": -9.054, "intermolecular_energy": -12.581, "internal_energy": -2.248}

$$$$
