LIB_CKMROKZCLFVFRW__M_PUB_ALL__e8__s20260927
     RDKit          3D

 63 65  0  0  0  0  0  0  0  0999 V2000
   10.8630  -11.7340    1.2860 C   0  0  0  0  0  0  0  0  0  0  0  0
   10.2350  -12.7120    0.4660 O   0  0  0  0  0  0  0  0  0  0  0  0
    9.0110  -12.3890   -0.0520 C   0  0  0  0  0  0  0  0  0  0  0  0
    7.9630  -11.7800    0.6330 C   0  0  0  0  0  0  0  0  0  0  0  0
    6.7520  -11.5070   -0.0220 C   0  0  0  0  0  0  0  0  0  0  0  0
    6.5490  -11.8320   -1.3710 C   0  0  0  0  0  0  0  0  0  0  0  0
    5.3590  -11.5490   -1.9360 N   0  0  0  0  0  0  0  0  0  0  0  0
    5.1770  -11.8080   -3.2580 C   0  0  0  0  0  0  0  0  0  0  0  0
    3.9480  -11.4660   -3.8850 C   0  0  0  0  0  0  0  0  0  0  0  0
    2.8290  -10.7850   -3.1590 C   0  0  0  0  0  0  0  0  0  0  0  0
    2.4520   -9.6520   -3.4570 O   0  0  0  0  0  0  0  0  0  0  0  0
    2.3260  -11.4310   -2.0570 N   0  0  0  0  0  0  0  0  0  0  0  0
    1.3750  -10.8400   -1.1430 C   0  0  0  0  0  0  0  0  0  0  0  0
    1.2150  -11.6610    0.1500 C   0  0  0  0  0  0  0  0  0  0  0  0
    0.6690  -10.8070    1.2840 N   0  0  0  0  0  0  0  0  0  0  0  0
   -0.4590  -11.4730    2.0180 C   0  0  0  0  0  0  0  0  0  0  0  0
    0.3690   -9.4020    0.8970 C   0  0  0  0  0  0  0  0  0  0  0  0
    3.7300  -11.7080   -5.2490 C   0  0  0  0  0  0  0  0  0  0  0  0
    4.7170  -12.3050   -6.0290 C   0  0  0  0  0  0  0  0  0  0  0  0
    5.9530  -12.6430   -5.4780 C   0  0  0  0  0  0  0  0  0  0  0  0
    6.9300  -13.2500   -6.2640 N   0  0  0  0  0  0  0  0  0  0  0  0
    6.6530  -14.4020   -7.1070 C   0  0  0  0  0  0  0  0  0  0  0  0
    6.9670  -14.0790   -8.5870 C   0  0  0  0  0  0  0  0  0  0  0  0
    8.3850  -13.5730   -8.7670 N   0  0  0  0  0  0  0  0  0  0  0  0
    8.6090  -12.8910  -10.0760 C   0  0  0  0  0  0  0  0  0  0  0  0
    9.4500  -14.5720   -8.4510 C   0  0  0  0  0  0  0  0  0  0  0  0
    6.1590  -12.4010   -4.0910 C   0  0  0  0  0  0  0  0  0  0  0  0
    7.4300  -12.8280   -3.4400 C   0  0  0  0  0  0  0  0  0  0  0  0
    8.2600  -13.5250   -4.0270 O   0  0  0  0  0  0  0  0  0  0  0  0
    7.6210  -12.4450   -2.0320 C   0  0  0  0  0  0  0  0  0  0  0  0
    8.8360  -12.7230   -1.3910 C   0  0  0  0  0  0  0  0  0  0  0  0
   10.7018  -11.9850    2.3448 H   0  0  0  0  0  0  0  0  0  0  0  0
   11.9422  -11.7156    1.0737 H   0  0  0  0  0  0  0  0  0  0  0  0
   10.4307  -10.7451    1.0737 H   0  0  0  0  0  0  0  0  0  0  0  0
    8.0847  -11.5115    1.6928 H   0  0  0  0  0  0  0  0  0  0  0  0
    5.9385  -11.0240    0.5392 H   0  0  0  0  0  0  0  0  0  0  0  0
    2.8370  -12.2820   -1.7940 H   0  0  0  0  0  0  0  0  0  0  0  0
    1.7198   -9.8293   -0.8793 H   0  0  0  0  0  0  0  0  0  0  0  0
    0.3975  -10.8139   -1.6467 H   0  0  0  0  0  0  0  0  0  0  0  0
    0.5207  -12.4933   -0.0378 H   0  0  0  0  0  0  0  0  0  0  0  0
    2.2049  -12.0385    0.4458 H   0  0  0  0  0  0  0  0  0  0  0  0
    1.4350  -10.7430    1.9870 H   0  0  0  0  0  0  0  0  0  0  0  0
   -0.2979  -11.3779    3.1020 H   0  0  0  0  0  0  0  0  0  0  0  0
   -1.4094  -10.9911    1.7449 H   0  0  0  0  0  0  0  0  0  0  0  0
   -0.4961  -12.5379    1.7449 H   0  0  0  0  0  0  0  0  0  0  0  0
    0.2387   -8.7920    1.8030 H   0  0  0  0  0  0  0  0  0  0  0  0
    1.2016   -9.0001    0.3009 H   0  0  0  0  0  0  0  0  0  0  0  0
   -0.5551   -9.3752    0.3009 H   0  0  0  0  0  0  0  0  0  0  0  0
    2.7710  -11.4238   -5.7067 H   0  0  0  0  0  0  0  0  0  0  0  0
    4.5198  -12.5123   -7.0911 H   0  0  0  0  0  0  0  0  0  0  0  0
    7.8900  -13.0660   -5.9600 H   0  0  0  0  0  0  0  0  0  0  0  0
    7.2766  -15.2474   -6.7809 H   0  0  0  0  0  0  0  0  0  0  0  0
    5.5874  -14.6599   -7.0177 H   0  0  0  0  0  0  0  0  0  0  0  0
    6.8368  -14.9926   -9.1857 H   0  0  0  0  0  0  0  0  0  0  0  0
    6.2782  -13.2872   -8.9166 H   0  0  0  0  0  0  0  0  0  0  0  0
    8.4950  -12.8160   -8.0530 H   0  0  0  0  0  0  0  0  0  0  0  0
    8.9478  -11.8596   -9.8988 H   0  0  0  0  0  0  0  0  0  0  0  0
    9.3754  -13.4357  -10.6468 H   0  0  0  0  0  0  0  0  0  0  0  0
    7.6688  -12.8752  -10.6468 H   0  0  0  0  0  0  0  0  0  0  0  0
    9.5514  -14.6671   -7.3598 H   0  0  0  0  0  0  0  0  0  0  0  0
    9.1769  -15.5473   -8.8803 H   0  0  0  0  0  0  0  0  0  0  0  0
   10.4058  -14.2372   -8.8803 H   0  0  0  0  0  0  0  0  0  0  0  0
    9.6525  -13.2061   -1.9477 H   0  0  0  0  0  0  0  0  0  0  0  0
  1  2  1  0
  2  3  1  0
  3  4  2  0
  4  5  1  0
  5  6  2  0
  6  7  1  0
  7  8  1  0
  8  9  2  0
  9 10  1  0
 10 11  2  0
 10 12  1  0
 12 13  1  0
 13 14  1  0
 14 15  1  0
 15 16  1  0
 15 17  1  0
  9 18  1  0
 18 19  2  0
 19 20  1  0
 20 21  1  0
 21 22  1  0
 22 23  1  0
 23 24  1  0
 24 25  1  0
 24 26  1  0
 20 27  2  0
 27 28  1  0
 28 29  2  0
 28 30  1  0
 30 31  2  0
 31  3  1  0
 30  6  1  0
 27  8  1  0
  1 32  1  0
  1 33  1  0
  1 34  1  0
  4 35  1  0
  5 36  1  0
 12 37  1  0
 13 38  1  0
 13 39  1  0
 14 40  1  0
 14 41  1  0
 15 42  1  0
 16 43  1  0
 16 44  1  0
 16 45  1  0
 17 46  1  0
 17 47  1  0
 17 48  1  0
 18 49  1  0
 19 50  1  0
 21 51  1  0
 22 52  1  0
 22 53  1  0
 23 54  1  0
 23 55  1  0
 24 56  1  0
 25 57  1  0
 25 58  1  0
 25 59  1  0
 26 60  1  0
 26 61  1  0
 26 62  1  0
 31 63  1  0
M  CHG  3   7  -1  15   1  24   1
M  END
>  <meeko>  (1) 
{"is_sidechain": [false], "free_energy": -7.141, "intermolecular_energy": -10.898, "internal_energy": -1.044}

$$$$
LIB_CKMROKZCLFVFRW__M_PUB_ALL__e8__s20260927
     RDKit          3D

 63 65  0  0  0  0  0  0  0  0999 V2000
   11.0000  -11.4740    0.9510 C   0  0  0  0  0  0  0  0  0  0  0  0
   10.0270  -12.5120    0.9350 O   0  0  0  0  0  0  0  0  0  0  0  0
    8.8250  -12.2200    0.3510 C   0  0  0  0  0  0  0  0  0  0  0  0
    7.7360  -11.6130    0.9700 C   0  0  0  0  0  0  0  0  0  0  0  0
    6.5540  -11.3750    0.2520 C   0  0  0  0  0  0  0  0  0  0  0  0
    6.4200  -11.7350   -1.0970 C   0  0  0  0  0  0  0  0  0  0  0  0
    5.2550  -11.4850   -1.7240 N   0  0  0  0  0  0  0  0  0  0  0  0
    5.1410  -11.7780   -3.0460 C   0  0  0  0  0  0  0  0  0  0  0  0
    3.9380  -11.4720   -3.7400 C   0  0  0  0  0  0  0  0  0  0  0  0
    2.7760  -10.7920   -3.0840 C   0  0  0  0  0  0  0  0  0  0  0  0
    2.3730   -9.6880   -3.4520 O   0  0  0  0  0  0  0  0  0  0  0  0
    2.2560  -11.3980   -1.9680 N   0  0  0  0  0  0  0  0  0  0  0  0
    1.2590  -10.7940   -1.1150 C   0  0  0  0  0  0  0  0  0  0  0  0
    1.0050  -11.6120    0.1640 C   0  0  0  0  0  0  0  0  0  0  0  0
    0.5660  -10.7200    1.3150 N   0  0  0  0  0  0  0  0  0  0  0  0
   -0.5840  -11.2970    2.0890 C   0  0  0  0  0  0  0  0  0  0  0  0
    0.3630   -9.2960    0.9370 C   0  0  0  0  0  0  0  0  0  0  0  0
    3.7900  -11.7490   -5.1060 C   0  0  0  0  0  0  0  0  0  0  0  0
    4.8220  -12.3480   -5.8240 C   0  0  0  0  0  0  0  0  0  0  0  0
    6.0350  -12.6530   -5.2060 C   0  0  0  0  0  0  0  0  0  0  0  0
    7.0580  -13.2620   -5.9300 N   0  0  0  0  0  0  0  0  0  0  0  0
    6.8060  -14.2760   -6.9410 C   0  0  0  0  0  0  0  0  0  0  0  0
    6.4590  -15.6290   -6.2770 C   0  0  0  0  0  0  0  0  0  0  0  0
    7.3130  -15.8940   -5.0530 N   0  0  0  0  0  0  0  0  0  0  0  0
    8.5750  -16.6300   -5.3610 C   0  0  0  0  0  0  0  0  0  0  0  0
    6.5780  -16.4760   -3.8910 C   0  0  0  0  0  0  0  0  0  0  0  0
    6.1700  -12.3750   -3.8180 C   0  0  0  0  0  0  0  0  0  0  0  0
    7.4160  -12.7650   -3.0970 C   0  0  0  0  0  0  0  0  0  0  0  0
    8.2830  -13.4630   -3.6260 O   0  0  0  0  0  0  0  0  0  0  0  0
    7.5330  -12.3460   -1.6910 C   0  0  0  0  0  0  0  0  0  0  0  0
    8.7190  -12.5890   -0.9860 C   0  0  0  0  0  0  0  0  0  0  0  0
   11.2428  -11.2150    1.9921 H   0  0  0  0  0  0  0  0  0  0  0  0
   11.9100  -11.8165    0.4366 H   0  0  0  0  0  0  0  0  0  0  0  0
   10.5995  -10.5880    0.4366 H   0  0  0  0  0  0  0  0  0  0  0  0
    7.8023  -11.3183    2.0277 H   0  0  0  0  0  0  0  0  0  0  0  0
    5.7076  -10.8919    0.7622 H   0  0  0  0  0  0  0  0  0  0  0  0
    2.7850  -12.2180   -1.6460 H   0  0  0  0  0  0  0  0  0  0  0  0
    1.6016   -9.7887   -0.8288 H   0  0  0  0  0  0  0  0  0  0  0  0
    0.3157  -10.7538   -1.6794 H   0  0  0  0  0  0  0  0  0  0  0  0
    0.2167  -12.3528   -0.0356 H   0  0  0  0  0  0  0  0  0  0  0  0
    1.9440  -12.1087    0.4495 H   0  0  0  0  0  0  0  0  0  0  0  0
    1.3580  -10.7170    1.9910 H   0  0  0  0  0  0  0  0  0  0  0  0
   -0.3870  -11.1982    3.1667 H   0  0  0  0  0  0  0  0  0  0  0  0
   -1.5065  -10.7550    1.8337 H   0  0  0  0  0  0  0  0  0  0  0  0
   -0.7010  -12.3605    1.8337 H   0  0  0  0  0  0  0  0  0  0  0  0
    0.2758   -8.6840    1.8468 H   0  0  0  0  0  0  0  0  0  0  0  0
    1.2207   -8.9486    0.3423 H   0  0  0  0  0  0  0  0  0  0  0  0
   -0.5576   -9.2022    0.3423 H   0  0  0  0  0  0  0  0  0  0  0  0
    2.8500  -11.4909   -5.6156 H   0  0  0  0  0  0  0  0  0  0  0  0
    4.6793  -12.5830   -6.8891 H   0  0  0  0  0  0  0  0  0  0  0  0
    7.9770  -13.2120   -5.4840 H   0  0  0  0  0  0  0  0  0  0  0  0
    5.9639  -13.9562   -7.5724 H   0  0  0  0  0  0  0  0  0  0  0  0
    7.7120  -14.4018   -7.5521 H   0  0  0  0  0  0  0  0  0  0  0  0
    5.4010  -15.6165   -5.9764 H   0  0  0  0  0  0  0  0  0  0  0  0
    6.6544  -16.4273   -7.0081 H   0  0  0  0  0  0  0  0  0  0  0  0
    7.6310  -14.9490   -4.7350 H   0  0  0  0  0  0  0  0  0  0  0  0
    9.0697  -16.9185   -4.4219 H   0  0  0  0  0  0  0  0  0  0  0  0
    8.3400  -17.5327   -5.9440 H   0  0  0  0  0  0  0  0  0  0  0  0
    9.2450  -15.9810   -5.9440 H   0  0  0  0  0  0  0  0  0  0  0  0
    7.0303  -16.1179   -2.9544 H   0  0  0  0  0  0  0  0  0  0  0  0
    5.5235  -16.1653   -3.9312 H   0  0  0  0  0  0  0  0  0  0  0  0
    6.6387  -17.5736   -3.9312 H   0  0  0  0  0  0  0  0  0  0  0  0
    9.5683  -13.0727   -1.4908 H   0  0  0  0  0  0  0  0  0  0  0  0
  1  2  1  0
  2  3  1  0
  3  4  2  0
  4  5  1  0
  5  6  2  0
  6  7  1  0
  7  8  1  0
  8  9  2  0
  9 10  1  0
 10 11  2  0
 10 12  1  0
 12 13  1  0
 13 14  1  0
 14 15  1  0
 15 16  1  0
 15 17  1  0
  9 18  1  0
 18 19  2  0
 19 20  1  0
 20 21  1  0
 21 22  1  0
 22 23  1  0
 23 24  1  0
 24 25  1  0
 24 26  1  0
 20 27  2  0
 27 28  1  0
 28 29  2  0
 28 30  1  0
 30 31  2  0
 31  3  1  0
 30  6  1  0
 27  8  1  0
  1 32  1  0
  1 33  1  0
  1 34  1  0
  4 35  1  0
  5 36  1  0
 12 37  1  0
 13 38  1  0
 13 39  1  0
 14 40  1  0
 14 41  1  0
 15 42  1  0
 16 43  1  0
 16 44  1  0
 16 45  1  0
 17 46  1  0
 17 47  1  0
 17 48  1  0
 18 49  1  0
 19 50  1  0
 21 51  1  0
 22 52  1  0
 22 53  1  0
 23 54  1  0
 23 55  1  0
 24 56  1  0
 25 57  1  0
 25 58  1  0
 25 59  1  0
 26 60  1  0
 26 61  1  0
 26 62  1  0
 31 63  1  0
M  CHG  3   7  -1  15   1  24   1
M  END
>  <meeko>  (2) 
{"is_sidechain": [false], "free_energy": -7.044, "intermolecular_energy": -10.201, "internal_energy": -1.592}

$$$$
LIB_CKMROKZCLFVFRW__M_PUB_ALL__e8__s20260927
     RDKit          3D

 63 65  0  0  0  0  0  0  0  0999 V2000
    8.2270  -15.3720   -9.9670 C   0  0  0  0  0  0  0  0  0  0  0  0
    7.1440  -15.2830   -9.0490 O   0  0  0  0  0  0  0  0  0  0  0  0
    7.4560  -14.9600   -7.7570 C   0  0  0  0  0  0  0  0  0  0  0  0
    8.5840  -15.3740   -7.0550 C   0  0  0  0  0  0  0  0  0  0  0  0
    8.7800  -14.9710   -5.7250 C   0  0  0  0  0  0  0  0  0  0  0  0
    7.8610  -14.1490   -5.0570 C   0  0  0  0  0  0  0  0  0  0  0  0
    8.1070  -13.8060   -3.7770 N   0  0  0  0  0  0  0  0  0  0  0  0
    7.2500  -12.9620   -3.1440 C   0  0  0  0  0  0  0  0  0  0  0  0
    7.5210  -12.5440   -1.8130 C   0  0  0  0  0  0  0  0  0  0  0  0
    8.7490  -12.9640   -1.0650 C   0  0  0  0  0  0  0  0  0  0  0  0
    8.7150  -13.8250   -0.1860 O   0  0  0  0  0  0  0  0  0  0  0  0
    9.8960  -12.2540   -1.3160 N   0  0  0  0  0  0  0  0  0  0  0  0
   11.1170  -12.4060   -0.5590 C   0  0  0  0  0  0  0  0  0  0  0  0
   12.2770  -12.9480   -1.4160 C   0  0  0  0  0  0  0  0  0  0  0  0
   13.4420  -11.9710   -1.4530 N   0  0  0  0  0  0  0  0  0  0  0  0
   13.2570  -10.8150   -0.5120 C   0  0  0  0  0  0  0  0  0  0  0  0
   13.8420  -11.5530   -2.8240 C   0  0  0  0  0  0  0  0  0  0  0  0
    6.6650  -11.6650   -1.1330 C   0  0  0  0  0  0  0  0  0  0  0  0
    5.5120  -11.1820   -1.7470 C   0  0  0  0  0  0  0  0  0  0  0  0
    5.2030  -11.5370   -3.0600 C   0  0  0  0  0  0  0  0  0  0  0  0
    4.0420  -11.0580   -3.6610 N   0  0  0  0  0  0  0  0  0  0  0  0
    2.7770  -10.9520   -2.9500 C   0  0  0  0  0  0  0  0  0  0  0  0
    2.2830  -12.3500   -2.5110 C   0  0  0  0  0  0  0  0  0  0  0  0
    2.5480  -13.4010   -3.5700 N   0  0  0  0  0  0  0  0  0  0  0  0
    1.3930  -13.6180   -4.4900 C   0  0  0  0  0  0  0  0  0  0  0  0
    3.1170  -14.6820   -3.0520 C   0  0  0  0  0  0  0  0  0  0  0  0
    6.0730  -12.4360   -3.7360 C   0  0  0  0  0  0  0  0  0  0  0  0
    5.7360  -12.9130   -5.1070 C   0  0  0  0  0  0  0  0  0  0  0  0
    4.6440  -12.6750   -5.6290 O   0  0  0  0  0  0  0  0  0  0  0  0
    6.7350  -13.7500   -5.7890 C   0  0  0  0  0  0  0  0  0  0  0  0
    6.5270  -14.1450   -7.1170 C   0  0  0  0  0  0  0  0  0  0  0  0
    9.1732  -15.4498   -9.4114 H   0  0  0  0  0  0  0  0  0  0  0  0
    8.0991  -16.2627  -10.5997 H   0  0  0  0  0  0  0  0  0  0  0  0
    8.2462  -14.4724  -10.5997 H   0  0  0  0  0  0  0  0  0  0  0  0
    9.3263  -16.0209   -7.5454 H   0  0  0  0  0  0  0  0  0  0  0  0
    9.6803  -15.3096   -5.1913 H   0  0  0  0  0  0  0  0  0  0  0  0
    9.7670  -11.4420   -1.9310 H   0  0  0  0  0  0  0  0  0  0  0  0
   11.4057  -11.4249   -0.1539 H   0  0  0  0  0  0  0  0  0  0  0  0
   10.9252  -13.1334    0.2435 H   0  0  0  0  0  0  0  0  0  0  0  0
   12.6225  -13.9012   -0.9893 H   0  0  0  0  0  0  0  0  0  0  0  0
   11.9115  -13.0906   -2.4437 H   0  0  0  0  0  0  0  0  0  0  0  0
   14.2600  -12.4880   -1.0710 H   0  0  0  0  0  0  0  0  0  0  0  0
   13.3145  -11.1744    0.5260 H   0  0  0  0  0  0  0  0  0  0  0  0
   14.0474  -10.0701   -0.6865 H   0  0  0  0  0  0  0  0  0  0  0  0
   12.2736  -10.3539   -0.6865 H   0  0  0  0  0  0  0  0  0  0  0  0
   14.6012  -10.7597   -2.7586 H   0  0  0  0  0  0  0  0  0  0  0  0
   14.2592  -12.4161   -3.3634 H   0  0  0  0  0  0  0  0  0  0  0  0
   12.9614  -11.1742   -3.3634 H   0  0  0  0  0  0  0  0  0  0  0  0
    6.9065  -11.3545   -0.1058 H   0  0  0  0  0  0  0  0  0  0  0  0
    4.8382  -10.5137   -1.1908 H   0  0  0  0  0  0  0  0  0  0  0  0
    4.0420  -11.1120   -4.6830 H   0  0  0  0  0  0  0  0  0  0  0  0
    2.9140  -10.3206   -2.0598 H   0  0  0  0  0  0  0  0  0  0  0  0
    2.0285  -10.5049   -3.6208 H   0  0  0  0  0  0  0  0  0  0  0  0
    2.8048  -12.6374   -1.5863 H   0  0  0  0  0  0  0  0  0  0  0  0
    1.1961  -12.2930   -2.3516 H   0  0  0  0  0  0  0  0  0  0  0  0
    3.2950  -12.9920   -4.1770 H   0  0  0  0  0  0  0  0  0  0  0  0
    0.4810  -13.7894   -3.8994 H   0  0  0  0  0  0  0  0  0  0  0  0
    1.2575  -12.7296   -5.1243 H   0  0  0  0  0  0  0  0  0  0  0  0
    1.5892  -14.4950   -5.1243 H   0  0  0  0  0  0  0  0  0  0  0  0
    3.1107  -14.6678   -1.9521 H   0  0  0  0  0  0  0  0  0  0  0  0
    2.5088  -15.5252   -3.4113 H   0  0  0  0  0  0  0  0  0  0  0  0
    4.1504  -14.7960   -3.4113 H   0  0  0  0  0  0  0  0  0  0  0  0
    5.6277  -13.8103   -7.6548 H   0  0  0  0  0  0  0  0  0  0  0  0
  1  2  1  0
  2  3  1  0
  3  4  2  0
  4  5  1  0
  5  6  2  0
  6  7  1  0
  7  8  1  0
  8  9  2  0
  9 10  1  0
 10 11  2  0
 10 12  1  0
 12 13  1  0
 13 14  1  0
 14 15  1  0
 15 16  1  0
 15 17  1  0
  9 18  1  0
 18 19  2  0
 19 20  1  0
 20 21  1  0
 21 22  1  0
 22 23  1  0
 23 24  1  0
 24 25  1  0
 24 26  1  0
 20 27  2  0
 27 28  1  0
 28 29  2  0
 28 30  1  0
 30 31  2  0
 31  3  1  0
 30  6  1  0
 27  8  1  0
  1 32  1  0
  1 33  1  0
  1 34  1  0
  4 35  1  0
  5 36  1  0
 12 37  1  0
 13 38  1  0
 13 39  1  0
 14 40  1  0
 14 41  1  0
 15 42  1  0
 16 43  1  0
 16 44  1  0
 16 45  1  0
 17 46  1  0
 17 47  1  0
 17 48  1  0
 18 49  1  0
 19 50  1  0
 21 51  1  0
 22 52  1  0
 22 53  1  0
 23 54  1  0
 23 55  1  0
 24 56  1  0
 25 57  1  0
 25 58  1  0
 25 59  1  0
 26 60  1  0
 26 61  1  0
 26 62  1  0
 31 63  1  0
M  CHG  3   7  -1  15   1  24   1
M  END
>  <meeko>  (3) 
{"is_sidechain": [false], "free_energy": -6.634, "intermolecular_energy": -9.739, "internal_energy": -1.43}

$$$$
LIB_CKMROKZCLFVFRW__M_PUB_ALL__e8__s20260927
     RDKit          3D

 63 65  0  0  0  0  0  0  0  0999 V2000
   -1.5880   -9.2020    3.7090 C   0  0  0  0  0  0  0  0  0  0  0  0
   -1.1510   -8.8370    2.4060 O   0  0  0  0  0  0  0  0  0  0  0  0
   -0.6360   -9.8370    1.6260 C   0  0  0  0  0  0  0  0  0  0  0  0
    0.2130   -9.6740    0.5350 C   0  0  0  0  0  0  0  0  0  0  0  0
    0.6650  -10.7910   -0.1840 C   0  0  0  0  0  0  0  0  0  0  0  0
    0.2860  -12.0970    0.1590 C   0  0  0  0  0  0  0  0  0  0  0  0
    0.7510  -13.1230   -0.5800 N   0  0  0  0  0  0  0  0  0  0  0  0
    0.4340  -14.3940   -0.2160 C   0  0  0  0  0  0  0  0  0  0  0  0
    0.9590  -15.4930   -0.9490 C   0  0  0  0  0  0  0  0  0  0  0  0
    1.8960  -15.3230   -2.1050 C   0  0  0  0  0  0  0  0  0  0  0  0
    3.0090  -15.8470   -2.1250 O   0  0  0  0  0  0  0  0  0  0  0  0
    1.5070  -14.4500   -3.0900 N   0  0  0  0  0  0  0  0  0  0  0  0
    2.3610  -14.0340   -4.1780 C   0  0  0  0  0  0  0  0  0  0  0  0
    3.5360  -13.1580   -3.7020 C   0  0  0  0  0  0  0  0  0  0  0  0
    3.0950  -12.1750   -2.6290 N   0  0  0  0  0  0  0  0  0  0  0  0
    2.7940  -10.8120   -3.1830 C   0  0  0  0  0  0  0  0  0  0  0  0
    3.9820  -12.1400   -1.4350 C   0  0  0  0  0  0  0  0  0  0  0  0
    0.6630  -16.8180   -0.5950 C   0  0  0  0  0  0  0  0  0  0  0  0
   -0.1700  -17.0930    0.4870 C   0  0  0  0  0  0  0  0  0  0  0  0
   -0.6990  -16.0590    1.2600 C   0  0  0  0  0  0  0  0  0  0  0  0
   -1.5390  -16.3440    2.3330 N   0  0  0  0  0  0  0  0  0  0  0  0
   -1.1630  -17.2570    3.4010 C   0  0  0  0  0  0  0  0  0  0  0  0
    0.0960  -16.7420    4.1370 C   0  0  0  0  0  0  0  0  0  0  0  0
   -0.1350  -15.3830    4.7680 N   0  0  0  0  0  0  0  0  0  0  0  0
    1.0280  -14.4580    4.6220 C   0  0  0  0  0  0  0  0  0  0  0  0
   -0.6640  -15.4240    6.1650 C   0  0  0  0  0  0  0  0  0  0  0  0
   -0.3980  -14.7200    0.8850 C   0  0  0  0  0  0  0  0  0  0  0  0
   -1.0130  -13.5820    1.6280 C   0  0  0  0  0  0  0  0  0  0  0  0
   -1.8990  -13.7550    2.4660 O   0  0  0  0  0  0  0  0  0  0  0  0
   -0.5710  -12.2280    1.2600 C   0  0  0  0  0  0  0  0  0  0  0  0
   -1.0290  -11.1210    1.9870 C   0  0  0  0  0  0  0  0  0  0  0  0
   -0.9713   -8.6869    4.4603 H   0  0  0  0  0  0  0  0  0  0  0  0
   -2.6411   -8.9114    3.8374 H   0  0  0  0  0  0  0  0  0  0  0  0
   -1.4896  -10.2900    3.8374 H   0  0  0  0  0  0  0  0  0  0  0  0
    0.5311   -8.6646    0.2350 H   0  0  0  0  0  0  0  0  0  0  0  0
    1.3363  -10.6378   -1.0418 H   0  0  0  0  0  0  0  0  0  0  0  0
    0.6440  -13.9320   -2.8820 H   0  0  0  0  0  0  0  0  0  0  0  0
    2.7658  -14.9299   -4.6715 H   0  0  0  0  0  0  0  0  0  0  0  0
    1.7532  -13.4321   -4.8696 H   0  0  0  0  0  0  0  0  0  0  0  0
    4.3231  -13.8073   -3.2911 H   0  0  0  0  0  0  0  0  0  0  0  0
    3.9125  -12.5857   -4.5627 H   0  0  0  0  0  0  0  0  0  0  0  0
    2.1760  -12.5230   -2.2830 H   0  0  0  0  0  0  0  0  0  0  0  0
    2.6380  -10.1056   -2.3543 H   0  0  0  0  0  0  0  0  0  0  0  0
    3.6388  -10.4723   -3.8002 H   0  0  0  0  0  0  0  0  0  0  0  0
    1.8847  -10.8597   -3.8002 H   0  0  0  0  0  0  0  0  0  0  0  0
    3.3690  -12.1642   -0.5220 H   0  0  0  0  0  0  0  0  0  0  0  0
    4.6518  -13.0124   -1.4501 H   0  0  0  0  0  0  0  0  0  0  0  0
    4.5810  -11.2175   -1.4501 H   0  0  0  0  0  0  0  0  0  0  0  0
    1.0925  -17.6468   -1.1769 H   0  0  0  0  0  0  0  0  0  0  0  0
   -0.4134  -18.1367    0.7347 H   0  0  0  0  0  0  0  0  0  0  0  0
   -2.5290  -16.1560    2.1550 H   0  0  0  0  0  0  0  0  0  0  0  0
   -1.9936  -17.3372    4.1177 H   0  0  0  0  0  0  0  0  0  0  0  0
   -0.9415  -18.2422    2.9648 H   0  0  0  0  0  0  0  0  0  0  0  0
    0.3652  -17.4595    4.9261 H   0  0  0  0  0  0  0  0  0  0  0  0
    0.9057  -16.6423    3.3991 H   0  0  0  0  0  0  0  0  0  0  0  0
   -0.8940  -14.9450    4.1980 H   0  0  0  0  0  0  0  0  0  0  0  0
    1.3930  -14.1677    5.6183 H   0  0  0  0  0  0  0  0  0  0  0  0
    1.8330  -14.9653    4.0701 H   0  0  0  0  0  0  0  0  0  0  0  0
    0.7148  -13.5595    4.0701 H   0  0  0  0  0  0  0  0  0  0  0  0
    0.1728  -15.3591    6.8760 H   0  0  0  0  0  0  0  0  0  0  0  0
   -1.3465  -14.5761    6.3237 H   0  0  0  0  0  0  0  0  0  0  0  0
   -1.2077  -16.3670    6.3237 H   0  0  0  0  0  0  0  0  0  0  0  0
   -1.7010  -11.2682    2.8453 H   0  0  0  0  0  0  0  0  0  0  0  0
  1  2  1  0
  2  3  1  0
  3  4  2  0
  4  5  1  0
  5  6  2  0
  6  7  1  0
  7  8  1  0
  8  9  2  0
  9 10  1  0
 10 11  2  0
 10 12  1  0
 12 13  1  0
 13 14  1  0
 14 15  1  0
 15 16  1  0
 15 17  1  0
  9 18  1  0
 18 19  2  0
 19 20  1  0
 20 21  1  0
 21 22  1  0
 22 23  1  0
 23 24  1  0
 24 25  1  0
 24 26  1  0
 20 27  2  0
 27 28  1  0
 28 29  2  0
 28 30  1  0
 30 31  2  0
 31  3  1  0
 30  6  1  0
 27  8  1  0
  1 32  1  0
  1 33  1  0
  1 34  1  0
  4 35  1  0
  5 36  1  0
 12 37  1  0
 13 38  1  0
 13 39  1  0
 14 40  1  0
 14 41  1  0
 15 42  1  0
 16 43  1  0
 16 44  1  0
 16 45  1  0
 17 46  1  0
 17 47  1  0
 17 48  1  0
 18 49  1  0
 19 50  1  0
 21 51  1  0
 22 52  1  0
 22 53  1  0
 23 54  1  0
 23 55  1  0
 24 56  1  0
 25 57  1  0
 25 58  1  0
 25 59  1  0
 26 60  1  0
 26 61  1  0
 26 62  1  0
 31 63  1  0
M  CHG  3   7  -1  15   1  24   1
M  END
>  <meeko>  (4) 
{"is_sidechain": [false], "free_energy": -6.63, "intermolecular_energy": -9.155, "internal_energy": -2.008}

$$$$
LIB_CKMROKZCLFVFRW__M_PUB_ALL__e8__s20260927
     RDKit          3D

 63 65  0  0  0  0  0  0  0  0999 V2000
   10.7280  -12.6240   -0.7530 C   0  0  0  0  0  0  0  0  0  0  0  0
    9.9810  -12.1930    0.3780 O   0  0  0  0  0  0  0  0  0  0  0  0
    8.6180  -12.2120    0.2600 C   0  0  0  0  0  0  0  0  0  0  0  0
    7.7030  -12.2390    1.3080 C   0  0  0  0  0  0  0  0  0  0  0  0
    6.3240  -12.2630    1.0440 C   0  0  0  0  0  0  0  0  0  0  0  0
    5.8190  -12.2590   -0.2640 C   0  0  0  0  0  0  0  0  0  0  0  0
    4.4840  -12.2900   -0.4450 N   0  0  0  0  0  0  0  0  0  0  0  0
    3.9890  -12.2280   -1.7100 C   0  0  0  0  0  0  0  0  0  0  0  0
    2.5830  -12.2040   -1.9200 C   0  0  0  0  0  0  0  0  0  0  0  0
    1.5950  -12.2040   -0.7940 C   0  0  0  0  0  0  0  0  0  0  0  0
    0.7840  -13.1160   -0.6380 O   0  0  0  0  0  0  0  0  0  0  0  0
    1.5490  -11.0750   -0.0150 N   0  0  0  0  0  0  0  0  0  0  0  0
    0.5420  -10.8350    0.9930 C   0  0  0  0  0  0  0  0  0  0  0  0
    0.0660   -9.3700    1.0120 C   0  0  0  0  0  0  0  0  0  0  0  0
   -1.3790   -9.2630    1.4750 N   0  0  0  0  0  0  0  0  0  0  0  0
   -1.5020   -9.1630    2.9680 C   0  0  0  0  0  0  0  0  0  0  0  0
   -2.2860  -10.2800    0.8780 C   0  0  0  0  0  0  0  0  0  0  0  0
    2.0370  -12.1290   -3.2100 C   0  0  0  0  0  0  0  0  0  0  0  0
    2.8650  -12.0870   -4.3290 C   0  0  0  0  0  0  0  0  0  0  0  0
    4.2530  -12.0850   -4.1880 C   0  0  0  0  0  0  0  0  0  0  0  0
    5.0720  -12.0540   -5.3130 N   0  0  0  0  0  0  0  0  0  0  0  0
    4.7510  -12.7730   -6.5360 C   0  0  0  0  0  0  0  0  0  0  0  0
    5.9220  -13.6990   -6.9430 C   0  0  0  0  0  0  0  0  0  0  0  0
    6.4700  -14.4700   -5.7590 N   0  0  0  0  0  0  0  0  0  0  0  0
    7.8890  -14.8990   -5.9380 C   0  0  0  0  0  0  0  0  0  0  0  0
    5.5930  -15.5770   -5.2730 C   0  0  0  0  0  0  0  0  0  0  0  0
    4.7940  -12.1710   -2.8750 C   0  0  0  0  0  0  0  0  0  0  0  0
    6.2700  -12.2620   -2.6820 C   0  0  0  0  0  0  0  0  0  0  0  0
    7.0420  -12.4200   -3.6290 O   0  0  0  0  0  0  0  0  0  0  0  0
    6.7660  -12.2340   -1.2970 C   0  0  0  0  0  0  0  0  0  0  0  0
    8.1440  -12.2110   -1.0480 C   0  0  0  0  0  0  0  0  0  0  0  0
   11.6349  -13.1473   -0.4157 H   0  0  0  0  0  0  0  0  0  0  0  0
   10.1146  -13.3070   -1.3590 H   0  0  0  0  0  0  0  0  0  0  0  0
   11.0123  -11.7511   -1.3590 H   0  0  0  0  0  0  0  0  0  0  0  0
    8.0615  -12.2416    2.3479 H   0  0  0  0  0  0  0  0  0  0  0  0
    5.6192  -12.2856    1.8882 H   0  0  0  0  0  0  0  0  0  0  0  0
    2.1430  -10.3050   -0.3470 H   0  0  0  0  0  0  0  0  0  0  0  0
   -0.3223  -11.4845    0.7902 H   0  0  0  0  0  0  0  0  0  0  0  0
    0.9904  -11.0542    1.9732 H   0  0  0  0  0  0  0  0  0  0  0  0
    0.7053   -8.7946    1.6978 H   0  0  0  0  0  0  0  0  0  0  0  0
    0.1328   -8.9705   -0.0107 H   0  0  0  0  0  0  0  0  0  0  0  0
   -1.7230   -8.3440    1.1240 H   0  0  0  0  0  0  0  0  0  0  0  0
   -0.7318   -9.7891    3.4421 H   0  0  0  0  0  0  0  0  0  0  0  0
   -1.3656   -8.1164    3.2779 H   0  0  0  0  0  0  0  0  0  0  0  0
   -2.4987   -9.5102    3.2779 H   0  0  0  0  0  0  0  0  0  0  0  0
   -2.7865  -10.8412    1.6808 H   0  0  0  0  0  0  0  0  0  0  0  0
   -3.0413   -9.7776    0.2559 H   0  0  0  0  0  0  0  0  0  0  0  0
   -1.7007  -10.9732    0.2559 H   0  0  0  0  0  0  0  0  0  0  0  0
    0.9449  -12.1031   -3.3389 H   0  0  0  0  0  0  0  0  0  0  0  0
    2.4200  -12.0551   -5.3345 H   0  0  0  0  0  0  0  0  0  0  0  0
    6.0430  -11.7940   -5.1210 H   0  0  0  0  0  0  0  0  0  0  0  0
    3.8488  -13.3807   -6.3725 H   0  0  0  0  0  0  0  0  0  0  0  0
    4.5766  -12.0447   -7.3417 H   0  0  0  0  0  0  0  0  0  0  0  0
    5.5640  -14.4141   -7.6983 H   0  0  0  0  0  0  0  0  0  0  0  0
    6.7305  -13.0702   -7.3443 H   0  0  0  0  0  0  0  0  0  0  0  0
    6.5010  -13.7780   -4.9760 H   0  0  0  0  0  0  0  0  0  0  0  0
    8.3564  -15.0403   -4.9523 H   0  0  0  0  0  0  0  0  0  0  0  0
    7.9180  -15.8461   -6.4968 H   0  0  0  0  0  0  0  0  0  0  0  0
    8.4379  -14.1266   -6.4968 H   0  0  0  0  0  0  0  0  0  0  0  0
    5.5873  -15.5842   -4.1730 H   0  0  0  0  0  0  0  0  0  0  0  0
    4.5689  -15.4233   -5.6440 H   0  0  0  0  0  0  0  0  0  0  0  0
    5.9769  -16.5387   -5.6440 H   0  0  0  0  0  0  0  0  0  0  0  0
    8.8532  -12.1921   -1.8886 H   0  0  0  0  0  0  0  0  0  0  0  0
  1  2  1  0
  2  3  1  0
  3  4  2  0
  4  5  1  0
  5  6  2  0
  6  7  1  0
  7  8  1  0
  8  9  2  0
  9 10  1  0
 10 11  2  0
 10 12  1  0
 12 13  1  0
 13 14  1  0
 14 15  1  0
 15 16  1  0
 15 17  1  0
  9 18  1  0
 18 19  2  0
 19 20  1  0
 20 21  1  0
 21 22  1  0
 22 23  1  0
 23 24  1  0
 24 25  1  0
 24 26  1  0
 20 27  2  0
 27 28  1  0
 28 29  2  0
 28 30  1  0
 30 31  2  0
 31  3  1  0
 30  6  1  0
 27  8  1  0
  1 32  1  0
  1 33  1  0
  1 34  1  0
  4 35  1  0
  5 36  1  0
 12 37  1  0
 13 38  1  0
 13 39  1  0
 14 40  1  0
 14 41  1  0
 15 42  1  0
 16 43  1  0
 16 44  1  0
 16 45  1  0
 17 46  1  0
 17 47  1  0
 17 48  1  0
 18 49  1  0
 19 50  1  0
 21 51  1  0
 22 52  1  0
 22 53  1  0
 23 54  1  0
 23 55  1  0
 24 56  1  0
 25 57  1  0
 25 58  1  0
 25 59  1  0
 26 60  1  0
 26 61  1  0
 26 62  1  0
 31 63  1  0
M  CHG  3   7  -1  15   1  24   1
M  END
>  <meeko>  (5) 
{"is_sidechain": [false], "free_energy": -6.565, "intermolecular_energy": -9.535, "internal_energy": -1.527}

$$$$
LIB_CKMROKZCLFVFRW__M_PUB_ALL__e8__s20260927
     RDKit          3D

 63 65  0  0  0  0  0  0  0  0999 V2000
    6.2410  -13.4540   -7.4930 C   0  0  0  0  0  0  0  0  0  0  0  0
    4.9900  -12.8190   -7.2590 O   0  0  0  0  0  0  0  0  0  0  0  0
    4.5570  -12.7690   -5.9630 C   0  0  0  0  0  0  0  0  0  0  0  0
    3.2620  -13.0200   -5.5180 C   0  0  0  0  0  0  0  0  0  0  0  0
    2.9510  -12.9280   -4.1530 C   0  0  0  0  0  0  0  0  0  0  0  0
    3.9150  -12.5850   -3.1930 C   0  0  0  0  0  0  0  0  0  0  0  0
    3.5460  -12.5070   -1.9000 N   0  0  0  0  0  0  0  0  0  0  0  0
    4.4890  -12.2320   -0.9610 C   0  0  0  0  0  0  0  0  0  0  0  0
    4.1320  -12.2000    0.4150 C   0  0  0  0  0  0  0  0  0  0  0  0
    2.7460  -12.4980    0.8990 C   0  0  0  0  0  0  0  0  0  0  0  0
    2.4000  -13.6320    1.2290 O   0  0  0  0  0  0  0  0  0  0  0  0
    1.8380  -11.4710    0.8380 N   0  0  0  0  0  0  0  0  0  0  0  0
    0.4250  -11.6310    1.0940 C   0  0  0  0  0  0  0  0  0  0  0  0
   -0.3070  -10.2820    1.2160 C   0  0  0  0  0  0  0  0  0  0  0  0
   -1.4180  -10.3450    2.2530 N   0  0  0  0  0  0  0  0  0  0  0  0
   -1.6160   -9.0400    2.9690 C   0  0  0  0  0  0  0  0  0  0  0  0
   -1.3240  -11.5100    3.1740 C   0  0  0  0  0  0  0  0  0  0  0  0
    5.0810  -11.9320    1.4120 C   0  0  0  0  0  0  0  0  0  0  0  0
    6.4080  -11.6760    1.0760 C   0  0  0  0  0  0  0  0  0  0  0  0
    6.8260  -11.7140   -0.2540 C   0  0  0  0  0  0  0  0  0  0  0  0
    8.1540  -11.4470   -0.5800 N   0  0  0  0  0  0  0  0  0  0  0  0
    9.2550  -12.2850   -0.1330 C   0  0  0  0  0  0  0  0  0  0  0  0
   10.1980  -12.6150   -1.3140 C   0  0  0  0  0  0  0  0  0  0  0  0
   11.6480  -12.6830   -0.8770 N   0  0  0  0  0  0  0  0  0  0  0  0
   12.0010  -13.9640   -0.1950 C   0  0  0  0  0  0  0  0  0  0  0  0
   12.1330  -11.4840   -0.1310 C   0  0  0  0  0  0  0  0  0  0  0  0
    5.8530  -11.9790   -1.2570 C   0  0  0  0  0  0  0  0  0  0  0  0
    6.2360  -11.9430   -2.6970 C   0  0  0  0  0  0  0  0  0  0  0  0
    7.3410  -11.5390   -3.0660 O   0  0  0  0  0  0  0  0  0  0  0  0
    5.2080  -12.3360   -3.6730 C   0  0  0  0  0  0  0  0  0  0  0  0
    5.5330  -12.4240   -5.0330 C   0  0  0  0  0  0  0  0  0  0  0  0
    6.7156  -13.6949   -6.5304 H   0  0  0  0  0  0  0  0  0  0  0  0
    6.0809  -14.3800   -8.0648 H   0  0  0  0  0  0  0  0  0  0  0  0
    6.8940  -12.7782   -8.0648 H   0  0  0  0  0  0  0  0  0  0  0  0
    2.4784  -13.2919   -6.2405 H   0  0  0  0  0  0  0  0  0  0  0  0
    1.9206  -13.1308   -3.8257 H   0  0  0  0  0  0  0  0  0  0  0  0
    2.1880  -10.6220    0.3770 H   0  0  0  0  0  0  0  0  0  0  0  0
   -0.0214  -12.2013    0.2661 H   0  0  0  0  0  0  0  0  0  0  0  0
    0.3161  -12.1590    2.0528 H   0  0  0  0  0  0  0  0  0  0  0  0
    0.4161   -9.5080    1.5128 H   0  0  0  0  0  0  0  0  0  0  0  0
   -0.7567  -10.0428    0.2410 H   0  0  0  0  0  0  0  0  0  0  0  0
   -2.3000  -10.4850    1.7180 H   0  0  0  0  0  0  0  0  0  0  0  0
   -1.5902   -9.2103    4.0554 H   0  0  0  0  0  0  0  0  0  0  0  0
   -0.8135   -8.3422    2.6880 H   0  0  0  0  0  0  0  0  0  0  0  0
   -2.5894   -8.6116    2.6880 H   0  0  0  0  0  0  0  0  0  0  0  0
   -1.3525  -11.1573    4.2155 H   0  0  0  0  0  0  0  0  0  0  0  0
   -2.1703  -12.1892    2.9937 H   0  0  0  0  0  0  0  0  0  0  0  0
   -0.3798  -12.0447    2.9937 H   0  0  0  0  0  0  0  0  0  0  0  0
    4.7746  -11.9239    2.4684 H   0  0  0  0  0  0  0  0  0  0  0  0
    7.1343  -11.4413    1.8681 H   0  0  0  0  0  0  0  0  0  0  0  0
    8.3350  -10.4750   -0.8450 H   0  0  0  0  0  0  0  0  0  0  0  0
    9.8219  -11.7533    0.6454 H   0  0  0  0  0  0  0  0  0  0  0  0
    8.8471  -13.2238    0.2699 H   0  0  0  0  0  0  0  0  0  0  0  0
    9.9087  -13.5873   -1.7392 H   0  0  0  0  0  0  0  0  0  0  0  0
   10.1039  -11.8123   -2.0602 H   0  0  0  0  0  0  0  0  0  0  0  0
   12.1990  -12.6980   -1.7650 H   0  0  0  0  0  0  0  0  0  0  0  0
   11.9619  -13.8219    0.8951 H   0  0  0  0  0  0  0  0  0  0  0  0
   11.2847  -14.7454   -0.4889 H   0  0  0  0  0  0  0  0  0  0  0  0
   13.0164  -14.2682   -0.4889 H   0  0  0  0  0  0  0  0  0  0  0  0
   12.0578  -11.6699    0.9506 H   0  0  0  0  0  0  0  0  0  0  0  0
   13.1819  -11.2862   -0.3970 H   0  0  0  0  0  0  0  0  0  0  0  0
   11.5167  -10.6126   -0.3970 H   0  0  0  0  0  0  0  0  0  0  0  0
    6.5613  -12.2201   -5.3662 H   0  0  0  0  0  0  0  0  0  0  0  0
  1  2  1  0
  2  3  1  0
  3  4  2  0
  4  5  1  0
  5  6  2  0
  6  7  1  0
  7  8  1  0
  8  9  2  0
  9 10  1  0
 10 11  2  0
 10 12  1  0
 12 13  1  0
 13 14  1  0
 14 15  1  0
 15 16  1  0
 15 17  1  0
  9 18  1  0
 18 19  2  0
 19 20  1  0
 20 21  1  0
 21 22  1  0
 22 23  1  0
 23 24  1  0
 24 25  1  0
 24 26  1  0
 20 27  2  0
 27 28  1  0
 28 29  2  0
 28 30  1  0
 30 31  2  0
 31  3  1  0
 30  6  1  0
 27  8  1  0
  1 32  1  0
  1 33  1  0
  1 34  1  0
  4 35  1  0
  5 36  1  0
 12 37  1  0
 13 38  1  0
 13 39  1  0
 14 40  1  0
 14 41  1  0
 15 42  1  0
 16 43  1  0
 16 44  1  0
 16 45  1  0
 17 46  1  0
 17 47  1  0
 17 48  1  0
 18 49  1  0
 19 50  1  0
 21 51  1  0
 22 52  1  0
 22 53  1  0
 23 54  1  0
 23 55  1  0
 24 56  1  0
 25 57  1  0
 25 58  1  0
 25 59  1  0
 26 60  1  0
 26 61  1  0
 26 62  1  0
 31 63  1  0
M  CHG  3   7  -1  15   1  24   1
M  END
>  <meeko>  (6) 
{"is_sidechain": [false], "free_energy": -6.479, "intermolecular_energy": -9.977, "internal_energy": -0.954}

$$$$
LIB_CKMROKZCLFVFRW__M_PUB_ALL__e8__s20260927
     RDKit          3D

 63 65  0  0  0  0  0  0  0  0999 V2000
    1.5480  -19.3140    5.0750 C   0  0  0  0  0  0  0  0  0  0  0  0
    1.0670  -18.4060    4.0930 O   0  0  0  0  0  0  0  0  0  0  0  0
   -0.1780  -17.8780    4.2990 C   0  0  0  0  0  0  0  0  0  0  0  0
   -1.0920  -18.2810    5.2690 C   0  0  0  0  0  0  0  0  0  0  0  0
   -2.3440  -17.6540    5.3680 C   0  0  0  0  0  0  0  0  0  0  0  0
   -2.7220  -16.6120    4.5090 C   0  0  0  0  0  0  0  0  0  0  0  0
   -3.9410  -16.0590    4.6550 N   0  0  0  0  0  0  0  0  0  0  0  0
   -4.2900  -15.0100    3.8630 C   0  0  0  0  0  0  0  0  0  0  0  0
   -5.5500  -14.3780    4.0380 C   0  0  0  0  0  0  0  0  0  0  0  0
   -6.5240  -14.7900    5.0990 C   0  0  0  0  0  0  0  0  0  0  0  0
   -6.7470  -14.0910    6.0870 O   0  0  0  0  0  0  0  0  0  0  0  0
   -7.0630  -16.0470    4.9850 N   0  0  0  0  0  0  0  0  0  0  0  0
   -7.8750  -16.6690    6.0060 C   0  0  0  0  0  0  0  0  0  0  0  0
   -9.3590  -16.7600    5.6030 C   0  0  0  0  0  0  0  0  0  0  0  0
  -10.2720  -16.5210    6.7950 N   0  0  0  0  0  0  0  0  0  0  0  0
   -9.5750  -15.8240    7.9280 C   0  0  0  0  0  0  0  0  0  0  0  0
  -11.0340  -17.7240    7.2280 C   0  0  0  0  0  0  0  0  0  0  0  0
   -5.9370  -13.2860    3.2470 C   0  0  0  0  0  0  0  0  0  0  0  0
   -5.0940  -12.7960    2.2530 C   0  0  0  0  0  0  0  0  0  0  0  0
   -3.8340  -13.3590    2.0470 C   0  0  0  0  0  0  0  0  0  0  0  0
   -3.0020  -12.8690    1.0440 N   0  0  0  0  0  0  0  0  0  0  0  0
   -2.4870  -11.5080    1.0480 C   0  0  0  0  0  0  0  0  0  0  0  0
   -0.9990  -11.4930    1.4710 C   0  0  0  0  0  0  0  0  0  0  0  0
   -0.5410  -10.1060    1.8770 N   0  0  0  0  0  0  0  0  0  0  0  0
   -1.6580   -9.2230    2.3270 C   0  0  0  0  0  0  0  0  0  0  0  0
    0.3630   -9.4340    0.8960 C   0  0  0  0  0  0  0  0  0  0  0  0
   -3.4570  -14.4720    2.8490 C   0  0  0  0  0  0  0  0  0  0  0  0
   -2.1570  -15.1610    2.6040 C   0  0  0  0  0  0  0  0  0  0  0  0
   -1.4560  -14.8990    1.6260 O   0  0  0  0  0  0  0  0  0  0  0  0
   -1.7810  -16.2300    3.5420 C   0  0  0  0  0  0  0  0  0  0  0  0
   -0.5280  -16.8470    3.4320 C   0  0  0  0  0  0  0  0  0  0  0  0
    1.3367  -18.9151    6.0781 H   0  0  0  0  0  0  0  0  0  0  0  0
    1.0461  -20.2853    4.9535 H   0  0  0  0  0  0  0  0  0  0  0  0
    2.6335  -19.4444    4.9535 H   0  0  0  0  0  0  0  0  0  0  0  0
   -0.8316  -19.0951    5.9614 H   0  0  0  0  0  0  0  0  0  0  0  0
   -3.0494  -17.9899    6.1423 H   0  0  0  0  0  0  0  0  0  0  0  0
   -6.6690  -16.6110    4.2220 H   0  0  0  0  0  0  0  0  0  0  0  0
   -7.4957  -17.6853    6.1883 H   0  0  0  0  0  0  0  0  0  0  0  0
   -7.8111  -16.0461    6.9104 H   0  0  0  0  0  0  0  0  0  0  0  0
   -9.5683  -16.0019    4.8339 H   0  0  0  0  0  0  0  0  0  0  0  0
   -9.5517  -17.7715    5.2160 H   0  0  0  0  0  0  0  0  0  0  0  0
  -10.9900  -15.8390    6.4730 H   0  0  0  0  0  0  0  0  0  0  0  0
   -9.9581  -16.2071    8.8853 H   0  0  0  0  0  0  0  0  0  0  0  0
   -8.4931  -16.0123    7.8643 H   0  0  0  0  0  0  0  0  0  0  0  0
   -9.7633  -14.7421    7.8643 H   0  0  0  0  0  0  0  0  0  0  0  0
  -11.0603  -17.7655    8.3269 H   0  0  0  0  0  0  0  0  0  0  0  0
  -12.0612  -17.6672    6.8386 H   0  0  0  0  0  0  0  0  0  0  0  0
  -10.5437  -18.6284    6.8386 H   0  0  0  0  0  0  0  0  0  0  0  0
   -6.9157  -12.8123    3.4136 H   0  0  0  0  0  0  0  0  0  0  0  0
   -5.4247  -11.9565    1.6237 H   0  0  0  0  0  0  0  0  0  0  0  0
   -3.0550  -13.3850    0.1620 H   0  0  0  0  0  0  0  0  0  0  0  0
   -2.5805  -11.0826    0.0379 H   0  0  0  0  0  0  0  0  0  0  0  0
   -3.0671  -10.9102    1.7664 H   0  0  0  0  0  0  0  0  0  0  0  0
   -0.8645  -12.1756    2.3231 H   0  0  0  0  0  0  0  0  0  0  0  0
   -0.3959  -11.8124    0.6083 H   0  0  0  0  0  0  0  0  0  0  0  0
    0.0400  -10.2530    2.7340 H   0  0  0  0  0  0  0  0  0  0  0  0
   -1.6871   -9.2000    3.4264 H   0  0  0  0  0  0  0  0  0  0  0  0
   -1.4979   -8.2047    1.9431 H   0  0  0  0  0  0  0  0  0  0  0  0
   -2.6118   -9.6139    1.9431 H   0  0  0  0  0  0  0  0  0  0  0  0
    1.1315   -8.8627    1.4373 H   0  0  0  0  0  0  0  0  0  0  0  0
    0.8474  -10.1930    0.2642 H   0  0  0  0  0  0  0  0  0  0  0  0
   -0.2242   -8.7514    0.2642 H   0  0  0  0  0  0  0  0  0  0  0  0
    0.1808  -16.5159    2.6587 H   0  0  0  0  0  0  0  0  0  0  0  0
  1  2  1  0
  2  3  1  0
  3  4  2  0
  4  5  1  0
  5  6  2  0
  6  7  1  0
  7  8  1  0
  8  9  2  0
  9 10  1  0
 10 11  2  0
 10 12  1  0
 12 13  1  0
 13 14  1  0
 14 15  1  0
 15 16  1  0
 15 17  1  0
  9 18  1  0
 18 19  2  0
 19 20  1  0
 20 21  1  0
 21 22  1  0
 22 23  1  0
 23 24  1  0
 24 25  1  0
 24 26  1  0
 20 27  2  0
 27 28  1  0
 28 29  2  0
 28 30  1  0
 30 31  2  0
 31  3  1  0
 30  6  1  0
 27  8  1  0
  1 32  1  0
  1 33  1  0
  1 34  1  0
  4 35  1  0
  5 36  1  0
 12 37  1  0
 13 38  1  0
 13 39  1  0
 14 40  1  0
 14 41  1  0
 15 42  1  0
 16 43  1  0
 16 44  1  0
 16 45  1  0
 17 46  1  0
 17 47  1  0
 17 48  1  0
 18 49  1  0
 19 50  1  0
 21 51  1  0
 22 52  1  0
 22 53  1  0
 23 54  1  0
 23 55  1  0
 24 56  1  0
 25 57  1  0
 25 58  1  0
 25 59  1  0
 26 60  1  0
 26 61  1  0
 26 62  1  0
 31 63  1  0
M  CHG  3   7  -1  15   1  24   1
M  END
>  <meeko>  (7) 
{"is_sidechain": [false], "free_energy": -6.415, "intermolecular_energy": -9.69, "internal_energy": -1.144}

$$$$
LIB_CKMROKZCLFVFRW__M_PUB_ALL__e8__s20260927
     RDKit          3D

 63 65  0  0  0  0  0  0  0  0999 V2000
   -1.5360   -8.5430    4.1510 C   0  0  0  0  0  0  0  0  0  0  0  0
   -1.5140   -8.8820    2.7700 O   0  0  0  0  0  0  0  0  0  0  0  0
   -1.1240  -10.1540    2.4530 C   0  0  0  0  0  0  0  0  0  0  0  0
   -1.3780  -11.3010    3.1990 C   0  0  0  0  0  0  0  0  0  0  0  0
   -0.9130  -12.5500    2.7590 C   0  0  0  0  0  0  0  0  0  0  0  0
   -0.1840  -12.6940    1.5690 C   0  0  0  0  0  0  0  0  0  0  0  0
    0.2380  -13.9210    1.2090 N   0  0  0  0  0  0  0  0  0  0  0  0
    0.8940  -14.0730    0.0280 C   0  0  0  0  0  0  0  0  0  0  0  0
    1.2990  -15.3680   -0.3960 C   0  0  0  0  0  0  0  0  0  0  0  0
    1.0030  -16.6080    0.3900 C   0  0  0  0  0  0  0  0  0  0  0  0
    0.1860  -17.4450    0.0060 O   0  0  0  0  0  0  0  0  0  0  0  0
    1.5910  -16.7100    1.6260 N   0  0  0  0  0  0  0  0  0  0  0  0
    1.2760  -17.7450    2.5830 C   0  0  0  0  0  0  0  0  0  0  0  0
    1.1140  -17.1940    4.0130 C   0  0  0  0  0  0  0  0  0  0  0  0
    0.4360  -15.8330    4.0090 N   0  0  0  0  0  0  0  0  0  0  0  0
    1.1230  -14.8420    4.9040 C   0  0  0  0  0  0  0  0  0  0  0  0
   -1.0370  -15.8870    4.2160 C   0  0  0  0  0  0  0  0  0  0  0  0
    1.9670  -15.5640   -1.6140 C   0  0  0  0  0  0  0  0  0  0  0  0
    2.2620  -14.4840   -2.4420 C   0  0  0  0  0  0  0  0  0  0  0  0
    1.8700  -13.1910   -2.0930 C   0  0  0  0  0  0  0  0  0  0  0  0
    2.1800  -12.1160   -2.9220 N   0  0  0  0  0  0  0  0  0  0  0  0
    2.5210  -12.2830   -4.3270 C   0  0  0  0  0  0  0  0  0  0  0  0
    3.7180  -11.3790   -4.7040 C   0  0  0  0  0  0  0  0  0  0  0  0
    4.9130  -12.1880   -5.1650 N   0  0  0  0  0  0  0  0  0  0  0  0
    4.7680  -12.7220   -6.5530 C   0  0  0  0  0  0  0  0  0  0  0  0
    5.3770  -13.2270   -4.1970 C   0  0  0  0  0  0  0  0  0  0  0  0
    1.2020  -13.0040   -0.8510 C   0  0  0  0  0  0  0  0  0  0  0  0
    0.8440  -11.6300   -0.3960 C   0  0  0  0  0  0  0  0  0  0  0  0
    1.2430  -10.6240   -0.9860 O   0  0  0  0  0  0  0  0  0  0  0  0
    0.0560  -11.5200    0.8410 C   0  0  0  0  0  0  0  0  0  0  0  0
   -0.4020  -10.2670    1.2690 C   0  0  0  0  0  0  0  0  0  0  0  0
   -1.4765   -9.4606    4.7548 H   0  0  0  0  0  0  0  0  0  0  0  0
   -0.6780   -7.8950    4.3832 H   0  0  0  0  0  0  0  0  0  0  0  0
   -2.4705   -8.0113    4.3832 H   0  0  0  0  0  0  0  0  0  0  0  0
   -1.9460  -11.2284    4.1382 H   0  0  0  0  0  0  0  0  0  0  0  0
   -1.1265  -13.4427    3.3653 H   0  0  0  0  0  0  0  0  0  0  0  0
    2.1070  -15.8720    1.9210 H   0  0  0  0  0  0  0  0  0  0  0  0
    0.3352  -18.2294    2.2825 H   0  0  0  0  0  0  0  0  0  0  0  0
    2.1125  -18.4592    2.5918 H   0  0  0  0  0  0  0  0  0  0  0  0
    0.5040  -17.8961    4.6002 H   0  0  0  0  0  0  0  0  0  0  0  0
    2.1144  -17.0814    4.4563 H   0  0  0  0  0  0  0  0  0  0  0  0
    0.5680  -15.4510    3.0500 H   0  0  0  0  0  0  0  0  0  0  0  0
    0.9386  -15.1080    5.9553 H   0  0  0  0  0  0  0  0  0  0  0  0
    2.2049  -14.8577    4.7061 H   0  0  0  0  0  0  0  0  0  0  0  0
    0.7287  -13.8343    4.7061 H   0  0  0  0  0  0  0  0  0  0  0  0
   -1.2557  -15.8950    5.2940 H   0  0  0  0  0  0  0  0  0  0  0  0
   -1.5048  -15.0054    3.7535 H   0  0  0  0  0  0  0  0  0  0  0  0
   -1.4390  -16.8005    3.7535 H   0  0  0  0  0  0  0  0  0  0  0  0
    2.2603  -16.5798   -1.9176 H   0  0  0  0  0  0  0  0  0  0  0  0
    2.8098  -14.6518   -3.3810 H   0  0  0  0  0  0  0  0  0  0  0  0
    2.4830  -11.2740   -2.4260 H   0  0  0  0  0  0  0  0  0  0  0  0
    2.7882  -13.3338   -4.5124 H   0  0  0  0  0  0  0  0  0  0  0  0
    1.6531  -11.9990   -4.9403 H   0  0  0  0  0  0  0  0  0  0  0  0
    3.4114  -10.7031   -5.5159 H   0  0  0  0  0  0  0  0  0  0  0  0
    4.0139  -10.8136   -3.8081 H   0  0  0  0  0  0  0  0  0  0  0  0
    5.6980  -11.5000   -5.2300 H   0  0  0  0  0  0  0  0  0  0  0  0
    4.4800  -13.7827   -6.5095 H   0  0  0  0  0  0  0  0  0  0  0  0
    3.9919  -12.1528   -7.0856 H   0  0  0  0  0  0  0  0  0  0  0  0
    5.7254  -12.6235   -7.0856 H   0  0  0  0  0  0  0  0  0  0  0  0
    5.2169  -12.8684   -3.1695 H   0  0  0  0  0  0  0  0  0  0  0  0
    4.8078  -14.1550   -4.3544 H   0  0  0  0  0  0  0  0  0  0  0  0
    6.4480  -13.4226   -4.3544 H   0  0  0  0  0  0  0  0  0  0  0  0
   -0.1903   -9.3706    0.6676 H   0  0  0  0  0  0  0  0  0  0  0  0
  1  2  1  0
  2  3  1  0
  3  4  2  0
  4  5  1  0
  5  6  2  0
  6  7  1  0
  7  8  1  0
  8  9  2  0
  9 10  1  0
 10 11  2  0
 10 12  1  0
 12 13  1  0
 13 14  1  0
 14 15  1  0
 15 16  1  0
 15 17  1  0
  9 18  1  0
 18 19  2  0
 19 20  1  0
 20 21  1  0
 21 22  1  0
 22 23  1  0
 23 24  1  0
 24 25  1  0
 24 26  1  0
 20 27  2  0
 27 28  1  0
 28 29  2  0
 28 30  1  0
 30 31  2  0
 31  3  1  0
 30  6  1  0
 27  8  1  0
  1 32  1  0
  1 33  1  0
  1 34  1  0
  4 35  1  0
  5 36  1  0
 12 37  1  0
 13 38  1  0
 13 39  1  0
 14 40  1  0
 14 41  1  0
 15 42  1  0
 16 43  1  0
 16 44  1  0
 16 45  1  0
 17 46  1  0
 17 47  1  0
 17 48  1  0
 18 49  1  0
 19 50  1  0
 21 51  1  0
 22 52  1  0
 22 53  1  0
 23 54  1  0
 23 55  1  0
 24 56  1  0
 25 57  1  0
 25 58  1  0
 25 59  1  0
 26 60  1  0
 26 61  1  0
 26 62  1  0
 31 63  1  0
M  CHG  3   7  -1  15   1  24   1
M  END
>  <meeko>  (8) 
{"is_sidechain": [false], "free_energy": -6.388, "intermolecular_energy": -9.18, "internal_energy": -1.612}

$$$$
LIB_CKMROKZCLFVFRW__M_PUB_ALL__e8__s20260927
     RDKit          3D

 63 65  0  0  0  0  0  0  0  0999 V2000
    6.0070  -13.2690   -7.5020 C   0  0  0  0  0  0  0  0  0  0  0  0
    5.1680  -12.2770   -6.9230 O   0  0  0  0  0  0  0  0  0  0  0  0
    4.7670  -12.4870   -5.6320 C   0  0  0  0  0  0  0  0  0  0  0  0
    3.5380  -12.9990   -5.2250 C   0  0  0  0  0  0  0  0  0  0  0  0
    3.2530  -13.1590   -3.8600 C   0  0  0  0  0  0  0  0  0  0  0  0
    4.1780  -12.8160   -2.8640 C   0  0  0  0  0  0  0  0  0  0  0  0
    3.8370  -12.9880   -1.5720 N   0  0  0  0  0  0  0  0  0  0  0  0
    4.7510  -12.7120   -0.6050 C   0  0  0  0  0  0  0  0  0  0  0  0
    4.4300  -12.9400    0.7600 C   0  0  0  0  0  0  0  0  0  0  0  0
    3.1200  -13.5170    1.2000 C   0  0  0  0  0  0  0  0  0  0  0  0
    3.0230  -14.6690    1.6220 O   0  0  0  0  0  0  0  0  0  0  0  0
    2.0050  -12.7440    0.9890 N   0  0  0  0  0  0  0  0  0  0  0  0
    0.6530  -13.2140    1.1870 C   0  0  0  0  0  0  0  0  0  0  0  0
    0.0550  -13.8370   -0.0890 C   0  0  0  0  0  0  0  0  0  0  0  0
    0.4210  -15.3080   -0.2120 N   0  0  0  0  0  0  0  0  0  0  0  0
    1.3010  -15.5880   -1.3960 C   0  0  0  0  0  0  0  0  0  0  0  0
   -0.7400  -16.2330   -0.1120 C   0  0  0  0  0  0  0  0  0  0  0  0
    5.3530  -12.6770    1.7830 C   0  0  0  0  0  0  0  0  0  0  0  0
    6.6170  -12.1720    1.4850 C   0  0  0  0  0  0  0  0  0  0  0  0
    7.0000  -11.9490    0.1630 C   0  0  0  0  0  0  0  0  0  0  0  0
    8.2620  -11.4340   -0.1240 N   0  0  0  0  0  0  0  0  0  0  0  0
    9.4870  -12.0310    0.3850 C   0  0  0  0  0  0  0  0  0  0  0  0
   10.2590  -12.7380   -0.7530 C   0  0  0  0  0  0  0  0  0  0  0  0
   10.2710  -14.2430   -0.5780 N   0  0  0  0  0  0  0  0  0  0  0  0
   11.5750  -14.8710   -0.9460 C   0  0  0  0  0  0  0  0  0  0  0  0
    9.1030  -14.9520   -1.1800 C   0  0  0  0  0  0  0  0  0  0  0  0
    6.0520  -12.2100   -0.8650 C   0  0  0  0  0  0  0  0  0  0  0  0
    6.3870  -11.9020   -2.2850 C   0  0  0  0  0  0  0  0  0  0  0  0
    7.4070  -11.2830   -2.5930 O   0  0  0  0  0  0  0  0  0  0  0  0
    5.4060  -12.3020   -3.3050 C   0  0  0  0  0  0  0  0  0  0  0  0
    5.7030  -12.1370   -4.6640 C   0  0  0  0  0  0  0  0  0  0  0  0
    6.4959  -13.8470   -6.7040 H   0  0  0  0  0  0  0  0  0  0  0  0
    5.4012  -13.9435   -8.1249 H   0  0  0  0  0  0  0  0  0  0  0  0
    6.7727  -12.7836   -8.1249 H   0  0  0  0  0  0  0  0  0  0  0  0
    2.7862  -13.2797   -5.9773 H   0  0  0  0  0  0  0  0  0  0  0  0
    2.2750  -13.5655   -3.5630 H   0  0  0  0  0  0  0  0  0  0  0  0
    2.1810  -11.8790    0.4650 H   0  0  0  0  0  0  0  0  0  0  0  0
    0.6560  -13.9733    1.9829 H   0  0  0  0  0  0  0  0  0  0  0  0
    0.0330  -12.3471    1.4593 H   0  0  0  0  0  0  0  0  0  0  0  0
   -1.0404  -13.7424   -0.0541 H   0  0  0  0  0  0  0  0  0  0  0  0
    0.4651  -13.3041   -0.9595 H   0  0  0  0  0  0  0  0  0  0  0  0
    1.0190  -15.5230    0.6130 H   0  0  0  0  0  0  0  0  0  0  0  0
    2.2952  -15.9043   -1.0473 H   0  0  0  0  0  0  0  0  0  0  0  0
    0.8539  -16.3883   -2.0040 H   0  0  0  0  0  0  0  0  0  0  0  0
    1.3986  -14.6765   -2.0040 H   0  0  0  0  0  0  0  0  0  0  0  0
   -0.9716  -16.4175    0.9474 H   0  0  0  0  0  0  0  0  0  0  0  0
   -1.6131  -15.7802   -0.6047 H   0  0  0  0  0  0  0  0  0  0  0  0
   -0.4937  -17.1851   -0.6047 H   0  0  0  0  0  0  0  0  0  0  0  0
    5.0765  -12.8712    2.8298 H   0  0  0  0  0  0  0  0  0  0  0  0
    7.3197  -11.9470    2.3008 H   0  0  0  0  0  0  0  0  0  0  0  0
    8.2610  -10.4510   -0.4100 H   0  0  0  0  0  0  0  0  0  0  0  0
   10.1211  -11.2430    0.8174 H   0  0  0  0  0  0  0  0  0  0  0  0
    9.2278  -12.7739    1.1537 H   0  0  0  0  0  0  0  0  0  0  0  0
    9.7789  -12.4954   -1.7125 H   0  0  0  0  0  0  0  0  0  0  0  0
   11.3002  -12.3839   -0.7296 H   0  0  0  0  0  0  0  0  0  0  0  0
   10.1870  -14.3970    0.4530 H   0  0  0  0  0  0  0  0  0  0  0  0
   12.1254  -15.1361   -0.0312 H   0  0  0  0  0  0  0  0  0  0  0  0
   11.3903  -15.7789   -1.5389 H   0  0  0  0  0  0  0  0  0  0  0  0
   12.1697  -14.1606   -1.5389 H   0  0  0  0  0  0  0  0  0  0  0  0
    8.4587  -15.3431   -0.3788 H   0  0  0  0  0  0  0  0  0  0  0  0
    8.5288  -14.2499   -1.8024 H   0  0  0  0  0  0  0  0  0  0  0  0
    9.4609  -15.7854   -1.8024 H   0  0  0  0  0  0  0  0  0  0  0  0
    6.6789  -11.7296   -4.9666 H   0  0  0  0  0  0  0  0  0  0  0  0
  1  2  1  0
  2  3  1  0
  3  4  2  0
  4  5  1  0
  5  6  2  0
  6  7  1  0
  7  8  1  0
  8  9  2  0
  9 10  1  0
 10 11  2  0
 10 12  1  0
 12 13  1  0
 13 14  1  0
 14 15  1  0
 15 16  1  0
 15 17  1  0
  9 18  1  0
 18 19  2  0
 19 20  1  0
 20 21  1  0
 21 22  1  0
 22 23  1  0
 23 24  1  0
 24 25  1  0
 24 26  1  0
 20 27  2  0
 27 28  1  0
 28 29  2  0
 28 30  1  0
 30 31  2  0
 31  3  1  0
 30  6  1  0
 27  8  1  0
  1 32  1  0
  1 33  1  0
  1 34  1  0
  4 35  1  0
  5 36  1  0
 12 37  1  0
 13 38  1  0
 13 39  1  0
 14 40  1  0
 14 41  1  0
 15 42  1  0
 16 43  1  0
 16 44  1  0
 16 45  1  0
 17 46  1  0
 17 47  1  0
 17 48  1  0
 18 49  1  0
 19 50  1  0
 21 51  1  0
 22 52  1  0
 22 53  1  0
 23 54  1  0
 23 55  1  0
 24 56  1  0
 25 57  1  0
 25 58  1  0
 25 59  1  0
 26 60  1  0
 26 61  1  0
 26 62  1  0
 31 63  1  0
M  CHG  3   7  -1  15   1  24   1
M  END
>  <meeko>  (9) 
{"is_sidechain": [false], "free_energy": -6.354, "intermolecular_energy": -9.041, "internal_energy": -1.701}

$$$$
