LIB_OKWGMOAQRFSSET__M_PUB_ALL__e8__s20260927
     RDKit          3D

 56 59  0  0  0  0  0  0  0  0999 V2000
   11.7710  -13.0760   -9.2820 C   0  0  0  0  0  0  0  0  0  0  0  0
   10.4860  -13.8490   -9.0400 C   0  0  0  0  0  0  0  0  0  0  0  0
    9.3700  -13.3880   -9.9760 C   0  0  0  0  0  0  0  0  0  0  0  0
    8.2160  -14.3810  -10.0210 C   0  0  0  0  0  0  0  0  0  0  0  0
    7.5830  -14.5790  -11.0530 O   0  0  0  0  0  0  0  0  0  0  0  0
    7.8930  -15.0560   -8.8090 N   0  0  0  0  0  0  0  0  0  0  0  0
    7.1070  -14.3590   -7.8400 C   0  0  0  0  0  0  0  0  0  0  0  0
    6.1000  -13.4930   -8.2660 C   0  0  0  0  0  0  0  0  0  0  0  0
    5.3410  -12.7870   -7.3280 C   0  0  0  0  0  0  0  0  0  0  0  0
    5.5730  -12.9350   -5.9550 C   0  0  0  0  0  0  0  0  0  0  0  0
    4.8190  -12.1750   -5.0470 N   0  0  0  0  0  0  0  0  0  0  0  0
    4.2860  -12.5530   -3.7870 C   0  0  0  0  0  0  0  0  0  0  0  0
    3.0410  -13.2330   -3.7350 C   0  0  0  0  0  0  0  0  0  0  0  0
    2.2870  -13.5890   -4.8800 C   0  0  0  0  0  0  0  0  0  0  0  0
    1.0720  -14.2610   -4.7650 C   0  0  0  0  0  0  0  0  0  0  0  0
    0.5930  -14.5910   -3.5050 C   0  0  0  0  0  0  0  0  0  0  0  0
    1.3370  -14.2520   -2.3740 C   0  0  0  0  0  0  0  0  0  0  0  0
    2.5510  -13.5820   -2.4650 C   0  0  0  0  0  0  0  0  0  0  0  0
    3.2060  -13.3020   -1.3290 N   0  0  0  0  0  0  0  0  0  0  0  0
    4.3720  -12.6500   -1.3770 C   0  0  0  0  0  0  0  0  0  0  0  0
    5.0000  -12.3720   -0.1720 C   0  0  0  0  0  0  0  0  0  0  0  0
    6.2120  -11.6750   -0.1330 C   0  0  0  0  0  0  0  0  0  0  0  0
    6.8510  -11.3980    1.1580 N   0  0  0  0  0  0  0  0  0  0  0  0
    7.6570  -12.2330    1.5940 O   0  0  0  0  0  0  0  0  0  0  0  0
    6.5500  -10.3440    1.7350 O   0  0  0  0  0  0  0  0  0  0  0  0
    6.8140  -11.2390   -1.3120 C   0  0  0  0  0  0  0  0  0  0  0  0
    6.1900  -11.5160   -2.5270 C   0  0  0  0  0  0  0  0  0  0  0  0
    4.9700  -12.2360   -2.5830 C   0  0  0  0  0  0  0  0  0  0  0  0
    6.6010  -13.7940   -5.5430 C   0  0  0  0  0  0  0  0  0  0  0  0
    7.3660  -14.5010   -6.4760 C   0  0  0  0  0  0  0  0  0  0  0  0
    8.0000  -16.7330   -8.6520 S   0  0  0  0  0  0  0  0  0  0  0  0
    9.2760  -16.9250   -7.4210 C   0  0  0  0  0  0  0  0  0  0  0  0
    6.7590  -17.2260   -8.0920 O   0  0  0  0  0  0  0  0  0  0  0  0
    8.5050  -17.3000   -9.8880 O   0  0  0  0  0  0  0  0  0  0  0  0
   12.2228  -12.8042   -8.3166 H   0  0  0  0  0  0  0  0  0  0  0  0
   12.4734  -13.7016   -9.8523 H   0  0  0  0  0  0  0  0  0  0  0  0
   11.5474  -12.1624   -9.8523 H   0  0  0  0  0  0  0  0  0  0  0  0
   10.6754  -14.9192   -9.2097 H   0  0  0  0  0  0  0  0  0  0  0  0
   10.1642  -13.6675   -8.0039 H   0  0  0  0  0  0  0  0  0  0  0  0
    8.9898  -12.4175   -9.6243 H   0  0  0  0  0  0  0  0  0  0  0  0
    9.7887  -13.3077  -10.9900 H   0  0  0  0  0  0  0  0  0  0  0  0
    5.9029  -13.3655   -9.3407 H   0  0  0  0  0  0  0  0  0  0  0  0
    4.5499  -12.1052   -7.6736 H   0  0  0  0  0  0  0  0  0  0  0  0
    4.4930  -11.2740   -5.3780 H   0  0  0  0  0  0  0  0  0  0  0  0
    2.6679  -13.3300   -5.8789 H   0  0  0  0  0  0  0  0  0  0  0  0
    0.4977  -14.5275   -5.6645 H   0  0  0  0  0  0  0  0  0  0  0  0
   -0.3674  -15.1166   -3.3984 H   0  0  0  0  0  0  0  0  0  0  0  0
    0.9507  -14.5234   -1.3804 H   0  0  0  0  0  0  0  0  0  0  0  0
    4.5372  -12.7052    0.7686 H   0  0  0  0  0  0  0  0  0  0  0  0
    7.7646  -10.6862   -1.2840 H   0  0  0  0  0  0  0  0  0  0  0  0
    6.6538  -11.1687   -3.4621 H   0  0  0  0  0  0  0  0  0  0  0  0
    6.8092  -13.9138   -4.4696 H   0  0  0  0  0  0  0  0  0  0  0  0
    8.1712  -15.1685   -6.1351 H   0  0  0  0  0  0  0  0  0  0  0  0
    8.8304  -16.8580   -6.4175 H   0  0  0  0  0  0  0  0  0  0  0  0
    9.7587  -17.9059   -7.5431 H   0  0  0  0  0  0  0  0  0  0  0  0
   10.0259  -16.1296   -7.5431 H   0  0  0  0  0  0  0  0  0  0  0  0
  1  2  1  0
  2  3  1  0
  3  4  1  0
  4  5  2  0
  4  6  1  0
  6  7  1  0
  7  8  2  0
  8  9  1  0
  9 10  2  0
 10 11  1  0
 11 12  1  0
 12 13  1  0
 13 14  2  0
 14 15  1  0
 15 16  2  0
 16 17  1  0
 17 18  2  0
 18 19  1  0
 19 20  2  0
 20 21  1  0
 21 22  2  0
 22 23  1  0
 23 24  2  0
 23 25  1  0
 22 26  1  0
 26 27  2  0
 27 28  1  0
 10 29  1  0
 29 30  2  0
  6 31  1  0
 31 32  1  0
 31 33  2  0
 31 34  2  0
 30  7  1  0
 28 12  2  0
 18 13  1  0
 28 20  1  0
  1 35  1  0
  1 36  1  0
  1 37  1  0
  2 38  1  0
  2 39  1  0
  3 40  1  0
  3 41  1  0
  8 42  1  0
  9 43  1  0
 11 44  1  0
 14 45  1  0
 15 46  1  0
 16 47  1  0
 17 48  1  0
 21 49  1  0
 26 50  1  0
 27 51  1  0
 29 52  1  0
 30 53  1  0
 32 54  1  0
 32 55  1  0
 32 56  1  0
M  CHG  2  23   1  25  -1
M  END
>  <meeko>  (1) 
{"is_sidechain": [false], "free_energy": -7.842, "intermolecular_energy": -11.51, "internal_energy": -1.022}

$$$$
LIB_OKWGMOAQRFSSET__M_PUB_ALL__e8__s20260927
     RDKit          3D

 56 59  0  0  0  0  0  0  0  0999 V2000
    0.8240  -14.3250   -4.8880 C   0  0  0  0  0  0  0  0  0  0  0  0
    1.7550  -13.2940   -4.2720 C   0  0  0  0  0  0  0  0  0  0  0  0
    3.1910  -13.8110   -4.1950 C   0  0  0  0  0  0  0  0  0  0  0  0
    3.5320  -14.3450   -2.8100 C   0  0  0  0  0  0  0  0  0  0  0  0
    3.5430  -15.5490   -2.5740 O   0  0  0  0  0  0  0  0  0  0  0  0
    3.8200  -13.3860   -1.7980 N   0  0  0  0  0  0  0  0  0  0  0  0
    2.7950  -13.0820   -0.8480 C   0  0  0  0  0  0  0  0  0  0  0  0
    2.3870  -14.0590    0.0600 C   0  0  0  0  0  0  0  0  0  0  0  0
    1.3690  -13.7810    0.9770 C   0  0  0  0  0  0  0  0  0  0  0  0
    0.7460  -12.5270    1.0030 C   0  0  0  0  0  0  0  0  0  0  0  0
   -0.3030  -12.3030    1.9100 N   0  0  0  0  0  0  0  0  0  0  0  0
   -1.6160  -12.8410    1.9110 C   0  0  0  0  0  0  0  0  0  0  0  0
   -2.6120  -12.2430    1.0970 C   0  0  0  0  0  0  0  0  0  0  0  0
   -2.3780  -11.1350    0.2460 C   0  0  0  0  0  0  0  0  0  0  0  0
   -3.3980  -10.5940   -0.5330 C   0  0  0  0  0  0  0  0  0  0  0  0
   -4.6670  -11.1530   -0.4790 C   0  0  0  0  0  0  0  0  0  0  0  0
   -4.9010  -12.2510    0.3510 C   0  0  0  0  0  0  0  0  0  0  0  0
   -3.9000  -12.8070    1.1360 C   0  0  0  0  0  0  0  0  0  0  0  0
   -4.2070  -13.8670    1.8980 N   0  0  0  0  0  0  0  0  0  0  0  0
   -3.2720  -14.4230    2.6750 C   0  0  0  0  0  0  0  0  0  0  0  0
   -3.6480  -15.5070    3.4540 C   0  0  0  0  0  0  0  0  0  0  0  0
   -2.7350  -16.1320    4.3090 C   0  0  0  0  0  0  0  0  0  0  0  0
   -3.1640  -17.2780    5.1190 N   0  0  0  0  0  0  0  0  0  0  0  0
   -2.4090  -18.2590    5.1770 O   0  0  0  0  0  0  0  0  0  0  0  0
   -4.2540  -17.1950    5.7010 O   0  0  0  0  0  0  0  0  0  0  0  0
   -1.4230  -15.6720    4.4010 C   0  0  0  0  0  0  0  0  0  0  0  0
   -1.0370  -14.5830    3.6200 C   0  0  0  0  0  0  0  0  0  0  0  0
   -1.9470  -13.9500    2.7350 C   0  0  0  0  0  0  0  0  0  0  0  0
    1.1530  -11.5620    0.0720 C   0  0  0  0  0  0  0  0  0  0  0  0
    2.1690  -11.8350   -0.8500 C   0  0  0  0  0  0  0  0  0  0  0  0
    5.3970  -12.9400   -1.3970 S   0  0  0  0  0  0  0  0  0  0  0  0
    5.6330  -11.4530   -2.3530 C   0  0  0  0  0  0  0  0  0  0  0  0
    5.4360  -12.5820    0.0060 O   0  0  0  0  0  0  0  0  0  0  0  0
    6.3220  -13.9330   -1.9100 O   0  0  0  0  0  0  0  0  0  0  0  0
    0.3176  -14.8858   -4.0886 H   0  0  0  0  0  0  0  0  0  0  0  0
    0.0736  -13.8158   -5.5107 H   0  0  0  0  0  0  0  0  0  0  0  0
    1.4068  -15.0197   -5.5107 H   0  0  0  0  0  0  0  0  0  0  0  0
    1.7359  -12.3823   -4.8872 H   0  0  0  0  0  0  0  0  0  0  0  0
    1.4087  -13.0837   -3.2493 H   0  0  0  0  0  0  0  0  0  0  0  0
    3.3166  -14.6209   -4.9287 H   0  0  0  0  0  0  0  0  0  0  0  0
    3.8667  -12.9702   -4.4107 H   0  0  0  0  0  0  0  0  0  0  0  0
    2.8666  -15.0489    0.0546 H   0  0  0  0  0  0  0  0  0  0  0  0
    1.0528  -14.5583    1.6882 H   0  0  0  0  0  0  0  0  0  0  0  0
   -0.1610  -11.5600    2.5850 H   0  0  0  0  0  0  0  0  0  0  0  0
   -1.3716  -10.6935    0.1995 H   0  0  0  0  0  0  0  0  0  0  0  0
   -3.1994   -9.7310   -1.1855 H   0  0  0  0  0  0  0  0  0  0  0  0
   -5.4830  -10.7339   -1.0860 H   0  0  0  0  0  0  0  0  0  0  0  0
   -5.9095  -12.6890    0.3840 H   0  0  0  0  0  0  0  0  0  0  0  0
   -4.6809  -15.8811    3.3984 H   0  0  0  0  0  0  0  0  0  0  0  0
   -0.7049  -16.1589    5.0772 H   0  0  0  0  0  0  0  0  0  0  0  0
   -0.0057  -14.2072    3.6918 H   0  0  0  0  0  0  0  0  0  0  0  0
    0.6665  -10.5755    0.0661 H   0  0  0  0  0  0  0  0  0  0  0  0
    2.4742  -11.0671   -1.5761 H   0  0  0  0  0  0  0  0  0  0  0  0
    5.7687  -10.5982   -1.6740 H   0  0  0  0  0  0  0  0  0  0  0  0
    6.5250  -11.5626   -2.9873 H   0  0  0  0  0  0  0  0  0  0  0  0
    4.7509  -11.2810   -2.9873 H   0  0  0  0  0  0  0  0  0  0  0  0
  1  2  1  0
  2  3  1  0
  3  4  1  0
  4  5  2  0
  4  6  1  0
  6  7  1  0
  7  8  2  0
  8  9  1  0
  9 10  2  0
 10 11  1  0
 11 12  1  0
 12 13  1  0
 13 14  2  0
 14 15  1  0
 15 16  2  0
 16 17  1  0
 17 18  2  0
 18 19  1  0
 19 20  2  0
 20 21  1  0
 21 22  2  0
 22 23  1  0
 23 24  2  0
 23 25  1  0
 22 26  1  0
 26 27  2  0
 27 28  1  0
 10 29  1  0
 29 30  2  0
  6 31  1  0
 31 32  1  0
 31 33  2  0
 31 34  2  0
 30  7  1  0
 28 12  2  0
 18 13  1  0
 28 20  1  0
  1 35  1  0
  1 36  1  0
  1 37  1  0
  2 38  1  0
  2 39  1  0
  3 40  1  0
  3 41  1  0
  8 42  1  0
  9 43  1  0
 11 44  1  0
 14 45  1  0
 15 46  1  0
 16 47  1  0
 17 48  1  0
 21 49  1  0
 26 50  1  0
 27 51  1  0
 29 52  1  0
 30 53  1  0
 32 54  1  0
 32 55  1  0
 32 56  1  0
M  CHG  2  23   1  25  -1
M  END
>  <meeko>  (2) 
{"is_sidechain": [false], "free_energy": -7.774, "intermolecular_energy": -10.989, "internal_energy": -1.443}

$$$$
LIB_OKWGMOAQRFSSET__M_PUB_ALL__e8__s20260927
     RDKit          3D

 56 59  0  0  0  0  0  0  0  0999 V2000
   -7.0430  -14.6780    7.8650 C   0  0  0  0  0  0  0  0  0  0  0  0
   -5.6360  -14.4810    8.4060 C   0  0  0  0  0  0  0  0  0  0  0  0
   -5.1270  -15.7360    9.1140 C   0  0  0  0  0  0  0  0  0  0  0  0
   -3.6110  -15.7330    9.2610 C   0  0  0  0  0  0  0  0  0  0  0  0
   -3.0370  -14.8910    9.9440 O   0  0  0  0  0  0  0  0  0  0  0  0
   -2.8900  -16.7390    8.5570 N   0  0  0  0  0  0  0  0  0  0  0  0
   -2.5290  -16.4810    7.1980 C   0  0  0  0  0  0  0  0  0  0  0  0
   -3.4610  -16.7070    6.1840 C   0  0  0  0  0  0  0  0  0  0  0  0
   -3.1120  -16.4810    4.8490 C   0  0  0  0  0  0  0  0  0  0  0  0
   -1.8320  -16.0270    4.5060 C   0  0  0  0  0  0  0  0  0  0  0  0
   -1.5070  -15.8560    3.1510 N   0  0  0  0  0  0  0  0  0  0  0  0
   -0.5500  -14.9890    2.5620 C   0  0  0  0  0  0  0  0  0  0  0  0
    0.7230  -15.5010    2.2030 C   0  0  0  0  0  0  0  0  0  0  0  0
    1.1070  -16.8550    2.3720 C   0  0  0  0  0  0  0  0  0  0  0  0
    2.3730  -17.2990    1.9950 C   0  0  0  0  0  0  0  0  0  0  0  0
    3.2720  -16.4020    1.4390 C   0  0  0  0  0  0  0  0  0  0  0  0
    2.8950  -15.0690    1.2600 C   0  0  0  0  0  0  0  0  0  0  0  0
    1.6400  -14.6030    1.6280 C   0  0  0  0  0  0  0  0  0  0  0  0
    1.3560  -13.3110    1.4140 N   0  0  0  0  0  0  0  0  0  0  0  0
    0.1610  -12.8240    1.7650 C   0  0  0  0  0  0  0  0  0  0  0  0
   -0.0740  -11.4770    1.5350 C   0  0  0  0  0  0  0  0  0  0  0  0
   -1.2900  -10.8860    1.8920 C   0  0  0  0  0  0  0  0  0  0  0  0
   -1.5090   -9.4580    1.6340 N   0  0  0  0  0  0  0  0  0  0  0  0
   -0.5170   -8.7160    1.6160 O   0  0  0  0  0  0  0  0  0  0  0  0
   -2.6730   -9.0790    1.4450 O   0  0  0  0  0  0  0  0  0  0  0  0
   -2.2940  -11.6420    2.4950 C   0  0  0  0  0  0  0  0  0  0  0  0
   -2.0650  -12.9970    2.7290 C   0  0  0  0  0  0  0  0  0  0  0  0
   -0.8440  -13.6140    2.3560 C   0  0  0  0  0  0  0  0  0  0  0  0
   -0.9010  -15.8230    5.5330 C   0  0  0  0  0  0  0  0  0  0  0  0
   -1.2430  -16.0500    6.8710 C   0  0  0  0  0  0  0  0  0  0  0  0
   -2.0730  -17.9860    9.3470 S   0  0  0  0  0  0  0  0  0  0  0  0
   -1.2680  -18.8340    8.0000 C   0  0  0  0  0  0  0  0  0  0  0  0
   -1.0480  -17.4070   10.1900 O   0  0  0  0  0  0  0  0  0  0  0  0
   -3.0390  -18.9060    9.9190 O   0  0  0  0  0  0  0  0  0  0  0  0
   -7.7478  -14.7767    8.7037 H   0  0  0  0  0  0  0  0  0  0  0  0
   -7.3241  -13.8105    7.2499 H   0  0  0  0  0  0  0  0  0  0  0  0
   -7.0751  -15.5894    7.2499 H   0  0  0  0  0  0  0  0  0  0  0  0
   -4.9616  -14.2440    7.5699 H   0  0  0  0  0  0  0  0  0  0  0  0
   -5.6591  -13.6585    9.1360 H   0  0  0  0  0  0  0  0  0  0  0  0
   -5.5807  -15.7879   10.1147 H   0  0  0  0  0  0  0  0  0  0  0  0
   -5.4075  -16.6075    8.5042 H   0  0  0  0  0  0  0  0  0  0  0  0
   -4.4709  -17.0632    6.4353 H   0  0  0  0  0  0  0  0  0  0  0  0
   -3.8532  -16.6623    4.0567 H   0  0  0  0  0  0  0  0  0  0  0  0
   -2.1180  -16.3110    2.4820 H   0  0  0  0  0  0  0  0  0  0  0  0
    0.3926  -17.5683    2.8087 H   0  0  0  0  0  0  0  0  0  0  0  0
    2.6566  -18.3522    2.1374 H   0  0  0  0  0  0  0  0  0  0  0  0
    4.2760  -16.7380    1.1406 H   0  0  0  0  0  0  0  0  0  0  0  0
    3.6146  -14.3668    0.8137 H   0  0  0  0  0  0  0  0  0  0  0  0
    0.7084  -10.8636    1.0643 H   0  0  0  0  0  0  0  0  0  0  0  0
   -3.2494  -11.1779    2.7809 H   0  0  0  0  0  0  0  0  0  0  0  0
   -2.8475  -13.5999    3.2129 H   0  0  0  0  0  0  0  0  0  0  0  0
    0.1138  -15.4793    5.2840 H   0  0  0  0  0  0  0  0  0  0  0  0
   -0.4983  -15.8887    7.6643 H   0  0  0  0  0  0  0  0  0  0  0  0
   -0.5633  -19.5763    8.4029 H   0  0  0  0  0  0  0  0  0  0  0  0
   -2.0235  -19.3427    7.3832 H   0  0  0  0  0  0  0  0  0  0  0  0
   -0.7207  -18.1060    7.3832 H   0  0  0  0  0  0  0  0  0  0  0  0
  1  2  1  0
  2  3  1  0
  3  4  1  0
  4  5  2  0
  4  6  1  0
  6  7  1  0
  7  8  2  0
  8  9  1  0
  9 10  2  0
 10 11  1  0
 11 12  1  0
 12 13  1  0
 13 14  2  0
 14 15  1  0
 15 16  2  0
 16 17  1  0
 17 18  2  0
 18 19  1  0
 19 20  2  0
 20 21  1  0
 21 22  2  0
 22 23  1  0
 23 24  2  0
 23 25  1  0
 22 26  1  0
 26 27  2  0
 27 28  1  0
 10 29  1  0
 29 30  2  0
  6 31  1  0
 31 32  1  0
 31 33  2  0
 31 34  2  0
 30  7  1  0
 28 12  2  0
 18 13  1  0
 28 20  1  0
  1 35  1  0
  1 36  1  0
  1 37  1  0
  2 38  1  0
  2 39  1  0
  3 40  1  0
  3 41  1  0
  8 42  1  0
  9 43  1  0
 11 44  1  0
 14 45  1  0
 15 46  1  0
 16 47  1  0
 17 48  1  0
 21 49  1  0
 26 50  1  0
 27 51  1  0
 29 52  1  0
 30 53  1  0
 32 54  1  0
 32 55  1  0
 32 56  1  0
M  CHG  2  23   1  25  -1
M  END
>  <meeko>  (3) 
{"is_sidechain": [false], "free_energy": -7.722, "intermolecular_energy": -11.411, "internal_energy": -0.945}

$$$$
LIB_OKWGMOAQRFSSET__M_PUB_ALL__e8__s20260927
     RDKit          3D

 56 59  0  0  0  0  0  0  0  0999 V2000
    9.9080  -11.9810    0.8580 C   0  0  0  0  0  0  0  0  0  0  0  0
   11.3820  -11.6370    0.9880 C   0  0  0  0  0  0  0  0  0  0  0  0
   12.2580  -12.6310    0.2270 C   0  0  0  0  0  0  0  0  0  0  0  0
   12.4620  -12.2180   -1.2250 C   0  0  0  0  0  0  0  0  0  0  0  0
   12.8990  -11.1100   -1.5190 O   0  0  0  0  0  0  0  0  0  0  0  0
   12.1050  -13.1660   -2.2250 N   0  0  0  0  0  0  0  0  0  0  0  0
   10.7210  -13.3090   -2.5550 C   0  0  0  0  0  0  0  0  0  0  0  0
   10.1040  -14.5510   -2.4070 C   0  0  0  0  0  0  0  0  0  0  0  0
    8.7570  -14.7080   -2.7480 C   0  0  0  0  0  0  0  0  0  0  0  0
    8.0080  -13.6320   -3.2400 C   0  0  0  0  0  0  0  0  0  0  0  0
    6.6710  -13.8420   -3.6140 N   0  0  0  0  0  0  0  0  0  0  0  0
    5.8800  -13.1270   -4.5500 C   0  0  0  0  0  0  0  0  0  0  0  0
    4.7970  -12.3380   -4.0840 C   0  0  0  0  0  0  0  0  0  0  0  0
    4.4560  -12.1920   -2.7170 C   0  0  0  0  0  0  0  0  0  0  0  0
    3.3810  -11.3990   -2.3210 C   0  0  0  0  0  0  0  0  0  0  0  0
    2.6330  -10.7350   -3.2820 C   0  0  0  0  0  0  0  0  0  0  0  0
    2.9710  -10.8670   -4.6310 C   0  0  0  0  0  0  0  0  0  0  0  0
    4.0370  -11.6520   -5.0490 C   0  0  0  0  0  0  0  0  0  0  0  0
    4.3000  -11.7170   -6.3620 N   0  0  0  0  0  0  0  0  0  0  0  0
    5.3120  -12.4710   -6.8020 C   0  0  0  0  0  0  0  0  0  0  0  0
    5.5290  -12.5150   -8.1720 C   0  0  0  0  0  0  0  0  0  0  0  0
    6.5550  -13.2960   -8.7150 C   0  0  0  0  0  0  0  0  0  0  0  0
    6.7590  -13.3190  -10.1680 N   0  0  0  0  0  0  0  0  0  0  0  0
    7.7010  -12.6600  -10.6290 O   0  0  0  0  0  0  0  0  0  0  0  0
    5.9790  -13.9990  -10.8480 O   0  0  0  0  0  0  0  0  0  0  0  0
    7.3800  -14.0540   -7.8870 C   0  0  0  0  0  0  0  0  0  0  0  0
    7.1690  -14.0140   -6.5100 C   0  0  0  0  0  0  0  0  0  0  0  0
    6.1440  -13.2140   -5.9430 C   0  0  0  0  0  0  0  0  0  0  0  0
    8.6470  -12.3950   -3.4020 C   0  0  0  0  0  0  0  0  0  0  0  0
    9.9950  -12.2320   -3.0640 C   0  0  0  0  0  0  0  0  0  0  0  0
   13.2260  -13.7860   -3.3250 S   0  0  0  0  0  0  0  0  0  0  0  0
   12.3380  -13.7030   -4.8690 C   0  0  0  0  0  0  0  0  0  0  0  0
   14.3490  -12.8750   -3.4040 O   0  0  0  0  0  0  0  0  0  0  0  0
   13.4580  -15.1880   -3.0350 O   0  0  0  0  0  0  0  0  0  0  0  0
    9.4658  -12.0842    1.8599 H   0  0  0  0  0  0  0  0  0  0  0  0
    9.3913  -11.1793    0.3100 H   0  0  0  0  0  0  0  0  0  0  0  0
    9.7996  -12.9286    0.3100 H   0  0  0  0  0  0  0  0  0  0  0  0
   11.5508  -10.6284    0.5827 H   0  0  0  0  0  0  0  0  0  0  0  0
   11.6543  -11.6816    2.0528 H   0  0  0  0  0  0  0  0  0  0  0  0
   13.2393  -12.6897    0.7206 H   0  0  0  0  0  0  0  0  0  0  0  0
   11.7495  -13.6064    0.2342 H   0  0  0  0  0  0  0  0  0  0  0  0
   10.6771  -15.4073   -2.0219 H   0  0  0  0  0  0  0  0  0  0  0  0
    8.2787  -15.6913   -2.6280 H   0  0  0  0  0  0  0  0  0  0  0  0
    6.1490  -14.5080   -3.0560 H   0  0  0  0  0  0  0  0  0  0  0  0
    5.0511  -12.7146   -1.9536 H   0  0  0  0  0  0  0  0  0  0  0  0
    3.1276  -11.3003   -1.2551 H   0  0  0  0  0  0  0  0  0  0  0  0
    1.7793  -10.1086   -2.9839 H   0  0  0  0  0  0  0  0  0  0  0  0
    2.3743  -10.3327   -5.3850 H   0  0  0  0  0  0  0  0  0  0  0  0
    4.8843  -11.9266   -8.8415 H   0  0  0  0  0  0  0  0  0  0  0  0
    8.1836  -14.6730   -8.3125 H   0  0  0  0  0  0  0  0  0  0  0  0
    7.8106  -14.6153   -5.8491 H   0  0  0  0  0  0  0  0  0  0  0  0
    8.0807  -11.5403   -3.8005 H   0  0  0  0  0  0  0  0  0  0  0  0
   10.4820  -11.2551   -3.1996 H   0  0  0  0  0  0  0  0  0  0  0  0
   11.2613  -13.6024   -4.6678 H   0  0  0  0  0  0  0  0  0  0  0  0
   12.6860  -12.8335   -5.4459 H   0  0  0  0  0  0  0  0  0  0  0  0
   12.5189  -14.6220   -5.4459 H   0  0  0  0  0  0  0  0  0  0  0  0
  1  2  1  0
  2  3  1  0
  3  4  1  0
  4  5  2  0
  4  6  1  0
  6  7  1  0
  7  8  2  0
  8  9  1  0
  9 10  2  0
 10 11  1  0
 11 12  1  0
 12 13  1  0
 13 14  2  0
 14 15  1  0
 15 16  2  0
 16 17  1  0
 17 18  2  0
 18 19  1  0
 19 20  2  0
 20 21  1  0
 21 22  2  0
 22 23  1  0
 23 24  2  0
 23 25  1  0
 22 26  1  0
 26 27  2  0
 27 28  1  0
 10 29  1  0
 29 30  2  0
  6 31  1  0
 31 32  1  0
 31 33  2  0
 31 34  2  0
 30  7  1  0
 28 12  2  0
 18 13  1  0
 28 20  1  0
  1 35  1  0
  1 36  1  0
  1 37  1  0
  2 38  1  0
  2 39  1  0
  3 40  1  0
  3 41  1  0
  8 42  1  0
  9 43  1  0
 11 44  1  0
 14 45  1  0
 15 46  1  0
 16 47  1  0
 17 48  1  0
 21 49  1  0
 26 50  1  0
 27 51  1  0
 29 52  1  0
 30 53  1  0
 32 54  1  0
 32 55  1  0
 32 56  1  0
M  CHG  2  23   1  25  -1
M  END
>  <meeko>  (4) 
{"is_sidechain": [false], "free_energy": -7.651, "intermolecular_energy": -10.99, "internal_energy": -1.261}

$$$$
LIB_OKWGMOAQRFSSET__M_PUB_ALL__e8__s20260927
     RDKit          3D

 56 59  0  0  0  0  0  0  0  0999 V2000
    1.0590  -14.1380   -4.7950 C   0  0  0  0  0  0  0  0  0  0  0  0
    1.7440  -13.6510   -3.5290 C   0  0  0  0  0  0  0  0  0  0  0  0
    3.2150  -13.3250   -3.7770 C   0  0  0  0  0  0  0  0  0  0  0  0
    3.7310  -12.2530   -2.8260 C   0  0  0  0  0  0  0  0  0  0  0  0
    3.7990  -11.0760   -3.1670 O   0  0  0  0  0  0  0  0  0  0  0  0
    4.1460  -12.6790   -1.5330 N   0  0  0  0  0  0  0  0  0  0  0  0
    5.5290  -12.9830   -1.3360 C   0  0  0  0  0  0  0  0  0  0  0  0
    5.9030  -14.2740   -0.9620 C   0  0  0  0  0  0  0  0  0  0  0  0
    7.2500  -14.5770   -0.7440 C   0  0  0  0  0  0  0  0  0  0  0  0
    8.2420  -13.6010   -0.8960 C   0  0  0  0  0  0  0  0  0  0  0  0
    9.5790  -13.9340   -0.6230 N   0  0  0  0  0  0  0  0  0  0  0  0
   10.7670  -13.4120   -1.1980 C   0  0  0  0  0  0  0  0  0  0  0  0
   11.4010  -12.2980   -0.5900 C   0  0  0  0  0  0  0  0  0  0  0  0
   10.9340  -11.6700    0.5900 C   0  0  0  0  0  0  0  0  0  0  0  0
   11.6040  -10.5800    1.1420 C   0  0  0  0  0  0  0  0  0  0  0  0
   12.7520  -10.1030    0.5270 C   0  0  0  0  0  0  0  0  0  0  0  0
   13.2230  -10.7250   -0.6310 C   0  0  0  0  0  0  0  0  0  0  0  0
   12.5720  -11.8120   -1.1990 C   0  0  0  0  0  0  0  0  0  0  0  0
   13.0960  -12.3560   -2.3060 N   0  0  0  0  0  0  0  0  0  0  0  0
   12.4910  -13.3980   -2.8870 C   0  0  0  0  0  0  0  0  0  0  0  0
   13.0670  -13.9120   -4.0390 C   0  0  0  0  0  0  0  0  0  0  0  0
   12.4860  -14.9870   -4.7190 C   0  0  0  0  0  0  0  0  0  0  0  0
   13.1210  -15.5090   -5.9340 N   0  0  0  0  0  0  0  0  0  0  0  0
   13.3500  -14.7110   -6.8540 O   0  0  0  0  0  0  0  0  0  0  0  0
   13.3940  -16.7160   -5.9680 O   0  0  0  0  0  0  0  0  0  0  0  0
   11.3060  -15.5640   -4.2520 C   0  0  0  0  0  0  0  0  0  0  0  0
   10.7220  -15.0530   -3.0940 C   0  0  0  0  0  0  0  0  0  0  0  0
   11.3090  -13.9750   -2.3850 C   0  0  0  0  0  0  0  0  0  0  0  0
    7.8500  -12.3040   -1.2530 C   0  0  0  0  0  0  0  0  0  0  0  0
    6.5030  -11.9930   -1.4700 C   0  0  0  0  0  0  0  0  0  0  0  0
    3.2110  -12.4190   -0.1520 S   0  0  0  0  0  0  0  0  0  0  0  0
    2.6370  -14.0610    0.2400 C   0  0  0  0  0  0  0  0  0  0  0  0
    4.0800  -11.9800    0.9200 O   0  0  0  0  0  0  0  0  0  0  0  0
    2.0470  -11.6280   -0.5020 O   0  0  0  0  0  0  0  0  0  0  0  0
    0.1895  -14.7562   -4.5269 H   0  0  0  0  0  0  0  0  0  0  0  0
    0.7254  -13.2732   -5.3873 H   0  0  0  0  0  0  0  0  0  0  0  0
    1.7662  -14.7372   -5.3873 H   0  0  0  0  0  0  0  0  0  0  0  0
    1.2326  -12.7449   -3.1721 H   0  0  0  0  0  0  0  0  0  0  0  0
    1.6907  -14.4530   -2.7781 H   0  0  0  0  0  0  0  0  0  0  0  0
    3.8098  -14.2397   -3.6371 H   0  0  0  0  0  0  0  0  0  0  0  0
    3.3092  -12.9417   -4.8037 H   0  0  0  0  0  0  0  0  0  0  0  0
    5.1373  -15.0540   -0.8386 H   0  0  0  0  0  0  0  0  0  0  0  0
    7.5348  -15.5976   -0.4486 H   0  0  0  0  0  0  0  0  0  0  0  0
    9.7280  -14.7450   -0.0330 H   0  0  0  0  0  0  0  0  0  0  0  0
   10.0253  -12.0497    1.0801 H   0  0  0  0  0  0  0  0  0  0  0  0
   11.2257  -10.1020    2.0576 H   0  0  0  0  0  0  0  0  0  0  0  0
   13.2881   -9.2401    0.9489 H   0  0  0  0  0  0  0  0  0  0  0  0
   14.1375  -10.3423   -1.1077 H   0  0  0  0  0  0  0  0  0  0  0  0
   13.9962  -13.4668   -4.4242 H   0  0  0  0  0  0  0  0  0  0  0  0
   10.8444  -16.4068   -4.7873 H   0  0  0  0  0  0  0  0  0  0  0  0
    9.7860  -15.4956   -2.7226 H   0  0  0  0  0  0  0  0  0  0  0  0
    8.6123  -11.5188   -1.3643 H   0  0  0  0  0  0  0  0  0  0  0  0
    6.2122  -10.9687   -1.7460 H   0  0  0  0  0  0  0  0  0  0  0  0
    2.5942  -14.1834    1.3323 H   0  0  0  0  0  0  0  0  0  0  0  0
    1.6335  -14.2099   -0.1852 H   0  0  0  0  0  0  0  0  0  0  0  0
    3.3292  -14.8027   -0.1852 H   0  0  0  0  0  0  0  0  0  0  0  0
  1  2  1  0
  2  3  1  0
  3  4  1  0
  4  5  2  0
  4  6  1  0
  6  7  1  0
  7  8  2  0
  8  9  1  0
  9 10  2  0
 10 11  1  0
 11 12  1  0
 12 13  1  0
 13 14  2  0
 14 15  1  0
 15 16  2  0
 16 17  1  0
 17 18  2  0
 18 19  1  0
 19 20  2  0
 20 21  1  0
 21 22  2  0
 22 23  1  0
 23 24  2  0
 23 25  1  0
 22 26  1  0
 26 27  2  0
 27 28  1  0
 10 29  1  0
 29 30  2  0
  6 31  1  0
 31 32  1  0
 31 33  2  0
 31 34  2  0
 30  7  1  0
 28 12  2  0
 18 13  1  0
 28 20  1  0
  1 35  1  0
  1 36  1  0
  1 37  1  0
  2 38  1  0
  2 39  1  0
  3 40  1  0
  3 41  1  0
  8 42  1  0
  9 43  1  0
 11 44  1  0
 14 45  1  0
 15 46  1  0
 16 47  1  0
 17 48  1  0
 21 49  1  0
 26 50  1  0
 27 51  1  0
 29 52  1  0
 30 53  1  0
 32 54  1  0
 32 55  1  0
 32 56  1  0
M  CHG  2  23   1  25  -1
M  END
>  <meeko>  (5) 
{"is_sidechain": [false], "free_energy": -7.631, "intermolecular_energy": -10.955, "internal_energy": -1.267}

$$$$
LIB_OKWGMOAQRFSSET__M_PUB_ALL__e8__s20260927
     RDKit          3D

 56 59  0  0  0  0  0  0  0  0999 V2000
   13.8060  -15.0040   -5.4790 C   0  0  0  0  0  0  0  0  0  0  0  0
   13.1210  -13.8430   -4.7780 C   0  0  0  0  0  0  0  0  0  0  0  0
   13.4000  -13.8510   -3.2760 C   0  0  0  0  0  0  0  0  0  0  0  0
   13.0990  -12.5040   -2.6310 C   0  0  0  0  0  0  0  0  0  0  0  0
   13.7750  -11.5110   -2.8810 O   0  0  0  0  0  0  0  0  0  0  0  0
   12.0110  -12.4530   -1.7140 N   0  0  0  0  0  0  0  0  0  0  0  0
   10.7040  -12.7660   -2.2020 C   0  0  0  0  0  0  0  0  0  0  0  0
   10.1240  -13.9920   -1.8760 C   0  0  0  0  0  0  0  0  0  0  0  0
    8.8560  -14.3190   -2.3670 C   0  0  0  0  0  0  0  0  0  0  0  0
    8.1500  -13.4300   -3.1870 C   0  0  0  0  0  0  0  0  0  0  0  0
    6.8990  -13.8150   -3.6960 N   0  0  0  0  0  0  0  0  0  0  0  0
    6.1400  -13.2300   -4.7420 C   0  0  0  0  0  0  0  0  0  0  0  0
    5.0890  -12.3330   -4.4200 C   0  0  0  0  0  0  0  0  0  0  0  0
    4.7520  -11.9530   -3.0970 C   0  0  0  0  0  0  0  0  0  0  0  0
    3.7100  -11.0630   -2.8450 C   0  0  0  0  0  0  0  0  0  0  0  0
    2.9920  -10.5350   -3.9070 C   0  0  0  0  0  0  0  0  0  0  0  0
    3.3270  -10.8980   -5.2140 C   0  0  0  0  0  0  0  0  0  0  0  0
    4.3600  -11.7830   -5.4900 C   0  0  0  0  0  0  0  0  0  0  0  0
    4.6220  -12.0710   -6.7720 N   0  0  0  0  0  0  0  0  0  0  0  0
    5.6040  -12.9270   -7.0760 C   0  0  0  0  0  0  0  0  0  0  0  0
    5.8210  -13.2020   -8.4180 C   0  0  0  0  0  0  0  0  0  0  0  0
    6.8140  -14.1010   -8.8190 C   0  0  0  0  0  0  0  0  0  0  0  0
    7.0200  -14.3680  -10.2470 N   0  0  0  0  0  0  0  0  0  0  0  0
    6.5910  -13.5370  -11.0580 O   0  0  0  0  0  0  0  0  0  0  0  0
    7.6150  -15.4100  -10.5570 O   0  0  0  0  0  0  0  0  0  0  0  0
    7.6060  -14.7470   -7.8720 C   0  0  0  0  0  0  0  0  0  0  0  0
    7.3940  -14.4760   -6.5210 C   0  0  0  0  0  0  0  0  0  0  0  0
    6.4030  -13.5530   -6.1000 C   0  0  0  0  0  0  0  0  0  0  0  0
    8.7540  -12.2110   -3.5220 C   0  0  0  0  0  0  0  0  0  0  0  0
   10.0230  -11.8790   -3.0360 C   0  0  0  0  0  0  0  0  0  0  0  0
   12.2360  -12.4850   -0.0420 S   0  0  0  0  0  0  0  0  0  0  0  0
   10.6810  -11.8610    0.5690 C   0  0  0  0  0  0  0  0  0  0  0  0
   12.3650  -13.8630    0.3830 O   0  0  0  0  0  0  0  0  0  0  0  0
   13.2590  -11.5220    0.3230 O   0  0  0  0  0  0  0  0  0  0  0  0
   14.2144  -15.6963   -4.7281 H   0  0  0  0  0  0  0  0  0  0  0  0
   13.0762  -15.5345   -6.1082 H   0  0  0  0  0  0  0  0  0  0  0  0
   14.6233  -14.6217   -6.1082 H   0  0  0  0  0  0  0  0  0  0  0  0
   13.4911  -12.8993   -5.2051 H   0  0  0  0  0  0  0  0  0  0  0  0
   12.0357  -13.9421   -4.9274 H   0  0  0  0  0  0  0  0  0  0  0  0
   12.7715  -14.6196   -2.8024 H   0  0  0  0  0  0  0  0  0  0  0  0
   14.4691  -14.0652   -3.1308 H   0  0  0  0  0  0  0  0  0  0  0  0
   10.6642  -14.7019   -1.2324 H   0  0  0  0  0  0  0  0  0  0  0  0
    8.4068  -15.2884   -2.1053 H   0  0  0  0  0  0  0  0  0  0  0  0
    6.4000  -14.5250   -3.1710 H   0  0  0  0  0  0  0  0  0  0  0  0
    5.3234  -12.3682   -2.2537 H   0  0  0  0  0  0  0  0  0  0  0  0
    3.4590  -10.7815   -1.8117 H   0  0  0  0  0  0  0  0  0  0  0  0
    2.1640   -9.8349   -3.7218 H   0  0  0  0  0  0  0  0  0  0  0  0
    2.7546  -10.4693   -6.0498 H   0  0  0  0  0  0  0  0  0  0  0  0
    5.2019  -12.7048   -9.1792 H   0  0  0  0  0  0  0  0  0  0  0  0
    8.3847  -15.4582   -8.1848 H   0  0  0  0  0  0  0  0  0  0  0  0
    8.0081  -14.9887   -5.7660 H   0  0  0  0  0  0  0  0  0  0  0  0
    8.2226  -11.5047   -4.1768 H   0  0  0  0  0  0  0  0  0  0  0  0
   10.4837  -10.9188   -3.3114 H   0  0  0  0  0  0  0  0  0  0  0  0
   10.6910  -11.8650    1.6689 H   0  0  0  0  0  0  0  0  0  0  0  0
   10.5309  -10.8330    0.2075 H   0  0  0  0  0  0  0  0  0  0  0  0
    9.8619  -12.5001    0.2075 H   0  0  0  0  0  0  0  0  0  0  0  0
  1  2  1  0
  2  3  1  0
  3  4  1  0
  4  5  2  0
  4  6  1  0
  6  7  1  0
  7  8  2  0
  8  9  1  0
  9 10  2  0
 10 11  1  0
 11 12  1  0
 12 13  1  0
 13 14  2  0
 14 15  1  0
 15 16  2  0
 16 17  1  0
 17 18  2  0
 18 19  1  0
 19 20  2  0
 20 21  1  0
 21 22  2  0
 22 23  1  0
 23 24  2  0
 23 25  1  0
 22 26  1  0
 26 27  2  0
 27 28  1  0
 10 29  1  0
 29 30  2  0
  6 31  1  0
 31 32  1  0
 31 33  2  0
 31 34  2  0
 30  7  1  0
 28 12  2  0
 18 13  1  0
 28 20  1  0
  1 35  1  0
  1 36  1  0
  1 37  1  0
  2 38  1  0
  2 39  1  0
  3 40  1  0
  3 41  1  0
  8 42  1  0
  9 43  1  0
 11 44  1  0
 14 45  1  0
 15 46  1  0
 16 47  1  0
 17 48  1  0
 21 49  1  0
 26 50  1  0
 27 51  1  0
 29 52  1  0
 30 53  1  0
 32 54  1  0
 32 55  1  0
 32 56  1  0
M  CHG  2  23   1  25  -1
M  END
>  <meeko>  (6) 
{"is_sidechain": [false], "free_energy": -7.618, "intermolecular_energy": -10.96, "internal_energy": -1.243}

$$$$
LIB_OKWGMOAQRFSSET__M_PUB_ALL__e8__s20260927
     RDKit          3D

 56 59  0  0  0  0  0  0  0  0999 V2000
    7.4900   -7.9780    1.3510 C   0  0  0  0  0  0  0  0  0  0  0  0
    6.6930   -9.2660    1.4660 C   0  0  0  0  0  0  0  0  0  0  0  0
    7.4780  -10.4610    0.9280 C   0  0  0  0  0  0  0  0  0  0  0  0
    6.8590  -11.0240   -0.3450 C   0  0  0  0  0  0  0  0  0  0  0  0
    6.7850  -10.3540   -1.3700 O   0  0  0  0  0  0  0  0  0  0  0  0
    6.3550  -12.3550   -0.2870 N   0  0  0  0  0  0  0  0  0  0  0  0
    4.9380  -12.5400   -0.3270 C   0  0  0  0  0  0  0  0  0  0  0  0
    4.2180  -12.0960   -1.4380 C   0  0  0  0  0  0  0  0  0  0  0  0
    2.8290  -12.2500   -1.4780 C   0  0  0  0  0  0  0  0  0  0  0  0
    2.1400  -12.8480   -0.4160 C   0  0  0  0  0  0  0  0  0  0  0  0
    0.7400  -12.9430   -0.4750 N   0  0  0  0  0  0  0  0  0  0  0  0
   -0.2060  -12.9090    0.5830 C   0  0  0  0  0  0  0  0  0  0  0  0
   -0.5440  -11.6630    1.1720 C   0  0  0  0  0  0  0  0  0  0  0  0
   -0.0100  -10.4200    0.7530 C   0  0  0  0  0  0  0  0  0  0  0  0
   -0.3850   -9.2280    1.3700 C   0  0  0  0  0  0  0  0  0  0  0  0
   -1.3020   -9.2580    2.4100 C   0  0  0  0  0  0  0  0  0  0  0  0
   -1.8400  -10.4800    2.8200 C   0  0  0  0  0  0  0  0  0  0  0  0
   -1.4810  -11.6800    2.2210 C   0  0  0  0  0  0  0  0  0  0  0  0
   -2.0510  -12.8070    2.6690 N   0  0  0  0  0  0  0  0  0  0  0  0
   -1.7230  -13.9830    2.1230 C   0  0  0  0  0  0  0  0  0  0  0  0
   -2.3310  -15.1190    2.6350 C   0  0  0  0  0  0  0  0  0  0  0  0
   -2.0270  -16.3890    2.1340 C   0  0  0  0  0  0  0  0  0  0  0  0
   -2.6890  -17.5710    2.6960 N   0  0  0  0  0  0  0  0  0  0  0  0
   -2.2260  -18.6840    2.4100 O   0  0  0  0  0  0  0  0  0  0  0  0
   -3.6720  -17.3860    3.4270 O   0  0  0  0  0  0  0  0  0  0  0  0
   -1.0970  -16.5390    1.1070 C   0  0  0  0  0  0  0  0  0  0  0  0
   -0.4820  -15.4010    0.5860 C   0  0  0  0  0  0  0  0  0  0  0  0
   -0.7930  -14.1060    1.0720 C   0  0  0  0  0  0  0  0  0  0  0  0
    2.8740  -13.2700    0.7010 C   0  0  0  0  0  0  0  0  0  0  0  0
    4.2630  -13.1170    0.7490 C   0  0  0  0  0  0  0  0  0  0  0  0
    7.3170  -13.7010   -0.6200 S   0  0  0  0  0  0  0  0  0  0  0  0
    6.3110  -14.6200   -1.7700 C   0  0  0  0  0  0  0  0  0  0  0  0
    8.5070  -13.2600   -1.3170 O   0  0  0  0  0  0  0  0  0  0  0  0
    7.4450  -14.5070    0.5800 O   0  0  0  0  0  0  0  0  0  0  0  0
    7.7237   -7.6003    2.3574 H   0  0  0  0  0  0  0  0  0  0  0  0
    8.4255   -8.1731    0.8062 H   0  0  0  0  0  0  0  0  0  0  0  0
    6.8980   -7.2279    0.8062 H   0  0  0  0  0  0  0  0  0  0  0  0
    6.4523   -9.4439    2.5245 H   0  0  0  0  0  0  0  0  0  0  0  0
    5.7759   -9.1585    0.8682 H   0  0  0  0  0  0  0  0  0  0  0  0
    8.5077  -10.1408    0.7107 H   0  0  0  0  0  0  0  0  0  0  0  0
    7.4602  -11.2514    1.6928 H   0  0  0  0  0  0  0  0  0  0  0  0
    4.7437  -11.6251   -2.2817 H   0  0  0  0  0  0  0  0  0  0  0  0
    2.2694  -11.8962   -2.3565 H   0  0  0  0  0  0  0  0  0  0  0  0
    0.3450  -13.2000   -1.3730 H   0  0  0  0  0  0  0  0  0  0  0  0
    0.7141  -10.3950   -0.0747 H   0  0  0  0  0  0  0  0  0  0  0  0
    0.0427   -8.2715    1.0350 H   0  0  0  0  0  0  0  0  0  0  0  0
   -1.6037   -8.3252    2.9089 H   0  0  0  0  0  0  0  0  0  0  0  0
   -2.5703  -10.4920    3.6425 H   0  0  0  0  0  0  0  0  0  0  0  0
   -3.0646  -15.0198    3.4487 H   0  0  0  0  0  0  0  0  0  0  0  0
   -0.8525  -17.5370    0.7144 H   0  0  0  0  0  0  0  0  0  0  0  0
    0.2598  -15.5104   -0.2188 H   0  0  0  0  0  0  0  0  0  0  0  0
    2.3496  -13.7283    1.5524 H   0  0  0  0  0  0  0  0  0  0  0  0
    4.8232  -13.4514    1.6346 H   0  0  0  0  0  0  0  0  0  0  0  0
    5.6103  -15.2601   -1.2139 H   0  0  0  0  0  0  0  0  0  0  0  0
    5.7453  -13.9203   -2.4028 H   0  0  0  0  0  0  0  0  0  0  0  0
    6.9568  -15.2465   -2.4028 H   0  0  0  0  0  0  0  0  0  0  0  0
  1  2  1  0
  2  3  1  0
  3  4  1  0
  4  5  2  0
  4  6  1  0
  6  7  1  0
  7  8  2  0
  8  9  1  0
  9 10  2  0
 10 11  1  0
 11 12  1  0
 12 13  1  0
 13 14  2  0
 14 15  1  0
 15 16  2  0
 16 17  1  0
 17 18  2  0
 18 19  1  0
 19 20  2  0
 20 21  1  0
 21 22  2  0
 22 23  1  0
 23 24  2  0
 23 25  1  0
 22 26  1  0
 26 27  2  0
 27 28  1  0
 10 29  1  0
 29 30  2  0
  6 31  1  0
 31 32  1  0
 31 33  2  0
 31 34  2  0
 30  7  1  0
 28 12  2  0
 18 13  1  0
 28 20  1  0
  1 35  1  0
  1 36  1  0
  1 37  1  0
  2 38  1  0
  2 39  1  0
  3 40  1  0
  3 41  1  0
  8 42  1  0
  9 43  1  0
 11 44  1  0
 14 45  1  0
 15 46  1  0
 16 47  1  0
 17 48  1  0
 21 49  1  0
 26 50  1  0
 27 51  1  0
 29 52  1  0
 30 53  1  0
 32 54  1  0
 32 55  1  0
 32 56  1  0
M  CHG  2  23   1  25  -1
M  END
>  <meeko>  (7) 
{"is_sidechain": [false], "free_energy": -7.477, "intermolecular_energy": -10.936, "internal_energy": -1.06}

$$$$
LIB_OKWGMOAQRFSSET__M_PUB_ALL__e8__s20260927
     RDKit          3D

 56 59  0  0  0  0  0  0  0  0999 V2000
    5.3450  -11.5820    1.5380 C   0  0  0  0  0  0  0  0  0  0  0  0
    6.5080  -11.8490    0.5980 C   0  0  0  0  0  0  0  0  0  0  0  0
    6.1370  -12.8650   -0.4800 C   0  0  0  0  0  0  0  0  0  0  0  0
    5.2180  -12.2660   -1.5370 C   0  0  0  0  0  0  0  0  0  0  0  0
    5.5080  -11.2250   -2.1190 O   0  0  0  0  0  0  0  0  0  0  0  0
    4.0030  -12.9560   -1.8080 N   0  0  0  0  0  0  0  0  0  0  0  0
    2.9220  -12.8030   -0.8850 C   0  0  0  0  0  0  0  0  0  0  0  0
    2.1520  -11.6390   -0.9170 C   0  0  0  0  0  0  0  0  0  0  0  0
    1.1070  -11.4680   -0.0040 C   0  0  0  0  0  0  0  0  0  0  0  0
    0.8140  -12.4500    0.9500 C   0  0  0  0  0  0  0  0  0  0  0  0
   -0.2140  -12.2190    1.8780 N   0  0  0  0  0  0  0  0  0  0  0  0
   -1.5190  -12.7760    1.9260 C   0  0  0  0  0  0  0  0  0  0  0  0
   -2.5550  -12.1830    1.1610 C   0  0  0  0  0  0  0  0  0  0  0  0
   -2.3700  -11.0640    0.3130 C   0  0  0  0  0  0  0  0  0  0  0  0
   -3.4290  -10.5290   -0.4190 C   0  0  0  0  0  0  0  0  0  0  0  0
   -4.6870  -11.1060   -0.3190 C   0  0  0  0  0  0  0  0  0  0  0  0
   -4.8720  -12.2160    0.5070 C   0  0  0  0  0  0  0  0  0  0  0  0
   -3.8320  -12.7660    1.2460 C   0  0  0  0  0  0  0  0  0  0  0  0
   -4.0940  -13.8380    2.0070 N   0  0  0  0  0  0  0  0  0  0  0  0
   -3.1200  -14.3880    2.7400 C   0  0  0  0  0  0  0  0  0  0  0  0
   -3.4490  -15.4850    3.5220 C   0  0  0  0  0  0  0  0  0  0  0  0
   -2.4940  -16.1070    4.3320 C   0  0  0  0  0  0  0  0  0  0  0  0
   -2.8730  -17.2660    5.1460 N   0  0  0  0  0  0  0  0  0  0  0  0
   -3.5270  -17.0590    6.1790 O   0  0  0  0  0  0  0  0  0  0  0  0
   -2.5210  -18.3860    4.7520 O   0  0  0  0  0  0  0  0  0  0  0  0
   -1.1850  -15.6290    4.3750 C   0  0  0  0  0  0  0  0  0  0  0  0
   -0.8460  -14.5270    3.5910 C   0  0  0  0  0  0  0  0  0  0  0  0
   -1.8000  -13.8980    2.7510 C   0  0  0  0  0  0  0  0  0  0  0  0
    1.6090  -13.6040    0.9820 C   0  0  0  0  0  0  0  0  0  0  0  0
    2.6580  -13.7810    0.0730 C   0  0  0  0  0  0  0  0  0  0  0  0
    3.6290  -13.5630   -3.3380 S   0  0  0  0  0  0  0  0  0  0  0  0
    5.0240  -14.6170   -3.6870 C   0  0  0  0  0  0  0  0  0  0  0  0
    2.4510  -14.3980   -3.2300 O   0  0  0  0  0  0  0  0  0  0  0  0
    3.6550  -12.4800   -4.3030 O   0  0  0  0  0  0  0  0  0  0  0  0
    5.6898  -11.6612    2.5796 H   0  0  0  0  0  0  0  0  0  0  0  0
    4.9525  -10.5704    1.3576 H   0  0  0  0  0  0  0  0  0  0  0  0
    4.5506  -12.3211    1.3576 H   0  0  0  0  0  0  0  0  0  0  0  0
    6.7998  -10.9053    0.1140 H   0  0  0  0  0  0  0  0  0  0  0  0
    7.3399  -12.2613    1.1880 H   0  0  0  0  0  0  0  0  0  0  0  0
    7.0578  -13.2169   -0.9682 H   0  0  0  0  0  0  0  0  0  0  0  0
    5.6016  -13.6945    0.0049 H   0  0  0  0  0  0  0  0  0  0  0  0
    2.3673  -10.8569   -1.6600 H   0  0  0  0  0  0  0  0  0  0  0  0
    0.5056  -10.5475   -0.0357 H   0  0  0  0  0  0  0  0  0  0  0  0
   -0.0660  -11.4580    2.5320 H   0  0  0  0  0  0  0  0  0  0  0  0
   -1.3722  -10.6085    0.2304 H   0  0  0  0  0  0  0  0  0  0  0  0
   -3.2687   -9.6571   -1.0702 H   0  0  0  0  0  0  0  0  0  0  0  0
   -5.5329  -10.6914   -0.8869 H   0  0  0  0  0  0  0  0  0  0  0  0
   -5.8720  -12.6692    0.5749 H   0  0  0  0  0  0  0  0  0  0  0  0
   -4.4784  -15.8723    3.5048 H   0  0  0  0  0  0  0  0  0  0  0  0
   -0.4332  -16.1126    5.0160 H   0  0  0  0  0  0  0  0  0  0  0  0
    0.1822  -14.1376    3.6247 H   0  0  0  0  0  0  0  0  0  0  0  0
    1.4053  -14.3818    1.7327 H   0  0  0  0  0  0  0  0  0  0  0  0
    3.2741  -14.6914    0.1142 H   0  0  0  0  0  0  0  0  0  0  0  0
    5.4729  -14.9561   -2.7417 H   0  0  0  0  0  0  0  0  0  0  0  0
    4.6885  -15.4892   -4.2673 H   0  0  0  0  0  0  0  0  0  0  0  0
    5.7713  -14.0560   -4.2673 H   0  0  0  0  0  0  0  0  0  0  0  0
  1  2  1  0
  2  3  1  0
  3  4  1  0
  4  5  2  0
  4  6  1  0
  6  7  1  0
  7  8  2  0
  8  9  1  0
  9 10  2  0
 10 11  1  0
 11 12  1  0
 12 13  1  0
 13 14  2  0
 14 15  1  0
 15 16  2  0
 16 17  1  0
 17 18  2  0
 18 19  1  0
 19 20  2  0
 20 21  1  0
 21 22  2  0
 22 23  1  0
 23 24  2  0
 23 25  1  0
 22 26  1  0
 26 27  2  0
 27 28  1  0
 10 29  1  0
 29 30  2  0
  6 31  1  0
 31 32  1  0
 31 33  2  0
 31 34  2  0
 30  7  1  0
 28 12  2  0
 18 13  1  0
 28 20  1  0
  1 35  1  0
  1 36  1  0
  1 37  1  0
  2 38  1  0
  2 39  1  0
  3 40  1  0
  3 41  1  0
  8 42  1  0
  9 43  1  0
 11 44  1  0
 14 45  1  0
 15 46  1  0
 16 47  1  0
 17 48  1  0
 21 49  1  0
 26 50  1  0
 27 51  1  0
 29 52  1  0
 30 53  1  0
 32 54  1  0
 32 55  1  0
 32 56  1  0
M  CHG  2  23   1  25  -1
M  END
>  <meeko>  (8) 
{"is_sidechain": [false], "free_energy": -7.474, "intermolecular_energy": -10.327, "internal_energy": -1.664}

$$$$
LIB_OKWGMOAQRFSSET__M_PUB_ALL__e8__s20260927
     RDKit          3D

 56 59  0  0  0  0  0  0  0  0999 V2000
    8.9780  -16.6770   -1.5650 C   0  0  0  0  0  0  0  0  0  0  0  0
    8.5340  -15.3740   -0.9210 C   0  0  0  0  0  0  0  0  0  0  0  0
    7.0780  -15.0520   -1.2550 C   0  0  0  0  0  0  0  0  0  0  0  0
    6.8130  -13.5520   -1.2630 C   0  0  0  0  0  0  0  0  0  0  0  0
    7.2430  -12.8320   -2.1590 O   0  0  0  0  0  0  0  0  0  0  0  0
    6.0600  -13.0200   -0.1780 N   0  0  0  0  0  0  0  0  0  0  0  0
    4.6350  -13.1040   -0.2440 C   0  0  0  0  0  0  0  0  0  0  0  0
    3.9280  -12.1890   -1.0240 C   0  0  0  0  0  0  0  0  0  0  0  0
    2.5320  -12.2460   -1.0770 C   0  0  0  0  0  0  0  0  0  0  0  0
    1.8220  -13.2140   -0.3560 C   0  0  0  0  0  0  0  0  0  0  0  0
    0.4190  -13.2090   -0.4000 N   0  0  0  0  0  0  0  0  0  0  0  0
   -0.5110  -13.1470    0.6710 C   0  0  0  0  0  0  0  0  0  0  0  0
   -0.8250  -11.8890    1.2460 C   0  0  0  0  0  0  0  0  0  0  0  0
   -0.2820  -10.6580    0.8000 C   0  0  0  0  0  0  0  0  0  0  0  0
   -0.6340   -9.4520    1.4040 C   0  0  0  0  0  0  0  0  0  0  0  0
   -1.5360   -9.4560    2.4580 C   0  0  0  0  0  0  0  0  0  0  0  0
   -2.0820  -10.6640    2.8940 C   0  0  0  0  0  0  0  0  0  0  0  0
   -1.7460  -11.8780    2.3080 C   0  0  0  0  0  0  0  0  0  0  0  0
   -2.3240  -12.9910    2.7810 N   0  0  0  0  0  0  0  0  0  0  0  0
   -2.0180  -14.1790    2.2490 C   0  0  0  0  0  0  0  0  0  0  0  0
   -2.6320  -15.2990    2.7870 C   0  0  0  0  0  0  0  0  0  0  0  0
   -2.3510  -16.5800    2.3010 C   0  0  0  0  0  0  0  0  0  0  0  0
   -3.0190  -17.7450    2.8910 N   0  0  0  0  0  0  0  0  0  0  0  0
   -2.5630  -18.8670    2.6290 O   0  0  0  0  0  0  0  0  0  0  0  0
   -4.0000  -17.5380    3.6190 O   0  0  0  0  0  0  0  0  0  0  0  0
   -1.4380  -16.7570    1.2630 C   0  0  0  0  0  0  0  0  0  0  0  0
   -0.8170  -15.6350    0.7160 C   0  0  0  0  0  0  0  0  0  0  0  0
   -1.1050  -14.3290    1.1870 C   0  0  0  0  0  0  0  0  0  0  0  0
    2.5450  -14.1130    0.4390 C   0  0  0  0  0  0  0  0  0  0  0  0
    3.9420  -14.0610    0.4990 C   0  0  0  0  0  0  0  0  0  0  0  0
    6.7450  -12.7160    1.3340 S   0  0  0  0  0  0  0  0  0  0  0  0
    8.3370  -12.0350    0.9070 C   0  0  0  0  0  0  0  0  0  0  0  0
    5.9750  -11.6800    1.9920 O   0  0  0  0  0  0  0  0  0  0  0  0
    6.9840  -13.9750    2.0150 O   0  0  0  0  0  0  0  0  0  0  0  0
    9.2269  -17.4073   -0.7810 H   0  0  0  0  0  0  0  0  0  0  0  0
    8.1641  -17.0731   -2.1901 H   0  0  0  0  0  0  0  0  0  0  0  0
    9.8644  -16.4937   -2.1901 H   0  0  0  0  0  0  0  0  0  0  0  0
    8.6396  -15.4605    0.1705 H   0  0  0  0  0  0  0  0  0  0  0  0
    9.1655  -14.5628   -1.3124 H   0  0  0  0  0  0  0  0  0  0  0  0
    6.8432  -15.4595   -2.2494 H   0  0  0  0  0  0  0  0  0  0  0  0
    6.4431  -15.5052   -0.4794 H   0  0  0  0  0  0  0  0  0  0  0  0
    4.4690  -11.4221   -1.5978 H   0  0  0  0  0  0  0  0  0  0  0  0
    1.9832  -11.5196   -1.6943 H   0  0  0  0  0  0  0  0  0  0  0  0
   -0.0030  -13.4050   -1.3010 H   0  0  0  0  0  0  0  0  0  0  0  0
    0.4303  -10.6543   -0.0382 H   0  0  0  0  0  0  0  0  0  0  0  0
   -0.2005   -8.5057    1.0481 H   0  0  0  0  0  0  0  0  0  0  0  0
   -1.8192   -8.5124    2.9473 H   0  0  0  0  0  0  0  0  0  0  0  0
   -2.8003  -10.6547    3.7270 H   0  0  0  0  0  0  0  0  0  0  0  0
   -3.3521  -15.1785    3.6097 H   0  0  0  0  0  0  0  0  0  0  0  0
   -1.2114  -17.7638    0.8822 H   0  0  0  0  0  0  0  0  0  0  0  0
   -0.0885  -15.7656   -0.0978 H   0  0  0  0  0  0  0  0  0  0  0  0
    2.0059  -14.8717    1.0253 H   0  0  0  0  0  0  0  0  0  0  0  0
    4.4932  -14.7732    1.1307 H   0  0  0  0  0  0  0  0  0  0  0  0
    8.8926  -11.7973    1.8261 H   0  0  0  0  0  0  0  0  0  0  0  0
    8.9034  -12.7696    0.3157 H   0  0  0  0  0  0  0  0  0  0  0  0
    8.1969  -11.1180    0.3157 H   0  0  0  0  0  0  0  0  0  0  0  0
  1  2  1  0
  2  3  1  0
  3  4  1  0
  4  5  2  0
  4  6  1  0
  6  7  1  0
  7  8  2  0
  8  9  1  0
  9 10  2  0
 10 11  1  0
 11 12  1  0
 12 13  1  0
 13 14  2  0
 14 15  1  0
 15 16  2  0
 16 17  1  0
 17 18  2  0
 18 19  1  0
 19 20  2  0
 20 21  1  0
 21 22  2  0
 22 23  1  0
 23 24  2  0
 23 25  1  0
 22 26  1  0
 26 27  2  0
 27 28  1  0
 10 29  1  0
 29 30  2  0
  6 31  1  0
 31 32  1  0
 31 33  2  0
 31 34  2  0
 30  7  1  0
 28 12  2  0
 18 13  1  0
 28 20  1  0
  1 35  1  0
  1 36  1  0
  1 37  1  0
  2 38  1  0
  2 39  1  0
  3 40  1  0
  3 41  1  0
  8 42  1  0
  9 43  1  0
 11 44  1  0
 14 45  1  0
 15 46  1  0
 16 47  1  0
 17 48  1  0
 21 49  1  0
 26 50  1  0
 27 51  1  0
 29 52  1  0
 30 53  1  0
 32 54  1  0
 32 55  1  0
 32 56  1  0
M  CHG  2  23   1  25  -1
M  END
>  <meeko>  (9) 
{"is_sidechain": [false], "free_energy": -7.465, "intermolecular_energy": -10.525, "internal_energy": -1.453}

$$$$
