LIB_QMOYFHWYOPGKGI__M_PUB_ALL__e8__s20260927
     RDKit          3D

 48 51  0  0  0  0  0  0  0  0999 V2000
   13.6390  -11.8580   -2.8760 C   0  0  0  0  0  0  0  0  0  0  0  0
   12.7440  -11.8780   -1.7490 N   0  0  0  0  0  0  0  0  0  0  0  0
   13.0470  -11.5290   -0.4620 C   0  0  0  0  0  0  0  0  0  0  0  0
   12.0060  -11.6550    0.3360 N   0  0  0  0  0  0  0  0  0  0  0  0
   10.9860  -12.1050   -0.4830 C   0  0  0  0  0  0  0  0  0  0  0  0
    9.6420  -12.4270   -0.2300 C   0  0  0  0  0  0  0  0  0  0  0  0
    9.1060  -12.3110    1.0340 N   0  0  0  0  0  0  0  0  0  0  0  0
    7.7630  -11.8460    1.2860 C   0  0  0  0  0  0  0  0  0  0  0  0
    6.8330  -12.9940    1.6710 C   0  0  0  0  0  0  0  0  0  0  0  0
    5.4410  -12.5630    2.1140 C   0  0  0  0  0  0  0  0  0  0  0  0
    5.2010  -12.9200    3.4670 O   0  0  0  0  0  0  0  0  0  0  0  0
    8.8900  -12.8660   -1.2780 N   0  0  0  0  0  0  0  0  0  0  0  0
    9.4440  -12.9470   -2.5190 C   0  0  0  0  0  0  0  0  0  0  0  0
    8.5570  -13.3880   -3.6200 C   0  0  0  0  0  0  0  0  0  0  0  0
    9.0490  -14.1140   -4.7190 C   0  0  0  0  0  0  0  0  0  0  0  0
    8.2100  -14.5280   -5.7540 C   0  0  0  0  0  0  0  0  0  0  0  0
    6.8490  -14.2280   -5.7140 C   0  0  0  0  0  0  0  0  0  0  0  0
    6.3060  -13.5100   -4.6400 C   0  0  0  0  0  0  0  0  0  0  0  0
    4.8700  -13.1880   -4.5930 C   0  0  0  0  0  0  0  0  0  0  0  0
    3.8980  -14.1950   -4.7180 C   0  0  0  0  0  0  0  0  0  0  0  0
    2.5360  -13.8910   -4.6730 C   0  0  0  0  0  0  0  0  0  0  0  0
    2.1210  -12.5720   -4.5020 C   0  0  0  0  0  0  0  0  0  0  0  0
    3.0680  -11.5590   -4.3750 C   0  0  0  0  0  0  0  0  0  0  0  0
    4.4310  -11.8660   -4.4200 C   0  0  0  0  0  0  0  0  0  0  0  0
    7.1740  -13.1020   -3.6090 C   0  0  0  0  0  0  0  0  0  0  0  0
   10.7240  -12.6620   -2.8450 N   0  0  0  0  0  0  0  0  0  0  0  0
   11.4310  -12.2510   -1.7840 C   0  0  0  0  0  0  0  0  0  0  0  0
   14.6789  -11.8348   -2.5180 H   0  0  0  0  0  0  0  0  0  0  0  0
   13.4811  -12.7599   -3.4856 H   0  0  0  0  0  0  0  0  0  0  0  0
   13.4410  -10.9641   -3.4856 H   0  0  0  0  0  0  0  0  0  0  0  0
   14.0387  -11.1851   -0.1330 H   0  0  0  0  0  0  0  0  0  0  0  0
    9.7260  -12.5330    1.8060 H   0  0  0  0  0  0  0  0  0  0  0  0
    7.7867  -11.1151    2.1077 H   0  0  0  0  0  0  0  0  0  0  0  0
    7.3791  -11.3874    0.3628 H   0  0  0  0  0  0  0  0  0  0  0  0
    6.7257  -13.6555    0.7987 H   0  0  0  0  0  0  0  0  0  0  0  0
    7.2948  -13.4915    2.5366 H   0  0  0  0  0  0  0  0  0  0  0  0
    5.3528  -11.4715    2.0095 H   0  0  0  0  0  0  0  0  0  0  0  0
    4.6998  -13.0735    1.4816 H   0  0  0  0  0  0  0  0  0  0  0  0
    5.8050  -13.6690    3.6520 H   0  0  0  0  0  0  0  0  0  0  0  0
   10.1199  -14.3612   -4.7638 H   0  0  0  0  0  0  0  0  0  0  0  0
    8.6231  -15.0922   -6.6032 H   0  0  0  0  0  0  0  0  0  0  0  0
    6.1946  -14.5584   -6.5341 H   0  0  0  0  0  0  0  0  0  0  0  0
    4.2152  -15.2395   -4.8535 H   0  0  0  0  0  0  0  0  0  0  0  0
    1.7901  -14.6934   -4.7726 H   0  0  0  0  0  0  0  0  0  0  0  0
    1.0482  -12.3315   -4.4674 H   0  0  0  0  0  0  0  0  0  0  0  0
    2.7434  -10.5168   -4.2392 H   0  0  0  0  0  0  0  0  0  0  0  0
    5.1713  -11.0588   -4.3182 H   0  0  0  0  0  0  0  0  0  0  0  0
    6.7582  -12.5379   -2.7611 H   0  0  0  0  0  0  0  0  0  0  0  0
  1  2  1  0
  2  3  1  0
  3  4  2  0
  4  5  1  0
  5  6  2  0
  6  7  1  0
  7  8  1  0
  8  9  1  0
  9 10  1  0
 10 11  1  0
  6 12  1  0
 12 13  2  0
 13 14  1  0
 14 15  2  0
 15 16  1  0
 16 17  2  0
 17 18  1  0
 18 19  1  0
 19 20  2  0
 20 21  1  0
 21 22  2  0
 22 23  1  0
 23 24  2  0
 18 25  2  0
 13 26  1  0
 26 27  2  0
 27  2  1  0
 27  5  1  0
 25 14  1  0
 24 19  1  0
  1 28  1  0
  1 29  1  0
  1 30  1  0
  3 31  1  0
  7 32  1  0
  8 33  1  0
  8 34  1  0
  9 35  1  0
  9 36  1  0
 10 37  1  0
 10 38  1  0
 11 39  1  0
 15 40  1  0
 16 41  1  0
 17 42  1  0
 20 43  1  0
 21 44  1  0
 22 45  1  0
 23 46  1  0
 24 47  1  0
 25 48  1  0
M  END
>  <meeko>  (1) 
{"is_sidechain": [false], "free_energy": -7.227, "intermolecular_energy": -9.973, "internal_energy": -0.937}

$$$$
LIB_QMOYFHWYOPGKGI__M_PUB_ALL__e8__s20260927
     RDKit          3D

 48 51  0  0  0  0  0  0  0  0999 V2000
    5.0260  -15.7570    0.3990 C   0  0  0  0  0  0  0  0  0  0  0  0
    5.6870  -14.4980    0.6250 N   0  0  0  0  0  0  0  0  0  0  0  0
    6.3150  -14.1010    1.7730 C   0  0  0  0  0  0  0  0  0  0  0  0
    6.8240  -12.8910    1.6580 N   0  0  0  0  0  0  0  0  0  0  0  0
    6.5060  -12.4960    0.3710 C   0  0  0  0  0  0  0  0  0  0  0  0
    6.7670  -11.3170   -0.3480 C   0  0  0  0  0  0  0  0  0  0  0  0
    7.4700  -10.2760    0.2200 N   0  0  0  0  0  0  0  0  0  0  0  0
    6.9550   -9.4700    1.3020 C   0  0  0  0  0  0  0  0  0  0  0  0
    7.5940   -8.0830    1.3240 C   0  0  0  0  0  0  0  0  0  0  0  0
    7.2960   -7.2660    2.5740 C   0  0  0  0  0  0  0  0  0  0  0  0
    8.3100   -6.3010    2.8090 O   0  0  0  0  0  0  0  0  0  0  0  0
    6.2930  -11.2370   -1.6230 N   0  0  0  0  0  0  0  0  0  0  0  0
    5.6230  -12.2930   -2.1610 C   0  0  0  0  0  0  0  0  0  0  0  0
    5.1750  -12.1550   -3.5660 C   0  0  0  0  0  0  0  0  0  0  0  0
    4.1150  -11.3030   -3.9230 C   0  0  0  0  0  0  0  0  0  0  0  0
    3.6960  -11.1760   -5.2490 C   0  0  0  0  0  0  0  0  0  0  0  0
    4.3340  -11.8990   -6.2550 C   0  0  0  0  0  0  0  0  0  0  0  0
    5.3980  -12.7600   -5.9550 C   0  0  0  0  0  0  0  0  0  0  0  0
    6.0730  -13.5290   -7.0130 C   0  0  0  0  0  0  0  0  0  0  0  0
    6.6410  -14.7860   -6.7450 C   0  0  0  0  0  0  0  0  0  0  0  0
    7.2810  -15.5160   -7.7490 C   0  0  0  0  0  0  0  0  0  0  0  0
    7.3660  -15.0000   -9.0400 C   0  0  0  0  0  0  0  0  0  0  0  0
    6.8100  -13.7560   -9.3280 C   0  0  0  0  0  0  0  0  0  0  0  0
    6.1690  -13.0280   -8.3210 C   0  0  0  0  0  0  0  0  0  0  0  0
    5.8010  -12.8720   -4.6100 C   0  0  0  0  0  0  0  0  0  0  0  0
    5.3270  -13.4560   -1.5390 N   0  0  0  0  0  0  0  0  0  0  0  0
    5.7970  -13.4850   -0.2850 C   0  0  0  0  0  0  0  0  0  0  0  0
    4.7820  -16.2217    1.3657 H   0  0  0  0  0  0  0  0  0  0  0  0
    4.1003  -15.5881   -0.1707 H   0  0  0  0  0  0  0  0  0  0  0  0
    5.6907  -16.4231   -0.1707 H   0  0  0  0  0  0  0  0  0  0  0  0
    6.3866  -14.7167    2.6817 H   0  0  0  0  0  0  0  0  0  0  0  0
    8.3730  -10.0670   -0.1920 H   0  0  0  0  0  0  0  0  0  0  0  0
    5.8675   -9.3600    1.1788 H   0  0  0  0  0  0  0  0  0  0  0  0
    7.1942   -9.9739    2.2501 H   0  0  0  0  0  0  0  0  0  0  0  0
    8.6843   -8.2066    1.2471 H   0  0  0  0  0  0  0  0  0  0  0  0
    7.1613   -7.5276    0.4788 H   0  0  0  0  0  0  0  0  0  0  0  0
    6.3329   -6.7506    2.4448 H   0  0  0  0  0  0  0  0  0  0  0  0
    7.2575   -7.9485    3.4358 H   0  0  0  0  0  0  0  0  0  0  0  0
    8.5320   -5.9340    1.9270 H   0  0  0  0  0  0  0  0  0  0  0  0
    3.6042  -10.7233   -3.1400 H   0  0  0  0  0  0  0  0  0  0  0  0
    2.8615  -10.5046   -5.4997 H   0  0  0  0  0  0  0  0  0  0  0  0
    3.9983  -11.7925   -7.2971 H   0  0  0  0  0  0  0  0  0  0  0  0
    6.5806  -15.2016   -5.7283 H   0  0  0  0  0  0  0  0  0  0  0  0
    7.7182  -16.4991   -7.5201 H   0  0  0  0  0  0  0  0  0  0  0  0
    7.8714  -15.5740   -9.8306 H   0  0  0  0  0  0  0  0  0  0  0  0
    6.8751  -13.3465  -10.3469 H   0  0  0  0  0  0  0  0  0  0  0  0
    5.7326  -12.0463   -8.5575 H   0  0  0  0  0  0  0  0  0  0  0  0
    6.6359  -13.5441   -4.3628 H   0  0  0  0  0  0  0  0  0  0  0  0
  1  2  1  0
  2  3  1  0
  3  4  2  0
  4  5  1  0
  5  6  2  0
  6  7  1  0
  7  8  1  0
  8  9  1  0
  9 10  1  0
 10 11  1  0
  6 12  1  0
 12 13  2  0
 13 14  1  0
 14 15  2  0
 15 16  1  0
 16 17  2  0
 17 18  1  0
 18 19  1  0
 19 20  2  0
 20 21  1  0
 21 22  2  0
 22 23  1  0
 23 24  2  0
 18 25  2  0
 13 26  1  0
 26 27  2  0
 27  2  1  0
 27  5  1  0
 25 14  1  0
 24 19  1  0
  1 28  1  0
  1 29  1  0
  1 30  1  0
  3 31  1  0
  7 32  1  0
  8 33  1  0
  8 34  1  0
  9 35  1  0
  9 36  1  0
 10 37  1  0
 10 38  1  0
 11 39  1  0
 15 40  1  0
 16 41  1  0
 17 42  1  0
 20 43  1  0
 21 44  1  0
 22 45  1  0
 23 46  1  0
 24 47  1  0
 25 48  1  0
M  END
>  <meeko>  (2) 
{"is_sidechain": [false], "free_energy": -7.202, "intermolecular_energy": -10.129, "internal_energy": -0.747}

$$$$
LIB_QMOYFHWYOPGKGI__M_PUB_ALL__e8__s20260927
     RDKit          3D

 48 51  0  0  0  0  0  0  0  0999 V2000
   12.6450  -14.7410   -6.2870 C   0  0  0  0  0  0  0  0  0  0  0  0
   12.4720  -14.0350   -5.0440 N   0  0  0  0  0  0  0  0  0  0  0  0
   13.4640  -13.5720   -4.2250 C   0  0  0  0  0  0  0  0  0  0  0  0
   12.9770  -12.9650   -3.1620 N   0  0  0  0  0  0  0  0  0  0  0  0
   11.6040  -13.0430   -3.3110 C   0  0  0  0  0  0  0  0  0  0  0  0
   10.5380  -12.5850   -2.5160 C   0  0  0  0  0  0  0  0  0  0  0  0
   10.7670  -11.9090   -1.3370 N   0  0  0  0  0  0  0  0  0  0  0  0
   11.0150  -12.5720   -0.0790 C   0  0  0  0  0  0  0  0  0  0  0  0
   12.3890  -12.2160    0.4840 C   0  0  0  0  0  0  0  0  0  0  0  0
   12.9750  -10.9140   -0.0460 C   0  0  0  0  0  0  0  0  0  0  0  0
   12.2640   -9.7920    0.4530 O   0  0  0  0  0  0  0  0  0  0  0  0
    9.2720  -12.8420   -2.9490 N   0  0  0  0  0  0  0  0  0  0  0  0
    9.0810  -13.4920   -4.1300 C   0  0  0  0  0  0  0  0  0  0  0  0
    7.6790  -13.6980   -4.5610 C   0  0  0  0  0  0  0  0  0  0  0  0
    7.3350  -14.6770   -5.5090 C   0  0  0  0  0  0  0  0  0  0  0  0
    6.0120  -14.8680   -5.9130 C   0  0  0  0  0  0  0  0  0  0  0  0
    4.9970  -14.0810   -5.3720 C   0  0  0  0  0  0  0  0  0  0  0  0
    5.2840  -13.0930   -4.4220 C   0  0  0  0  0  0  0  0  0  0  0  0
    4.2160  -12.2580   -3.8490 C   0  0  0  0  0  0  0  0  0  0  0  0
    3.6010  -12.6020   -2.6330 C   0  0  0  0  0  0  0  0  0  0  0  0
    2.5880  -11.8100   -2.0890 C   0  0  0  0  0  0  0  0  0  0  0  0
    2.1700  -10.6590   -2.7520 C   0  0  0  0  0  0  0  0  0  0  0  0
    2.7660  -10.2990   -3.9580 C   0  0  0  0  0  0  0  0  0  0  0  0
    3.7810  -11.0930   -4.5010 C   0  0  0  0  0  0  0  0  0  0  0  0
    6.6270  -12.9190   -4.0320 C   0  0  0  0  0  0  0  0  0  0  0  0
   10.0470  -13.9670   -4.9480 N   0  0  0  0  0  0  0  0  0  0  0  0
   11.2730  -13.7080   -4.4780 C   0  0  0  0  0  0  0  0  0  0  0  0
   12.9021  -15.7903   -6.0800 H   0  0  0  0  0  0  0  0  0  0  0  0
   11.7102  -14.6998   -6.8653 H   0  0  0  0  0  0  0  0  0  0  0  0
   13.4549  -14.2723   -6.8653 H   0  0  0  0  0  0  0  0  0  0  0  0
   14.5383  -13.6918   -4.4289 H   0  0  0  0  0  0  0  0  0  0  0  0
   10.7140  -10.8970   -1.3830 H   0  0  0  0  0  0  0  0  0  0  0  0
   10.2435  -12.2669    0.6433 H   0  0  0  0  0  0  0  0  0  0  0  0
   10.9851  -13.6580   -0.2512 H   0  0  0  0  0  0  0  0  0  0  0  0
   12.3003  -12.1321    1.5772 H   0  0  0  0  0  0  0  0  0  0  0  0
   13.0726  -13.0170    0.1660 H   0  0  0  0  0  0  0  0  0  0  0  0
   14.0271  -10.8403    0.2665 H   0  0  0  0  0  0  0  0  0  0  0  0
   12.8963  -10.9171   -1.1432 H   0  0  0  0  0  0  0  0  0  0  0  0
   12.9480   -9.1310    0.6900 H   0  0  0  0  0  0  0  0  0  0  0  0
    8.1258  -15.3069   -5.9425 H   0  0  0  0  0  0  0  0  0  0  0  0
    5.7709  -15.6400   -6.6586 H   0  0  0  0  0  0  0  0  0  0  0  0
    3.9574  -14.2379   -5.6953 H   0  0  0  0  0  0  0  0  0  0  0  0
    3.9229  -13.5096   -2.1014 H   0  0  0  0  0  0  0  0  0  0  0  0
    2.1196  -12.0956   -1.1356 H   0  0  0  0  0  0  0  0  0  0  0  0
    1.3710  -10.0357   -2.3242 H   0  0  0  0  0  0  0  0  0  0  0  0
    2.4383   -9.3899   -4.4836 H   0  0  0  0  0  0  0  0  0  0  0  0
    4.2460  -10.8003   -5.4540 H   0  0  0  0  0  0  0  0  0  0  0  0
    6.8649  -12.1461   -3.2863 H   0  0  0  0  0  0  0  0  0  0  0  0
  1  2  1  0
  2  3  1  0
  3  4  2  0
  4  5  1  0
  5  6  2  0
  6  7  1  0
  7  8  1  0
  8  9  1  0
  9 10  1  0
 10 11  1  0
  6 12  1  0
 12 13  2  0
 13 14  1  0
 14 15  2  0
 15 16  1  0
 16 17  2  0
 17 18  1  0
 18 19  1  0
 19 20  2  0
 20 21  1  0
 21 22  2  0
 22 23  1  0
 23 24  2  0
 18 25  2  0
 13 26  1  0
 26 27  2  0
 27  2  1  0
 27  5  1  0
 25 14  1  0
 24 19  1  0
  1 28  1  0
  1 29  1  0
  1 30  1  0
  3 31  1  0
  7 32  1  0
  8 33  1  0
  8 34  1  0
  9 35  1  0
  9 36  1  0
 10 37  1  0
 10 38  1  0
 11 39  1  0
 15 40  1  0
 16 41  1  0
 17 42  1  0
 20 43  1  0
 21 44  1  0
 22 45  1  0
 23 46  1  0
 24 47  1  0
 25 48  1  0
M  END
>  <meeko>  (3) 
{"is_sidechain": [false], "free_energy": -7.201, "intermolecular_energy": -9.675, "internal_energy": -1.199}

$$$$
LIB_QMOYFHWYOPGKGI__M_PUB_ALL__e8__s20260927
     RDKit          3D

 48 51  0  0  0  0  0  0  0  0999 V2000
    3.9290  -13.2120    1.2000 C   0  0  0  0  0  0  0  0  0  0  0  0
    5.3210  -12.9390    0.9540 N   0  0  0  0  0  0  0  0  0  0  0  0
    6.3250  -12.9200    1.8820 C   0  0  0  0  0  0  0  0  0  0  0  0
    7.4900  -12.6390    1.3360 N   0  0  0  0  0  0  0  0  0  0  0  0
    7.2180  -12.4710   -0.0100 C   0  0  0  0  0  0  0  0  0  0  0  0
    8.0350  -12.1610   -1.1100 C   0  0  0  0  0  0  0  0  0  0  0  0
    9.3910  -11.9650   -0.9570 N   0  0  0  0  0  0  0  0  0  0  0  0
   10.3420  -13.0470   -0.8560 C   0  0  0  0  0  0  0  0  0  0  0  0
   11.7000  -12.5590   -0.3570 C   0  0  0  0  0  0  0  0  0  0  0  0
   11.6830  -11.9490    1.0370 C   0  0  0  0  0  0  0  0  0  0  0  0
   10.5710  -12.4150    1.7870 O   0  0  0  0  0  0  0  0  0  0  0  0
    7.4390  -12.0520   -2.3300 N   0  0  0  0  0  0  0  0  0  0  0  0
    6.1010  -12.2750   -2.4490 C   0  0  0  0  0  0  0  0  0  0  0  0
    5.5260  -12.1840   -3.8110 C   0  0  0  0  0  0  0  0  0  0  0  0
    4.4080  -11.3790   -4.0890 C   0  0  0  0  0  0  0  0  0  0  0  0
    3.8700  -11.2960   -5.3740 C   0  0  0  0  0  0  0  0  0  0  0  0
    4.4430  -12.0180   -6.4190 C   0  0  0  0  0  0  0  0  0  0  0  0
    5.5610  -12.8340   -6.1980 C   0  0  0  0  0  0  0  0  0  0  0  0
    6.1690  -13.6010   -7.2980 C   0  0  0  0  0  0  0  0  0  0  0  0
    6.1950  -13.0920   -8.6070 C   0  0  0  0  0  0  0  0  0  0  0  0
    6.7720  -13.8190   -9.6510 C   0  0  0  0  0  0  0  0  0  0  0  0
    7.3330  -15.0690   -9.4040 C   0  0  0  0  0  0  0  0  0  0  0  0
    7.3180  -15.5930   -8.1130 C   0  0  0  0  0  0  0  0  0  0  0  0
    6.7400  -14.8630   -7.0700 C   0  0  0  0  0  0  0  0  0  0  0  0
    6.0840  -12.9020   -4.8930 C   0  0  0  0  0  0  0  0  0  0  0  0
    5.2460  -12.5720   -1.4460 N   0  0  0  0  0  0  0  0  0  0  0  0
    5.8700  -12.6540   -0.2640 C   0  0  0  0  0  0  0  0  0  0  0  0
    3.7484  -13.2474    2.2845 H   0  0  0  0  0  0  0  0  0  0  0  0
    3.3147  -12.4172    0.7517 H   0  0  0  0  0  0  0  0  0  0  0  0
    3.6604  -14.1799    0.7517 H   0  0  0  0  0  0  0  0  0  0  0  0
    6.1775  -13.1157    2.9544 H   0  0  0  0  0  0  0  0  0  0  0  0
    9.6990  -11.0020   -0.8770 H   0  0  0  0  0  0  0  0  0  0  0  0
    9.9532  -13.7992   -0.1538 H   0  0  0  0  0  0  0  0  0  0  0  0
   10.4793  -13.4782   -1.8586 H   0  0  0  0  0  0  0  0  0  0  0  0
   12.3898  -13.4158   -0.3478 H   0  0  0  0  0  0  0  0  0  0  0  0
   12.0138  -11.7583   -1.0429 H   0  0  0  0  0  0  0  0  0  0  0  0
   12.6102  -12.2247    1.5608 H   0  0  0  0  0  0  0  0  0  0  0  0
   11.6039  -10.8563    0.9385 H   0  0  0  0  0  0  0  0  0  0  0  0
   10.1470  -13.1000    1.2280 H   0  0  0  0  0  0  0  0  0  0  0  0
    3.9463  -10.8010   -3.2749 H   0  0  0  0  0  0  0  0  0  0  0  0
    2.9925  -10.6599   -5.5621 H   0  0  0  0  0  0  0  0  0  0  0  0
    4.0130  -11.9468   -7.4290 H   0  0  0  0  0  0  0  0  0  0  0  0
    5.7541  -12.1055   -8.8132 H   0  0  0  0  0  0  0  0  0  0  0  0
    6.7831  -13.4034  -10.6694 H   0  0  0  0  0  0  0  0  0  0  0  0
    7.7871  -15.6417  -10.2261 H   0  0  0  0  0  0  0  0  0  0  0  0
    7.7606  -16.5803   -7.9145 H   0  0  0  0  0  0  0  0  0  0  0  0
    6.7326  -15.2845   -6.0540 H   0  0  0  0  0  0  0  0  0  0  0  0
    6.9615  -13.5390   -4.7080 H   0  0  0  0  0  0  0  0  0  0  0  0
  1  2  1  0
  2  3  1  0
  3  4  2  0
  4  5  1  0
  5  6  2  0
  6  7  1  0
  7  8  1  0
  8  9  1  0
  9 10  1  0
 10 11  1  0
  6 12  1  0
 12 13  2  0
 13 14  1  0
 14 15  2  0
 15 16  1  0
 16 17  2  0
 17 18  1  0
 18 19  1  0
 19 20  2  0
 20 21  1  0
 21 22  2  0
 22 23  1  0
 23 24  2  0
 18 25  2  0
 13 26  1  0
 26 27  2  0
 27  2  1  0
 27  5  1  0
 25 14  1  0
 24 19  1  0
  1 28  1  0
  1 29  1  0
  1 30  1  0
  3 31  1  0
  7 32  1  0
  8 33  1  0
  8 34  1  0
  9 35  1  0
  9 36  1  0
 10 37  1  0
 10 38  1  0
 11 39  1  0
 15 40  1  0
 16 41  1  0
 17 42  1  0
 20 43  1  0
 21 44  1  0
 22 45  1  0
 23 46  1  0
 24 47  1  0
 25 48  1  0
M  END
>  <meeko>  (4) 
{"is_sidechain": [false], "free_energy": -7.122, "intermolecular_energy": -9.403, "internal_energy": -1.363}

$$$$
LIB_QMOYFHWYOPGKGI__M_PUB_ALL__e8__s20260927
     RDKit          3D

 48 51  0  0  0  0  0  0  0  0999 V2000
    8.4770  -12.5010   16.6640 C   0  0  0  0  0  0  0  0  0  0  0  0
    8.2840  -11.1460   16.2210 N   0  0  0  0  0  0  0  0  0  0  0  0
    7.2690  -10.3050   16.5850 C   0  0  0  0  0  0  0  0  0  0  0  0
    7.3780   -9.1270   16.0060 N   0  0  0  0  0  0  0  0  0  0  0  0
    8.5210   -9.2190   15.2320 C   0  0  0  0  0  0  0  0  0  0  0  0
    9.1660   -8.3030   14.3830 C   0  0  0  0  0  0  0  0  0  0  0  0
    8.6700   -7.0300   14.2000 N   0  0  0  0  0  0  0  0  0  0  0  0
    7.9280   -6.6300   13.0280 C   0  0  0  0  0  0  0  0  0  0  0  0
    6.4280   -6.5760   13.3030 C   0  0  0  0  0  0  0  0  0  0  0  0
    6.0430   -5.8620   14.5910 C   0  0  0  0  0  0  0  0  0  0  0  0
    4.8490   -5.1120   14.4230 O   0  0  0  0  0  0  0  0  0  0  0  0
   10.2930   -8.7220   13.7420 N   0  0  0  0  0  0  0  0  0  0  0  0
   10.7680   -9.9780   13.9640 C   0  0  0  0  0  0  0  0  0  0  0  0
   12.0220  -10.3520   13.2680 C   0  0  0  0  0  0  0  0  0  0  0  0
   12.2750  -11.6740   12.8630 C   0  0  0  0  0  0  0  0  0  0  0  0
   13.4580  -12.0210   12.2080 C   0  0  0  0  0  0  0  0  0  0  0  0
   14.4190  -11.0480   11.9380 C   0  0  0  0  0  0  0  0  0  0  0  0
   14.2160   -9.7150   12.3180 C   0  0  0  0  0  0  0  0  0  0  0  0
   15.2280   -8.6840   12.0390 C   0  0  0  0  0  0  0  0  0  0  0  0
   16.5760   -8.8810   12.3820 C   0  0  0  0  0  0  0  0  0  0  0  0
   17.5380   -7.9040   12.1160 C   0  0  0  0  0  0  0  0  0  0  0  0
   17.1680   -6.7100   11.5030 C   0  0  0  0  0  0  0  0  0  0  0  0
   15.8370   -6.4930   11.1540 C   0  0  0  0  0  0  0  0  0  0  0  0
   14.8760   -7.4740   11.4200 C   0  0  0  0  0  0  0  0  0  0  0  0
   13.0150   -9.3900   12.9790 C   0  0  0  0  0  0  0  0  0  0  0  0
   10.2080  -10.9190   14.7570 N   0  0  0  0  0  0  0  0  0  0  0  0
    9.0960  -10.4710   15.3540 C   0  0  0  0  0  0  0  0  0  0  0  0
    8.4812  -12.5302   17.7636 H   0  0  0  0  0  0  0  0  0  0  0  0
    7.6595  -13.1311   16.2836 H   0  0  0  0  0  0  0  0  0  0  0  0
    9.4379  -12.8778   16.2836 H   0  0  0  0  0  0  0  0  0  0  0  0
    6.4595  -10.5791   17.2775 H   0  0  0  0  0  0  0  0  0  0  0  0
    8.8890   -6.3550   14.9250 H   0  0  0  0  0  0  0  0  0  0  0  0
    8.2691   -5.6328   12.7129 H   0  0  0  0  0  0  0  0  0  0  0  0
    8.1060   -7.3744   12.2380 H   0  0  0  0  0  0  0  0  0  0  0  0
    5.9444   -6.0541   12.4641 H   0  0  0  0  0  0  0  0  0  0  0  0
    6.0947   -7.6184   13.4139 H   0  0  0  0  0  0  0  0  0  0  0  0
    5.8894   -6.6090   15.3837 H   0  0  0  0  0  0  0  0  0  0  0  0
    6.8543   -5.1707   14.8629 H   0  0  0  0  0  0  0  0  0  0  0  0
    4.1700   -5.7590   14.1390 H   0  0  0  0  0  0  0  0  0  0  0  0
   11.5246  -12.4521   13.0666 H   0  0  0  0  0  0  0  0  0  0  0  0
   13.6321  -13.0639   11.9045 H   0  0  0  0  0  0  0  0  0  0  0  0
   15.3477  -11.3302   11.4204 H   0  0  0  0  0  0  0  0  0  0  0  0
   16.8788   -9.8202   12.8681 H   0  0  0  0  0  0  0  0  0  0  0  0
   18.5887   -8.0780   12.3910 H   0  0  0  0  0  0  0  0  0  0  0  0
   17.9251   -5.9396   11.2947 H   0  0  0  0  0  0  0  0  0  0  0  0
   15.5418   -5.5506   10.6694 H   0  0  0  0  0  0  0  0  0  0  0  0
   13.8276   -7.2945   11.1397 H   0  0  0  0  0  0  0  0  0  0  0  0
   12.8440   -8.3464   13.2818 H   0  0  0  0  0  0  0  0  0  0  0  0
  1  2  1  0
  2  3  1  0
  3  4  2  0
  4  5  1  0
  5  6  2  0
  6  7  1  0
  7  8  1  0
  8  9  1  0
  9 10  1  0
 10 11  1  0
  6 12  1  0
 12 13  2  0
 13 14  1  0
 14 15  2  0
 15 16  1  0
 16 17  2  0
 17 18  1  0
 18 19  1  0
 19 20  2  0
 20 21  1  0
 21 22  2  0
 22 23  1  0
 23 24  2  0
 18 25  2  0
 13 26  1  0
 26 27  2  0
 27  2  1  0
 27  5  1  0
 25 14  1  0
 24 19  1  0
  1 28  1  0
  1 29  1  0
  1 30  1  0
  3 31  1  0
  7 32  1  0
  8 33  1  0
  8 34  1  0
  9 35  1  0
  9 36  1  0
 10 37  1  0
 10 38  1  0
 11 39  1  0
 15 40  1  0
 16 41  1  0
 17 42  1  0
 20 43  1  0
 21 44  1  0
 22 45  1  0
 23 46  1  0
 24 47  1  0
 25 48  1  0
M  END
>  <meeko>  (5) 
{"is_sidechain": [false], "free_energy": -7.075, "intermolecular_energy": -9.706, "internal_energy": -0.995}

$$$$
LIB_QMOYFHWYOPGKGI__M_PUB_ALL__e8__s20260927
     RDKit          3D

 48 51  0  0  0  0  0  0  0  0999 V2000
    7.2740  -15.6860   -1.9040 C   0  0  0  0  0  0  0  0  0  0  0  0
    7.4340  -14.5320   -1.0590 N   0  0  0  0  0  0  0  0  0  0  0  0
    8.6140  -13.9590   -0.6770 C   0  0  0  0  0  0  0  0  0  0  0  0
    8.4210  -12.9110    0.0980 N   0  0  0  0  0  0  0  0  0  0  0  0
    7.0470  -12.8090    0.2160 C   0  0  0  0  0  0  0  0  0  0  0  0
    6.2200  -11.9050    0.9060 C   0  0  0  0  0  0  0  0  0  0  0  0
    6.7540  -10.8700    1.6420 N   0  0  0  0  0  0  0  0  0  0  0  0
    7.0970   -9.5870    1.0730 C   0  0  0  0  0  0  0  0  0  0  0  0
    6.6190   -8.4350    1.9530 C   0  0  0  0  0  0  0  0  0  0  0  0
    7.6310   -7.3120    2.1350 C   0  0  0  0  0  0  0  0  0  0  0  0
    8.0830   -6.8220    0.8820 O   0  0  0  0  0  0  0  0  0  0  0  0
    4.8730  -12.0940    0.8270 N   0  0  0  0  0  0  0  0  0  0  0  0
    4.3780  -13.1130    0.0720 C   0  0  0  0  0  0  0  0  0  0  0  0
    2.9040  -13.2340   -0.0050 C   0  0  0  0  0  0  0  0  0  0  0  0
    2.2840  -14.2170   -0.7960 C   0  0  0  0  0  0  0  0  0  0  0  0
    0.8940  -14.3270   -0.8650 C   0  0  0  0  0  0  0  0  0  0  0  0
    0.0870  -13.4530   -0.1390 C   0  0  0  0  0  0  0  0  0  0  0  0
    0.6530  -12.4560    0.6670 C   0  0  0  0  0  0  0  0  0  0  0  0
   -0.1940  -11.5290    1.4340 C   0  0  0  0  0  0  0  0  0  0  0  0
   -0.4830  -10.2420    0.9490 C   0  0  0  0  0  0  0  0  0  0  0  0
   -1.2880   -9.3620    1.6760 C   0  0  0  0  0  0  0  0  0  0  0  0
   -1.8180   -9.7540    2.9030 C   0  0  0  0  0  0  0  0  0  0  0  0
   -1.5450  -11.0250    3.4020 C   0  0  0  0  0  0  0  0  0  0  0  0
   -0.7400  -11.9050    2.6720 C   0  0  0  0  0  0  0  0  0  0  0  0
    2.0570  -12.3650    0.7190 C   0  0  0  0  0  0  0  0  0  0  0  0
    5.1000  -14.0260   -0.6160 N   0  0  0  0  0  0  0  0  0  0  0  0
    6.4170  -13.8130   -0.4980 C   0  0  0  0  0  0  0  0  0  0  0  0
    7.1496  -16.5831   -1.2798 H   0  0  0  0  0  0  0  0  0  0  0  0
    6.3854  -15.5551   -2.5390 H   0  0  0  0  0  0  0  0  0  0  0  0
    8.1647  -15.8018   -2.5390 H   0  0  0  0  0  0  0  0  0  0  0  0
    9.6051  -14.3279   -0.9798 H   0  0  0  0  0  0  0  0  0  0  0  0
    6.9400  -11.0640    2.6200 H   0  0  0  0  0  0  0  0  0  0  0  0
    8.1900   -9.5247    0.9663 H   0  0  0  0  0  0  0  0  0  0  0  0
    6.6008   -9.5011    0.0950 H   0  0  0  0  0  0  0  0  0  0  0  0
    5.7126   -8.0092    1.4978 H   0  0  0  0  0  0  0  0  0  0  0  0
    6.4425   -8.8595    2.9523 H   0  0  0  0  0  0  0  0  0  0  0  0
    7.1587   -6.4899    2.6928 H   0  0  0  0  0  0  0  0  0  0  0  0
    8.4959   -7.7079    2.6874 H   0  0  0  0  0  0  0  0  0  0  0  0
    7.3180   -6.9080    0.2750 H   0  0  0  0  0  0  0  0  0  0  0  0
    2.9080  -14.9150   -1.3734 H   0  0  0  0  0  0  0  0  0  0  0  0
    0.4351  -15.1046   -1.4933 H   0  0  0  0  0  0  0  0  0  0  0  0
   -1.0073  -13.5468   -0.1993 H   0  0  0  0  0  0  0  0  0  0  0  0
   -0.0686   -9.9226   -0.0186 H   0  0  0  0  0  0  0  0  0  0  0  0
   -1.5035   -8.3589    1.2793 H   0  0  0  0  0  0  0  0  0  0  0  0
   -2.4509   -9.0609    3.4766 H   0  0  0  0  0  0  0  0  0  0  0  0
   -1.9627  -11.3369    4.3707 H   0  0  0  0  0  0  0  0  0  0  0  0
   -0.5311  -12.9075    3.0738 H   0  0  0  0  0  0  0  0  0  0  0  0
    2.5128  -11.5864    1.3483 H   0  0  0  0  0  0  0  0  0  0  0  0
  1  2  1  0
  2  3  1  0
  3  4  2  0
  4  5  1  0
  5  6  2  0
  6  7  1  0
  7  8  1  0
  8  9  1  0
  9 10  1  0
 10 11  1  0
  6 12  1  0
 12 13  2  0
 13 14  1  0
 14 15  2  0
 15 16  1  0
 16 17  2  0
 17 18  1  0
 18 19  1  0
 19 20  2  0
 20 21  1  0
 21 22  2  0
 22 23  1  0
 23 24  2  0
 18 25  2  0
 13 26  1  0
 26 27  2  0
 27  2  1  0
 27  5  1  0
 25 14  1  0
 24 19  1  0
  1 28  1  0
  1 29  1  0
  1 30  1  0
  3 31  1  0
  7 32  1  0
  8 33  1  0
  8 34  1  0
  9 35  1  0
  9 36  1  0
 10 37  1  0
 10 38  1  0
 11 39  1  0
 15 40  1  0
 16 41  1  0
 17 42  1  0
 20 43  1  0
 21 44  1  0
 22 45  1  0
 23 46  1  0
 24 47  1  0
 25 48  1  0
M  END
>  <meeko>  (6) 
{"is_sidechain": [false], "free_energy": -6.986, "intermolecular_energy": -9.703, "internal_energy": -0.874}

$$$$
LIB_QMOYFHWYOPGKGI__M_PUB_ALL__e8__s20260927
     RDKit          3D

 48 51  0  0  0  0  0  0  0  0999 V2000
  -16.4230  -15.2550   -8.2920 C   0  0  0  0  0  0  0  0  0  0  0  0
  -15.0140  -15.5480   -8.3270 N   0  0  0  0  0  0  0  0  0  0  0  0
  -14.4390  -16.7880   -8.3570 C   0  0  0  0  0  0  0  0  0  0  0  0
  -13.1240  -16.7170   -8.3880 N   0  0  0  0  0  0  0  0  0  0  0  0
  -12.8440  -15.3630   -8.3780 C   0  0  0  0  0  0  0  0  0  0  0  0
  -11.6350  -14.6460   -8.4000 C   0  0  0  0  0  0  0  0  0  0  0  0
  -10.4210  -15.2970   -8.4420 N   0  0  0  0  0  0  0  0  0  0  0  0
   -9.8450  -15.9730   -7.3040 C   0  0  0  0  0  0  0  0  0  0  0  0
   -8.3190  -15.9780   -7.3650 C   0  0  0  0  0  0  0  0  0  0  0  0
   -7.7380  -15.7200   -8.7480 C   0  0  0  0  0  0  0  0  0  0  0  0
   -7.9510  -16.8290   -9.6080 O   0  0  0  0  0  0  0  0  0  0  0  0
  -11.7070  -13.2860   -8.3680 N   0  0  0  0  0  0  0  0  0  0  0  0
  -12.9230  -12.6740   -8.3490 C   0  0  0  0  0  0  0  0  0  0  0  0
  -12.9280  -11.1930   -8.3610 C   0  0  0  0  0  0  0  0  0  0  0  0
  -12.4260  -10.4620   -9.4510 C   0  0  0  0  0  0  0  0  0  0  0  0
  -12.4320   -9.0660   -9.4580 C   0  0  0  0  0  0  0  0  0  0  0  0
  -12.9470   -8.3640   -8.3690 C   0  0  0  0  0  0  0  0  0  0  0  0
  -13.4630   -9.0440   -7.2570 C   0  0  0  0  0  0  0  0  0  0  0  0
  -14.0060   -8.3090   -6.1040 C   0  0  0  0  0  0  0  0  0  0  0  0
  -15.3840   -8.0550   -5.9910 C   0  0  0  0  0  0  0  0  0  0  0  0
  -15.9000   -7.3580   -4.8960 C   0  0  0  0  0  0  0  0  0  0  0  0
  -15.0470   -6.9010   -3.8950 C   0  0  0  0  0  0  0  0  0  0  0  0
  -13.6780   -7.1420   -3.9870 C   0  0  0  0  0  0  0  0  0  0  0  0
  -13.1640   -7.8410   -5.0830 C   0  0  0  0  0  0  0  0  0  0  0  0
  -13.4440  -10.4520   -7.2750 C   0  0  0  0  0  0  0  0  0  0  0  0
  -14.1280  -13.2870   -8.3240 N   0  0  0  0  0  0  0  0  0  0  0  0
  -14.0110  -14.6210   -8.3400 C   0  0  0  0  0  0  0  0  0  0  0  0
  -16.7572  -15.1855   -7.2463 H   0  0  0  0  0  0  0  0  0  0  0  0
  -16.6114  -14.2985   -8.8015 H   0  0  0  0  0  0  0  0  0  0  0  0
  -16.9771  -16.0571   -8.8015 H   0  0  0  0  0  0  0  0  0  0  0  0
  -15.0058  -17.7307   -8.3554 H   0  0  0  0  0  0  0  0  0  0  0  0
   -9.9150  -15.2450   -9.3200 H   0  0  0  0  0  0  0  0  0  0  0  0
  -10.1637  -15.4593   -6.3850 H   0  0  0  0  0  0  0  0  0  0  0  0
  -10.1927  -17.0166   -7.3120 H   0  0  0  0  0  0  0  0  0  0  0  0
   -7.9462  -15.1975   -6.6854 H   0  0  0  0  0  0  0  0  0  0  0  0
   -7.9994  -16.9904   -7.0771 H   0  0  0  0  0  0  0  0  0  0  0  0
   -8.2218  -14.8319   -9.1807 H   0  0  0  0  0  0  0  0  0  0  0  0
   -6.6544  -15.5600   -8.6469 H   0  0  0  0  0  0  0  0  0  0  0  0
   -8.1720  -16.4450  -10.4830 H   0  0  0  0  0  0  0  0  0  0  0  0
  -12.0190  -11.0021  -10.3186 H   0  0  0  0  0  0  0  0  0  0  0  0
  -12.0300   -8.5192  -10.3237 H   0  0  0  0  0  0  0  0  0  0  0  0
  -12.9484   -7.2641   -8.3825 H   0  0  0  0  0  0  0  0  0  0  0  0
  -16.0664   -8.4106   -6.7770 H   0  0  0  0  0  0  0  0  0  0  0  0
  -16.9814   -7.1700   -4.8245 H   0  0  0  0  0  0  0  0  0  0  0  0
  -15.4532   -6.3509   -3.0334 H   0  0  0  0  0  0  0  0  0  0  0  0
  -13.0017   -6.7824   -3.1975 H   0  0  0  0  0  0  0  0  0  0  0  0
  -12.0818   -8.0274   -5.1464 H   0  0  0  0  0  0  0  0  0  0  0  0
  -13.8472  -10.9965   -6.4085 H   0  0  0  0  0  0  0  0  0  0  0  0
  1  2  1  0
  2  3  1  0
  3  4  2  0
  4  5  1  0
  5  6  2  0
  6  7  1  0
  7  8  1  0
  8  9  1  0
  9 10  1  0
 10 11  1  0
  6 12  1  0
 12 13  2  0
 13 14  1  0
 14 15  2  0
 15 16  1  0
 16 17  2  0
 17 18  1  0
 18 19  1  0
 19 20  2  0
 20 21  1  0
 21 22  2  0
 22 23  1  0
 23 24  2  0
 18 25  2  0
 13 26  1  0
 26 27  2  0
 27  2  1  0
 27  5  1  0
 25 14  1  0
 24 19  1  0
  1 28  1  0
  1 29  1  0
  1 30  1  0
  3 31  1  0
  7 32  1  0
  8 33  1  0
  8 34  1  0
  9 35  1  0
  9 36  1  0
 10 37  1  0
 10 38  1  0
 11 39  1  0
 15 40  1  0
 16 41  1  0
 17 42  1  0
 20 43  1  0
 21 44  1  0
 22 45  1  0
 23 46  1  0
 24 47  1  0
 25 48  1  0
M  END
>  <meeko>  (7) 
{"is_sidechain": [false], "free_energy": -6.979, "intermolecular_energy": -9.526, "internal_energy": -1.042}

$$$$
LIB_QMOYFHWYOPGKGI__M_PUB_ALL__e8__s20260927
     RDKit          3D

 48 51  0  0  0  0  0  0  0  0999 V2000
   14.9790   -7.5680   11.8410 C   0  0  0  0  0  0  0  0  0  0  0  0
   14.3910   -8.8300   12.2070 N   0  0  0  0  0  0  0  0  0  0  0  0
   14.9380  -10.0690   12.0200 C   0  0  0  0  0  0  0  0  0  0  0  0
   14.1500  -11.0250   12.4680 N   0  0  0  0  0  0  0  0  0  0  0  0
   13.0430  -10.3630   12.9680 C   0  0  0  0  0  0  0  0  0  0  0  0
   11.8620  -10.8200   13.5760 C   0  0  0  0  0  0  0  0  0  0  0  0
   11.6380  -12.1650   13.7780 N   0  0  0  0  0  0  0  0  0  0  0  0
   10.8400  -12.9780   12.8910 C   0  0  0  0  0  0  0  0  0  0  0  0
   11.3430  -14.4190   12.8420 C   0  0  0  0  0  0  0  0  0  0  0  0
   12.8580  -14.5620   12.7950 C   0  0  0  0  0  0  0  0  0  0  0  0
   13.4210  -13.7200   11.8000 O   0  0  0  0  0  0  0  0  0  0  0  0
   10.9420   -9.8880   13.9510 N   0  0  0  0  0  0  0  0  0  0  0  0
   11.2050   -8.5660   13.7580 C   0  0  0  0  0  0  0  0  0  0  0  0
   10.1810   -7.6040   14.2300 C   0  0  0  0  0  0  0  0  0  0  0  0
   10.5220   -6.4920   15.0180 C   0  0  0  0  0  0  0  0  0  0  0  0
    9.5540   -5.5880   15.4610 C   0  0  0  0  0  0  0  0  0  0  0  0
    8.2160   -5.7750   15.1200 C   0  0  0  0  0  0  0  0  0  0  0  0
    7.8220   -6.8660   14.3330 C   0  0  0  0  0  0  0  0  0  0  0  0
    6.4100   -7.0690   13.9710 C   0  0  0  0  0  0  0  0  0  0  0  0
    5.6620   -6.0430   13.3700 C   0  0  0  0  0  0  0  0  0  0  0  0
    4.3220   -6.2350   13.0260 C   0  0  0  0  0  0  0  0  0  0  0  0
    3.7060   -7.4590   13.2780 C   0  0  0  0  0  0  0  0  0  0  0  0
    4.4290   -8.4900   13.8730 C   0  0  0  0  0  0  0  0  0  0  0  0
    5.7710   -8.2950   14.2150 C   0  0  0  0  0  0  0  0  0  0  0  0
    8.8170   -7.7640   13.9000 C   0  0  0  0  0  0  0  0  0  0  0  0
   12.3090   -8.0440   13.1790 N   0  0  0  0  0  0  0  0  0  0  0  0
   13.1780   -8.9950   12.8120 C   0  0  0  0  0  0  0  0  0  0  0  0
   15.2401   -7.0076   12.7508 H   0  0  0  0  0  0  0  0  0  0  0  0
   15.8872   -7.7454   11.2463 H   0  0  0  0  0  0  0  0  0  0  0  0
   14.2590   -6.9867   11.2463 H   0  0  0  0  0  0  0  0  0  0  0  0
   15.9176  -10.2462   11.5521 H   0  0  0  0  0  0  0  0  0  0  0  0
   12.0360  -12.5640   14.6220 H   0  0  0  0  0  0  0  0  0  0  0  0
    9.7985  -12.9756   13.2451 H   0  0  0  0  0  0  0  0  0  0  0  0
   10.9124  -12.5543   11.8785 H   0  0  0  0  0  0  0  0  0  0  0  0
   10.9771  -14.9404   13.7388 H   0  0  0  0  0  0  0  0  0  0  0  0
   10.9607  -14.8501   11.9050 H   0  0  0  0  0  0  0  0  0  0  0  0
   13.2752  -14.2881   13.7753 H   0  0  0  0  0  0  0  0  0  0  0  0
   13.1026  -15.6057   12.5483 H   0  0  0  0  0  0  0  0  0  0  0  0
   13.7930  -12.9530   12.2840 H   0  0  0  0  0  0  0  0  0  0  0  0
   11.5749   -6.3297   15.2922 H   0  0  0  0  0  0  0  0  0  0  0  0
    9.8482   -4.7274   16.0798 H   0  0  0  0  0  0  0  0  0  0  0  0
    7.4600   -5.0580   15.4726 H   0  0  0  0  0  0  0  0  0  0  0  0
    6.1392   -5.0729   13.1671 H   0  0  0  0  0  0  0  0  0  0  0  0
    3.7528   -5.4195   12.5559 H   0  0  0  0  0  0  0  0  0  0  0  0
    2.6506   -7.6108   13.0075 H   0  0  0  0  0  0  0  0  0  0  0  0
    3.9448   -9.4571   14.0738 H   0  0  0  0  0  0  0  0  0  0  0  0
    6.3349   -9.1155   14.6827 H   0  0  0  0  0  0  0  0  0  0  0  0
    8.5202   -8.6233   13.2808 H   0  0  0  0  0  0  0  0  0  0  0  0
  1  2  1  0
  2  3  1  0
  3  4  2  0
  4  5  1  0
  5  6  2  0
  6  7  1  0
  7  8  1  0
  8  9  1  0
  9 10  1  0
 10 11  1  0
  6 12  1  0
 12 13  2  0
 13 14  1  0
 14 15  2  0
 15 16  1  0
 16 17  2  0
 17 18  1  0
 18 19  1  0
 19 20  2  0
 20 21  1  0
 21 22  2  0
 22 23  1  0
 23 24  2  0
 18 25  2  0
 13 26  1  0
 26 27  2  0
 27  2  1  0
 27  5  1  0
 25 14  1  0
 24 19  1  0
  1 28  1  0
  1 29  1  0
  1 30  1  0
  3 31  1  0
  7 32  1  0
  8 33  1  0
  8 34  1  0
  9 35  1  0
  9 36  1  0
 10 37  1  0
 10 38  1  0
 11 39  1  0
 15 40  1  0
 16 41  1  0
 17 42  1  0
 20 43  1  0
 21 44  1  0
 22 45  1  0
 23 46  1  0
 24 47  1  0
 25 48  1  0
M  END
>  <meeko>  (8) 
{"is_sidechain": [false], "free_energy": -6.949, "intermolecular_energy": -9.09, "internal_energy": -1.437}

$$$$
LIB_QMOYFHWYOPGKGI__M_PUB_ALL__e8__s20260927
     RDKit          3D

 48 51  0  0  0  0  0  0  0  0999 V2000
   -0.5180  -16.7790   -0.7870 C   0  0  0  0  0  0  0  0  0  0  0  0
   -0.0780  -16.9140    0.5770 N   0  0  0  0  0  0  0  0  0  0  0  0
    1.0800  -17.5020    1.0050 C   0  0  0  0  0  0  0  0  0  0  0  0
    1.1920  -17.4620    2.3170 N   0  0  0  0  0  0  0  0  0  0  0  0
    0.0480  -16.8150    2.7490 C   0  0  0  0  0  0  0  0  0  0  0  0
   -0.4170  -16.4680    4.0290 C   0  0  0  0  0  0  0  0  0  0  0  0
    0.3140  -16.7680    5.1590 N   0  0  0  0  0  0  0  0  0  0  0  0
   -0.2410  -17.4520    6.3030 C   0  0  0  0  0  0  0  0  0  0  0  0
   -0.3330  -18.9580    6.0680 C   0  0  0  0  0  0  0  0  0  0  0  0
    1.0030  -19.6460    5.8240 C   0  0  0  0  0  0  0  0  0  0  0  0
    1.3760  -19.5680    4.4560 O   0  0  0  0  0  0  0  0  0  0  0  0
   -1.6180  -15.8320    4.1140 N   0  0  0  0  0  0  0  0  0  0  0  0
   -2.3030  -15.5300    2.9770 C   0  0  0  0  0  0  0  0  0  0  0  0
   -3.5820  -14.7990    3.1390 C   0  0  0  0  0  0  0  0  0  0  0  0
   -3.8910  -13.6710    2.3590 C   0  0  0  0  0  0  0  0  0  0  0  0
   -5.0970  -12.9860    2.5150 C   0  0  0  0  0  0  0  0  0  0  0  0
   -6.0280  -13.4150    3.4590 C   0  0  0  0  0  0  0  0  0  0  0  0
   -5.7710  -14.5360    4.2610 C   0  0  0  0  0  0  0  0  0  0  0  0
   -6.7490  -14.9930    5.2610 C   0  0  0  0  0  0  0  0  0  0  0  0
   -7.8080  -15.8430    4.9020 C   0  0  0  0  0  0  0  0  0  0  0  0
   -8.7370  -16.2780    5.8500 C   0  0  0  0  0  0  0  0  0  0  0  0
   -8.6230  -15.8690    7.1760 C   0  0  0  0  0  0  0  0  0  0  0  0
   -7.5810  -15.0260    7.5550 C   0  0  0  0  0  0  0  0  0  0  0  0
   -6.6520  -14.5930    6.6040 C   0  0  0  0  0  0  0  0  0  0  0  0
   -4.5470  -15.2090    4.0850 C   0  0  0  0  0  0  0  0  0  0  0  0
   -1.9310  -15.8310    1.7120 N   0  0  0  0  0  0  0  0  0  0  0  0
   -0.7530  -16.4680    1.6770 C   0  0  0  0  0  0  0  0  0  0  0  0
   -1.5695  -16.4564   -0.8028 H   0  0  0  0  0  0  0  0  0  0  0  0
    0.1031  -16.0301   -1.3002 H   0  0  0  0  0  0  0  0  0  0  0  0
   -0.4238  -17.7474   -1.3002 H   0  0  0  0  0  0  0  0  0  0  0  0
    1.8269  -17.9534    0.3354 H   0  0  0  0  0  0  0  0  0  0  0  0
    1.2750  -16.4440    5.1700 H   0  0  0  0  0  0  0  0  0  0  0  0
    0.4012  -17.2657    7.1764 H   0  0  0  0  0  0  0  0  0  0  0  0
   -1.2576  -17.0679    6.4734 H   0  0  0  0  0  0  0  0  0  0  0  0
   -0.7973  -19.4154    6.9541 H   0  0  0  0  0  0  0  0  0  0  0  0
   -0.9249  -19.0940    5.1508 H   0  0  0  0  0  0  0  0  0  0  0  0
    1.7758  -19.1572    6.4355 H   0  0  0  0  0  0  0  0  0  0  0  0
    0.9053  -20.7064    6.0995 H   0  0  0  0  0  0  0  0  0  0  0  0
    1.1530  -20.4420    4.0730 H   0  0  0  0  0  0  0  0  0  0  0  0
   -3.1664  -13.3205    1.6093 H   0  0  0  0  0  0  0  0  0  0  0  0
   -5.3130  -12.1058    1.8916 H   0  0  0  0  0  0  0  0  0  0  0  0
   -6.9751  -12.8680    3.5763 H   0  0  0  0  0  0  0  0  0  0  0  0
   -7.9074  -16.1716    3.8569 H   0  0  0  0  0  0  0  0  0  0  0  0
   -9.5590  -16.9440    5.5488 H   0  0  0  0  0  0  0  0  0  0  0  0
   -9.3545  -16.2110    7.9229 H   0  0  0  0  0  0  0  0  0  0  0  0
   -7.4890  -14.7011    8.6019 H   0  0  0  0  0  0  0  0  0  0  0  0
   -5.8317  -13.9282    6.9126 H   0  0  0  0  0  0  0  0  0  0  0  0
   -4.3338  -16.0893    4.7092 H   0  0  0  0  0  0  0  0  0  0  0  0
  1  2  1  0
  2  3  1  0
  3  4  2  0
  4  5  1  0
  5  6  2  0
  6  7  1  0
  7  8  1  0
  8  9  1  0
  9 10  1  0
 10 11  1  0
  6 12  1  0
 12 13  2  0
 13 14  1  0
 14 15  2  0
 15 16  1  0
 16 17  2  0
 17 18  1  0
 18 19  1  0
 19 20  2  0
 20 21  1  0
 21 22  2  0
 22 23  1  0
 23 24  2  0
 18 25  2  0
 13 26  1  0
 26 27  2  0
 27  2  1  0
 27  5  1  0
 25 14  1  0
 24 19  1  0
  1 28  1  0
  1 29  1  0
  1 30  1  0
  3 31  1  0
  7 32  1  0
  8 33  1  0
  8 34  1  0
  9 35  1  0
  9 36  1  0
 10 37  1  0
 10 38  1  0
 11 39  1  0
 15 40  1  0
 16 41  1  0
 17 42  1  0
 20 43  1  0
 21 44  1  0
 22 45  1  0
 23 46  1  0
 24 47  1  0
 25 48  1  0
M  END
>  <meeko>  (9) 
{"is_sidechain": [false], "free_energy": -6.868, "intermolecular_energy": -8.946, "internal_energy": -1.469}

$$$$
