LIB_ZCMRTFYSMQNOKC__M_PUB_ALL__e8__s20260927
     RDKit          3D

 37 39  0  0  0  0  0  0  0  0999 V2000
    8.4570  -14.1540   -2.3190 C   0  0  0  0  0  0  0  0  0  0  0  0
    9.5460  -14.6630   -1.3770 C   0  0  0  0  0  0  0  0  0  0  0  0
   10.8920  -14.3650   -1.8950 N   0  0  0  0  0  0  0  0  0  0  0  0
   11.4880  -13.2160   -1.3500 C   0  0  0  0  0  0  0  0  0  0  0  0
   11.0580  -12.7830   -0.1290 N   0  0  0  0  0  0  0  0  0  0  0  0
   11.6600  -11.7170    0.4460 C   0  0  0  0  0  0  0  0  0  0  0  0
   12.6960  -11.0080   -0.1330 C   0  0  0  0  0  0  0  0  0  0  0  0
   13.2860   -9.8060    0.5350 C   0  0  0  0  0  0  0  0  0  0  0  0
   14.7020   -9.9200    0.5710 O   0  0  0  0  0  0  0  0  0  0  0  0
   13.1020  -11.4290   -1.3980 C   0  0  0  0  0  0  0  0  0  0  0  0
   12.5060  -12.5460   -2.0120 C   0  0  0  0  0  0  0  0  0  0  0  0
   12.8960  -12.8390   -3.4000 C   0  0  0  0  0  0  0  0  0  0  0  0
   13.1460  -11.8530   -4.1040 O   0  0  0  0  0  0  0  0  0  0  0  0
   13.0870  -14.1420   -3.8660 N   0  0  0  0  0  0  0  0  0  0  0  0
   13.7070  -14.2640   -5.1860 C   0  0  0  0  0  0  0  0  0  0  0  0
   12.7470  -15.3540   -3.1760 C   0  0  0  0  0  0  0  0  0  0  0  0
   13.4630  -16.5300   -3.4790 C   0  0  0  0  0  0  0  0  0  0  0  0
   13.1200  -17.7510   -2.9100 C   0  0  0  0  0  0  0  0  0  0  0  0
   12.0460  -17.7760   -2.0550 C   0  0  0  0  0  0  0  0  0  0  0  0
   11.3280  -16.6810   -1.7410 N   0  0  0  0  0  0  0  0  0  0  0  0
   11.6710  -15.4730   -2.2740 C   0  0  0  0  0  0  0  0  0  0  0  0
    7.6160  -13.7609   -1.7289 H   0  0  0  0  0  0  0  0  0  0  0  0
    8.8656  -13.3536   -2.9533 H   0  0  0  0  0  0  0  0  0  0  0  0
    8.1050  -14.9809   -2.9533 H   0  0  0  0  0  0  0  0  0  0  0  0
    9.4253  -14.1788   -0.3967 H   0  0  0  0  0  0  0  0  0  0  0  0
    9.4440  -15.7548   -1.2904 H   0  0  0  0  0  0  0  0  0  0  0  0
   11.3033  -11.3943    1.4353 H   0  0  0  0  0  0  0  0  0  0  0  0
   13.0068   -8.9025   -0.0269 H   0  0  0  0  0  0  0  0  0  0  0  0
   12.9015   -9.7375    1.5633 H   0  0  0  0  0  0  0  0  0  0  0  0
   14.9250  -10.4170    1.3750 H   0  0  0  0  0  0  0  0  0  0  0  0
   13.8984  -10.8812   -1.9230 H   0  0  0  0  0  0  0  0  0  0  0  0
   14.7802  -14.4752   -5.0689 H   0  0  0  0  0  0  0  0  0  0  0  0
   13.2300  -15.0855   -5.7406 H   0  0  0  0  0  0  0  0  0  0  0  0
   13.5768  -13.3230   -5.7406 H   0  0  0  0  0  0  0  0  0  0  0  0
   14.3097  -16.4804   -4.1794 H   0  0  0  0  0  0  0  0  0  0  0  0
   13.6889  -18.6648   -3.1367 H   0  0  0  0  0  0  0  0  0  0  0  0
   11.7581  -18.7374   -1.6046 H   0  0  0  0  0  0  0  0  0  0  0  0
  1  2  1  0
  2  3  1  0
  3  4  1  0
  4  5  2  0
  5  6  1  0
  6  7  2  0
  7  8  1  0
  8  9  1  0
  7 10  1  0
 10 11  2  0
 11 12  1  0
 12 13  2  0
 12 14  1  0
 14 15  1  0
 14 16  1  0
 16 17  2  0
 17 18  1  0
 18 19  2  0
 19 20  1  0
 20 21  2  0
 21  3  1  0
 11  4  1  0
 21 16  1  0
  1 22  1  0
  1 23  1  0
  1 24  1  0
  2 25  1  0
  2 26  1  0
  6 27  1  0
  8 28  1  0
  8 29  1  0
  9 30  1  0
 10 31  1  0
 15 32  1  0
 15 33  1  0
 15 34  1  0
 17 35  1  0
 18 36  1  0
 19 37  1  0
M  END
>  <meeko>  (1) 
{"is_sidechain": [false], "free_energy": -6.549, "intermolecular_energy": -7.506, "internal_energy": -0.21}

$$$$
LIB_ZCMRTFYSMQNOKC__M_PUB_ALL__e8__s20260927
     RDKit          3D

 37 39  0  0  0  0  0  0  0  0999 V2000
    0.9560  -14.4850    2.4760 C   0  0  0  0  0  0  0  0  0  0  0  0
    0.1980  -14.5580    1.1520 C   0  0  0  0  0  0  0  0  0  0  0  0
   -0.2070  -13.2210    0.6850 N   0  0  0  0  0  0  0  0  0  0  0  0
    0.6610  -12.6420   -0.2540 C   0  0  0  0  0  0  0  0  0  0  0  0
    1.4570  -13.4680   -0.9940 N   0  0  0  0  0  0  0  0  0  0  0  0
    2.2550  -12.9390   -1.9500 C   0  0  0  0  0  0  0  0  0  0  0  0
    2.3340  -11.5880   -2.2310 C   0  0  0  0  0  0  0  0  0  0  0  0
    3.2750  -11.0640   -3.2700 C   0  0  0  0  0  0  0  0  0  0  0  0
    2.8830   -9.7540   -3.6580 O   0  0  0  0  0  0  0  0  0  0  0  0
    1.5490  -10.7460   -1.4450 C   0  0  0  0  0  0  0  0  0  0  0  0
    0.6970  -11.2710   -0.4560 C   0  0  0  0  0  0  0  0  0  0  0  0
    0.0100  -10.3070    0.4190 C   0  0  0  0  0  0  0  0  0  0  0  0
    0.6440   -9.2790    0.6830 O   0  0  0  0  0  0  0  0  0  0  0  0
   -1.3130  -10.4810    0.8320 N   0  0  0  0  0  0  0  0  0  0  0  0
   -1.9330   -9.3310    1.4910 C   0  0  0  0  0  0  0  0  0  0  0  0
   -2.1120  -11.6610    0.6640 C   0  0  0  0  0  0  0  0  0  0  0  0
   -3.5150  -11.5290    0.6100 C   0  0  0  0  0  0  0  0  0  0  0  0
   -4.3430  -12.6430    0.5380 C   0  0  0  0  0  0  0  0  0  0  0  0
   -3.7480  -13.8800    0.5400 C   0  0  0  0  0  0  0  0  0  0  0  0
   -2.4150  -14.0570    0.5970 N   0  0  0  0  0  0  0  0  0  0  0  0
   -1.5900  -12.9710    0.6430 C   0  0  0  0  0  0  0  0  0  0  0  0
    0.2431  -14.5537    3.3109 H   0  0  0  0  0  0  0  0  0  0  0  0
    1.6715  -15.3184    2.5353 H   0  0  0  0  0  0  0  0  0  0  0  0
    1.4993  -13.5304    2.5353 H   0  0  0  0  0  0  0  0  0  0  0  0
    0.8476  -15.0195    0.3937 H   0  0  0  0  0  0  0  0  0  0  0  0
   -0.7107  -15.1579    1.3082 H   0  0  0  0  0  0  0  0  0  0  0  0
    2.8793  -13.6263   -2.5398 H   0  0  0  0  0  0  0  0  0  0  0  0
    4.2942  -11.0330   -2.8573 H   0  0  0  0  0  0  0  0  0  0  0  0
    3.2508  -11.7255   -4.1486 H   0  0  0  0  0  0  0  0  0  0  0  0
    3.6020   -9.3950   -4.2040 H   0  0  0  0  0  0  0  0  0  0  0  0
    1.5962   -9.6580   -1.5998 H   0  0  0  0  0  0  0  0  0  0  0  0
   -1.8667   -9.4540    2.5821 H   0  0  0  0  0  0  0  0  0  0  0  0
   -1.4086   -8.4111    1.1932 H   0  0  0  0  0  0  0  0  0  0  0  0
   -2.9898   -9.2635    1.1932 H   0  0  0  0  0  0  0  0  0  0  0  0
   -3.9629  -10.5244    0.6252 H   0  0  0  0  0  0  0  0  0  0  0  0
   -5.4364  -12.5371    0.4814 H   0  0  0  0  0  0  0  0  0  0  0  0
   -4.3923  -14.7703    0.4927 H   0  0  0  0  0  0  0  0  0  0  0  0
  1  2  1  0
  2  3  1  0
  3  4  1  0
  4  5  2  0
  5  6  1  0
  6  7  2  0
  7  8  1  0
  8  9  1  0
  7 10  1  0
 10 11  2  0
 11 12  1  0
 12 13  2  0
 12 14  1  0
 14 15  1  0
 14 16  1  0
 16 17  2  0
 17 18  1  0
 18 19  2  0
 19 20  1  0
 20 21  2  0
 21  3  1  0
 11  4  1  0
 21 16  1  0
  1 22  1  0
  1 23  1  0
  1 24  1  0
  2 25  1  0
  2 26  1  0
  6 27  1  0
  8 28  1  0
  8 29  1  0
  9 30  1  0
 10 31  1  0
 15 32  1  0
 15 33  1  0
 15 34  1  0
 17 35  1  0
 18 36  1  0
 19 37  1  0
M  END
>  <meeko>  (2) 
{"is_sidechain": [false], "free_energy": -6.332, "intermolecular_energy": -7.255, "internal_energy": -0.212}

$$$$
LIB_ZCMRTFYSMQNOKC__M_PUB_ALL__e8__s20260927
     RDKit          3D

 37 39  0  0  0  0  0  0  0  0999 V2000
   -9.7650  -12.5470  -10.6970 C   0  0  0  0  0  0  0  0  0  0  0  0
   -9.2860  -13.9970  -10.7580 C   0  0  0  0  0  0  0  0  0  0  0  0
  -10.1380  -14.8830   -9.9470 N   0  0  0  0  0  0  0  0  0  0  0  0
  -11.0970  -15.6020  -10.6770 C   0  0  0  0  0  0  0  0  0  0  0  0
  -10.8690  -15.8170  -12.0050 N   0  0  0  0  0  0  0  0  0  0  0  0
  -11.7470  -16.5620  -12.7160 C   0  0  0  0  0  0  0  0  0  0  0  0
  -12.8920  -17.1250  -12.1850 C   0  0  0  0  0  0  0  0  0  0  0  0
  -13.8470  -17.8990  -13.0400 C   0  0  0  0  0  0  0  0  0  0  0  0
  -13.5330  -19.2830  -12.9830 O   0  0  0  0  0  0  0  0  0  0  0  0
  -13.1400  -16.8680  -10.8390 C   0  0  0  0  0  0  0  0  0  0  0  0
  -12.2360  -16.1110  -10.0710 C   0  0  0  0  0  0  0  0  0  0  0  0
  -12.6410  -15.7700   -8.6970 C   0  0  0  0  0  0  0  0  0  0  0  0
  -13.8500  -15.5760   -8.5300 O   0  0  0  0  0  0  0  0  0  0  0  0
  -11.7430  -15.7790   -7.6270 N   0  0  0  0  0  0  0  0  0  0  0  0
  -12.3350  -15.6600   -6.2950 C   0  0  0  0  0  0  0  0  0  0  0  0
  -10.3150  -15.9020   -7.7120 C   0  0  0  0  0  0  0  0  0  0  0  0
   -9.6140  -16.4380   -6.6120 C   0  0  0  0  0  0  0  0  0  0  0  0
   -8.2260  -16.4980   -6.6010 C   0  0  0  0  0  0  0  0  0  0  0  0
   -7.5580  -16.0000   -7.6920 C   0  0  0  0  0  0  0  0  0  0  0  0
   -8.1820  -15.4720   -8.7610 N   0  0  0  0  0  0  0  0  0  0  0  0
   -9.5460  -15.4300   -8.7950 C   0  0  0  0  0  0  0  0  0  0  0  0
   -9.8669  -12.2384   -9.6461 H   0  0  0  0  0  0  0  0  0  0  0  0
   -9.0336  -11.8977  -11.2005 H   0  0  0  0  0  0  0  0  0  0  0  0
  -10.7392  -12.4612  -11.2005 H   0  0  0  0  0  0  0  0  0  0  0  0
   -9.3101  -14.3374  -11.8037 H   0  0  0  0  0  0  0  0  0  0  0  0
   -8.2633  -14.0392  -10.3551 H   0  0  0  0  0  0  0  0  0  0  0  0
  -11.5363  -16.7298  -13.7825 H   0  0  0  0  0  0  0  0  0  0  0  0
  -14.8728  -17.7422  -12.6751 H   0  0  0  0  0  0  0  0  0  0  0  0
  -13.7657  -17.5514  -14.0804 H   0  0  0  0  0  0  0  0  0  0  0  0
  -12.6720  -19.3590  -12.5390 H   0  0  0  0  0  0  0  0  0  0  0  0
  -14.0540  -17.2617  -10.3703 H   0  0  0  0  0  0  0  0  0  0  0  0
  -11.5574  -15.8163   -5.5328 H   0  0  0  0  0  0  0  0  0  0  0  0
  -12.7694  -14.6566   -6.1751 H   0  0  0  0  0  0  0  0  0  0  0  0
  -13.1234  -16.4176   -6.1751 H   0  0  0  0  0  0  0  0  0  0  0  0
  -10.1771  -16.8159   -5.7459 H   0  0  0  0  0  0  0  0  0  0  0  0
   -7.6815  -16.9294   -5.7481 H   0  0  0  0  0  0  0  0  0  0  0  0
   -6.4585  -16.0342   -7.6924 H   0  0  0  0  0  0  0  0  0  0  0  0
  1  2  1  0
  2  3  1  0
  3  4  1  0
  4  5  2  0
  5  6  1  0
  6  7  2  0
  7  8  1  0
  8  9  1  0
  7 10  1  0
 10 11  2  0
 11 12  1  0
 12 13  2  0
 12 14  1  0
 14 15  1  0
 14 16  1  0
 16 17  2  0
 17 18  1  0
 18 19  2  0
 19 20  1  0
 20 21  2  0
 21  3  1  0
 11  4  1  0
 21 16  1  0
  1 22  1  0
  1 23  1  0
  1 24  1  0
  2 25  1  0
  2 26  1  0
  6 27  1  0
  8 28  1  0
  8 29  1  0
  9 30  1  0
 10 31  1  0
 15 32  1  0
 15 33  1  0
 15 34  1  0
 17 35  1  0
 18 36  1  0
 19 37  1  0
M  END
>  <meeko>  (3) 
{"is_sidechain": [false], "free_energy": -6.261, "intermolecular_energy": -7.181, "internal_energy": -0.205}

$$$$
LIB_ZCMRTFYSMQNOKC__M_PUB_ALL__e8__s20260927
     RDKit          3D

 37 39  0  0  0  0  0  0  0  0999 V2000
  -12.0670  -10.9750   -7.2770 C   0  0  0  0  0  0  0  0  0  0  0  0
  -12.5920  -11.7520   -8.4830 C   0  0  0  0  0  0  0  0  0  0  0  0
  -11.9660  -13.0810   -8.5850 N   0  0  0  0  0  0  0  0  0  0  0  0
  -12.8160  -14.1540   -8.2730 C   0  0  0  0  0  0  0  0  0  0  0  0
  -14.1630  -13.9660   -8.3890 N   0  0  0  0  0  0  0  0  0  0  0  0
  -14.9990  -15.0030   -8.1550 C   0  0  0  0  0  0  0  0  0  0  0  0
  -14.5800  -16.2680   -7.7870 C   0  0  0  0  0  0  0  0  0  0  0  0
  -15.5620  -17.3590   -7.4960 C   0  0  0  0  0  0  0  0  0  0  0  0
  -16.2290  -17.0930   -6.2700 O   0  0  0  0  0  0  0  0  0  0  0  0
  -13.2070  -16.4420   -7.6310 C   0  0  0  0  0  0  0  0  0  0  0  0
  -12.3120  -15.3860   -7.8840 C   0  0  0  0  0  0  0  0  0  0  0  0
  -10.8940  -15.6140   -7.5620 C   0  0  0  0  0  0  0  0  0  0  0  0
  -10.6780  -16.3360   -6.5820 O   0  0  0  0  0  0  0  0  0  0  0  0
   -9.8570  -15.1450   -8.3720 N   0  0  0  0  0  0  0  0  0  0  0  0
   -8.5210  -15.6550   -8.0590 C   0  0  0  0  0  0  0  0  0  0  0  0
   -9.9800  -14.2330   -9.4740 C   0  0  0  0  0  0  0  0  0  0  0  0
   -9.0170  -14.2790  -10.5030 C   0  0  0  0  0  0  0  0  0  0  0  0
   -9.0320  -13.3630  -11.5480 C   0  0  0  0  0  0  0  0  0  0  0  0
  -10.0080  -12.3970  -11.5340 C   0  0  0  0  0  0  0  0  0  0  0  0
  -10.9440  -12.3080  -10.5700 N   0  0  0  0  0  0  0  0  0  0  0  0
  -10.9540  -13.2180   -9.5520 C   0  0  0  0  0  0  0  0  0  0  0  0
  -12.3994  -11.4669   -6.3509 H   0  0  0  0  0  0  0  0  0  0  0  0
  -10.9676  -10.9522   -7.3058 H   0  0  0  0  0  0  0  0  0  0  0  0
  -12.4560   -9.9465   -7.3058 H   0  0  0  0  0  0  0  0  0  0  0  0
  -13.6802  -11.8767   -8.3813 H   0  0  0  0  0  0  0  0  0  0  0  0
  -12.3453  -11.1844   -9.3924 H   0  0  0  0  0  0  0  0  0  0  0  0
  -16.0797  -14.8291   -8.2643 H   0  0  0  0  0  0  0  0  0  0  0  0
  -16.3006  -17.4118   -8.3094 H   0  0  0  0  0  0  0  0  0  0  0  0
  -15.0272  -18.3170   -7.4176 H   0  0  0  0  0  0  0  0  0  0  0  0
  -16.0890  -17.8660   -5.6990 H   0  0  0  0  0  0  0  0  0  0  0  0
  -12.8171  -17.4178   -7.3057 H   0  0  0  0  0  0  0  0  0  0  0  0
   -8.3935  -15.7037   -6.9675 H   0  0  0  0  0  0  0  0  0  0  0  0
   -8.4031  -16.6614   -8.4872 H   0  0  0  0  0  0  0  0  0  0  0  0
   -7.7625  -14.9832   -8.4872 H   0  0  0  0  0  0  0  0  0  0  0  0
   -8.2383  -15.0555  -10.4781 H   0  0  0  0  0  0  0  0  0  0  0  0
   -8.2886  -13.4100  -12.3575 H   0  0  0  0  0  0  0  0  0  0  0  0
  -10.0261  -11.6598  -12.3502 H   0  0  0  0  0  0  0  0  0  0  0  0
  1  2  1  0
  2  3  1  0
  3  4  1  0
  4  5  2  0
  5  6  1  0
  6  7  2  0
  7  8  1  0
  8  9  1  0
  7 10  1  0
 10 11  2  0
 11 12  1  0
 12 13  2  0
 12 14  1  0
 14 15  1  0
 14 16  1  0
 16 17  2  0
 17 18  1  0
 18 19  2  0
 19 20  1  0
 20 21  2  0
 21  3  1  0
 11  4  1  0
 21 16  1  0
  1 22  1  0
  1 23  1  0
  1 24  1  0
  2 25  1  0
  2 26  1  0
  6 27  1  0
  8 28  1  0
  8 29  1  0
  9 30  1  0
 10 31  1  0
 15 32  1  0
 15 33  1  0
 15 34  1  0
 17 35  1  0
 18 36  1  0
 19 37  1  0
M  END
>  <meeko>  (4) 
{"is_sidechain": [false], "free_energy": -6.226, "intermolecular_energy": -7.146, "internal_energy": -0.199}

$$$$
LIB_ZCMRTFYSMQNOKC__M_PUB_ALL__e8__s20260927
     RDKit          3D

 37 39  0  0  0  0  0  0  0  0999 V2000
    1.4520  -13.1640   -1.2120 C   0  0  0  0  0  0  0  0  0  0  0  0
    1.2440  -12.9580    0.2880 C   0  0  0  0  0  0  0  0  0  0  0  0
   -0.1840  -12.9930    0.6460 N   0  0  0  0  0  0  0  0  0  0  0  0
   -0.6010  -14.1730    1.2800 C   0  0  0  0  0  0  0  0  0  0  0  0
    0.3370  -14.9220    1.9290 N   0  0  0  0  0  0  0  0  0  0  0  0
   -0.0490  -16.0310    2.6020 C   0  0  0  0  0  0  0  0  0  0  0  0
   -1.3550  -16.4780    2.6720 C   0  0  0  0  0  0  0  0  0  0  0  0
   -1.7080  -17.7410    3.3940 C   0  0  0  0  0  0  0  0  0  0  0  0
   -2.2100  -18.6990    2.4720 O   0  0  0  0  0  0  0  0  0  0  0  0
   -2.3020  -15.7320    1.9720 C   0  0  0  0  0  0  0  0  0  0  0  0
   -1.9310  -14.5650    1.2790 C   0  0  0  0  0  0  0  0  0  0  0  0
   -2.9640  -13.9160    0.4550 C   0  0  0  0  0  0  0  0  0  0  0  0
   -3.7760  -14.6780   -0.0820 O   0  0  0  0  0  0  0  0  0  0  0  0
   -3.0940  -12.5270    0.3740 N   0  0  0  0  0  0  0  0  0  0  0  0
   -4.3070  -12.0360   -0.2810 C   0  0  0  0  0  0  0  0  0  0  0  0
   -2.1680  -11.5520    0.8760 C   0  0  0  0  0  0  0  0  0  0  0  0
   -2.6510  -10.2730    1.2220 C   0  0  0  0  0  0  0  0  0  0  0  0
   -1.7890   -9.2610    1.6280 C   0  0  0  0  0  0  0  0  0  0  0  0
   -0.4460   -9.5440    1.6630 C   0  0  0  0  0  0  0  0  0  0  0  0
    0.0630  -10.7470    1.3360 N   0  0  0  0  0  0  0  0  0  0  0  0
   -0.7760  -11.7550    0.9590 C   0  0  0  0  0  0  0  0  0  0  0  0
    2.2251  -13.9297   -1.3732 H   0  0  0  0  0  0  0  0  0  0  0  0
    0.5083  -13.4934   -1.6712 H   0  0  0  0  0  0  0  0  0  0  0  0
    1.7723  -12.2171   -1.6712 H   0  0  0  0  0  0  0  0  0  0  0  0
    1.7688  -13.7556    0.8342 H   0  0  0  0  0  0  0  0  0  0  0  0
    1.6429  -11.9692    0.5586 H   0  0  0  0  0  0  0  0  0  0  0  0
    0.7243  -16.6124    3.1255 H   0  0  0  0  0  0  0  0  0  0  0  0
   -0.8102  -18.1434    3.8860 H   0  0  0  0  0  0  0  0  0  0  0  0
   -2.4788  -17.5246    4.1483 H   0  0  0  0  0  0  0  0  0  0  0  0
   -2.4900  -18.2090    1.6810 H   0  0  0  0  0  0  0  0  0  0  0  0
   -3.3520  -16.0597    1.9613 H   0  0  0  0  0  0  0  0  0  0  0  0
   -5.0412  -11.7388    0.4823 H   0  0  0  0  0  0  0  0  0  0  0  0
   -4.0588  -11.1675   -0.9088 H   0  0  0  0  0  0  0  0  0  0  0  0
   -4.7328  -12.8326   -0.9088 H   0  0  0  0  0  0  0  0  0  0  0  0
   -3.7313  -10.0723    1.1695 H   0  0  0  0  0  0  0  0  0  0  0  0
   -2.1694   -8.2685    1.9112 H   0  0  0  0  0  0  0  0  0  0  0  0
    0.2482   -8.7491    1.9733 H   0  0  0  0  0  0  0  0  0  0  0  0
  1  2  1  0
  2  3  1  0
  3  4  1  0
  4  5  2  0
  5  6  1  0
  6  7  2  0
  7  8  1  0
  8  9  1  0
  7 10  1  0
 10 11  2  0
 11 12  1  0
 12 13  2  0
 12 14  1  0
 14 15  1  0
 14 16  1  0
 16 17  2  0
 17 18  1  0
 18 19  2  0
 19 20  1  0
 20 21  2  0
 21  3  1  0
 11  4  1  0
 21 16  1  0
  1 22  1  0
  1 23  1  0
  1 24  1  0
  2 25  1  0
  2 26  1  0
  6 27  1  0
  8 28  1  0
  8 29  1  0
  9 30  1  0
 10 31  1  0
 15 32  1  0
 15 33  1  0
 15 34  1  0
 17 35  1  0
 18 36  1  0
 19 37  1  0
M  END
>  <meeko>  (5) 
{"is_sidechain": [false], "free_energy": -5.982, "intermolecular_energy": -6.861, "internal_energy": -0.205}

$$$$
LIB_ZCMRTFYSMQNOKC__M_PUB_ALL__e8__s20260927
     RDKit          3D

 37 39  0  0  0  0  0  0  0  0999 V2000
    2.8630  -16.5290    0.0840 C   0  0  0  0  0  0  0  0  0  0  0  0
    1.8090  -16.2640   -0.9900 C   0  0  0  0  0  0  0  0  0  0  0  0
    1.1860  -14.9400   -0.8220 N   0  0  0  0  0  0  0  0  0  0  0  0
    1.6680  -13.9520   -1.6940 C   0  0  0  0  0  0  0  0  0  0  0  0
    2.2440  -14.3490   -2.8660 N   0  0  0  0  0  0  0  0  0  0  0  0
    2.6580  -13.4140   -3.7510 C   0  0  0  0  0  0  0  0  0  0  0  0
    2.5500  -12.0510   -3.5450 C   0  0  0  0  0  0  0  0  0  0  0  0
    3.0740  -11.0690   -4.5460 C   0  0  0  0  0  0  0  0  0  0  0  0
    3.3020   -9.8150   -3.9170 O   0  0  0  0  0  0  0  0  0  0  0  0
    2.0000  -11.6520   -2.3290 C   0  0  0  0  0  0  0  0  0  0  0  0
    1.5440  -12.6030   -1.3970 C   0  0  0  0  0  0  0  0  0  0  0  0
    1.1060  -12.1010   -0.0850 C   0  0  0  0  0  0  0  0  0  0  0  0
    1.7190  -11.1160    0.3420 O   0  0  0  0  0  0  0  0  0  0  0  0
   -0.0030  -12.6250    0.5860 N   0  0  0  0  0  0  0  0  0  0  0  0
   -0.4590  -11.8690    1.7520 C   0  0  0  0  0  0  0  0  0  0  0  0
   -0.7300  -13.8120    0.2350 C   0  0  0  0  0  0  0  0  0  0  0  0
   -2.0830  -13.9160    0.6190 C   0  0  0  0  0  0  0  0  0  0  0  0
   -2.8120  -15.0760    0.3860 C   0  0  0  0  0  0  0  0  0  0  0  0
   -2.1630  -16.1270   -0.2140 C   0  0  0  0  0  0  0  0  0  0  0  0
   -0.8720  -16.0770   -0.5910 N   0  0  0  0  0  0  0  0  0  0  0  0
   -0.1530  -14.9350   -0.3910 C   0  0  0  0  0  0  0  0  0  0  0  0
    2.4090  -16.4148    1.0794 H   0  0  0  0  0  0  0  0  0  0  0  0
    3.2504  -17.5525   -0.0271 H   0  0  0  0  0  0  0  0  0  0  0  0
    3.6884  -15.8104   -0.0271 H   0  0  0  0  0  0  0  0  0  0  0  0
    2.2876  -16.3105   -1.9793 H   0  0  0  0  0  0  0  0  0  0  0  0
    1.0235  -17.0285   -0.8978 H   0  0  0  0  0  0  0  0  0  0  0  0
    3.1086  -13.7592   -4.6932 H   0  0  0  0  0  0  0  0  0  0  0  0
    4.0191  -11.4443   -4.9654 H   0  0  0  0  0  0  0  0  0  0  0  0
    2.3354  -10.9423   -5.3512 H   0  0  0  0  0  0  0  0  0  0  0  0
    3.9130   -9.3210   -4.4880 H   0  0  0  0  0  0  0  0  0  0  0  0
    1.9211  -10.5803   -2.0942 H   0  0  0  0  0  0  0  0  0  0  0  0
   -0.1463  -12.3875    2.6704 H   0  0  0  0  0  0  0  0  0  0  0  0
   -0.0178  -10.8616    1.7313 H   0  0  0  0  0  0  0  0  0  0  0  0
   -1.5559  -11.7894    1.7313 H   0  0  0  0  0  0  0  0  0  0  0  0
   -2.5707  -13.0624    1.1125 H   0  0  0  0  0  0  0  0  0  0  0  0
   -3.8716  -15.1497    0.6721 H   0  0  0  0  0  0  0  0  0  0  0  0
   -2.7256  -17.0547   -0.3953 H   0  0  0  0  0  0  0  0  0  0  0  0
  1  2  1  0
  2  3  1  0
  3  4  1  0
  4  5  2  0
  5  6  1  0
  6  7  2  0
  7  8  1  0
  8  9  1  0
  7 10  1  0
 10 11  2  0
 11 12  1  0
 12 13  2  0
 12 14  1  0
 14 15  1  0
 14 16  1  0
 16 17  2  0
 17 18  1  0
 18 19  2  0
 19 20  1  0
 20 21  2  0
 21  3  1  0
 11  4  1  0
 21 16  1  0
  1 22  1  0
  1 23  1  0
  1 24  1  0
  2 25  1  0
  2 26  1  0
  6 27  1  0
  8 28  1  0
  8 29  1  0
  9 30  1  0
 10 31  1  0
 15 32  1  0
 15 33  1  0
 15 34  1  0
 17 35  1  0
 18 36  1  0
 19 37  1  0
M  END
>  <meeko>  (6) 
{"is_sidechain": [false], "free_energy": -5.928, "intermolecular_energy": -6.793, "internal_energy": -0.211}

$$$$
LIB_ZCMRTFYSMQNOKC__M_PUB_ALL__e8__s20260927
     RDKit          3D

 37 39  0  0  0  0  0  0  0  0999 V2000
   -5.2180  -13.2000    1.2060 C   0  0  0  0  0  0  0  0  0  0  0  0
   -4.3120  -13.3980    2.4200 C   0  0  0  0  0  0  0  0  0  0  0  0
   -2.9840  -13.8980    2.0280 N   0  0  0  0  0  0  0  0  0  0  0  0
   -2.0560  -12.8980    1.6950 C   0  0  0  0  0  0  0  0  0  0  0  0
   -2.2490  -11.6450    2.2000 N   0  0  0  0  0  0  0  0  0  0  0  0
   -1.3350  -10.6800    1.9470 C   0  0  0  0  0  0  0  0  0  0  0  0
   -0.1980  -10.8720    1.1850 C   0  0  0  0  0  0  0  0  0  0  0  0
    0.7480   -9.7470    0.9030 C   0  0  0  0  0  0  0  0  0  0  0  0
    0.3750   -8.6020    1.6550 O   0  0  0  0  0  0  0  0  0  0  0  0
   -0.0280  -12.1420    0.6380 C   0  0  0  0  0  0  0  0  0  0  0  0
   -0.9540  -13.1700    0.9000 C   0  0  0  0  0  0  0  0  0  0  0  0
   -0.7740  -14.4370    0.1740 C   0  0  0  0  0  0  0  0  0  0  0  0
   -0.3260  -14.3360   -0.9750 O   0  0  0  0  0  0  0  0  0  0  0  0
   -0.9820  -15.6810    0.7750 N   0  0  0  0  0  0  0  0  0  0  0  0
   -0.5310  -16.8440    0.0090 C   0  0  0  0  0  0  0  0  0  0  0  0
   -1.5780  -15.9200    2.0580 C   0  0  0  0  0  0  0  0  0  0  0  0
   -1.2360  -17.0950    2.7570 C   0  0  0  0  0  0  0  0  0  0  0  0
   -1.8480  -17.4240    3.9610 C   0  0  0  0  0  0  0  0  0  0  0  0
   -2.8130  -16.5730    4.4380 C   0  0  0  0  0  0  0  0  0  0  0  0
   -3.1790  -15.4440    3.8030 N   0  0  0  0  0  0  0  0  0  0  0  0
   -2.5680  -15.0970    2.6330 C   0  0  0  0  0  0  0  0  0  0  0  0
   -6.2406  -12.9765    1.5442 H   0  0  0  0  0  0  0  0  0  0  0  0
   -4.8411  -12.3630    0.5998 H   0  0  0  0  0  0  0  0  0  0  0  0
   -5.2246  -14.1179    0.5998 H   0  0  0  0  0  0  0  0  0  0  0  0
   -4.1925  -12.4347    2.9374 H   0  0  0  0  0  0  0  0  0  0  0  0
   -4.7793  -14.1429    3.0808 H   0  0  0  0  0  0  0  0  0  0  0  0
   -1.5075   -9.6811    2.3741 H   0  0  0  0  0  0  0  0  0  0  0  0
    1.7682  -10.0498    1.1815 H   0  0  0  0  0  0  0  0  0  0  0  0
    0.7120   -9.5036   -0.1691 H   0  0  0  0  0  0  0  0  0  0  0  0
    0.8570   -7.8470    1.2790 H   0  0  0  0  0  0  0  0  0  0  0  0
    0.8402  -12.3442   -0.0064 H   0  0  0  0  0  0  0  0  0  0  0  0
   -0.2218  -17.6413    0.7009 H   0  0  0  0  0  0  0  0  0  0  0  0
   -1.3535  -17.2071   -0.6248 H   0  0  0  0  0  0  0  0  0  0  0  0
    0.3212  -16.5576   -0.6248 H   0  0  0  0  0  0  0  0  0  0  0  0
   -0.4692  -17.7654    2.3414 H   0  0  0  0  0  0  0  0  0  0  0  0
   -1.5686  -18.3342    4.5118 H   0  0  0  0  0  0  0  0  0  0  0  0
   -3.3117  -16.8257    5.3853 H   0  0  0  0  0  0  0  0  0  0  0  0
  1  2  1  0
  2  3  1  0
  3  4  1  0
  4  5  2  0
  5  6  1  0
  6  7  2  0
  7  8  1  0
  8  9  1  0
  7 10  1  0
 10 11  2  0
 11 12  1  0
 12 13  2  0
 12 14  1  0
 14 15  1  0
 14 16  1  0
 16 17  2  0
 17 18  1  0
 18 19  2  0
 19 20  1  0
 20 21  2  0
 21  3  1  0
 11  4  1  0
 21 16  1  0
  1 22  1  0
  1 23  1  0
  1 24  1  0
  2 25  1  0
  2 26  1  0
  6 27  1  0
  8 28  1  0
  8 29  1  0
  9 30  1  0
 10 31  1  0
 15 32  1  0
 15 33  1  0
 15 34  1  0
 17 35  1  0
 18 36  1  0
 19 37  1  0
M  END
>  <meeko>  (7) 
{"is_sidechain": [false], "free_energy": -5.917, "intermolecular_energy": -6.821, "internal_energy": -0.171}

$$$$
LIB_ZCMRTFYSMQNOKC__M_PUB_ALL__e8__s20260927
     RDKit          3D

 37 39  0  0  0  0  0  0  0  0999 V2000
    8.9740  -16.1640   -3.4860 C   0  0  0  0  0  0  0  0  0  0  0  0
    9.0440  -14.7590   -4.0830 C   0  0  0  0  0  0  0  0  0  0  0  0
    9.1650  -13.7310   -3.0350 N   0  0  0  0  0  0  0  0  0  0  0  0
   10.4470  -13.1740   -2.9080 C   0  0  0  0  0  0  0  0  0  0  0  0
   11.2840  -13.2270   -3.9840 N   0  0  0  0  0  0  0  0  0  0  0  0
   12.5010  -12.6400   -3.9080 C   0  0  0  0  0  0  0  0  0  0  0  0
   12.9740  -11.9840   -2.7870 C   0  0  0  0  0  0  0  0  0  0  0  0
   14.3510  -11.3980   -2.7520 C   0  0  0  0  0  0  0  0  0  0  0  0
   15.2790  -12.3120   -3.3200 O   0  0  0  0  0  0  0  0  0  0  0  0
   12.1310  -11.9690   -1.6770 C   0  0  0  0  0  0  0  0  0  0  0  0
   10.8540  -12.5560   -1.7350 C   0  0  0  0  0  0  0  0  0  0  0  0
   10.0850  -12.6170   -0.4810 C   0  0  0  0  0  0  0  0  0  0  0  0
   10.7530  -12.7770    0.5470 O   0  0  0  0  0  0  0  0  0  0  0  0
    8.7070  -12.3940   -0.4350 N   0  0  0  0  0  0  0  0  0  0  0  0
    8.1270  -12.2460    0.9000 C   0  0  0  0  0  0  0  0  0  0  0  0
    7.8220  -12.2880   -1.5600 C   0  0  0  0  0  0  0  0  0  0  0  0
    6.6330  -11.5430   -1.4200 C   0  0  0  0  0  0  0  0  0  0  0  0
    5.6950  -11.4790   -2.4440 C   0  0  0  0  0  0  0  0  0  0  0  0
    5.9580  -12.1830   -3.5930 C   0  0  0  0  0  0  0  0  0  0  0  0
    7.0740  -12.9140   -3.7710 N   0  0  0  0  0  0  0  0  0  0  0  0
    8.0140  -12.9640   -2.7820 C   0  0  0  0  0  0  0  0  0  0  0  0
    8.9774  -16.0965   -2.3881 H   0  0  0  0  0  0  0  0  0  0  0  0
    8.0501  -16.6587   -3.8201 H   0  0  0  0  0  0  0  0  0  0  0  0
    9.8442  -16.7481   -3.8201 H   0  0  0  0  0  0  0  0  0  0  0  0
    9.9185  -14.6964   -4.7474 H   0  0  0  0  0  0  0  0  0  0  0  0
    8.1138  -14.5748   -4.6404 H   0  0  0  0  0  0  0  0  0  0  0  0
   13.1536  -12.6878   -4.7922 H   0  0  0  0  0  0  0  0  0  0  0  0
   14.3634  -10.4605   -3.3273 H   0  0  0  0  0  0  0  0  0  0  0  0
   14.6330  -11.1967   -1.7080 H   0  0  0  0  0  0  0  0  0  0  0  0
   15.6390  -11.8890   -4.1170 H   0  0  0  0  0  0  0  0  0  0  0  0
   12.4683  -11.4925   -0.7447 H   0  0  0  0  0  0  0  0  0  0  0  0
    8.8986  -12.4429    1.6589 H   0  0  0  0  0  0  0  0  0  0  0  0
    7.7452  -11.2217    1.0224 H   0  0  0  0  0  0  0  0  0  0  0  0
    7.3011  -12.9622    1.0224 H   0  0  0  0  0  0  0  0  0  0  0  0
    6.4438  -11.0015   -0.4814 H   0  0  0  0  0  0  0  0  0  0  0  0
    4.7750  -10.8855   -2.3375 H   0  0  0  0  0  0  0  0  0  0  0  0
    5.2203  -12.1479   -4.4082 H   0  0  0  0  0  0  0  0  0  0  0  0
  1  2  1  0
  2  3  1  0
  3  4  1  0
  4  5  2  0
  5  6  1  0
  6  7  2  0
  7  8  1  0
  8  9  1  0
  7 10  1  0
 10 11  2  0
 11 12  1  0
 12 13  2  0
 12 14  1  0
 14 15  1  0
 14 16  1  0
 16 17  2  0
 17 18  1  0
 18 19  2  0
 19 20  1  0
 20 21  2  0
 21  3  1  0
 11  4  1  0
 21 16  1  0
  1 22  1  0
  1 23  1  0
  1 24  1  0
  2 25  1  0
  2 26  1  0
  6 27  1  0
  8 28  1  0
  8 29  1  0
  9 30  1  0
 10 31  1  0
 15 32  1  0
 15 33  1  0
 15 34  1  0
 17 35  1  0
 18 36  1  0
 19 37  1  0
M  END
>  <meeko>  (8) 
{"is_sidechain": [false], "free_energy": -5.911, "intermolecular_energy": -6.78, "internal_energy": -0.205}

$$$$
LIB_ZCMRTFYSMQNOKC__M_PUB_ALL__e8__s20260927
     RDKit          3D

 37 39  0  0  0  0  0  0  0  0999 V2000
   11.8840  -17.1130   -1.2090 C   0  0  0  0  0  0  0  0  0  0  0  0
   10.9250  -15.9290   -1.0920 C   0  0  0  0  0  0  0  0  0  0  0  0
   11.3400  -14.8100   -1.9540 N   0  0  0  0  0  0  0  0  0  0  0  0
   10.7380  -14.7920   -3.2220 C   0  0  0  0  0  0  0  0  0  0  0  0
    9.5450  -15.4370   -3.3790 N   0  0  0  0  0  0  0  0  0  0  0  0
    8.9130  -15.3800   -4.5740 C   0  0  0  0  0  0  0  0  0  0  0  0
    9.4050  -14.7110   -5.6790 C   0  0  0  0  0  0  0  0  0  0  0  0
    8.6790  -14.7300   -6.9870 C   0  0  0  0  0  0  0  0  0  0  0  0
    7.5370  -13.8870   -6.9160 O   0  0  0  0  0  0  0  0  0  0  0  0
   10.6430  -14.0900   -5.5240 C   0  0  0  0  0  0  0  0  0  0  0  0
   11.3140  -14.1180   -4.2880 C   0  0  0  0  0  0  0  0  0  0  0  0
   12.6750  -13.5580   -4.2490 C   0  0  0  0  0  0  0  0  0  0  0  0
   13.3440  -13.7100   -5.2770 O   0  0  0  0  0  0  0  0  0  0  0  0
   13.1440  -12.8040   -3.1700 N   0  0  0  0  0  0  0  0  0  0  0  0
   14.4170  -12.1140   -3.3790 C   0  0  0  0  0  0  0  0  0  0  0  0
   12.4980  -12.6370   -1.9000 C   0  0  0  0  0  0  0  0  0  0  0  0
   12.7650  -11.4720   -1.1510 C   0  0  0  0  0  0  0  0  0  0  0  0
   12.2390  -11.2970    0.1240 C   0  0  0  0  0  0  0  0  0  0  0  0
   11.4650  -12.3080    0.6380 C   0  0  0  0  0  0  0  0  0  0  0  0
   11.1880  -13.4400   -0.0350 N   0  0  0  0  0  0  0  0  0  0  0  0
   11.6780  -13.6130   -1.2970 C   0  0  0  0  0  0  0  0  0  0  0  0
   12.1641  -17.4588   -0.2030 H   0  0  0  0  0  0  0  0  0  0  0  0
   11.3912  -17.9315   -1.7541 H   0  0  0  0  0  0  0  0  0  0  0  0
   12.7870  -16.8009   -1.7541 H   0  0  0  0  0  0  0  0  0  0  0  0
    9.9174  -16.2546   -1.3897 H   0  0  0  0  0  0  0  0  0  0  0  0
   10.9324  -15.5813   -0.0484 H   0  0  0  0  0  0  0  0  0  0  0  0
    7.9477  -15.8982   -4.6723 H   0  0  0  0  0  0  0  0  0  0  0  0
    9.3492  -14.3708   -7.7819 H   0  0  0  0  0  0  0  0  0  0  0  0
    8.3581  -15.7584   -7.2094 H   0  0  0  0  0  0  0  0  0  0  0  0
    7.8460  -13.0180   -6.6140 H   0  0  0  0  0  0  0  0  0  0  0  0
   11.1012  -13.5714   -6.3790 H   0  0  0  0  0  0  0  0  0  0  0  0
   14.8663  -11.8705   -2.4049 H   0  0  0  0  0  0  0  0  0  0  0  0
   15.0989  -12.7660   -3.9446 H   0  0  0  0  0  0  0  0  0  0  0  0
   14.2429  -11.1868   -3.9446 H   0  0  0  0  0  0  0  0  0  0  0  0
   13.4018  -10.6866   -1.5841 H   0  0  0  0  0  0  0  0  0  0  0  0
   12.4359  -10.3811    0.7005 H   0  0  0  0  0  0  0  0  0  0  0  0
   11.0509  -12.1867    1.6498 H   0  0  0  0  0  0  0  0  0  0  0  0
  1  2  1  0
  2  3  1  0
  3  4  1  0
  4  5  2  0
  5  6  1  0
  6  7  2  0
  7  8  1  0
  8  9  1  0
  7 10  1  0
 10 11  2  0
 11 12  1  0
 12 13  2  0
 12 14  1  0
 14 15  1  0
 14 16  1  0
 16 17  2  0
 17 18  1  0
 18 19  2  0
 19 20  1  0
 20 21  2  0
 21  3  1  0
 11  4  1  0
 21 16  1  0
  1 22  1  0
  1 23  1  0
  1 24  1  0
  2 25  1  0
  2 26  1  0
  6 27  1  0
  8 28  1  0
  8 29  1  0
  9 30  1  0
 10 31  1  0
 15 32  1  0
 15 33  1  0
 15 34  1  0
 17 35  1  0
 18 36  1  0
 19 37  1  0
M  END
>  <meeko>  (9) 
{"is_sidechain": [false], "free_energy": -5.853, "intermolecular_energy": -6.718, "internal_energy": -0.2}

$$$$
