LIB_ZQZFLTKUUCYGRL__M_PUB_ALL__e8__s20260927
     RDKit          3D

 47 50  0  0  0  0  0  0  0  0999 V2000
   12.7480   -2.9320  -13.7320 C   0  0  0  0  0  0  0  0  0  0  0  0
   12.3440   -4.2410  -13.1170 C   0  0  0  0  0  0  0  0  0  0  0  0
   11.5890   -4.2660  -11.9360 C   0  0  0  0  0  0  0  0  0  0  0  0
   11.1920   -5.4820  -11.3750 C   0  0  0  0  0  0  0  0  0  0  0  0
   11.5470   -6.6770  -12.0040 C   0  0  0  0  0  0  0  0  0  0  0  0
   11.0510   -8.2270  -11.2860 S   0  0  0  0  0  0  0  0  0  0  0  0
   10.8580   -8.0290   -9.8650 O   0  0  0  0  0  0  0  0  0  0  0  0
   11.9480   -9.2490  -11.7840 O   0  0  0  0  0  0  0  0  0  0  0  0
    9.5530   -8.5290  -12.0220 N   0  0  0  0  0  0  0  0  0  0  0  0
    8.8420   -9.7060  -11.6600 C   0  0  0  0  0  0  0  0  0  0  0  0
    7.5470   -9.5890  -11.1530 C   0  0  0  0  0  0  0  0  0  0  0  0
    6.8690  -10.7260  -10.7080 C   0  0  0  0  0  0  0  0  0  0  0  0
    7.4950  -11.9780  -10.7560 C   0  0  0  0  0  0  0  0  0  0  0  0
    6.7490  -13.1580  -10.2570 C   0  0  0  0  0  0  0  0  0  0  0  0
    6.3060  -13.9740  -11.0610 O   0  0  0  0  0  0  0  0  0  0  0  0
    6.5670  -13.3350   -8.7900 C   0  0  0  0  0  0  0  0  0  0  0  0
    5.6540  -12.5400   -8.2100 C   0  0  0  0  0  0  0  0  0  0  0  0
    5.3990  -12.6350   -6.7820 C   0  0  0  0  0  0  0  0  0  0  0  0
    4.4550  -11.8310   -6.1400 C   0  0  0  0  0  0  0  0  0  0  0  0
    4.2450  -11.9760   -4.7660 C   0  0  0  0  0  0  0  0  0  0  0  0
    2.9660  -10.8860   -3.8970 Br  0  0  0  0  0  0  0  0  0  0  0  0
    4.9650  -12.9160   -4.0270 C   0  0  0  0  0  0  0  0  0  0  0  0
    5.9080  -13.7200   -4.6640 C   0  0  0  0  0  0  0  0  0  0  0  0
    6.1120  -13.5670   -6.0340 C   0  0  0  0  0  0  0  0  0  0  0  0
    7.0780  -14.3890   -6.6420 O   0  0  0  0  0  0  0  0  0  0  0  0
    7.3770  -14.2880   -7.9980 C   0  0  0  0  0  0  0  0  0  0  0  0
    8.2750  -14.9600   -8.4930 O   0  0  0  0  0  0  0  0  0  0  0  0
    8.7780  -12.0990  -11.3030 C   0  0  0  0  0  0  0  0  0  0  0  0
    9.4500  -10.9590  -11.7500 C   0  0  0  0  0  0  0  0  0  0  0  0
   12.2640   -6.6650  -13.2020 C   0  0  0  0  0  0  0  0  0  0  0  0
   12.6650   -5.4470  -13.7520 C   0  0  0  0  0  0  0  0  0  0  0  0
   12.9719   -2.2065  -12.9360 H   0  0  0  0  0  0  0  0  0  0  0  0
   13.6422   -3.0802  -14.3552 H   0  0  0  0  0  0  0  0  0  0  0  0
   11.9258   -2.5504  -14.3552 H   0  0  0  0  0  0  0  0  0  0  0  0
   11.3073   -3.3214  -11.4478 H   0  0  0  0  0  0  0  0  0  0  0  0
   10.6044   -5.4981  -10.4452 H   0  0  0  0  0  0  0  0  0  0  0  0
    9.0210   -7.6690  -12.1400 H   0  0  0  0  0  0  0  0  0  0  0  0
    7.0613   -8.6033  -11.1040 H   0  0  0  0  0  0  0  0  0  0  0  0
    5.8435  -10.6383  -10.3199 H   0  0  0  0  0  0  0  0  0  0  0  0
    5.0960  -11.8130   -8.8184 H   0  0  0  0  0  0  0  0  0  0  0  0
    3.8801  -11.0880   -6.7123 H   0  0  0  0  0  0  0  0  0  0  0  0
    4.7887  -13.0216   -2.9464 H   0  0  0  0  0  0  0  0  0  0  0  0
    6.4830  -14.4645   -4.0939 H   0  0  0  0  0  0  0  0  0  0  0  0
    9.2547  -13.0873  -11.3804 H   0  0  0  0  0  0  0  0  0  0  0  0
   10.4610  -11.0490  -12.1740 H   0  0  0  0  0  0  0  0  0  0  0  0
   12.5111   -7.6095  -13.7089 H   0  0  0  0  0  0  0  0  0  0  0  0
   13.2374   -5.4341  -14.6912 H   0  0  0  0  0  0  0  0  0  0  0  0
  1  2  1  0
  2  3  2  0
  3  4  1  0
  4  5  2  0
  5  6  1  0
  6  7  2  0
  6  8  2  0
  6  9  1  0
  9 10  1  0
 10 11  2  0
 11 12  1  0
 12 13  2  0
 13 14  1  0
 14 15  2  0
 14 16  1  0
 16 17  2  0
 17 18  1  0
 18 19  2  0
 19 20  1  0
 20 21  1  0
 20 22  2  0
 22 23  1  0
 23 24  2  0
 24 25  1  0
 25 26  1  0
 26 27  2  0
 13 28  1  0
 28 29  2  0
  5 30  1  0
 30 31  2  0
 31  2  1  0
 29 10  1  0
 26 16  1  0
 24 18  1  0
  1 32  1  0
  1 33  1  0
  1 34  1  0
  3 35  1  0
  4 36  1  0
  9 37  1  0
 11 38  1  0
 12 39  1  0
 17 40  1  0
 19 41  1  0
 22 42  1  0
 23 43  1  0
 28 44  1  0
 29 45  1  0
 30 46  1  0
 31 47  1  0
M  END
>  <meeko>  (1) 
{"is_sidechain": [false], "free_energy": -9.035, "intermolecular_energy": -11.676, "internal_energy": -0.471}

$$$$
LIB_ZQZFLTKUUCYGRL__M_PUB_ALL__e8__s20260927
     RDKit          3D

 47 50  0  0  0  0  0  0  0  0999 V2000
    2.2040  -11.5800   -1.7470 C   0  0  0  0  0  0  0  0  0  0  0  0
    1.2360  -11.2070   -0.6620 C   0  0  0  0  0  0  0  0  0  0  0  0
    1.1440  -11.9810    0.5030 C   0  0  0  0  0  0  0  0  0  0  0  0
    0.2620  -11.6220    1.5240 C   0  0  0  0  0  0  0  0  0  0  0  0
   -0.5280  -10.4790    1.3800 C   0  0  0  0  0  0  0  0  0  0  0  0
   -1.6600  -10.0260    2.6750 S   0  0  0  0  0  0  0  0  0  0  0  0
   -1.8640   -8.5940    2.6180 O   0  0  0  0  0  0  0  0  0  0  0  0
   -1.2150  -10.6710    3.8930 O   0  0  0  0  0  0  0  0  0  0  0  0
   -3.0910  -10.8170    2.2290 N   0  0  0  0  0  0  0  0  0  0  0  0
   -3.0040  -12.1340    1.6980 C   0  0  0  0  0  0  0  0  0  0  0  0
   -2.7200  -13.1960    2.5570 C   0  0  0  0  0  0  0  0  0  0  0  0
   -2.5410  -14.4800    2.0390 C   0  0  0  0  0  0  0  0  0  0  0  0
   -2.6310  -14.6980    0.6590 C   0  0  0  0  0  0  0  0  0  0  0  0
   -2.4150  -16.0720    0.1480 C   0  0  0  0  0  0  0  0  0  0  0  0
   -3.3310  -16.6480   -0.4340 O   0  0  0  0  0  0  0  0  0  0  0  0
   -1.0870  -16.7180    0.3350 C   0  0  0  0  0  0  0  0  0  0  0  0
   -0.1280  -16.3530   -0.5330 C   0  0  0  0  0  0  0  0  0  0  0  0
    1.2050  -16.9240   -0.4350 C   0  0  0  0  0  0  0  0  0  0  0  0
    2.2320  -16.5690   -1.3120 C   0  0  0  0  0  0  0  0  0  0  0  0
    3.4970  -17.1430   -1.1610 C   0  0  0  0  0  0  0  0  0  0  0  0
    4.8870  -16.6610   -2.3510 Br  0  0  0  0  0  0  0  0  0  0  0  0
    3.7490  -18.0640   -0.1440 C   0  0  0  0  0  0  0  0  0  0  0  0
    2.7260  -18.4210    0.7330 C   0  0  0  0  0  0  0  0  0  0  0  0
    1.4680  -17.8450    0.5750 C   0  0  0  0  0  0  0  0  0  0  0  0
    0.4590  -18.2350    1.4730 O   0  0  0  0  0  0  0  0  0  0  0  0
   -0.8390  -17.7420    1.3750 C   0  0  0  0  0  0  0  0  0  0  0  0
   -1.7240  -18.1520    2.1190 O   0  0  0  0  0  0  0  0  0  0  0  0
   -2.9560  -13.6390   -0.1970 C   0  0  0  0  0  0  0  0  0  0  0  0
   -3.1380  -12.3560    0.3270 C   0  0  0  0  0  0  0  0  0  0  0  0
   -0.4160   -9.6770    0.2430 C   0  0  0  0  0  0  0  0  0  0  0  0
    0.4600  -10.0460   -0.7770 C   0  0  0  0  0  0  0  0  0  0  0  0
    3.1399  -11.9406   -1.2953 H   0  0  0  0  0  0  0  0  0  0  0  0
    1.7678  -12.3744   -2.3704 H   0  0  0  0  0  0  0  0  0  0  0  0
    2.4136  -10.6983   -2.3704 H   0  0  0  0  0  0  0  0  0  0  0  0
    1.7713  -12.8778    0.6136 H   0  0  0  0  0  0  0  0  0  0  0  0
    0.1897  -12.2345    2.4348 H   0  0  0  0  0  0  0  0  0  0  0  0
   -3.8430  -10.6190    2.8860 H   0  0  0  0  0  0  0  0  0  0  0  0
   -2.6373  -13.0220    3.6400 H   0  0  0  0  0  0  0  0  0  0  0  0
   -2.3291  -15.3210    2.7156 H   0  0  0  0  0  0  0  0  0  0  0  0
   -0.3529  -15.6191   -1.3209 H   0  0  0  0  0  0  0  0  0  0  0  0
    2.0464  -15.8422   -2.1165 H   0  0  0  0  0  0  0  0  0  0  0  0
    4.7502  -18.5064   -0.0347 H   0  0  0  0  0  0  0  0  0  0  0  0
    2.9098  -19.1473    1.5384 H   0  0  0  0  0  0  0  0  0  0  0  0
   -3.0676  -13.8157   -1.2770 H   0  0  0  0  0  0  0  0  0  0  0  0
   -3.3873  -11.5198   -0.3427 H   0  0  0  0  0  0  0  0  0  0  0  0
   -1.0154   -8.7591    0.1523 H   0  0  0  0  0  0  0  0  0  0  0  0
    0.5425   -9.4212   -1.6785 H   0  0  0  0  0  0  0  0  0  0  0  0
  1  2  1  0
  2  3  2  0
  3  4  1  0
  4  5  2  0
  5  6  1  0
  6  7  2  0
  6  8  2  0
  6  9  1  0
  9 10  1  0
 10 11  2  0
 11 12  1  0
 12 13  2  0
 13 14  1  0
 14 15  2  0
 14 16  1  0
 16 17  2  0
 17 18  1  0
 18 19  2  0
 19 20  1  0
 20 21  1  0
 20 22  2  0
 22 23  1  0
 23 24  2  0
 24 25  1  0
 25 26  1  0
 26 27  2  0
 13 28  1  0
 28 29  2  0
  5 30  1  0
 30 31  2  0
 31  2  1  0
 29 10  1  0
 26 16  1  0
 24 18  1  0
  1 32  1  0
  1 33  1  0
  1 34  1  0
  3 35  1  0
  4 36  1  0
  9 37  1  0
 11 38  1  0
 12 39  1  0
 17 40  1  0
 19 41  1  0
 22 42  1  0
 23 43  1  0
 28 44  1  0
 29 45  1  0
 30 46  1  0
 31 47  1  0
M  END
>  <meeko>  (2) 
{"is_sidechain": [false], "free_energy": -8.943, "intermolecular_energy": -10.514, "internal_energy": -1.515}

$$$$
LIB_ZQZFLTKUUCYGRL__M_PUB_ALL__e8__s20260927
     RDKit          3D

 47 50  0  0  0  0  0  0  0  0999 V2000
   14.2970  -11.7680   -3.2490 C   0  0  0  0  0  0  0  0  0  0  0  0
   13.0590  -11.9370   -2.4170 C   0  0  0  0  0  0  0  0  0  0  0  0
   11.9150  -12.5370   -2.9600 C   0  0  0  0  0  0  0  0  0  0  0  0
   10.7710  -12.7160   -2.1800 C   0  0  0  0  0  0  0  0  0  0  0  0
   10.7750  -12.2980   -0.8480 C   0  0  0  0  0  0  0  0  0  0  0  0
    9.3160  -12.5160    0.1450 S   0  0  0  0  0  0  0  0  0  0  0  0
    9.6720  -12.2960    1.5310 O   0  0  0  0  0  0  0  0  0  0  0  0
    8.6770  -13.7450   -0.2770 O   0  0  0  0  0  0  0  0  0  0  0  0
    8.3010  -11.2630   -0.3820 N   0  0  0  0  0  0  0  0  0  0  0  0
    7.0110  -11.5960   -0.8770 C   0  0  0  0  0  0  0  0  0  0  0  0
    6.7520  -11.4680   -2.2430 C   0  0  0  0  0  0  0  0  0  0  0  0
    5.4660  -11.7030   -2.7320 C   0  0  0  0  0  0  0  0  0  0  0  0
    4.4340  -12.0520   -1.8510 C   0  0  0  0  0  0  0  0  0  0  0  0
    3.0790  -12.2750   -2.4080 C   0  0  0  0  0  0  0  0  0  0  0  0
    2.9210  -12.2720   -3.6260 O   0  0  0  0  0  0  0  0  0  0  0  0
    1.9410  -12.5130   -1.4780 C   0  0  0  0  0  0  0  0  0  0  0  0
    1.5270  -11.4500   -0.7690 C   0  0  0  0  0  0  0  0  0  0  0  0
    0.4220  -11.5770    0.1660 C   0  0  0  0  0  0  0  0  0  0  0  0
   -0.0430  -10.4960    0.9180 C   0  0  0  0  0  0  0  0  0  0  0  0
   -1.1180  -10.6760    1.7930 C   0  0  0  0  0  0  0  0  0  0  0  0
   -1.7470   -9.2110    2.8110 Br  0  0  0  0  0  0  0  0  0  0  0  0
   -1.7350  -11.9210    1.9230 C   0  0  0  0  0  0  0  0  0  0  0  0
   -1.2730  -13.0020    1.1740 C   0  0  0  0  0  0  0  0  0  0  0  0
   -0.2000  -12.8140    0.3060 C   0  0  0  0  0  0  0  0  0  0  0  0
    0.2440  -13.9290   -0.4270 O   0  0  0  0  0  0  0  0  0  0  0  0
    1.3300  -13.8490   -1.2950 C   0  0  0  0  0  0  0  0  0  0  0  0
    1.7500  -14.8490   -1.8660 O   0  0  0  0  0  0  0  0  0  0  0  0
    4.7050  -12.2200   -0.4880 C   0  0  0  0  0  0  0  0  0  0  0  0
    5.9940  -11.9870   -0.0040 C   0  0  0  0  0  0  0  0  0  0  0  0
   11.9220  -11.7360   -0.2820 C   0  0  0  0  0  0  0  0  0  0  0  0
   13.0580  -11.5510   -1.0690 C   0  0  0  0  0  0  0  0  0  0  0  0
   15.1689  -11.6490   -2.5890 H   0  0  0  0  0  0  0  0  0  0  0  0
   14.4361  -12.6555   -3.8838 H   0  0  0  0  0  0  0  0  0  0  0  0
   14.1932  -10.8757   -3.8838 H   0  0  0  0  0  0  0  0  0  0  0  0
   11.9183  -12.8694   -4.0086 H   0  0  0  0  0  0  0  0  0  0  0  0
    9.8734  -13.1828   -2.6117 H   0  0  0  0  0  0  0  0  0  0  0  0
    8.3840  -10.4450    0.2180 H   0  0  0  0  0  0  0  0  0  0  0  0
    7.5600  -11.1825   -2.9326 H   0  0  0  0  0  0  0  0  0  0  0  0
    5.2627  -11.6142   -3.8094 H   0  0  0  0  0  0  0  0  0  0  0  0
    2.0269  -10.4785   -0.8968 H   0  0  0  0  0  0  0  0  0  0  0  0
    0.4337   -9.5093    0.8223 H   0  0  0  0  0  0  0  0  0  0  0  0
   -2.5819  -12.0487    2.6133 H   0  0  0  0  0  0  0  0  0  0  0  0
   -1.7490  -13.9893    1.2671 H   0  0  0  0  0  0  0  0  0  0  0  0
    3.9057  -12.5344    0.1992 H   0  0  0  0  0  0  0  0  0  0  0  0
    6.2086  -12.1118    1.0676 H   0  0  0  0  0  0  0  0  0  0  0  0
   11.9288  -11.4413    0.7778 H   0  0  0  0  0  0  0  0  0  0  0  0
   13.9595  -11.0992   -0.6294 H   0  0  0  0  0  0  0  0  0  0  0  0
  1  2  1  0
  2  3  2  0
  3  4  1  0
  4  5  2  0
  5  6  1  0
  6  7  2  0
  6  8  2  0
  6  9  1  0
  9 10  1  0
 10 11  2  0
 11 12  1  0
 12 13  2  0
 13 14  1  0
 14 15  2  0
 14 16  1  0
 16 17  2  0
 17 18  1  0
 18 19  2  0
 19 20  1  0
 20 21  1  0
 20 22  2  0
 22 23  1  0
 23 24  2  0
 24 25  1  0
 25 26  1  0
 26 27  2  0
 13 28  1  0
 28 29  2  0
  5 30  1  0
 30 31  2  0
 31  2  1  0
 29 10  1  0
 26 16  1  0
 24 18  1  0
  1 32  1  0
  1 33  1  0
  1 34  1  0
  3 35  1  0
  4 36  1  0
  9 37  1  0
 11 38  1  0
 12 39  1  0
 17 40  1  0
 19 41  1  0
 22 42  1  0
 23 43  1  0
 28 44  1  0
 29 45  1  0
 30 46  1  0
 31 47  1  0
M  END
>  <meeko>  (3) 
{"is_sidechain": [false], "free_energy": -8.812, "intermolecular_energy": -11.155, "internal_energy": -0.703}

$$$$
LIB_ZQZFLTKUUCYGRL__M_PUB_ALL__e8__s20260927
     RDKit          3D

 47 50  0  0  0  0  0  0  0  0999 V2000
   13.4420   -9.5370    0.5590 C   0  0  0  0  0  0  0  0  0  0  0  0
   12.6900  -10.7460    0.0830 C   0  0  0  0  0  0  0  0  0  0  0  0
   11.5890  -11.2260    0.8050 C   0  0  0  0  0  0  0  0  0  0  0  0
   10.8740  -12.3360    0.3510 C   0  0  0  0  0  0  0  0  0  0  0  0
   11.2610  -12.9650   -0.8350 C   0  0  0  0  0  0  0  0  0  0  0  0
   10.3580  -14.3850   -1.4100 S   0  0  0  0  0  0  0  0  0  0  0  0
   11.0350  -15.5750   -0.9400 O   0  0  0  0  0  0  0  0  0  0  0  0
   10.0800  -14.1890   -2.8180 O   0  0  0  0  0  0  0  0  0  0  0  0
    8.8650  -14.2370   -0.6200 N   0  0  0  0  0  0  0  0  0  0  0  0
    7.7100  -13.9440   -1.3960 C   0  0  0  0  0  0  0  0  0  0  0  0
    7.3770  -12.6110   -1.6440 C   0  0  0  0  0  0  0  0  0  0  0  0
    6.1990  -12.3040   -2.3260 C   0  0  0  0  0  0  0  0  0  0  0  0
    5.3460  -13.3310   -2.7480 C   0  0  0  0  0  0  0  0  0  0  0  0
    4.0950  -12.9620   -3.4530 C   0  0  0  0  0  0  0  0  0  0  0  0
    3.8910  -13.3970   -4.5830 O   0  0  0  0  0  0  0  0  0  0  0  0
    3.1060  -12.0860   -2.7670 C   0  0  0  0  0  0  0  0  0  0  0  0
    2.5430  -12.5910   -1.6570 C   0  0  0  0  0  0  0  0  0  0  0  0
    1.5650  -11.8150   -0.9120 C   0  0  0  0  0  0  0  0  0  0  0  0
    0.9600  -12.3000    0.2490 C   0  0  0  0  0  0  0  0  0  0  0  0
    0.0360  -11.5030    0.9300 C   0  0  0  0  0  0  0  0  0  0  0  0
   -0.7840  -12.1610    2.5030 Br  0  0  0  0  0  0  0  0  0  0  0  0
   -0.2900  -10.2280    0.4650 C   0  0  0  0  0  0  0  0  0  0  0  0
    0.3110   -9.7410   -0.6940 C   0  0  0  0  0  0  0  0  0  0  0  0
    1.2310  -10.5430   -1.3660 C   0  0  0  0  0  0  0  0  0  0  0  0
    1.8110  -10.0220   -2.5370 O   0  0  0  0  0  0  0  0  0  0  0  0
    2.7150  -10.7600   -3.2970 C   0  0  0  0  0  0  0  0  0  0  0  0
    3.1510  -10.3190   -4.3540 O   0  0  0  0  0  0  0  0  0  0  0  0
    5.7010  -14.6680   -2.5360 C   0  0  0  0  0  0  0  0  0  0  0  0
    6.8830  -14.9700   -1.8550 C   0  0  0  0  0  0  0  0  0  0  0  0
   12.3310  -12.4720   -1.5850 C   0  0  0  0  0  0  0  0  0  0  0  0
   13.0460  -11.3680   -1.1210 C   0  0  0  0  0  0  0  0  0  0  0  0
   13.4520   -9.5209    1.6588 H   0  0  0  0  0  0  0  0  0  0  0  0
   14.4752   -9.5765    0.1835 H   0  0  0  0  0  0  0  0  0  0  0  0
   12.9499   -8.6277    0.1835 H   0  0  0  0  0  0  0  0  0  0  0  0
   11.2859  -10.7247    1.7360 H   0  0  0  0  0  0  0  0  0  0  0  0
   10.0128  -12.7123    0.9226 H   0  0  0  0  0  0  0  0  0  0  0  0
    8.7740  -14.9220    0.1270 H   0  0  0  0  0  0  0  0  0  0  0  0
    8.0421  -11.8042   -1.3024 H   0  0  0  0  0  0  0  0  0  0  0  0
    5.9404  -11.2549   -2.5322 H   0  0  0  0  0  0  0  0  0  0  0  0
    2.8232  -13.5965   -1.3100 H   0  0  0  0  0  0  0  0  0  0  0  0
    1.2091  -13.3032    0.6253 H   0  0  0  0  0  0  0  0  0  0  0  0
   -1.0182   -9.6103    1.0111 H   0  0  0  0  0  0  0  0  0  0  0  0
    0.0628   -8.7385   -1.0727 H   0  0  0  0  0  0  0  0  0  0  0  0
    5.0527  -15.4770   -2.9037 H   0  0  0  0  0  0  0  0  0  0  0  0
    7.1625  -16.0194   -1.6802 H   0  0  0  0  0  0  0  0  0  0  0  0
   12.6081  -12.9513   -2.5355 H   0  0  0  0  0  0  0  0  0  0  0  0
   13.8953  -10.9829   -1.7044 H   0  0  0  0  0  0  0  0  0  0  0  0
  1  2  1  0
  2  3  2  0
  3  4  1  0
  4  5  2  0
  5  6  1  0
  6  7  2  0
  6  8  2  0
  6  9  1  0
  9 10  1  0
 10 11  2  0
 11 12  1  0
 12 13  2  0
 13 14  1  0
 14 15  2  0
 14 16  1  0
 16 17  2  0
 17 18  1  0
 18 19  2  0
 19 20  1  0
 20 21  1  0
 20 22  2  0
 22 23  1  0
 23 24  2  0
 24 25  1  0
 25 26  1  0
 26 27  2  0
 13 28  1  0
 28 29  2  0
  5 30  1  0
 30 31  2  0
 31  2  1  0
 29 10  1  0
 26 16  1  0
 24 18  1  0
  1 32  1  0
  1 33  1  0
  1 34  1  0
  3 35  1  0
  4 36  1  0
  9 37  1  0
 11 38  1  0
 12 39  1  0
 17 40  1  0
 19 41  1  0
 22 42  1  0
 23 43  1  0
 28 44  1  0
 29 45  1  0
 30 46  1  0
 31 47  1  0
M  END
>  <meeko>  (4) 
{"is_sidechain": [false], "free_energy": -8.612, "intermolecular_energy": -10.636, "internal_energy": -0.965}

$$$$
LIB_ZQZFLTKUUCYGRL__M_PUB_ALL__e8__s20260927
     RDKit          3D

 47 50  0  0  0  0  0  0  0  0999 V2000
   -6.6500  -14.3420    4.3480 C   0  0  0  0  0  0  0  0  0  0  0  0
   -6.4470  -14.9550    5.7040 C   0  0  0  0  0  0  0  0  0  0  0  0
   -6.5530  -14.1700    6.8600 C   0  0  0  0  0  0  0  0  0  0  0  0
   -6.3870  -14.7420    8.1230 C   0  0  0  0  0  0  0  0  0  0  0  0
   -6.1200  -16.1090    8.2280 C   0  0  0  0  0  0  0  0  0  0  0  0
   -5.8990  -16.8390    9.8350 S   0  0  0  0  0  0  0  0  0  0  0  0
   -5.2260  -15.8780   10.6820 O   0  0  0  0  0  0  0  0  0  0  0  0
   -5.3640  -18.1710    9.6420 O   0  0  0  0  0  0  0  0  0  0  0  0
   -7.4900  -17.0550   10.3800 N   0  0  0  0  0  0  0  0  0  0  0  0
   -8.3620  -17.8860    9.6240 C   0  0  0  0  0  0  0  0  0  0  0  0
   -9.4320  -17.3050    8.9400 C   0  0  0  0  0  0  0  0  0  0  0  0
  -10.3490  -18.1150    8.2680 C   0  0  0  0  0  0  0  0  0  0  0  0
  -10.2040  -19.5080    8.2930 C   0  0  0  0  0  0  0  0  0  0  0  0
  -11.2100  -20.3330    7.5830 C   0  0  0  0  0  0  0  0  0  0  0  0
  -11.7680  -19.8770    6.5880 O   0  0  0  0  0  0  0  0  0  0  0  0
  -11.5090  -21.7030    8.0820 C   0  0  0  0  0  0  0  0  0  0  0  0
  -12.3180  -21.7760    9.1520 C   0  0  0  0  0  0  0  0  0  0  0  0
  -12.6740  -23.0670    9.7160 C   0  0  0  0  0  0  0  0  0  0  0  0
  -13.5150  -23.1880   10.8240 C   0  0  0  0  0  0  0  0  0  0  0  0
  -13.8320  -24.4580   11.3150 C   0  0  0  0  0  0  0  0  0  0  0  0
  -14.9710  -24.6200   12.8160 Br  0  0  0  0  0  0  0  0  0  0  0  0
  -13.3190  -25.6070   10.7110 C   0  0  0  0  0  0  0  0  0  0  0  0
  -12.4790  -25.4900    9.6050 C   0  0  0  0  0  0  0  0  0  0  0  0
  -12.1680  -24.2210    9.1230 C   0  0  0  0  0  0  0  0  0  0  0  0
  -11.3110  -24.1410    8.0110 O   0  0  0  0  0  0  0  0  0  0  0  0
  -10.9150  -22.9170    7.4790 C   0  0  0  0  0  0  0  0  0  0  0  0
  -10.1070  -22.8660    6.5580 O   0  0  0  0  0  0  0  0  0  0  0  0
   -9.1080  -20.0860    8.9450 C   0  0  0  0  0  0  0  0  0  0  0  0
   -8.1910  -19.2710    9.6130 C   0  0  0  0  0  0  0  0  0  0  0  0
   -6.0530  -16.9110    7.0860 C   0  0  0  0  0  0  0  0  0  0  0  0
   -6.2100  -16.3300    5.8270 C   0  0  0  0  0  0  0  0  0  0  0  0
   -6.9939  -13.3035    4.4629 H   0  0  0  0  0  0  0  0  0  0  0  0
   -5.6998  -14.3544    3.7940 H   0  0  0  0  0  0  0  0  0  0  0  0
   -7.4050  -14.9191    3.7940 H   0  0  0  0  0  0  0  0  0  0  0  0
   -6.7686  -13.0950    6.7718 H   0  0  0  0  0  0  0  0  0  0  0  0
   -6.4658  -14.1212    9.0277 H   0  0  0  0  0  0  0  0  0  0  0  0
   -7.5250  -17.1280   11.3950 H   0  0  0  0  0  0  0  0  0  0  0  0
   -9.5519  -16.2116    8.9308 H   0  0  0  0  0  0  0  0  0  0  0  0
  -11.1859  -17.6592    7.7186 H   0  0  0  0  0  0  0  0  0  0  0  0
  -12.7129  -20.8539    9.6034 H   0  0  0  0  0  0  0  0  0  0  0  0
  -13.9257  -22.2894   11.3077 H   0  0  0  0  0  0  0  0  0  0  0  0
  -13.5766  -26.6007   11.1062 H   0  0  0  0  0  0  0  0  0  0  0  0
  -12.0675  -26.3873    9.1197 H   0  0  0  0  0  0  0  0  0  0  0  0
   -8.9696  -21.1772    8.9313 H   0  0  0  0  0  0  0  0  0  0  0  0
   -7.3321  -19.7220   10.1316 H   0  0  0  0  0  0  0  0  0  0  0  0
   -5.8777  -17.9930    7.1786 H   0  0  0  0  0  0  0  0  0  0  0  0
   -6.1472  -16.9562    4.9248 H   0  0  0  0  0  0  0  0  0  0  0  0
  1  2  1  0
  2  3  2  0
  3  4  1  0
  4  5  2  0
  5  6  1  0
  6  7  2  0
  6  8  2  0
  6  9  1  0
  9 10  1  0
 10 11  2  0
 11 12  1  0
 12 13  2  0
 13 14  1  0
 14 15  2  0
 14 16  1  0
 16 17  2  0
 17 18  1  0
 18 19  2  0
 19 20  1  0
 20 21  1  0
 20 22  2  0
 22 23  1  0
 23 24  2  0
 24 25  1  0
 25 26  1  0
 26 27  2  0
 13 28  1  0
 28 29  2  0
  5 30  1  0
 30 31  2  0
 31  2  1  0
 29 10  1  0
 26 16  1  0
 24 18  1  0
  1 32  1  0
  1 33  1  0
  1 34  1  0
  3 35  1  0
  4 36  1  0
  9 37  1  0
 11 38  1  0
 12 39  1  0
 17 40  1  0
 19 41  1  0
 22 42  1  0
 23 43  1  0
 28 44  1  0
 29 45  1  0
 30 46  1  0
 31 47  1  0
M  END
>  <meeko>  (5) 
{"is_sidechain": [false], "free_energy": -8.545, "intermolecular_energy": -10.468, "internal_energy": -1.045}

$$$$
LIB_ZQZFLTKUUCYGRL__M_PUB_ALL__e8__s20260927
     RDKit          3D

 47 50  0  0  0  0  0  0  0  0999 V2000
   18.1880  -18.8190    8.6410 C   0  0  0  0  0  0  0  0  0  0  0  0
   17.8260  -18.9260   10.0940 C   0  0  0  0  0  0  0  0  0  0  0  0
   18.0170  -17.8370   10.9550 C   0  0  0  0  0  0  0  0  0  0  0  0
   17.6580  -17.9270   12.3020 C   0  0  0  0  0  0  0  0  0  0  0  0
   17.1000  -19.1120   12.7860 C   0  0  0  0  0  0  0  0  0  0  0  0
   16.6520  -19.2330   14.5030 S   0  0  0  0  0  0  0  0  0  0  0  0
   17.2170  -18.0970   15.2010 O   0  0  0  0  0  0  0  0  0  0  0  0
   16.9250  -20.5880   14.9350 O   0  0  0  0  0  0  0  0  0  0  0  0
   14.9620  -19.0900   14.4700 N   0  0  0  0  0  0  0  0  0  0  0  0
   14.3820  -18.0650   13.6750 C   0  0  0  0  0  0  0  0  0  0  0  0
   14.5470  -16.7320   14.0560 C   0  0  0  0  0  0  0  0  0  0  0  0
   13.9080  -15.7190   13.3390 C   0  0  0  0  0  0  0  0  0  0  0  0
   13.0920  -16.0420   12.2470 C   0  0  0  0  0  0  0  0  0  0  0  0
   12.4160  -14.9390   11.5230 C   0  0  0  0  0  0  0  0  0  0  0  0
   11.8940  -15.1640   10.4340 O   0  0  0  0  0  0  0  0  0  0  0  0
   12.3700  -13.5850   12.1410 C   0  0  0  0  0  0  0  0  0  0  0  0
   13.3050  -12.7150   11.7230 C   0  0  0  0  0  0  0  0  0  0  0  0
   13.3460  -11.3660   12.2620 C   0  0  0  0  0  0  0  0  0  0  0  0
   14.2970  -10.4300   11.8510 C   0  0  0  0  0  0  0  0  0  0  0  0
   14.2790   -9.1430   12.3970 C   0  0  0  0  0  0  0  0  0  0  0  0
   15.5680   -7.8760   11.8400 Br  0  0  0  0  0  0  0  0  0  0  0  0
   13.3220   -8.7810   13.3460 C   0  0  0  0  0  0  0  0  0  0  0  0
   12.3710   -9.7140   13.7580 C   0  0  0  0  0  0  0  0  0  0  0  0
   12.3970  -10.9940   13.2100 C   0  0  0  0  0  0  0  0  0  0  0  0
   11.4280  -11.9100   13.6560 O   0  0  0  0  0  0  0  0  0  0  0  0
   11.3940  -13.2230   13.1930 C   0  0  0  0  0  0  0  0  0  0  0  0
   10.5900  -14.0280   13.6500 O   0  0  0  0  0  0  0  0  0  0  0  0
   12.9610  -17.3750   11.8410 C   0  0  0  0  0  0  0  0  0  0  0  0
   13.6050  -18.3840   12.5610 C   0  0  0  0  0  0  0  0  0  0  0  0
   16.8670  -20.1900   11.9300 C   0  0  0  0  0  0  0  0  0  0  0  0
   17.2360  -20.0970   10.5880 C   0  0  0  0  0  0  0  0  0  0  0  0
   19.2390  -18.5083    8.5469 H   0  0  0  0  0  0  0  0  0  0  0  0
   18.0497  -19.7964    8.1557 H   0  0  0  0  0  0  0  0  0  0  0  0
   17.5405  -18.0738    8.1557 H   0  0  0  0  0  0  0  0  0  0  0  0
   18.4528  -16.9044   10.5673 H   0  0  0  0  0  0  0  0  0  0  0  0
   17.8136  -17.0715   12.9758 H   0  0  0  0  0  0  0  0  0  0  0  0
   14.5150  -20.0050   14.4680 H   0  0  0  0  0  0  0  0  0  0  0  0
   15.1796  -16.4804   14.9200 H   0  0  0  0  0  0  0  0  0  0  0  0
   14.0451  -14.6675   13.6313 H   0  0  0  0  0  0  0  0  0  0  0  0
   14.0432  -13.0256   10.9689 H   0  0  0  0  0  0  0  0  0  0  0  0
   15.0554  -10.7033   11.1026 H   0  0  0  0  0  0  0  0  0  0  0  0
   13.3178   -7.7647   13.7670 H   0  0  0  0  0  0  0  0  0  0  0  0
   11.6109   -9.4427   14.5054 H   0  0  0  0  0  0  0  0  0  0  0  0
   12.3538  -17.6269   10.9591 H   0  0  0  0  0  0  0  0  0  0  0  0
   13.4992  -19.4334   12.2487 H   0  0  0  0  0  0  0  0  0  0  0  0
   16.3951  -21.1074   12.3116 H   0  0  0  0  0  0  0  0  0  0  0  0
   17.0627  -20.9483    9.9133 H   0  0  0  0  0  0  0  0  0  0  0  0
  1  2  1  0
  2  3  2  0
  3  4  1  0
  4  5  2  0
  5  6  1  0
  6  7  2  0
  6  8  2  0
  6  9  1  0
  9 10  1  0
 10 11  2  0
 11 12  1  0
 12 13  2  0
 13 14  1  0
 14 15  2  0
 14 16  1  0
 16 17  2  0
 17 18  1  0
 18 19  2  0
 19 20  1  0
 20 21  1  0
 20 22  2  0
 22 23  1  0
 23 24  2  0
 24 25  1  0
 25 26  1  0
 26 27  2  0
 13 28  1  0
 28 29  2  0
  5 30  1  0
 30 31  2  0
 31  2  1  0
 29 10  1  0
 26 16  1  0
 24 18  1  0
  1 32  1  0
  1 33  1  0
  1 34  1  0
  3 35  1  0
  4 36  1  0
  9 37  1  0
 11 38  1  0
 12 39  1  0
 17 40  1  0
 19 41  1  0
 22 42  1  0
 23 43  1  0
 28 44  1  0
 29 45  1  0
 30 46  1  0
 31 47  1  0
M  END
>  <meeko>  (6) 
{"is_sidechain": [false], "free_energy": -8.532, "intermolecular_energy": -10.379, "internal_energy": -1.118}

$$$$
LIB_ZQZFLTKUUCYGRL__M_PUB_ALL__e8__s20260927
     RDKit          3D

 47 50  0  0  0  0  0  0  0  0999 V2000
   14.1210  -10.2540    0.4420 C   0  0  0  0  0  0  0  0  0  0  0  0
   13.0550  -11.0060   -0.3010 C   0  0  0  0  0  0  0  0  0  0  0  0
   13.2430  -11.3640   -1.6430 C   0  0  0  0  0  0  0  0  0  0  0  0
   12.2620  -12.0840   -2.3290 C   0  0  0  0  0  0  0  0  0  0  0  0
   11.0890  -12.4510   -1.6650 C   0  0  0  0  0  0  0  0  0  0  0  0
    9.8340  -13.3590   -2.5380 S   0  0  0  0  0  0  0  0  0  0  0  0
    8.9360  -13.9450   -1.5650 O   0  0  0  0  0  0  0  0  0  0  0  0
   10.4950  -14.1770   -3.5330 O   0  0  0  0  0  0  0  0  0  0  0  0
    9.0160  -12.1500   -3.4020 N   0  0  0  0  0  0  0  0  0  0  0  0
    7.5960  -12.1210   -3.3520 C   0  0  0  0  0  0  0  0  0  0  0  0
    6.8660  -12.7970   -4.3320 C   0  0  0  0  0  0  0  0  0  0  0  0
    5.4730  -12.7030   -4.3500 C   0  0  0  0  0  0  0  0  0  0  0  0
    4.8120  -11.9200   -3.3970 C   0  0  0  0  0  0  0  0  0  0  0  0
    3.3340  -11.8310   -3.4620 C   0  0  0  0  0  0  0  0  0  0  0  0
    2.7980  -11.4730   -4.5080 O   0  0  0  0  0  0  0  0  0  0  0  0
    2.5300  -12.1950   -2.2630 C   0  0  0  0  0  0  0  0  0  0  0  0
    1.8790  -11.1850   -1.6620 C   0  0  0  0  0  0  0  0  0  0  0  0
    1.0640  -11.4340   -0.4850 C   0  0  0  0  0  0  0  0  0  0  0  0
    0.3670  -10.4140    0.1670 C   0  0  0  0  0  0  0  0  0  0  0  0
   -0.4100  -10.7170    1.2880 C   0  0  0  0  0  0  0  0  0  0  0  0
   -1.3530   -9.3340    2.1700 Br  0  0  0  0  0  0  0  0  0  0  0  0
   -0.5000  -12.0250    1.7650 C   0  0  0  0  0  0  0  0  0  0  0  0
    0.1950  -13.0460    1.1170 C   0  0  0  0  0  0  0  0  0  0  0  0
    0.9670  -12.7350    0.0010 C   0  0  0  0  0  0  0  0  0  0  0  0
    1.6610  -13.7880   -0.6210 O   0  0  0  0  0  0  0  0  0  0  0  0
    2.4860  -13.5720   -1.7220 C   0  0  0  0  0  0  0  0  0  0  0  0
    3.1420  -14.4890   -2.2030 O   0  0  0  0  0  0  0  0  0  0  0  0
    5.5420  -11.2760   -2.3910 C   0  0  0  0  0  0  0  0  0  0  0  0
    6.9350  -11.3760   -2.3750 C   0  0  0  0  0  0  0  0  0  0  0  0
   10.9070  -12.1360   -0.3160 C   0  0  0  0  0  0  0  0  0  0  0  0
   11.8870  -11.4090    0.3600 C   0  0  0  0  0  0  0  0  0  0  0  0
   13.9619  -10.3662    1.5246 H   0  0  0  0  0  0  0  0  0  0  0  0
   15.1088  -10.6563    0.1729 H   0  0  0  0  0  0  0  0  0  0  0  0
   14.0733   -9.1885    0.1729 H   0  0  0  0  0  0  0  0  0  0  0  0
   14.1702  -11.0758   -2.1600 H   0  0  0  0  0  0  0  0  0  0  0  0
   12.4119  -12.3597   -3.3833 H   0  0  0  0  0  0  0  0  0  0  0  0
    9.5130  -11.2630   -3.3540 H   0  0  0  0  0  0  0  0  0  0  0  0
    7.3873  -13.4023   -5.0882 H   0  0  0  0  0  0  0  0  0  0  0  0
    4.8951  -13.2445   -5.1134 H   0  0  0  0  0  0  0  0  0  0  0  0
    1.9634  -10.1642   -2.0630 H   0  0  0  0  0  0  0  0  0  0  0  0
    0.4295   -9.3788   -0.1998 H   0  0  0  0  0  0  0  0  0  0  0  0
   -1.1162  -12.2500    2.6480 H   0  0  0  0  0  0  0  0  0  0  0  0
    0.1340  -14.0818    1.4824 H   0  0  0  0  0  0  0  0  0  0  0  0
    5.0209  -10.6939   -1.6167 H   0  0  0  0  0  0  0  0  0  0  0  0
    7.5125  -10.8660   -1.5899 H   0  0  0  0  0  0  0  0  0  0  0  0
    9.9965  -12.4593    0.2098 H   0  0  0  0  0  0  0  0  0  0  0  0
   11.7419  -11.1503    1.4193 H   0  0  0  0  0  0  0  0  0  0  0  0
  1  2  1  0
  2  3  2  0
  3  4  1  0
  4  5  2  0
  5  6  1  0
  6  7  2  0
  6  8  2  0
  6  9  1  0
  9 10  1  0
 10 11  2  0
 11 12  1  0
 12 13  2  0
 13 14  1  0
 14 15  2  0
 14 16  1  0
 16 17  2  0
 17 18  1  0
 18 19  2  0
 19 20  1  0
 20 21  1  0
 20 22  2  0
 22 23  1  0
 23 24  2  0
 24 25  1  0
 25 26  1  0
 26 27  2  0
 13 28  1  0
 28 29  2  0
  5 30  1  0
 30 31  2  0
 31  2  1  0
 29 10  1  0
 26 16  1  0
 24 18  1  0
  1 32  1  0
  1 33  1  0
  1 34  1  0
  3 35  1  0
  4 36  1  0
  9 37  1  0
 11 38  1  0
 12 39  1  0
 17 40  1  0
 19 41  1  0
 22 42  1  0
 23 43  1  0
 28 44  1  0
 29 45  1  0
 30 46  1  0
 31 47  1  0
M  END
>  <meeko>  (7) 
{"is_sidechain": [false], "free_energy": -8.489, "intermolecular_energy": -10.593, "internal_energy": -0.848}

$$$$
LIB_ZQZFLTKUUCYGRL__M_PUB_ALL__e8__s20260927
     RDKit          3D

 47 50  0  0  0  0  0  0  0  0999 V2000
   -1.5650   -9.1700    3.1180 C   0  0  0  0  0  0  0  0  0  0  0  0
   -1.7320  -10.5110    2.4640 C   0  0  0  0  0  0  0  0  0  0  0  0
   -1.9350  -10.6060    1.0810 C   0  0  0  0  0  0  0  0  0  0  0  0
   -2.0660  -11.8540    0.4680 C   0  0  0  0  0  0  0  0  0  0  0  0
   -1.9880  -13.0120    1.2440 C   0  0  0  0  0  0  0  0  0  0  0  0
   -2.1650  -14.6030    0.4670 S   0  0  0  0  0  0  0  0  0  0  0  0
   -2.5440  -14.3940   -0.9140 O   0  0  0  0  0  0  0  0  0  0  0  0
   -2.9630  -15.4340    1.3450 O   0  0  0  0  0  0  0  0  0  0  0  0
   -0.5940  -15.2380    0.5310 N   0  0  0  0  0  0  0  0  0  0  0  0
    0.4860  -14.4290    0.0830 C   0  0  0  0  0  0  0  0  0  0  0  0
    0.7700  -14.3700   -1.2830 C   0  0  0  0  0  0  0  0  0  0  0  0
    1.8820  -13.6530   -1.7300 C   0  0  0  0  0  0  0  0  0  0  0  0
    2.7170  -13.0080   -0.8100 C   0  0  0  0  0  0  0  0  0  0  0  0
    3.8970  -12.2740   -1.3240 C   0  0  0  0  0  0  0  0  0  0  0  0
    4.7030  -11.7970   -0.5290 O   0  0  0  0  0  0  0  0  0  0  0  0
    4.0890  -12.1450   -2.7940 C   0  0  0  0  0  0  0  0  0  0  0  0
    4.9290  -13.0290   -3.3580 C   0  0  0  0  0  0  0  0  0  0  0  0
    5.1840  -12.9910   -4.7880 C   0  0  0  0  0  0  0  0  0  0  0  0
    6.0460  -13.8940   -5.4140 C   0  0  0  0  0  0  0  0  0  0  0  0
    6.2420  -13.8160   -6.7960 C   0  0  0  0  0  0  0  0  0  0  0  0
    7.4100  -15.0400   -7.6430 Br  0  0  0  0  0  0  0  0  0  0  0  0
    5.5880  -12.8470   -7.5580 C   0  0  0  0  0  0  0  0  0  0  0  0
    4.7280  -11.9440   -6.9360 C   0  0  0  0  0  0  0  0  0  0  0  0
    4.5390  -12.0290   -5.5590 C   0  0  0  0  0  0  0  0  0  0  0  0
    3.6700  -11.0950   -4.9650 O   0  0  0  0  0  0  0  0  0  0  0  0
    3.4430  -11.0780   -3.5910 C   0  0  0  0  0  0  0  0  0  0  0  0
    2.7430  -10.2090   -3.0830 O   0  0  0  0  0  0  0  0  0  0  0  0
    2.4060  -13.0340    0.5550 C   0  0  0  0  0  0  0  0  0  0  0  0
    1.2910  -13.7500    0.9980 C   0  0  0  0  0  0  0  0  0  0  0  0
   -1.7450  -12.9330    2.6170 C   0  0  0  0  0  0  0  0  0  0  0  0
   -1.6240  -11.6830    3.2240 C   0  0  0  0  0  0  0  0  0  0  0  0
   -1.5800   -9.2908    4.2112 H   0  0  0  0  0  0  0  0  0  0  0  0
   -0.6050   -8.7293    2.8110 H   0  0  0  0  0  0  0  0  0  0  0  0
   -2.3876   -8.5073    2.8110 H   0  0  0  0  0  0  0  0  0  0  0  0
   -1.9916   -9.6908    0.4734 H   0  0  0  0  0  0  0  0  0  0  0  0
   -2.2293  -11.9240   -0.6175 H   0  0  0  0  0  0  0  0  0  0  0  0
   -0.4550  -15.7940    1.3720 H   0  0  0  0  0  0  0  0  0  0  0  0
    0.1200  -14.8866   -2.0046 H   0  0  0  0  0  0  0  0  0  0  0  0
    2.1020  -13.5950   -2.8062 H   0  0  0  0  0  0  0  0  0  0  0  0
    5.4265  -13.7858   -2.7337 H   0  0  0  0  0  0  0  0  0  0  0  0
    6.5674  -14.6617   -4.8235 H   0  0  0  0  0  0  0  0  0  0  0  0
    5.7506  -12.7962   -8.6447 H   0  0  0  0  0  0  0  0  0  0  0  0
    4.2059  -11.1751   -7.5243 H   0  0  0  0  0  0  0  0  0  0  0  0
    3.0369  -12.4930    1.2756 H   0  0  0  0  0  0  0  0  0  0  0  0
    1.0474  -13.7784    2.0703 H   0  0  0  0  0  0  0  0  0  0  0  0
   -1.6496  -13.8507    3.2159 H   0  0  0  0  0  0  0  0  0  0  0  0
   -1.4425  -11.6170    4.3069 H   0  0  0  0  0  0  0  0  0  0  0  0
  1  2  1  0
  2  3  2  0
  3  4  1  0
  4  5  2  0
  5  6  1  0
  6  7  2  0
  6  8  2  0
  6  9  1  0
  9 10  1  0
 10 11  2  0
 11 12  1  0
 12 13  2  0
 13 14  1  0
 14 15  2  0
 14 16  1  0
 16 17  2  0
 17 18  1  0
 18 19  2  0
 19 20  1  0
 20 21  1  0
 20 22  2  0
 22 23  1  0
 23 24  2  0
 24 25  1  0
 25 26  1  0
 26 27  2  0
 13 28  1  0
 28 29  2  0
  5 30  1  0
 30 31  2  0
 31  2  1  0
 29 10  1  0
 26 16  1  0
 24 18  1  0
  1 32  1  0
  1 33  1  0
  1 34  1  0
  3 35  1  0
  4 36  1  0
  9 37  1  0
 11 38  1  0
 12 39  1  0
 17 40  1  0
 19 41  1  0
 22 42  1  0
 23 43  1  0
 28 44  1  0
 29 45  1  0
 30 46  1  0
 31 47  1  0
M  END
>  <meeko>  (8) 
{"is_sidechain": [false], "free_energy": -8.363, "intermolecular_energy": -10.161, "internal_energy": -1.117}

$$$$
LIB_ZQZFLTKUUCYGRL__M_PUB_ALL__e8__s20260927
     RDKit          3D

 47 50  0  0  0  0  0  0  0  0999 V2000
   13.5270  -14.5230   -5.8970 C   0  0  0  0  0  0  0  0  0  0  0  0
   13.1240  -14.0310   -4.5370 C   0  0  0  0  0  0  0  0  0  0  0  0
   12.6180  -14.9230   -3.5820 C   0  0  0  0  0  0  0  0  0  0  0  0
   12.2640  -14.4720   -2.3090 C   0  0  0  0  0  0  0  0  0  0  0  0
   12.4230  -13.1220   -1.9890 C   0  0  0  0  0  0  0  0  0  0  0  0
   11.9640  -12.5420   -0.3720 S   0  0  0  0  0  0  0  0  0  0  0  0
   12.8920  -11.5020    0.0190 O   0  0  0  0  0  0  0  0  0  0  0  0
   11.7460  -13.7040    0.4660 O   0  0  0  0  0  0  0  0  0  0  0  0
   10.4310  -11.8630   -0.6270 N   0  0  0  0  0  0  0  0  0  0  0  0
    9.4950  -12.5770   -1.4250 C   0  0  0  0  0  0  0  0  0  0  0  0
    9.3180  -12.2080   -2.7600 C   0  0  0  0  0  0  0  0  0  0  0  0
    8.3390  -12.8380   -3.5300 C   0  0  0  0  0  0  0  0  0  0  0  0
    7.5270  -13.8260   -2.9600 C   0  0  0  0  0  0  0  0  0  0  0  0
    6.4870  -14.4570   -3.8070 C   0  0  0  0  0  0  0  0  0  0  0  0
    5.3200  -14.4640   -3.4230 O   0  0  0  0  0  0  0  0  0  0  0  0
    6.8770  -15.0540   -5.1140 C   0  0  0  0  0  0  0  0  0  0  0  0
    6.6980  -14.2760   -6.1940 C   0  0  0  0  0  0  0  0  0  0  0  0
    7.0490  -14.7640   -7.5170 C   0  0  0  0  0  0  0  0  0  0  0  0
    6.8830  -13.9860   -8.6640 C   0  0  0  0  0  0  0  0  0  0  0  0
    7.2500  -14.5050   -9.9090 C   0  0  0  0  0  0  0  0  0  0  0  0
    7.0250  -13.4500  -11.4630 Br  0  0  0  0  0  0  0  0  0  0  0  0
    7.7810  -15.7910  -10.0200 C   0  0  0  0  0  0  0  0  0  0  0  0
    7.9470  -16.5700   -8.8770 C   0  0  0  0  0  0  0  0  0  0  0  0
    7.5780  -16.0450   -7.6410 C   0  0  0  0  0  0  0  0  0  0  0  0
    7.7520  -16.8630   -6.5100 O   0  0  0  0  0  0  0  0  0  0  0  0
    7.3810  -16.4410   -5.2360 C   0  0  0  0  0  0  0  0  0  0  0  0
    7.4700  -17.1970   -4.2750 O   0  0  0  0  0  0  0  0  0  0  0  0
    7.7340  -14.2230   -1.6340 C   0  0  0  0  0  0  0  0  0  0  0  0
    8.7170  -13.5920   -0.8680 C   0  0  0  0  0  0  0  0  0  0  0  0
   12.9640  -12.2300   -2.9180 C   0  0  0  0  0  0  0  0  0  0  0  0
   13.3070  -12.6860   -4.1910 C   0  0  0  0  0  0  0  0  0  0  0  0
   14.2207  -15.3699   -5.7898 H   0  0  0  0  0  0  0  0  0  0  0  0
   12.6330  -14.8489   -6.4488 H   0  0  0  0  0  0  0  0  0  0  0  0
   14.0226  -13.7107   -6.4488 H   0  0  0  0  0  0  0  0  0  0  0  0
   12.4988  -15.9863   -3.8372 H   0  0  0  0  0  0  0  0  0  0  0  0
   11.8629  -15.1747   -1.5638 H   0  0  0  0  0  0  0  0  0  0  0  0
   10.0880  -11.4030    0.2130 H   0  0  0  0  0  0  0  0  0  0  0  0
    9.9482  -11.4231   -3.2036 H   0  0  0  0  0  0  0  0  0  0  0  0
    8.2053  -12.5581   -4.5854 H   0  0  0  0  0  0  0  0  0  0  0  0
    6.2835  -13.2639   -6.0765 H   0  0  0  0  0  0  0  0  0  0  0  0
    6.4660  -12.9709   -8.5887 H   0  0  0  0  0  0  0  0  0  0  0  0
    8.0671  -16.1876  -11.0053 H   0  0  0  0  0  0  0  0  0  0  0  0
    8.3637  -17.5854   -8.9497 H   0  0  0  0  0  0  0  0  0  0  0  0
    7.1253  -15.0283   -1.1970 H   0  0  0  0  0  0  0  0  0  0  0  0
    8.8779  -13.8962    0.1768 H   0  0  0  0  0  0  0  0  0  0  0  0
   13.1185  -11.1750   -2.6476 H   0  0  0  0  0  0  0  0  0  0  0  0
   13.7241  -11.9844   -4.9283 H   0  0  0  0  0  0  0  0  0  0  0  0
  1  2  1  0
  2  3  2  0
  3  4  1  0
  4  5  2  0
  5  6  1  0
  6  7  2  0
  6  8  2  0
  6  9  1  0
  9 10  1  0
 10 11  2  0
 11 12  1  0
 12 13  2  0
 13 14  1  0
 14 15  2  0
 14 16  1  0
 16 17  2  0
 17 18  1  0
 18 19  2  0
 19 20  1  0
 20 21  1  0
 20 22  2  0
 22 23  1  0
 23 24  2  0
 24 25  1  0
 25 26  1  0
 26 27  2  0
 13 28  1  0
 28 29  2  0
  5 30  1  0
 30 31  2  0
 31  2  1  0
 29 10  1  0
 26 16  1  0
 24 18  1  0
  1 32  1  0
  1 33  1  0
  1 34  1  0
  3 35  1  0
  4 36  1  0
  9 37  1  0
 11 38  1  0
 12 39  1  0
 17 40  1  0
 19 41  1  0
 22 42  1  0
 23 43  1  0
 28 44  1  0
 29 45  1  0
 30 46  1  0
 31 47  1  0
M  END
>  <meeko>  (9) 
{"is_sidechain": [false], "free_energy": -8.268, "intermolecular_energy": -9.834, "internal_energy": -1.321}

$$$$
