LIB_XYIWCLMRECCCLF__M_PUB_ALL__e8__s20260927
     RDKit          3D

 75 79  0  0  0  0  0  0  0  0999 V2000
   -3.7080  -16.3270    4.8450 C   0  0  0  0  0  0  0  0  0  0  0  0
   -2.5970  -16.3200    3.8220 N   0  0  0  0  0  0  0  0  0  0  0  0
   -2.2410  -14.9450    3.4880 C   0  0  0  0  0  0  0  0  0  0  0  0
   -3.0250  -14.0590    2.7700 C   0  0  0  0  0  0  0  0  0  0  0  0
   -2.5220  -12.7740    2.5650 C   0  0  0  0  0  0  0  0  0  0  0  0
   -1.2630  -12.4280    3.0770 C   0  0  0  0  0  0  0  0  0  0  0  0
   -0.8210  -11.1120    2.9080 O   0  0  0  0  0  0  0  0  0  0  0  0
   -0.4240  -10.8490    1.5940 C   0  0  0  0  0  0  0  0  0  0  0  0
   -1.0350  -10.0990    0.8430 O   0  0  0  0  0  0  0  0  0  0  0  0
    0.7220  -11.5500    1.3360 N   0  0  0  0  0  0  0  0  0  0  0  0
    1.4730  -11.5810    0.1480 C   0  0  0  0  0  0  0  0  0  0  0  0
    1.0950  -10.9440   -1.0320 C   0  0  0  0  0  0  0  0  0  0  0  0
    1.9010  -11.0230   -2.1780 C   0  0  0  0  0  0  0  0  0  0  0  0
    3.1080  -11.7390   -2.1800 C   0  0  0  0  0  0  0  0  0  0  0  0
    4.0130  -11.8450   -3.4210 C   0  0  0  0  0  0  0  0  0  0  0  0
    3.8980  -13.2600   -4.0280 C   0  0  0  0  0  0  0  0  0  0  0  0
    5.5100  -11.5950   -3.1260 C   0  0  0  0  0  0  0  0  0  0  0  0
    3.5750  -10.8040   -4.4730 C   0  0  0  0  0  0  0  0  0  0  0  0
    3.4730  -12.3760   -0.9800 C   0  0  0  0  0  0  0  0  0  0  0  0
    2.6710  -12.2980    0.1630 C   0  0  0  0  0  0  0  0  0  0  0  0
   -0.4510  -13.3520    3.7420 C   0  0  0  0  0  0  0  0  0  0  0  0
   -0.9630  -14.6220    3.9480 C   0  0  0  0  0  0  0  0  0  0  0  0
   -0.3360  -15.7780    4.6690 C   0  0  2  0  0  0  0  0  0  0  0  0
   -0.2690  -15.5250    6.1770 C   0  0  0  0  0  0  0  0  0  0  0  0
    1.0170  -16.2220    4.0990 C   0  0  0  0  0  0  0  0  0  0  0  0
    0.8500  -17.7070    3.8430 C   0  0  0  0  0  0  0  0  0  0  0  0
   -0.5860  -17.8140    3.3310 N   0  0  0  0  0  0  0  0  0  0  0  0
   -0.6500  -17.5710    1.8210 C   0  0  0  0  0  0  0  0  0  0  0  0
    0.7580  -17.4590    1.2130 C   0  0  0  0  0  0  0  0  0  0  0  0
    0.8050  -16.5140    0.0420 C   0  0  0  0  0  0  0  0  0  0  0  0
   -0.2120  -15.5700   -0.1630 C   0  0  0  0  0  0  0  0  0  0  0  0
   -0.1250  -14.6620   -1.2180 C   0  0  0  0  0  0  0  0  0  0  0  0
    0.9700  -14.6920   -2.0800 C   0  0  0  0  0  0  0  0  0  0  0  0
    1.9710  -15.6450   -1.9030 C   0  0  0  0  0  0  0  0  0  0  0  0
    1.8880  -16.5570   -0.8520 C   0  0  0  0  0  0  0  0  0  0  0  0
   -1.3280  -16.9300    4.3090 C   0  0  2  0  0  0  0  0  0  0  0  0
   -3.2753  -16.3243    5.8563 H   0  0  0  0  0  0  0  0  0  0  0  0
   -4.3346  -15.4328    4.7119 H   0  0  0  0  0  0  0  0  0  0  0  0
   -4.3233  -17.2290    4.7119 H   0  0  0  0  0  0  0  0  0  0  0  0
   -2.9810  -16.7750    2.9910 H   0  0  0  0  0  0  0  0  0  0  0  0
   -4.0078  -14.3568    2.3758 H   0  0  0  0  0  0  0  0  0  0  0  0
   -3.1112  -12.0342    2.0033 H   0  0  0  0  0  0  0  0  0  0  0  0
    1.0590  -12.1160    2.1030 H   0  0  0  0  0  0  0  0  0  0  0  0
    0.1552  -10.3733   -1.0657 H   0  0  0  0  0  0  0  0  0  0  0  0
    1.5790  -10.5113   -3.0970 H   0  0  0  0  0  0  0  0  0  0  0  0
    3.8377  -14.0024   -3.2186 H   0  0  0  0  0  0  0  0  0  0  0  0
    2.9920  -13.3201   -4.6489 H   0  0  0  0  0  0  0  0  0  0  0  0
    4.7824  -13.4656   -4.6489 H   0  0  0  0  0  0  0  0  0  0  0  0
    5.6698  -11.5683   -2.0380 H   0  0  0  0  0  0  0  0  0  0  0  0
    6.1105  -12.4053   -3.5651 H   0  0  0  0  0  0  0  0  0  0  0  0
    5.8147  -10.6335   -3.5651 H   0  0  0  0  0  0  0  0  0  0  0  0
    3.1968   -9.9051   -3.9640 H   0  0  0  0  0  0  0  0  0  0  0  0
    4.4359  -10.5342   -5.1024 H   0  0  0  0  0  0  0  0  0  0  0  0
    2.7802  -11.2308   -5.1024 H   0  0  0  0  0  0  0  0  0  0  0  0
    4.4112  -12.9489   -0.9398 H   0  0  0  0  0  0  0  0  0  0  0  0
    2.9878  -12.8076    1.0849 H   0  0  0  0  0  0  0  0  0  0  0  0
    0.5570  -13.0801    4.0886 H   0  0  0  0  0  0  0  0  0  0  0  0
   -0.5145  -16.4522    6.7156 H   0  0  0  0  0  0  0  0  0  0  0  0
    0.7461  -15.2004    6.4496 H   0  0  0  0  0  0  0  0  0  0  0  0
   -0.9904  -14.7406    6.4496 H   0  0  0  0  0  0  0  0  0  0  0  0
    1.2390  -15.6883    3.1631 H   0  0  0  0  0  0  0  0  0  0  0  0
    1.8511  -16.0059    4.7828 H   0  0  0  0  0  0  0  0  0  0  0  0
    1.5659  -18.0597    3.0860 H   0  0  0  0  0  0  0  0  0  0  0  0
    1.0366  -18.3222    4.7356 H   0  0  0  0  0  0  0  0  0  0  0  0
   -0.8720  -18.7890    3.4970 H   0  0  0  0  0  0  0  0  0  0  0  0
   -1.1801  -18.4093    1.3453 H   0  0  0  0  0  0  0  0  0  0  0  0
   -1.1810  -16.6241    1.6439 H   0  0  0  0  0  0  0  0  0  0  0  0
    1.4493  -17.0958    1.9878 H   0  0  0  0  0  0  0  0  0  0  0  0
    1.0465  -18.4566    0.8502 H   0  0  0  0  0  0  0  0  0  0  0  0
   -1.0812  -15.5458    0.5107 H   0  0  0  0  0  0  0  0  0  0  0  0
   -0.9227  -13.9201   -1.3703 H   0  0  0  0  0  0  0  0  0  0  0  0
    1.0439  -13.9630   -2.9004 H   0  0  0  0  0  0  0  0  0  0  0  0
    2.8271  -15.6777   -2.5929 H   0  0  0  0  0  0  0  0  0  0  0  0
    2.6748  -17.3146   -0.7219 H   0  0  0  0  0  0  0  0  0  0  0  0
   -1.6380  -17.5671    5.1505 H   0  0  0  0  0  0  0  0  0  0  0  0
  1  2  1  0
  2  3  1  0
  3  4  2  0
  4  5  1  0
  5  6  2  0
  6  7  1  0
  7  8  1  0
  8  9  2  0
  8 10  1  0
 10 11  1  0
 11 12  2  0
 12 13  1  0
 13 14  2  0
 14 15  1  0
 15 16  1  0
 15 17  1  0
 15 18  1  0
 14 19  1  0
 19 20  2  0
  6 21  1  0
 21 22  2  0
 22 23  1  0
 23 24  1  1
 23 25  1  0
 25 26  1  0
 26 27  1  0
 27 28  1  0
 28 29  1  0
 29 30  1  0
 30 31  2  0
 31 32  1  0
 32 33  2  0
 33 34  1  0
 34 35  2  0
 27 36  1  0
 36  2  1  0
 22  3  1  0
 36 23  1  0
 20 11  1  0
 35 30  1  0
  1 37  1  0
  1 38  1  0
  1 39  1  0
  2 40  1  0
  4 41  1  0
  5 42  1  0
 10 43  1  0
 12 44  1  0
 13 45  1  0
 16 46  1  0
 16 47  1  0
 16 48  1  0
 17 49  1  0
 17 50  1  0
 17 51  1  0
 18 52  1  0
 18 53  1  0
 18 54  1  0
 19 55  1  0
 20 56  1  0
 21 57  1  0
 24 58  1  0
 24 59  1  0
 24 60  1  0
 25 61  1  0
 25 62  1  0
 26 63  1  0
 26 64  1  0
 27 65  1  0
 28 66  1  0
 28 67  1  0
 29 68  1  0
 29 69  1  0
 31 70  1  0
 32 71  1  0
 33 72  1  0
 34 73  1  0
 35 74  1  0
 36 75  1  1
M  CHG  2   2   1  27   1
M  END
>  <meeko>  (1) 
{"is_sidechain": [false], "free_energy": -8.0, "intermolecular_energy": -11.273, "internal_energy": -2.487}

$$$$
LIB_XYIWCLMRECCCLF__M_PUB_ALL__e8__s20260927
     RDKit          3D

 75 79  0  0  0  0  0  0  0  0999 V2000
   11.9930  -18.8850   12.0850 C   0  0  0  0  0  0  0  0  0  0  0  0
   13.1620  -17.9610   12.3250 N   0  0  0  0  0  0  0  0  0  0  0  0
   12.7030  -16.5760   12.3380 C   0  0  0  0  0  0  0  0  0  0  0  0
   12.2520  -15.8630   11.2410 C   0  0  0  0  0  0  0  0  0  0  0  0
   11.8340  -14.5490   11.4530 C   0  0  0  0  0  0  0  0  0  0  0  0
   11.8860  -14.0000   12.7430 C   0  0  0  0  0  0  0  0  0  0  0  0
   11.3980  -12.7030   12.9290 O   0  0  0  0  0  0  0  0  0  0  0  0
   12.3890  -11.8190   13.3630 C   0  0  0  0  0  0  0  0  0  0  0  0
   12.5730  -11.5400   14.5410 O   0  0  0  0  0  0  0  0  0  0  0  0
   13.0770  -11.3640   12.2720 N   0  0  0  0  0  0  0  0  0  0  0  0
   14.1570  -10.4640   12.2380 C   0  0  0  0  0  0  0  0  0  0  0  0
   15.4650  -10.8020   12.5780 C   0  0  0  0  0  0  0  0  0  0  0  0
   16.4900   -9.8440   12.5180 C   0  0  0  0  0  0  0  0  0  0  0  0
   16.2390   -8.5230   12.1170 C   0  0  0  0  0  0  0  0  0  0  0  0
   17.3400   -7.4500   12.0430 C   0  0  0  0  0  0  0  0  0  0  0  0
   17.4180   -6.6920   13.3860 C   0  0  0  0  0  0  0  0  0  0  0  0
   17.1120   -6.3960   10.9360 C   0  0  0  0  0  0  0  0  0  0  0  0
   18.7000   -8.1230   11.7600 C   0  0  0  0  0  0  0  0  0  0  0  0
   14.9120   -8.2010   11.7790 C   0  0  0  0  0  0  0  0  0  0  0  0
   13.8890   -9.1540   11.8380 C   0  0  0  0  0  0  0  0  0  0  0  0
   12.4070  -14.7080   13.8310 C   0  0  0  0  0  0  0  0  0  0  0  0
   12.8110  -16.0140   13.6120 C   0  0  0  0  0  0  0  0  0  0  0  0
   13.3510  -17.0050   14.5990 C   0  0  2  0  0  0  0  0  0  0  0  0
   12.2660  -17.4690   15.5730 C   0  0  0  0  0  0  0  0  0  0  0  0
   14.6210  -16.5460   15.3280 C   0  0  0  0  0  0  0  0  0  0  0  0
   15.6130  -17.6700   15.1030 C   0  0  0  0  0  0  0  0  0  0  0  0
   15.3310  -18.1020   13.6640 N   0  0  0  0  0  0  0  0  0  0  0  0
   16.1160  -17.2420   12.6690 C   0  0  0  0  0  0  0  0  0  0  0  0
   17.5190  -17.8190   12.4190 C   0  0  0  0  0  0  0  0  0  0  0  0
   17.6680  -18.3870   11.0320 C   0  0  0  0  0  0  0  0  0  0  0  0
   16.6420  -19.1470   10.4520 C   0  0  0  0  0  0  0  0  0  0  0  0
   16.7700  -19.6170    9.1450 C   0  0  0  0  0  0  0  0  0  0  0  0
   17.9220  -19.3400    8.4100 C   0  0  0  0  0  0  0  0  0  0  0  0
   18.9580  -18.6100    8.9870 C   0  0  0  0  0  0  0  0  0  0  0  0
   18.8380  -18.1400   10.2950 C   0  0  0  0  0  0  0  0  0  0  0  0
   13.8190  -18.1520   13.6480 C   0  0  2  0  0  0  0  0  0  0  0  0
   11.5796  -19.2117   13.0506 H   0  0  0  0  0  0  0  0  0  0  0  0
   11.2167  -18.3537   11.5147 H   0  0  0  0  0  0  0  0  0  0  0  0
   12.3306  -19.7630   11.5147 H   0  0  0  0  0  0  0  0  0  0  0  0
   13.7910  -18.0950   11.5300 H   0  0  0  0  0  0  0  0  0  0  0  0
   12.2241  -16.3156   10.2388 H   0  0  0  0  0  0  0  0  0  0  0  0
   11.4647  -13.9451   10.6111 H   0  0  0  0  0  0  0  0  0  0  0  0
   12.7550  -11.7230   11.3830 H   0  0  0  0  0  0  0  0  0  0  0  0
   15.6971  -11.8290   12.8965 H   0  0  0  0  0  0  0  0  0  0  0  0
   17.5145  -10.1362   12.7920 H   0  0  0  0  0  0  0  0  0  0  0  0
   17.3442   -7.4093   14.2167 H   0  0  0  0  0  0  0  0  0  0  0  0
   18.3761   -6.1553   13.4490 H   0  0  0  0  0  0  0  0  0  0  0  0
   16.5893   -5.9714   13.4490 H   0  0  0  0  0  0  0  0  0  0  0  0
   16.9008   -5.4199   11.3970 H   0  0  0  0  0  0  0  0  0  0  0  0
   18.0143   -6.3191   10.3115 H   0  0  0  0  0  0  0  0  0  0  0  0
   16.2586   -6.6989   10.3115 H   0  0  0  0  0  0  0  0  0  0  0  0
   19.1935   -8.3672   12.7123 H   0  0  0  0  0  0  0  0  0  0  0  0
   18.5395   -9.0457   11.1830 H   0  0  0  0  0  0  0  0  0  0  0  0
   19.3362   -7.4357   11.1830 H   0  0  0  0  0  0  0  0  0  0  0  0
   14.6728   -7.1756   11.4607 H   0  0  0  0  0  0  0  0  0  0  0  0
   12.8623   -8.8675   11.5661 H   0  0  0  0  0  0  0  0  0  0  0  0
   12.4926  -14.2440   14.8246 H   0  0  0  0  0  0  0  0  0  0  0  0
   12.6130  -17.3206   16.6062 H   0  0  0  0  0  0  0  0  0  0  0  0
   11.3493  -16.8842   15.4065 H   0  0  0  0  0  0  0  0  0  0  0  0
   12.0556  -18.5358   15.4065 H   0  0  0  0  0  0  0  0  0  0  0  0
   14.9963  -15.6045   14.9005 H   0  0  0  0  0  0  0  0  0  0  0  0
   14.4438  -16.3512   16.3960 H   0  0  0  0  0  0  0  0  0  0  0  0
   16.6471  -17.3111   15.2116 H   0  0  0  0  0  0  0  0  0  0  0  0
   15.5072  -18.4903   15.8282 H   0  0  0  0  0  0  0  0  0  0  0  0
   15.6860  -19.0650   13.5850 H   0  0  0  0  0  0  0  0  0  0  0  0
   15.5680  -17.2061   11.7159 H   0  0  0  0  0  0  0  0  0  0  0  0
   16.2255  -16.2327   13.0926 H   0  0  0  0  0  0  0  0  0  0  0  0
   18.2598  -17.0171   12.5537 H   0  0  0  0  0  0  0  0  0  0  0  0
   17.6769  -18.6385   13.1355 H   0  0  0  0  0  0  0  0  0  0  0  0
   15.7335  -19.3732   11.0295 H   0  0  0  0  0  0  0  0  0  0  0  0
   15.9598  -20.2079    8.6928 H   0  0  0  0  0  0  0  0  0  0  0  0
   18.0125  -19.6983    7.3739 H   0  0  0  0  0  0  0  0  0  0  0  0
   19.8720  -18.4037    8.4108 H   0  0  0  0  0  0  0  0  0  0  0  0
   19.6632  -17.5735   10.7512 H   0  0  0  0  0  0  0  0  0  0  0  0
   13.5258  -19.1675   13.9527 H   0  0  0  0  0  0  0  0  0  0  0  0
  1  2  1  0
  2  3  1  0
  3  4  2  0
  4  5  1  0
  5  6  2  0
  6  7  1  0
  7  8  1  0
  8  9  2  0
  8 10  1  0
 10 11  1  0
 11 12  2  0
 12 13  1  0
 13 14  2  0
 14 15  1  0
 15 16  1  0
 15 17  1  0
 15 18  1  0
 14 19  1  0
 19 20  2  0
  6 21  1  0
 21 22  2  0
 22 23  1  0
 23 24  1  1
 23 25  1  0
 25 26  1  0
 26 27  1  0
 27 28  1  0
 28 29  1  0
 29 30  1  0
 30 31  2  0
 31 32  1  0
 32 33  2  0
 33 34  1  0
 34 35  2  0
 27 36  1  0
 36  2  1  0
 22  3  1  0
 36 23  1  0
 20 11  1  0
 35 30  1  0
  1 37  1  0
  1 38  1  0
  1 39  1  0
  2 40  1  0
  4 41  1  0
  5 42  1  0
 10 43  1  0
 12 44  1  0
 13 45  1  0
 16 46  1  0
 16 47  1  0
 16 48  1  0
 17 49  1  0
 17 50  1  0
 17 51  1  0
 18 52  1  0
 18 53  1  0
 18 54  1  0
 19 55  1  0
 20 56  1  0
 21 57  1  0
 24 58  1  0
 24 59  1  0
 24 60  1  0
 25 61  1  0
 25 62  1  0
 26 63  1  0
 26 64  1  0
 27 65  1  0
 28 66  1  0
 28 67  1  0
 29 68  1  0
 29 69  1  0
 31 70  1  0
 32 71  1  0
 33 72  1  0
 34 73  1  0
 35 74  1  0
 36 75  1  1
M  CHG  2   2   1  27   1
M  END
>  <meeko>  (2) 
{"is_sidechain": [false], "free_energy": -7.883, "intermolecular_energy": -12.411, "internal_energy": -1.185}

$$$$
LIB_XYIWCLMRECCCLF__M_PUB_ALL__e8__s20260927
     RDKit          3D

 75 79  0  0  0  0  0  0  0  0999 V2000
   14.6400  -15.5150   -9.6630 C   0  0  0  0  0  0  0  0  0  0  0  0
   13.8790  -14.6300   -8.7070 N   0  0  0  0  0  0  0  0  0  0  0  0
   13.3060  -13.4980   -9.4280 C   0  0  0  0  0  0  0  0  0  0  0  0
   14.0180  -12.4440   -9.9740 C   0  0  0  0  0  0  0  0  0  0  0  0
   13.2960  -11.4590  -10.6490 C   0  0  0  0  0  0  0  0  0  0  0  0
   11.9000  -11.5630  -10.7470 C   0  0  0  0  0  0  0  0  0  0  0  0
   11.2170  -10.5920  -11.4860 O   0  0  0  0  0  0  0  0  0  0  0  0
   11.5740   -9.2930  -11.1160 C   0  0  0  0  0  0  0  0  0  0  0  0
   12.0000   -9.0020  -10.0050 O   0  0  0  0  0  0  0  0  0  0  0  0
   11.3730   -8.4640  -12.1850 N   0  0  0  0  0  0  0  0  0  0  0  0
   11.6030   -7.0780  -12.2660 C   0  0  0  0  0  0  0  0  0  0  0  0
   11.1840   -6.1600  -11.3070 C   0  0  0  0  0  0  0  0  0  0  0  0
   11.4530   -4.7910  -11.4610 C   0  0  0  0  0  0  0  0  0  0  0  0
   12.1480   -4.3000  -12.5770 C   0  0  0  0  0  0  0  0  0  0  0  0
   12.4570   -2.8050  -12.7750 C   0  0  0  0  0  0  0  0  0  0  0  0
   13.9710   -2.6150  -13.0160 C   0  0  0  0  0  0  0  0  0  0  0  0
   12.0740   -1.9220  -11.5660 C   0  0  0  0  0  0  0  0  0  0  0  0
   11.6780   -2.2720  -13.9960 C   0  0  0  0  0  0  0  0  0  0  0  0
   12.5630   -5.2420  -13.5350 C   0  0  0  0  0  0  0  0  0  0  0  0
   12.2950   -6.6070  -13.3830 C   0  0  0  0  0  0  0  0  0  0  0  0
   11.1860  -12.5980  -10.1340 C   0  0  0  0  0  0  0  0  0  0  0  0
   11.9130  -13.5740   -9.4740 C   0  0  0  0  0  0  0  0  0  0  0  0
   11.4120  -14.8070   -8.7830 C   0  0  2  0  0  0  0  0  0  0  0  0
   10.8820  -15.8320   -9.7880 C   0  0  0  0  0  0  0  0  0  0  0  0
   10.4100  -14.5370   -7.6530 C   0  0  0  0  0  0  0  0  0  0  0  0
   10.9910  -15.2590   -6.4530 C   0  0  0  0  0  0  0  0  0  0  0  0
   12.4940  -15.0210   -6.5970 N   0  0  0  0  0  0  0  0  0  0  0  0
   12.9030  -13.6880   -5.9640 C   0  0  0  0  0  0  0  0  0  0  0  0
   13.8920  -13.9010   -4.8050 C   0  0  0  0  0  0  0  0  0  0  0  0
   13.4680  -13.1860   -3.5500 C   0  0  0  0  0  0  0  0  0  0  0  0
   14.0120  -11.9380   -3.2130 C   0  0  0  0  0  0  0  0  0  0  0  0
   13.5660  -11.2600   -2.0780 C   0  0  0  0  0  0  0  0  0  0  0  0
   12.5820  -11.8240   -1.2670 C   0  0  0  0  0  0  0  0  0  0  0  0
   12.0570  -13.0760   -1.5770 C   0  0  0  0  0  0  0  0  0  0  0  0
   12.5000  -13.7590   -2.7080 C   0  0  0  0  0  0  0  0  0  0  0  0
   12.7100  -15.2990   -8.0680 C   0  0  2  0  0  0  0  0  0  0  0  0
   15.2534  -16.2283   -9.0930 H   0  0  0  0  0  0  0  0  0  0  0  0
   13.9297  -16.0665  -10.2965 H   0  0  0  0  0  0  0  0  0  0  0  0
   15.2917  -14.8954  -10.2965 H   0  0  0  0  0  0  0  0  0  0  0  0
   14.5700  -14.2820   -8.0380 H   0  0  0  0  0  0  0  0  0  0  0  0
   15.1123  -12.3851   -9.8793 H   0  0  0  0  0  0  0  0  0  0  0  0
   13.8191  -10.6042  -11.1026 H   0  0  0  0  0  0  0  0  0  0  0  0
   11.0090   -8.9140  -13.0140 H   0  0  0  0  0  0  0  0  0  0  0  0
   10.6367   -6.5110  -10.4197 H   0  0  0  0  0  0  0  0  0  0  0  0
   11.1110   -4.0863  -10.6887 H   0  0  0  0  0  0  0  0  0  0  0  0
   14.4909   -2.5498  -12.0488 H   0  0  0  0  0  0  0  0  0  0  0  0
   14.3619   -3.4711  -13.5854 H   0  0  0  0  0  0  0  0  0  0  0  0
   14.1383   -1.6888  -13.5854 H   0  0  0  0  0  0  0  0  0  0  0  0
   12.3060   -2.4569  -10.6332 H   0  0  0  0  0  0  0  0  0  0  0  0
   12.6457   -0.9829  -11.6021 H   0  0  0  0  0  0  0  0  0  0  0  0
   10.9977   -1.6977  -11.6021 H   0  0  0  0  0  0  0  0  0  0  0  0
   10.8158   -1.6820  -13.6518 H   0  0  0  0  0  0  0  0  0  0  0  0
   12.3387   -1.6358  -14.6032 H   0  0  0  0  0  0  0  0  0  0  0  0
   11.3243   -3.1183  -14.6032 H   0  0  0  0  0  0  0  0  0  0  0  0
   13.1110   -4.8979  -14.4245 H   0  0  0  0  0  0  0  0  0  0  0  0
   12.6334   -7.3167  -14.1523 H   0  0  0  0  0  0  0  0  0  0  0  0
   10.0874  -12.6350  -10.1749 H   0  0  0  0  0  0  0  0  0  0  0  0
   10.4422  -16.6826   -9.2468 H   0  0  0  0  0  0  0  0  0  0  0  0
   10.1136  -15.3626  -10.4198 H   0  0  0  0  0  0  0  0  0  0  0  0
   11.7092  -16.1876  -10.4198 H   0  0  0  0  0  0  0  0  0  0  0  0
   10.3274  -13.4580   -7.4556 H   0  0  0  0  0  0  0  0  0  0  0  0
    9.3958  -14.8838   -7.9003 H   0  0  0  0  0  0  0  0  0  0  0  0
   10.6120  -14.8308   -5.5133 H   0  0  0  0  0  0  0  0  0  0  0  0
   10.7241  -16.3256   -6.4202 H   0  0  0  0  0  0  0  0  0  0  0  0
   12.9500  -15.7700   -6.0570 H   0  0  0  0  0  0  0  0  0  0  0  0
   13.3788  -13.0583   -6.7302 H   0  0  0  0  0  0  0  0  0  0  0  0
   12.0007  -13.2008   -5.5660 H   0  0  0  0  0  0  0  0  0  0  0  0
   13.9600  -14.9781   -4.5921 H   0  0  0  0  0  0  0  0  0  0  0  0
   14.8641  -13.4889   -5.1136 H   0  0  0  0  0  0  0  0  0  0  0  0
   14.7933  -11.4920   -3.8459 H   0  0  0  0  0  0  0  0  0  0  0  0
   13.9916  -10.2784   -1.8225 H   0  0  0  0  0  0  0  0  0  0  0  0
   12.2203  -11.2798   -0.3821 H   0  0  0  0  0  0  0  0  0  0  0  0
   11.2915  -13.5265   -0.9281 H   0  0  0  0  0  0  0  0  0  0  0  0
   12.0896  -14.7522   -2.9429 H   0  0  0  0  0  0  0  0  0  0  0  0
   12.9253  -16.3733   -8.1655 H   0  0  0  0  0  0  0  0  0  0  0  0
  1  2  1  0
  2  3  1  0
  3  4  2  0
  4  5  1  0
  5  6  2  0
  6  7  1  0
  7  8  1  0
  8  9  2  0
  8 10  1  0
 10 11  1  0
 11 12  2  0
 12 13  1  0
 13 14  2  0
 14 15  1  0
 15 16  1  0
 15 17  1  0
 15 18  1  0
 14 19  1  0
 19 20  2  0
  6 21  1  0
 21 22  2  0
 22 23  1  0
 23 24  1  6
 23 25  1  0
 25 26  1  0
 26 27  1  0
 27 28  1  0
 28 29  1  0
 29 30  1  0
 30 31  2  0
 31 32  1  0
 32 33  2  0
 33 34  1  0
 34 35  2  0
 27 36  1  0
 36  2  1  0
 22  3  1  0
 36 23  1  0
 20 11  1  0
 35 30  1  0
  1 37  1  0
  1 38  1  0
  1 39  1  0
  2 40  1  0
  4 41  1  0
  5 42  1  0
 10 43  1  0
 12 44  1  0
 13 45  1  0
 16 46  1  0
 16 47  1  0
 16 48  1  0
 17 49  1  0
 17 50  1  0
 17 51  1  0
 18 52  1  0
 18 53  1  0
 18 54  1  0
 19 55  1  0
 20 56  1  0
 21 57  1  0
 24 58  1  0
 24 59  1  0
 24 60  1  0
 25 61  1  0
 25 62  1  0
 26 63  1  0
 26 64  1  0
 27 65  1  0
 28 66  1  0
 28 67  1  0
 29 68  1  0
 29 69  1  0
 31 70  1  0
 32 71  1  0
 33 72  1  0
 34 73  1  0
 35 74  1  0
 36 75  1  1
M  CHG  2   2   1  27   1
M  END
>  <meeko>  (3) 
{"is_sidechain": [false], "free_energy": -7.867, "intermolecular_energy": -13.047, "internal_energy": -0.526}

$$$$
LIB_XYIWCLMRECCCLF__M_PUB_ALL__e8__s20260927
     RDKit          3D

 75 79  0  0  0  0  0  0  0  0999 V2000
    8.7450  -14.7530   -4.3460 C   0  0  0  0  0  0  0  0  0  0  0  0
    7.2910  -14.6050   -3.9690 N   0  0  0  0  0  0  0  0  0  0  0  0
    7.1420  -14.7130   -2.5210 C   0  0  0  0  0  0  0  0  0  0  0  0
    7.3080  -15.8680   -1.7760 C   0  0  0  0  0  0  0  0  0  0  0  0
    7.1430  -15.7720   -0.3940 C   0  0  0  0  0  0  0  0  0  0  0  0
    6.8160  -14.5370    0.1860 C   0  0  0  0  0  0  0  0  0  0  0  0
    6.7230  -14.4660    1.5790 O   0  0  0  0  0  0  0  0  0  0  0  0
    5.5600  -13.8160    2.0020 C   0  0  0  0  0  0  0  0  0  0  0  0
    5.5390  -12.9990    2.9140 O   0  0  0  0  0  0  0  0  0  0  0  0
    4.5160  -14.2450    1.2300 N   0  0  0  0  0  0  0  0  0  0  0  0
    3.1660  -13.8550    1.2990 C   0  0  0  0  0  0  0  0  0  0  0  0
    2.2130  -14.4810    2.0980 C   0  0  0  0  0  0  0  0  0  0  0  0
    0.8830  -14.0300    2.1120 C   0  0  0  0  0  0  0  0  0  0  0  0
    0.4680  -12.9430    1.3280 C   0  0  0  0  0  0  0  0  0  0  0  0
   -0.9830  -12.4270    1.3210 C   0  0  0  0  0  0  0  0  0  0  0  0
   -1.0530  -11.0890    0.5520 C   0  0  0  0  0  0  0  0  0  0  0  0
   -1.5640  -12.1730    2.7300 C   0  0  0  0  0  0  0  0  0  0  0  0
   -1.8970  -13.4590    0.6280 C   0  0  0  0  0  0  0  0  0  0  0  0
    1.4440  -12.3240    0.5270 C   0  0  0  0  0  0  0  0  0  0  0  0
    2.7700  -12.7720    0.5130 C   0  0  0  0  0  0  0  0  0  0  0  0
    6.5850  -13.3920   -0.5850 C   0  0  0  0  0  0  0  0  0  0  0  0
    6.7600  -13.4960   -1.9540 C   0  0  0  0  0  0  0  0  0  0  0  0
    6.6310  -12.4270   -2.9980 C   0  0  2  0  0  0  0  0  0  0  0  0
    7.7680  -11.4080   -2.8960 C   0  0  0  0  0  0  0  0  0  0  0  0
    5.2550  -11.7490   -3.0450 C   0  0  0  0  0  0  0  0  0  0  0  0
    4.8200  -11.8790   -4.4920 C   0  0  0  0  0  0  0  0  0  0  0  0
    5.3140  -13.2710   -4.8820 N   0  0  0  0  0  0  0  0  0  0  0  0
    4.2890  -14.3440   -4.5030 C   0  0  0  0  0  0  0  0  0  0  0  0
    3.0480  -13.7220   -3.8420 C   0  0  0  0  0  0  0  0  0  0  0  0
    2.4610  -14.6070   -2.7750 C   0  0  0  0  0  0  0  0  0  0  0  0
    1.1020  -14.5240   -2.4390 C   0  0  0  0  0  0  0  0  0  0  0  0
    0.5590  -15.3910   -1.4910 C   0  0  0  0  0  0  0  0  0  0  0  0
    1.3660  -16.3400   -0.8660 C   0  0  0  0  0  0  0  0  0  0  0  0
    2.7230  -16.4110   -1.1710 C   0  0  0  0  0  0  0  0  0  0  0  0
    3.2720  -15.5450   -2.1170 C   0  0  0  0  0  0  0  0  0  0  0  0
    6.7130  -13.2740   -4.3070 C   0  0  2  0  0  0  0  0  0  0  0  0
    9.3559  -14.8152   -3.4334 H   0  0  0  0  0  0  0  0  0  0  0  0
    8.8784  -15.6694   -4.9397 H   0  0  0  0  0  0  0  0  0  0  0  0
    9.0603  -13.8823   -4.9397 H   0  0  0  0  0  0  0  0  0  0  0  0
    6.8060  -15.3890   -4.4120 H   0  0  0  0  0  0  0  0  0  0  0  0
    7.5604  -16.8252   -2.2556 H   0  0  0  0  0  0  0  0  0  0  0  0
    7.2690  -16.6624    0.2394 H   0  0  0  0  0  0  0  0  0  0  0  0
    4.7560  -14.9320    0.5280 H   0  0  0  0  0  0  0  0  0  0  0  0
    2.5045  -15.3370    2.7243 H   0  0  0  0  0  0  0  0  0  0  0  0
    0.1494  -14.5411    2.7528 H   0  0  0  0  0  0  0  0  0  0  0  0
   -1.0966  -10.2559    1.2689 H   0  0  0  0  0  0  0  0  0  0  0  0
   -0.1592  -10.9823   -0.0803 H   0  0  0  0  0  0  0  0  0  0  0  0
   -1.9530  -11.0761   -0.0803 H   0  0  0  0  0  0  0  0  0  0  0  0
   -0.8353  -12.4916    3.4900 H   0  0  0  0  0  0  0  0  0  0  0  0
   -1.7754  -11.1004    2.8516 H   0  0  0  0  0  0  0  0  0  0  0  0
   -2.4949  -12.7462    2.8516 H   0  0  0  0  0  0  0  0  0  0  0  0
   -2.4230  -14.0529    1.3899 H   0  0  0  0  0  0  0  0  0  0  0  0
   -2.6321  -12.9344    0.0000 H   0  0  0  0  0  0  0  0  0  0  0  0
   -1.2874  -14.1254    0.0000 H   0  0  0  0  0  0  0  0  0  0  0  0
    1.1590  -11.4684   -0.1028 H   0  0  0  0  0  0  0  0  0  0  0  0
    3.5085  -12.2645   -0.1250 H   0  0  0  0  0  0  0  0  0  0  0  0
    6.2757  -12.4443   -0.1200 H   0  0  0  0  0  0  0  0  0  0  0  0
    7.9890  -11.2100   -1.8368 H   0  0  0  0  0  0  0  0  0  0  0  0
    8.6656  -11.8096   -3.3890 H   0  0  0  0  0  0  0  0  0  0  0  0
    7.4668  -10.4719   -3.3890 H   0  0  0  0  0  0  0  0  0  0  0  0
    4.5458  -12.2608   -2.3778 H   0  0  0  0  0  0  0  0  0  0  0  0
    5.2918  -10.7017   -2.7106 H   0  0  0  0  0  0  0  0  0  0  0  0
    3.7260  -11.8091   -4.5827 H   0  0  0  0  0  0  0  0  0  0  0  0
    5.2216  -11.0829   -5.1361 H   0  0  0  0  0  0  0  0  0  0  0  0
    5.3880  -13.2660   -5.9090 H   0  0  0  0  0  0  0  0  0  0  0  0
    3.9797  -14.8811   -5.4118 H   0  0  0  0  0  0  0  0  0  0  0  0
    4.7569  -15.0328   -3.7842 H   0  0  0  0  0  0  0  0  0  0  0  0
    3.3339  -12.7622   -3.3869 H   0  0  0  0  0  0  0  0  0  0  0  0
    2.2848  -13.5868   -4.6226 H   0  0  0  0  0  0  0  0  0  0  0  0
    0.4621  -13.7726   -2.9248 H   0  0  0  0  0  0  0  0  0  0  0  0
   -0.5090  -15.3256   -1.2359 H   0  0  0  0  0  0  0  0  0  0  0  0
    0.9308  -17.0334   -0.1313 H   0  0  0  0  0  0  0  0  0  0  0  0
    3.3621  -17.1501   -0.6658 H   0  0  0  0  0  0  0  0  0  0  0  0
    4.3461  -15.5975   -2.3485 H   0  0  0  0  0  0  0  0  0  0  0  0
    7.3823  -12.8779   -5.0849 H   0  0  0  0  0  0  0  0  0  0  0  0
  1  2  1  0
  2  3  1  0
  3  4  2  0
  4  5  1  0
  5  6  2  0
  6  7  1  0
  7  8  1  0
  8  9  2  0
  8 10  1  0
 10 11  1  0
 11 12  2  0
 12 13  1  0
 13 14  2  0
 14 15  1  0
 15 16  1  0
 15 17  1  0
 15 18  1  0
 14 19  1  0
 19 20  2  0
  6 21  1  0
 21 22  2  0
 22 23  1  0
 23 24  1  6
 23 25  1  0
 25 26  1  0
 26 27  1  0
 27 28  1  0
 28 29  1  0
 29 30  1  0
 30 31  2  0
 31 32  1  0
 32 33  2  0
 33 34  1  0
 34 35  2  0
 27 36  1  0
 36  2  1  0
 22  3  1  0
 36 23  1  0
 20 11  1  0
 35 30  1  0
  1 37  1  0
  1 38  1  0
  1 39  1  0
  2 40  1  0
  4 41  1  0
  5 42  1  0
 10 43  1  0
 12 44  1  0
 13 45  1  0
 16 46  1  0
 16 47  1  0
 16 48  1  0
 17 49  1  0
 17 50  1  0
 17 51  1  0
 18 52  1  0
 18 53  1  0
 18 54  1  0
 19 55  1  0
 20 56  1  0
 21 57  1  0
 24 58  1  0
 24 59  1  0
 24 60  1  0
 25 61  1  0
 25 62  1  0
 26 63  1  0
 26 64  1  0
 27 65  1  0
 28 66  1  0
 28 67  1  0
 29 68  1  0
 29 69  1  0
 31 70  1  0
 32 71  1  0
 33 72  1  0
 34 73  1  0
 35 74  1  0
 36 75  1  6
M  CHG  2   2   1  27   1
M  END
>  <meeko>  (4) 
{"is_sidechain": [false], "free_energy": -7.724, "intermolecular_energy": -10.049, "internal_energy": -3.323}

$$$$
LIB_XYIWCLMRECCCLF__M_PUB_ALL__e8__s20260927
     RDKit          3D

 75 79  0  0  0  0  0  0  0  0999 V2000
    1.8380  -14.4550    2.3710 C   0  0  0  0  0  0  0  0  0  0  0  0
    0.6660  -14.1370    1.4740 N   0  0  0  0  0  0  0  0  0  0  0  0
    1.0880  -13.2270    0.4130 C   0  0  0  0  0  0  0  0  0  0  0  0
    1.4350  -11.8970    0.5790 C   0  0  0  0  0  0  0  0  0  0  0  0
    1.8330  -11.1880   -0.5540 C   0  0  0  0  0  0  0  0  0  0  0  0
    1.8660  -11.8290   -1.8020 C   0  0  0  0  0  0  0  0  0  0  0  0
    2.3320  -11.1060   -2.9030 O   0  0  0  0  0  0  0  0  0  0  0  0
    3.5580  -11.5830   -3.3740 C   0  0  0  0  0  0  0  0  0  0  0  0
    4.6080  -11.4720   -2.7520 O   0  0  0  0  0  0  0  0  0  0  0  0
    3.3580  -12.1730   -4.5920 N   0  0  0  0  0  0  0  0  0  0  0  0
    4.3080  -12.7900   -5.4250 C   0  0  0  0  0  0  0  0  0  0  0  0
    4.8160  -12.2170   -6.5890 C   0  0  0  0  0  0  0  0  0  0  0  0
    5.7640  -12.8990   -7.3680 C   0  0  0  0  0  0  0  0  0  0  0  0
    6.2320  -14.1720   -7.0070 C   0  0  0  0  0  0  0  0  0  0  0  0
    7.2700  -14.9450   -7.8410 C   0  0  0  0  0  0  0  0  0  0  0  0
    7.0810  -16.4630   -7.6270 C   0  0  0  0  0  0  0  0  0  0  0  0
    8.7350  -14.6130   -7.4790 C   0  0  0  0  0  0  0  0  0  0  0  0
    7.0820  -14.6160   -9.3370 C   0  0  0  0  0  0  0  0  0  0  0  0
    5.7080  -14.7350   -5.8300 C   0  0  0  0  0  0  0  0  0  0  0  0
    4.7630  -14.0560   -5.0520 C   0  0  0  0  0  0  0  0  0  0  0  0
    1.4490  -13.1540   -1.9680 C   0  0  0  0  0  0  0  0  0  0  0  0
    1.0640  -13.8510   -0.8350 C   0  0  0  0  0  0  0  0  0  0  0  0
    0.6270  -15.2810   -0.7190 C   0  0  2  0  0  0  0  0  0  0  0  0
    1.7960  -16.2410   -0.9530 C   0  0  0  0  0  0  0  0  0  0  0  0
   -0.5940  -15.6430   -1.5750 C   0  0  0  0  0  0  0  0  0  0  0  0
   -1.5710  -16.2640   -0.5950 C   0  0  0  0  0  0  0  0  0  0  0  0
   -1.3890  -15.4170    0.6640 N   0  0  0  0  0  0  0  0  0  0  0  0
   -2.2700  -14.1650    0.6150 C   0  0  0  0  0  0  0  0  0  0  0  0
   -2.4070  -13.5240    2.0060 C   0  0  0  0  0  0  0  0  0  0  0  0
   -2.1310  -12.0440    1.9870 C   0  0  0  0  0  0  0  0  0  0  0  0
   -2.3010  -11.2960    0.8130 C   0  0  0  0  0  0  0  0  0  0  0  0
   -2.0980   -9.9160    0.8250 C   0  0  0  0  0  0  0  0  0  0  0  0
   -1.7190   -9.2730    2.0020 C   0  0  0  0  0  0  0  0  0  0  0  0
   -1.5190  -10.0120    3.1660 C   0  0  0  0  0  0  0  0  0  0  0  0
   -1.7170  -11.3920    3.1600 C   0  0  0  0  0  0  0  0  0  0  0  0
    0.1180  -15.3210    0.7560 C   0  0  2  0  0  0  0  0  0  0  0  0
    1.5280  -14.3709    3.4230 H   0  0  0  0  0  0  0  0  0  0  0  0
    2.1848  -15.4797    2.1718 H   0  0  0  0  0  0  0  0  0  0  0  0
    2.6552  -13.7461    2.1718 H   0  0  0  0  0  0  0  0  0  0  0  0
   -0.0180  -13.6610    2.0660 H   0  0  0  0  0  0  0  0  0  0  0  0
    1.3981  -11.4172    1.5682 H   0  0  0  0  0  0  0  0  0  0  0  0
    2.1202  -10.1295   -0.4697 H   0  0  0  0  0  0  0  0  0  0  0  0
    2.4040  -12.1510   -4.9260 H   0  0  0  0  0  0  0  0  0  0  0  0
    4.4707  -11.2202   -6.9007 H   0  0  0  0  0  0  0  0  0  0  0  0
    6.1490  -12.4246   -8.2827 H   0  0  0  0  0  0  0  0  0  0  0  0
    7.0539  -16.6808   -6.5491 H   0  0  0  0  0  0  0  0  0  0  0  0
    6.1360  -16.7837   -8.0897 H   0  0  0  0  0  0  0  0  0  0  0  0
    7.9185  -17.0056   -8.0897 H   0  0  0  0  0  0  0  0  0  0  0  0
    8.8457  -14.5879   -6.3849 H   0  0  0  0  0  0  0  0  0  0  0  0
    9.3996  -15.3833   -7.8972 H   0  0  0  0  0  0  0  0  0  0  0  0
    9.0026  -13.6314   -7.8972 H   0  0  0  0  0  0  0  0  0  0  0  0
    6.5385  -13.6650   -9.4378 H   0  0  0  0  0  0  0  0  0  0  0  0
    8.0665  -14.5287   -9.8198 H   0  0  0  0  0  0  0  0  0  0  0  0
    6.5069  -15.4199   -9.8198 H   0  0  0  0  0  0  0  0  0  0  0  0
    6.0485  -15.7319   -5.5133 H   0  0  0  0  0  0  0  0  0  0  0  0
    4.3744  -14.5253   -4.1362 H   0  0  0  0  0  0  0  0  0  0  0  0
    1.4277  -13.6249   -2.9619 H   0  0  0  0  0  0  0  0  0  0  0  0
    2.1986  -16.5716    0.0158 H   0  0  0  0  0  0  0  0  0  0  0  0
    1.4448  -17.1148   -1.5215 H   0  0  0  0  0  0  0  0  0  0  0  0
    2.5848  -15.7266   -1.5215 H   0  0  0  0  0  0  0  0  0  0  0  0
   -1.0257  -14.7432   -2.0376 H   0  0  0  0  0  0  0  0  0  0  0  0
   -0.3399  -16.3229   -2.4015 H   0  0  0  0  0  0  0  0  0  0  0  0
   -2.6028  -16.1962   -0.9702 H   0  0  0  0  0  0  0  0  0  0  0  0
   -1.3884  -17.3352   -0.4243 H   0  0  0  0  0  0  0  0  0  0  0  0
   -1.7240  -15.9980    1.4450 H   0  0  0  0  0  0  0  0  0  0  0  0
   -1.8179  -13.4353   -0.0729 H   0  0  0  0  0  0  0  0  0  0  0  0
   -3.2716  -14.4584    0.2675 H   0  0  0  0  0  0  0  0  0  0  0  0
   -3.4319  -13.6873    2.3706 H   0  0  0  0  0  0  0  0  0  0  0  0
   -1.6638  -13.9948    2.6663 H   0  0  0  0  0  0  0  0  0  0  0  0
   -2.5953  -11.7990   -0.1200 H   0  0  0  0  0  0  0  0  0  0  0  0
   -2.2375   -9.3333   -0.0975 H   0  0  0  0  0  0  0  0  0  0  0  0
   -1.5778   -8.1821    2.0119 H   0  0  0  0  0  0  0  0  0  0  0  0
   -1.2045   -9.5061    4.0908 H   0  0  0  0  0  0  0  0  0  0  0  0
   -1.5481  -11.9731    4.0786 H   0  0  0  0  0  0  0  0  0  0  0  0
    0.4609  -16.1807    1.3505 H   0  0  0  0  0  0  0  0  0  0  0  0
  1  2  1  0
  2  3  1  0
  3  4  2  0
  4  5  1  0
  5  6  2  0
  6  7  1  0
  7  8  1  0
  8  9  2  0
  8 10  1  0
 10 11  1  0
 11 12  2  0
 12 13  1  0
 13 14  2  0
 14 15  1  0
 15 16  1  0
 15 17  1  0
 15 18  1  0
 14 19  1  0
 19 20  2  0
  6 21  1  0
 21 22  2  0
 22 23  1  0
 23 24  1  1
 23 25  1  0
 25 26  1  0
 26 27  1  0
 27 28  1  0
 28 29  1  0
 29 30  1  0
 30 31  2  0
 31 32  1  0
 32 33  2  0
 33 34  1  0
 34 35  2  0
 27 36  1  0
 36  2  1  0
 22  3  1  0
 36 23  1  0
 20 11  1  0
 35 30  1  0
  1 37  1  0
  1 38  1  0
  1 39  1  0
  2 40  1  0
  4 41  1  0
  5 42  1  0
 10 43  1  0
 12 44  1  0
 13 45  1  0
 16 46  1  0
 16 47  1  0
 16 48  1  0
 17 49  1  0
 17 50  1  0
 17 51  1  0
 18 52  1  0
 18 53  1  0
 18 54  1  0
 19 55  1  0
 20 56  1  0
 21 57  1  0
 24 58  1  0
 24 59  1  0
 24 60  1  0
 25 61  1  0
 25 62  1  0
 26 63  1  0
 26 64  1  0
 27 65  1  0
 28 66  1  0
 28 67  1  0
 29 68  1  0
 29 69  1  0
 31 70  1  0
 32 71  1  0
 33 72  1  0
 34 73  1  0
 35 74  1  0
 36 75  1  1
M  CHG  2   2   1  27   1
M  END
>  <meeko>  (5) 
{"is_sidechain": [false], "free_energy": -7.648, "intermolecular_energy": -11.478, "internal_energy": -1.788}

$$$$
LIB_XYIWCLMRECCCLF__M_PUB_ALL__e8__s20260927
     RDKit          3D

 75 79  0  0  0  0  0  0  0  0999 V2000
   15.4510  -21.2950   11.1060 C   0  0  0  0  0  0  0  0  0  0  0  0
   15.9060  -19.8600   11.2180 N   0  0  0  0  0  0  0  0  0  0  0  0
   14.7470  -18.9820   11.3410 C   0  0  0  0  0  0  0  0  0  0  0  0
   13.8330  -18.7060   10.3390 C   0  0  0  0  0  0  0  0  0  0  0  0
   12.7740  -17.8530   10.6500 C   0  0  0  0  0  0  0  0  0  0  0  0
   12.6710  -17.3100   11.9390 C   0  0  0  0  0  0  0  0  0  0  0  0
   11.5610  -16.5120   12.2330 O   0  0  0  0  0  0  0  0  0  0  0  0
   11.6990  -15.2090   11.7470 C   0  0  0  0  0  0  0  0  0  0  0  0
   11.2490  -14.8400   10.6700 O   0  0  0  0  0  0  0  0  0  0  0  0
   12.3890  -14.4710   12.6700 N   0  0  0  0  0  0  0  0  0  0  0  0
   12.7500  -13.1130   12.6030 C   0  0  0  0  0  0  0  0  0  0  0  0
   12.1280  -12.1030   13.3320 C   0  0  0  0  0  0  0  0  0  0  0  0
   12.5480  -10.7690   13.2090 C   0  0  0  0  0  0  0  0  0  0  0  0
   13.6020  -10.4060   12.3560 C   0  0  0  0  0  0  0  0  0  0  0  0
   14.0850   -8.9530   12.1990 C   0  0  0  0  0  0  0  0  0  0  0  0
   13.5020   -8.0860   13.3360 C   0  0  0  0  0  0  0  0  0  0  0  0
   13.6660   -8.2960   10.8640 C   0  0  0  0  0  0  0  0  0  0  0  0
   15.6260   -8.9090   12.2660 C   0  0  0  0  0  0  0  0  0  0  0  0
   14.2170  -11.4400   11.6280 C   0  0  0  0  0  0  0  0  0  0  0  0
   13.7990  -12.7700   11.7490 C   0  0  0  0  0  0  0  0  0  0  0  0
   13.6380  -17.5430   12.9230 C   0  0  0  0  0  0  0  0  0  0  0  0
   14.6800  -18.3970   12.6060 C   0  0  0  0  0  0  0  0  0  0  0  0
   15.8110  -18.8580   13.4780 C   0  0  2  0  0  0  0  0  0  0  0  0
   15.3190  -19.8080   14.5720 C   0  0  0  0  0  0  0  0  0  0  0  0
   16.6750  -17.7240   14.0460 C   0  0  0  0  0  0  0  0  0  0  0  0
   18.0910  -18.0950   13.6520 C   0  0  0  0  0  0  0  0  0  0  0  0
   17.9210  -18.6800   12.2500 N   0  0  0  0  0  0  0  0  0  0  0  0
   17.9410  -17.5760   11.1880 C   0  0  0  0  0  0  0  0  0  0  0  0
   19.2390  -17.6160   10.3650 C   0  0  0  0  0  0  0  0  0  0  0  0
   19.2890  -18.7930    9.4280 C   0  0  0  0  0  0  0  0  0  0  0  0
   20.3260  -19.7350    9.5100 C   0  0  0  0  0  0  0  0  0  0  0  0
   20.3270  -20.8520    8.6740 C   0  0  0  0  0  0  0  0  0  0  0  0
   19.3020  -21.0350    7.7470 C   0  0  0  0  0  0  0  0  0  0  0  0
   18.2840  -20.0900    7.6380 C   0  0  0  0  0  0  0  0  0  0  0  0
   18.2790  -18.9700    8.4690 C   0  0  0  0  0  0  0  0  0  0  0  0
   16.7200  -19.5800   12.4340 C   0  0  2  0  0  0  0  0  0  0  0  0
   15.3172  -21.7169   12.1130 H   0  0  0  0  0  0  0  0  0  0  0  0
   14.4960  -21.3354   10.5617 H   0  0  0  0  0  0  0  0  0  0  0  0
   16.2082  -21.8783   10.5617 H   0  0  0  0  0  0  0  0  0  0  0  0
   16.3900  -19.6520   10.3420 H   0  0  0  0  0  0  0  0  0  0  0  0
   13.9378  -19.1429    9.3350 H   0  0  0  0  0  0  0  0  0  0  0  0
   12.0216  -17.6069    9.8862 H   0  0  0  0  0  0  0  0  0  0  0  0
   12.6720  -14.9780   13.4980 H   0  0  0  0  0  0  0  0  0  0  0  0
   11.2994  -12.3527   14.0110 H   0  0  0  0  0  0  0  0  0  0  0  0
   12.0389   -9.9897   13.7951 H   0  0  0  0  0  0  0  0  0  0  0  0
   13.7897   -8.5138   14.3077 H   0  0  0  0  0  0  0  0  0  0  0  0
   13.8958   -7.0621   13.2551 H   0  0  0  0  0  0  0  0  0  0  0  0
   12.4052   -8.0644   13.2551 H   0  0  0  0  0  0  0  0  0  0  0  0
   13.0850   -7.3850   11.0701 H   0  0  0  0  0  0  0  0  0  0  0  0
   14.5647   -8.0348   10.2859 H   0  0  0  0  0  0  0  0  0  0  0  0
   13.0502   -9.0007   10.2859 H   0  0  0  0  0  0  0  0  0  0  0  0
   15.9472   -8.8998   13.3180 H   0  0  0  0  0  0  0  0  0  0  0  0
   16.0403   -9.7957   11.7639 H   0  0  0  0  0  0  0  0  0  0  0  0
   15.9890   -8.0001   11.7639 H   0  0  0  0  0  0  0  0  0  0  0  0
   15.0464  -11.1976   10.9472 H   0  0  0  0  0  0  0  0  0  0  0  0
   14.3029  -13.5538   11.1644 H   0  0  0  0  0  0  0  0  0  0  0  0
   13.5725  -17.0653   13.9117 H   0  0  0  0  0  0  0  0  0  0  0  0
   15.5421  -19.3772   15.5592 H   0  0  0  0  0  0  0  0  0  0  0  0
   14.2331  -19.9518   14.4716 H   0  0  0  0  0  0  0  0  0  0  0  0
   15.8281  -20.7779   14.4716 H   0  0  0  0  0  0  0  0  0  0  0  0
   16.3886  -16.7580   13.6046 H   0  0  0  0  0  0  0  0  0  0  0  0
   16.5582  -17.6127   15.1341 H   0  0  0  0  0  0  0  0  0  0  0  0
   18.7406  -17.2075   13.6331 H   0  0  0  0  0  0  0  0  0  0  0  0
   18.5660  -18.7936   14.3565 H   0  0  0  0  0  0  0  0  0  0  0  0
   18.7480  -19.2730   12.0900 H   0  0  0  0  0  0  0  0  0  0  0  0
   17.0839  -17.7132   10.5123 H   0  0  0  0  0  0  0  0  0  0  0  0
   17.8829  -16.6029   11.6976 H   0  0  0  0  0  0  0  0  0  0  0  0
   19.3112  -16.6910    9.7742 H   0  0  0  0  0  0  0  0  0  0  0  0
   20.0791  -17.7118   11.0686 H   0  0  0  0  0  0  0  0  0  0  0  0
   21.1404  -19.5923   10.2355 H   0  0  0  0  0  0  0  0  0  0  0  0
   21.1390  -21.5905    8.7466 H   0  0  0  0  0  0  0  0  0  0  0  0
   19.2969  -21.9257    7.1015 H   0  0  0  0  0  0  0  0  0  0  0  0
   17.4837  -20.2274    6.8960 H   0  0  0  0  0  0  0  0  0  0  0  0
   17.4792  -18.2210    8.3725 H   0  0  0  0  0  0  0  0  0  0  0  0
   17.0991  -20.5664   12.7393 H   0  0  0  0  0  0  0  0  0  0  0  0
  1  2  1  0
  2  3  1  0
  3  4  2  0
  4  5  1  0
  5  6  2  0
  6  7  1  0
  7  8  1  0
  8  9  2  0
  8 10  1  0
 10 11  1  0
 11 12  2  0
 12 13  1  0
 13 14  2  0
 14 15  1  0
 15 16  1  0
 15 17  1  0
 15 18  1  0
 14 19  1  0
 19 20  2  0
  6 21  1  0
 21 22  2  0
 22 23  1  0
 23 24  1  1
 23 25  1  0
 25 26  1  0
 26 27  1  0
 27 28  1  0
 28 29  1  0
 29 30  1  0
 30 31  2  0
 31 32  1  0
 32 33  2  0
 33 34  1  0
 34 35  2  0
 27 36  1  0
 36  2  1  0
 22  3  1  0
 36 23  1  0
 20 11  1  0
 35 30  1  0
  1 37  1  0
  1 38  1  0
  1 39  1  0
  2 40  1  0
  4 41  1  0
  5 42  1  0
 10 43  1  0
 12 44  1  0
 13 45  1  0
 16 46  1  0
 16 47  1  0
 16 48  1  0
 17 49  1  0
 17 50  1  0
 17 51  1  0
 18 52  1  0
 18 53  1  0
 18 54  1  0
 19 55  1  0
 20 56  1  0
 21 57  1  0
 24 58  1  0
 24 59  1  0
 24 60  1  0
 25 61  1  0
 25 62  1  0
 26 63  1  0
 26 64  1  0
 27 65  1  0
 28 66  1  0
 28 67  1  0
 29 68  1  0
 29 69  1  0
 31 70  1  0
 32 71  1  0
 33 72  1  0
 34 73  1  0
 35 74  1  0
 36 75  1  1
M  CHG  2   2   1  27   1
M  END
>  <meeko>  (6) 
{"is_sidechain": [false], "free_energy": -7.618, "intermolecular_energy": -11.909, "internal_energy": -1.313}

$$$$
LIB_XYIWCLMRECCCLF__M_PUB_ALL__e8__s20260927
     RDKit          3D

 75 79  0  0  0  0  0  0  0  0999 V2000
    0.5530  -13.2030    0.9880 C   0  0  0  0  0  0  0  0  0  0  0  0
    1.6130  -13.7390    0.0580 N   0  0  0  0  0  0  0  0  0  0  0  0
    2.9320  -13.3090    0.5110 C   0  0  0  0  0  0  0  0  0  0  0  0
    3.4210  -12.0140    0.4640 C   0  0  0  0  0  0  0  0  0  0  0  0
    4.7040  -11.7910    0.9640 C   0  0  0  0  0  0  0  0  0  0  0  0
    5.4460  -12.8620    1.4840 C   0  0  0  0  0  0  0  0  0  0  0  0
    6.7020  -12.5880    2.0350 O   0  0  0  0  0  0  0  0  0  0  0  0
    7.6240  -12.1680    1.0740 C   0  0  0  0  0  0  0  0  0  0  0  0
    7.8650  -10.9900    0.8400 O   0  0  0  0  0  0  0  0  0  0  0  0
    8.1790  -13.2730    0.4880 N   0  0  0  0  0  0  0  0  0  0  0  0
    9.1540  -13.3240   -0.5230 C   0  0  0  0  0  0  0  0  0  0  0  0
    8.9110  -13.7670   -1.8210 C   0  0  0  0  0  0  0  0  0  0  0  0
    9.9400  -13.7870   -2.7750 C   0  0  0  0  0  0  0  0  0  0  0  0
   11.2410  -13.3660   -2.4620 C   0  0  0  0  0  0  0  0  0  0  0  0
   12.3910  -13.3770   -3.4850 C   0  0  0  0  0  0  0  0  0  0  0  0
   13.3060  -14.5940   -3.2250 C   0  0  0  0  0  0  0  0  0  0  0  0
   13.2840  -12.1170   -3.4370 C   0  0  0  0  0  0  0  0  0  0  0  0
   11.8130  -13.4730   -4.9130 C   0  0  0  0  0  0  0  0  0  0  0  0
   11.4680  -12.9220   -1.1470 C   0  0  0  0  0  0  0  0  0  0  0  0
   10.4430  -12.9020   -0.1940 C   0  0  0  0  0  0  0  0  0  0  0  0
    4.9680  -14.1760    1.4640 C   0  0  0  0  0  0  0  0  0  0  0  0
    3.6910  -14.3860    0.9730 C   0  0  0  0  0  0  0  0  0  0  0  0
    2.9200  -15.6700    0.8860 C   0  0  2  0  0  0  0  0  0  0  0  0
    2.5060  -16.1660    2.2730 C   0  0  0  0  0  0  0  0  0  0  0  0
    3.6090  -16.7670    0.0640 C   0  0  0  0  0  0  0  0  0  0  0  0
    2.5670  -17.1850   -0.9550 C   0  0  0  0  0  0  0  0  0  0  0  0
    1.8940  -15.8640   -1.3290 N   0  0  0  0  0  0  0  0  0  0  0  0
    2.6650  -15.1520   -2.4440 C   0  0  0  0  0  0  0  0  0  0  0  0
    1.7180  -14.3550   -3.3560 C   0  0  0  0  0  0  0  0  0  0  0  0
    2.2730  -13.0050   -3.7220 C   0  0  0  0  0  0  0  0  0  0  0  0
    2.0530  -11.8900   -2.9000 C   0  0  0  0  0  0  0  0  0  0  0  0
    2.6230  -10.6580   -3.2210 C   0  0  0  0  0  0  0  0  0  0  0  0
    3.4090  -10.5260   -4.3650 C   0  0  0  0  0  0  0  0  0  0  0  0
    3.6090  -11.6200   -5.2030 C   0  0  0  0  0  0  0  0  0  0  0  0
    3.0390  -12.8530   -4.8890 C   0  0  0  0  0  0  0  0  0  0  0  0
    1.6940  -15.2260    0.0280 C   0  0  2  0  0  0  0  0  0  0  0  0
    0.8659  -13.3612    2.0306 H   0  0  0  0  0  0  0  0  0  0  0  0
    0.4154  -12.1270    0.8058 H   0  0  0  0  0  0  0  0  0  0  0  0
   -0.3952  -13.7300    0.8058 H   0  0  0  0  0  0  0  0  0  0  0  0
    1.4230  -13.3180   -0.8550 H   0  0  0  0  0  0  0  0  0  0  0  0
    2.8200  -11.1920    0.0479 H   0  0  0  0  0  0  0  0  0  0  0  0
    5.1328  -10.7781    0.9506 H   0  0  0  0  0  0  0  0  0  0  0  0
    7.8320  -14.1590    0.8320 H   0  0  0  0  0  0  0  0  0  0  0  0
    7.9023  -14.1046   -2.1011 H   0  0  0  0  0  0  0  0  0  0  0  0
    9.7211  -14.1414   -3.7931 H   0  0  0  0  0  0  0  0  0  0  0  0
   13.4183  -14.7434   -2.1410 H   0  0  0  0  0  0  0  0  0  0  0  0
   12.8578  -15.4924   -3.6744 H   0  0  0  0  0  0  0  0  0  0  0  0
   14.2935  -14.4129   -3.6744 H   0  0  0  0  0  0  0  0  0  0  0  0
   13.4773  -11.8443   -2.3890 H   0  0  0  0  0  0  0  0  0  0  0  0
   14.2380  -12.3242   -3.9439 H   0  0  0  0  0  0  0  0  0  0  0  0
   12.7725  -11.2855   -3.9439 H   0  0  0  0  0  0  0  0  0  0  0  0
   10.7292  -13.6530   -4.8585 H   0  0  0  0  0  0  0  0  0  0  0  0
   12.0018  -12.5312   -5.4491 H   0  0  0  0  0  0  0  0  0  0  0  0
   12.2961  -14.3032   -5.4491 H   0  0  0  0  0  0  0  0  0  0  0  0
   12.4744  -12.5826   -0.8608 H   0  0  0  0  0  0  0  0  0  0  0  0
   10.6559  -12.5496    0.8260 H   0  0  0  0  0  0  0  0  0  0  0  0
    5.5844  -15.0123    1.8253 H   0  0  0  0  0  0  0  0  0  0  0  0
    3.0092  -15.5631    3.0433 H   0  0  0  0  0  0  0  0  0  0  0  0
    1.4161  -16.0702    2.3864 H   0  0  0  0  0  0  0  0  0  0  0  0
    2.7951  -17.2213    2.3864 H   0  0  0  0  0  0  0  0  0  0  0  0
    4.5063  -16.3733   -0.4358 H   0  0  0  0  0  0  0  0  0  0  0  0
    3.9472  -17.6080    0.6871 H   0  0  0  0  0  0  0  0  0  0  0  0
    3.0386  -17.6499   -1.8333 H   0  0  0  0  0  0  0  0  0  0  0  0
    1.8609  -17.9341   -0.5674 H   0  0  0  0  0  0  0  0  0  0  0  0
    0.9700  -16.1160   -1.7070 H   0  0  0  0  0  0  0  0  0  0  0  0
    3.3928  -14.4619   -1.9923 H   0  0  0  0  0  0  0  0  0  0  0  0
    3.1761  -15.9121   -3.0531 H   0  0  0  0  0  0  0  0  0  0  0  0
    1.5501  -14.9296   -4.2788 H   0  0  0  0  0  0  0  0  0  0  0  0
    0.7800  -14.1931   -2.8048 H   0  0  0  0  0  0  0  0  0  0  0  0
    1.4290  -11.9874   -1.9994 H   0  0  0  0  0  0  0  0  0  0  0  0
    2.4519   -9.7882   -2.5698 H   0  0  0  0  0  0  0  0  0  0  0  0
    3.8713   -9.5573   -4.6057 H   0  0  0  0  0  0  0  0  0  0  0  0
    4.2170  -11.5113   -6.1132 H   0  0  0  0  0  0  0  0  0  0  0  0
    3.1902  -13.7119   -5.5594 H   0  0  0  0  0  0  0  0  0  0  0  0
    0.7133  -15.5578    0.3997 H   0  0  0  0  0  0  0  0  0  0  0  0
  1  2  1  0
  2  3  1  0
  3  4  2  0
  4  5  1  0
  5  6  2  0
  6  7  1  0
  7  8  1  0
  8  9  2  0
  8 10  1  0
 10 11  1  0
 11 12  2  0
 12 13  1  0
 13 14  2  0
 14 15  1  0
 15 16  1  0
 15 17  1  0
 15 18  1  0
 14 19  1  0
 19 20  2  0
  6 21  1  0
 21 22  2  0
 22 23  1  0
 23 24  1  1
 23 25  1  0
 25 26  1  0
 26 27  1  0
 27 28  1  0
 28 29  1  0
 29 30  1  0
 30 31  2  0
 31 32  1  0
 32 33  2  0
 33 34  1  0
 34 35  2  0
 27 36  1  0
 36  2  1  0
 22  3  1  0
 36 23  1  0
 20 11  1  0
 35 30  1  0
  1 37  1  0
  1 38  1  0
  1 39  1  0
  2 40  1  0
  4 41  1  0
  5 42  1  0
 10 43  1  0
 12 44  1  0
 13 45  1  0
 16 46  1  0
 16 47  1  0
 16 48  1  0
 17 49  1  0
 17 50  1  0
 17 51  1  0
 18 52  1  0
 18 53  1  0
 18 54  1  0
 19 55  1  0
 20 56  1  0
 21 57  1  0
 24 58  1  0
 24 59  1  0
 24 60  1  0
 25 61  1  0
 25 62  1  0
 26 63  1  0
 26 64  1  0
 27 65  1  0
 28 66  1  0
 28 67  1  0
 29 68  1  0
 29 69  1  0
 31 70  1  0
 32 71  1  0
 33 72  1  0
 34 73  1  0
 35 74  1  0
 36 75  1  1
M  CHG  2   2   1  27   1
M  END
>  <meeko>  (7) 
{"is_sidechain": [false], "free_energy": -7.539, "intermolecular_energy": -11.491, "internal_energy": -1.62}

$$$$
LIB_XYIWCLMRECCCLF__M_PUB_ALL__e8__s20260927
     RDKit          3D

 75 79  0  0  0  0  0  0  0  0999 V2000
    6.2100  -15.7130    0.0840 C   0  0  0  0  0  0  0  0  0  0  0  0
    7.0490  -14.6180   -0.5290 N   0  0  0  0  0  0  0  0  0  0  0  0
    6.2660  -13.8960   -1.5270 C   0  0  0  0  0  0  0  0  0  0  0  0
    5.8630  -14.3940   -2.7540 C   0  0  0  0  0  0  0  0  0  0  0  0
    5.1000  -13.5590   -3.5700 C   0  0  0  0  0  0  0  0  0  0  0  0
    4.7760  -12.2650   -3.1340 C   0  0  0  0  0  0  0  0  0  0  0  0
    3.9560  -11.4800   -3.9510 O   0  0  0  0  0  0  0  0  0  0  0  0
    2.9790  -10.7960   -3.2240 C   0  0  0  0  0  0  0  0  0  0  0  0
    2.5940   -9.6690   -3.5070 O   0  0  0  0  0  0  0  0  0  0  0  0
    2.5580  -11.5970   -2.1980 N   0  0  0  0  0  0  0  0  0  0  0  0
    1.5860  -11.3190   -1.2200 C   0  0  0  0  0  0  0  0  0  0  0  0
    0.7850  -10.1800   -1.2170 C   0  0  0  0  0  0  0  0  0  0  0  0
   -0.1650   -9.9750   -0.2040 C   0  0  0  0  0  0  0  0  0  0  0  0
   -0.3430  -10.9020    0.8340 C   0  0  0  0  0  0  0  0  0  0  0  0
   -1.3750  -10.7050    1.9590 C   0  0  0  0  0  0  0  0  0  0  0  0
   -2.7860  -11.0540    1.4370 C   0  0  0  0  0  0  0  0  0  0  0  0
   -1.4350   -9.2610    2.5060 C   0  0  0  0  0  0  0  0  0  0  0  0
   -1.0300  -11.6290    3.1460 C   0  0  0  0  0  0  0  0  0  0  0  0
    0.4740  -12.0460    0.8150 C   0  0  0  0  0  0  0  0  0  0  0  0
    1.4220  -12.2510   -0.1940 C   0  0  0  0  0  0  0  0  0  0  0  0
    5.2460  -11.7490   -1.9220 C   0  0  0  0  0  0  0  0  0  0  0  0
    5.9950  -12.5890   -1.1160 C   0  0  0  0  0  0  0  0  0  0  0  0
    6.5720  -12.3160    0.2410 C   0  0  2  0  0  0  0  0  0  0  0  0
    5.4760  -12.2170    1.3030 C   0  0  0  0  0  0  0  0  0  0  0  0
    7.5310  -11.1190    0.2910 C   0  0  0  0  0  0  0  0  0  0  0  0
    8.7950  -11.6740    0.9180 C   0  0  0  0  0  0  0  0  0  0  0  0
    8.9000  -13.0740    0.3120 N   0  0  0  0  0  0  0  0  0  0  0  0
    9.6160  -13.0350   -1.0400 C   0  0  0  0  0  0  0  0  0  0  0  0
   10.9590  -13.7810   -0.9820 C   0  0  0  0  0  0  0  0  0  0  0  0
   11.9860  -13.1920   -1.9130 C   0  0  0  0  0  0  0  0  0  0  0  0
   12.6370  -11.9900   -1.5970 C   0  0  0  0  0  0  0  0  0  0  0  0
   13.6280  -11.4870   -2.4400 C   0  0  0  0  0  0  0  0  0  0  0  0
   13.9720  -12.1710   -3.6050 C   0  0  0  0  0  0  0  0  0  0  0  0
   13.3100  -13.3500   -3.9420 C   0  0  0  0  0  0  0  0  0  0  0  0
   12.3170  -13.8570   -3.1050 C   0  0  0  0  0  0  0  0  0  0  0  0
    7.4770  -13.5720    0.4410 C   0  0  2  0  0  0  0  0  0  0  0  0
    6.2624  -15.6447    1.1806 H   0  0  0  0  0  0  0  0  0  0  0  0
    5.1652  -15.5999   -0.2410 H   0  0  0  0  0  0  0  0  0  0  0  0
    6.5911  -16.6924   -0.2410 H   0  0  0  0  0  0  0  0  0  0  0  0
    7.8260  -15.0910   -0.9960 H   0  0  0  0  0  0  0  0  0  0  0  0
    6.1345  -15.4109   -3.0738 H   0  0  0  0  0  0  0  0  0  0  0  0
    4.7534  -13.9135   -4.5519 H   0  0  0  0  0  0  0  0  0  0  0  0
    3.0140  -12.4980   -2.1430 H   0  0  0  0  0  0  0  0  0  0  0  0
    0.8978   -9.4331   -2.0167 H   0  0  0  0  0  0  0  0  0  0  0  0
   -0.7844   -9.0662   -0.2245 H   0  0  0  0  0  0  0  0  0  0  0  0
   -3.4613  -11.2210    2.2891 H   0  0  0  0  0  0  0  0  0  0  0  0
   -3.1665  -10.2229    0.8250 H   0  0  0  0  0  0  0  0  0  0  0  0
   -2.7352  -11.9666    0.8250 H   0  0  0  0  0  0  0  0  0  0  0  0
   -1.4340   -9.2852    3.6057 H   0  0  0  0  0  0  0  0  0  0  0  0
   -0.5595   -8.6977    2.1508 H   0  0  0  0  0  0  0  0  0  0  0  0
   -2.3542   -8.7723    2.1508 H   0  0  0  0  0  0  0  0  0  0  0  0
   -1.2270  -11.1013    4.0908 H   0  0  0  0  0  0  0  0  0  0  0  0
   -1.6499  -12.5363    3.0966 H   0  0  0  0  0  0  0  0  0  0  0  0
    0.0329  -11.9080    3.0966 H   0  0  0  0  0  0  0  0  0  0  0  0
    0.3657  -12.7971    1.6113 H   0  0  0  0  0  0  0  0  0  0  0  0
    2.0452  -13.1573   -0.1783 H   0  0  0  0  0  0  0  0  0  0  0  0
    5.0285  -10.7138   -1.6203 H   0  0  0  0  0  0  0  0  0  0  0  0
    5.9305  -12.2581    2.3039 H   0  0  0  0  0  0  0  0  0  0  0  0
    4.9354  -11.2664    1.1845 H   0  0  0  0  0  0  0  0  0  0  0  0
    4.7738  -13.0554    1.1845 H   0  0  0  0  0  0  0  0  0  0  0  0
    7.7330  -10.7396   -0.7215 H   0  0  0  0  0  0  0  0  0  0  0  0
    7.1170  -10.2737    0.8603 H   0  0  0  0  0  0  0  0  0  0  0  0
    9.6692  -11.0621    0.6511 H   0  0  0  0  0  0  0  0  0  0  0  0
    8.7639  -11.6811    2.0175 H   0  0  0  0  0  0  0  0  0  0  0  0
    9.4910  -13.6160    0.9570 H   0  0  0  0  0  0  0  0  0  0  0  0
    8.9754  -13.5085   -1.7986 H   0  0  0  0  0  0  0  0  0  0  0  0
    9.8132  -11.9841   -1.2985 H   0  0  0  0  0  0  0  0  0  0  0  0
   11.3458  -13.7319    0.0466 H   0  0  0  0  0  0  0  0  0  0  0  0
   10.7787  -14.8194   -1.2968 H   0  0  0  0  0  0  0  0  0  0  0  0
   12.3652  -11.4429   -0.6822 H   0  0  0  0  0  0  0  0  0  0  0  0
   14.1398  -10.5474   -2.1846 H   0  0  0  0  0  0  0  0  0  0  0  0
   14.7660  -11.7800   -4.2582 H   0  0  0  0  0  0  0  0  0  0  0  0
   13.5711  -13.8811   -4.8692 H   0  0  0  0  0  0  0  0  0  0  0  0
   11.7900  -14.7827   -3.3796 H   0  0  0  0  0  0  0  0  0  0  0  0
    7.3938  -14.0617    1.4225 H   0  0  0  0  0  0  0  0  0  0  0  0
  1  2  1  0
  2  3  1  0
  3  4  2  0
  4  5  1  0
  5  6  2  0
  6  7  1  0
  7  8  1  0
  8  9  2  0
  8 10  1  0
 10 11  1  0
 11 12  2  0
 12 13  1  0
 13 14  2  0
 14 15  1  0
 15 16  1  0
 15 17  1  0
 15 18  1  0
 14 19  1  0
 19 20  2  0
  6 21  1  0
 21 22  2  0
 22 23  1  0
 23 24  1  1
 23 25  1  0
 25 26  1  0
 26 27  1  0
 27 28  1  0
 28 29  1  0
 29 30  1  0
 30 31  2  0
 31 32  1  0
 32 33  2  0
 33 34  1  0
 34 35  2  0
 27 36  1  0
 36  2  1  0
 22  3  1  0
 36 23  1  0
 20 11  1  0
 35 30  1  0
  1 37  1  0
  1 38  1  0
  1 39  1  0
  2 40  1  0
  4 41  1  0
  5 42  1  0
 10 43  1  0
 12 44  1  0
 13 45  1  0
 16 46  1  0
 16 47  1  0
 16 48  1  0
 17 49  1  0
 17 50  1  0
 17 51  1  0
 18 52  1  0
 18 53  1  0
 18 54  1  0
 19 55  1  0
 20 56  1  0
 21 57  1  0
 24 58  1  0
 24 59  1  0
 24 60  1  0
 25 61  1  0
 25 62  1  0
 26 63  1  0
 26 64  1  0
 27 65  1  0
 28 66  1  0
 28 67  1  0
 29 68  1  0
 29 69  1  0
 31 70  1  0
 32 71  1  0
 33 72  1  0
 34 73  1  0
 35 74  1  0
 36 75  1  1
M  CHG  2   2   1  27   1
M  END
>  <meeko>  (8) 
{"is_sidechain": [false], "free_energy": -7.485, "intermolecular_energy": -12.731, "internal_energy": -0.303}

$$$$
LIB_XYIWCLMRECCCLF__M_PUB_ALL__e8__s20260927
     RDKit          3D

 75 79  0  0  0  0  0  0  0  0999 V2000
   -9.3880  -15.4010  -10.5120 C   0  0  0  0  0  0  0  0  0  0  0  0
  -10.7730  -15.2780   -9.9250 N   0  0  0  0  0  0  0  0  0  0  0  0
  -11.1680  -13.8740   -9.8800 C   0  0  0  0  0  0  0  0  0  0  0  0
  -10.6320  -12.9100   -9.0440 C   0  0  0  0  0  0  0  0  0  0  0  0
  -11.1250  -11.6100   -9.1590 C   0  0  0  0  0  0  0  0  0  0  0  0
  -12.1310  -11.3260  -10.0960 C   0  0  0  0  0  0  0  0  0  0  0  0
  -12.5540  -10.0000  -10.2280 O   0  0  0  0  0  0  0  0  0  0  0  0
  -13.3640   -9.5910   -9.1650 C   0  0  0  0  0  0  0  0  0  0  0  0
  -14.4800  -10.0480   -8.9550 O   0  0  0  0  0  0  0  0  0  0  0  0
  -12.6920   -8.6410   -8.4450 N   0  0  0  0  0  0  0  0  0  0  0  0
  -13.1220   -7.9580   -7.2930 C   0  0  0  0  0  0  0  0  0  0  0  0
  -13.1620   -8.5230   -6.0210 C   0  0  0  0  0  0  0  0  0  0  0  0
  -13.6050   -7.7730   -4.9190 C   0  0  0  0  0  0  0  0  0  0  0  0
  -14.0190   -6.4400   -5.0560 C   0  0  0  0  0  0  0  0  0  0  0  0
  -14.5100   -5.5930   -3.8690 C   0  0  0  0  0  0  0  0  0  0  0  0
  -16.0050   -5.8820   -3.6080 C   0  0  0  0  0  0  0  0  0  0  0  0
  -14.3720   -4.0690   -4.0880 C   0  0  0  0  0  0  0  0  0  0  0  0
  -13.6970   -5.9490   -2.6060 C   0  0  0  0  0  0  0  0  0  0  0  0
  -13.9720   -5.8870   -6.3490 C   0  0  0  0  0  0  0  0  0  0  0  0
  -13.5310   -6.6330   -7.4480 C   0  0  0  0  0  0  0  0  0  0  0  0
  -12.7110  -12.3220  -10.8880 C   0  0  0  0  0  0  0  0  0  0  0  0
  -12.2080  -13.6070  -10.7720 C   0  0  0  0  0  0  0  0  0  0  0  0
  -12.6040  -14.8390  -11.5290 C   0  0  2  0  0  0  0  0  0  0  0  0
  -12.1600  -14.7610  -12.9920 C   0  0  0  0  0  0  0  0  0  0  0  0
  -14.0860  -15.2150  -11.3970 C   0  0  0  0  0  0  0  0  0  0  0  0
  -14.0700  -16.6600  -10.9400 C   0  0  0  0  0  0  0  0  0  0  0  0
  -12.8880  -16.7060   -9.9710 N   0  0  0  0  0  0  0  0  0  0  0  0
  -13.3180  -16.2900   -8.5610 C   0  0  0  0  0  0  0  0  0  0  0  0
  -14.6560  -16.9400   -8.1700 C   0  0  0  0  0  0  0  0  0  0  0  0
  -14.8420  -17.0190   -6.6790 C   0  0  0  0  0  0  0  0  0  0  0  0
  -13.7380  -17.1190   -5.8190 C   0  0  0  0  0  0  0  0  0  0  0  0
  -13.9240  -17.1320   -4.4370 C   0  0  0  0  0  0  0  0  0  0  0  0
  -15.2080  -17.0520   -3.9010 C   0  0  0  0  0  0  0  0  0  0  0  0
  -16.3130  -16.9820   -4.7470 C   0  0  0  0  0  0  0  0  0  0  0  0
  -16.1340  -16.9710   -6.1290 C   0  0  0  0  0  0  0  0  0  0  0  0
  -11.8320  -15.9400  -10.7360 C   0  0  2  0  0  0  0  0  0  0  0  0
   -8.6498  -15.4666   -9.6992 H   0  0  0  0  0  0  0  0  0  0  0  0
   -9.3319  -16.3077  -11.1323 H   0  0  0  0  0  0  0  0  0  0  0  0
   -9.1730  -14.5184  -11.1323 H   0  0  0  0  0  0  0  0  0  0  0  0
  -10.7030  -15.6340   -8.9690 H   0  0  0  0  0  0  0  0  0  0  0  0
   -9.8463  -13.1596   -8.3158 H   0  0  0  0  0  0  0  0  0  0  0  0
  -10.7267  -10.8101   -8.5175 H   0  0  0  0  0  0  0  0  0  0  0  0
  -11.7740   -8.4060   -8.7990 H   0  0  0  0  0  0  0  0  0  0  0  0
  -12.8438   -9.5662   -5.8778 H   0  0  0  0  0  0  0  0  0  0  0  0
  -13.6278   -8.2425   -3.9245 H   0  0  0  0  0  0  0  0  0  0  0  0
  -16.1878   -5.9173   -2.5239 H   0  0  0  0  0  0  0  0  0  0  0  0
  -16.6163   -5.0854   -4.0571 H   0  0  0  0  0  0  0  0  0  0  0  0
  -16.2754   -6.8490   -4.0571 H   0  0  0  0  0  0  0  0  0  0  0  0
  -14.3260   -3.5612   -3.1133 H   0  0  0  0  0  0  0  0  0  0  0  0
  -13.4514   -3.8617   -4.6533 H   0  0  0  0  0  0  0  0  0  0  0  0
  -15.2404   -3.6997   -4.6533 H   0  0  0  0  0  0  0  0  0  0  0  0
  -14.2812   -5.6932   -1.7097 H   0  0  0  0  0  0  0  0  0  0  0  0
  -13.4755   -7.0265   -2.6041 H   0  0  0  0  0  0  0  0  0  0  0  0
  -12.7550   -5.3810   -2.6041 H   0  0  0  0  0  0  0  0  0  0  0  0
  -14.2891   -4.8445   -6.4995 H   0  0  0  0  0  0  0  0  0  0  0  0
  -13.5066   -6.1695   -8.4453 H   0  0  0  0  0  0  0  0  0  0  0  0
  -13.5366  -12.0931  -11.5779 H   0  0  0  0  0  0  0  0  0  0  0  0
  -11.0775  -14.5708  -13.0370 H   0  0  0  0  0  0  0  0  0  0  0  0
  -12.3863  -15.7127  -13.4951 H   0  0  0  0  0  0  0  0  0  0  0  0
  -12.6971  -13.9435  -13.4951 H   0  0  0  0  0  0  0  0  0  0  0  0
  -14.5845  -14.5769  -10.6524 H   0  0  0  0  0  0  0  0  0  0  0  0
  -14.6380  -15.0796  -12.3388 H   0  0  0  0  0  0  0  0  0  0  0  0
  -15.0086  -16.9231  -10.4303 H   0  0  0  0  0  0  0  0  0  0  0  0
  -13.9751  -17.3746  -11.7709 H   0  0  0  0  0  0  0  0  0  0  0  0
  -12.6010  -17.6940   -9.9250 H   0  0  0  0  0  0  0  0  0  0  0  0
  -12.5447  -16.6025   -7.8438 H   0  0  0  0  0  0  0  0  0  0  0  0
  -13.4451  -15.1975   -8.5450 H   0  0  0  0  0  0  0  0  0  0  0  0
  -15.4762  -16.3443   -8.5971 H   0  0  0  0  0  0  0  0  0  0  0  0
  -14.6568  -17.9675   -8.5627 H   0  0  0  0  0  0  0  0  0  0  0  0
  -12.7225  -17.1874   -6.2362 H   0  0  0  0  0  0  0  0  0  0  0  0
  -13.0542  -17.2057   -3.7676 H   0  0  0  0  0  0  0  0  0  0  0  0
  -15.3491  -17.0441   -2.8101 H   0  0  0  0  0  0  0  0  0  0  0  0
  -17.3272  -16.9354   -4.3237 H   0  0  0  0  0  0  0  0  0  0  0  0
  -17.0095  -16.9245   -6.7933 H   0  0  0  0  0  0  0  0  0  0  0  0
  -11.2856  -16.6698  -11.3514 H   0  0  0  0  0  0  0  0  0  0  0  0
  1  2  1  0
  2  3  1  0
  3  4  2  0
  4  5  1  0
  5  6  2  0
  6  7  1  0
  7  8  1  0
  8  9  2  0
  8 10  1  0
 10 11  1  0
 11 12  2  0
 12 13  1  0
 13 14  2  0
 14 15  1  0
 15 16  1  0
 15 17  1  0
 15 18  1  0
 14 19  1  0
 19 20  2  0
  6 21  1  0
 21 22  2  0
 22 23  1  0
 23 24  1  6
 23 25  1  0
 25 26  1  0
 26 27  1  0
 27 28  1  0
 28 29  1  0
 29 30  1  0
 30 31  2  0
 31 32  1  0
 32 33  2  0
 33 34  1  0
 34 35  2  0
 27 36  1  0
 36  2  1  0
 22  3  1  0
 36 23  1  0
 20 11  1  0
 35 30  1  0
  1 37  1  0
  1 38  1  0
  1 39  1  0
  2 40  1  0
  4 41  1  0
  5 42  1  0
 10 43  1  0
 12 44  1  0
 13 45  1  0
 16 46  1  0
 16 47  1  0
 16 48  1  0
 17 49  1  0
 17 50  1  0
 17 51  1  0
 18 52  1  0
 18 53  1  0
 18 54  1  0
 19 55  1  0
 20 56  1  0
 21 57  1  0
 24 58  1  0
 24 59  1  0
 24 60  1  0
 25 61  1  0
 25 62  1  0
 26 63  1  0
 26 64  1  0
 27 65  1  0
 28 66  1  0
 28 67  1  0
 29 68  1  0
 29 69  1  0
 31 70  1  0
 32 71  1  0
 33 72  1  0
 34 73  1  0
 35 74  1  0
 36 75  1  6
M  CHG  2   2   1  27   1
M  END
>  <meeko>  (9) 
{"is_sidechain": [false], "free_energy": -7.329, "intermolecular_energy": -11.652, "internal_energy": -1.164}

$$$$
