LIB_PONILUFZRIPFJP__M_PUB_ALL__e8__s20260927
     RDKit          3D

 45 48  0  0  0  0  0  0  0  0999 V2000
  -15.2040  -18.4370  -11.5870 O   0  0  0  0  0  0  0  0  0  0  0  0
  -14.9940  -18.5950  -10.3500 C   0  0  0  0  0  0  0  0  0  0  0  0
  -14.5520  -19.6110   -9.7410 O   0  0  0  0  0  0  0  0  0  0  0  0
  -15.3780  -17.4100   -9.4540 C   0  0  0  0  0  0  0  0  0  0  0  0
  -14.1610  -16.6910   -8.9400 C   0  0  0  0  0  0  0  0  0  0  0  0
  -12.9730  -16.1430  -10.0530 S   0  0  0  0  0  0  0  0  0  0  0  0
  -11.9860  -15.5320   -8.7560 C   0  0  0  0  0  0  0  0  0  0  0  0
  -10.7680  -14.8980   -8.9730 N   0  0  0  0  0  0  0  0  0  0  0  0
  -10.7330  -13.6110   -9.6150 C   0  0  0  0  0  0  0  0  0  0  0  0
  -10.5220  -13.4870  -11.0000 C   0  0  0  0  0  0  0  0  0  0  0  0
  -10.4930  -12.2310  -11.6130 C   0  0  0  0  0  0  0  0  0  0  0  0
  -10.6810  -11.0790  -10.8530 C   0  0  0  0  0  0  0  0  0  0  0  0
  -10.8980  -11.1780   -9.4810 C   0  0  0  0  0  0  0  0  0  0  0  0
  -10.9240  -12.4340   -8.8680 C   0  0  0  0  0  0  0  0  0  0  0  0
   -9.5620  -15.5230   -8.4900 C   0  0  0  0  0  0  0  0  0  0  0  0
   -9.4840  -16.0290   -7.1780 C   0  0  0  0  0  0  0  0  0  0  0  0
   -8.3130  -16.6210   -6.6940 C   0  0  0  0  0  0  0  0  0  0  0  0
   -7.1920  -16.7210   -7.5140 C   0  0  0  0  0  0  0  0  0  0  0  0
   -7.2430  -16.2310   -8.8160 C   0  0  0  0  0  0  0  0  0  0  0  0
   -8.4150  -15.6380   -9.2970 C   0  0  0  0  0  0  0  0  0  0  0  0
  -12.4880  -15.8030   -7.5660 N   0  0  0  0  0  0  0  0  0  0  0  0
  -13.7360  -16.4040   -7.6540 C   0  0  0  0  0  0  0  0  0  0  0  0
  -14.4430  -16.7470   -6.4280 C   0  0  0  0  0  0  0  0  0  0  0  0
  -15.8420  -16.7500   -6.3550 C   0  0  0  0  0  0  0  0  0  0  0  0
  -16.4890  -17.0680   -5.1590 C   0  0  0  0  0  0  0  0  0  0  0  0
  -15.7370  -17.3690   -4.0310 C   0  0  0  0  0  0  0  0  0  0  0  0
  -16.3570  -17.6710   -2.8820 F   0  0  0  0  0  0  0  0  0  0  0  0
  -14.3480  -17.3530   -4.0730 C   0  0  0  0  0  0  0  0  0  0  0  0
  -13.7010  -17.0370   -5.2710 C   0  0  0  0  0  0  0  0  0  0  0  0
  -15.9903  -16.7054  -10.0360 H   0  0  0  0  0  0  0  0  0  0  0  0
  -15.9402  -17.7972   -8.5915 H   0  0  0  0  0  0  0  0  0  0  0  0
  -10.3777  -14.3912  -11.6095 H   0  0  0  0  0  0  0  0  0  0  0  0
  -10.3215  -12.1524  -12.6967 H   0  0  0  0  0  0  0  0  0  0  0  0
  -10.6581  -10.0912  -11.3364 H   0  0  0  0  0  0  0  0  0  0  0  0
  -11.0488  -10.2689   -8.8803 H   0  0  0  0  0  0  0  0  0  0  0  0
  -11.0966  -12.5034   -7.7838 H   0  0  0  0  0  0  0  0  0  0  0  0
  -10.3626  -15.9571   -6.5201 H   0  0  0  0  0  0  0  0  0  0  0  0
   -8.2775  -17.0079   -5.6649 H   0  0  0  0  0  0  0  0  0  0  0  0
   -6.2699  -17.1853   -7.1345 H   0  0  0  0  0  0  0  0  0  0  0  0
   -6.3603  -16.3103   -9.4676 H   0  0  0  0  0  0  0  0  0  0  0  0
   -8.4406  -15.2536  -10.3273 H   0  0  0  0  0  0  0  0  0  0  0  0
  -16.4355  -16.4999   -7.2467 H   0  0  0  0  0  0  0  0  0  0  0  0
  -17.5879  -17.0800   -5.1107 H   0  0  0  0  0  0  0  0  0  0  0  0
  -13.7629  -17.5870   -3.1714 H   0  0  0  0  0  0  0  0  0  0  0  0
  -12.6018  -17.0152   -5.3081 H   0  0  0  0  0  0  0  0  0  0  0  0
  1  2  2  0
  2  3  1  0
  2  4  1  0
  4  5  1  0
  5  6  1  0
  6  7  1  0
  7  8  1  0
  8  9  1  0
  9 10  2  0
 10 11  1  0
 11 12  2  0
 12 13  1  0
 13 14  2  0
  8 15  1  0
 15 16  2  0
 16 17  1  0
 17 18  2  0
 18 19  1  0
 19 20  2  0
  7 21  2  0
 21 22  1  0
 22 23  1  0
 23 24  2  0
 24 25  1  0
 25 26  2  0
 26 27  1  0
 26 28  1  0
 28 29  2  0
 22  5  2  0
 29 23  1  0
 14  9  1  0
 20 15  1  0
  4 30  1  0
  4 31  1  0
 10 32  1  0
 11 33  1  0
 12 34  1  0
 13 35  1  0
 14 36  1  0
 16 37  1  0
 17 38  1  0
 18 39  1  0
 19 40  1  0
 20 41  1  0
 24 42  1  0
 25 43  1  0
 28 44  1  0
 29 45  1  0
M  CHG  1   3  -1
M  END
>  <meeko>  (1) 
{"is_sidechain": [false], "free_energy": -8.663, "intermolecular_energy": -11.701, "internal_energy": -0.652}

$$$$
LIB_PONILUFZRIPFJP__M_PUB_ALL__e8__s20260927
     RDKit          3D

 45 48  0  0  0  0  0  0  0  0999 V2000
   -1.5120   -8.0750    3.9560 O   0  0  0  0  0  0  0  0  0  0  0  0
   -1.4830   -9.2100    3.4000 C   0  0  0  0  0  0  0  0  0  0  0  0
   -1.3590  -10.3530    3.9270 O   0  0  0  0  0  0  0  0  0  0  0  0
   -1.5560   -9.2010    1.8660 C   0  0  0  0  0  0  0  0  0  0  0  0
   -0.9030  -10.4200    1.2760 C   0  0  0  0  0  0  0  0  0  0  0  0
    0.7410  -10.3400    0.7840 S   0  0  0  0  0  0  0  0  0  0  0  0
    0.6930  -11.9880    0.2250 C   0  0  0  0  0  0  0  0  0  0  0  0
    1.7930  -12.6240   -0.3360 N   0  0  0  0  0  0  0  0  0  0  0  0
    1.8140  -12.9110   -1.7460 C   0  0  0  0  0  0  0  0  0  0  0  0
    2.2210  -11.9470   -2.6860 C   0  0  0  0  0  0  0  0  0  0  0  0
    2.2410  -12.2400   -4.0520 C   0  0  0  0  0  0  0  0  0  0  0  0
    1.8600  -13.5020   -4.5020 C   0  0  0  0  0  0  0  0  0  0  0  0
    1.4600  -14.4740   -3.5880 C   0  0  0  0  0  0  0  0  0  0  0  0
    1.4380  -14.1800   -2.2220 C   0  0  0  0  0  0  0  0  0  0  0  0
    2.9250  -12.9310    0.5040 C   0  0  0  0  0  0  0  0  0  0  0  0
    4.0430  -12.0770    0.5510 C   0  0  0  0  0  0  0  0  0  0  0  0
    5.1530  -12.3740    1.3490 C   0  0  0  0  0  0  0  0  0  0  0  0
    5.1670  -13.5340    2.1190 C   0  0  0  0  0  0  0  0  0  0  0  0
    4.0730  -14.3940    2.0920 C   0  0  0  0  0  0  0  0  0  0  0  0
    2.9650  -14.0950    1.2930 C   0  0  0  0  0  0  0  0  0  0  0  0
   -0.5100  -12.5240    0.3300 N   0  0  0  0  0  0  0  0  0  0  0  0
   -1.4020  -11.6740    0.9700 C   0  0  0  0  0  0  0  0  0  0  0  0
   -2.7700  -12.1230    1.1900 C   0  0  0  0  0  0  0  0  0  0  0  0
   -3.7900  -11.8720    0.2640 C   0  0  0  0  0  0  0  0  0  0  0  0
   -5.0950  -12.3020    0.5120 C   0  0  0  0  0  0  0  0  0  0  0  0
   -5.3840  -12.9700    1.6960 C   0  0  0  0  0  0  0  0  0  0  0  0
   -6.6370  -13.3800    1.9370 F   0  0  0  0  0  0  0  0  0  0  0  0
   -4.3920  -13.2130    2.6390 C   0  0  0  0  0  0  0  0  0  0  0  0
   -3.0860  -12.7850    2.3880 C   0  0  0  0  0  0  0  0  0  0  0  0
   -2.6119   -9.1770    1.5586 H   0  0  0  0  0  0  0  0  0  0  0  0
   -1.0213   -8.3120    1.5003 H   0  0  0  0  0  0  0  0  0  0  0  0
    2.5278  -10.9486   -2.3409 H   0  0  0  0  0  0  0  0  0  0  0  0
    2.5582  -11.4726   -4.7734 H   0  0  0  0  0  0  0  0  0  0  0  0
    1.8750  -13.7307   -5.5779 H   0  0  0  0  0  0  0  0  0  0  0  0
    1.1617  -15.4722   -3.9411 H   0  0  0  0  0  0  0  0  0  0  0  0
    1.1214  -14.9538   -1.5072 H   0  0  0  0  0  0  0  0  0  0  0  0
    4.0439  -11.1571   -0.0522 H   0  0  0  0  0  0  0  0  0  0  0  0
    6.0150  -11.6909    1.3682 H   0  0  0  0  0  0  0  0  0  0  0  0
    6.0393  -13.7698    2.7462 H   0  0  0  0  0  0  0  0  0  0  0  0
    4.0800  -15.3105    2.7002 H   0  0  0  0  0  0  0  0  0  0  0  0
    2.1075  -14.7838    1.2812 H   0  0  0  0  0  0  0  0  0  0  0  0
   -3.5612  -11.3316   -0.6664 H   0  0  0  0  0  0  0  0  0  0  0  0
   -5.8894  -12.1133   -0.2251 H   0  0  0  0  0  0  0  0  0  0  0  0
   -4.6333  -13.7379    3.5751 H   0  0  0  0  0  0  0  0  0  0  0  0
   -2.2989  -12.9678    3.1344 H   0  0  0  0  0  0  0  0  0  0  0  0
  1  2  2  0
  2  3  1  0
  2  4  1  0
  4  5  1  0
  5  6  1  0
  6  7  1  0
  7  8  1  0
  8  9  1  0
  9 10  2  0
 10 11  1  0
 11 12  2  0
 12 13  1  0
 13 14  2  0
  8 15  1  0
 15 16  2  0
 16 17  1  0
 17 18  2  0
 18 19  1  0
 19 20  2  0
  7 21  2  0
 21 22  1  0
 22 23  1  0
 23 24  2  0
 24 25  1  0
 25 26  2  0
 26 27  1  0
 26 28  1  0
 28 29  2  0
 22  5  2  0
 29 23  1  0
 14  9  1  0
 20 15  1  0
  4 30  1  0
  4 31  1  0
 10 32  1  0
 11 33  1  0
 12 34  1  0
 13 35  1  0
 14 36  1  0
 16 37  1  0
 17 38  1  0
 18 39  1  0
 19 40  1  0
 20 41  1  0
 24 42  1  0
 25 43  1  0
 28 44  1  0
 29 45  1  0
M  CHG  1   3  -1
M  END
>  <meeko>  (2) 
{"is_sidechain": [false], "free_energy": -8.149, "intermolecular_energy": -10.287, "internal_energy": -1.372}

$$$$
LIB_PONILUFZRIPFJP__M_PUB_ALL__e8__s20260927
     RDKit          3D

 45 48  0  0  0  0  0  0  0  0999 V2000
   -1.3440  -10.4700    3.9870 O   0  0  0  0  0  0  0  0  0  0  0  0
   -1.4490   -9.3030    3.5120 C   0  0  0  0  0  0  0  0  0  0  0  0
   -1.5740   -8.2020    4.1220 O   0  0  0  0  0  0  0  0  0  0  0  0
   -1.4810   -9.2100    1.9800 C   0  0  0  0  0  0  0  0  0  0  0  0
   -0.8240  -10.4020    1.3410 C   0  0  0  0  0  0  0  0  0  0  0  0
    0.8240  -10.3030    0.8680 S   0  0  0  0  0  0  0  0  0  0  0  0
    0.7800  -11.9240    0.2360 C   0  0  0  0  0  0  0  0  0  0  0  0
    1.8840  -12.5360   -0.3440 N   0  0  0  0  0  0  0  0  0  0  0  0
    3.0130  -12.9000    0.4700 C   0  0  0  0  0  0  0  0  0  0  0  0
    4.1760  -12.1090    0.5090 C   0  0  0  0  0  0  0  0  0  0  0  0
    5.2650  -12.4720    1.3070 C   0  0  0  0  0  0  0  0  0  0  0  0
    5.2070  -13.6270    2.0830 C   0  0  0  0  0  0  0  0  0  0  0  0
    4.0640  -14.4210    2.0660 C   0  0  0  0  0  0  0  0  0  0  0  0
    2.9760  -14.0590    1.2660 C   0  0  0  0  0  0  0  0  0  0  0  0
    1.8480  -12.8500   -1.7510 C   0  0  0  0  0  0  0  0  0  0  0  0
    2.2170  -11.8920   -2.7160 C   0  0  0  0  0  0  0  0  0  0  0  0
    2.1690  -12.1800   -4.0830 C   0  0  0  0  0  0  0  0  0  0  0  0
    1.7510  -13.4360   -4.5170 C   0  0  0  0  0  0  0  0  0  0  0  0
    1.3840  -14.4010   -3.5840 C   0  0  0  0  0  0  0  0  0  0  0  0
    1.4320  -14.1100   -2.2170 C   0  0  0  0  0  0  0  0  0  0  0  0
   -0.4240  -12.4620    0.3060 N   0  0  0  0  0  0  0  0  0  0  0  0
   -1.3210  -11.6410    0.9750 C   0  0  0  0  0  0  0  0  0  0  0  0
   -2.6920  -12.0970    1.1630 C   0  0  0  0  0  0  0  0  0  0  0  0
   -3.7010  -11.8120    0.2340 C   0  0  0  0  0  0  0  0  0  0  0  0
   -5.0090  -12.2500    0.4520 C   0  0  0  0  0  0  0  0  0  0  0  0
   -5.3110  -12.9610    1.6060 C   0  0  0  0  0  0  0  0  0  0  0  0
   -6.5670  -13.3790    1.8180 F   0  0  0  0  0  0  0  0  0  0  0  0
   -4.3310  -13.2380    2.5520 C   0  0  0  0  0  0  0  0  0  0  0  0
   -3.0220  -12.8020    2.3330 C   0  0  0  0  0  0  0  0  0  0  0  0
   -2.5281   -9.1579    1.6470 H   0  0  0  0  0  0  0  0  0  0  0  0
   -0.9282   -8.3083    1.6777 H   0  0  0  0  0  0  0  0  0  0  0  0
    4.2291  -11.1923   -0.0968 H   0  0  0  0  0  0  0  0  0  0  0  0
    6.1685  -11.8448    1.3220 H   0  0  0  0  0  0  0  0  0  0  0  0
    6.0650  -13.9119    2.7097 H   0  0  0  0  0  0  0  0  0  0  0  0
    4.0167  -15.3318    2.6810 H   0  0  0  0  0  0  0  0  0  0  0  0
    2.0759  -14.6913    1.2590 H   0  0  0  0  0  0  0  0  0  0  0  0
    2.5498  -10.8966   -2.3868 H   0  0  0  0  0  0  0  0  0  0  0  0
    2.4615  -11.4143   -4.8166 H   0  0  0  0  0  0  0  0  0  0  0  0
    1.7112  -13.6639   -5.5924 H   0  0  0  0  0  0  0  0  0  0  0  0
    1.0555  -15.3947   -3.9224 H   0  0  0  0  0  0  0  0  0  0  0  0
    1.1383  -14.8826   -1.4912 H   0  0  0  0  0  0  0  0  0  0  0  0
   -3.4613  -11.2390   -0.6739 H   0  0  0  0  0  0  0  0  0  0  0  0
   -5.7954  -12.0331   -0.2860 H   0  0  0  0  0  0  0  0  0  0  0  0
   -4.5841  -13.7959    3.4656 H   0  0  0  0  0  0  0  0  0  0  0  0
   -2.2440  -13.0120    3.0817 H   0  0  0  0  0  0  0  0  0  0  0  0
  1  2  2  0
  2  3  1  0
  2  4  1  0
  4  5  1  0
  5  6  1  0
  6  7  1  0
  7  8  1  0
  8  9  1  0
  9 10  2  0
 10 11  1  0
 11 12  2  0
 12 13  1  0
 13 14  2  0
  8 15  1  0
 15 16  2  0
 16 17  1  0
 17 18  2  0
 18 19  1  0
 19 20  2  0
  7 21  2  0
 21 22  1  0
 22 23  1  0
 23 24  2  0
 24 25  1  0
 25 26  2  0
 26 27  1  0
 26 28  1  0
 28 29  2  0
 22  5  2  0
 29 23  1  0
 14  9  1  0
 20 15  1  0
  4 30  1  0
  4 31  1  0
 10 32  1  0
 11 33  1  0
 12 34  1  0
 13 35  1  0
 14 36  1  0
 16 37  1  0
 17 38  1  0
 18 39  1  0
 19 40  1  0
 20 41  1  0
 24 42  1  0
 25 43  1  0
 28 44  1  0
 29 45  1  0
M  CHG  1   3  -1
M  END
>  <meeko>  (3) 
{"is_sidechain": [false], "free_energy": -8.12, "intermolecular_energy": -10.26, "internal_energy": -1.361}

$$$$
LIB_PONILUFZRIPFJP__M_PUB_ALL__e8__s20260927
     RDKit          3D

 45 48  0  0  0  0  0  0  0  0999 V2000
  -13.6330  -19.1810  -11.0540 O   0  0  0  0  0  0  0  0  0  0  0  0
  -14.6860  -18.5930  -10.6720 C   0  0  0  0  0  0  0  0  0  0  0  0
  -15.6620  -18.1800  -11.3610 O   0  0  0  0  0  0  0  0  0  0  0  0
  -14.7690  -18.2900   -9.1690 C   0  0  0  0  0  0  0  0  0  0  0  0
  -14.2500  -16.9140   -8.8550 C   0  0  0  0  0  0  0  0  0  0  0  0
  -13.4830  -16.0000  -10.0900 S   0  0  0  0  0  0  0  0  0  0  0  0
  -13.1720  -14.6930   -8.9830 C   0  0  0  0  0  0  0  0  0  0  0  0
  -12.5260  -13.5230   -9.3630 N   0  0  0  0  0  0  0  0  0  0  0  0
  -12.8640  -12.2770   -8.7270 C   0  0  0  0  0  0  0  0  0  0  0  0
  -14.1200  -11.6740   -8.9150 C   0  0  0  0  0  0  0  0  0  0  0  0
  -14.4370  -10.4650   -8.2890 C   0  0  0  0  0  0  0  0  0  0  0  0
  -13.5070   -9.8440   -7.4590 C   0  0  0  0  0  0  0  0  0  0  0  0
  -12.2590  -10.4270   -7.2530 C   0  0  0  0  0  0  0  0  0  0  0  0
  -11.9410  -11.6350   -7.8820 C   0  0  0  0  0  0  0  0  0  0  0  0
  -11.4800  -13.5950  -10.3530 C   0  0  0  0  0  0  0  0  0  0  0  0
  -11.6790  -13.0940  -11.6540 C   0  0  0  0  0  0  0  0  0  0  0  0
  -10.6770  -13.1740  -12.6260 C   0  0  0  0  0  0  0  0  0  0  0  0
   -9.4510  -13.7580  -12.3180 C   0  0  0  0  0  0  0  0  0  0  0  0
   -9.2280  -14.2580  -11.0390 C   0  0  0  0  0  0  0  0  0  0  0  0
  -10.2320  -14.1770  -10.0680 C   0  0  0  0  0  0  0  0  0  0  0  0
  -13.5510  -14.9740   -7.7500 N   0  0  0  0  0  0  0  0  0  0  0  0
  -14.2080  -16.1940   -7.6730 C   0  0  0  0  0  0  0  0  0  0  0  0
  -14.7150  -16.6440   -6.3840 C   0  0  0  0  0  0  0  0  0  0  0  0
  -16.0870  -16.6950   -6.1050 C   0  0  0  0  0  0  0  0  0  0  0  0
  -16.5400  -17.1160   -4.8520 C   0  0  0  0  0  0  0  0  0  0  0  0
  -15.6200  -17.4710   -3.8740 C   0  0  0  0  0  0  0  0  0  0  0  0
  -16.0530  -17.8720   -2.6710 F   0  0  0  0  0  0  0  0  0  0  0  0
  -14.2540  -17.4090   -4.1210 C   0  0  0  0  0  0  0  0  0  0  0  0
  -13.8010  -16.9900   -5.3750 C   0  0  0  0  0  0  0  0  0  0  0  0
  -15.8190  -18.3579   -8.8481 H   0  0  0  0  0  0  0  0  0  0  0  0
  -14.1480  -19.0236   -8.6341 H   0  0  0  0  0  0  0  0  0  0  0  0
  -14.8635  -12.1603   -9.5636 H   0  0  0  0  0  0  0  0  0  0  0  0
  -15.4221  -10.0036   -8.4522 H   0  0  0  0  0  0  0  0  0  0  0  0
  -13.7580   -8.8932   -6.9662 H   0  0  0  0  0  0  0  0  0  0  0  0
  -11.5244   -9.9379   -6.5964 H   0  0  0  0  0  0  0  0  0  0  0  0
  -10.9538  -12.0900   -7.7132 H   0  0  0  0  0  0  0  0  0  0  0  0
  -12.6427  -12.6301  -11.9109 H   0  0  0  0  0  0  0  0  0  0  0  0
  -10.8574  -12.7751  -13.6351 H   0  0  0  0  0  0  0  0  0  0  0  0
   -8.6626  -13.8237  -13.0823 H   0  0  0  0  0  0  0  0  0  0  0  0
   -8.2602  -14.7180  -10.7906 H   0  0  0  0  0  0  0  0  0  0  0  0
  -10.0413  -14.5767   -9.0611 H   0  0  0  0  0  0  0  0  0  0  0  0
  -16.8127  -16.4015   -6.8778 H   0  0  0  0  0  0  0  0  0  0  0  0
  -17.6185  -17.1659   -4.6415 H   0  0  0  0  0  0  0  0  0  0  0  0
  -13.5352  -17.6873   -3.3362 H   0  0  0  0  0  0  0  0  0  0  0  0
  -12.7207  -16.9307   -5.5733 H   0  0  0  0  0  0  0  0  0  0  0  0
  1  2  2  0
  2  3  1  0
  2  4  1  0
  4  5  1  0
  5  6  1  0
  6  7  1  0
  7  8  1  0
  8  9  1  0
  9 10  2  0
 10 11  1  0
 11 12  2  0
 12 13  1  0
 13 14  2  0
  8 15  1  0
 15 16  2  0
 16 17  1  0
 17 18  2  0
 18 19  1  0
 19 20  2  0
  7 21  2  0
 21 22  1  0
 22 23  1  0
 23 24  2  0
 24 25  1  0
 25 26  2  0
 26 27  1  0
 26 28  1  0
 28 29  2  0
 22  5  2  0
 29 23  1  0
 14  9  1  0
 20 15  1  0
  4 30  1  0
  4 31  1  0
 10 32  1  0
 11 33  1  0
 12 34  1  0
 13 35  1  0
 14 36  1  0
 16 37  1  0
 17 38  1  0
 18 39  1  0
 19 40  1  0
 20 41  1  0
 24 42  1  0
 25 43  1  0
 28 44  1  0
 29 45  1  0
M  CHG  1   3  -1
M  END
>  <meeko>  (4) 
{"is_sidechain": [false], "free_energy": -8.022, "intermolecular_energy": -10.285, "internal_energy": -1.203}

$$$$
LIB_PONILUFZRIPFJP__M_PUB_ALL__e8__s20260927
     RDKit          3D

 45 48  0  0  0  0  0  0  0  0999 V2000
    9.4680   -4.3890   15.6740 O   0  0  0  0  0  0  0  0  0  0  0  0
   10.4820   -4.8490   16.2730 C   0  0  0  0  0  0  0  0  0  0  0  0
   11.5460   -4.2550   16.6120 O   0  0  0  0  0  0  0  0  0  0  0  0
   10.4430   -6.3520   16.5870 C   0  0  0  0  0  0  0  0  0  0  0  0
   10.9110   -7.1720   15.4160 C   0  0  0  0  0  0  0  0  0  0  0  0
   12.5870   -7.5000   15.2320 S   0  0  0  0  0  0  0  0  0  0  0  0
   12.2930   -8.3680   13.7530 C   0  0  0  0  0  0  0  0  0  0  0  0
   13.3100   -8.9600   13.0140 N   0  0  0  0  0  0  0  0  0  0  0  0
   14.4480   -8.1800   12.6040 C   0  0  0  0  0  0  0  0  0  0  0  0
   14.3620   -7.2540   11.5490 C   0  0  0  0  0  0  0  0  0  0  0  0
   15.4730   -6.5000   11.1630 C   0  0  0  0  0  0  0  0  0  0  0  0
   16.6870   -6.6530   11.8290 C   0  0  0  0  0  0  0  0  0  0  0  0
   16.7930   -7.5590   12.8820 C   0  0  0  0  0  0  0  0  0  0  0  0
   15.6820   -8.3150   13.2660 C   0  0  0  0  0  0  0  0  0  0  0  0
   13.2310  -10.3700   12.7220 C   0  0  0  0  0  0  0  0  0  0  0  0
   12.4430  -11.2290   13.5130 C   0  0  0  0  0  0  0  0  0  0  0  0
   12.3720  -12.6010   13.2490 C   0  0  0  0  0  0  0  0  0  0  0  0
   13.0890  -13.1440   12.1870 C   0  0  0  0  0  0  0  0  0  0  0  0
   13.8730  -12.3170   11.3880 C   0  0  0  0  0  0  0  0  0  0  0  0
   13.9430  -10.9450   11.6540 C   0  0  0  0  0  0  0  0  0  0  0  0
   11.0250   -8.3340   13.3880 N   0  0  0  0  0  0  0  0  0  0  0  0
   10.2280   -7.7140   14.3410 C   0  0  0  0  0  0  0  0  0  0  0  0
    8.7940   -7.6140   14.1060 C   0  0  0  0  0  0  0  0  0  0  0  0
    8.2440   -6.6120   13.2960 C   0  0  0  0  0  0  0  0  0  0  0  0
    6.8630   -6.5340   13.1040 C   0  0  0  0  0  0  0  0  0  0  0  0
    6.0300   -7.4500   13.7330 C   0  0  0  0  0  0  0  0  0  0  0  0
    4.7050   -7.3740   13.5520 F   0  0  0  0  0  0  0  0  0  0  0  0
    6.5510   -8.4410   14.5570 C   0  0  0  0  0  0  0  0  0  0  0  0
    7.9330   -8.5200   14.7480 C   0  0  0  0  0  0  0  0  0  0  0  0
   11.0960   -6.5542   17.4488 H   0  0  0  0  0  0  0  0  0  0  0  0
    9.4027   -6.6311   16.8101 H   0  0  0  0  0  0  0  0  0  0  0  0
   13.4065   -7.1215   11.0203 H   0  0  0  0  0  0  0  0  0  0  0  0
   15.3890   -5.7844   10.3319 H   0  0  0  0  0  0  0  0  0  0  0  0
   17.5611   -6.0590   11.5237 H   0  0  0  0  0  0  0  0  0  0  0  0
   17.7501   -7.6792   13.4106 H   0  0  0  0  0  0  0  0  0  0  0  0
   15.7739   -9.0271   14.0993 H   0  0  0  0  0  0  0  0  0  0  0  0
   11.8717  -10.8123   14.3556 H   0  0  0  0  0  0  0  0  0  0  0  0
   11.7491  -13.2509   13.8812 H   0  0  0  0  0  0  0  0  0  0  0  0
   13.0363  -14.2230   11.9798 H   0  0  0  0  0  0  0  0  0  0  0  0
   14.4386  -12.7426   10.5460 H   0  0  0  0  0  0  0  0  0  0  0  0
   14.5674  -10.3033   11.0150 H   0  0  0  0  0  0  0  0  0  0  0  0
    8.9051   -5.8810   12.8075 H   0  0  0  0  0  0  0  0  0  0  0  0
    6.4375   -5.7516   12.4584 H   0  0  0  0  0  0  0  0  0  0  0  0
    5.8807   -9.1573   15.0547 H   0  0  0  0  0  0  0  0  0  0  0  0
    8.3498   -9.2970   15.4056 H   0  0  0  0  0  0  0  0  0  0  0  0
  1  2  2  0
  2  3  1  0
  2  4  1  0
  4  5  1  0
  5  6  1  0
  6  7  1  0
  7  8  1  0
  8  9  1  0
  9 10  2  0
 10 11  1  0
 11 12  2  0
 12 13  1  0
 13 14  2  0
  8 15  1  0
 15 16  2  0
 16 17  1  0
 17 18  2  0
 18 19  1  0
 19 20  2  0
  7 21  2  0
 21 22  1  0
 22 23  1  0
 23 24  2  0
 24 25  1  0
 25 26  2  0
 26 27  1  0
 26 28  1  0
 28 29  2  0
 22  5  2  0
 29 23  1  0
 14  9  1  0
 20 15  1  0
  4 30  1  0
  4 31  1  0
 10 32  1  0
 11 33  1  0
 12 34  1  0
 13 35  1  0
 14 36  1  0
 16 37  1  0
 17 38  1  0
 18 39  1  0
 19 40  1  0
 20 41  1  0
 24 42  1  0
 25 43  1  0
 28 44  1  0
 29 45  1  0
M  CHG  1   3  -1
M  END
>  <meeko>  (5) 
{"is_sidechain": [false], "free_energy": -7.976, "intermolecular_energy": -10.057, "internal_energy": -1.368}

$$$$
LIB_PONILUFZRIPFJP__M_PUB_ALL__e8__s20260927
     RDKit          3D

 45 48  0  0  0  0  0  0  0  0999 V2000
    5.9960  -11.3160   -1.4510 O   0  0  0  0  0  0  0  0  0  0  0  0
    5.6160  -11.8430   -0.3660 C   0  0  0  0  0  0  0  0  0  0  0  0
    5.8380  -11.4700    0.8220 O   0  0  0  0  0  0  0  0  0  0  0  0
    4.8160  -13.1460   -0.5050 C   0  0  0  0  0  0  0  0  0  0  0  0
    3.3350  -12.8870   -0.5010 C   0  0  0  0  0  0  0  0  0  0  0  0
    2.4190  -13.2480    0.9070 S   0  0  0  0  0  0  0  0  0  0  0  0
    0.9470  -12.7510    0.1230 C   0  0  0  0  0  0  0  0  0  0  0  0
   -0.2900  -12.7830    0.7560 N   0  0  0  0  0  0  0  0  0  0  0  0
   -0.7260  -11.6560    1.5370 C   0  0  0  0  0  0  0  0  0  0  0  0
   -1.0540  -11.7900    2.8980 C   0  0  0  0  0  0  0  0  0  0  0  0
   -1.4730  -10.6870    3.6480 C   0  0  0  0  0  0  0  0  0  0  0  0
   -1.5640   -9.4320    3.0510 C   0  0  0  0  0  0  0  0  0  0  0  0
   -1.2380   -9.2750    1.7060 C   0  0  0  0  0  0  0  0  0  0  0  0
   -0.8210  -10.3790    0.9560 C   0  0  0  0  0  0  0  0  0  0  0  0
   -1.1410  -13.9310    0.5640 C   0  0  0  0  0  0  0  0  0  0  0  0
   -2.5350  -13.7830    0.4250 C   0  0  0  0  0  0  0  0  0  0  0  0
   -3.3720  -14.8900    0.2560 C   0  0  0  0  0  0  0  0  0  0  0  0
   -2.8310  -16.1730    0.2210 C   0  0  0  0  0  0  0  0  0  0  0  0
   -1.4570  -16.3470    0.3530 C   0  0  0  0  0  0  0  0  0  0  0  0
   -0.6220  -15.2370    0.5230 C   0  0  0  0  0  0  0  0  0  0  0  0
    1.1330  -12.4180   -1.1410 N   0  0  0  0  0  0  0  0  0  0  0  0
    2.4770  -12.4350   -1.4890 C   0  0  0  0  0  0  0  0  0  0  0  0
    2.8600  -12.0670   -2.8460 C   0  0  0  0  0  0  0  0  0  0  0  0
    3.2680  -13.0230   -3.7850 C   0  0  0  0  0  0  0  0  0  0  0  0
    3.6450  -12.6350   -5.0730 C   0  0  0  0  0  0  0  0  0  0  0  0
    3.6270  -11.2890   -5.4170 C   0  0  0  0  0  0  0  0  0  0  0  0
    3.9920  -10.9160   -6.6510 F   0  0  0  0  0  0  0  0  0  0  0  0
    3.2450  -10.3210   -4.4950 C   0  0  0  0  0  0  0  0  0  0  0  0
    2.8670  -10.7100   -3.2080 C   0  0  0  0  0  0  0  0  0  0  0  0
    5.0907  -13.6348   -1.4514 H   0  0  0  0  0  0  0  0  0  0  0  0
    5.0556  -13.7911    0.3532 H   0  0  0  0  0  0  0  0  0  0  0  0
   -0.9798  -12.7764    3.3791 H   0  0  0  0  0  0  0  0  0  0  0  0
   -1.7309  -10.8105    4.7102 H   0  0  0  0  0  0  0  0  0  0  0  0
   -1.8934   -8.5646    3.6418 H   0  0  0  0  0  0  0  0  0  0  0  0
   -1.3085   -8.2837    1.2344 H   0  0  0  0  0  0  0  0  0  0  0  0
   -0.5632  -10.2465   -0.1051 H   0  0  0  0  0  0  0  0  0  0  0  0
   -2.9744  -12.7749    0.4500 H   0  0  0  0  0  0  0  0  0  0  0  0
   -4.4577  -14.7478    0.1507 H   0  0  0  0  0  0  0  0  0  0  0  0
   -3.4878  -17.0456    0.0895 H   0  0  0  0  0  0  0  0  0  0  0  0
   -1.0263  -17.3588    0.3237 H   0  0  0  0  0  0  0  0  0  0  0  0
    0.4625  -15.3894    0.6267 H   0  0  0  0  0  0  0  0  0  0  0  0
    3.2917  -14.0868   -3.5062 H   0  0  0  0  0  0  0  0  0  0  0  0
    3.9542  -13.3905   -5.8103 H   0  0  0  0  0  0  0  0  0  0  0  0
    3.2405   -9.2577   -4.7768 H   0  0  0  0  0  0  0  0  0  0  0  0
    2.5724   -9.9475   -2.4720 H   0  0  0  0  0  0  0  0  0  0  0  0
  1  2  2  0
  2  3  1  0
  2  4  1  0
  4  5  1  0
  5  6  1  0
  6  7  1  0
  7  8  1  0
  8  9  1  0
  9 10  2  0
 10 11  1  0
 11 12  2  0
 12 13  1  0
 13 14  2  0
  8 15  1  0
 15 16  2  0
 16 17  1  0
 17 18  2  0
 18 19  1  0
 19 20  2  0
  7 21  2  0
 21 22  1  0
 22 23  1  0
 23 24  2  0
 24 25  1  0
 25 26  2  0
 26 27  1  0
 26 28  1  0
 28 29  2  0
 22  5  2  0
 29 23  1  0
 14  9  1  0
 20 15  1  0
  4 30  1  0
  4 31  1  0
 10 32  1  0
 11 33  1  0
 12 34  1  0
 13 35  1  0
 14 36  1  0
 16 37  1  0
 17 38  1  0
 18 39  1  0
 19 40  1  0
 20 41  1  0
 24 42  1  0
 25 43  1  0
 28 44  1  0
 29 45  1  0
M  CHG  1   3  -1
M  END
>  <meeko>  (6) 
{"is_sidechain": [false], "free_energy": -7.948, "intermolecular_energy": -9.948, "internal_energy": -1.439}

$$$$
LIB_PONILUFZRIPFJP__M_PUB_ALL__e8__s20260927
     RDKit          3D

 45 48  0  0  0  0  0  0  0  0999 V2000
  -13.8050  -19.5690  -11.0590 O   0  0  0  0  0  0  0  0  0  0  0  0
  -14.6680  -18.7340  -10.6630 C   0  0  0  0  0  0  0  0  0  0  0  0
  -15.5060  -18.0730  -11.3400 O   0  0  0  0  0  0  0  0  0  0  0  0
  -14.6670  -18.4420   -9.1560 C   0  0  0  0  0  0  0  0  0  0  0  0
  -14.1240  -17.0700   -8.8610 C   0  0  0  0  0  0  0  0  0  0  0  0
  -13.2940  -16.2090  -10.0950 S   0  0  0  0  0  0  0  0  0  0  0  0
  -12.9860  -14.8810   -9.0130 C   0  0  0  0  0  0  0  0  0  0  0  0
  -12.2990  -13.7380   -9.4030 N   0  0  0  0  0  0  0  0  0  0  0  0
  -11.2950  -13.8180  -10.4300 C   0  0  0  0  0  0  0  0  0  0  0  0
  -11.5380  -13.3450  -11.7320 C   0  0  0  0  0  0  0  0  0  0  0  0
  -10.5530  -13.4260  -12.7200 C   0  0  0  0  0  0  0  0  0  0  0  0
   -9.3080  -13.9750  -12.4220 C   0  0  0  0  0  0  0  0  0  0  0  0
   -9.0440  -14.4430  -11.1380 C   0  0  0  0  0  0  0  0  0  0  0  0
  -10.0300  -14.3650  -10.1500 C   0  0  0  0  0  0  0  0  0  0  0  0
  -12.6540  -12.4740   -8.8050 C   0  0  0  0  0  0  0  0  0  0  0  0
  -11.6620  -11.5520   -8.4200 C   0  0  0  0  0  0  0  0  0  0  0  0
  -11.9950  -10.3310   -7.8240 C   0  0  0  0  0  0  0  0  0  0  0  0
  -13.3300  -10.0060   -7.6000 C   0  0  0  0  0  0  0  0  0  0  0  0
  -14.3300  -10.8990   -7.9720 C   0  0  0  0  0  0  0  0  0  0  0  0
  -13.9950  -12.1190   -8.5680 C   0  0  0  0  0  0  0  0  0  0  0  0
  -13.4110  -15.1180   -7.7850 N   0  0  0  0  0  0  0  0  0  0  0  0
  -14.1010  -16.3200   -7.6980 C   0  0  0  0  0  0  0  0  0  0  0  0
  -14.6590  -16.7220   -6.4150 C   0  0  0  0  0  0  0  0  0  0  0  0
  -16.0390  -16.7200   -6.1740 C   0  0  0  0  0  0  0  0  0  0  0  0
  -16.5420  -17.0960   -4.9270 C   0  0  0  0  0  0  0  0  0  0  0  0
  -15.6630  -17.4590   -3.9140 C   0  0  0  0  0  0  0  0  0  0  0  0
  -16.1440  -17.8160   -2.7160 F   0  0  0  0  0  0  0  0  0  0  0  0
  -14.2890  -17.4490   -4.1230 C   0  0  0  0  0  0  0  0  0  0  0  0
  -13.7870  -17.0760   -5.3720 C   0  0  0  0  0  0  0  0  0  0  0  0
  -15.6981  -18.5072   -8.7785 H   0  0  0  0  0  0  0  0  0  0  0  0
  -14.0215  -19.1826   -8.6612 H   0  0  0  0  0  0  0  0  0  0  0  0
  -12.5164  -12.9054  -11.9759 H   0  0  0  0  0  0  0  0  0  0  0  0
  -10.7612  -13.0556  -13.7346 H   0  0  0  0  0  0  0  0  0  0  0  0
   -8.5339  -14.0387  -13.2009 H   0  0  0  0  0  0  0  0  0  0  0  0
   -8.0601  -14.8740  -10.9008 H   0  0  0  0  0  0  0  0  0  0  0  0
   -9.8130  -14.7372   -9.1379 H   0  0  0  0  0  0  0  0  0  0  0  0
  -10.6034  -11.7968   -8.5914 H   0  0  0  0  0  0  0  0  0  0  0  0
  -11.2015   -9.6273   -7.5322 H   0  0  0  0  0  0  0  0  0  0  0  0
  -13.5933   -9.0467   -7.1306 H   0  0  0  0  0  0  0  0  0  0  0  0
  -15.3859  -10.6450   -7.7970 H   0  0  0  0  0  0  0  0  0  0  0  0
  -14.7959  -12.8152   -8.8574 H   0  0  0  0  0  0  0  0  0  0  0  0
  -16.7320  -16.4197   -6.9738 H   0  0  0  0  0  0  0  0  0  0  0  0
  -17.6272  -17.1048   -4.7477 H   0  0  0  0  0  0  0  0  0  0  0  0
  -13.6026  -17.7325   -3.3116 H   0  0  0  0  0  0  0  0  0  0  0  0
  -12.7001  -17.0593   -5.5403 H   0  0  0  0  0  0  0  0  0  0  0  0
  1  2  2  0
  2  3  1  0
  2  4  1  0
  4  5  1  0
  5  6  1  0
  6  7  1  0
  7  8  1  0
  8  9  1  0
  9 10  2  0
 10 11  1  0
 11 12  2  0
 12 13  1  0
 13 14  2  0
  8 15  1  0
 15 16  2  0
 16 17  1  0
 17 18  2  0
 18 19  1  0
 19 20  2  0
  7 21  2  0
 21 22  1  0
 22 23  1  0
 23 24  2  0
 24 25  1  0
 25 26  2  0
 26 27  1  0
 26 28  1  0
 28 29  2  0
 22  5  2  0
 29 23  1  0
 14  9  1  0
 20 15  1  0
  4 30  1  0
  4 31  1  0
 10 32  1  0
 11 33  1  0
 12 34  1  0
 13 35  1  0
 14 36  1  0
 16 37  1  0
 17 38  1  0
 18 39  1  0
 19 40  1  0
 20 41  1  0
 24 42  1  0
 25 43  1  0
 28 44  1  0
 29 45  1  0
M  CHG  1   3  -1
M  END
>  <meeko>  (7) 
{"is_sidechain": [false], "free_energy": -7.924, "intermolecular_energy": -10.434, "internal_energy": -0.921}

$$$$
LIB_PONILUFZRIPFJP__M_PUB_ALL__e8__s20260927
     RDKit          3D

 45 48  0  0  0  0  0  0  0  0999 V2000
    6.0700  -11.2980   -1.5070 O   0  0  0  0  0  0  0  0  0  0  0  0
    5.6600  -11.8070   -0.4240 C   0  0  0  0  0  0  0  0  0  0  0  0
    5.8450  -11.4110    0.7630 O   0  0  0  0  0  0  0  0  0  0  0  0
    4.8710  -13.1160   -0.5620 C   0  0  0  0  0  0  0  0  0  0  0  0
    3.3870  -12.8720   -0.5260 C   0  0  0  0  0  0  0  0  0  0  0  0
    2.5010  -13.2790    0.8880 S   0  0  0  0  0  0  0  0  0  0  0  0
    1.0100  -12.7760    0.1430 C   0  0  0  0  0  0  0  0  0  0  0  0
   -0.2150  -12.8370    0.7960 N   0  0  0  0  0  0  0  0  0  0  0  0
   -1.0020  -14.0400    0.7370 C   0  0  0  0  0  0  0  0  0  0  0  0
   -0.4850  -15.2770    1.1640 C   0  0  0  0  0  0  0  0  0  0  0  0
   -1.2600  -16.4380    1.1050 C   0  0  0  0  0  0  0  0  0  0  0  0
   -2.5670  -16.3820    0.6250 C   0  0  0  0  0  0  0  0  0  0  0  0
   -3.1010  -15.1670    0.2030 C   0  0  0  0  0  0  0  0  0  0  0  0
   -2.3240  -14.0060    0.2600 C   0  0  0  0  0  0  0  0  0  0  0  0
   -0.6460  -11.7020    1.5750 C   0  0  0  0  0  0  0  0  0  0  0  0
   -1.0140  -11.8500    2.9260 C   0  0  0  0  0  0  0  0  0  0  0  0
   -1.4490  -10.7590    3.6850 C   0  0  0  0  0  0  0  0  0  0  0  0
   -1.5270   -9.4940    3.1080 C   0  0  0  0  0  0  0  0  0  0  0  0
   -1.1680   -9.3210    1.7740 C   0  0  0  0  0  0  0  0  0  0  0  0
   -0.7330  -10.4130    1.0170 C   0  0  0  0  0  0  0  0  0  0  0  0
    1.1710  -12.4090   -1.1150 N   0  0  0  0  0  0  0  0  0  0  0  0
    2.5080  -12.4040   -1.4870 C   0  0  0  0  0  0  0  0  0  0  0  0
    2.8630  -11.9980   -2.8400 C   0  0  0  0  0  0  0  0  0  0  0  0
    3.2720  -12.9240   -3.8080 C   0  0  0  0  0  0  0  0  0  0  0  0
    3.6210  -12.4990   -5.0920 C   0  0  0  0  0  0  0  0  0  0  0  0
    3.5770  -11.1460   -5.4040 C   0  0  0  0  0  0  0  0  0  0  0  0
    3.9160  -10.7370   -6.6340 F   0  0  0  0  0  0  0  0  0  0  0  0
    3.1940  -10.2070   -4.4530 C   0  0  0  0  0  0  0  0  0  0  0  0
    2.8420  -10.6320   -3.1700 C   0  0  0  0  0  0  0  0  0  0  0  0
    5.1319  -13.5913   -1.5191 H   0  0  0  0  0  0  0  0  0  0  0  0
    5.1340  -13.7682    0.2839 H   0  0  0  0  0  0  0  0  0  0  0  0
    0.5438  -15.3307    1.5497 H   0  0  0  0  0  0  0  0  0  0  0  0
   -0.8378  -17.3977    1.4379 H   0  0  0  0  0  0  0  0  0  0  0  0
   -3.1764  -17.2966    0.5795 H   0  0  0  0  0  0  0  0  0  0  0  0
   -4.1331  -15.1208   -0.1748 H   0  0  0  0  0  0  0  0  0  0  0  0
   -2.7542  -13.0503   -0.0739 H   0  0  0  0  0  0  0  0  0  0  0  0
   -0.9582  -12.8440    3.3939 H   0  0  0  0  0  0  0  0  0  0  0  0
   -1.7299  -10.9002    4.7391 H   0  0  0  0  0  0  0  0  0  0  0  0
   -1.8707   -8.6354    3.7035 H   0  0  0  0  0  0  0  0  0  0  0  0
   -1.2267   -8.3232    1.3147 H   0  0  0  0  0  0  0  0  0  0  0  0
   -0.4531  -10.2616   -0.0360 H   0  0  0  0  0  0  0  0  0  0  0  0
    3.3187  -13.9936   -3.5553 H   0  0  0  0  0  0  0  0  0  0  0  0
    3.9291  -13.2319   -5.8522 H   0  0  0  0  0  0  0  0  0  0  0  0
    3.1684   -9.1375   -4.7091 H   0  0  0  0  0  0  0  0  0  0  0  0
    2.5460   -9.8919   -2.4119 H   0  0  0  0  0  0  0  0  0  0  0  0
  1  2  2  0
  2  3  1  0
  2  4  1  0
  4  5  1  0
  5  6  1  0
  6  7  1  0
  7  8  1  0
  8  9  1  0
  9 10  2  0
 10 11  1  0
 11 12  2  0
 12 13  1  0
 13 14  2  0
  8 15  1  0
 15 16  2  0
 16 17  1  0
 17 18  2  0
 18 19  1  0
 19 20  2  0
  7 21  2  0
 21 22  1  0
 22 23  1  0
 23 24  2  0
 24 25  1  0
 25 26  2  0
 26 27  1  0
 26 28  1  0
 28 29  2  0
 22  5  2  0
 29 23  1  0
 14  9  1  0
 20 15  1  0
  4 30  1  0
  4 31  1  0
 10 32  1  0
 11 33  1  0
 12 34  1  0
 13 35  1  0
 14 36  1  0
 16 37  1  0
 17 38  1  0
 18 39  1  0
 19 40  1  0
 20 41  1  0
 24 42  1  0
 25 43  1  0
 28 44  1  0
 29 45  1  0
M  CHG  1   3  -1
M  END
>  <meeko>  (8) 
{"is_sidechain": [false], "free_energy": -7.866, "intermolecular_energy": -9.834, "internal_energy": -1.443}

$$$$
LIB_PONILUFZRIPFJP__M_PUB_ALL__e8__s20260927
     RDKit          3D

 45 48  0  0  0  0  0  0  0  0999 V2000
   -2.5660  -14.1090   -0.6160 O   0  0  0  0  0  0  0  0  0  0  0  0
   -1.5750  -14.8650   -0.8280 C   0  0  0  0  0  0  0  0  0  0  0  0
   -1.3740  -15.6640   -1.7870 O   0  0  0  0  0  0  0  0  0  0  0  0
   -0.4870  -14.8530    0.2540 C   0  0  0  0  0  0  0  0  0  0  0  0
    0.6170  -13.8890   -0.0850 C   0  0  0  0  0  0  0  0  0  0  0  0
    1.9680  -14.4410   -0.9920 S   0  0  0  0  0  0  0  0  0  0  0  0
    2.7150  -12.8710   -0.9040 C   0  0  0  0  0  0  0  0  0  0  0  0
    3.9430  -12.5890   -1.4900 N   0  0  0  0  0  0  0  0  0  0  0  0
    4.0120  -12.2530   -2.8880 C   0  0  0  0  0  0  0  0  0  0  0  0
    4.7320  -13.0460   -3.7980 C   0  0  0  0  0  0  0  0  0  0  0  0
    4.7890  -12.7120   -5.1540 C   0  0  0  0  0  0  0  0  0  0  0  0
    4.1200  -11.5830   -5.6230 C   0  0  0  0  0  0  0  0  0  0  0  0
    3.3950  -10.7870   -4.7400 C   0  0  0  0  0  0  0  0  0  0  0  0
    3.3410  -11.1210   -3.3840 C   0  0  0  0  0  0  0  0  0  0  0  0
    5.1240  -12.5800   -0.6630 C   0  0  0  0  0  0  0  0  0  0  0  0
    5.4460  -13.6820    0.1520 C   0  0  0  0  0  0  0  0  0  0  0  0
    6.5800  -13.6770    0.9700 C   0  0  0  0  0  0  0  0  0  0  0  0
    7.4180  -12.5650    0.9920 C   0  0  0  0  0  0  0  0  0  0  0  0
    7.1240  -11.4630    0.1950 C   0  0  0  0  0  0  0  0  0  0  0  0
    5.9900  -11.4710   -0.6230 C   0  0  0  0  0  0  0  0  0  0  0  0
    2.0240  -12.0210   -0.1670 N   0  0  0  0  0  0  0  0  0  0  0  0
    0.8160  -12.5620    0.2530 C   0  0  0  0  0  0  0  0  0  0  0  0
   -0.0820  -11.7450    1.0580 C   0  0  0  0  0  0  0  0  0  0  0  0
   -0.4580  -12.1150    2.3550 C   0  0  0  0  0  0  0  0  0  0  0  0
   -1.3340  -11.3170    3.0940 C   0  0  0  0  0  0  0  0  0  0  0  0
   -1.8460  -10.1560    2.5300 C   0  0  0  0  0  0  0  0  0  0  0  0
   -2.6890   -9.3920    3.2370 F   0  0  0  0  0  0  0  0  0  0  0  0
   -1.5030   -9.7780    1.2370 C   0  0  0  0  0  0  0  0  0  0  0  0
   -0.6250  -10.5760    0.4990 C   0  0  0  0  0  0  0  0  0  0  0  0
   -0.9389  -14.5564    1.2120 H   0  0  0  0  0  0  0  0  0  0  0  0
   -0.0553  -15.8626    0.3206 H   0  0  0  0  0  0  0  0  0  0  0  0
    5.2582  -13.9423   -3.4379 H   0  0  0  0  0  0  0  0  0  0  0  0
    5.3622  -13.3406   -5.8514 H   0  0  0  0  0  0  0  0  0  0  0  0
    4.1647  -11.3208   -6.6904 H   0  0  0  0  0  0  0  0  0  0  0  0
    2.8654   -9.8964   -5.1093 H   0  0  0  0  0  0  0  0  0  0  0  0
    2.7643  -10.4881   -2.6935 H   0  0  0  0  0  0  0  0  0  0  0  0
    4.7913  -14.5660    0.1451 H   0  0  0  0  0  0  0  0  0  0  0  0
    6.8102  -14.5516    1.5962 H   0  0  0  0  0  0  0  0  0  0  0  0
    8.3090  -12.5579    1.6370 H   0  0  0  0  0  0  0  0  0  0  0  0
    7.7850  -10.5838    0.2085 H   0  0  0  0  0  0  0  0  0  0  0  0
    5.7702  -10.5929   -1.2479 H   0  0  0  0  0  0  0  0  0  0  0  0
   -0.0604  -13.0413    2.7952 H   0  0  0  0  0  0  0  0  0  0  0  0
   -1.6167  -11.6065    4.1169 H   0  0  0  0  0  0  0  0  0  0  0  0
   -1.9191   -8.8589    0.7987 H   0  0  0  0  0  0  0  0  0  0  0  0
   -0.3568  -10.2867   -0.5278 H   0  0  0  0  0  0  0  0  0  0  0  0
  1  2  2  0
  2  3  1  0
  2  4  1  0
  4  5  1  0
  5  6  1  0
  6  7  1  0
  7  8  1  0
  8  9  1  0
  9 10  2  0
 10 11  1  0
 11 12  2  0
 12 13  1  0
 13 14  2  0
  8 15  1  0
 15 16  2  0
 16 17  1  0
 17 18  2  0
 18 19  1  0
 19 20  2  0
  7 21  2  0
 21 22  1  0
 22 23  1  0
 23 24  2  0
 24 25  1  0
 25 26  2  0
 26 27  1  0
 26 28  1  0
 28 29  2  0
 22  5  2  0
 29 23  1  0
 14  9  1  0
 20 15  1  0
  4 30  1  0
  4 31  1  0
 10 32  1  0
 11 33  1  0
 12 34  1  0
 13 35  1  0
 14 36  1  0
 16 37  1  0
 17 38  1  0
 18 39  1  0
 19 40  1  0
 20 41  1  0
 24 42  1  0
 25 43  1  0
 28 44  1  0
 29 45  1  0
M  CHG  1   3  -1
M  END
>  <meeko>  (9) 
{"is_sidechain": [false], "free_energy": -7.723, "intermolecular_energy": -9.664, "internal_energy": -1.419}

$$$$
