LIB_WTTXOCIXCSNVQR__M_PUB_ALL__e8__s20260927
     RDKit          3D

 54 58  0  0  0  0  0  0  0  0999 V2000
   -3.9390  -10.7310   -0.9510 C   0  0  0  0  0  0  0  0  0  0  0  0
   -3.4370  -11.3070    0.1500 C   0  0  0  0  0  0  0  0  0  0  0  0
   -2.5570  -10.6100    1.1740 C   0  0  2  0  0  0  0  0  0  0  0  0
   -1.0970  -10.5270    0.6950 C   0  0  0  0  0  0  0  0  0  0  0  0
   -0.2830  -11.8040    0.9840 C   0  0  1  0  0  0  0  0  0  0  0  0
    0.3130  -11.6980    2.2730 O   0  0  0  0  0  0  0  0  0  0  0  0
   -1.1290  -13.1020    0.9070 C   0  0  2  0  0  0  0  0  0  0  0  0
   -2.5340  -12.9340    1.6330 C   0  0  2  0  0  0  0  0  0  0  0  0
   -2.6570  -11.5720    2.3530 C   0  0  0  0  0  0  0  0  0  0  0  0
   -2.9660  -14.0090    2.6140 C   0  0  0  0  0  0  0  0  0  0  0  0
   -4.1370  -14.1640    2.9460 O   0  0  0  0  0  0  0  0  0  0  0  0
   -2.0050  -14.7740    3.1720 O   0  0  0  0  0  0  0  0  0  0  0  0
   -0.6230  -14.5750    2.8490 C   0  0  1  0  0  0  0  0  0  0  0  0
    0.1570  -15.7020    3.5160 C   0  0  0  0  0  0  0  0  0  0  0  0
    1.6450  -15.5890    3.2140 C   0  0  2  0  0  0  0  0  0  0  0  0
    2.1290  -14.3410    3.7030 O   0  0  0  0  0  0  0  0  0  0  0  0
    1.9190  -15.6890    1.6940 C   0  0  0  0  0  0  0  0  0  0  0  0
    3.4260  -15.4300    1.4350 C   0  0  0  0  0  0  0  0  0  0  0  0
    1.6480  -17.1510    1.2520 C   0  0  0  0  0  0  0  0  0  0  0  0
    1.0900  -14.5840    0.9110 C   0  0  1  0  0  0  0  0  0  0  0  0
    0.9390  -14.9350   -0.5650 C   0  0  2  0  0  0  0  0  0  0  0  0
    0.7620  -13.7710   -1.3480 O   0  0  0  0  0  0  0  0  0  0  0  0
   -0.2280  -15.7400   -0.6260 O   0  0  0  0  0  0  0  0  0  0  0  0
   -1.0090  -15.4990    0.4700 C   0  0  0  0  0  0  0  0  0  0  0  0
   -2.0870  -16.0470    0.6450 O   0  0  0  0  0  0  0  0  0  0  0  0
   -0.3930  -14.4170    1.3460 C   0  0  2  0  0  0  0  0  0  0  0  0
   -3.6560  -12.7460    0.5740 C   0  0  2  0  0  0  0  0  0  0  0  0
   -3.5480  -13.6190   -0.5370 O   0  0  0  0  0  0  0  0  0  0  0  0
   -4.5687  -11.3146   -1.6387 H   0  0  0  0  0  0  0  0  0  0  0  0
   -3.7214   -9.6746   -1.1670 H   0  0  0  0  0  0  0  0  0  0  0  0
   -2.8611   -9.5744    1.3861 H   0  0  0  0  0  0  0  0  0  0  0  0
   -1.0960  -10.3514   -0.3909 H   0  0  0  0  0  0  0  0  0  0  0  0
   -0.6199   -9.7059    1.2500 H   0  0  0  0  0  0  0  0  0  0  0  0
    0.4851  -11.8814    0.2004 H   0  0  0  0  0  0  0  0  0  0  0  0
    0.8570  -12.4940    2.4110 H   0  0  0  0  0  0  0  0  0  0  0  0
   -1.3081  -13.2452   -0.1688 H   0  0  0  0  0  0  0  0  0  0  0  0
   -3.6217  -11.4753    2.8726 H   0  0  0  0  0  0  0  0  0  0  0  0
   -1.9062  -11.4052    3.1395 H   0  0  0  0  0  0  0  0  0  0  0  0
   -0.2501  -13.6186    3.2443 H   0  0  0  0  0  0  0  0  0  0  0  0
    0.0058  -15.6491    4.6043 H   0  0  0  0  0  0  0  0  0  0  0  0
   -0.2085  -16.6619    3.1223 H   0  0  0  0  0  0  0  0  0  0  0  0
    2.1651  -16.4209    3.7114 H   0  0  0  0  0  0  0  0  0  0  0  0
    1.3670  -13.7410    3.8000 H   0  0  0  0  0  0  0  0  0  0  0  0
    3.9530  -15.3394    2.3963 H   0  0  0  0  0  0  0  0  0  0  0  0
    3.8491  -16.2686    0.8625 H   0  0  0  0  0  0  0  0  0  0  0  0
    3.5448  -14.4983    0.8625 H   0  0  0  0  0  0  0  0  0  0  0  0
    1.5301  -17.7871    2.1416 H   0  0  0  0  0  0  0  0  0  0  0  0
    0.7278  -17.1876    0.6505 H   0  0  0  0  0  0  0  0  0  0  0  0
    2.4940  -17.5150    0.6505 H   0  0  0  0  0  0  0  0  0  0  0  0
    1.6769  -13.6790    1.1267 H   0  0  0  0  0  0  0  0  0  0  0  0
    1.8313  -15.4462   -0.9555 H   0  0  0  0  0  0  0  0  0  0  0  0
   -0.1880  -13.5630   -1.3010 H   0  0  0  0  0  0  0  0  0  0  0  0
   -4.6539  -12.9706    0.9788 H   0  0  0  0  0  0  0  0  0  0  0  0
   -3.1770  -14.4610   -0.2070 H   0  0  0  0  0  0  0  0  0  0  0  0
  1  2  2  0
  2  3  1  0
  3  4  1  0
  4  5  1  0
  5  6  1  0
  5  7  1  0
  7  8  1  0
  8  9  1  0
  8 10  1  1
 10 11  2  0
 10 12  1  0
 12 13  1  0
 13 14  1  0
 14 15  1  0
 15 16  1  0
 15 17  1  0
 17 18  1  0
 17 19  1  0
 17 20  1  0
 20 21  1  0
 21 22  1  0
 21 23  1  0
 23 24  1  0
 24 25  2  0
 26 24  1  6
  8 27  1  0
 27 28  1  0
 27  2  1  0
  9  3  1  0
 26 13  1  0
 26  7  1  0
 26 20  1  0
  1 29  1  0
  1 30  1  0
  3 31  1  1
  4 32  1  0
  4 33  1  0
  5 34  1  6
  6 35  1  0
  7 36  1  6
  9 37  1  0
  9 38  1  0
 13 39  1  1
 14 40  1  0
 14 41  1  0
 15 42  1  1
 16 43  1  0
 18 44  1  0
 18 45  1  0
 18 46  1  0
 19 47  1  0
 19 48  1  0
 19 49  1  0
 20 50  1  6
 21 51  1  6
 22 52  1  0
 27 53  1  1
 28 54  1  0
M  END
>  <meeko>  (1) 
{"is_sidechain": [false], "free_energy": -7.763, "intermolecular_energy": -8.671, "internal_energy": 0.0}

$$$$
LIB_WTTXOCIXCSNVQR__M_PUB_ALL__e8__s20260927
     RDKit          3D

 54 58  0  0  0  0  0  0  0  0999 V2000
   -2.6670  -18.3970    3.1620 C   0  0  0  0  0  0  0  0  0  0  0  0
   -1.8010  -17.4940    2.6820 C   0  0  0  0  0  0  0  0  0  0  0  0
   -0.7090  -16.8160    3.4940 C   0  0  2  0  0  0  0  0  0  0  0  0
   -1.2740  -15.6560    4.3330 C   0  0  0  0  0  0  0  0  0  0  0  0
   -1.3980  -14.3350    3.5470 C   0  0  1  0  0  0  0  0  0  0  0  0
   -0.1820  -13.6030    3.6650 O   0  0  0  0  0  0  0  0  0  0  0  0
   -1.7380  -14.5410    2.0480 C   0  0  2  0  0  0  0  0  0  0  0  0
   -0.8760  -15.7120    1.4040 C   0  0  2  0  0  0  0  0  0  0  0  0
    0.1810  -16.2630    2.3870 C   0  0  0  0  0  0  0  0  0  0  0  0
   -0.1760  -15.4430    0.0840 C   0  0  0  0  0  0  0  0  0  0  0  0
    0.2030  -16.3460   -0.6550 O   0  0  0  0  0  0  0  0  0  0  0  0
    0.0800  -14.1590   -0.2420 O   0  0  0  0  0  0  0  0  0  0  0  0
   -0.2990  -13.0870    0.6310 C   0  0  1  0  0  0  0  0  0  0  0  0
   -0.0170  -11.7870   -0.1130 C   0  0  0  0  0  0  0  0  0  0  0  0
   -0.4060  -10.5800    0.7300 C   0  0  2  0  0  0  0  0  0  0  0  0
    0.3490  -10.5910    1.9390 O   0  0  0  0  0  0  0  0  0  0  0  0
   -1.9170  -10.5910    1.0640 C   0  0  0  0  0  0  0  0  0  0  0  0
   -2.2270   -9.4210    2.0350 C   0  0  0  0  0  0  0  0  0  0  0  0
   -2.7000  -10.2910   -0.2410 C   0  0  0  0  0  0  0  0  0  0  0  0
   -2.3100  -11.9480    1.7890 C   0  0  1  0  0  0  0  0  0  0  0  0
   -3.8090  -12.2180    1.7010 C   0  0  2  0  0  0  0  0  0  0  0  0
   -4.2440  -13.0240    2.7780 O   0  0  0  0  0  0  0  0  0  0  0  0
   -3.9770  -12.9160    0.4770 O   0  0  0  0  0  0  0  0  0  0  0  0
   -2.7940  -13.4950    0.1130 C   0  0  0  0  0  0  0  0  0  0  0  0
   -2.6760  -14.1790   -0.8930 O   0  0  0  0  0  0  0  0  0  0  0  0
   -1.7210  -13.2440    1.1640 C   0  0  2  0  0  0  0  0  0  0  0  0
   -1.7490  -16.9890    1.2540 C   0  0  2  0  0  0  0  0  0  0  0  0
   -3.0540  -16.7360    0.7630 O   0  0  0  0  0  0  0  0  0  0  0  0
   -3.4267  -18.8369    2.4992 H   0  0  0  0  0  0  0  0  0  0  0  0
   -2.6181  -18.6983    4.2188 H   0  0  0  0  0  0  0  0  0  0  0  0
   -0.2081  -17.4858    4.2084 H   0  0  0  0  0  0  0  0  0  0  0  0
   -2.2728  -15.9415    4.6947 H   0  0  0  0  0  0  0  0  0  0  0  0
   -0.5682  -15.4780    5.1577 H   0  0  0  0  0  0  0  0  0  0  0  0
   -2.2377  -13.7766    3.9863 H   0  0  0  0  0  0  0  0  0  0  0  0
    0.5490  -14.2160    3.4700 H   0  0  0  0  0  0  0  0  0  0  0  0
   -2.7949  -14.8459    2.0501 H   0  0  0  0  0  0  0  0  0  0  0  0
    0.7887  -17.0546    1.9243 H   0  0  0  0  0  0  0  0  0  0  0  0
    0.9156  -15.5179    2.7264 H   0  0  0  0  0  0  0  0  0  0  0  0
    0.2968  -13.0898    1.5556 H   0  0  0  0  0  0  0  0  0  0  0  0
    1.0565  -11.7318   -0.3464 H   0  0  0  0  0  0  0  0  0  0  0  0
   -0.6135  -11.7758   -1.0371 H   0  0  0  0  0  0  0  0  0  0  0  0
   -0.1900   -9.6683    0.1537 H   0  0  0  0  0  0  0  0  0  0  0  0
   -0.1250  -10.0450    2.5930 H   0  0  0  0  0  0  0  0  0  0  0  0
   -2.1340   -9.7719    3.0734 H   0  0  0  0  0  0  0  0  0  0  0  0
   -1.5152   -8.6008    1.8600 H   0  0  0  0  0  0  0  0  0  0  0  0
   -3.2515   -9.0609    1.8600 H   0  0  0  0  0  0  0  0  0  0  0  0
   -3.6998   -9.9079    0.0111 H   0  0  0  0  0  0  0  0  0  0  0  0
   -2.1564   -9.5375   -0.8298 H   0  0  0  0  0  0  0  0  0  0  0  0
   -2.7990  -11.2149   -0.8298 H   0  0  0  0  0  0  0  0  0  0  0  0
   -1.9164  -11.7756    2.8016 H   0  0  0  0  0  0  0  0  0  0  0  0
   -4.3940  -11.2876    1.7463 H   0  0  0  0  0  0  0  0  0  0  0  0
   -4.1590  -13.9440    2.4700 H   0  0  0  0  0  0  0  0  0  0  0  0
   -1.3323  -17.6953    0.5209 H   0  0  0  0  0  0  0  0  0  0  0  0
   -3.6730  -17.2700    1.3000 H   0  0  0  0  0  0  0  0  0  0  0  0
  1  2  2  0
  2  3  1  0
  3  4  1  0
  4  5  1  0
  5  6  1  0
  5  7  1  0
  7  8  1  0
  8  9  1  0
  8 10  1  6
 10 11  2  0
 10 12  1  0
 12 13  1  0
 13 14  1  0
 14 15  1  0
 15 16  1  0
 15 17  1  0
 17 18  1  0
 17 19  1  0
 17 20  1  0
 20 21  1  0
 21 22  1  0
 21 23  1  0
 23 24  1  0
 24 25  2  0
 26 24  1  6
  8 27  1  0
 27 28  1  0
 27  2  1  0
  9  3  1  0
 26 13  1  0
 26  7  1  0
 26 20  1  0
  1 29  1  0
  1 30  1  0
  3 31  1  1
  4 32  1  0
  4 33  1  0
  5 34  1  1
  6 35  1  0
  7 36  1  1
  9 37  1  0
  9 38  1  0
 13 39  1  1
 14 40  1  0
 14 41  1  0
 15 42  1  6
 16 43  1  0
 18 44  1  0
 18 45  1  0
 18 46  1  0
 19 47  1  0
 19 48  1  0
 19 49  1  0
 20 50  1  1
 21 51  1  6
 22 52  1  0
 27 53  1  6
 28 54  1  0
M  END
>  <meeko>  (2) 
{"is_sidechain": [false], "free_energy": -7.71, "intermolecular_energy": -8.612, "internal_energy": 0.0}

$$$$
LIB_WTTXOCIXCSNVQR__M_PUB_ALL__e8__s20260927
     RDKit          3D

 54 58  0  0  0  0  0  0  0  0999 V2000
    4.7730  -13.6620   -1.6760 C   0  0  0  0  0  0  0  0  0  0  0  0
    5.9330  -13.0250   -1.4670 C   0  0  0  0  0  0  0  0  0  0  0  0
    6.3190  -11.6910   -2.0850 C   0  0  2  0  0  0  0  0  0  0  0  0
    6.8100  -11.8650   -3.5320 C   0  0  0  0  0  0  0  0  0  0  0  0
    8.2990  -12.2510   -3.6330 C   0  0  1  0  0  0  0  0  0  0  0  0
    9.0870  -11.0660   -3.6890 O   0  0  0  0  0  0  0  0  0  0  0  0
    8.7830  -13.1430   -2.4600 C   0  0  2  0  0  0  0  0  0  0  0  0
    8.2430  -12.6200   -1.0600 C   0  0  2  0  0  0  0  0  0  0  0  0
    7.4850  -11.2800   -1.1930 C   0  0  0  0  0  0  0  0  0  0  0  0
    9.2340  -12.4720    0.0800 C   0  0  0  0  0  0  0  0  0  0  0  0
    8.8830  -12.4260    1.2560 O   0  0  0  0  0  0  0  0  0  0  0  0
   10.5380  -12.3320   -0.2340 O   0  0  0  0  0  0  0  0  0  0  0  0
   10.9710  -12.3230   -1.6010 C   0  0  1  0  0  0  0  0  0  0  0  0
   12.4950  -12.3180   -1.5860 C   0  0  0  0  0  0  0  0  0  0  0  0
   13.0550  -12.3270   -3.0010 C   0  0  2  0  0  0  0  0  0  0  0  0
   12.5980  -11.1670   -3.6930 O   0  0  0  0  0  0  0  0  0  0  0  0
   12.6150  -13.5940   -3.7720 C   0  0  0  0  0  0  0  0  0  0  0  0
   13.0960  -13.4830   -5.2430 C   0  0  0  0  0  0  0  0  0  0  0  0
   13.3610  -14.8100   -3.1630 C   0  0  0  0  0  0  0  0  0  0  0  0
   11.0310  -13.7110   -3.7810 C   0  0  1  0  0  0  0  0  0  0  0  0
   10.5750  -15.1350   -4.0820 C   0  0  2  0  0  0  0  0  0  0  0  0
    9.2870  -15.1430   -4.6650 O   0  0  0  0  0  0  0  0  0  0  0  0
   10.5350  -15.7750   -2.8160 O   0  0  0  0  0  0  0  0  0  0  0  0
   10.4250  -14.8350   -1.8300 C   0  0  0  0  0  0  0  0  0  0  0  0
   10.3430  -15.1270   -0.6460 O   0  0  0  0  0  0  0  0  0  0  0  0
   10.3250  -13.4360   -2.4240 C   0  0  2  0  0  0  0  0  0  0  0  0
    7.0640  -13.5130   -0.5820 C   0  0  2  0  0  0  0  0  0  0  0  0
    7.2840  -14.9000   -0.7680 O   0  0  0  0  0  0  0  0  0  0  0  0
    4.5792  -14.6270   -1.1848 H   0  0  0  0  0  0  0  0  0  0  0  0
    4.0144  -13.2200   -2.3388 H   0  0  0  0  0  0  0  0  0  0  0  0
    5.4895  -10.9704   -2.1358 H   0  0  0  0  0  0  0  0  0  0  0  0
    6.2122  -12.6550   -4.0101 H   0  0  0  0  0  0  0  0  0  0  0  0
    6.6927  -10.8927   -4.0330 H   0  0  0  0  0  0  0  0  0  0  0  0
    8.4170  -12.8460   -4.5506 H   0  0  0  0  0  0  0  0  0  0  0  0
    9.6510  -11.1250   -4.4810 H   0  0  0  0  0  0  0  0  0  0  0  0
    8.3309  -14.1252   -2.6622 H   0  0  0  0  0  0  0  0  0  0  0  0
    7.1365  -10.9146   -0.2158 H   0  0  0  0  0  0  0  0  0  0  0  0
    8.0918  -10.4541   -1.5927 H   0  0  0  0  0  0  0  0  0  0  0  0
   10.6308  -11.4181   -2.1259 H   0  0  0  0  0  0  0  0  0  0  0  0
   12.8465  -11.4147   -1.0659 H   0  0  0  0  0  0  0  0  0  0  0  0
   12.8430  -13.2226   -1.0659 H   0  0  0  0  0  0  0  0  0  0  0  0
   14.1533  -12.3275   -2.9402 H   0  0  0  0  0  0  0  0  0  0  0  0
   12.4140  -10.4760   -3.0310 H   0  0  0  0  0  0  0  0  0  0  0  0
   14.1677  -13.2357   -5.2607 H   0  0  0  0  0  0  0  0  0  0  0  0
   12.9326  -14.4425   -5.7556 H   0  0  0  0  0  0  0  0  0  0  0  0
   12.5287  -12.6922   -5.7556 H   0  0  0  0  0  0  0  0  0  0  0  0
   13.3244  -14.7504   -2.0652 H   0  0  0  0  0  0  0  0  0  0  0  0
   12.8782  -15.7406   -3.4959 H   0  0  0  0  0  0  0  0  0  0  0  0
   14.4094  -14.8013   -3.4959 H   0  0  0  0  0  0  0  0  0  0  0  0
   10.7613  -12.9561   -4.5342 H   0  0  0  0  0  0  0  0  0  0  0  0
   11.2477  -15.6362   -4.7935 H   0  0  0  0  0  0  0  0  0  0  0  0
    8.8270  -14.3650   -4.3000 H   0  0  0  0  0  0  0  0  0  0  0  0
    6.8860  -13.4253    0.5000 H   0  0  0  0  0  0  0  0  0  0  0  0
    6.7300  -15.1820   -1.5230 H   0  0  0  0  0  0  0  0  0  0  0  0
  1  2  2  0
  2  3  1  0
  3  4  1  0
  4  5  1  0
  5  6  1  0
  5  7  1  0
  7  8  1  0
  8  9  1  0
  8 10  1  1
 10 11  2  0
 10 12  1  0
 12 13  1  0
 13 14  1  0
 14 15  1  0
 15 16  1  0
 15 17  1  0
 17 18  1  0
 17 19  1  0
 17 20  1  0
 20 21  1  0
 21 22  1  0
 21 23  1  0
 23 24  1  0
 24 25  2  0
 26 24  1  1
  8 27  1  0
 27 28  1  0
 27  2  1  0
  9  3  1  0
 26 13  1  0
 26  7  1  0
 26 20  1  0
  1 29  1  0
  1 30  1  0
  3 31  1  6
  4 32  1  0
  4 33  1  0
  5 34  1  6
  6 35  1  0
  7 36  1  6
  9 37  1  0
  9 38  1  0
 13 39  1  6
 14 40  1  0
 14 41  1  0
 15 42  1  1
 16 43  1  0
 18 44  1  0
 18 45  1  0
 18 46  1  0
 19 47  1  0
 19 48  1  0
 19 49  1  0
 20 50  1  6
 21 51  1  6
 22 52  1  0
 27 53  1  1
 28 54  1  0
M  END
>  <meeko>  (3) 
{"is_sidechain": [false], "free_energy": -7.609, "intermolecular_energy": -8.499, "internal_energy": 0.0}

$$$$
LIB_WTTXOCIXCSNVQR__M_PUB_ALL__e8__s20260927
     RDKit          3D

 54 58  0  0  0  0  0  0  0  0999 V2000
    2.4430  -17.4130    0.8750 C   0  0  0  0  0  0  0  0  0  0  0  0
    1.1760  -17.1050    1.1820 C   0  0  0  0  0  0  0  0  0  0  0  0
   -0.0330  -17.4290    0.3210 C   0  0  2  0  0  0  0  0  0  0  0  0
   -0.1890  -16.4190   -0.8290 C   0  0  0  0  0  0  0  0  0  0  0  0
   -0.9290  -15.1310   -0.4180 C   0  0  1  0  0  0  0  0  0  0  0  0
   -2.3280  -15.3110   -0.6140 O   0  0  0  0  0  0  0  0  0  0  0  0
   -0.6590  -14.7100    1.0500 C   0  0  2  0  0  0  0  0  0  0  0  0
   -0.7200  -15.9520    2.0410 C   0  0  2  0  0  0  0  0  0  0  0  0
   -1.1670  -17.2450    1.3230 C   0  0  0  0  0  0  0  0  0  0  0  0
   -1.5530  -15.8200    3.3030 C   0  0  0  0  0  0  0  0  0  0  0  0
   -1.3900  -16.5490    4.2780 O   0  0  0  0  0  0  0  0  0  0  0  0
   -2.5390  -14.8990    3.3140 O   0  0  0  0  0  0  0  0  0  0  0  0
   -2.7900  -14.0740    2.1690 C   0  0  1  0  0  0  0  0  0  0  0  0
   -3.8420  -13.0500    2.5800 C   0  0  0  0  0  0  0  0  0  0  0  0
   -4.1660  -12.1090    1.4290 C   0  0  2  0  0  0  0  0  0  0  0  0
   -4.6660  -12.8670    0.3300 O   0  0  0  0  0  0  0  0  0  0  0  0
   -2.9140  -11.3160    0.9810 C   0  0  0  0  0  0  0  0  0  0  0  0
   -3.2690  -10.4810   -0.2770 C   0  0  0  0  0  0  0  0  0  0  0  0
   -2.5680  -10.2950    2.0960 C   0  0  0  0  0  0  0  0  0  0  0  0
   -1.7410  -12.3130    0.5930 C   0  0  1  0  0  0  0  0  0  0  0  0
   -0.3830  -11.6200    0.6190 C   0  0  2  0  0  0  0  0  0  0  0  0
    0.5300  -12.2590   -0.2510 O   0  0  0  0  0  0  0  0  0  0  0  0
    0.0600  -11.7470    1.9610 O   0  0  0  0  0  0  0  0  0  0  0  0
   -0.5840  -12.7940    2.5600 C   0  0  0  0  0  0  0  0  0  0  0  0
   -0.3610  -13.1330    3.7120 O   0  0  0  0  0  0  0  0  0  0  0  0
   -1.5070  -13.4960    1.5740 C   0  0  2  0  0  0  0  0  0  0  0  0
    0.7190  -16.3840    2.4350 C   0  0  2  0  0  0  0  0  0  0  0  0
    1.5810  -15.3000    2.7330 O   0  0  0  0  0  0  0  0  0  0  0  0
    3.2576  -17.1379    1.5611 H   0  0  0  0  0  0  0  0  0  0  0  0
    2.6688  -17.9410   -0.0632 H   0  0  0  0  0  0  0  0  0  0  0  0
    0.0165  -18.4192   -0.1554 H   0  0  0  0  0  0  0  0  0  0  0  0
    0.8131  -16.1449   -1.1903 H   0  0  0  0  0  0  0  0  0  0  0  0
   -0.7939  -16.9058   -1.6082 H   0  0  0  0  0  0  0  0  0  0  0  0
   -0.5439  -14.3206   -1.0543 H   0  0  0  0  0  0  0  0  0  0  0  0
   -2.6090  -14.6910   -1.3110 H   0  0  0  0  0  0  0  0  0  0  0  0
    0.3720  -14.3267    1.0360 H   0  0  0  0  0  0  0  0  0  0  0  0
   -1.2309  -18.0930    2.0208 H   0  0  0  0  0  0  0  0  0  0  0  0
   -2.1677  -17.1889    0.8697 H   0  0  0  0  0  0  0  0  0  0  0  0
   -3.1916  -14.6606    1.3296 H   0  0  0  0  0  0  0  0  0  0  0  0
   -4.7587  -13.5775    2.8823 H   0  0  0  0  0  0  0  0  0  0  0  0
   -3.4452  -12.4565    3.4168 H   0  0  0  0  0  0  0  0  0  0  0  0
   -4.9234  -11.3888    1.7720 H   0  0  0  0  0  0  0  0  0  0  0  0
   -5.6400  -12.8220    0.3530 H   0  0  0  0  0  0  0  0  0  0  0  0
   -3.6820   -9.5095    0.0323 H   0  0  0  0  0  0  0  0  0  0  0  0
   -2.3618  -10.3192   -0.8777 H   0  0  0  0  0  0  0  0  0  0  0  0
   -4.0149  -11.0221   -0.8777 H   0  0  0  0  0  0  0  0  0  0  0  0
   -2.7255  -10.7598    3.0805 H   0  0  0  0  0  0  0  0  0  0  0  0
   -1.5159   -9.9888    1.9992 H   0  0  0  0  0  0  0  0  0  0  0  0
   -3.2172   -9.4123    1.9992 H   0  0  0  0  0  0  0  0  0  0  0  0
   -2.0750  -12.6682   -0.3931 H   0  0  0  0  0  0  0  0  0  0  0  0
   -0.4539  -10.5729    0.2895 H   0  0  0  0  0  0  0  0  0  0  0  0
    1.2500  -11.6190   -0.3940 H   0  0  0  0  0  0  0  0  0  0  0  0
    0.7365  -16.9852    3.3560 H   0  0  0  0  0  0  0  0  0  0  0  0
    2.4020  -15.4330    2.2190 H   0  0  0  0  0  0  0  0  0  0  0  0
  1  2  2  0
  2  3  1  0
  3  4  1  0
  4  5  1  0
  5  6  1  0
  5  7  1  0
  7  8  1  0
  8  9  1  0
  8 10  1  1
 10 11  2  0
 10 12  1  0
 12 13  1  0
 13 14  1  0
 14 15  1  0
 15 16  1  0
 15 17  1  0
 17 18  1  0
 17 19  1  0
 17 20  1  0
 20 21  1  0
 21 22  1  0
 21 23  1  0
 23 24  1  0
 24 25  2  0
 26 24  1  1
  8 27  1  0
 27 28  1  0
 27  2  1  0
  9  3  1  0
 26 13  1  0
 26  7  1  0
 26 20  1  0
  1 29  1  0
  1 30  1  0
  3 31  1  6
  4 32  1  0
  4 33  1  0
  5 34  1  6
  6 35  1  0
  7 36  1  6
  9 37  1  0
  9 38  1  0
 13 39  1  6
 14 40  1  0
 14 41  1  0
 15 42  1  1
 16 43  1  0
 18 44  1  0
 18 45  1  0
 18 46  1  0
 19 47  1  0
 19 48  1  0
 19 49  1  0
 20 50  1  6
 21 51  1  6
 22 52  1  0
 27 53  1  1
 28 54  1  0
M  END
>  <meeko>  (4) 
{"is_sidechain": [false], "free_energy": -7.277, "intermolecular_energy": -8.128, "internal_energy": 0.0}

$$$$
LIB_WTTXOCIXCSNVQR__M_PUB_ALL__e8__s20260927
     RDKit          3D

 54 58  0  0  0  0  0  0  0  0999 V2000
    5.5940  -12.1980   -7.2290 C   0  0  0  0  0  0  0  0  0  0  0  0
    5.0700  -12.7830   -6.1430 C   0  0  0  0  0  0  0  0  0  0  0  0
    3.6980  -12.4770   -5.5650 C   0  0  2  0  0  0  0  0  0  0  0  0
    3.7220  -11.1930   -4.7170 C   0  0  0  0  0  0  0  0  0  0  0  0
    4.1930  -11.4230   -3.2670 C   0  0  1  0  0  0  0  0  0  0  0  0
    3.0670  -11.7360   -2.4530 O   0  0  0  0  0  0  0  0  0  0  0  0
    5.2560  -12.5440   -3.1380 C   0  0  2  0  0  0  0  0  0  0  0  0
    4.8780  -13.8190   -4.0100 C   0  0  2  0  0  0  0  0  0  0  0  0
    3.4830  -13.6850   -4.6600 C   0  0  0  0  0  0  0  0  0  0  0  0
    4.9440  -15.1840   -3.3470 C   0  0  0  0  0  0  0  0  0  0  0  0
    5.0220  -16.2250   -3.9930 O   0  0  0  0  0  0  0  0  0  0  0  0
    4.8540  -15.2360   -2.0030 O   0  0  0  0  0  0  0  0  0  0  0  0
    4.7030  -14.0400   -1.2270 C   0  0  1  0  0  0  0  0  0  0  0  0
    4.8040  -14.4440    0.2390 C   0  0  0  0  0  0  0  0  0  0  0  0
    4.6730  -13.2310    1.1510 C   0  0  2  0  0  0  0  0  0  0  0  0
    3.4070  -12.6150    0.9300 O   0  0  0  0  0  0  0  0  0  0  0  0
    5.8000  -12.2050    0.8860 C   0  0  0  0  0  0  0  0  0  0  0  0
    5.5380  -10.9370    1.7390 C   0  0  0  0  0  0  0  0  0  0  0  0
    7.1310  -12.8090    1.4050 C   0  0  0  0  0  0  0  0  0  0  0  0
    5.8060  -11.7760   -0.6430 C   0  0  1  0  0  0  0  0  0  0  0  0
    7.1460  -11.1730   -1.0520 C   0  0  2  0  0  0  0  0  0  0  0  0
    6.9920  -10.2850   -2.1410 O   0  0  0  0  0  0  0  0  0  0  0  0
    7.9370  -12.2850   -1.4430 O   0  0  0  0  0  0  0  0  0  0  0  0
    7.1220  -13.3310   -1.7770 C   0  0  0  0  0  0  0  0  0  0  0  0
    7.5550  -14.4020   -2.1760 O   0  0  0  0  0  0  0  0  0  0  0  0
    5.6570  -12.9320   -1.6700 C   0  0  2  0  0  0  0  0  0  0  0  0
    5.7410  -13.8500   -5.3020 C   0  0  2  0  0  0  0  0  0  0  0  0
    7.1060  -13.5360   -5.0870 O   0  0  0  0  0  0  0  0  0  0  0  0
    6.5979  -12.4829   -7.5768 H   0  0  0  0  0  0  0  0  0  0  0  0
    5.0201  -11.4330   -7.7725 H   0  0  0  0  0  0  0  0  0  0  0  0
    2.9219  -12.3179   -6.3282 H   0  0  0  0  0  0  0  0  0  0  0  0
    4.4030  -10.4730   -5.1944 H   0  0  0  0  0  0  0  0  0  0  0  0
    2.6888  -10.8190   -4.6664 H   0  0  0  0  0  0  0  0  0  0  0  0
    4.6742  -10.4923   -2.9320 H   0  0  0  0  0  0  0  0  0  0  0  0
    2.5040  -10.9420   -2.4120 H   0  0  0  0  0  0  0  0  0  0  0  0
    6.1715  -12.0977   -3.5535 H   0  0  0  0  0  0  0  0  0  0  0  0
    3.2196  -14.5821   -5.2396 H   0  0  0  0  0  0  0  0  0  0  0  0
    2.6573  -13.5722   -3.9420 H   0  0  0  0  0  0  0  0  0  0  0  0
    3.7183  -13.5773   -1.3887 H   0  0  0  0  0  0  0  0  0  0  0  0
    3.9995  -15.1572    0.4716 H   0  0  0  0  0  0  0  0  0  0  0  0
    5.7887  -14.9043    0.4081 H   0  0  0  0  0  0  0  0  0  0  0  0
    4.7562  -13.5685    2.1946 H   0  0  0  0  0  0  0  0  0  0  0  0
    2.9620  -13.0940    0.2070 H   0  0  0  0  0  0  0  0  0  0  0  0
    5.5915  -11.1959    2.8068 H   0  0  0  0  0  0  0  0  0  0  0  0
    6.2979  -10.1760    1.5077 H   0  0  0  0  0  0  0  0  0  0  0  0
    4.5388  -10.5395    1.5077 H   0  0  0  0  0  0  0  0  0  0  0  0
    7.1296  -12.8084    2.5050 H   0  0  0  0  0  0  0  0  0  0  0  0
    7.2325  -13.8414    1.0390 H   0  0  0  0  0  0  0  0  0  0  0  0
    7.9748  -12.2056    1.0390 H   0  0  0  0  0  0  0  0  0  0  0  0
    4.9453  -11.0920   -0.6801 H   0  0  0  0  0  0  0  0  0  0  0  0
    7.5987  -10.5938   -0.2337 H   0  0  0  0  0  0  0  0  0  0  0  0
    7.8830   -9.9380   -2.3270 H   0  0  0  0  0  0  0  0  0  0  0  0
    5.7780  -14.8515   -5.7554 H   0  0  0  0  0  0  0  0  0  0  0  0
    7.2680  -12.6610   -5.4920 H   0  0  0  0  0  0  0  0  0  0  0  0
  1  2  2  0
  2  3  1  0
  3  4  1  0
  4  5  1  0
  5  6  1  0
  5  7  1  0
  7  8  1  0
  8  9  1  0
  8 10  1  1
 10 11  2  0
 10 12  1  0
 12 13  1  0
 13 14  1  0
 14 15  1  0
 15 16  1  0
 15 17  1  0
 17 18  1  0
 17 19  1  0
 17 20  1  0
 20 21  1  0
 21 22  1  0
 21 23  1  0
 23 24  1  0
 24 25  2  0
 26 24  1  6
  8 27  1  0
 27 28  1  0
 27  2  1  0
  9  3  1  0
 26 13  1  0
 26  7  1  0
 26 20  1  0
  1 29  1  0
  1 30  1  0
  3 31  1  6
  4 32  1  0
  4 33  1  0
  5 34  1  1
  6 35  1  0
  7 36  1  6
  9 37  1  0
  9 38  1  0
 13 39  1  1
 14 40  1  0
 14 41  1  0
 15 42  1  1
 16 43  1  0
 18 44  1  0
 18 45  1  0
 18 46  1  0
 19 47  1  0
 19 48  1  0
 19 49  1  0
 20 50  1  1
 21 51  1  1
 22 52  1  0
 27 53  1  6
 28 54  1  0
M  END
>  <meeko>  (5) 
{"is_sidechain": [false], "free_energy": -7.098, "intermolecular_energy": -7.928, "internal_energy": 0.0}

$$$$
LIB_WTTXOCIXCSNVQR__M_PUB_ALL__e8__s20260927
     RDKit          3D

 54 58  0  0  0  0  0  0  0  0999 V2000
    1.1550  -14.0770   -4.7300 C   0  0  0  0  0  0  0  0  0  0  0  0
    1.8170  -13.5710   -3.6810 C   0  0  0  0  0  0  0  0  0  0  0  0
    2.1730  -12.1040   -3.5000 C   0  0  2  0  0  0  0  0  0  0  0  0
    3.4180  -11.7240   -4.3200 C   0  0  0  0  0  0  0  0  0  0  0  0
    4.7450  -12.0500   -3.6070 C   0  0  1  0  0  0  0  0  0  0  0  0
    5.1380  -10.9350   -2.8140 O   0  0  0  0  0  0  0  0  0  0  0  0
    4.6700  -13.3200   -2.7190 C   0  0  2  0  0  0  0  0  0  0  0  0
    3.3340  -13.3590   -1.8590 C   0  0  2  0  0  0  0  0  0  0  0  0
    2.5060  -12.0630   -2.0120 C   0  0  0  0  0  0  0  0  0  0  0  0
    3.4470  -13.6550   -0.3740 C   0  0  0  0  0  0  0  0  0  0  0  0
    2.4950  -14.0510    0.2920 O   0  0  0  0  0  0  0  0  0  0  0  0
    4.6300  -13.4130    0.2270 O   0  0  0  0  0  0  0  0  0  0  0  0
    5.7420  -12.8930   -0.5140 C   0  0  1  0  0  0  0  0  0  0  0  0
    6.9440  -12.9010    0.4230 C   0  0  0  0  0  0  0  0  0  0  0  0
    8.1890  -12.3800   -0.2820 C   0  0  2  0  0  0  0  0  0  0  0  0
    7.9550  -11.0440   -0.7190 O   0  0  0  0  0  0  0  0  0  0  0  0
    8.5570  -13.2640   -1.4980 C   0  0  0  0  0  0  0  0  0  0  0  0
    9.7430  -12.6110   -2.2550 C   0  0  0  0  0  0  0  0  0  0  0  0
    9.0800  -14.6230   -0.9640 C   0  0  0  0  0  0  0  0  0  0  0  0
    7.3290  -13.3610   -2.5000 C   0  0  1  0  0  0  0  0  0  0  0  0
    7.4540  -14.5660   -3.4270 C   0  0  2  0  0  0  0  0  0  0  0  0
    6.7600  -14.3480   -4.6390 O   0  0  0  0  0  0  0  0  0  0  0  0
    6.8530  -15.6340   -2.7120 O   0  0  0  0  0  0  0  0  0  0  0  0
    5.9990  -15.1330   -1.7700 C   0  0  0  0  0  0  0  0  0  0  0  0
    5.3330  -15.8470   -1.0360 O   0  0  0  0  0  0  0  0  0  0  0  0
    5.9420  -13.6130   -1.8460 C   0  0  2  0  0  0  0  0  0  0  0  0
    2.3270  -14.3600   -2.4910 C   0  0  2  0  0  0  0  0  0  0  0  0
    2.9180  -15.5770   -2.9120 O   0  0  0  0  0  0  0  0  0  0  0  0
    0.9404  -15.1548   -4.7771 H   0  0  0  0  0  0  0  0  0  0  0  0
    0.8260  -13.4146   -5.5443 H   0  0  0  0  0  0  0  0  0  0  0  0
    1.3801  -11.4135   -3.8232 H   0  0  0  0  0  0  0  0  0  0  0  0
    3.3896  -12.2744   -5.2720 H   0  0  0  0  0  0  0  0  0  0  0  0
    3.3886  -10.6344   -4.4679 H   0  0  0  0  0  0  0  0  0  0  0  0
    5.4889  -12.2570   -4.3904 H   0  0  0  0  0  0  0  0  0  0  0  0
    5.6850  -10.3550   -3.3720 H   0  0  0  0  0  0  0  0  0  0  0  0
    4.6457  -14.1523   -3.4379 H   0  0  0  0  0  0  0  0  0  0  0  0
    1.5966  -12.0893   -1.3937 H   0  0  0  0  0  0  0  0  0  0  0  0
    3.0286  -11.1504   -1.6894 H   0  0  0  0  0  0  0  0  0  0  0  0
    5.5639  -11.8559   -0.8346 H   0  0  0  0  0  0  0  0  0  0  0  0
    6.7277  -12.2609    1.2910 H   0  0  0  0  0  0  0  0  0  0  0  0
    7.1307  -13.9362    0.7446 H   0  0  0  0  0  0  0  0  0  0  0  0
    9.0286  -12.4073    0.4281 H   0  0  0  0  0  0  0  0  0  0  0  0
    7.0270  -10.8210   -0.5200 H   0  0  0  0  0  0  0  0  0  0  0  0
   10.4667  -12.2125   -1.5287 H   0  0  0  0  0  0  0  0  0  0  0  0
   10.2349  -13.3655   -2.8865 H   0  0  0  0  0  0  0  0  0  0  0  0
    9.3685  -11.7919   -2.8865 H   0  0  0  0  0  0  0  0  0  0  0  0
    9.0754  -14.6110    0.1359 H   0  0  0  0  0  0  0  0  0  0  0  0
    8.4295  -15.4335   -1.3246 H   0  0  0  0  0  0  0  0  0  0  0  0
   10.1060  -14.7883   -1.3246 H   0  0  0  0  0  0  0  0  0  0  0  0
    7.3701  -12.3772   -2.9904 H   0  0  0  0  0  0  0  0  0  0  0  0
    8.5019  -14.7673   -3.6943 H   0  0  0  0  0  0  0  0  0  0  0  0
    6.1820  -15.1230   -4.7560 H   0  0  0  0  0  0  0  0  0  0  0  0
    1.5559  -14.6834   -1.7763 H   0  0  0  0  0  0  0  0  0  0  0  0
    3.3490  -15.9750   -2.1300 H   0  0  0  0  0  0  0  0  0  0  0  0
  1  2  2  0
  2  3  1  0
  3  4  1  0
  4  5  1  0
  5  6  1  0
  5  7  1  0
  7  8  1  0
  8  9  1  0
  8 10  1  1
 10 11  2  0
 10 12  1  0
 12 13  1  0
 13 14  1  0
 14 15  1  0
 15 16  1  0
 15 17  1  0
 17 18  1  0
 17 19  1  0
 17 20  1  0
 20 21  1  0
 21 22  1  0
 21 23  1  0
 23 24  1  0
 24 25  2  0
 26 24  1  1
  8 27  1  0
 27 28  1  0
 27  2  1  0
  9  3  1  0
 26 13  1  0
 26  7  1  0
 26 20  1  0
  1 29  1  0
  1 30  1  0
  3 31  1  1
  4 32  1  0
  4 33  1  0
  5 34  1  6
  6 35  1  0
  7 36  1  6
  9 37  1  0
  9 38  1  0
 13 39  1  6
 14 40  1  0
 14 41  1  0
 15 42  1  1
 16 43  1  0
 18 44  1  0
 18 45  1  0
 18 46  1  0
 19 47  1  0
 19 48  1  0
 19 49  1  0
 20 50  1  6
 21 51  1  6
 22 52  1  0
 27 53  1  1
 28 54  1  0
M  END
>  <meeko>  (6) 
{"is_sidechain": [false], "free_energy": -7.088, "intermolecular_energy": -7.917, "internal_energy": 0.0}

$$$$
LIB_WTTXOCIXCSNVQR__M_PUB_ALL__e8__s20260927
     RDKit          3D

 54 58  0  0  0  0  0  0  0  0999 V2000
    0.0610   -9.8410    1.1110 C   0  0  0  0  0  0  0  0  0  0  0  0
   -0.4970  -11.0390    0.8880 C   0  0  0  0  0  0  0  0  0  0  0  0
   -1.9870  -11.3310    0.9460 C   0  0  2  0  0  0  0  0  0  0  0  0
   -2.4680  -11.5070    2.3970 C   0  0  0  0  0  0  0  0  0  0  0  0
   -2.2500  -12.9310    2.9470 C   0  0  1  0  0  0  0  0  0  0  0  0
   -3.3930  -13.7270    2.6510 O   0  0  0  0  0  0  0  0  0  0  0  0
   -0.9780  -13.6180    2.3840 C   0  0  2  0  0  0  0  0  0  0  0  0
   -0.8300  -13.3940    0.8180 C   0  0  2  0  0  0  0  0  0  0  0  0
   -2.0540  -12.6670    0.2170 C   0  0  0  0  0  0  0  0  0  0  0  0
   -0.5440  -14.6030   -0.0540 C   0  0  0  0  0  0  0  0  0  0  0  0
   -0.0710  -14.5030   -1.1830 O   0  0  0  0  0  0  0  0  0  0  0  0
   -0.8810  -15.8180    0.4240 O   0  0  0  0  0  0  0  0  0  0  0  0
   -1.4890  -15.9600    1.7140 C   0  0  1  0  0  0  0  0  0  0  0  0
   -1.5780  -17.4540    2.0030 C   0  0  0  0  0  0  0  0  0  0  0  0
   -2.1990  -17.7100    3.3700 C   0  0  2  0  0  0  0  0  0  0  0  0
   -3.5120  -17.1570    3.3990 O   0  0  0  0  0  0  0  0  0  0  0  0
   -1.3490  -17.0810    4.4990 C   0  0  0  0  0  0  0  0  0  0  0  0
   -2.0960  -17.2520    5.8480 C   0  0  0  0  0  0  0  0  0  0  0  0
   -0.0360  -17.8980    4.6250 C   0  0  0  0  0  0  0  0  0  0  0  0
   -1.1520  -15.5270    4.2410 C   0  0  1  0  0  0  0  0  0  0  0  0
    0.0380  -14.9740    5.0180 C   0  0  2  0  0  0  0  0  0  0  0  0
   -0.1240  -13.5940    5.2800 O   0  0  0  0  0  0  0  0  0  0  0  0
    1.1520  -15.1760    4.1630 O   0  0  0  0  0  0  0  0  0  0  0  0
    0.7210  -15.3000    2.8710 C   0  0  0  0  0  0  0  0  0  0  0  0
    1.4880  -15.4550    1.9330 O   0  0  0  0  0  0  0  0  0  0  0  0
   -0.7890  -15.1250    2.7840 C   0  0  2  0  0  0  0  0  0  0  0  0
    0.2490  -12.3110    0.5390 C   0  0  2  0  0  0  0  0  0  0  0  0
    1.4140  -12.4450    1.3340 O   0  0  0  0  0  0  0  0  0  0  0  0
    1.1527   -9.7223    1.0471 H   0  0  0  0  0  0  0  0  0  0  0  0
   -0.5727   -8.9765    1.3579 H   0  0  0  0  0  0  0  0  0  0  0  0
   -2.6111  -10.5318    0.5197 H   0  0  0  0  0  0  0  0  0  0  0  0
   -1.9182  -10.7992    3.0347 H   0  0  0  0  0  0  0  0  0  0  0  0
   -3.5518  -11.3188    2.4045 H   0  0  0  0  0  0  0  0  0  0  0  0
   -2.1045  -12.8392    4.0335 H   0  0  0  0  0  0  0  0  0  0  0  0
   -4.1780  -13.1590    2.7430 H   0  0  0  0  0  0  0  0  0  0  0  0
   -0.1470  -13.1031    2.8884 H   0  0  0  0  0  0  0  0  0  0  0  0
   -1.9535  -12.5388   -0.8709 H   0  0  0  0  0  0  0  0  0  0  0  0
   -3.0060  -13.2038    0.3417 H   0  0  0  0  0  0  0  0  0  0  0  0
   -2.5083  -15.5466    1.7262 H   0  0  0  0  0  0  0  0  0  0  0  0
   -2.1978  -17.9333    1.2310 H   0  0  0  0  0  0  0  0  0  0  0  0
   -0.5610  -17.8732    1.9963 H   0  0  0  0  0  0  0  0  0  0  0  0
   -2.2394  -18.7966    3.5362 H   0  0  0  0  0  0  0  0  0  0  0  0
   -4.1480  -17.8950    3.4270 H   0  0  0  0  0  0  0  0  0  0  0  0
   -1.3935  -17.0912    6.6791 H   0  0  0  0  0  0  0  0  0  0  0  0
   -2.9125  -16.5175    5.9107 H   0  0  0  0  0  0  0  0  0  0  0  0
   -2.5116  -18.2685    5.9107 H   0  0  0  0  0  0  0  0  0  0  0  0
    0.2028  -18.0466    5.6884 H   0  0  0  0  0  0  0  0  0  0  0  0
   -0.1645  -18.8759    4.1379 H   0  0  0  0  0  0  0  0  0  0  0  0
    0.7845  -17.3508    4.1379 H   0  0  0  0  0  0  0  0  0  0  0  0
   -2.1357  -15.1316    4.5343 H   0  0  0  0  0  0  0  0  0  0  0  0
    0.1534  -15.4696    5.9932 H   0  0  0  0  0  0  0  0  0  0  0  0
    0.3370  -13.4290    6.1220 H   0  0  0  0  0  0  0  0  0  0  0  0
    0.6350  -12.3618   -0.4898 H   0  0  0  0  0  0  0  0  0  0  0  0
    1.8870  -11.5900    1.2990 H   0  0  0  0  0  0  0  0  0  0  0  0
  1  2  2  0
  2  3  1  0
  3  4  1  0
  4  5  1  0
  5  6  1  0
  5  7  1  0
  7  8  1  0
  8  9  1  0
  8 10  1  6
 10 11  2  0
 10 12  1  0
 12 13  1  0
 13 14  1  0
 14 15  1  0
 15 16  1  0
 15 17  1  0
 17 18  1  0
 17 19  1  0
 17 20  1  0
 20 21  1  0
 21 22  1  0
 21 23  1  0
 23 24  1  0
 24 25  2  0
 26 24  1  1
  8 27  1  0
 27 28  1  0
 27  2  1  0
  9  3  1  0
 26 13  1  0
 26  7  1  0
 26 20  1  0
  1 29  1  0
  1 30  1  0
  3 31  1  6
  4 32  1  0
  4 33  1  0
  5 34  1  1
  6 35  1  0
  7 36  1  1
  9 37  1  0
  9 38  1  0
 13 39  1  6
 14 40  1  0
 14 41  1  0
 15 42  1  1
 16 43  1  0
 18 44  1  0
 18 45  1  0
 18 46  1  0
 19 47  1  0
 19 48  1  0
 19 49  1  0
 20 50  1  1
 21 51  1  1
 22 52  1  0
 27 53  1  6
 28 54  1  0
M  END
>  <meeko>  (7) 
{"is_sidechain": [false], "free_energy": -6.828, "intermolecular_energy": -7.627, "internal_energy": 0.0}

$$$$
LIB_WTTXOCIXCSNVQR__M_PUB_ALL__e8__s20260927
     RDKit          3D

 54 58  0  0  0  0  0  0  0  0999 V2000
    9.9270  -15.0960   -1.2690 C   0  0  0  0  0  0  0  0  0  0  0  0
    9.2580  -14.3330   -2.1430 C   0  0  0  0  0  0  0  0  0  0  0  0
    9.2930  -12.8130   -2.1780 C   0  0  2  0  0  0  0  0  0  0  0  0
    8.3610  -12.2070   -1.1140 C   0  0  0  0  0  0  0  0  0  0  0  0
    6.8930  -12.1040   -1.5710 C   0  0  1  0  0  0  0  0  0  0  0  0
    6.6900  -10.8510   -2.2170 O   0  0  0  0  0  0  0  0  0  0  0  0
    6.4630  -13.2530   -2.5200 C   0  0  2  0  0  0  0  0  0  0  0  0
    7.5670  -13.5520   -3.6230 C   0  0  2  0  0  0  0  0  0  0  0  0
    8.7320  -12.5380   -3.5680 C   0  0  0  0  0  0  0  0  0  0  0  0
    7.1220  -13.6570   -5.0710 C   0  0  0  0  0  0  0  0  0  0  0  0
    7.7980  -14.2180   -5.9280 O   0  0  0  0  0  0  0  0  0  0  0  0
    5.9650  -13.0560   -5.4190 O   0  0  0  0  0  0  0  0  0  0  0  0
    5.1840  -12.3420   -4.4520 C   0  0  1  0  0  0  0  0  0  0  0  0
    3.8830  -11.9440   -5.1370 C   0  0  0  0  0  0  0  0  0  0  0  0
    2.9700  -11.1910   -4.1780 C   0  0  2  0  0  0  0  0  0  0  0  0
    3.6330  -10.0120   -3.7290 O   0  0  0  0  0  0  0  0  0  0  0  0
    2.5900  -12.0660   -2.9600 C   0  0  0  0  0  0  0  0  0  0  0  0
    1.7780  -11.2060   -1.9560 C   0  0  0  0  0  0  0  0  0  0  0  0
    1.6300  -13.1810   -3.4510 C   0  0  0  0  0  0  0  0  0  0  0  0
    3.8980  -12.5790   -2.2210 C   0  0  1  0  0  0  0  0  0  0  0  0
    3.6090  -13.7970   -1.3490 C   0  0  2  0  0  0  0  0  0  0  0  0
    4.5350  -13.8900   -0.2850 O   0  0  0  0  0  0  0  0  0  0  0  0
    3.7610  -14.9070   -2.2200 O   0  0  0  0  0  0  0  0  0  0  0  0
    4.5440  -14.5530   -3.2830 C   0  0  0  0  0  0  0  0  0  0  0  0
    4.8510  -15.3380   -4.1670 O   0  0  0  0  0  0  0  0  0  0  0  0
    5.0280  -13.1160   -3.1430 C   0  0  2  0  0  0  0  0  0  0  0  0
    8.3540  -14.8380   -3.2490 C   0  0  2  0  0  0  0  0  0  0  0  0
    7.5340  -15.8960   -2.7830 O   0  0  0  0  0  0  0  0  0  0  0  0
    9.8423  -16.1916   -1.3179 H   0  0  0  0  0  0  0  0  0  0  0  0
   10.5611  -14.6270   -0.5022 H   0  0  0  0  0  0  0  0  0  0  0  0
   10.2884  -12.3884   -1.9806 H   0  0  0  0  0  0  0  0  0  0  0  0
    8.4023  -12.8386   -0.2143 H   0  0  0  0  0  0  0  0  0  0  0  0
    8.7127  -11.1828   -0.9206 H   0  0  0  0  0  0  0  0  0  0  0  0
    6.2682  -12.1885   -0.6696 H   0  0  0  0  0  0  0  0  0  0  0  0
    7.5580  -10.5380   -2.5310 H   0  0  0  0  0  0  0  0  0  0  0  0
    6.3831  -14.1312   -1.8625 H   0  0  0  0  0  0  0  0  0  0  0  0
    9.4781  -12.7374   -4.3513 H   0  0  0  0  0  0  0  0  0  0  0  0
    8.4317  -11.4933   -3.7368 H   0  0  0  0  0  0  0  0  0  0  0  0
    5.6920  -11.4242   -4.1210 H   0  0  0  0  0  0  0  0  0  0  0  0
    4.1123  -11.2981   -5.9974 H   0  0  0  0  0  0  0  0  0  0  0  0
    3.3672  -12.8575   -5.4679 H   0  0  0  0  0  0  0  0  0  0  0  0
    2.0449  -10.9282   -4.7120 H   0  0  0  0  0  0  0  0  0  0  0  0
    4.4730   -9.9350   -4.2170 H   0  0  0  0  0  0  0  0  0  0  0  0
    2.0469  -11.4907   -0.9281 H   0  0  0  0  0  0  0  0  0  0  0  0
    2.0088  -10.1422   -2.1140 H   0  0  0  0  0  0  0  0  0  0  0  0
    0.7027  -11.3753   -2.1140 H   0  0  0  0  0  0  0  0  0  0  0  0
    1.1889  -13.6934   -2.5833 H   0  0  0  0  0  0  0  0  0  0  0  0
    0.8295  -12.7342   -4.0589 H   0  0  0  0  0  0  0  0  0  0  0  0
    2.1908  -13.9062   -4.0589 H   0  0  0  0  0  0  0  0  0  0  0  0
    4.2140  -11.6730   -1.6832 H   0  0  0  0  0  0  0  0  0  0  0  0
    2.6088  -13.7449   -0.8942 H   0  0  0  0  0  0  0  0  0  0  0  0
    4.3870  -13.0990    0.2640 H   0  0  0  0  0  0  0  0  0  0  0  0
    8.8711  -15.2770   -4.1149 H   0  0  0  0  0  0  0  0  0  0  0  0
    8.1020  -16.6870   -2.7010 H   0  0  0  0  0  0  0  0  0  0  0  0
  1  2  2  0
  2  3  1  0
  3  4  1  0
  4  5  1  0
  5  6  1  0
  5  7  1  0
  7  8  1  0
  8  9  1  0
  8 10  1  6
 10 11  2  0
 10 12  1  0
 12 13  1  0
 13 14  1  0
 14 15  1  0
 15 16  1  0
 15 17  1  0
 17 18  1  0
 17 19  1  0
 17 20  1  0
 20 21  1  0
 21 22  1  0
 21 23  1  0
 23 24  1  0
 24 25  2  0
 26 24  1  6
  8 27  1  0
 27 28  1  0
 27  2  1  0
  9  3  1  0
 26 13  1  0
 26  7  1  0
 26 20  1  0
  1 29  1  0
  1 30  1  0
  3 31  1  6
  4 32  1  0
  4 33  1  0
  5 34  1  1
  6 35  1  0
  7 36  1  1
  9 37  1  0
  9 38  1  0
 13 39  1  1
 14 40  1  0
 14 41  1  0
 15 42  1  6
 16 43  1  0
 18 44  1  0
 18 45  1  0
 18 46  1  0
 19 47  1  0
 19 48  1  0
 19 49  1  0
 20 50  1  1
 21 51  1  1
 22 52  1  0
 27 53  1  6
 28 54  1  0
M  END
>  <meeko>  (8) 
{"is_sidechain": [false], "free_energy": -6.769, "intermolecular_energy": -7.561, "internal_energy": 0.0}

$$$$
LIB_WTTXOCIXCSNVQR__M_PUB_ALL__e8__s20260927
     RDKit          3D

 54 58  0  0  0  0  0  0  0  0999 V2000
    0.7220  -12.4220    0.2120 C   0  0  0  0  0  0  0  0  0  0  0  0
    0.1150  -13.5570    0.5850 C   0  0  0  0  0  0  0  0  0  0  0  0
   -1.3900  -13.7610    0.6430 C   0  0  2  0  0  0  0  0  0  0  0  0
   -1.9890  -13.1570    1.9250 C   0  0  0  0  0  0  0  0  0  0  0  0
   -1.8950  -14.0940    3.1460 C   0  0  1  0  0  0  0  0  0  0  0  0
   -3.0570  -14.9160    3.1960 O   0  0  0  0  0  0  0  0  0  0  0  0
   -0.6260  -14.9860    3.1410 C   0  0  2  0  0  0  0  0  0  0  0  0
   -0.3480  -15.6060    1.7040 C   0  0  2  0  0  0  0  0  0  0  0  0
   -1.4790  -15.2820    0.7020 C   0  0  0  0  0  0  0  0  0  0  0  0
   -0.0660  -17.0940    1.6090 C   0  0  0  0  0  0  0  0  0  0  0  0
    0.4960  -17.5970    0.6400 O   0  0  0  0  0  0  0  0  0  0  0  0
   -0.5080  -17.8830    2.6100 O   0  0  0  0  0  0  0  0  0  0  0  0
   -1.2200  -17.3310    3.7250 C   0  0  1  0  0  0  0  0  0  0  0  0
   -1.4160  -18.4590    4.7310 C   0  0  0  0  0  0  0  0  0  0  0  0
   -2.1520  -17.9650    5.9690 C   0  0  2  0  0  0  0  0  0  0  0  0
   -3.4300  -17.4640    5.5840 O   0  0  0  0  0  0  0  0  0  0  0  0
   -1.3560  -16.8520    6.6890 C   0  0  0  0  0  0  0  0  0  0  0  0
   -2.2120  -16.2930    7.8560 C   0  0  0  0  0  0  0  0  0  0  0  0
   -0.1060  -17.5000    7.3400 C   0  0  0  0  0  0  0  0  0  0  0  0
   -1.0510  -15.6570    5.6880 C   0  0  1  0  0  0  0  0  0  0  0  0
    0.1060  -14.7940    6.1790 C   0  0  2  0  0  0  0  0  0  0  0  0
    0.0060  -13.4760    5.6780 O   0  0  0  0  0  0  0  0  0  0  0  0
    1.2690  -15.4210    5.6590 O   0  0  0  0  0  0  0  0  0  0  0  0
    0.9310  -16.1910    4.5810 C   0  0  0  0  0  0  0  0  0  0  0  0
    1.7560  -16.8170    3.9340 O   0  0  0  0  0  0  0  0  0  0  0  0
   -0.5550  -16.0700    4.2740 C   0  0  2  0  0  0  0  0  0  0  0  0
    0.8110  -14.8340    1.0110 C   0  0  2  0  0  0  0  0  0  0  0  0
    1.9020  -14.5500    1.8690 O   0  0  0  0  0  0  0  0  0  0  0  0
    1.8204  -12.3640    0.1999 H   0  0  0  0  0  0  0  0  0  0  0  0
    0.1219  -11.5483   -0.0820 H   0  0  0  0  0  0  0  0  0  0  0  0
   -1.9323  -13.2905   -0.1904 H   0  0  0  0  0  0  0  0  0  0  0  0
   -1.4496  -12.2268    2.1571 H   0  0  0  0  0  0  0  0  0  0  0  0
   -3.0576  -12.9813    1.7323 H   0  0  0  0  0  0  0  0  0  0  0  0
   -1.8260  -13.4546    4.0384 H   0  0  0  0  0  0  0  0  0  0  0  0
   -3.2600  -15.1930    2.2840 H   0  0  0  0  0  0  0  0  0  0  0  0
    0.1929  -14.2936    3.3861 H   0  0  0  0  0  0  0  0  0  0  0  0
   -1.2892  -15.7360   -0.2818 H   0  0  0  0  0  0  0  0  0  0  0  0
   -2.4671  -15.6670    0.9942 H   0  0  0  0  0  0  0  0  0  0  0  0
   -2.2120  -16.9609    3.4267 H   0  0  0  0  0  0  0  0  0  0  0  0
   -2.0021  -19.2624    4.2608 H   0  0  0  0  0  0  0  0  0  0  0  0
   -0.4271  -18.8313    5.0367 H   0  0  0  0  0  0  0  0  0  0  0  0
   -2.2669  -18.8081    6.6661 H   0  0  0  0  0  0  0  0  0  0  0  0
   -4.1030  -17.8980    6.1400 H   0  0  0  0  0  0  0  0  0  0  0  0
   -1.7612  -16.5874    8.8152 H   0  0  0  0  0  0  0  0  0  0  0  0
   -2.2498  -15.1956    7.7901 H   0  0  0  0  0  0  0  0  0  0  0  0
   -3.2320  -16.6996    7.7901 H   0  0  0  0  0  0  0  0  0  0  0  0
   -0.1969  -17.4529    8.4352 H   0  0  0  0  0  0  0  0  0  0  0  0
   -0.0307  -18.5507    7.0232 H   0  0  0  0  0  0  0  0  0  0  0  0
    0.7960  -16.9560    7.0232 H   0  0  0  0  0  0  0  0  0  0  0  0
   -2.0300  -15.1576    5.6410 H   0  0  0  0  0  0  0  0  0  0  0  0
    0.1171  -14.7149    7.2761 H   0  0  0  0  0  0  0  0  0  0  0  0
    0.2510  -13.5320    4.7370 H   0  0  0  0  0  0  0  0  0  0  0  0
    1.2706  -15.4126    0.1961 H   0  0  0  0  0  0  0  0  0  0  0  0
    2.1260  -13.6060    1.7470 H   0  0  0  0  0  0  0  0  0  0  0  0
  1  2  2  0
  2  3  1  0
  3  4  1  0
  4  5  1  0
  5  6  1  0
  5  7  1  0
  7  8  1  0
  8  9  1  0
  8 10  1  1
 10 11  2  0
 10 12  1  0
 12 13  1  0
 13 14  1  0
 14 15  1  0
 15 16  1  0
 15 17  1  0
 17 18  1  0
 17 19  1  0
 17 20  1  0
 20 21  1  0
 21 22  1  0
 21 23  1  0
 23 24  1  0
 24 25  2  0
 26 24  1  1
  8 27  1  0
 27 28  1  0
 27  2  1  0
  9  3  1  0
 26 13  1  0
 26  7  1  0
 26 20  1  0
  1 29  1  0
  1 30  1  0
  3 31  1  6
  4 32  1  0
  4 33  1  0
  5 34  1  1
  6 35  1  0
  7 36  1  1
  9 37  1  0
  9 38  1  0
 13 39  1  6
 14 40  1  0
 14 41  1  0
 15 42  1  1
 16 43  1  0
 18 44  1  0
 18 45  1  0
 18 46  1  0
 19 47  1  0
 19 48  1  0
 19 49  1  0
 20 50  1  6
 21 51  1  1
 22 52  1  0
 27 53  1  6
 28 54  1  0
M  END
>  <meeko>  (9) 
{"is_sidechain": [false], "free_energy": -6.751, "intermolecular_energy": -7.541, "internal_energy": 0.0}

$$$$
