LIB_BXMPHYNIUWLBLW__M_PUB_ALL__e8__s20260927
     RDKit          3D

 69 74  0  0  0  0  0  0  0  0999 V2000
   -1.7340  -16.5840    1.3340 C   0  0  0  0  0  0  0  0  0  0  0  0
   -2.7470  -16.5380    2.4410 C   0  0  0  0  0  0  0  0  0  0  0  0
   -2.9280  -17.6810    3.2410 C   0  0  0  0  0  0  0  0  0  0  0  0
   -3.8580  -17.7010    4.2890 C   0  0  0  0  0  0  0  0  0  0  0  0
   -4.6290  -16.5750    4.5610 C   0  0  0  0  0  0  0  0  0  0  0  0
   -5.5930  -16.4910    5.5870 N   0  0  0  0  0  0  0  0  0  0  0  0
   -6.8550  -17.0630    5.6290 C   0  0  0  0  0  0  0  0  0  0  0  0
   -7.3370  -17.7780    4.7610 O   0  0  0  0  0  0  0  0  0  0  0  0
   -7.5020  -16.7000    6.8060 N   0  0  0  0  0  0  0  0  0  0  0  0
   -8.7770  -17.1020    7.2600 C   0  0  0  0  0  0  0  0  0  0  0  0
   -9.1620  -18.4350    7.4430 C   0  0  0  0  0  0  0  0  0  0  0  0
  -10.4430  -18.7930    7.8990 C   0  0  0  0  0  0  0  0  0  0  0  0
  -10.8390  -20.1170    8.0650 N   0  0  0  0  0  0  0  0  0  0  0  0
  -12.2550  -20.4340    8.3400 C   0  0  0  0  0  0  0  0  0  0  0  0
  -12.3820  -21.8530    8.9180 C   0  0  0  0  0  0  0  0  0  0  0  0
  -11.7660  -22.8350    8.0670 O   0  0  0  0  0  0  0  0  0  0  0  0
  -10.3690  -22.5400    7.9160 C   0  0  0  0  0  0  0  0  0  0  0  0
  -10.1380  -21.1580    7.2870 C   0  0  0  0  0  0  0  0  0  0  0  0
  -11.3400  -17.7480    8.1600 C   0  0  0  0  0  0  0  0  0  0  0  0
  -10.9830  -16.3990    8.0020 C   0  0  0  0  0  0  0  0  0  0  0  0
  -11.9880  -15.3130    8.2720 C   0  0  0  0  0  0  0  0  0  0  0  0
  -13.2390  -15.7930    8.5240 F   0  0  0  0  0  0  0  0  0  0  0  0
  -12.1220  -14.4550    7.2240 F   0  0  0  0  0  0  0  0  0  0  0  0
  -11.6680  -14.5400    9.3480 F   0  0  0  0  0  0  0  0  0  0  0  0
   -9.6950  -16.0890    7.5450 C   0  0  0  0  0  0  0  0  0  0  0  0
   -4.4550  -15.4360    3.7710 C   0  0  0  0  0  0  0  0  0  0  0  0
   -3.5260  -15.4030    2.7170 C   0  0  0  0  0  0  0  0  0  0  0  0
   -3.4380  -14.0290    1.8950 C   0  0  0  0  0  0  0  0  0  0  0  0
   -2.3800  -13.1220    1.9640 N   0  0  0  0  0  0  0  0  0  0  0  0
   -2.7860  -12.0880    1.0380 C   0  0  0  0  0  0  0  0  0  0  0  0
   -3.9720  -12.3720    0.4960 C   0  0  0  0  0  0  0  0  0  0  0  0
   -4.2830  -11.3230   -0.3540 C   0  0  0  0  0  0  0  0  0  0  0  0
   -3.3130  -10.3750   -0.3490 N   0  0  0  0  0  0  0  0  0  0  0  0
   -2.3800  -10.9090    0.5240 N   0  0  0  0  0  0  0  0  0  0  0  0
   -1.1760  -10.1930    0.8810 C   0  0  0  0  0  0  0  0  0  0  0  0
    0.0250  -10.6830    0.1090 C   0  0  0  0  0  0  0  0  0  0  0  0
    0.4030  -10.0510   -1.0850 C   0  0  0  0  0  0  0  0  0  0  0  0
    1.5120  -10.4970   -1.8040 C   0  0  0  0  0  0  0  0  0  0  0  0
    2.2570  -11.5780   -1.3370 C   0  0  0  0  0  0  0  0  0  0  0  0
    1.8970  -12.2100   -0.1470 C   0  0  0  0  0  0  0  0  0  0  0  0
    0.7890  -11.7630    0.5750 C   0  0  0  0  0  0  0  0  0  0  0  0
   -4.4520  -13.6250    1.0140 N   0  0  0  0  0  0  0  0  0  0  0  0
   -0.7226  -16.6299    1.7642 H   0  0  0  0  0  0  0  0  0  0  0  0
   -1.9093  -17.4751    0.7134 H   0  0  0  0  0  0  0  0  0  0  0  0
   -1.8278  -15.6807    0.7134 H   0  0  0  0  0  0  0  0  0  0  0  0
   -2.3259  -18.5792    3.0393 H   0  0  0  0  0  0  0  0  0  0  0  0
   -3.9788  -18.6090    4.8981 H   0  0  0  0  0  0  0  0  0  0  0  0
   -5.2940  -15.9560    6.3880 H   0  0  0  0  0  0  0  0  0  0  0  0
   -7.0070  -16.0440    7.3900 H   0  0  0  0  0  0  0  0  0  0  0  0
   -8.4362  -19.2315    7.2221 H   0  0  0  0  0  0  0  0  0  0  0  0
  -12.6547  -19.7098    9.0651 H   0  0  0  0  0  0  0  0  0  0  0  0
  -12.8230  -20.3787    7.3996 H   0  0  0  0  0  0  0  0  0  0  0  0
  -11.8946  -21.8806    9.9038 H   0  0  0  0  0  0  0  0  0  0  0  0
  -13.4522  -22.0942    8.9983 H   0  0  0  0  0  0  0  0  0  0  0  0
   -9.8918  -22.5636    8.9068 H   0  0  0  0  0  0  0  0  0  0  0  0
   -9.9324  -23.2956    7.2463 H   0  0  0  0  0  0  0  0  0  0  0  0
   -9.0600  -20.9394    7.2772 H   0  0  0  0  0  0  0  0  0  0  0  0
  -10.5311  -21.1623    6.2596 H   0  0  0  0  0  0  0  0  0  0  0  0
  -12.3572  -17.9927    8.4998 H   0  0  0  0  0  0  0  0  0  0  0  0
   -9.4041  -15.0369    7.4094 H   0  0  0  0  0  0  0  0  0  0  0  0
   -5.0608  -14.5418    3.9793 H   0  0  0  0  0  0  0  0  0  0  0  0
   -5.2012  -11.2661   -0.9571 H   0  0  0  0  0  0  0  0  0  0  0  0
   -1.3226   -9.1238    0.6681 H   0  0  0  0  0  0  0  0  0  0  0  0
   -0.9844  -10.3639    1.9506 H   0  0  0  0  0  0  0  0  0  0  0  0
   -0.1804   -9.1961   -1.4576 H   0  0  0  0  0  0  0  0  0  0  0  0
    1.7985   -9.9952   -2.7400 H   0  0  0  0  0  0  0  0  0  0  0  0
    3.1286  -11.9327   -1.9066 H   0  0  0  0  0  0  0  0  0  0  0  0
    2.4868  -13.0616    0.2230 H   0  0  0  0  0  0  0  0  0  0  0  0
    0.5131  -12.2613    1.5161 H   0  0  0  0  0  0  0  0  0  0  0  0
  1  2  1  0
  2  3  2  0
  3  4  1  0
  4  5  2  0
  5  6  1  0
  6  7  1  0
  7  8  2  0
  7  9  1  0
  9 10  1  0
 10 11  2  0
 11 12  1  0
 12 13  1  0
 13 14  1  0
 14 15  1  0
 15 16  1  0
 16 17  1  0
 17 18  1  0
 12 19  2  0
 19 20  1  0
 20 21  1  0
 21 22  1  0
 21 23  1  0
 21 24  1  0
 20 25  2  0
  5 26  1  0
 26 27  2  0
 27 28  1  0
 28 29  2  0
 29 30  1  0
 30 31  2  0
 31 32  1  0
 32 33  2  0
 33 34  1  0
 34 35  1  0
 35 36  1  0
 36 37  2  0
 37 38  1  0
 38 39  2  0
 39 40  1  0
 40 41  2  0
 31 42  1  0
 27  2  1  0
 42 28  1  0
 25 10  1  0
 34 30  1  0
 41 36  1  0
 18 13  1  0
  1 43  1  0
  1 44  1  0
  1 45  1  0
  3 46  1  0
  4 47  1  0
  6 48  1  0
  9 49  1  0
 11 50  1  0
 14 51  1  0
 14 52  1  0
 15 53  1  0
 15 54  1  0
 17 55  1  0
 17 56  1  0
 18 57  1  0
 18 58  1  0
 19 59  1  0
 25 60  1  0
 26 61  1  0
 32 62  1  0
 35 63  1  0
 35 64  1  0
 37 65  1  0
 38 66  1  0
 39 67  1  0
 40 68  1  0
 41 69  1  0
M  CHG  1  42  -1
M  END
>  <meeko>  (1) 
{"is_sidechain": [false], "free_energy": -9.765, "intermolecular_energy": -13.762, "internal_energy": -1.226}

$$$$
LIB_BXMPHYNIUWLBLW__M_PUB_ALL__e8__s20260927
     RDKit          3D

 69 74  0  0  0  0  0  0  0  0999 V2000
    0.5200  -14.4240   -4.7080 C   0  0  0  0  0  0  0  0  0  0  0  0
    1.8730  -13.9120   -4.3100 C   0  0  0  0  0  0  0  0  0  0  0  0
    2.7680  -13.5090   -5.3180 C   0  0  0  0  0  0  0  0  0  0  0  0
    4.0460  -13.0230   -5.0110 C   0  0  0  0  0  0  0  0  0  0  0  0
    4.4570  -12.9290   -3.6850 C   0  0  0  0  0  0  0  0  0  0  0  0
    5.7200  -12.4590   -3.2690 N   0  0  0  0  0  0  0  0  0  0  0  0
    6.8900  -13.1800   -3.0930 C   0  0  0  0  0  0  0  0  0  0  0  0
    7.0220  -14.3790   -3.3040 O   0  0  0  0  0  0  0  0  0  0  0  0
    7.9010  -12.3420   -2.6330 N   0  0  0  0  0  0  0  0  0  0  0  0
    9.2500  -12.6650   -2.3710 C   0  0  0  0  0  0  0  0  0  0  0  0
   10.0750  -13.3690   -3.2540 C   0  0  0  0  0  0  0  0  0  0  0  0
   11.4160  -13.6690   -2.9540 C   0  0  0  0  0  0  0  0  0  0  0  0
   12.2380  -14.3870   -3.8210 N   0  0  0  0  0  0  0  0  0  0  0  0
   12.7110  -13.7640   -5.0720 C   0  0  0  0  0  0  0  0  0  0  0  0
   13.2050  -14.8410   -6.0520 C   0  0  0  0  0  0  0  0  0  0  0  0
   14.2050  -15.6860   -5.4590 O   0  0  0  0  0  0  0  0  0  0  0  0
   13.6620  -16.3490   -4.3070 C   0  0  0  0  0  0  0  0  0  0  0  0
   13.1940  -15.3500   -3.2380 C   0  0  0  0  0  0  0  0  0  0  0  0
   11.9040  -13.2360   -1.7140 C   0  0  0  0  0  0  0  0  0  0  0  0
   11.1080  -12.5140   -0.8100 C   0  0  0  0  0  0  0  0  0  0  0  0
   11.6680  -12.0900    0.5200 C   0  0  0  0  0  0  0  0  0  0  0  0
   12.1690  -10.8220    0.5110 F   0  0  0  0  0  0  0  0  0  0  0  0
   12.6880  -12.8910    0.9360 F   0  0  0  0  0  0  0  0  0  0  0  0
   10.7450  -12.1120    1.5240 F   0  0  0  0  0  0  0  0  0  0  0  0
    9.7780  -12.2370   -1.1500 C   0  0  0  0  0  0  0  0  0  0  0  0
    3.5750  -13.3280   -2.6780 C   0  0  0  0  0  0  0  0  0  0  0  0
    2.2910  -13.8170   -2.9730 C   0  0  0  0  0  0  0  0  0  0  0  0
    1.3890  -14.2390   -1.7160 C   0  0  0  0  0  0  0  0  0  0  0  0
    0.7180  -13.3490   -0.8770 N   0  0  0  0  0  0  0  0  0  0  0  0
    0.0610  -14.2300    0.0620 C   0  0  0  0  0  0  0  0  0  0  0  0
    0.3390  -15.5070   -0.2070 C   0  0  0  0  0  0  0  0  0  0  0  0
   -0.3140  -16.2670    0.7500 C   0  0  0  0  0  0  0  0  0  0  0  0
   -0.9920  -15.4850    1.6280 N   0  0  0  0  0  0  0  0  0  0  0  0
   -0.7450  -14.2120    1.1420 N   0  0  0  0  0  0  0  0  0  0  0  0
   -1.2410  -13.0330    1.8170 C   0  0  0  0  0  0  0  0  0  0  0  0
   -2.2410  -12.2760    0.9760 C   0  0  0  0  0  0  0  0  0  0  0  0
   -1.9840  -10.9510    0.5970 C   0  0  0  0  0  0  0  0  0  0  0  0
   -2.9020  -10.2450   -0.1810 C   0  0  0  0  0  0  0  0  0  0  0  0
   -4.0870  -10.8560   -0.5880 C   0  0  0  0  0  0  0  0  0  0  0  0
   -4.3500  -12.1770   -0.2250 C   0  0  0  0  0  0  0  0  0  0  0  0
   -3.4300  -12.8850    0.5510 C   0  0  0  0  0  0  0  0  0  0  0  0
    1.2010  -15.5820   -1.3560 N   0  0  0  0  0  0  0  0  0  0  0  0
   -0.0679  -14.6465   -3.8053 H   0  0  0  0  0  0  0  0  0  0  0  0
    0.0001  -13.6604   -5.3052 H   0  0  0  0  0  0  0  0  0  0  0  0
    0.6359  -15.3405   -5.3052 H   0  0  0  0  0  0  0  0  0  0  0  0
    2.4575  -13.5770   -6.3711 H   0  0  0  0  0  0  0  0  0  0  0  0
    4.7254  -12.7153   -5.8196 H   0  0  0  0  0  0  0  0  0  0  0  0
    5.7530  -11.4650   -3.1020 H   0  0  0  0  0  0  0  0  0  0  0  0
    7.6220  -11.3940   -2.4330 H   0  0  0  0  0  0  0  0  0  0  0  0
    9.6603  -13.6999   -4.2176 H   0  0  0  0  0  0  0  0  0  0  0  0
   11.8840  -13.2050   -5.5341 H   0  0  0  0  0  0  0  0  0  0  0  0
   13.5432  -13.0832   -4.8399 H   0  0  0  0  0  0  0  0  0  0  0  0
   12.3504  -15.4622   -6.3583 H   0  0  0  0  0  0  0  0  0  0  0  0
   13.6564  -14.3337   -6.9174 H   0  0  0  0  0  0  0  0  0  0  0  0
   12.8041  -16.9617   -4.6209 H   0  0  0  0  0  0  0  0  0  0  0  0
   14.4548  -16.9720   -3.8673 H   0  0  0  0  0  0  0  0  0  0  0  0
   12.7041  -15.8974   -2.4193 H   0  0  0  0  0  0  0  0  0  0  0  0
   14.0666  -14.8009   -2.8545 H   0  0  0  0  0  0  0  0  0  0  0  0
   12.9435  -13.4690   -1.4399 H   0  0  0  0  0  0  0  0  0  0  0  0
    9.1423  -11.6767   -0.4486 H   0  0  0  0  0  0  0  0  0  0  0  0
    3.8936  -13.2577   -1.6275 H   0  0  0  0  0  0  0  0  0  0  0  0
   -0.2864  -17.3658    0.7928 H   0  0  0  0  0  0  0  0  0  0  0  0
   -1.7263  -13.3392    2.7555 H   0  0  0  0  0  0  0  0  0  0  0  0
   -0.3864  -12.3674    2.0086 H   0  0  0  0  0  0  0  0  0  0  0  0
   -1.0507  -10.4639    0.9157 H   0  0  0  0  0  0  0  0  0  0  0  0
   -2.6906   -9.2058   -0.4734 H   0  0  0  0  0  0  0  0  0  0  0  0
   -4.8142  -10.2968   -1.1950 H   0  0  0  0  0  0  0  0  0  0  0  0
   -5.2826  -12.6612   -0.5502 H   0  0  0  0  0  0  0  0  0  0  0  0
   -3.6397  -13.9279    0.8308 H   0  0  0  0  0  0  0  0  0  0  0  0
  1  2  1  0
  2  3  2  0
  3  4  1  0
  4  5  2  0
  5  6  1  0
  6  7  1  0
  7  8  2  0
  7  9  1  0
  9 10  1  0
 10 11  2  0
 11 12  1  0
 12 13  1  0
 13 14  1  0
 14 15  1  0
 15 16  1  0
 16 17  1  0
 17 18  1  0
 12 19  2  0
 19 20  1  0
 20 21  1  0
 21 22  1  0
 21 23  1  0
 21 24  1  0
 20 25  2  0
  5 26  1  0
 26 27  2  0
 27 28  1  0
 28 29  2  0
 29 30  1  0
 30 31  2  0
 31 32  1  0
 32 33  2  0
 33 34  1  0
 34 35  1  0
 35 36  1  0
 36 37  2  0
 37 38  1  0
 38 39  2  0
 39 40  1  0
 40 41  2  0
 31 42  1  0
 27  2  1  0
 42 28  1  0
 25 10  1  0
 34 30  1  0
 41 36  1  0
 18 13  1  0
  1 43  1  0
  1 44  1  0
  1 45  1  0
  3 46  1  0
  4 47  1  0
  6 48  1  0
  9 49  1  0
 11 50  1  0
 14 51  1  0
 14 52  1  0
 15 53  1  0
 15 54  1  0
 17 55  1  0
 17 56  1  0
 18 57  1  0
 18 58  1  0
 19 59  1  0
 25 60  1  0
 26 61  1  0
 32 62  1  0
 35 63  1  0
 35 64  1  0
 37 65  1  0
 38 66  1  0
 39 67  1  0
 40 68  1  0
 41 69  1  0
M  CHG  1  42  -1
M  END
>  <meeko>  (2) 
{"is_sidechain": [false], "free_energy": -9.48, "intermolecular_energy": -13.319, "internal_energy": -1.266}

$$$$
LIB_BXMPHYNIUWLBLW__M_PUB_ALL__e8__s20260927
     RDKit          3D

 69 74  0  0  0  0  0  0  0  0999 V2000
    0.6560  -14.8400   -1.7050 C   0  0  0  0  0  0  0  0  0  0  0  0
    2.1040  -14.7040   -1.3360 C   0  0  0  0  0  0  0  0  0  0  0  0
    3.0150  -15.6680   -1.8030 C   0  0  0  0  0  0  0  0  0  0  0  0
    4.3800  -15.5970   -1.4920 C   0  0  0  0  0  0  0  0  0  0  0  0
    4.8640  -14.5570   -0.7060 C   0  0  0  0  0  0  0  0  0  0  0  0
    6.2140  -14.3950   -0.3320 N   0  0  0  0  0  0  0  0  0  0  0  0
    7.2960  -14.0740   -1.1360 C   0  0  0  0  0  0  0  0  0  0  0  0
    7.2420  -13.8470   -2.3380 O   0  0  0  0  0  0  0  0  0  0  0  0
    8.4620  -14.0520   -0.3780 N   0  0  0  0  0  0  0  0  0  0  0  0
    9.7700  -13.7270   -0.7990 C   0  0  0  0  0  0  0  0  0  0  0  0
   10.4650  -14.4100   -1.8030 C   0  0  0  0  0  0  0  0  0  0  0  0
   11.7690  -14.0520   -2.1930 C   0  0  0  0  0  0  0  0  0  0  0  0
   12.4740  -14.7390   -3.1780 N   0  0  0  0  0  0  0  0  0  0  0  0
   13.1150  -13.9950   -4.2800 C   0  0  0  0  0  0  0  0  0  0  0  0
   13.4340  -14.9410   -5.4490 C   0  0  0  0  0  0  0  0  0  0  0  0
   14.2240  -16.0650   -5.0270 O   0  0  0  0  0  0  0  0  0  0  0  0
   13.5120  -16.8150   -4.0310 C   0  0  0  0  0  0  0  0  0  0  0  0
   13.1980  -15.9660   -2.7900 C   0  0  0  0  0  0  0  0  0  0  0  0
   12.3600  -12.9720   -1.5230 C   0  0  0  0  0  0  0  0  0  0  0  0
   11.6850  -12.2550   -0.5220 C   0  0  0  0  0  0  0  0  0  0  0  0
   12.3690  -11.1170    0.1860 C   0  0  0  0  0  0  0  0  0  0  0  0
   12.7140  -10.0970   -0.6500 F   0  0  0  0  0  0  0  0  0  0  0  0
   13.5230  -11.5020    0.7980 F   0  0  0  0  0  0  0  0  0  0  0  0
   11.6020  -10.5500    1.1600 F   0  0  0  0  0  0  0  0  0  0  0  0
   10.3880  -12.6460   -0.1650 C   0  0  0  0  0  0  0  0  0  0  0  0
    3.9660  -13.5950   -0.2370 C   0  0  0  0  0  0  0  0  0  0  0  0
    2.5950  -13.6550   -0.5420 C   0  0  0  0  0  0  0  0  0  0  0  0
    1.6840  -12.4850    0.0670 C   0  0  0  0  0  0  0  0  0  0  0  0
    0.6720  -12.6670    1.0120 N   0  0  0  0  0  0  0  0  0  0  0  0
    0.1870  -11.3210    1.2220 C   0  0  0  0  0  0  0  0  0  0  0  0
    0.8500  -10.4500    0.4600 C   0  0  0  0  0  0  0  0  0  0  0  0
    0.3060   -9.2020    0.7140 C   0  0  0  0  0  0  0  0  0  0  0  0
   -0.7020   -9.2750    1.6190 N   0  0  0  0  0  0  0  0  0  0  0  0
   -0.7270  -10.6250    1.9280 N   0  0  0  0  0  0  0  0  0  0  0  0
   -1.7060  -11.1790    2.8340 C   0  0  0  0  0  0  0  0  0  0  0  0
   -2.8810  -11.7820    2.1020 C   0  0  0  0  0  0  0  0  0  0  0  0
   -3.7130  -12.7100    2.7450 C   0  0  0  0  0  0  0  0  0  0  0  0
   -4.8000  -13.2710    2.0740 C   0  0  0  0  0  0  0  0  0  0  0  0
   -5.0690  -12.9100    0.7550 C   0  0  0  0  0  0  0  0  0  0  0  0
   -4.2540  -11.9820    0.1080 C   0  0  0  0  0  0  0  0  0  0  0  0
   -3.1670  -11.4170    0.7780 C   0  0  0  0  0  0  0  0  0  0  0  0
    1.8410  -11.1450   -0.3190 N   0  0  0  0  0  0  0  0  0  0  0  0
    0.0482  -14.8971   -0.7899 H   0  0  0  0  0  0  0  0  0  0  0  0
    0.3451  -13.9671   -2.2978 H   0  0  0  0  0  0  0  0  0  0  0  0
    0.5131  -15.7555   -2.2978 H   0  0  0  0  0  0  0  0  0  0  0  0
    2.6482  -16.4966   -2.4265 H   0  0  0  0  0  0  0  0  0  0  0  0
    5.0698  -16.3657   -1.8706 H   0  0  0  0  0  0  0  0  0  0  0  0
    6.3840  -14.5160    0.6550 H   0  0  0  0  0  0  0  0  0  0  0  0
    8.3610  -14.3350    0.5840 H   0  0  0  0  0  0  0  0  0  0  0  0
    9.9748  -15.2569   -2.3054 H   0  0  0  0  0  0  0  0  0  0  0  0
   12.4338  -13.2047   -4.6285 H   0  0  0  0  0  0  0  0  0  0  0  0
   14.0523  -13.5508   -3.9137 H   0  0  0  0  0  0  0  0  0  0  0  0
   12.4898  -15.3099   -5.8761 H   0  0  0  0  0  0  0  0  0  0  0  0
   14.0130  -14.3778   -6.1958 H   0  0  0  0  0  0  0  0  0  0  0  0
   12.5670  -17.1742   -4.4645 H   0  0  0  0  0  0  0  0  0  0  0  0
   14.1490  -17.6550   -3.7169 H   0  0  0  0  0  0  0  0  0  0  0  0
   12.5748  -16.5515   -2.0980 H   0  0  0  0  0  0  0  0  0  0  0  0
   14.1422  -15.6846   -2.3008 H   0  0  0  0  0  0  0  0  0  0  0  0
   13.3854  -12.6766   -1.7899 H   0  0  0  0  0  0  0  0  0  0  0  0
    9.8508  -12.0966    0.6222 H   0  0  0  0  0  0  0  0  0  0  0  0
    4.3411  -12.7700    0.3865 H   0  0  0  0  0  0  0  0  0  0  0  0
    0.6480   -8.2693    0.2416 H   0  0  0  0  0  0  0  0  0  0  0  0
   -1.2258  -11.9618    3.4395 H   0  0  0  0  0  0  0  0  0  0  0  0
   -2.0839  -10.3613    3.4653 H   0  0  0  0  0  0  0  0  0  0  0  0
   -3.5069  -12.9978    3.7865 H   0  0  0  0  0  0  0  0  0  0  0  0
   -5.4456  -13.9992    2.5867 H   0  0  0  0  0  0  0  0  0  0  0  0
   -5.9232  -13.3566    0.2251 H   0  0  0  0  0  0  0  0  0  0  0  0
   -4.4677  -11.6945   -0.9320 H   0  0  0  0  0  0  0  0  0  0  0  0
   -2.5309  -10.6811    0.2644 H   0  0  0  0  0  0  0  0  0  0  0  0
  1  2  1  0
  2  3  2  0
  3  4  1  0
  4  5  2  0
  5  6  1  0
  6  7  1  0
  7  8  2  0
  7  9  1  0
  9 10  1  0
 10 11  2  0
 11 12  1  0
 12 13  1  0
 13 14  1  0
 14 15  1  0
 15 16  1  0
 16 17  1  0
 17 18  1  0
 12 19  2  0
 19 20  1  0
 20 21  1  0
 21 22  1  0
 21 23  1  0
 21 24  1  0
 20 25  2  0
  5 26  1  0
 26 27  2  0
 27 28  1  0
 28 29  2  0
 29 30  1  0
 30 31  2  0
 31 32  1  0
 32 33  2  0
 33 34  1  0
 34 35  1  0
 35 36  1  0
 36 37  2  0
 37 38  1  0
 38 39  2  0
 39 40  1  0
 40 41  2  0
 31 42  1  0
 27  2  1  0
 42 28  1  0
 25 10  1  0
 34 30  1  0
 41 36  1  0
 18 13  1  0
  1 43  1  0
  1 44  1  0
  1 45  1  0
  3 46  1  0
  4 47  1  0
  6 48  1  0
  9 49  1  0
 11 50  1  0
 14 51  1  0
 14 52  1  0
 15 53  1  0
 15 54  1  0
 17 55  1  0
 17 56  1  0
 18 57  1  0
 18 58  1  0
 19 59  1  0
 25 60  1  0
 26 61  1  0
 32 62  1  0
 35 63  1  0
 35 64  1  0
 37 65  1  0
 38 66  1  0
 39 67  1  0
 40 68  1  0
 41 69  1  0
M  CHG  1  42  -1
M  END
>  <meeko>  (3) 
{"is_sidechain": [false], "free_energy": -9.398, "intermolecular_energy": -13.5, "internal_energy": -0.97}

$$$$
LIB_BXMPHYNIUWLBLW__M_PUB_ALL__e8__s20260927
     RDKit          3D

 69 74  0  0  0  0  0  0  0  0999 V2000
   13.1480  -11.8410    0.2190 C   0  0  0  0  0  0  0  0  0  0  0  0
   11.6700  -12.0990    0.1950 C   0  0  0  0  0  0  0  0  0  0  0  0
   10.8370  -11.3430    1.0390 C   0  0  0  0  0  0  0  0  0  0  0  0
    9.4490  -11.5380    1.0630 C   0  0  0  0  0  0  0  0  0  0  0  0
    8.8640  -12.4950    0.2400 C   0  0  0  0  0  0  0  0  0  0  0  0
    7.4820  -12.7730    0.1900 N   0  0  0  0  0  0  0  0  0  0  0  0
    6.4960  -12.1040   -0.5180 C   0  0  0  0  0  0  0  0  0  0  0  0
    6.6820  -11.1490   -1.2600 O   0  0  0  0  0  0  0  0  0  0  0  0
    5.2540  -12.6760   -0.2600 N   0  0  0  0  0  0  0  0  0  0  0  0
    4.0020  -12.3290   -0.8120 C   0  0  0  0  0  0  0  0  0  0  0  0
    2.9110  -11.8770   -0.0620 C   0  0  0  0  0  0  0  0  0  0  0  0
    1.6800  -11.5390   -0.6530 C   0  0  0  0  0  0  0  0  0  0  0  0
    0.5830  -11.1070    0.0900 N   0  0  0  0  0  0  0  0  0  0  0  0
   -0.4050  -12.0860    0.5830 C   0  0  0  0  0  0  0  0  0  0  0  0
   -1.7130  -11.3770    0.9680 C   0  0  0  0  0  0  0  0  0  0  0  0
   -1.4900  -10.3160    1.9110 O   0  0  0  0  0  0  0  0  0  0  0  0
   -0.6060   -9.3380    1.3430 C   0  0  0  0  0  0  0  0  0  0  0  0
    0.7590   -9.9410    0.9790 C   0  0  0  0  0  0  0  0  0  0  0  0
    1.5800  -11.6820   -2.0430 C   0  0  0  0  0  0  0  0  0  0  0  0
    2.6600  -12.1180   -2.8280 C   0  0  0  0  0  0  0  0  0  0  0  0
    2.4980  -12.2780   -4.3150 C   0  0  0  0  0  0  0  0  0  0  0  0
    1.3500  -12.9280   -4.6610 F   0  0  0  0  0  0  0  0  0  0  0  0
    3.5130  -12.9910   -4.8760 F   0  0  0  0  0  0  0  0  0  0  0  0
    2.4630  -11.0910   -4.9840 F   0  0  0  0  0  0  0  0  0  0  0  0
    3.8680  -12.4430   -2.1980 C   0  0  0  0  0  0  0  0  0  0  0  0
    9.6840  -13.2510   -0.6000 C   0  0  0  0  0  0  0  0  0  0  0  0
   11.0770  -13.0650   -0.6340 C   0  0  0  0  0  0  0  0  0  0  0  0
   11.8910  -14.0060   -1.6450 C   0  0  0  0  0  0  0  0  0  0  0  0
   12.3990  -13.6020   -2.8810 N   0  0  0  0  0  0  0  0  0  0  0  0
   13.0420  -14.8010   -3.3690 C   0  0  0  0  0  0  0  0  0  0  0  0
   12.9050  -15.8040   -2.4990 C   0  0  0  0  0  0  0  0  0  0  0  0
   13.5310  -16.9060   -3.0580 C   0  0  0  0  0  0  0  0  0  0  0  0
   14.0510  -16.6150   -4.2770 N   0  0  0  0  0  0  0  0  0  0  0  0
   13.7390  -15.2740   -4.4210 N   0  0  0  0  0  0  0  0  0  0  0  0
   14.0630  -14.5450   -5.6270 C   0  0  0  0  0  0  0  0  0  0  0  0
   13.0590  -14.7930   -6.7270 C   0  0  0  0  0  0  0  0  0  0  0  0
   11.7910  -14.1950   -6.6740 C   0  0  0  0  0  0  0  0  0  0  0  0
   10.8590  -14.4180   -7.6880 C   0  0  0  0  0  0  0  0  0  0  0  0
   11.1830  -15.2410   -8.7650 C   0  0  0  0  0  0  0  0  0  0  0  0
   12.4430  -15.8340   -8.8330 C   0  0  0  0  0  0  0  0  0  0  0  0
   13.3790  -15.6090   -7.8220 C   0  0  0  0  0  0  0  0  0  0  0  0
   12.1640  -15.3500   -1.3520 N   0  0  0  0  0  0  0  0  0  0  0  0
   13.4928  -11.7808    1.2618 H   0  0  0  0  0  0  0  0  0  0  0  0
   13.6718  -12.6613   -0.2936 H   0  0  0  0  0  0  0  0  0  0  0  0
   13.3629  -10.8918   -0.2936 H   0  0  0  0  0  0  0  0  0  0  0  0
   11.2845  -10.5817    1.6949 H   0  0  0  0  0  0  0  0  0  0  0  0
    8.8212  -10.9332    1.7339 H   0  0  0  0  0  0  0  0  0  0  0  0
    7.2050  -13.5750    0.7340 H   0  0  0  0  0  0  0  0  0  0  0  0
    5.2480  -13.4090    0.4310 H   0  0  0  0  0  0  0  0  0  0  0  0
    3.0196  -11.7825    1.0285 H   0  0  0  0  0  0  0  0  0  0  0  0
   -0.6109  -12.8230   -0.2072 H   0  0  0  0  0  0  0  0  0  0  0  0
    0.0035  -12.5898    1.4714 H   0  0  0  0  0  0  0  0  0  0  0  0
   -2.1697  -10.9558    0.0602 H   0  0  0  0  0  0  0  0  0  0  0  0
   -2.3763  -12.1176    1.4387 H   0  0  0  0  0  0  0  0  0  0  0  0
   -1.0675   -8.9279    0.4326 H   0  0  0  0  0  0  0  0  0  0  0  0
   -0.4413   -8.5511    2.0938 H   0  0  0  0  0  0  0  0  0  0  0  0
    1.3661   -9.1811    0.4651 H   0  0  0  0  0  0  0  0  0  0  0  0
    1.2639  -10.2664    1.9005 H   0  0  0  0  0  0  0  0  0  0  0  0
    0.6252  -11.4453   -2.5353 H   0  0  0  0  0  0  0  0  0  0  0  0
    4.7198  -12.7915   -2.8005 H   0  0  0  0  0  0  0  0  0  0  0  0
    9.2285  -14.0113   -1.2516 H   0  0  0  0  0  0  0  0  0  0  0  0
   13.5980  -17.8920   -2.5749 H   0  0  0  0  0  0  0  0  0  0  0  0
   14.0796  -13.4693   -5.3977 H   0  0  0  0  0  0  0  0  0  0  0  0
   15.0451  -14.8928   -5.9798 H   0  0  0  0  0  0  0  0  0  0  0  0
   11.5295  -13.5450   -5.8260 H   0  0  0  0  0  0  0  0  0  0  0  0
    9.8677  -13.9439   -7.6373 H   0  0  0  0  0  0  0  0  0  0  0  0
   10.4454  -15.4225   -9.5606 H   0  0  0  0  0  0  0  0  0  0  0  0
   12.7001  -16.4805   -9.6850 H   0  0  0  0  0  0  0  0  0  0  0  0
   14.3737  -16.0746   -7.8845 H   0  0  0  0  0  0  0  0  0  0  0  0
  1  2  1  0
  2  3  2  0
  3  4  1  0
  4  5  2  0
  5  6  1  0
  6  7  1  0
  7  8  2  0
  7  9  1  0
  9 10  1  0
 10 11  2  0
 11 12  1  0
 12 13  1  0
 13 14  1  0
 14 15  1  0
 15 16  1  0
 16 17  1  0
 17 18  1  0
 12 19  2  0
 19 20  1  0
 20 21  1  0
 21 22  1  0
 21 23  1  0
 21 24  1  0
 20 25  2  0
  5 26  1  0
 26 27  2  0
 27 28  1  0
 28 29  2  0
 29 30  1  0
 30 31  2  0
 31 32  1  0
 32 33  2  0
 33 34  1  0
 34 35  1  0
 35 36  1  0
 36 37  2  0
 37 38  1  0
 38 39  2  0
 39 40  1  0
 40 41  2  0
 31 42  1  0
 27  2  1  0
 42 28  1  0
 25 10  1  0
 34 30  1  0
 41 36  1  0
 18 13  1  0
  1 43  1  0
  1 44  1  0
  1 45  1  0
  3 46  1  0
  4 47  1  0
  6 48  1  0
  9 49  1  0
 11 50  1  0
 14 51  1  0
 14 52  1  0
 15 53  1  0
 15 54  1  0
 17 55  1  0
 17 56  1  0
 18 57  1  0
 18 58  1  0
 19 59  1  0
 25 60  1  0
 26 61  1  0
 32 62  1  0
 35 63  1  0
 35 64  1  0
 37 65  1  0
 38 66  1  0
 39 67  1  0
 40 68  1  0
 41 69  1  0
M  CHG  1  42  -1
M  END
>  <meeko>  (4) 
{"is_sidechain": [false], "free_energy": -9.139, "intermolecular_energy": -12.948, "internal_energy": -1.156}

$$$$
LIB_BXMPHYNIUWLBLW__M_PUB_ALL__e8__s20260927
     RDKit          3D

 69 74  0  0  0  0  0  0  0  0999 V2000
    0.1930  -15.7800    5.8050 C   0  0  0  0  0  0  0  0  0  0  0  0
   -1.2890  -16.0060    5.7260 C   0  0  0  0  0  0  0  0  0  0  0  0
   -1.9620  -16.4860    6.8640 C   0  0  0  0  0  0  0  0  0  0  0  0
   -3.3440  -16.7180    6.8530 C   0  0  0  0  0  0  0  0  0  0  0  0
   -4.0840  -16.4750    5.7000 C   0  0  0  0  0  0  0  0  0  0  0  0
   -5.4750  -16.6790    5.5820 N   0  0  0  0  0  0  0  0  0  0  0  0
   -6.3870  -16.9770    6.5800 C   0  0  0  0  0  0  0  0  0  0  0  0
   -6.1230  -17.0900    7.7700 O   0  0  0  0  0  0  0  0  0  0  0  0
   -7.6560  -17.1380    6.0320 N   0  0  0  0  0  0  0  0  0  0  0  0
   -8.8690  -17.4020    6.7040 C   0  0  0  0  0  0  0  0  0  0  0  0
   -9.3260  -18.6840    7.0280 C   0  0  0  0  0  0  0  0  0  0  0  0
  -10.5420  -18.9030    7.7010 C   0  0  0  0  0  0  0  0  0  0  0  0
  -11.0110  -20.1770    8.0100 N   0  0  0  0  0  0  0  0  0  0  0  0
  -12.4580  -20.4050    8.1960 C   0  0  0  0  0  0  0  0  0  0  0  0
  -12.6980  -21.7240    8.9470 C   0  0  0  0  0  0  0  0  0  0  0  0
  -12.0580  -22.8350    8.2990 O   0  0  0  0  0  0  0  0  0  0  0  0
  -10.6410  -22.6120    8.2370 C   0  0  0  0  0  0  0  0  0  0  0  0
  -10.2940  -21.3400    7.4480 C   0  0  0  0  0  0  0  0  0  0  0  0
  -11.2980  -17.7710    8.0330 C   0  0  0  0  0  0  0  0  0  0  0  0
  -10.8630  -16.4690    7.7360 C   0  0  0  0  0  0  0  0  0  0  0  0
  -11.7210  -15.2850    8.0910 C   0  0  0  0  0  0  0  0  0  0  0  0
  -12.0190  -14.5000    7.0170 F   0  0  0  0  0  0  0  0  0  0  0  0
  -11.1260  -14.4640    9.0000 F   0  0  0  0  0  0  0  0  0  0  0  0
  -12.9220  -15.6340    8.6340 F   0  0  0  0  0  0  0  0  0  0  0  0
   -9.6460  -16.2980    7.0660 C   0  0  0  0  0  0  0  0  0  0  0  0
   -3.4230  -16.0000    4.5650 C   0  0  0  0  0  0  0  0  0  0  0  0
   -2.0380  -15.7620    4.5630 C   0  0  0  0  0  0  0  0  0  0  0  0
   -1.4150  -15.2190    3.1890 C   0  0  0  0  0  0  0  0  0  0  0  0
   -0.8790  -13.9440    3.0010 N   0  0  0  0  0  0  0  0  0  0  0  0
   -0.4550  -13.9770    1.6200 C   0  0  0  0  0  0  0  0  0  0  0  0
   -0.7320  -15.1580    1.0630 C   0  0  0  0  0  0  0  0  0  0  0  0
   -0.3110  -15.0870   -0.2550 C   0  0  0  0  0  0  0  0  0  0  0  0
    0.2190  -13.8710   -0.5410 N   0  0  0  0  0  0  0  0  0  0  0  0
    0.1280  -13.2140    0.6740 N   0  0  0  0  0  0  0  0  0  0  0  0
    0.5360  -11.8350    0.8240 C   0  0  0  0  0  0  0  0  0  0  0  0
   -0.6430  -10.9100    1.0060 C   0  0  0  0  0  0  0  0  0  0  0  0
   -0.7300  -10.0920    2.1420 C   0  0  0  0  0  0  0  0  0  0  0  0
   -1.8160   -9.2340    2.3170 C   0  0  0  0  0  0  0  0  0  0  0  0
   -2.8270   -9.1840    1.3590 C   0  0  0  0  0  0  0  0  0  0  0  0
   -2.7480   -9.9860    0.2210 C   0  0  0  0  0  0  0  0  0  0  0  0
   -1.6600  -10.8430    0.0430 C   0  0  0  0  0  0  0  0  0  0  0  0
   -1.3600  -16.0140    2.0340 N   0  0  0  0  0  0  0  0  0  0  0  0
    0.5010  -15.7330    6.8599 H   0  0  0  0  0  0  0  0  0  0  0  0
    0.7174  -16.6086    5.3065 H   0  0  0  0  0  0  0  0  0  0  0  0
    0.4466  -14.8328    5.3065 H   0  0  0  0  0  0  0  0  0  0  0  0
   -1.3908  -16.6837    7.7831 H   0  0  0  0  0  0  0  0  0  0  0  0
   -3.8448  -17.0930    7.7578 H   0  0  0  0  0  0  0  0  0  0  0  0
   -5.8260  -16.5700    4.6430 H   0  0  0  0  0  0  0  0  0  0  0  0
   -7.7050  -17.0900    5.0270 H   0  0  0  0  0  0  0  0  0  0  0  0
   -8.7123  -19.5523    6.7463 H   0  0  0  0  0  0  0  0  0  0  0  0
  -12.8846  -19.5739    8.7768 H   0  0  0  0  0  0  0  0  0  0  0  0
  -12.9409  -20.4621    7.2093 H   0  0  0  0  0  0  0  0  0  0  0  0
  -12.2986  -21.6296    9.9676 H   0  0  0  0  0  0  0  0  0  0  0  0
  -13.7811  -21.9157    8.9605 H   0  0  0  0  0  0  0  0  0  0  0  0
  -10.2518  -22.5123    9.2610 H   0  0  0  0  0  0  0  0  0  0  0  0
  -10.1839  -23.4686    7.7200 H   0  0  0  0  0  0  0  0  0  0  0  0
   -9.2102  -21.1611    7.5063 H   0  0  0  0  0  0  0  0  0  0  0  0
  -10.5975  -21.4752    6.3994 H   0  0  0  0  0  0  0  0  0  0  0  0
  -12.2633  -17.9064    8.5427 H   0  0  0  0  0  0  0  0  0  0  0  0
   -9.2973  -15.2837    6.8217 H   0  0  0  0  0  0  0  0  0  0  0  0
   -4.0013  -15.8073    3.6493 H   0  0  0  0  0  0  0  0  0  0  0  0
   -0.3956  -15.9117   -0.9779 H   0  0  0  0  0  0  0  0  0  0  0  0
    1.1905  -11.7526    1.7042 H   0  0  0  0  0  0  0  0  0  0  0  0
    1.0623  -11.5359   -0.0945 H   0  0  0  0  0  0  0  0  0  0  0  0
    0.0649  -10.1273    2.9015 H   0  0  0  0  0  0  0  0  0  0  0  0
   -1.8744   -8.5966    3.2116 H   0  0  0  0  0  0  0  0  0  0  0  0
   -3.6866   -8.5124    1.5005 H   0  0  0  0  0  0  0  0  0  0  0  0
   -3.5437   -9.9435   -0.5374 H   0  0  0  0  0  0  0  0  0  0  0  0
   -1.6003  -11.4699   -0.8589 H   0  0  0  0  0  0  0  0  0  0  0  0
  1  2  1  0
  2  3  2  0
  3  4  1  0
  4  5  2  0
  5  6  1  0
  6  7  1  0
  7  8  2  0
  7  9  1  0
  9 10  1  0
 10 11  2  0
 11 12  1  0
 12 13  1  0
 13 14  1  0
 14 15  1  0
 15 16  1  0
 16 17  1  0
 17 18  1  0
 12 19  2  0
 19 20  1  0
 20 21  1  0
 21 22  1  0
 21 23  1  0
 21 24  1  0
 20 25  2  0
  5 26  1  0
 26 27  2  0
 27 28  1  0
 28 29  2  0
 29 30  1  0
 30 31  2  0
 31 32  1  0
 32 33  2  0
 33 34  1  0
 34 35  1  0
 35 36  1  0
 36 37  2  0
 37 38  1  0
 38 39  2  0
 39 40  1  0
 40 41  2  0
 31 42  1  0
 27  2  1  0
 42 28  1  0
 25 10  1  0
 34 30  1  0
 41 36  1  0
 18 13  1  0
  1 43  1  0
  1 44  1  0
  1 45  1  0
  3 46  1  0
  4 47  1  0
  6 48  1  0
  9 49  1  0
 11 50  1  0
 14 51  1  0
 14 52  1  0
 15 53  1  0
 15 54  1  0
 17 55  1  0
 17 56  1  0
 18 57  1  0
 18 58  1  0
 19 59  1  0
 25 60  1  0
 26 61  1  0
 32 62  1  0
 35 63  1  0
 35 64  1  0
 37 65  1  0
 38 66  1  0
 39 67  1  0
 40 68  1  0
 41 69  1  0
M  CHG  1  42  -1
M  END
>  <meeko>  (5) 
{"is_sidechain": [false], "free_energy": -9.123, "intermolecular_energy": -13.147, "internal_energy": -0.935}

$$$$
LIB_BXMPHYNIUWLBLW__M_PUB_ALL__e8__s20260927
     RDKit          3D

 69 74  0  0  0  0  0  0  0  0999 V2000
   -3.2330  -18.5550    3.3680 C   0  0  0  0  0  0  0  0  0  0  0  0
   -2.3370  -17.4350    2.9260 C   0  0  0  0  0  0  0  0  0  0  0  0
   -2.1490  -17.2220    1.5480 C   0  0  0  0  0  0  0  0  0  0  0  0
   -1.3240  -16.1940    1.0730 C   0  0  0  0  0  0  0  0  0  0  0  0
   -0.6680  -15.3540    1.9670 C   0  0  0  0  0  0  0  0  0  0  0  0
    0.1850  -14.2950    1.5940 N   0  0  0  0  0  0  0  0  0  0  0  0
    1.2040  -14.3020    0.6550 C   0  0  0  0  0  0  0  0  0  0  0  0
    1.5160  -15.2570   -0.0430 O   0  0  0  0  0  0  0  0  0  0  0  0
    1.8280  -13.0590    0.6220 N   0  0  0  0  0  0  0  0  0  0  0  0
    2.8760  -12.6320   -0.2220 C   0  0  0  0  0  0  0  0  0  0  0  0
    4.2340  -12.7250    0.1030 C   0  0  0  0  0  0  0  0  0  0  0  0
    5.2480  -12.2880   -0.7680 C   0  0  0  0  0  0  0  0  0  0  0  0
    6.6010  -12.3600   -0.4440 N   0  0  0  0  0  0  0  0  0  0  0  0
    7.0340  -12.1770    0.9560 C   0  0  0  0  0  0  0  0  0  0  0  0
    8.5350  -11.8540    1.0130 C   0  0  0  0  0  0  0  0  0  0  0  0
    9.3220  -12.8460    0.3310 O   0  0  0  0  0  0  0  0  0  0  0  0
    8.9340  -12.9110   -1.0490 C   0  0  0  0  0  0  0  0  0  0  0  0
    7.4540  -13.2880   -1.2130 C   0  0  0  0  0  0  0  0  0  0  0  0
    4.8440  -11.7390   -1.9930 C   0  0  0  0  0  0  0  0  0  0  0  0
    3.4910  -11.6450   -2.3570 C   0  0  0  0  0  0  0  0  0  0  0  0
    3.1030  -11.0260   -3.6720 C   0  0  0  0  0  0  0  0  0  0  0  0
    2.4890   -9.8160   -3.5330 F   0  0  0  0  0  0  0  0  0  0  0  0
    2.2370  -11.8030   -4.3800 F   0  0  0  0  0  0  0  0  0  0  0  0
    4.1650  -10.8050   -4.4980 F   0  0  0  0  0  0  0  0  0  0  0  0
    2.5140  -12.0920   -1.4590 C   0  0  0  0  0  0  0  0  0  0  0  0
   -0.8490  -15.5600    3.3370 C   0  0  0  0  0  0  0  0  0  0  0  0
   -1.6730  -16.5870    3.8270 C   0  0  0  0  0  0  0  0  0  0  0  0
   -1.7830  -16.7050    5.4220 C   0  0  0  0  0  0  0  0  0  0  0  0
   -2.6250  -15.9350    6.2260 N   0  0  0  0  0  0  0  0  0  0  0  0
   -2.3490  -16.4400    7.5520 C   0  0  0  0  0  0  0  0  0  0  0  0
   -1.4270  -17.4030    7.5140 C   0  0  0  0  0  0  0  0  0  0  0  0
   -1.2170  -17.8070    8.8220 C   0  0  0  0  0  0  0  0  0  0  0  0
   -1.9880  -17.1030    9.6890 N   0  0  0  0  0  0  0  0  0  0  0  0
   -2.7000  -16.2700    8.8430 N   0  0  0  0  0  0  0  0  0  0  0  0
   -3.6260  -15.2830    9.3510 C   0  0  0  0  0  0  0  0  0  0  0  0
   -5.0270  -15.4960    8.8290 C   0  0  0  0  0  0  0  0  0  0  0  0
   -5.6860  -16.7140    9.0530 C   0  0  0  0  0  0  0  0  0  0  0  0
   -6.9800  -16.9190    8.5740 C   0  0  0  0  0  0  0  0  0  0  0  0
   -7.6310  -15.9080    7.8670 C   0  0  0  0  0  0  0  0  0  0  0  0
   -6.9890  -14.6900    7.6470 C   0  0  0  0  0  0  0  0  0  0  0  0
   -5.6950  -14.4820    8.1270 C   0  0  0  0  0  0  0  0  0  0  0  0
   -1.0160  -17.6240    6.1530 N   0  0  0  0  0  0  0  0  0  0  0  0
   -3.2611  -18.5901    4.4671 H   0  0  0  0  0  0  0  0  0  0  0  0
   -4.2486  -18.3868    2.9804 H   0  0  0  0  0  0  0  0  0  0  0  0
   -2.8460  -19.5089    2.9804 H   0  0  0  0  0  0  0  0  0  0  0  0
   -2.6610  -17.8770    0.8277 H   0  0  0  0  0  0  0  0  0  0  0  0
   -1.1946  -16.0507   -0.0099 H   0  0  0  0  0  0  0  0  0  0  0  0
   -0.0030  -13.4280    2.0750 H   0  0  0  0  0  0  0  0  0  0  0  0
    1.5100  -12.3940    1.3090 H   0  0  0  0  0  0  0  0  0  0  0  0
    4.5185  -13.1553    1.0745 H   0  0  0  0  0  0  0  0  0  0  0  0
    6.4673  -11.3483    1.4055 H   0  0  0  0  0  0  0  0  0  0  0  0
    6.8472  -13.1073    1.5124 H   0  0  0  0  0  0  0  0  0  0  0  0
    8.7068  -10.8761    0.5394 H   0  0  0  0  0  0  0  0  0  0  0  0
    8.8418  -11.8417    2.0693 H   0  0  0  0  0  0  0  0  0  0  0  0
    9.1036  -11.9279   -1.5124 H   0  0  0  0  0  0  0  0  0  0  0  0
    9.5392  -13.6898   -1.5360 H   0  0  0  0  0  0  0  0  0  0  0  0
    7.1815  -13.2340   -2.2773 H   0  0  0  0  0  0  0  0  0  0  0  0
    7.3011  -14.3102   -0.8365 H   0  0  0  0  0  0  0  0  0  0  0  0
    5.6105  -11.3705   -2.6906 H   0  0  0  0  0  0  0  0  0  0  0  0
    1.4505  -12.0173   -1.7301 H   0  0  0  0  0  0  0  0  0  0  0  0
   -0.3329  -14.9009    4.0506 H   0  0  0  0  0  0  0  0  0  0  0  0
   -0.5140  -18.5986    9.1205 H   0  0  0  0  0  0  0  0  0  0  0  0
   -3.6435  -15.3452   10.4491 H   0  0  0  0  0  0  0  0  0  0  0  0
   -3.2854  -14.2934    9.0124 H   0  0  0  0  0  0  0  0  0  0  0  0
   -5.1780  -17.5143    9.6111 H   0  0  0  0  0  0  0  0  0  0  0  0
   -7.4873  -17.8783    8.7539 H   0  0  0  0  0  0  0  0  0  0  0  0
   -8.6490  -16.0714    7.4837 H   0  0  0  0  0  0  0  0  0  0  0  0
   -7.5038  -13.8908    7.0936 H   0  0  0  0  0  0  0  0  0  0  0  0
   -5.1961  -13.5171    7.9537 H   0  0  0  0  0  0  0  0  0  0  0  0
  1  2  1  0
  2  3  2  0
  3  4  1  0
  4  5  2  0
  5  6  1  0
  6  7  1  0
  7  8  2  0
  7  9  1  0
  9 10  1  0
 10 11  2  0
 11 12  1  0
 12 13  1  0
 13 14  1  0
 14 15  1  0
 15 16  1  0
 16 17  1  0
 17 18  1  0
 12 19  2  0
 19 20  1  0
 20 21  1  0
 21 22  1  0
 21 23  1  0
 21 24  1  0
 20 25  2  0
  5 26  1  0
 26 27  2  0
 27 28  1  0
 28 29  2  0
 29 30  1  0
 30 31  2  0
 31 32  1  0
 32 33  2  0
 33 34  1  0
 34 35  1  0
 35 36  1  0
 36 37  2  0
 37 38  1  0
 38 39  2  0
 39 40  1  0
 40 41  2  0
 31 42  1  0
 27  2  1  0
 42 28  1  0
 25 10  1  0
 34 30  1  0
 41 36  1  0
 18 13  1  0
  1 43  1  0
  1 44  1  0
  1 45  1  0
  3 46  1  0
  4 47  1  0
  6 48  1  0
  9 49  1  0
 11 50  1  0
 14 51  1  0
 14 52  1  0
 15 53  1  0
 15 54  1  0
 17 55  1  0
 17 56  1  0
 18 57  1  0
 18 58  1  0
 19 59  1  0
 25 60  1  0
 26 61  1  0
 32 62  1  0
 35 63  1  0
 35 64  1  0
 37 65  1  0
 38 66  1  0
 39 67  1  0
 40 68  1  0
 41 69  1  0
M  CHG  1  42  -1
M  END
>  <meeko>  (6) 
{"is_sidechain": [false], "free_energy": -9.118, "intermolecular_energy": -12.86, "internal_energy": -1.214}

$$$$
LIB_BXMPHYNIUWLBLW__M_PUB_ALL__e8__s20260927
     RDKit          3D

 69 74  0  0  0  0  0  0  0  0999 V2000
    1.5010  -11.1520   -1.1330 C   0  0  0  0  0  0  0  0  0  0  0  0
    2.1460  -11.4940   -2.4450 C   0  0  0  0  0  0  0  0  0  0  0  0
    2.6740  -10.4530   -3.2310 C   0  0  0  0  0  0  0  0  0  0  0  0
    3.2870  -10.7080   -4.4660 C   0  0  0  0  0  0  0  0  0  0  0  0
    3.3870  -12.0110   -4.9400 C   0  0  0  0  0  0  0  0  0  0  0  0
    3.9800  -12.3750   -6.1680 N   0  0  0  0  0  0  0  0  0  0  0  0
    5.3180  -12.6120   -6.4390 C   0  0  0  0  0  0  0  0  0  0  0  0
    6.2250  -12.5660   -5.6180 O   0  0  0  0  0  0  0  0  0  0  0  0
    5.4850  -12.9060   -7.7880 N   0  0  0  0  0  0  0  0  0  0  0  0
    6.6750  -13.2510   -8.4650 C   0  0  0  0  0  0  0  0  0  0  0  0
    7.4520  -14.3750   -8.1640 C   0  0  0  0  0  0  0  0  0  0  0  0
    8.6320  -14.6850   -8.8650 C   0  0  0  0  0  0  0  0  0  0  0  0
    9.4190  -15.7920   -8.5590 N   0  0  0  0  0  0  0  0  0  0  0  0
   10.8840  -15.7220   -8.7270 C   0  0  0  0  0  0  0  0  0  0  0  0
   11.4850  -17.1370   -8.7670 C   0  0  0  0  0  0  0  0  0  0  0  0
   11.1110  -17.9100   -7.6150 O   0  0  0  0  0  0  0  0  0  0  0  0
    9.6820  -18.0360   -7.5560 C   0  0  0  0  0  0  0  0  0  0  0  0
    8.9890  -16.6690   -7.4520 C   0  0  0  0  0  0  0  0  0  0  0  0
    9.0130  -13.8070   -9.8890 C   0  0  0  0  0  0  0  0  0  0  0  0
    8.2490  -12.6780  -10.2270 C   0  0  0  0  0  0  0  0  0  0  0  0
    8.7110  -11.7500  -11.3170 C   0  0  0  0  0  0  0  0  0  0  0  0
    9.9680  -11.2640  -11.1090 F   0  0  0  0  0  0  0  0  0  0  0  0
    7.9080  -10.6590  -11.4500 F   0  0  0  0  0  0  0  0  0  0  0  0
    8.7450  -12.3400  -12.5460 F   0  0  0  0  0  0  0  0  0  0  0  0
    7.0810  -12.4080   -9.5020 C   0  0  0  0  0  0  0  0  0  0  0  0
    2.8650  -13.0500   -4.1660 C   0  0  0  0  0  0  0  0  0  0  0  0
    2.2480  -12.8090   -2.9270 C   0  0  0  0  0  0  0  0  0  0  0  0
    1.6940  -14.0970   -2.1500 C   0  0  0  0  0  0  0  0  0  0  0  0
    0.3560  -14.3170   -1.8170 N   0  0  0  0  0  0  0  0  0  0  0  0
    0.4000  -15.6010   -1.1540 C   0  0  0  0  0  0  0  0  0  0  0  0
    1.6490  -16.0690   -1.1010 C   0  0  0  0  0  0  0  0  0  0  0  0
    1.5920  -17.2830   -0.4360 C   0  0  0  0  0  0  0  0  0  0  0  0
    0.3240  -17.5830   -0.0570 N   0  0  0  0  0  0  0  0  0  0  0  0
   -0.3950  -16.5070   -0.5500 N   0  0  0  0  0  0  0  0  0  0  0  0
   -1.8170  -16.3770   -0.3240 C   0  0  0  0  0  0  0  0  0  0  0  0
   -2.1420  -15.2370    0.6110 C   0  0  0  0  0  0  0  0  0  0  0  0
   -2.8240  -14.1070    0.1370 C   0  0  0  0  0  0  0  0  0  0  0  0
   -3.1280  -13.0500    0.9950 C   0  0  0  0  0  0  0  0  0  0  0  0
   -2.7550  -13.1110    2.3370 C   0  0  0  0  0  0  0  0  0  0  0  0
   -2.0840  -14.2330    2.8220 C   0  0  0  0  0  0  0  0  0  0  0  0
   -1.7820  -15.2930    1.9660 C   0  0  0  0  0  0  0  0  0  0  0  0
    2.5410  -15.1350   -1.7340 N   0  0  0  0  0  0  0  0  0  0  0  0
    2.1441  -11.4930   -0.3083 H   0  0  0  0  0  0  0  0  0  0  0  0
    1.3639  -10.0627   -1.0647 H   0  0  0  0  0  0  0  0  0  0  0  0
    0.5224  -11.6497   -1.0647 H   0  0  0  0  0  0  0  0  0  0  0  0
    2.6043   -9.4167   -2.8687 H   0  0  0  0  0  0  0  0  0  0  0  0
    3.6897   -9.8751   -5.0611 H   0  0  0  0  0  0  0  0  0  0  0  0
    3.3220  -12.4870   -6.9230 H   0  0  0  0  0  0  0  0  0  0  0  0
    4.6550  -12.8310   -8.3550 H   0  0  0  0  0  0  0  0  0  0  0  0
    7.1287  -15.0404   -7.3499 H   0  0  0  0  0  0  0  0  0  0  0  0
   11.1169  -15.2021   -9.6680 H   0  0  0  0  0  0  0  0  0  0  0  0
   11.3158  -15.1738   -7.8767 H   0  0  0  0  0  0  0  0  0  0  0  0
   11.1266  -17.6503   -9.6715 H   0  0  0  0  0  0  0  0  0  0  0  0
   12.5809  -17.0422   -8.7732 H   0  0  0  0  0  0  0  0  0  0  0  0
    9.3321  -18.5435   -8.4671 H   0  0  0  0  0  0  0  0  0  0  0  0
    9.4283  -18.6156   -6.6562 H   0  0  0  0  0  0  0  0  0  0  0  0
    7.8992  -16.8097   -7.5026 H   0  0  0  0  0  0  0  0  0  0  0  0
    9.2640  -16.1998   -6.4958 H   0  0  0  0  0  0  0  0  0  0  0  0
    9.9400  -14.0086  -10.4457 H   0  0  0  0  0  0  0  0  0  0  0  0
    6.4775  -11.5230   -9.7520 H   0  0  0  0  0  0  0  0  0  0  0  0
    2.9389  -14.0833   -4.5360 H   0  0  0  0  0  0  0  0  0  0  0  0
    2.4648  -17.9232   -0.2399 H   0  0  0  0  0  0  0  0  0  0  0  0
   -2.3144  -16.1974   -1.2885 H   0  0  0  0  0  0  0  0  0  0  0  0
   -2.1724  -17.3083    0.1412 H   0  0  0  0  0  0  0  0  0  0  0  0
   -3.1218  -14.0537   -0.9206 H   0  0  0  0  0  0  0  0  0  0  0  0
   -3.6623  -12.1678    0.6126 H   0  0  0  0  0  0  0  0  0  0  0  0
   -2.9897  -12.2751    3.0124 H   0  0  0  0  0  0  0  0  0  0  0  0
   -1.7921  -14.2827    3.8814 H   0  0  0  0  0  0  0  0  0  0  0  0
   -1.2583  -16.1782    2.3561 H   0  0  0  0  0  0  0  0  0  0  0  0
  1  2  1  0
  2  3  2  0
  3  4  1  0
  4  5  2  0
  5  6  1  0
  6  7  1  0
  7  8  2  0
  7  9  1  0
  9 10  1  0
 10 11  2  0
 11 12  1  0
 12 13  1  0
 13 14  1  0
 14 15  1  0
 15 16  1  0
 16 17  1  0
 17 18  1  0
 12 19  2  0
 19 20  1  0
 20 21  1  0
 21 22  1  0
 21 23  1  0
 21 24  1  0
 20 25  2  0
  5 26  1  0
 26 27  2  0
 27 28  1  0
 28 29  2  0
 29 30  1  0
 30 31  2  0
 31 32  1  0
 32 33  2  0
 33 34  1  0
 34 35  1  0
 35 36  1  0
 36 37  2  0
 37 38  1  0
 38 39  2  0
 39 40  1  0
 40 41  2  0
 31 42  1  0
 27  2  1  0
 42 28  1  0
 25 10  1  0
 34 30  1  0
 41 36  1  0
 18 13  1  0
  1 43  1  0
  1 44  1  0
  1 45  1  0
  3 46  1  0
  4 47  1  0
  6 48  1  0
  9 49  1  0
 11 50  1  0
 14 51  1  0
 14 52  1  0
 15 53  1  0
 15 54  1  0
 17 55  1  0
 17 56  1  0
 18 57  1  0
 18 58  1  0
 19 59  1  0
 25 60  1  0
 26 61  1  0
 32 62  1  0
 35 63  1  0
 35 64  1  0
 37 65  1  0
 38 66  1  0
 39 67  1  0
 40 68  1  0
 41 69  1  0
M  CHG  1  42  -1
M  END
>  <meeko>  (7) 
{"is_sidechain": [false], "free_energy": -9.003, "intermolecular_energy": -12.602, "internal_energy": -1.312}

$$$$
LIB_BXMPHYNIUWLBLW__M_PUB_ALL__e8__s20260927
     RDKit          3D

 69 74  0  0  0  0  0  0  0  0999 V2000
    6.6010  -13.7960   -7.1540 C   0  0  0  0  0  0  0  0  0  0  0  0
    5.7910  -13.3440   -5.9740 C   0  0  0  0  0  0  0  0  0  0  0  0
    4.4860  -12.8670   -6.1920 C   0  0  0  0  0  0  0  0  0  0  0  0
    3.6800  -12.4310   -5.1320 C   0  0  0  0  0  0  0  0  0  0  0  0
    4.1630  -12.4620   -3.8280 C   0  0  0  0  0  0  0  0  0  0  0  0
    3.4380  -12.0430   -2.6930 N   0  0  0  0  0  0  0  0  0  0  0  0
    2.2730  -12.5820   -2.1710 C   0  0  0  0  0  0  0  0  0  0  0  0
    1.6830  -13.5580   -2.6150 O   0  0  0  0  0  0  0  0  0  0  0  0
    1.8630  -11.8450   -1.0650 N   0  0  0  0  0  0  0  0  0  0  0  0
    0.7570  -12.0830   -0.2190 C   0  0  0  0  0  0  0  0  0  0  0  0
    0.3740  -13.3490    0.2360 C   0  0  0  0  0  0  0  0  0  0  0  0
   -0.7350  -13.5420    1.0800 C   0  0  0  0  0  0  0  0  0  0  0  0
   -1.1330  -14.8010    1.5220 N   0  0  0  0  0  0  0  0  0  0  0  0
   -2.0940  -14.9210    2.6360 C   0  0  0  0  0  0  0  0  0  0  0  0
   -2.0430  -16.3360    3.2340 C   0  0  0  0  0  0  0  0  0  0  0  0
   -2.2500  -17.3480    2.2350 O   0  0  0  0  0  0  0  0  0  0  0  0
   -1.2290  -17.2550    1.2290 C   0  0  0  0  0  0  0  0  0  0  0  0
   -1.2380  -15.8890    0.5270 C   0  0  0  0  0  0  0  0  0  0  0  0
   -1.4620  -12.4010    1.4480 C   0  0  0  0  0  0  0  0  0  0  0  0
   -1.0960  -11.1140    1.0210 C   0  0  0  0  0  0  0  0  0  0  0  0
   -1.9210   -9.9210    1.4220 C   0  0  0  0  0  0  0  0  0  0  0  0
   -2.8090   -9.5380    0.4610 F   0  0  0  0  0  0  0  0  0  0  0  0
   -1.1580   -8.8240    1.6840 F   0  0  0  0  0  0  0  0  0  0  0  0
   -2.6650  -10.1350    2.5450 F   0  0  0  0  0  0  0  0  0  0  0  0
    0.0160  -10.9680    0.1820 C   0  0  0  0  0  0  0  0  0  0  0  0
    5.4590  -12.9340   -3.6030 C   0  0  0  0  0  0  0  0  0  0  0  0
    6.2770  -13.3740   -4.6570 C   0  0  0  0  0  0  0  0  0  0  0  0
    7.7410  -13.8860   -4.2500 C   0  0  0  0  0  0  0  0  0  0  0  0
    8.8470  -13.0620   -4.0390 N   0  0  0  0  0  0  0  0  0  0  0  0
    9.8860  -14.0050   -3.6900 C   0  0  0  0  0  0  0  0  0  0  0  0
    9.4210  -15.2560   -3.7100 C   0  0  0  0  0  0  0  0  0  0  0  0
   10.4850  -16.0820   -3.3860 C   0  0  0  0  0  0  0  0  0  0  0  0
   11.6190  -15.3690   -3.1710 N   0  0  0  0  0  0  0  0  0  0  0  0
   11.1890  -14.0650   -3.3520 N   0  0  0  0  0  0  0  0  0  0  0  0
   12.1020  -12.9470   -3.2710 C   0  0  0  0  0  0  0  0  0  0  0  0
   12.0830  -12.2960   -1.9090 C   0  0  0  0  0  0  0  0  0  0  0  0
   11.0470  -12.5780   -1.0060 C   0  0  0  0  0  0  0  0  0  0  0  0
   11.0230  -11.9800    0.2540 C   0  0  0  0  0  0  0  0  0  0  0  0
   12.0350  -11.0960    0.6270 C   0  0  0  0  0  0  0  0  0  0  0  0
   13.0740  -10.8150   -0.2590 C   0  0  0  0  0  0  0  0  0  0  0  0
   13.1020  -11.4140   -1.5200 C   0  0  0  0  0  0  0  0  0  0  0  0
    8.0280  -15.2470   -4.0690 N   0  0  0  0  0  0  0  0  0  0  0  0
    7.5109  -14.3037   -6.8013 H   0  0  0  0  0  0  0  0  0  0  0  0
    6.0052  -14.4921   -7.7627 H   0  0  0  0  0  0  0  0  0  0  0  0
    6.8805  -12.9235   -7.7627 H   0  0  0  0  0  0  0  0  0  0  0  0
    4.0893  -12.8355   -7.2175 H   0  0  0  0  0  0  0  0  0  0  0  0
    2.6627  -12.0633   -5.3316 H   0  0  0  0  0  0  0  0  0  0  0  0
    3.8510  -11.2620   -2.2080 H   0  0  0  0  0  0  0  0  0  0  0  0
    2.4080  -11.0220   -0.8630 H   0  0  0  0  0  0  0  0  0  0  0  0
    0.9609  -14.2251   -0.0773 H   0  0  0  0  0  0  0  0  0  0  0  0
   -1.8392  -14.1881    3.4157 H   0  0  0  0  0  0  0  0  0  0  0  0
   -3.1083  -14.7294    2.2559 H   0  0  0  0  0  0  0  0  0  0  0  0
   -1.0577  -16.4906    3.6980 H   0  0  0  0  0  0  0  0  0  0  0  0
   -2.8493  -16.4210    3.9774 H   0  0  0  0  0  0  0  0  0  0  0  0
   -0.2479  -17.4043    1.7035 H   0  0  0  0  0  0  0  0  0  0  0  0
   -1.4257  -18.0282    0.4718 H   0  0  0  0  0  0  0  0  0  0  0  0
   -0.3853  -15.8311   -0.1655 H   0  0  0  0  0  0  0  0  0  0  0  0
   -2.1815  -15.7775   -0.0274 H   0  0  0  0  0  0  0  0  0  0  0  0
   -2.3467  -12.5174    2.0913 H   0  0  0  0  0  0  0  0  0  0  0  0
    0.3089   -9.9660   -0.1647 H   0  0  0  0  0  0  0  0  0  0  0  0
    5.8485  -12.9617   -2.5746 H   0  0  0  0  0  0  0  0  0  0  0  0
   10.4187  -17.1775   -3.3124 H   0  0  0  0  0  0  0  0  0  0  0  0
   13.1210  -13.3054   -3.4787 H   0  0  0  0  0  0  0  0  0  0  0  0
   11.7848  -12.1963   -4.0098 H   0  0  0  0  0  0  0  0  0  0  0  0
   10.2473  -13.2762   -1.2939 H   0  0  0  0  0  0  0  0  0  0  0  0
   10.2051  -12.2059    0.9540 H   0  0  0  0  0  0  0  0  0  0  0  0
   12.0135  -10.6211    1.6190 H   0  0  0  0  0  0  0  0  0  0  0  0
   13.8737  -10.1197    0.0360 H   0  0  0  0  0  0  0  0  0  0  0  0
   13.9278  -11.1930   -2.2122 H   0  0  0  0  0  0  0  0  0  0  0  0
  1  2  1  0
  2  3  2  0
  3  4  1  0
  4  5  2  0
  5  6  1  0
  6  7  1  0
  7  8  2  0
  7  9  1  0
  9 10  1  0
 10 11  2  0
 11 12  1  0
 12 13  1  0
 13 14  1  0
 14 15  1  0
 15 16  1  0
 16 17  1  0
 17 18  1  0
 12 19  2  0
 19 20  1  0
 20 21  1  0
 21 22  1  0
 21 23  1  0
 21 24  1  0
 20 25  2  0
  5 26  1  0
 26 27  2  0
 27 28  1  0
 28 29  2  0
 29 30  1  0
 30 31  2  0
 31 32  1  0
 32 33  2  0
 33 34  1  0
 34 35  1  0
 35 36  1  0
 36 37  2  0
 37 38  1  0
 38 39  2  0
 39 40  1  0
 40 41  2  0
 31 42  1  0
 27  2  1  0
 42 28  1  0
 25 10  1  0
 34 30  1  0
 41 36  1  0
 18 13  1  0
  1 43  1  0
  1 44  1  0
  1 45  1  0
  3 46  1  0
  4 47  1  0
  6 48  1  0
  9 49  1  0
 11 50  1  0
 14 51  1  0
 14 52  1  0
 15 53  1  0
 15 54  1  0
 17 55  1  0
 17 56  1  0
 18 57  1  0
 18 58  1  0
 19 59  1  0
 25 60  1  0
 26 61  1  0
 32 62  1  0
 35 63  1  0
 35 64  1  0
 37 65  1  0
 38 66  1  0
 39 67  1  0
 40 68  1  0
 41 69  1  0
M  CHG  1  42  -1
M  END
>  <meeko>  (8) 
{"is_sidechain": [false], "free_energy": -8.924, "intermolecular_energy": -12.958, "internal_energy": -0.843}

$$$$
LIB_BXMPHYNIUWLBLW__M_PUB_ALL__e8__s20260927
     RDKit          3D

 69 74  0  0  0  0  0  0  0  0999 V2000
    0.2180  -14.4650   -4.6300 C   0  0  0  0  0  0  0  0  0  0  0  0
    1.5200  -14.1700   -3.9440 C   0  0  0  0  0  0  0  0  0  0  0  0
    2.5880  -13.6660   -4.7080 C   0  0  0  0  0  0  0  0  0  0  0  0
    3.8290  -13.3720   -4.1250 C   0  0  0  0  0  0  0  0  0  0  0  0
    4.0270  -13.5760   -2.7640 C   0  0  0  0  0  0  0  0  0  0  0  0
    5.2340  -13.3160   -2.0810 N   0  0  0  0  0  0  0  0  0  0  0  0
    6.4740  -13.9050   -2.2740 C   0  0  0  0  0  0  0  0  0  0  0  0
    6.7300  -14.7560   -3.1160 O   0  0  0  0  0  0  0  0  0  0  0  0
    7.3910  -13.3910   -1.3630 N   0  0  0  0  0  0  0  0  0  0  0  0
    8.7670  -13.6860   -1.2500 C   0  0  0  0  0  0  0  0  0  0  0  0
    9.3510  -14.8860   -1.6730 C   0  0  0  0  0  0  0  0  0  0  0  0
   10.7280  -15.1390   -1.5420 C   0  0  0  0  0  0  0  0  0  0  0  0
   11.3130  -16.3380   -1.9440 N   0  0  0  0  0  0  0  0  0  0  0  0
   12.7520  -16.3830   -2.2680 C   0  0  0  0  0  0  0  0  0  0  0  0
   13.0750  -17.6410   -3.0910 C   0  0  0  0  0  0  0  0  0  0  0  0
   12.6340  -18.8400   -2.4320 O   0  0  0  0  0  0  0  0  0  0  0  0
   11.2130  -18.7910   -2.2340 C   0  0  0  0  0  0  0  0  0  0  0  0
   10.7940  -17.5940   -1.3670 C   0  0  0  0  0  0  0  0  0  0  0  0
   11.5080  -14.1330   -0.9570 C   0  0  0  0  0  0  0  0  0  0  0  0
   10.9580  -12.9120   -0.5360 C   0  0  0  0  0  0  0  0  0  0  0  0
   11.8310  -11.8700    0.1100 C   0  0  0  0  0  0  0  0  0  0  0  0
   12.8660  -12.4050    0.8190 F   0  0  0  0  0  0  0  0  0  0  0  0
   11.1460  -11.0850    0.9860 F   0  0  0  0  0  0  0  0  0  0  0  0
   12.4030  -11.0170   -0.7860 F   0  0  0  0  0  0  0  0  0  0  0  0
    9.5810  -12.7020   -0.6840 C   0  0  0  0  0  0  0  0  0  0  0  0
    2.9710  -14.0760   -1.9980 C   0  0  0  0  0  0  0  0  0  0  0  0
    1.7230  -14.3750   -2.5700 C   0  0  0  0  0  0  0  0  0  0  0  0
    0.6060  -14.9450   -1.5710 C   0  0  0  0  0  0  0  0  0  0  0  0
   -0.6030  -14.3120   -1.2750 N   0  0  0  0  0  0  0  0  0  0  0  0
   -1.2290  -15.2330   -0.3540 C   0  0  0  0  0  0  0  0  0  0  0  0
   -0.4470  -16.2920   -0.1330 C   0  0  0  0  0  0  0  0  0  0  0  0
   -1.1170  -17.1020    0.7700 C   0  0  0  0  0  0  0  0  0  0  0  0
   -2.3090  -16.5620    1.1300 N   0  0  0  0  0  0  0  0  0  0  0  0
   -2.3460  -15.3980    0.3820 N   0  0  0  0  0  0  0  0  0  0  0  0
   -3.4390  -14.4580    0.4930 C   0  0  0  0  0  0  0  0  0  0  0  0
   -2.9810  -13.1120    1.0010 C   0  0  0  0  0  0  0  0  0  0  0  0
   -3.0510  -11.9830    0.1720 C   0  0  0  0  0  0  0  0  0  0  0  0
   -2.6300  -10.7360    0.6350 C   0  0  0  0  0  0  0  0  0  0  0  0
   -2.1350  -10.6030    1.9310 C   0  0  0  0  0  0  0  0  0  0  0  0
   -2.0690  -11.7170    2.7680 C   0  0  0  0  0  0  0  0  0  0  0  0
   -2.4920  -12.9650    2.3080 C   0  0  0  0  0  0  0  0  0  0  0  0
    0.7660  -16.1650   -0.8970 N   0  0  0  0  0  0  0  0  0  0  0  0
   -0.5623  -14.6418   -3.8751 H   0  0  0  0  0  0  0  0  0  0  0  0
   -0.0674  -13.6088   -5.2588 H   0  0  0  0  0  0  0  0  0  0  0  0
    0.3295  -15.3606   -5.2588 H   0  0  0  0  0  0  0  0  0  0  0  0
    2.4467  -13.4989   -5.7860 H   0  0  0  0  0  0  0  0  0  0  0  0
    4.6477  -12.9791   -4.7458 H   0  0  0  0  0  0  0  0  0  0  0  0
    5.1630  -12.5940   -1.3820 H   0  0  0  0  0  0  0  0  0  0  0  0
    7.0150  -12.7520   -0.6810 H   0  0  0  0  0  0  0  0  0  0  0  0
    8.7101  -15.6581   -2.1237 H   0  0  0  0  0  0  0  0  0  0  0  0
   13.0209  -15.4895   -2.8505 H   0  0  0  0  0  0  0  0  0  0  0  0
   13.3287  -16.4103   -1.3317 H   0  0  0  0  0  0  0  0  0  0  0  0
   12.5729  -17.5662   -4.0669 H   0  0  0  0  0  0  0  0  0  0  0  0
   14.1669  -17.6994   -3.2105 H   0  0  0  0  0  0  0  0  0  0  0  0
   10.7204  -18.7094   -3.2141 H   0  0  0  0  0  0  0  0  0  0  0  0
   10.9106  -19.7110   -1.7123 H   0  0  0  0  0  0  0  0  0  0  0  0
    9.6960  -17.5458   -1.3208 H   0  0  0  0  0  0  0  0  0  0  0  0
   11.2080  -17.7217   -0.3559 H   0  0  0  0  0  0  0  0  0  0  0  0
   12.5861  -14.3054   -0.8233 H   0  0  0  0  0  0  0  0  0  0  0  0
    9.1362  -11.7526   -0.3511 H   0  0  0  0  0  0  0  0  0  0  0  0
    3.1203  -14.2396   -0.9205 H   0  0  0  0  0  0  0  0  0  0  0  0
   -0.7317  -18.0608    1.1471 H   0  0  0  0  0  0  0  0  0  0  0  0
   -3.8956  -14.3261   -0.4990 H   0  0  0  0  0  0  0  0  0  0  0  0
   -4.1631  -14.8640    1.2147 H   0  0  0  0  0  0  0  0  0  0  0  0
   -3.4411  -12.0814   -0.8518 H   0  0  0  0  0  0  0  0  0  0  0  0
   -2.6888   -9.8569   -0.0236 H   0  0  0  0  0  0  0  0  0  0  0  0
   -1.7968   -9.6210    2.2934 H   0  0  0  0  0  0  0  0  0  0  0  0
   -1.6828  -11.6117    3.7926 H   0  0  0  0  0  0  0  0  0  0  0  0
   -2.4417  -13.8388    2.9742 H   0  0  0  0  0  0  0  0  0  0  0  0
  1  2  1  0
  2  3  2  0
  3  4  1  0
  4  5  2  0
  5  6  1  0
  6  7  1  0
  7  8  2  0
  7  9  1  0
  9 10  1  0
 10 11  2  0
 11 12  1  0
 12 13  1  0
 13 14  1  0
 14 15  1  0
 15 16  1  0
 16 17  1  0
 17 18  1  0
 12 19  2  0
 19 20  1  0
 20 21  1  0
 21 22  1  0
 21 23  1  0
 21 24  1  0
 20 25  2  0
  5 26  1  0
 26 27  2  0
 27 28  1  0
 28 29  2  0
 29 30  1  0
 30 31  2  0
 31 32  1  0
 32 33  2  0
 33 34  1  0
 34 35  1  0
 35 36  1  0
 36 37  2  0
 37 38  1  0
 38 39  2  0
 39 40  1  0
 40 41  2  0
 31 42  1  0
 27  2  1  0
 42 28  1  0
 25 10  1  0
 34 30  1  0
 41 36  1  0
 18 13  1  0
  1 43  1  0
  1 44  1  0
  1 45  1  0
  3 46  1  0
  4 47  1  0
  6 48  1  0
  9 49  1  0
 11 50  1  0
 14 51  1  0
 14 52  1  0
 15 53  1  0
 15 54  1  0
 17 55  1  0
 17 56  1  0
 18 57  1  0
 18 58  1  0
 19 59  1  0
 25 60  1  0
 26 61  1  0
 32 62  1  0
 35 63  1  0
 35 64  1  0
 37 65  1  0
 38 66  1  0
 39 67  1  0
 40 68  1  0
 41 69  1  0
M  CHG  1  42  -1
M  END
>  <meeko>  (9) 
{"is_sidechain": [false], "free_energy": -8.917, "intermolecular_energy": -12.864, "internal_energy": -0.928}

$$$$
