LIB_HBSKTOHGBYHMLP__M_PUB_ALL__e8__s20260927
     RDKit          3D

 57 63  0  0  0  0  0  0  0  0999 V2000
   -3.7160  -15.1900    2.3590 O   0  0  0  0  0  0  0  0  0  0  0  0
   -3.4830  -15.5890    3.4950 C   0  0  0  0  0  0  0  0  0  0  0  0
   -4.4050  -15.5910    4.5120 N   0  0  0  0  0  0  0  0  0  0  0  0
   -5.7470  -15.1180    4.3200 C   0  0  0  0  0  0  0  0  0  0  0  0
   -6.5210  -15.1360    5.6100 C   0  0  0  0  0  0  0  0  0  0  0  0
   -6.4030  -14.0760    6.5200 C   0  0  0  0  0  0  0  0  0  0  0  0
   -7.0970  -14.1020    7.7290 C   0  0  0  0  0  0  0  0  0  0  0  0
   -7.9160  -15.1870    8.0420 C   0  0  0  0  0  0  0  0  0  0  0  0
   -8.0490  -16.2580    7.1470 C   0  0  0  0  0  0  0  0  0  0  0  0
   -7.3350  -16.2290    5.9400 C   0  0  0  0  0  0  0  0  0  0  0  0
   -8.9100  -17.4390    7.5010 C   0  0  0  0  0  0  0  0  0  0  0  0
   -8.1960  -18.3740    8.3260 N   0  0  0  0  0  0  0  0  0  0  0  0
   -8.8010  -19.4930    8.8440 C   0  0  0  0  0  0  0  0  0  0  0  0
   -9.9770  -19.7850    8.6570 O   0  0  0  0  0  0  0  0  0  0  0  0
   -7.9000  -20.3050    9.6460 C   0  0  0  0  0  0  0  0  0  0  0  0
   -8.2050  -21.4780   10.2880 C   0  0  0  0  0  0  0  0  0  0  0  0
   -7.0870  -21.9190   10.9250 O   0  0  0  0  0  0  0  0  0  0  0  0
   -6.1260  -20.9760   10.6340 C   0  0  0  0  0  0  0  0  0  0  0  0
   -6.5720  -19.9900    9.8740 N   0  0  0  0  0  0  0  0  0  0  0  0
   -4.6450  -21.0720   11.1640 C   0  0  0  0  0  0  0  0  0  0  0  0
   -4.2190  -22.1130   11.9600 C   0  0  0  0  0  0  0  0  0  0  0  0
   -2.5640  -21.9040   12.3460 S   0  0  0  0  0  0  0  0  0  0  0  0
   -2.5320  -20.4450   11.4190 C   0  0  0  0  0  0  0  0  0  0  0  0
   -3.6850  -20.1220   10.8640 N   0  0  0  0  0  0  0  0  0  0  0  0
   -1.2780  -19.6880   11.2840 C   0  0  0  0  0  0  0  0  0  0  0  0
   -0.4790  -19.3630   12.3760 C   0  0  0  0  0  0  0  0  0  0  0  0
    0.6890  -18.6390   12.1600 C   0  0  0  0  0  0  0  0  0  0  0  0
    1.0250  -18.2590   10.8640 C   0  0  0  0  0  0  0  0  0  0  0  0
    0.1770  -18.6190    9.8190 C   0  0  0  0  0  0  0  0  0  0  0  0
   -0.9620  -19.3260   10.0160 N   0  0  0  0  0  0  0  0  0  0  0  0
    0.4500  -18.2560    8.4200 C   0  0  0  0  0  0  0  0  0  0  0  0
   -0.4230  -17.7270    7.5830 N   0  0  0  0  0  0  0  0  0  0  0  0
    0.1520  -17.5500    6.3380 C   0  0  0  0  0  0  0  0  0  0  0  0
    1.4720  -17.9350    6.2360 C   0  0  0  0  0  0  0  0  0  0  0  0
    2.0140  -18.5450    7.7420 S   0  0  0  0  0  0  0  0  0  0  0  0
   -0.6400  -16.9500    5.1160 C   0  0  0  0  0  0  0  0  0  0  0  0
   -1.9020  -16.5630    5.1770 N   0  0  0  0  0  0  0  0  0  0  0  0
   -2.1900  -16.1120    3.9010 C   0  0  0  0  0  0  0  0  0  0  0  0
   -1.0710  -16.2420    3.1130 C   0  0  0  0  0  0  0  0  0  0  0  0
   -0.0750  -16.7720    3.8720 O   0  0  0  0  0  0  0  0  0  0  0  0
   -4.1080  -15.9570    5.4130 H   0  0  0  0  0  0  0  0  0  0  0  0
   -5.7127  -14.0875    3.9367 H   0  0  0  0  0  0  0  0  0  0  0  0
   -6.2508  -15.7825    3.6027 H   0  0  0  0  0  0  0  0  0  0  0  0
   -5.7585  -13.2179    6.2785 H   0  0  0  0  0  0  0  0  0  0  0  0
   -6.9986  -13.2659    8.4369 H   0  0  0  0  0  0  0  0  0  0  0  0
   -8.4611  -15.2024    8.9973 H   0  0  0  0  0  0  0  0  0  0  0  0
   -7.4148  -17.0758    5.2424 H   0  0  0  0  0  0  0  0  0  0  0  0
   -9.7980  -17.0853    8.0455 H   0  0  0  0  0  0  0  0  0  0  0  0
   -9.2026  -17.9480    6.5708 H   0  0  0  0  0  0  0  0  0  0  0  0
   -7.2110  -18.2350    8.5340 H   0  0  0  0  0  0  0  0  0  0  0  0
   -9.1855  -21.9766   10.2878 H   0  0  0  0  0  0  0  0  0  0  0  0
   -4.8469  -22.9512   12.2964 H   0  0  0  0  0  0  0  0  0  0  0  0
   -0.7659  -19.6730   13.3917 H   0  0  0  0  0  0  0  0  0  0  0  0
    1.3402  -18.3697   13.0046 H   0  0  0  0  0  0  0  0  0  0  0  0
    1.9429  -17.6852   10.6685 H   0  0  0  0  0  0  0  0  0  0  0  0
    2.0844  -17.8615    5.3252 H   0  0  0  0  0  0  0  0  0  0  0  0
   -0.9945  -15.9649    2.0512 H   0  0  0  0  0  0  0  0  0  0  0  0
  1  2  2  0
  2  3  1  0
  3  4  1  0
  4  5  1  0
  5  6  1  0
  6  7  2  0
  7  8  1  0
  8  9  2  0
  9 10  1  0
  9 11  1  0
 11 12  1  0
 12 13  1  0
 13 14  2  0
 13 15  1  0
 15 16  2  0
 16 17  1  0
 17 18  1  0
 18 19  2  0
 18 20  1  0
 20 21  2  0
 21 22  1  0
 22 23  1  0
 23 24  2  0
 23 25  1  0
 25 26  1  0
 26 27  2  0
 27 28  1  0
 28 29  2  0
 29 30  1  0
 29 31  1  0
 31 32  2  0
 32 33  1  0
 33 34  2  0
 34 35  1  0
 33 36  1  0
 36 37  2  0
 37 38  1  0
 38 39  2  0
 39 40  1  0
 38  2  1  0
 10  5  2  0
 19 15  1  0
 24 20  1  0
 30 25  2  0
 35 31  1  0
 40 36  1  0
  3 41  1  0
  4 42  1  0
  4 43  1  0
  6 44  1  0
  7 45  1  0
  8 46  1  0
 10 47  1  0
 11 48  1  0
 11 49  1  0
 12 50  1  0
 16 51  1  0
 21 52  1  0
 26 53  1  0
 27 54  1  0
 28 55  1  0
 34 56  1  0
 39 57  1  0
M  END
>  <meeko>  (1) 
{"is_sidechain": [false], "free_energy": -9.809, "intermolecular_energy": -9.809, "internal_energy": 0.0}

$$$$
LIB_HBSKTOHGBYHMLP__M_PUB_ALL__e8__s20260927
     RDKit          3D

 57 63  0  0  0  0  0  0  0  0999 V2000
   -3.0100  -16.0870    3.1830 O   0  0  0  0  0  0  0  0  0  0  0  0
   -3.1370  -16.5960    4.2910 C   0  0  0  0  0  0  0  0  0  0  0  0
   -4.2400  -16.4280    5.0900 N   0  0  0  0  0  0  0  0  0  0  0  0
   -5.3600  -15.6270    4.6800 C   0  0  0  0  0  0  0  0  0  0  0  0
   -6.3880  -15.5270    5.7730 C   0  0  0  0  0  0  0  0  0  0  0  0
   -6.2400  -14.5830    6.7990 C   0  0  0  0  0  0  0  0  0  0  0  0
   -7.1770  -14.5060    7.8290 C   0  0  0  0  0  0  0  0  0  0  0  0
   -8.2710  -15.3710    7.8450 C   0  0  0  0  0  0  0  0  0  0  0  0
   -8.4390  -16.3220    6.8300 C   0  0  0  0  0  0  0  0  0  0  0  0
   -7.4840  -16.4030    5.8070 C   0  0  0  0  0  0  0  0  0  0  0  0
   -9.6050  -17.2730    6.8680 C   0  0  0  0  0  0  0  0  0  0  0  0
   -9.3290  -18.4010    7.7140 N   0  0  0  0  0  0  0  0  0  0  0  0
  -10.2740  -19.3640    7.9700 C   0  0  0  0  0  0  0  0  0  0  0  0
  -11.4120  -19.3450    7.5140 O   0  0  0  0  0  0  0  0  0  0  0  0
   -9.7870  -20.4170    8.8450 C   0  0  0  0  0  0  0  0  0  0  0  0
  -10.4900  -21.5140    9.2790 C   0  0  0  0  0  0  0  0  0  0  0  0
   -9.6760  -22.2530   10.0800 O   0  0  0  0  0  0  0  0  0  0  0  0
   -8.4840  -21.5610   10.0980 C   0  0  0  0  0  0  0  0  0  0  0  0
   -8.5100  -20.4540    9.3760 N   0  0  0  0  0  0  0  0  0  0  0  0
   -7.2240  -22.0500   10.9070 C   0  0  0  0  0  0  0  0  0  0  0  0
   -7.2380  -23.2080   11.6550 C   0  0  0  0  0  0  0  0  0  0  0  0
   -5.7110  -23.4370   12.3930 S   0  0  0  0  0  0  0  0  0  0  0  0
   -5.1380  -21.9800   11.6590 C   0  0  0  0  0  0  0  0  0  0  0  0
   -6.0300  -21.3510   10.9180 N   0  0  0  0  0  0  0  0  0  0  0  0
   -3.7470  -21.5500   11.8680 C   0  0  0  0  0  0  0  0  0  0  0  0
   -3.1620  -21.4950   13.1300 C   0  0  0  0  0  0  0  0  0  0  0  0
   -1.8420  -21.0710   13.2400 C   0  0  0  0  0  0  0  0  0  0  0  0
   -1.1440  -20.7130   12.0910 C   0  0  0  0  0  0  0  0  0  0  0  0
   -1.7930  -20.7920   10.8600 C   0  0  0  0  0  0  0  0  0  0  0  0
   -3.0780  -21.2050   10.7400 N   0  0  0  0  0  0  0  0  0  0  0  0
   -1.1360  -20.4280    9.5960 C   0  0  0  0  0  0  0  0  0  0  0  0
   -1.6520  -19.6530    8.6610 N   0  0  0  0  0  0  0  0  0  0  0  0
   -0.7850  -19.5530    7.5870 C   0  0  0  0  0  0  0  0  0  0  0  0
    0.3990  -20.2450    7.7170 C   0  0  0  0  0  0  0  0  0  0  0  0
    0.4330  -21.0550    9.2260 S   0  0  0  0  0  0  0  0  0  0  0  0
   -1.1220  -18.7060    6.3030 C   0  0  0  0  0  0  0  0  0  0  0  0
   -2.2430  -18.0240    6.1450 N   0  0  0  0  0  0  0  0  0  0  0  0
   -2.1240  -17.4440    4.8950 C   0  0  0  0  0  0  0  0  0  0  0  0
   -0.9160  -17.8010    4.3440 C   0  0  0  0  0  0  0  0  0  0  0  0
   -0.2650  -18.6040    5.2280 O   0  0  0  0  0  0  0  0  0  0  0  0
   -4.2460  -16.9070    5.9870 H   0  0  0  0  0  0  0  0  0  0  0  0
   -5.0052  -14.6168    4.4280 H   0  0  0  0  0  0  0  0  0  0  0  0
   -5.8272  -16.1041    3.8058 H   0  0  0  0  0  0  0  0  0  0  0  0
   -5.3790  -13.8985    6.7915 H   0  0  0  0  0  0  0  0  0  0  0  0
   -7.0531  -13.7621    8.6298 H   0  0  0  0  0  0  0  0  0  0  0  0
   -9.0069  -15.3061    8.6600 H   0  0  0  0  0  0  0  0  0  0  0  0
   -7.5952  -17.1636    5.0201 H   0  0  0  0  0  0  0  0  0  0  0  0
  -10.4880  -16.7426    7.2541 H   0  0  0  0  0  0  0  0  0  0  0  0
   -9.7881  -17.6400    5.8473 H   0  0  0  0  0  0  0  0  0  0  0  0
   -8.4110  -18.5220    8.1340 H   0  0  0  0  0  0  0  0  0  0  0  0
  -11.5325  -21.7539    9.0228 H   0  0  0  0  0  0  0  0  0  0  0  0
   -8.1002  -23.8827   11.7614 H   0  0  0  0  0  0  0  0  0  0  0  0
   -3.7339  -21.7819   14.0248 H   0  0  0  0  0  0  0  0  0  0  0  0
   -1.3550  -21.0193   14.2250 H   0  0  0  0  0  0  0  0  0  0  0  0
   -0.0994  -20.3739   12.1529 H   0  0  0  0  0  0  0  0  0  0  0  0
    1.2015  -20.2732    6.9652 H   0  0  0  0  0  0  0  0  0  0  0  0
   -0.5405  -17.4906    3.3578 H   0  0  0  0  0  0  0  0  0  0  0  0
  1  2  2  0
  2  3  1  0
  3  4  1  0
  4  5  1  0
  5  6  1  0
  6  7  2  0
  7  8  1  0
  8  9  2  0
  9 10  1  0
  9 11  1  0
 11 12  1  0
 12 13  1  0
 13 14  2  0
 13 15  1  0
 15 16  2  0
 16 17  1  0
 17 18  1  0
 18 19  2  0
 18 20  1  0
 20 21  2  0
 21 22  1  0
 22 23  1  0
 23 24  2  0
 23 25  1  0
 25 26  1  0
 26 27  2  0
 27 28  1  0
 28 29  2  0
 29 30  1  0
 29 31  1  0
 31 32  2  0
 32 33  1  0
 33 34  2  0
 34 35  1  0
 33 36  1  0
 36 37  2  0
 37 38  1  0
 38 39  2  0
 39 40  1  0
 38  2  1  0
 10  5  2  0
 19 15  1  0
 24 20  1  0
 30 25  2  0
 35 31  1  0
 40 36  1  0
  3 41  1  0
  4 42  1  0
  4 43  1  0
  6 44  1  0
  7 45  1  0
  8 46  1  0
 10 47  1  0
 11 48  1  0
 11 49  1  0
 12 50  1  0
 16 51  1  0
 21 52  1  0
 26 53  1  0
 27 54  1  0
 28 55  1  0
 34 56  1  0
 39 57  1  0
M  END
>  <meeko>  (2) 
{"is_sidechain": [false], "free_energy": -9.635, "intermolecular_energy": -9.635, "internal_energy": 0.0}

$$$$
LIB_HBSKTOHGBYHMLP__M_PUB_ALL__e8__s20260927
     RDKit          3D

 57 63  0  0  0  0  0  0  0  0999 V2000
    3.3280  -19.2310    1.4900 O   0  0  0  0  0  0  0  0  0  0  0  0
    4.3440  -18.5530    1.3850 C   0  0  0  0  0  0  0  0  0  0  0  0
    5.6170  -19.0620    1.4650 N   0  0  0  0  0  0  0  0  0  0  0  0
    5.8630  -20.4600    1.6800 C   0  0  0  0  0  0  0  0  0  0  0  0
    7.3350  -20.7380    1.8250 C   0  0  0  0  0  0  0  0  0  0  0  0
    7.9700  -20.5580    3.0610 C   0  0  0  0  0  0  0  0  0  0  0  0
    9.3390  -20.7880    3.1940 C   0  0  0  0  0  0  0  0  0  0  0  0
   10.0880  -21.2000    2.0920 C   0  0  0  0  0  0  0  0  0  0  0  0
    9.4740  -21.3880    0.8460 C   0  0  0  0  0  0  0  0  0  0  0  0
    8.1000  -21.1390    0.7190 C   0  0  0  0  0  0  0  0  0  0  0  0
   10.2910  -21.8040   -0.3470 C   0  0  0  0  0  0  0  0  0  0  0  0
   10.9250  -20.6720   -0.9640 N   0  0  0  0  0  0  0  0  0  0  0  0
   11.7890  -20.8130   -2.0220 C   0  0  0  0  0  0  0  0  0  0  0  0
   12.0920  -21.8910   -2.5210 O   0  0  0  0  0  0  0  0  0  0  0  0
   12.3150  -19.5430   -2.4970 C   0  0  0  0  0  0  0  0  0  0  0  0
   13.1910  -19.3560   -3.5370 C   0  0  0  0  0  0  0  0  0  0  0  0
   13.4310  -18.0220   -3.6570 O   0  0  0  0  0  0  0  0  0  0  0  0
   12.6710  -17.4410   -2.6660 C   0  0  0  0  0  0  0  0  0  0  0  0
   11.9900  -18.3170   -1.9450 N   0  0  0  0  0  0  0  0  0  0  0  0
   12.6270  -15.8860   -2.4220 C   0  0  0  0  0  0  0  0  0  0  0  0
   13.3570  -15.0040   -3.1910 C   0  0  0  0  0  0  0  0  0  0  0  0
   13.0720  -13.4010   -2.6590 S   0  0  0  0  0  0  0  0  0  0  0  0
   11.9930  -13.9960   -1.4460 C   0  0  0  0  0  0  0  0  0  0  0  0
   11.8590  -15.3100   -1.4270 N   0  0  0  0  0  0  0  0  0  0  0  0
   11.2960  -13.0550   -0.5570 C   0  0  0  0  0  0  0  0  0  0  0  0
   11.9570  -12.0280    0.1120 C   0  0  0  0  0  0  0  0  0  0  0  0
   11.2220  -11.1850    0.9390 C   0  0  0  0  0  0  0  0  0  0  0  0
    9.8520  -11.3890    1.0760 C   0  0  0  0  0  0  0  0  0  0  0  0
    9.2570  -12.4370    0.3750 C   0  0  0  0  0  0  0  0  0  0  0  0
    9.9620  -13.2640   -0.4340 N   0  0  0  0  0  0  0  0  0  0  0  0
    7.8190  -12.7300    0.4650 C   0  0  0  0  0  0  0  0  0  0  0  0
    7.2920  -13.9230    0.6640 N   0  0  0  0  0  0  0  0  0  0  0  0
    5.9110  -13.8470    0.6520 C   0  0  0  0  0  0  0  0  0  0  0  0
    5.3900  -12.5870    0.4560 C   0  0  0  0  0  0  0  0  0  0  0  0
    6.6640  -11.4560    0.2740 S   0  0  0  0  0  0  0  0  0  0  0  0
    4.9910  -15.1100    0.8490 C   0  0  0  0  0  0  0  0  0  0  0  0
    5.4540  -16.3330    1.0460 N   0  0  0  0  0  0  0  0  0  0  0  0
    4.3210  -17.1180    1.1620 C   0  0  0  0  0  0  0  0  0  0  0  0
    3.2060  -16.3250    1.0340 C   0  0  0  0  0  0  0  0  0  0  0  0
    3.6150  -15.0430    0.8350 O   0  0  0  0  0  0  0  0  0  0  0  0
    6.3900  -18.4100    1.3510 H   0  0  0  0  0  0  0  0  0  0  0  0
    5.3458  -20.7784    2.5971 H   0  0  0  0  0  0  0  0  0  0  0  0
    5.4875  -21.0175    0.8093 H   0  0  0  0  0  0  0  0  0  0  0  0
    7.3840  -20.2327    3.9333 H   0  0  0  0  0  0  0  0  0  0  0  0
    9.8284  -20.6444    4.1686 H   0  0  0  0  0  0  0  0  0  0  0  0
   11.1679  -21.3786    2.2014 H   0  0  0  0  0  0  0  0  0  0  0  0
    7.6151  -21.2596   -0.2610 H   0  0  0  0  0  0  0  0  0  0  0  0
   11.0646  -22.5150   -0.0215 H   0  0  0  0  0  0  0  0  0  0  0  0
    9.6196  -22.2706   -1.0829 H   0  0  0  0  0  0  0  0  0  0  0  0
   10.7340  -19.7280   -0.6370 H   0  0  0  0  0  0  0  0  0  0  0  0
   13.6244  -20.1481   -4.1653 H   0  0  0  0  0  0  0  0  0  0  0  0
   14.0217  -15.2872   -4.0205 H   0  0  0  0  0  0  0  0  0  0  0  0
   13.0408  -11.8860   -0.0113 H   0  0  0  0  0  0  0  0  0  0  0  0
   11.7184  -10.3654    1.4792 H   0  0  0  0  0  0  0  0  0  0  0  0
    9.2502  -10.7358    1.7250 H   0  0  0  0  0  0  0  0  0  0  0  0
    4.3178  -12.3437    0.4215 H   0  0  0  0  0  0  0  0  0  0  0  0
    2.1620  -16.6680    1.0839 H   0  0  0  0  0  0  0  0  0  0  0  0
  1  2  2  0
  2  3  1  0
  3  4  1  0
  4  5  1  0
  5  6  1  0
  6  7  2  0
  7  8  1  0
  8  9  2  0
  9 10  1  0
  9 11  1  0
 11 12  1  0
 12 13  1  0
 13 14  2  0
 13 15  1  0
 15 16  2  0
 16 17  1  0
 17 18  1  0
 18 19  2  0
 18 20  1  0
 20 21  2  0
 21 22  1  0
 22 23  1  0
 23 24  2  0
 23 25  1  0
 25 26  1  0
 26 27  2  0
 27 28  1  0
 28 29  2  0
 29 30  1  0
 29 31  1  0
 31 32  2  0
 32 33  1  0
 33 34  2  0
 34 35  1  0
 33 36  1  0
 36 37  2  0
 37 38  1  0
 38 39  2  0
 39 40  1  0
 38  2  1  0
 10  5  2  0
 19 15  1  0
 24 20  1  0
 30 25  2  0
 35 31  1  0
 40 36  1  0
  3 41  1  0
  4 42  1  0
  4 43  1  0
  6 44  1  0
  7 45  1  0
  8 46  1  0
 10 47  1  0
 11 48  1  0
 11 49  1  0
 12 50  1  0
 16 51  1  0
 21 52  1  0
 26 53  1  0
 27 54  1  0
 28 55  1  0
 34 56  1  0
 39 57  1  0
M  END
>  <meeko>  (3) 
{"is_sidechain": [false], "free_energy": -9.613, "intermolecular_energy": -9.613, "internal_energy": 0.0}

$$$$
LIB_HBSKTOHGBYHMLP__M_PUB_ALL__e8__s20260927
     RDKit          3D

 57 63  0  0  0  0  0  0  0  0999 V2000
   -0.1220  -18.0220    8.6270 O   0  0  0  0  0  0  0  0  0  0  0  0
   -1.1970  -18.3360    9.1250 C   0  0  0  0  0  0  0  0  0  0  0  0
   -2.3420  -17.5850    9.0170 N   0  0  0  0  0  0  0  0  0  0  0  0
   -2.3700  -16.3460    8.2910 C   0  0  0  0  0  0  0  0  0  0  0  0
   -3.7130  -15.6780    8.4080 C   0  0  0  0  0  0  0  0  0  0  0  0
   -4.0160  -14.8910    9.5290 C   0  0  0  0  0  0  0  0  0  0  0  0
   -5.2680  -14.2920    9.6540 C   0  0  0  0  0  0  0  0  0  0  0  0
   -6.2320  -14.4720    8.6620 C   0  0  0  0  0  0  0  0  0  0  0  0
   -5.9510  -15.2530    7.5320 C   0  0  0  0  0  0  0  0  0  0  0  0
   -4.6930  -15.8640    7.4230 C   0  0  0  0  0  0  0  0  0  0  0  0
   -7.0030  -15.4690    6.4790 C   0  0  0  0  0  0  0  0  0  0  0  0
   -7.8950  -16.5340    6.8450 N   0  0  0  0  0  0  0  0  0  0  0  0
   -8.9860  -16.8610    6.0780 C   0  0  0  0  0  0  0  0  0  0  0  0
   -9.2920  -16.2850    5.0390 O   0  0  0  0  0  0  0  0  0  0  0  0
   -9.7520  -17.9690    6.6260 C   0  0  0  0  0  0  0  0  0  0  0  0
  -10.8870  -18.5260    6.0900 C   0  0  0  0  0  0  0  0  0  0  0  0
  -11.2920  -19.5360    6.9060 O   0  0  0  0  0  0  0  0  0  0  0  0
  -10.3650  -19.5530    7.9260 C   0  0  0  0  0  0  0  0  0  0  0  0
   -9.4290  -18.6280    7.7990 N   0  0  0  0  0  0  0  0  0  0  0  0
  -10.4280  -20.5760    9.1210 C   0  0  0  0  0  0  0  0  0  0  0  0
  -11.4250  -21.5230    9.2230 C   0  0  0  0  0  0  0  0  0  0  0  0
  -11.1850  -22.4650   10.6330 S   0  0  0  0  0  0  0  0  0  0  0  0
   -9.7660  -21.5480   11.0040 C   0  0  0  0  0  0  0  0  0  0  0  0
   -9.4910  -20.5880   10.1400 N   0  0  0  0  0  0  0  0  0  0  0  0
   -8.9660  -21.8810   12.1920 C   0  0  0  0  0  0  0  0  0  0  0  0
   -9.5350  -22.0690   13.4490 C   0  0  0  0  0  0  0  0  0  0  0  0
   -8.7040  -22.3760   14.5210 C   0  0  0  0  0  0  0  0  0  0  0  0
   -7.3320  -22.4860   14.3110 C   0  0  0  0  0  0  0  0  0  0  0  0
   -6.8330  -22.2840   13.0260 C   0  0  0  0  0  0  0  0  0  0  0  0
   -7.6330  -21.9860   11.9730 N   0  0  0  0  0  0  0  0  0  0  0  0
   -5.3990  -22.3740   12.7130 C   0  0  0  0  0  0  0  0  0  0  0  0
   -4.7130  -21.4930   12.0100 N   0  0  0  0  0  0  0  0  0  0  0  0
   -3.4000  -21.9070   11.8700 C   0  0  0  0  0  0  0  0  0  0  0  0
   -3.0890  -23.1010   12.4840 C   0  0  0  0  0  0  0  0  0  0  0  0
   -4.4800  -23.7350   13.2560 S   0  0  0  0  0  0  0  0  0  0  0  0
   -2.3300  -21.0750   11.0690 C   0  0  0  0  0  0  0  0  0  0  0  0
   -2.5900  -19.9230   10.4740 N   0  0  0  0  0  0  0  0  0  0  0  0
   -1.3880  -19.5510    9.8970 C   0  0  0  0  0  0  0  0  0  0  0  0
   -0.4390  -20.5050   10.1780 C   0  0  0  0  0  0  0  0  0  0  0  0
   -1.0210  -21.4810   10.9240 O   0  0  0  0  0  0  0  0  0  0  0  0
   -3.1830  -17.9470    9.4600 H   0  0  0  0  0  0  0  0  0  0  0  0
   -1.5987  -15.6748    8.6966 H   0  0  0  0  0  0  0  0  0  0  0  0
   -2.1782  -16.5597    7.2291 H   0  0  0  0  0  0  0  0  0  0  0  0
   -3.2601  -14.7457   10.3148 H   0  0  0  0  0  0  0  0  0  0  0  0
   -5.4965  -13.6762   10.5364 H   0  0  0  0  0  0  0  0  0  0  0  0
   -7.2191  -13.9981    8.7670 H   0  0  0  0  0  0  0  0  0  0  0  0
   -4.4723  -16.4984    6.5519 H   0  0  0  0  0  0  0  0  0  0  0  0
   -7.5826  -14.5422    6.3557 H   0  0  0  0  0  0  0  0  0  0  0  0
   -6.5026  -15.7422    5.5383 H   0  0  0  0  0  0  0  0  0  0  0  0
   -7.7280  -17.0860    7.6820 H   0  0  0  0  0  0  0  0  0  0  0  0
  -11.3832  -18.2098    5.1606 H   0  0  0  0  0  0  0  0  0  0  0  0
  -12.2498  -21.6537    8.5070 H   0  0  0  0  0  0  0  0  0  0  0  0
  -10.6218  -21.9764   13.5914 H   0  0  0  0  0  0  0  0  0  0  0  0
   -9.1264  -22.5304   15.5249 H   0  0  0  0  0  0  0  0  0  0  0  0
   -6.6551  -22.7277   15.1437 H   0  0  0  0  0  0  0  0  0  0  0  0
   -2.0966  -23.5754   12.4790 H   0  0  0  0  0  0  0  0  0  0  0  0
    0.6121  -20.4824    9.8544 H   0  0  0  0  0  0  0  0  0  0  0  0
  1  2  2  0
  2  3  1  0
  3  4  1  0
  4  5  1  0
  5  6  1  0
  6  7  2  0
  7  8  1  0
  8  9  2  0
  9 10  1  0
  9 11  1  0
 11 12  1  0
 12 13  1  0
 13 14  2  0
 13 15  1  0
 15 16  2  0
 16 17  1  0
 17 18  1  0
 18 19  2  0
 18 20  1  0
 20 21  2  0
 21 22  1  0
 22 23  1  0
 23 24  2  0
 23 25  1  0
 25 26  1  0
 26 27  2  0
 27 28  1  0
 28 29  2  0
 29 30  1  0
 29 31  1  0
 31 32  2  0
 32 33  1  0
 33 34  2  0
 34 35  1  0
 33 36  1  0
 36 37  2  0
 37 38  1  0
 38 39  2  0
 39 40  1  0
 38  2  1  0
 10  5  2  0
 19 15  1  0
 24 20  1  0
 30 25  2  0
 35 31  1  0
 40 36  1  0
  3 41  1  0
  4 42  1  0
  4 43  1  0
  6 44  1  0
  7 45  1  0
  8 46  1  0
 10 47  1  0
 11 48  1  0
 11 49  1  0
 12 50  1  0
 16 51  1  0
 21 52  1  0
 26 53  1  0
 27 54  1  0
 28 55  1  0
 34 56  1  0
 39 57  1  0
M  END
>  <meeko>  (4) 
{"is_sidechain": [false], "free_energy": -9.128, "intermolecular_energy": -9.128, "internal_energy": 0.0}

$$$$
LIB_HBSKTOHGBYHMLP__M_PUB_ALL__e8__s20260927
     RDKit          3D

 57 63  0  0  0  0  0  0  0  0999 V2000
   13.3240  -14.4460   -3.7470 O   0  0  0  0  0  0  0  0  0  0  0  0
   12.5990  -15.0400   -2.9570 C   0  0  0  0  0  0  0  0  0  0  0  0
   11.6610  -14.4250   -2.1640 N   0  0  0  0  0  0  0  0  0  0  0  0
   11.4510  -13.0050   -2.2020 C   0  0  0  0  0  0  0  0  0  0  0  0
   10.4420  -12.5770   -1.1710 C   0  0  0  0  0  0  0  0  0  0  0  0
   10.8350  -12.3640    0.1570 C   0  0  0  0  0  0  0  0  0  0  0  0
    9.8980  -11.9940    1.1210 C   0  0  0  0  0  0  0  0  0  0  0  0
    8.5590  -11.8320    0.7690 C   0  0  0  0  0  0  0  0  0  0  0  0
    8.1430  -12.0390   -0.5540 C   0  0  0  0  0  0  0  0  0  0  0  0
    9.0900  -12.4260   -1.5130 C   0  0  0  0  0  0  0  0  0  0  0  0
    6.6920  -11.8930   -0.9240 C   0  0  0  0  0  0  0  0  0  0  0  0
    5.9570  -13.0920   -0.6320 N   0  0  0  0  0  0  0  0  0  0  0  0
    4.5970  -13.1700   -0.8090 C   0  0  0  0  0  0  0  0  0  0  0  0
    3.9050  -12.2440   -1.2170 O   0  0  0  0  0  0  0  0  0  0  0  0
    4.0540  -14.4720   -0.4580 C   0  0  0  0  0  0  0  0  0  0  0  0
    2.7390  -14.8590   -0.5290 C   0  0  0  0  0  0  0  0  0  0  0  0
    2.6510  -16.1510   -0.1130 O   0  0  0  0  0  0  0  0  0  0  0  0
    3.9460  -16.5050    0.1980 C   0  0  0  0  0  0  0  0  0  0  0  0
    4.8170  -15.5280    0.0110 N   0  0  0  0  0  0  0  0  0  0  0  0
    4.3370  -17.9360    0.7290 C   0  0  0  0  0  0  0  0  0  0  0  0
    3.3990  -18.9280    0.9190 C   0  0  0  0  0  0  0  0  0  0  0  0
    4.1660  -20.3460    1.4950 S   0  0  0  0  0  0  0  0  0  0  0  0
    5.6950  -19.5380    1.4450 C   0  0  0  0  0  0  0  0  0  0  0  0
    5.6400  -18.2840    1.0370 N   0  0  0  0  0  0  0  0  0  0  0  0
    6.9190  -20.2610    1.8210 C   0  0  0  0  0  0  0  0  0  0  0  0
    7.0180  -21.0100    2.9900 C   0  0  0  0  0  0  0  0  0  0  0  0
    8.2170  -21.6580    3.2720 C   0  0  0  0  0  0  0  0  0  0  0  0
    9.2810  -21.5390    2.3830 C   0  0  0  0  0  0  0  0  0  0  0  0
    9.1100  -20.7720    1.2320 C   0  0  0  0  0  0  0  0  0  0  0  0
    7.9470  -20.1380    0.9450 N   0  0  0  0  0  0  0  0  0  0  0  0
   10.1810  -20.5870    0.2410 C   0  0  0  0  0  0  0  0  0  0  0  0
   10.5490  -19.4320   -0.2810 N   0  0  0  0  0  0  0  0  0  0  0  0
   11.5560  -19.6230   -1.2100 C   0  0  0  0  0  0  0  0  0  0  0  0
   11.9620  -20.9290   -1.3810 C   0  0  0  0  0  0  0  0  0  0  0  0
   11.0530  -21.9560   -0.3540 S   0  0  0  0  0  0  0  0  0  0  0  0
   12.1990  -18.4350   -2.0180 C   0  0  0  0  0  0  0  0  0  0  0  0
   11.8420  -17.1700   -1.8760 N   0  0  0  0  0  0  0  0  0  0  0  0
   12.6460  -16.4790   -2.7650 C   0  0  0  0  0  0  0  0  0  0  0  0
   13.4710  -17.3680   -3.4120 C   0  0  0  0  0  0  0  0  0  0  0  0
   13.2010  -18.6170   -2.9470 O   0  0  0  0  0  0  0  0  0  0  0  0
   11.1040  -15.0170   -1.5530 H   0  0  0  0  0  0  0  0  0  0  0  0
   12.4055  -12.4956   -2.0032 H   0  0  0  0  0  0  0  0  0  0  0  0
   11.0680  -12.7358   -3.1974 H   0  0  0  0  0  0  0  0  0  0  0  0
   11.8902  -12.4896    0.4410 H   0  0  0  0  0  0  0  0  0  0  0  0
   10.2160  -11.8297    2.1611 H   0  0  0  0  0  0  0  0  0  0  0  0
    7.8242  -11.5400    1.5337 H   0  0  0  0  0  0  0  0  0  0  0  0
    8.7682  -12.6138   -2.5480 H   0  0  0  0  0  0  0  0  0  0  0  0
    6.2586  -11.0587   -0.3530 H   0  0  0  0  0  0  0  0  0  0  0  0
    6.6265  -11.6995   -2.0049 H   0  0  0  0  0  0  0  0  0  0  0  0
    6.4350  -13.9260   -0.2990 H   0  0  0  0  0  0  0  0  0  0  0  0
    1.9001  -14.2317   -0.8648 H   0  0  0  0  0  0  0  0  0  0  0  0
    2.3205  -18.8242    0.7292 H   0  0  0  0  0  0  0  0  0  0  0  0
    6.1638  -21.0884    3.6787 H   0  0  0  0  0  0  0  0  0  0  0  0
    8.3225  -22.2579    4.1880 H   0  0  0  0  0  0  0  0  0  0  0  0
   10.2388  -22.0408    2.5849 H   0  0  0  0  0  0  0  0  0  0  0  0
   12.7504  -21.2617   -2.0723 H   0  0  0  0  0  0  0  0  0  0  0  0
   14.2210  -17.1128   -4.1751 H   0  0  0  0  0  0  0  0  0  0  0  0
  1  2  2  0
  2  3  1  0
  3  4  1  0
  4  5  1  0
  5  6  1  0
  6  7  2  0
  7  8  1  0
  8  9  2  0
  9 10  1  0
  9 11  1  0
 11 12  1  0
 12 13  1  0
 13 14  2  0
 13 15  1  0
 15 16  2  0
 16 17  1  0
 17 18  1  0
 18 19  2  0
 18 20  1  0
 20 21  2  0
 21 22  1  0
 22 23  1  0
 23 24  2  0
 23 25  1  0
 25 26  1  0
 26 27  2  0
 27 28  1  0
 28 29  2  0
 29 30  1  0
 29 31  1  0
 31 32  2  0
 32 33  1  0
 33 34  2  0
 34 35  1  0
 33 36  1  0
 36 37  2  0
 37 38  1  0
 38 39  2  0
 39 40  1  0
 38  2  1  0
 10  5  2  0
 19 15  1  0
 24 20  1  0
 30 25  2  0
 35 31  1  0
 40 36  1  0
  3 41  1  0
  4 42  1  0
  4 43  1  0
  6 44  1  0
  7 45  1  0
  8 46  1  0
 10 47  1  0
 11 48  1  0
 11 49  1  0
 12 50  1  0
 16 51  1  0
 21 52  1  0
 26 53  1  0
 27 54  1  0
 28 55  1  0
 34 56  1  0
 39 57  1  0
M  END
>  <meeko>  (5) 
{"is_sidechain": [false], "free_energy": -9.048, "intermolecular_energy": -9.048, "internal_energy": 0.0}

$$$$
LIB_HBSKTOHGBYHMLP__M_PUB_ALL__e8__s20260927
     RDKit          3D

 57 63  0  0  0  0  0  0  0  0999 V2000
   16.5450  -18.4910  -10.3860 O   0  0  0  0  0  0  0  0  0  0  0  0
   15.4250  -17.9920  -10.3610 C   0  0  0  0  0  0  0  0  0  0  0  0
   14.2660  -18.7150  -10.2280 N   0  0  0  0  0  0  0  0  0  0  0  0
   14.2750  -20.1460  -10.1020 C   0  0  0  0  0  0  0  0  0  0  0  0
   12.8760  -20.6990  -10.0710 C   0  0  0  0  0  0  0  0  0  0  0  0
   12.1780  -20.9260  -11.2650 C   0  0  0  0  0  0  0  0  0  0  0  0
   10.8710  -21.4130  -11.2390 C   0  0  0  0  0  0  0  0  0  0  0  0
   10.2480  -21.6760  -10.0200 C   0  0  0  0  0  0  0  0  0  0  0  0
   10.9260  -21.4570   -8.8130 C   0  0  0  0  0  0  0  0  0  0  0  0
   12.2350  -20.9530   -8.8490 C   0  0  0  0  0  0  0  0  0  0  0  0
   10.2400  -21.7150   -7.4990 C   0  0  0  0  0  0  0  0  0  0  0  0
    9.4290  -20.5960   -7.1080 N   0  0  0  0  0  0  0  0  0  0  0  0
    8.6410  -20.6290   -5.9830 C   0  0  0  0  0  0  0  0  0  0  0  0
    8.5580  -21.5960   -5.2330 O   0  0  0  0  0  0  0  0  0  0  0  0
    7.9060  -19.3930   -5.7690 C   0  0  0  0  0  0  0  0  0  0  0  0
    7.0440  -19.1200   -4.7360 C   0  0  0  0  0  0  0  0  0  0  0  0
    6.5670  -17.8570   -4.9020 O   0  0  0  0  0  0  0  0  0  0  0  0
    7.1740  -17.4030   -6.0530 C   0  0  0  0  0  0  0  0  0  0  0  0
    7.9810  -18.2940   -6.6060 N   0  0  0  0  0  0  0  0  0  0  0  0
    6.9220  -15.9650   -6.6430 C   0  0  0  0  0  0  0  0  0  0  0  0
    6.0680  -15.0660   -6.0410 C   0  0  0  0  0  0  0  0  0  0  0  0
    6.0340  -13.6100   -6.9410 S   0  0  0  0  0  0  0  0  0  0  0  0
    7.1650  -14.2790   -8.0650 C   0  0  0  0  0  0  0  0  0  0  0  0
    7.5380  -15.5170   -7.7980 N   0  0  0  0  0  0  0  0  0  0  0  0
    7.6460  -13.4680   -9.1930 C   0  0  0  0  0  0  0  0  0  0  0  0
    6.7860  -12.7570  -10.0260 C   0  0  0  0  0  0  0  0  0  0  0  0
    7.3250  -12.0190  -11.0740 C   0  0  0  0  0  0  0  0  0  0  0  0
    8.7040  -12.0110  -11.2640 C   0  0  0  0  0  0  0  0  0  0  0  0
    9.5040  -12.7460  -10.3910 C   0  0  0  0  0  0  0  0  0  0  0  0
    8.9910  -13.4680   -9.3660 N   0  0  0  0  0  0  0  0  0  0  0  0
   10.9680  -12.8010  -10.5200 C   0  0  0  0  0  0  0  0  0  0  0  0
   11.6990  -13.8990  -10.4840 N   0  0  0  0  0  0  0  0  0  0  0  0
   13.0420  -13.5860  -10.5920 C   0  0  0  0  0  0  0  0  0  0  0  0
   13.3280  -12.2450  -10.7250 C   0  0  0  0  0  0  0  0  0  0  0  0
   11.8740  -11.3390  -10.7080 S   0  0  0  0  0  0  0  0  0  0  0  0
   14.1720  -14.6830  -10.5680 C   0  0  0  0  0  0  0  0  0  0  0  0
   13.9370  -15.9780  -10.4490 N   0  0  0  0  0  0  0  0  0  0  0  0
   15.1910  -16.5620  -10.4690 C   0  0  0  0  0  0  0  0  0  0  0  0
   16.1440  -15.5820  -10.6070 C   0  0  0  0  0  0  0  0  0  0  0  0
   15.5120  -14.3790  -10.6730 O   0  0  0  0  0  0  0  0  0  0  0  0
   13.3900  -18.1980  -10.2060 H   0  0  0  0  0  0  0  0  0  0  0  0
   14.8126  -20.5781  -10.9589 H   0  0  0  0  0  0  0  0  0  0  0  0
   14.7742  -20.4091   -9.1578 H   0  0  0  0  0  0  0  0  0  0  0  0
   12.6643  -20.7186  -12.2296 H   0  0  0  0  0  0  0  0  0  0  0  0
   10.3315  -21.5896  -12.1812 H   0  0  0  0  0  0  0  0  0  0  0  0
    9.2167  -22.0582  -10.0053 H   0  0  0  0  0  0  0  0  0  0  0  0
   12.7659  -20.7543   -7.9063 H   0  0  0  0  0  0  0  0  0  0  0  0
    9.6007  -22.6048   -7.5966 H   0  0  0  0  0  0  0  0  0  0  0  0
   11.0098  -21.8731   -6.7293 H   0  0  0  0  0  0  0  0  0  0  0  0
    9.4320  -19.7370   -7.6520 H   0  0  0  0  0  0  0  0  0  0  0  0
    6.7838  -19.8047   -3.9153 H   0  0  0  0  0  0  0  0  0  0  0  0
    5.4950  -15.2554   -5.1214 H   0  0  0  0  0  0  0  0  0  0  0  0
    5.6991  -12.7788   -9.8579 H   0  0  0  0  0  0  0  0  0  0  0  0
    6.6683  -11.4472  -11.7462 H   0  0  0  0  0  0  0  0  0  0  0  0
    9.1534  -11.4359  -12.0870 H   0  0  0  0  0  0  0  0  0  0  0  0
   14.3375  -11.8201  -10.8268 H   0  0  0  0  0  0  0  0  0  0  0  0
   17.2311  -15.7425  -10.6557 H   0  0  0  0  0  0  0  0  0  0  0  0
  1  2  2  0
  2  3  1  0
  3  4  1  0
  4  5  1  0
  5  6  1  0
  6  7  2  0
  7  8  1  0
  8  9  2  0
  9 10  1  0
  9 11  1  0
 11 12  1  0
 12 13  1  0
 13 14  2  0
 13 15  1  0
 15 16  2  0
 16 17  1  0
 17 18  1  0
 18 19  2  0
 18 20  1  0
 20 21  2  0
 21 22  1  0
 22 23  1  0
 23 24  2  0
 23 25  1  0
 25 26  1  0
 26 27  2  0
 27 28  1  0
 28 29  2  0
 29 30  1  0
 29 31  1  0
 31 32  2  0
 32 33  1  0
 33 34  2  0
 34 35  1  0
 33 36  1  0
 36 37  2  0
 37 38  1  0
 38 39  2  0
 39 40  1  0
 38  2  1  0
 10  5  2  0
 19 15  1  0
 24 20  1  0
 30 25  2  0
 35 31  1  0
 40 36  1  0
  3 41  1  0
  4 42  1  0
  4 43  1  0
  6 44  1  0
  7 45  1  0
  8 46  1  0
 10 47  1  0
 11 48  1  0
 11 49  1  0
 12 50  1  0
 16 51  1  0
 21 52  1  0
 26 53  1  0
 27 54  1  0
 28 55  1  0
 34 56  1  0
 39 57  1  0
M  END
>  <meeko>  (6) 
{"is_sidechain": [false], "free_energy": -8.933, "intermolecular_energy": -8.933, "internal_energy": 0.0}

$$$$
LIB_HBSKTOHGBYHMLP__M_PUB_ALL__e8__s20260927
     RDKit          3D

 57 63  0  0  0  0  0  0  0  0999 V2000
    7.5460  -20.5670    0.8640 O   0  0  0  0  0  0  0  0  0  0  0  0
    6.9480  -20.1090    1.8310 C   0  0  0  0  0  0  0  0  0  0  0  0
    5.9580  -19.1610    1.7440 N   0  0  0  0  0  0  0  0  0  0  0  0
    5.5330  -18.6230    0.4820 C   0  0  0  0  0  0  0  0  0  0  0  0
    4.5100  -17.5360    0.6700 C   0  0  0  0  0  0  0  0  0  0  0  0
    4.9160  -16.2250    0.9580 C   0  0  0  0  0  0  0  0  0  0  0  0
    3.9700  -15.2210    1.1610 C   0  0  0  0  0  0  0  0  0  0  0  0
    2.6090  -15.5150    1.0770 C   0  0  0  0  0  0  0  0  0  0  0  0
    2.1810  -16.8190    0.7900 C   0  0  0  0  0  0  0  0  0  0  0  0
    3.1390  -17.8250    0.6030 C   0  0  0  0  0  0  0  0  0  0  0  0
    0.7120  -17.1370    0.7300 C   0  0  0  0  0  0  0  0  0  0  0  0
    0.1790  -17.3810    2.0410 N   0  0  0  0  0  0  0  0  0  0  0  0
   -1.1590  -17.6120    2.2490 C   0  0  0  0  0  0  0  0  0  0  0  0
   -1.9990  -17.6270    1.3550 O   0  0  0  0  0  0  0  0  0  0  0  0
   -1.4850  -17.8380    3.6480 C   0  0  0  0  0  0  0  0  0  0  0  0
   -2.7280  -18.0980    4.1680 C   0  0  0  0  0  0  0  0  0  0  0  0
   -2.6040  -18.2470    5.5150 O   0  0  0  0  0  0  0  0  0  0  0  0
   -1.2600  -18.0700    5.7620 C   0  0  0  0  0  0  0  0  0  0  0  0
   -0.5550  -17.8180    4.6720 N   0  0  0  0  0  0  0  0  0  0  0  0
   -0.6370  -18.1570    7.2060 C   0  0  0  0  0  0  0  0  0  0  0  0
   -1.4060  -18.4150    8.3200 C   0  0  0  0  0  0  0  0  0  0  0  0
   -0.4120  -18.4440    9.7140 S   0  0  0  0  0  0  0  0  0  0  0  0
    0.9740  -18.1170    8.7320 C   0  0  0  0  0  0  0  0  0  0  0  0
    0.7140  -17.9810    7.4450 N   0  0  0  0  0  0  0  0  0  0  0  0
    2.3070  -18.0350    9.3470 C   0  0  0  0  0  0  0  0  0  0  0  0
    2.5610  -17.2700   10.4830 C   0  0  0  0  0  0  0  0  0  0  0  0
    3.8540  -17.2420   10.9970 C   0  0  0  0  0  0  0  0  0  0  0  0
    4.8540  -17.9750   10.3650 C   0  0  0  0  0  0  0  0  0  0  0  0
    4.5260  -18.7180    9.2320 C   0  0  0  0  0  0  0  0  0  0  0  0
    3.2710  -18.7540    8.7230 N   0  0  0  0  0  0  0  0  0  0  0  0
    5.5190  -19.5170    8.4980 C   0  0  0  0  0  0  0  0  0  0  0  0
    5.6880  -19.5130    7.1890 N   0  0  0  0  0  0  0  0  0  0  0  0
    6.6770  -20.4100    6.8290 C   0  0  0  0  0  0  0  0  0  0  0  0
    7.2700  -21.0870    7.8730 C   0  0  0  0  0  0  0  0  0  0  0  0
    6.5670  -20.5940    9.3550 S   0  0  0  0  0  0  0  0  0  0  0  0
    7.1030  -20.6460    5.3320 C   0  0  0  0  0  0  0  0  0  0  0  0
    6.5630  -20.0110    4.3050 N   0  0  0  0  0  0  0  0  0  0  0  0
    7.2200  -20.5190    3.1980 C   0  0  0  0  0  0  0  0  0  0  0  0
    8.1460  -21.4470    3.6090 C   0  0  0  0  0  0  0  0  0  0  0  0
    8.0860  -21.5390    4.9640 O   0  0  0  0  0  0  0  0  0  0  0  0
    5.5200  -18.8600    2.6100 H   0  0  0  0  0  0  0  0  0  0  0  0
    6.4057  -18.2073   -0.0429 H   0  0  0  0  0  0  0  0  0  0  0  0
    5.0762  -19.4330   -0.1055 H   0  0  0  0  0  0  0  0  0  0  0  0
    5.9879  -15.9871    1.0242 H   0  0  0  0  0  0  0  0  0  0  0  0
    4.2974  -14.1956    1.3877 H   0  0  0  0  0  0  0  0  0  0  0  0
    1.8669  -14.7189    1.2369 H   0  0  0  0  0  0  0  0  0  0  0  0
    2.8111  -18.8554    0.4009 H   0  0  0  0  0  0  0  0  0  0  0  0
    0.1791  -16.2871    0.2786 H   0  0  0  0  0  0  0  0  0  0  0  0
    0.5769  -18.0455    0.1247 H   0  0  0  0  0  0  0  0  0  0  0  0
    0.7890  -17.4030    2.8540 H   0  0  0  0  0  0  0  0  0  0  0  0
   -3.6637  -18.1731    3.5946 H   0  0  0  0  0  0  0  0  0  0  0  0
   -2.4939  -18.5777    8.3146 H   0  0  0  0  0  0  0  0  0  0  0  0
    1.7542  -16.6984   10.9651 H   0  0  0  0  0  0  0  0  0  0  0  0
    4.0831  -16.6468   11.8933 H   0  0  0  0  0  0  0  0  0  0  0  0
    5.8836  -17.9682   10.7521 H   0  0  0  0  0  0  0  0  0  0  0  0
    8.0733  -21.8314    7.7699 H   0  0  0  0  0  0  0  0  0  0  0  0
    8.8205  -22.0178    2.9538 H   0  0  0  0  0  0  0  0  0  0  0  0
  1  2  2  0
  2  3  1  0
  3  4  1  0
  4  5  1  0
  5  6  1  0
  6  7  2  0
  7  8  1  0
  8  9  2  0
  9 10  1  0
  9 11  1  0
 11 12  1  0
 12 13  1  0
 13 14  2  0
 13 15  1  0
 15 16  2  0
 16 17  1  0
 17 18  1  0
 18 19  2  0
 18 20  1  0
 20 21  2  0
 21 22  1  0
 22 23  1  0
 23 24  2  0
 23 25  1  0
 25 26  1  0
 26 27  2  0
 27 28  1  0
 28 29  2  0
 29 30  1  0
 29 31  1  0
 31 32  2  0
 32 33  1  0
 33 34  2  0
 34 35  1  0
 33 36  1  0
 36 37  2  0
 37 38  1  0
 38 39  2  0
 39 40  1  0
 38  2  1  0
 10  5  2  0
 19 15  1  0
 24 20  1  0
 30 25  2  0
 35 31  1  0
 40 36  1  0
  3 41  1  0
  4 42  1  0
  4 43  1  0
  6 44  1  0
  7 45  1  0
  8 46  1  0
 10 47  1  0
 11 48  1  0
 11 49  1  0
 12 50  1  0
 16 51  1  0
 21 52  1  0
 26 53  1  0
 27 54  1  0
 28 55  1  0
 34 56  1  0
 39 57  1  0
M  END
>  <meeko>  (7) 
{"is_sidechain": [false], "free_energy": -8.845, "intermolecular_energy": -8.845, "internal_energy": 0.0}

$$$$
LIB_HBSKTOHGBYHMLP__M_PUB_ALL__e8__s20260927
     RDKit          3D

 57 63  0  0  0  0  0  0  0  0999 V2000
    2.5850  -20.8710    2.1450 O   0  0  0  0  0  0  0  0  0  0  0  0
    3.3380  -19.9110    2.0190 C   0  0  0  0  0  0  0  0  0  0  0  0
    4.6960  -19.9700    2.2130 N   0  0  0  0  0  0  0  0  0  0  0  0
    5.3570  -21.1900    2.5830 C   0  0  0  0  0  0  0  0  0  0  0  0
    6.8240  -20.9630    2.8270 C   0  0  0  0  0  0  0  0  0  0  0  0
    7.2680  -20.4850    4.0670 C   0  0  0  0  0  0  0  0  0  0  0  0
    8.6240  -20.2470    4.2890 C   0  0  0  0  0  0  0  0  0  0  0  0
    9.5500  -20.4830    3.2730 C   0  0  0  0  0  0  0  0  0  0  0  0
    9.1290  -20.9610    2.0250 C   0  0  0  0  0  0  0  0  0  0  0  0
    7.7610  -21.1830    1.8070 C   0  0  0  0  0  0  0  0  0  0  0  0
   10.1280  -21.1870    0.9230 C   0  0  0  0  0  0  0  0  0  0  0  0
   10.4150  -19.9650    0.2230 N   0  0  0  0  0  0  0  0  0  0  0  0
   11.3590  -19.9050   -0.7720 C   0  0  0  0  0  0  0  0  0  0  0  0
   12.0290  -20.8630   -1.1410 O   0  0  0  0  0  0  0  0  0  0  0  0
   11.4890  -18.5770   -1.3500 C   0  0  0  0  0  0  0  0  0  0  0  0
   12.3400  -18.2010   -2.3600 C   0  0  0  0  0  0  0  0  0  0  0  0
   12.1510  -16.8770   -2.6060 O   0  0  0  0  0  0  0  0  0  0  0  0
   11.1700  -16.4940   -1.7180 C   0  0  0  0  0  0  0  0  0  0  0  0
   10.7480  -17.4810   -0.9450 N   0  0  0  0  0  0  0  0  0  0  0  0
   10.6140  -15.0230   -1.6390 C   0  0  0  0  0  0  0  0  0  0  0  0
   11.0830  -14.0180   -2.4590 C   0  0  0  0  0  0  0  0  0  0  0  0
   10.2620  -12.5570   -2.1100 S   0  0  0  0  0  0  0  0  0  0  0  0
    9.3360  -13.3680   -0.8960 C   0  0  0  0  0  0  0  0  0  0  0  0
    9.6260  -14.6470   -0.7470 N   0  0  0  0  0  0  0  0  0  0  0  0
    8.3070  -12.6330   -0.1440 C   0  0  0  0  0  0  0  0  0  0  0  0
    8.5520  -11.3970    0.4470 C   0  0  0  0  0  0  0  0  0  0  0  0
    7.5230  -10.7730    1.1460 C   0  0  0  0  0  0  0  0  0  0  0  0
    6.2840  -11.3980    1.2370 C   0  0  0  0  0  0  0  0  0  0  0  0
    6.1110  -12.6360    0.6200 C   0  0  0  0  0  0  0  0  0  0  0  0
    7.1040  -13.2530   -0.0640 N   0  0  0  0  0  0  0  0  0  0  0  0
    4.8380  -13.3710    0.6700 C   0  0  0  0  0  0  0  0  0  0  0  0
    4.7050  -14.6510    0.9660 N   0  0  0  0  0  0  0  0  0  0  0  0
    3.3770  -15.0280    0.8790 C   0  0  0  0  0  0  0  0  0  0  0  0
    2.4990  -14.0260    0.5290 C   0  0  0  0  0  0  0  0  0  0  0  0
    3.3570  -12.5620    0.2930 S   0  0  0  0  0  0  0  0  0  0  0  0
    2.8950  -16.5000    1.1610 C   0  0  0  0  0  0  0  0  0  0  0  0
    3.7050  -17.4860    1.5060 N   0  0  0  0  0  0  0  0  0  0  0  0
    2.8760  -18.5850    1.6480 C   0  0  0  0  0  0  0  0  0  0  0  0
    1.5810  -18.2090    1.3840 C   0  0  0  0  0  0  0  0  0  0  0  0
    1.5750  -16.8850    1.0740 O   0  0  0  0  0  0  0  0  0  0  0  0
    5.2270  -19.1150    2.0690 H   0  0  0  0  0  0  0  0  0  0  0  0
    4.8972  -21.5825    3.5020 H   0  0  0  0  0  0  0  0  0  0  0  0
    5.2489  -21.9084    1.7571 H   0  0  0  0  0  0  0  0  0  0  0  0
    6.5417  -20.2961    4.8712 H   0  0  0  0  0  0  0  0  0  0  0  0
    8.9636  -19.8729    5.2661 H   0  0  0  0  0  0  0  0  0  0  0  0
   10.6184  -20.2925    3.4528 H   0  0  0  0  0  0  0  0  0  0  0  0
    7.4186  -21.5345    0.8225 H   0  0  0  0  0  0  0  0  0  0  0  0
   11.0594  -21.5787    1.3578 H   0  0  0  0  0  0  0  0  0  0  0  0
    9.7013  -21.9060    0.2081 H   0  0  0  0  0  0  0  0  0  0  0  0
    9.9080  -19.1110    0.4400 H   0  0  0  0  0  0  0  0  0  0  0  0
   13.0523  -18.8580   -2.8807 H   0  0  0  0  0  0  0  0  0  0  0  0
   11.8663  -14.1373   -3.2220 H   0  0  0  0  0  0  0  0  0  0  0  0
    9.5407  -10.9221    0.3632 H   0  0  0  0  0  0  0  0  0  0  0  0
    7.6881   -9.7951    1.6218 H   0  0  0  0  0  0  0  0  0  0  0  0
    5.4563  -10.9245    1.7854 H   0  0  0  0  0  0  0  0  0  0  0  0
    1.4114  -14.1474    0.4178 H   0  0  0  0  0  0  0  0  0  0  0  0
    0.6998  -18.8666    1.4177 H   0  0  0  0  0  0  0  0  0  0  0  0
  1  2  2  0
  2  3  1  0
  3  4  1  0
  4  5  1  0
  5  6  1  0
  6  7  2  0
  7  8  1  0
  8  9  2  0
  9 10  1  0
  9 11  1  0
 11 12  1  0
 12 13  1  0
 13 14  2  0
 13 15  1  0
 15 16  2  0
 16 17  1  0
 17 18  1  0
 18 19  2  0
 18 20  1  0
 20 21  2  0
 21 22  1  0
 22 23  1  0
 23 24  2  0
 23 25  1  0
 25 26  1  0
 26 27  2  0
 27 28  1  0
 28 29  2  0
 29 30  1  0
 29 31  1  0
 31 32  2  0
 32 33  1  0
 33 34  2  0
 34 35  1  0
 33 36  1  0
 36 37  2  0
 37 38  1  0
 38 39  2  0
 39 40  1  0
 38  2  1  0
 10  5  2  0
 19 15  1  0
 24 20  1  0
 30 25  2  0
 35 31  1  0
 40 36  1  0
  3 41  1  0
  4 42  1  0
  4 43  1  0
  6 44  1  0
  7 45  1  0
  8 46  1  0
 10 47  1  0
 11 48  1  0
 11 49  1  0
 12 50  1  0
 16 51  1  0
 21 52  1  0
 26 53  1  0
 27 54  1  0
 28 55  1  0
 34 56  1  0
 39 57  1  0
M  END
>  <meeko>  (8) 
{"is_sidechain": [false], "free_energy": -8.761, "intermolecular_energy": -8.761, "internal_energy": 0.0}

$$$$
LIB_HBSKTOHGBYHMLP__M_PUB_ALL__e8__s20260927
     RDKit          3D

 57 63  0  0  0  0  0  0  0  0999 V2000
    7.2090  -14.8440    0.6180 O   0  0  0  0  0  0  0  0  0  0  0  0
    5.9900  -14.9560    0.6940 C   0  0  0  0  0  0  0  0  0  0  0  0
    5.3410  -16.1510    0.8830 N   0  0  0  0  0  0  0  0  0  0  0  0
    6.0540  -17.3900    1.0130 C   0  0  0  0  0  0  0  0  0  0  0  0
    5.1080  -18.5560    1.1120 C   0  0  0  0  0  0  0  0  0  0  0  0
    4.5650  -19.1260   -0.0480 C   0  0  0  0  0  0  0  0  0  0  0  0
    3.6670  -20.1890    0.0400 C   0  0  0  0  0  0  0  0  0  0  0  0
    3.3010  -20.6930    1.2880 C   0  0  0  0  0  0  0  0  0  0  0  0
    3.8310  -20.1380    2.4620 C   0  0  0  0  0  0  0  0  0  0  0  0
    4.7220  -19.0600    2.3630 C   0  0  0  0  0  0  0  0  0  0  0  0
    3.4110  -20.6650    3.8060 C   0  0  0  0  0  0  0  0  0  0  0  0
    2.1710  -20.0760    4.2310 N   0  0  0  0  0  0  0  0  0  0  0  0
    1.5460  -20.4620    5.3920 C   0  0  0  0  0  0  0  0  0  0  0  0
    1.9760  -21.3260    6.1480 O   0  0  0  0  0  0  0  0  0  0  0  0
    0.3080  -19.7390    5.6360 C   0  0  0  0  0  0  0  0  0  0  0  0
   -0.5360  -19.8950    6.7070 C   0  0  0  0  0  0  0  0  0  0  0  0
   -1.5770  -19.0320    6.5590 O   0  0  0  0  0  0  0  0  0  0  0  0
   -1.3150  -18.3700    5.3800 C   0  0  0  0  0  0  0  0  0  0  0  0
   -0.1980  -18.7660    4.7920 N   0  0  0  0  0  0  0  0  0  0  0  0
   -2.2620  -17.2550    4.7960 C   0  0  0  0  0  0  0  0  0  0  0  0
   -3.4230  -16.8730    5.4350 C   0  0  0  0  0  0  0  0  0  0  0  0
   -4.2010  -15.6430    4.5330 S   0  0  0  0  0  0  0  0  0  0  0  0
   -2.9330  -15.7030    3.3590 C   0  0  0  0  0  0  0  0  0  0  0  0
   -1.9910  -16.5920    3.6130 N   0  0  0  0  0  0  0  0  0  0  0  0
   -2.9550  -14.7890    2.2070 C   0  0  0  0  0  0  0  0  0  0  0  0
   -4.0850  -14.6120    1.4130 C   0  0  0  0  0  0  0  0  0  0  0  0
   -4.0180  -13.7310    0.3380 C   0  0  0  0  0  0  0  0  0  0  0  0
   -2.8280  -13.0550    0.0850 C   0  0  0  0  0  0  0  0  0  0  0  0
   -1.7370  -13.2810    0.9210 C   0  0  0  0  0  0  0  0  0  0  0  0
   -1.7900  -14.1350    1.9720 N   0  0  0  0  0  0  0  0  0  0  0  0
   -0.4410  -12.6160    0.7250 C   0  0  0  0  0  0  0  0  0  0  0  0
    0.7360  -13.2150    0.7310 N   0  0  0  0  0  0  0  0  0  0  0  0
    1.7480  -12.2880    0.5590 C   0  0  0  0  0  0  0  0  0  0  0  0
    1.3340  -10.9820    0.4080 C   0  0  0  0  0  0  0  0  0  0  0  0
   -0.3750  -10.9040    0.4900 S   0  0  0  0  0  0  0  0  0  0  0  0
    3.2700  -12.6900    0.5340 C   0  0  0  0  0  0  0  0  0  0  0  0
    3.7050  -13.9310    0.6690 N   0  0  0  0  0  0  0  0  0  0  0  0
    5.0820  -13.8270    0.5920 C   0  0  0  0  0  0  0  0  0  0  0  0
    5.4260  -12.5100    0.4060 C   0  0  0  0  0  0  0  0  0  0  0  0
    4.2840  -11.7720    0.3660 O   0  0  0  0  0  0  0  0  0  0  0  0
    4.3260  -16.1280    0.9440 H   0  0  0  0  0  0  0  0  0  0  0  0
    6.6999  -17.5260    0.1330 H   0  0  0  0  0  0  0  0  0  0  0  0
    6.6548  -17.3505    1.9336 H   0  0  0  0  0  0  0  0  0  0  0  0
    4.8494  -18.7318   -1.0348 H   0  0  0  0  0  0  0  0  0  0  0  0
    3.2468  -20.6306   -0.8757 H   0  0  0  0  0  0  0  0  0  0  0  0
    2.5919  -21.5315    1.3519 H   0  0  0  0  0  0  0  0  0  0  0  0
    5.1241  -18.6030    3.2792 H   0  0  0  0  0  0  0  0  0  0  0  0
    3.2862  -21.7559    3.7406 H   0  0  0  0  0  0  0  0  0  0  0  0
    4.1887  -20.4068    4.5398 H   0  0  0  0  0  0  0  0  0  0  0  0
    1.7320  -19.3400    3.6850 H   0  0  0  0  0  0  0  0  0  0  0  0
   -0.3949  -20.5973    7.5417 H   0  0  0  0  0  0  0  0  0  0  0  0
   -3.7932  -17.2948    6.3811 H   0  0  0  0  0  0  0  0  0  0  0  0
   -5.0141  -15.1588    1.6316 H   0  0  0  0  0  0  0  0  0  0  0  0
   -4.8960  -13.5706   -0.3049 H   0  0  0  0  0  0  0  0  0  0  0  0
   -2.7505  -12.3549   -0.7599 H   0  0  0  0  0  0  0  0  0  0  0  0
    2.0006  -10.1200    0.2575 H   0  0  0  0  0  0  0  0  0  0  0  0
    6.4494  -12.1193    0.3065 H   0  0  0  0  0  0  0  0  0  0  0  0
  1  2  2  0
  2  3  1  0
  3  4  1  0
  4  5  1  0
  5  6  1  0
  6  7  2  0
  7  8  1  0
  8  9  2  0
  9 10  1  0
  9 11  1  0
 11 12  1  0
 12 13  1  0
 13 14  2  0
 13 15  1  0
 15 16  2  0
 16 17  1  0
 17 18  1  0
 18 19  2  0
 18 20  1  0
 20 21  2  0
 21 22  1  0
 22 23  1  0
 23 24  2  0
 23 25  1  0
 25 26  1  0
 26 27  2  0
 27 28  1  0
 28 29  2  0
 29 30  1  0
 29 31  1  0
 31 32  2  0
 32 33  1  0
 33 34  2  0
 34 35  1  0
 33 36  1  0
 36 37  2  0
 37 38  1  0
 38 39  2  0
 39 40  1  0
 38  2  1  0
 10  5  2  0
 19 15  1  0
 24 20  1  0
 30 25  2  0
 35 31  1  0
 40 36  1  0
  3 41  1  0
  4 42  1  0
  4 43  1  0
  6 44  1  0
  7 45  1  0
  8 46  1  0
 10 47  1  0
 11 48  1  0
 11 49  1  0
 12 50  1  0
 16 51  1  0
 21 52  1  0
 26 53  1  0
 27 54  1  0
 28 55  1  0
 34 56  1  0
 39 57  1  0
M  END
>  <meeko>  (9) 
{"is_sidechain": [false], "free_energy": -8.752, "intermolecular_energy": -8.752, "internal_energy": 0.0}

$$$$
