LIB_UAJLGPWMTHKWBD__M_PUB_ALL__e8__s20260927
     RDKit          3D

 64 67  0  0  0  0  0  0  0  0999 V2000
    0.7580  -12.2730   -0.3850 C   0  0  0  0  0  0  0  0  0  0  0  0
    1.6800  -13.1490   -1.2430 C   0  0  2  0  0  0  0  0  0  0  0  0
    2.5160  -12.2440   -2.1620 C   0  0  0  0  0  0  0  0  0  0  0  0
    3.4880  -13.0390   -3.0310 C   0  0  0  0  0  0  0  0  0  0  0  0
    3.0840  -14.5030   -3.1660 C   0  0  0  0  0  0  0  0  0  0  0  0
    1.5620  -14.7060   -3.1860 C   0  0  2  0  0  0  0  0  0  0  0  0
    0.9340  -14.1260   -4.4600 C   0  0  0  0  0  0  0  0  0  0  0  0
    0.8800  -14.1210   -2.0100 N   0  0  0  0  0  0  0  0  0  0  0  0
    0.3980  -15.2160   -1.0810 N   0  0  0  0  0  0  0  0  0  0  0  0
   -0.8970  -15.5770   -1.1890 C   0  0  0  0  0  0  0  0  0  0  0  0
   -1.4850  -16.0100   -2.1800 O   0  0  0  0  0  0  0  0  0  0  0  0
   -1.6890  -15.4360    0.0920 C   0  0  0  0  0  0  0  0  0  0  0  0
   -2.3210  -14.2270    0.4240 C   0  0  0  0  0  0  0  0  0  0  0  0
   -3.0640  -14.1070    1.6000 C   0  0  0  0  0  0  0  0  0  0  0  0
   -3.1960  -15.1910    2.4760 C   0  0  0  0  0  0  0  0  0  0  0  0
   -4.1530  -14.9040    3.8880 Cl  0  0  0  0  0  0  0  0  0  0  0  0
   -2.5660  -16.4010    2.1630 C   0  0  0  0  0  0  0  0  0  0  0  0
   -2.7220  -17.8440    3.2870 S   0  0  0  0  0  0  0  0  0  0  0  0
   -4.1640  -17.8260    3.5340 O   0  0  0  0  0  0  0  0  0  0  0  0
   -2.2640  -18.9470    2.4420 O   0  0  0  0  0  0  0  0  0  0  0  0
   -1.7710  -17.5100    4.5200 N   0  0  0  0  0  0  0  0  0  0  0  0
   -0.5070  -17.9370    4.4860 C   0  0  0  0  0  0  0  0  0  0  0  0
   -0.0510  -19.0200    4.8520 O   0  0  0  0  0  0  0  0  0  0  0  0
    0.4740  -16.9460    3.8950 C   0  0  0  0  0  0  0  0  0  0  0  0
    0.6700  -15.6650    4.4290 C   0  0  0  0  0  0  0  0  0  0  0  0
    1.5940  -14.7850    3.8500 C   0  0  0  0  0  0  0  0  0  0  0  0
    2.3490  -15.1580    2.7260 C   0  0  0  0  0  0  0  0  0  0  0  0
    3.2830  -14.2810    2.1390 C   0  0  0  0  0  0  0  0  0  0  0  0
    4.0460  -14.6480    1.0130 C   0  0  0  0  0  0  0  0  0  0  0  0
    5.0300  -13.6460    0.4390 C   0  0  0  0  0  0  0  0  0  0  0  0
    4.4890  -12.3910    0.3050 F   0  0  0  0  0  0  0  0  0  0  0  0
    5.4690  -13.9950   -0.8140 F   0  0  0  0  0  0  0  0  0  0  0  0
    6.7470  -13.2380    1.3580 P   0  0  0  0  0  0  0  0  0  0  0  0
    6.6630  -11.7470    1.7200 O   0  0  0  0  0  0  0  0  0  0  0  0
    6.8060  -14.1600    2.5860 O   0  0  0  0  0  0  0  0  0  0  0  0
    7.8380  -13.5370    0.3190 O   0  0  0  0  0  0  0  0  0  0  0  0
    3.8580  -15.9230    0.4780 C   0  0  0  0  0  0  0  0  0  0  0  0
    2.9320  -16.8080    1.0510 C   0  0  0  0  0  0  0  0  0  0  0  0
    2.1680  -16.4440    2.1760 C   0  0  0  0  0  0  0  0  0  0  0  0
    1.2310  -17.3210    2.7700 C   0  0  0  0  0  0  0  0  0  0  0  0
   -1.8190  -16.5260    0.9720 C   0  0  0  0  0  0  0  0  0  0  0  0
    0.9581  -12.4631    0.6798 H   0  0  0  0  0  0  0  0  0  0  0  0
    0.9460  -11.2128   -0.6098 H   0  0  0  0  0  0  0  0  0  0  0  0
   -0.2912  -12.5150   -0.6098 H   0  0  0  0  0  0  0  0  0  0  0  0
    2.3669  -13.7221   -0.6029 H   0  0  0  0  0  0  0  0  0  0  0  0
    1.8356  -11.6803   -2.8173 H   0  0  0  0  0  0  0  0  0  0  0  0
    3.1082  -11.5718   -1.5237 H   0  0  0  0  0  0  0  0  0  0  0  0
    3.5167  -12.5867   -4.0333 H   0  0  0  0  0  0  0  0  0  0  0  0
    4.4746  -13.0070   -2.5456 H   0  0  0  0  0  0  0  0  0  0  0  0
    3.5026  -14.8971   -4.1038 H   0  0  0  0  0  0  0  0  0  0  0  0
    3.4754  -15.0348   -2.2862 H   0  0  0  0  0  0  0  0  0  0  0  0
    1.4164  -15.7960   -3.1586 H   0  0  0  0  0  0  0  0  0  0  0  0
    0.1513  -13.4031   -4.1866 H   0  0  0  0  0  0  0  0  0  0  0  0
    1.7096  -13.6197   -5.0534 H   0  0  0  0  0  0  0  0  0  0  0  0
    0.4909  -14.9393   -5.0534 H   0  0  0  0  0  0  0  0  0  0  0  0
   -2.2296  -13.3633   -0.2510 H   0  0  0  0  0  0  0  0  0  0  0  0
   -3.5509  -13.1505    1.8408 H   0  0  0  0  0  0  0  0  0  0  0  0
    0.0934  -15.3477    5.3104 H   0  0  0  0  0  0  0  0  0  0  0  0
    1.7306  -13.7834    4.2839 H   0  0  0  0  0  0  0  0  0  0  0  0
    3.4204  -13.2797    2.5731 H   0  0  0  0  0  0  0  0  0  0  0  0
    4.4407  -16.2370   -0.4005 H   0  0  0  0  0  0  0  0  0  0  0  0
    2.8002  -17.8078    0.6116 H   0  0  0  0  0  0  0  0  0  0  0  0
    1.0902  -18.3239    2.3406 H   0  0  0  0  0  0  0  0  0  0  0  0
   -1.3345  -17.4834    0.7299 H   0  0  0  0  0  0  0  0  0  0  0  0
  1  2  1  0
  2  3  1  0
  3  4  1  0
  4  5  1  0
  5  6  1  0
  6  7  1  0
  6  8  1  0
  8  9  1  0
  9 10  1  0
 10 11  2  0
 10 12  1  0
 12 13  2  0
 13 14  1  0
 14 15  2  0
 15 16  1  0
 15 17  1  0
 17 18  1  0
 18 19  2  0
 18 20  2  0
 18 21  1  0
 21 22  1  0
 22 23  2  0
 22 24  1  0
 24 25  2  0
 25 26  1  0
 26 27  2  0
 27 28  1  0
 28 29  2  0
 29 30  1  0
 30 31  1  0
 30 32  1  0
 30 33  1  0
 33 34  2  0
 33 35  1  0
 33 36  1  0
 29 37  1  0
 37 38  2  0
 38 39  1  0
 39 40  2  0
 17 41  2  0
  8  2  1  0
 41 12  1  0
 40 24  1  0
 39 27  1  0
  1 42  1  0
  1 43  1  0
  1 44  1  0
  2 45  1  1
  3 46  1  0
  3 47  1  0
  4 48  1  0
  4 49  1  0
  5 50  1  0
  5 51  1  0
  6 52  1  6
  7 53  1  0
  7 54  1  0
  7 55  1  0
 13 56  1  0
 14 57  1  0
 25 58  1  0
 26 59  1  0
 28 60  1  0
 37 61  1  0
 38 62  1  0
 40 63  1  0
 41 64  1  0
M  CHG  4   9  -1  21  -1  35  -1  36  -1
M  END
>  <meeko>  (1) 
{"is_sidechain": [false], "free_energy": -8.039, "intermolecular_energy": -12.269, "internal_energy": -3.631}

$$$$
LIB_UAJLGPWMTHKWBD__M_PUB_ALL__e8__s20260927
     RDKit          3D

 64 67  0  0  0  0  0  0  0  0999 V2000
    6.4920  -15.1130    0.5270 C   0  0  0  0  0  0  0  0  0  0  0  0
    6.5990  -13.6160    0.8490 C   0  0  2  0  0  0  0  0  0  0  0  0
    5.1840  -13.0360    1.0030 C   0  0  0  0  0  0  0  0  0  0  0  0
    5.2010  -11.5520    1.3580 C   0  0  0  0  0  0  0  0  0  0  0  0
    6.5220  -10.8820    0.9970 C   0  0  0  0  0  0  0  0  0  0  0  0
    7.1610  -11.4620   -0.2740 C   0  0  2  0  0  0  0  0  0  0  0  0
    6.3320  -11.1310   -1.5220 C   0  0  0  0  0  0  0  0  0  0  0  0
    7.3610  -12.9270   -0.2100 N   0  0  0  0  0  0  0  0  0  0  0  0
    8.8320  -13.2540   -0.0580 N   0  0  0  0  0  0  0  0  0  0  0  0
    9.5620  -13.3010   -1.1910 C   0  0  0  0  0  0  0  0  0  0  0  0
   10.5300  -12.6070   -1.5020 O   0  0  0  0  0  0  0  0  0  0  0  0
    9.1160  -14.3630   -2.1720 C   0  0  0  0  0  0  0  0  0  0  0  0
    9.5150  -15.7010   -2.0210 C   0  0  0  0  0  0  0  0  0  0  0  0
    9.0870  -16.6810   -2.9200 C   0  0  0  0  0  0  0  0  0  0  0  0
    8.2510  -16.3500   -3.9930 C   0  0  0  0  0  0  0  0  0  0  0  0
    7.7910  -17.6650   -5.0190 Cl  0  0  0  0  0  0  0  0  0  0  0  0
    7.8500  -15.0200   -4.1610 C   0  0  0  0  0  0  0  0  0  0  0  0
    6.7500  -14.5530   -5.5540 S   0  0  0  0  0  0  0  0  0  0  0  0
    7.6580  -14.7620   -6.6820 O   0  0  0  0  0  0  0  0  0  0  0  0
    5.6760  -15.5400   -5.4470 O   0  0  0  0  0  0  0  0  0  0  0  0
    6.3110  -13.0530   -5.2470 N   0  0  0  0  0  0  0  0  0  0  0  0
    5.1620  -12.6070   -5.7600 C   0  0  0  0  0  0  0  0  0  0  0  0
    4.7910  -12.6110   -6.9330 O   0  0  0  0  0  0  0  0  0  0  0  0
    4.1970  -12.0430   -4.7390 C   0  0  0  0  0  0  0  0  0  0  0  0
    3.6360  -10.7630   -4.8530 C   0  0  0  0  0  0  0  0  0  0  0  0
    2.7410  -10.2870   -3.8840 C   0  0  0  0  0  0  0  0  0  0  0  0
    2.3810  -11.0740   -2.7780 C   0  0  0  0  0  0  0  0  0  0  0  0
    1.4800  -10.6060   -1.8010 C   0  0  0  0  0  0  0  0  0  0  0  0
    1.1110  -11.3890   -0.6890 C   0  0  0  0  0  0  0  0  0  0  0  0
    0.1360  -10.8110    0.3200 C   0  0  0  0  0  0  0  0  0  0  0  0
   -0.7810   -9.9660   -0.2540 F   0  0  0  0  0  0  0  0  0  0  0  0
    0.7610  -10.0710    1.2940 F   0  0  0  0  0  0  0  0  0  0  0  0
   -1.0400  -11.9860    1.4120 P   0  0  0  0  0  0  0  0  0  0  0  0
   -0.0930  -12.7220    2.3710 O   0  0  0  0  0  0  0  0  0  0  0  0
   -2.0290  -11.0540    2.1300 O   0  0  0  0  0  0  0  0  0  0  0  0
   -1.7140  -12.9270    0.4020 O   0  0  0  0  0  0  0  0  0  0  0  0
    1.6640  -12.6640   -0.5710 C   0  0  0  0  0  0  0  0  0  0  0  0
    2.5620  -13.1460   -1.5360 C   0  0  0  0  0  0  0  0  0  0  0  0
    2.9330  -12.3650   -2.6470 C   0  0  0  0  0  0  0  0  0  0  0  0
    3.8340  -12.8310   -3.6310 C   0  0  0  0  0  0  0  0  0  0  0  0
    8.2770  -14.0290   -3.2500 C   0  0  0  0  0  0  0  0  0  0  0  0
    6.4509  -15.6876    1.4641 H   0  0  0  0  0  0  0  0  0  0  0  0
    5.5783  -15.2981   -0.0569 H   0  0  0  0  0  0  0  0  0  0  0  0
    7.3701  -15.4261   -0.0569 H   0  0  0  0  0  0  0  0  0  0  0  0
    7.1406  -13.4664    1.7946 H   0  0  0  0  0  0  0  0  0  0  0  0
    4.6432  -13.1664    0.0540 H   0  0  0  0  0  0  0  0  0  0  0  0
    4.6884  -13.5727    1.8254 H   0  0  0  0  0  0  0  0  0  0  0  0
    4.3893  -11.0491    0.8120 H   0  0  0  0  0  0  0  0  0  0  0  0
    5.0687  -11.4665    2.4467 H   0  0  0  0  0  0  0  0  0  0  0  0
    6.3392   -9.8088    0.8392 H   0  0  0  0  0  0  0  0  0  0  0  0
    7.2201  -11.0615    1.8279 H   0  0  0  0  0  0  0  0  0  0  0  0
    8.1496  -10.9845   -0.3429 H   0  0  0  0  0  0  0  0  0  0  0  0
    5.3505  -10.7391   -1.2169 H   0  0  0  0  0  0  0  0  0  0  0  0
    6.8586  -10.3742   -2.1219 H   0  0  0  0  0  0  0  0  0  0  0  0
    6.1925  -12.0424   -2.1219 H   0  0  0  0  0  0  0  0  0  0  0  0
   10.1725  -15.9808   -1.1847 H   0  0  0  0  0  0  0  0  0  0  0  0
    9.4103  -17.7235   -2.7833 H   0  0  0  0  0  0  0  0  0  0  0  0
    3.9003  -10.1265   -5.7103 H   0  0  0  0  0  0  0  0  0  0  0  0
    2.3134   -9.2793   -3.9921 H   0  0  0  0  0  0  0  0  0  0  0  0
    1.0516   -9.5987   -1.9096 H   0  0  0  0  0  0  0  0  0  0  0  0
    1.3938  -13.2978    0.2865 H   0  0  0  0  0  0  0  0  0  0  0  0
    2.9847  -14.1551   -1.4218 H   0  0  0  0  0  0  0  0  0  0  0  0
    4.2638  -13.8383   -3.5279 H   0  0  0  0  0  0  0  0  0  0  0  0
    7.9506  -12.9872   -3.3847 H   0  0  0  0  0  0  0  0  0  0  0  0
  1  2  1  0
  2  3  1  0
  3  4  1  0
  4  5  1  0
  5  6  1  0
  6  7  1  0
  6  8  1  0
  8  9  1  0
  9 10  1  0
 10 11  2  0
 10 12  1  0
 12 13  2  0
 13 14  1  0
 14 15  2  0
 15 16  1  0
 15 17  1  0
 17 18  1  0
 18 19  2  0
 18 20  2  0
 18 21  1  0
 21 22  1  0
 22 23  2  0
 22 24  1  0
 24 25  2  0
 25 26  1  0
 26 27  2  0
 27 28  1  0
 28 29  2  0
 29 30  1  0
 30 31  1  0
 30 32  1  0
 30 33  1  0
 33 34  2  0
 33 35  1  0
 33 36  1  0
 29 37  1  0
 37 38  2  0
 38 39  1  0
 39 40  2  0
 17 41  2  0
  8  2  1  0
 41 12  1  0
 40 24  1  0
 39 27  1  0
  1 42  1  0
  1 43  1  0
  1 44  1  0
  2 45  1  1
  3 46  1  0
  3 47  1  0
  4 48  1  0
  4 49  1  0
  5 50  1  0
  5 51  1  0
  6 52  1  6
  7 53  1  0
  7 54  1  0
  7 55  1  0
 13 56  1  0
 14 57  1  0
 25 58  1  0
 26 59  1  0
 28 60  1  0
 37 61  1  0
 38 62  1  0
 40 63  1  0
 41 64  1  0
M  CHG  4   9  -1  21  -1  35  -1  36  -1
M  END
>  <meeko>  (2) 
{"is_sidechain": [false], "free_energy": -7.768, "intermolecular_energy": -12.409, "internal_energy": -3.077}

$$$$
LIB_UAJLGPWMTHKWBD__M_PUB_ALL__e8__s20260927
     RDKit          3D

 64 67  0  0  0  0  0  0  0  0999 V2000
    4.0030  -14.8970    0.0700 C   0  0  0  0  0  0  0  0  0  0  0  0
    3.2590  -16.2240    0.2800 C   0  0  2  0  0  0  0  0  0  0  0  0
    2.9320  -16.3810    1.7730 C   0  0  0  0  0  0  0  0  0  0  0  0
    2.1610  -17.6660    2.0650 C   0  0  0  0  0  0  0  0  0  0  0  0
    2.3200  -18.7050    0.9610 C   0  0  0  0  0  0  0  0  0  0  0  0
    3.7090  -18.6750    0.3070 C   0  0  2  0  0  0  0  0  0  0  0  0
    4.8000  -19.1370    1.2820 C   0  0  0  0  0  0  0  0  0  0  0  0
    4.0760  -17.3440   -0.2240 N   0  0  0  0  0  0  0  0  0  0  0  0
    4.0370  -17.3490   -1.7380 N   0  0  0  0  0  0  0  0  0  0  0  0
    5.2220  -17.4500   -2.3740 C   0  0  0  0  0  0  0  0  0  0  0  0
    6.1050  -18.2910   -2.2080 O   0  0  0  0  0  0  0  0  0  0  0  0
    5.4500  -16.3910   -3.4300 C   0  0  0  0  0  0  0  0  0  0  0  0
    5.6670  -16.7410   -4.7720 C   0  0  0  0  0  0  0  0  0  0  0  0
    5.8610  -15.7580   -5.7460 C   0  0  0  0  0  0  0  0  0  0  0  0
    5.8450  -14.4010   -5.4050 C   0  0  0  0  0  0  0  0  0  0  0  0
    6.0880  -13.2950   -6.7120 Cl  0  0  0  0  0  0  0  0  0  0  0  0
    5.6370  -14.0350   -4.0700 C   0  0  0  0  0  0  0  0  0  0  0  0
    5.6050  -12.2650   -3.5880 S   0  0  0  0  0  0  0  0  0  0  0  0
    5.4690  -12.3930   -2.1370 O   0  0  0  0  0  0  0  0  0  0  0  0
    6.9170  -11.7970   -4.0360 O   0  0  0  0  0  0  0  0  0  0  0  0
    4.3700  -11.6450   -4.3790 N   0  0  0  0  0  0  0  0  0  0  0  0
    3.3120  -11.2220   -3.6820 C   0  0  0  0  0  0  0  0  0  0  0  0
    2.9530  -10.0680   -3.4530 O   0  0  0  0  0  0  0  0  0  0  0  0
    2.4440  -12.3320   -3.1270 C   0  0  0  0  0  0  0  0  0  0  0  0
    2.0990  -13.4680   -3.8720 C   0  0  0  0  0  0  0  0  0  0  0  0
    1.2980  -14.4730   -3.3130 C   0  0  0  0  0  0  0  0  0  0  0  0
    0.8200  -14.3730   -1.9960 C   0  0  0  0  0  0  0  0  0  0  0  0
    0.0160  -15.3780   -1.4230 C   0  0  0  0  0  0  0  0  0  0  0  0
   -0.4660  -15.2880   -0.1020 C   0  0  0  0  0  0  0  0  0  0  0  0
   -1.3270  -16.4130    0.4410 C   0  0  0  0  0  0  0  0  0  0  0  0
   -0.6580  -17.6110    0.4960 F   0  0  0  0  0  0  0  0  0  0  0  0
   -2.4390  -16.6460   -0.3310 F   0  0  0  0  0  0  0  0  0  0  0  0
   -2.1220  -16.3220    2.2610 P   0  0  0  0  0  0  0  0  0  0  0  0
   -0.9260  -16.1960    3.2160 O   0  0  0  0  0  0  0  0  0  0  0  0
   -3.0380  -15.0880    2.2680 O   0  0  0  0  0  0  0  0  0  0  0  0
   -2.8830  -17.6450    2.4330 O   0  0  0  0  0  0  0  0  0  0  0  0
   -0.1250  -14.1600    0.6460 C   0  0  0  0  0  0  0  0  0  0  0  0
    0.6750  -13.1500    0.0900 C   0  0  0  0  0  0  0  0  0  0  0  0
    1.1580  -13.2380   -1.2290 C   0  0  0  0  0  0  0  0  0  0  0  0
    1.9660  -12.2330   -1.8080 C   0  0  0  0  0  0  0  0  0  0  0  0
    5.4350  -15.0270   -3.0850 C   0  0  0  0  0  0  0  0  0  0  0  0
    4.2500  -14.4565    1.0472 H   0  0  0  0  0  0  0  0  0  0  0  0
    4.9294  -15.0813   -0.4938 H   0  0  0  0  0  0  0  0  0  0  0  0
    3.3625  -14.2028   -0.4938 H   0  0  0  0  0  0  0  0  0  0  0  0
    2.3148  -16.2270   -0.2843 H   0  0  0  0  0  0  0  0  0  0  0  0
    3.8735  -16.3963    2.3417 H   0  0  0  0  0  0  0  0  0  0  0  0
    2.2974  -15.5329    2.0696 H   0  0  0  0  0  0  0  0  0  0  0  0
    2.5321  -18.0936    3.0081 H   0  0  0  0  0  0  0  0  0  0  0  0
    1.0937  -17.4082    2.1305 H   0  0  0  0  0  0  0  0  0  0  0  0
    2.1569  -19.7035    1.3927 H   0  0  0  0  0  0  0  0  0  0  0  0
    1.5822  -18.4712    0.1793 H   0  0  0  0  0  0  0  0  0  0  0  0
    3.6432  -19.3735   -0.5402 H   0  0  0  0  0  0  0  0  0  0  0  0
    4.4539  -18.9904    2.3158 H   0  0  0  0  0  0  0  0  0  0  0  0
    5.0139  -20.2029    1.1146 H   0  0  0  0  0  0  0  0  0  0  0  0
    5.7144  -18.5488    1.1146 H   0  0  0  0  0  0  0  0  0  0  0  0
    5.6845  -17.8024   -5.0605 H   0  0  0  0  0  0  0  0  0  0  0  0
    6.0281  -16.0541   -6.7921 H   0  0  0  0  0  0  0  0  0  0  0  0
    2.4605  -13.5718   -4.9057 H   0  0  0  0  0  0  0  0  0  0  0  0
    1.0391  -15.3557   -3.9162 H   0  0  0  0  0  0  0  0  0  0  0  0
   -0.2436  -16.2607   -2.0258 H   0  0  0  0  0  0  0  0  0  0  0  0
   -0.4865  -14.0619    1.6803 H   0  0  0  0  0  0  0  0  0  0  0  0
    0.9303  -12.2700    0.6986 H   0  0  0  0  0  0  0  0  0  0  0  0
    2.2285  -11.3480   -1.2097 H   0  0  0  0  0  0  0  0  0  0  0  0
    5.2645  -14.7307   -2.0395 H   0  0  0  0  0  0  0  0  0  0  0  0
  1  2  1  0
  2  3  1  0
  3  4  1  0
  4  5  1  0
  5  6  1  0
  6  7  1  0
  6  8  1  0
  8  9  1  0
  9 10  1  0
 10 11  2  0
 10 12  1  0
 12 13  2  0
 13 14  1  0
 14 15  2  0
 15 16  1  0
 15 17  1  0
 17 18  1  0
 18 19  2  0
 18 20  2  0
 18 21  1  0
 21 22  1  0
 22 23  2  0
 22 24  1  0
 24 25  2  0
 25 26  1  0
 26 27  2  0
 27 28  1  0
 28 29  2  0
 29 30  1  0
 30 31  1  0
 30 32  1  0
 30 33  1  0
 33 34  2  0
 33 35  1  0
 33 36  1  0
 29 37  1  0
 37 38  2  0
 38 39  1  0
 39 40  2  0
 17 41  2  0
  8  2  1  0
 41 12  1  0
 40 24  1  0
 39 27  1  0
  1 42  1  0
  1 43  1  0
  1 44  1  0
  2 45  1  6
  3 46  1  0
  3 47  1  0
  4 48  1  0
  4 49  1  0
  5 50  1  0
  5 51  1  0
  6 52  1  6
  7 53  1  0
  7 54  1  0
  7 55  1  0
 13 56  1  0
 14 57  1  0
 25 58  1  0
 26 59  1  0
 28 60  1  0
 37 61  1  0
 38 62  1  0
 40 63  1  0
 41 64  1  0
M  CHG  4   9  -1  21  -1  35  -1  36  -1
M  END
>  <meeko>  (3) 
{"is_sidechain": [false], "free_energy": -7.502, "intermolecular_energy": -11.511, "internal_energy": -3.57}

$$$$
LIB_UAJLGPWMTHKWBD__M_PUB_ALL__e8__s20260927
     RDKit          3D

 64 67  0  0  0  0  0  0  0  0999 V2000
    3.6240  -13.7840    1.5750 C   0  0  0  0  0  0  0  0  0  0  0  0
    4.4810  -14.9350    1.0320 C   0  0  2  0  0  0  0  0  0  0  0  0
    5.4170  -14.3910   -0.0580 C   0  0  0  0  0  0  0  0  0  0  0  0
    6.3310  -15.4700   -0.6310 C   0  0  0  0  0  0  0  0  0  0  0  0
    5.7980  -16.8770   -0.3820 C   0  0  0  0  0  0  0  0  0  0  0  0
    4.2640  -16.9510   -0.4180 C   0  0  2  0  0  0  0  0  0  0  0  0
    3.7210  -16.6950   -1.8300 C   0  0  0  0  0  0  0  0  0  0  0  0
    3.6120  -16.0120    0.5210 N   0  0  0  0  0  0  0  0  0  0  0  0
    3.0100  -16.7650    1.6900 N   0  0  0  0  0  0  0  0  0  0  0  0
    1.9940  -17.6060    1.4100 C   0  0  0  0  0  0  0  0  0  0  0  0
    2.0150  -18.8360    1.3620 O   0  0  0  0  0  0  0  0  0  0  0  0
    0.6740  -16.9150    1.1450 C   0  0  0  0  0  0  0  0  0  0  0  0
    0.0100  -17.0690   -0.0820 C   0  0  0  0  0  0  0  0  0  0  0  0
   -1.2170  -16.4430   -0.3150 C   0  0  0  0  0  0  0  0  0  0  0  0
   -1.8110  -15.6460    0.6700 C   0  0  0  0  0  0  0  0  0  0  0  0
   -3.3340  -14.9410    0.2480 Cl  0  0  0  0  0  0  0  0  0  0  0  0
   -1.1590  -15.4770    1.8970 C   0  0  0  0  0  0  0  0  0  0  0  0
   -1.9120  -14.4430    3.2120 S   0  0  0  0  0  0  0  0  0  0  0  0
   -3.0670  -15.2710    3.5630 O   0  0  0  0  0  0  0  0  0  0  0  0
   -0.8570  -14.4120    4.2260 O   0  0  0  0  0  0  0  0  0  0  0  0
   -2.2100  -13.0430    2.5160 N   0  0  0  0  0  0  0  0  0  0  0  0
   -1.3440  -12.0420    2.6990 C   0  0  0  0  0  0  0  0  0  0  0  0
   -1.1480  -11.3710    3.7110 O   0  0  0  0  0  0  0  0  0  0  0  0
   -0.4900  -11.7240    1.4900 C   0  0  0  0  0  0  0  0  0  0  0  0
   -0.1660  -10.4130    1.1150 C   0  0  0  0  0  0  0  0  0  0  0  0
    0.6340  -10.1690   -0.0090 C   0  0  0  0  0  0  0  0  0  0  0  0
    1.1340  -11.2240   -0.7890 C   0  0  0  0  0  0  0  0  0  0  0  0
    1.9420  -10.9890   -1.9200 C   0  0  0  0  0  0  0  0  0  0  0  0
    2.4490  -12.0420   -2.7070 C   0  0  0  0  0  0  0  0  0  0  0  0
    3.3110  -11.7060   -3.9090 C   0  0  0  0  0  0  0  0  0  0  0  0
    3.4890  -10.3540   -4.0710 F   0  0  0  0  0  0  0  0  0  0  0  0
    2.7670  -12.1500   -5.0890 F   0  0  0  0  0  0  0  0  0  0  0  0
    5.1800  -12.3700   -4.0620 P   0  0  0  0  0  0  0  0  0  0  0  0
    5.1210  -13.8390   -3.6200 O   0  0  0  0  0  0  0  0  0  0  0  0
    5.5790  -12.1930   -5.5350 O   0  0  0  0  0  0  0  0  0  0  0  0
    5.9960  -11.4920   -3.1010 O   0  0  0  0  0  0  0  0  0  0  0  0
    2.1330  -13.3500   -2.3380 C   0  0  0  0  0  0  0  0  0  0  0  0
    1.3300  -13.6010   -1.2150 C   0  0  0  0  0  0  0  0  0  0  0  0
    0.8210  -12.5510   -0.4270 C   0  0  0  0  0  0  0  0  0  0  0  0
    0.0120  -12.7810    0.7090 C   0  0  0  0  0  0  0  0  0  0  0  0
    0.0780  -16.1140    2.1360 C   0  0  0  0  0  0  0  0  0  0  0  0
    3.6384  -13.8033    2.6747 H   0  0  0  0  0  0  0  0  0  0  0  0
    4.0300  -12.8254    1.2198 H   0  0  0  0  0  0  0  0  0  0  0  0
    2.5892  -13.8981    1.2198 H   0  0  0  0  0  0  0  0  0  0  0  0
    5.0975  -15.3635    1.8359 H   0  0  0  0  0  0  0  0  0  0  0  0
    4.8062  -13.9758   -0.8732 H   0  0  0  0  0  0  0  0  0  0  0  0
    6.0541  -13.6205    0.4007 H   0  0  0  0  0  0  0  0  0  0  0  0
    6.4239  -15.3145   -1.7160 H   0  0  0  0  0  0  0  0  0  0  0  0
    7.3050  -15.3866   -0.1266 H   0  0  0  0  0  0  0  0  0  0  0  0
    6.1998  -17.5466   -1.1567 H   0  0  0  0  0  0  0  0  0  0  0  0
    6.1191  -17.1777    0.6262 H   0  0  0  0  0  0  0  0  0  0  0  0
    4.0181  -17.9755   -0.1020 H   0  0  0  0  0  0  0  0  0  0  0  0
    2.7280  -16.2268   -1.7617 H   0  0  0  0  0  0  0  0  0  0  0  0
    4.4059  -16.0249   -2.3703 H   0  0  0  0  0  0  0  0  0  0  0  0
    3.6399  -17.6497   -2.3703 H   0  0  0  0  0  0  0  0  0  0  0  0
    0.4613  -17.6902   -0.8697 H   0  0  0  0  0  0  0  0  0  0  0  0
   -1.7216  -16.5780   -1.2831 H   0  0  0  0  0  0  0  0  0  0  0  0
   -0.5434   -9.5675    1.7089 H   0  0  0  0  0  0  0  0  0  0  0  0
    0.8748   -9.1319   -0.2855 H   0  0  0  0  0  0  0  0  0  0  0  0
    2.1840   -9.9522   -2.1965 H   0  0  0  0  0  0  0  0  0  0  0  0
    2.5168  -14.1920   -2.9328 H   0  0  0  0  0  0  0  0  0  0  0  0
    1.0930  -14.6405   -0.9444 H   0  0  0  0  0  0  0  0  0  0  0  0
   -0.2320  -13.8160    0.9904 H   0  0  0  0  0  0  0  0  0  0  0  0
    0.5803  -15.9828    3.1058 H   0  0  0  0  0  0  0  0  0  0  0  0
  1  2  1  0
  2  3  1  0
  3  4  1  0
  4  5  1  0
  5  6  1  0
  6  7  1  0
  6  8  1  0
  8  9  1  0
  9 10  1  0
 10 11  2  0
 10 12  1  0
 12 13  2  0
 13 14  1  0
 14 15  2  0
 15 16  1  0
 15 17  1  0
 17 18  1  0
 18 19  2  0
 18 20  2  0
 18 21  1  0
 21 22  1  0
 22 23  2  0
 22 24  1  0
 24 25  2  0
 25 26  1  0
 26 27  2  0
 27 28  1  0
 28 29  2  0
 29 30  1  0
 30 31  1  0
 30 32  1  0
 30 33  1  0
 33 34  2  0
 33 35  1  0
 33 36  1  0
 29 37  1  0
 37 38  2  0
 38 39  1  0
 39 40  2  0
 17 41  2  0
  8  2  1  0
 41 12  1  0
 40 24  1  0
 39 27  1  0
  1 42  1  0
  1 43  1  0
  1 44  1  0
  2 45  1  1
  3 46  1  0
  3 47  1  0
  4 48  1  0
  4 49  1  0
  5 50  1  0
  5 51  1  0
  6 52  1  1
  7 53  1  0
  7 54  1  0
  7 55  1  0
 13 56  1  0
 14 57  1  0
 25 58  1  0
 26 59  1  0
 28 60  1  0
 37 61  1  0
 38 62  1  0
 40 63  1  0
 41 64  1  0
M  CHG  4   9  -1  21  -1  35  -1  36  -1
M  END
>  <meeko>  (4) 
{"is_sidechain": [false], "free_energy": -7.432, "intermolecular_energy": -11.726, "internal_energy": -3.247}

$$$$
LIB_UAJLGPWMTHKWBD__M_PUB_ALL__e8__s20260927
     RDKit          3D

 64 67  0  0  0  0  0  0  0  0999 V2000
   16.2190  -20.4230    7.6660 C   0  0  0  0  0  0  0  0  0  0  0  0
   17.0540  -19.4630    8.5250 C   0  0  2  0  0  0  0  0  0  0  0  0
   18.5450  -19.7640    8.3050 C   0  0  0  0  0  0  0  0  0  0  0  0
   19.4500  -18.8270    9.1020 C   0  0  0  0  0  0  0  0  0  0  0  0
   18.7240  -18.1720   10.2710 C   0  0  0  0  0  0  0  0  0  0  0  0
   17.6700  -19.0880   10.9120 C   0  0  2  0  0  0  0  0  0  0  0  0
   18.3190  -20.2830   11.6220 C   0  0  0  0  0  0  0  0  0  0  0  0
   16.6720  -19.5950    9.9440 N   0  0  0  0  0  0  0  0  0  0  0  0
   15.3330  -18.9220   10.1640 N   0  0  0  0  0  0  0  0  0  0  0  0
   14.5680  -19.4080   11.1630 C   0  0  0  0  0  0  0  0  0  0  0  0
   14.1690  -20.5610   11.3240 O   0  0  0  0  0  0  0  0  0  0  0  0
   14.1860  -18.3810   12.2070 C   0  0  0  0  0  0  0  0  0  0  0  0
   15.1660  -17.6460   12.8920 C   0  0  0  0  0  0  0  0  0  0  0  0
   14.8070  -16.6880   13.8430 C   0  0  0  0  0  0  0  0  0  0  0  0
   13.4610  -16.4400   14.1350 C   0  0  0  0  0  0  0  0  0  0  0  0
   13.1630  -15.2200   15.3250 Cl  0  0  0  0  0  0  0  0  0  0  0  0
   12.4710  -17.1690   13.4650 C   0  0  0  0  0  0  0  0  0  0  0  0
   10.6960  -16.8650   13.8190 S   0  0  0  0  0  0  0  0  0  0  0  0
   10.0800  -17.7650   12.8440 O   0  0  0  0  0  0  0  0  0  0  0  0
   10.5780  -17.3040   15.2100 O   0  0  0  0  0  0  0  0  0  0  0  0
   10.4930  -15.3020   13.5930 N   0  0  0  0  0  0  0  0  0  0  0  0
   10.6800  -14.8050   12.3680 C   0  0  0  0  0  0  0  0  0  0  0  0
   10.0720  -15.0660   11.3310 O   0  0  0  0  0  0  0  0  0  0  0  0
   11.7800  -13.7680   12.2740 C   0  0  0  0  0  0  0  0  0  0  0  0
   12.9050  -13.9300   11.4550 C   0  0  0  0  0  0  0  0  0  0  0  0
   13.8950  -12.9390   11.3970 C   0  0  0  0  0  0  0  0  0  0  0  0
   13.7880  -11.7600   12.1530 C   0  0  0  0  0  0  0  0  0  0  0  0
   14.7760  -10.7570   12.0990 C   0  0  0  0  0  0  0  0  0  0  0  0
   14.6760   -9.5700   12.8520 C   0  0  0  0  0  0  0  0  0  0  0  0
   15.7830   -8.5380   12.7390 C   0  0  0  0  0  0  0  0  0  0  0  0
   16.9030   -9.0290   12.1130 F   0  0  0  0  0  0  0  0  0  0  0  0
   16.2130   -8.0890   13.9640 F   0  0  0  0  0  0  0  0  0  0  0  0
   15.5080   -6.8250   11.7660 P   0  0  0  0  0  0  0  0  0  0  0  0
   15.4130   -5.7530   12.8610 O   0  0  0  0  0  0  0  0  0  0  0  0
   16.7270   -6.6530   10.8480 O   0  0  0  0  0  0  0  0  0  0  0  0
   14.1900   -7.0090   10.9980 O   0  0  0  0  0  0  0  0  0  0  0  0
   13.5570   -9.4010   13.6680 C   0  0  0  0  0  0  0  0  0  0  0  0
   12.5650  -10.3910   13.7320 C   0  0  0  0  0  0  0  0  0  0  0  0
   12.6620  -11.5780   12.9810 C   0  0  0  0  0  0  0  0  0  0  0  0
   11.6730  -12.5860   13.0300 C   0  0  0  0  0  0  0  0  0  0  0  0
   12.8320  -18.1340   12.5000 C   0  0  0  0  0  0  0  0  0  0  0  0
   15.6387  -21.0901    8.3204 H   0  0  0  0  0  0  0  0  0  0  0  0
   15.5323  -19.8439    7.0311 H   0  0  0  0  0  0  0  0  0  0  0  0
   16.8877  -21.0228    7.0311 H   0  0  0  0  0  0  0  0  0  0  0  0
   16.8626  -18.4211    8.2286 H   0  0  0  0  0  0  0  0  0  0  0  0
   18.7464  -20.7996    8.6164 H   0  0  0  0  0  0  0  0  0  0  0  0
   18.7640  -19.6153    7.2373 H   0  0  0  0  0  0  0  0  0  0  0  0
   20.2999  -19.4053    9.4935 H   0  0  0  0  0  0  0  0  0  0  0  0
   19.7840  -18.0273    8.4246 H   0  0  0  0  0  0  0  0  0  0  0  0
   19.4656  -17.9013   11.0370 H   0  0  0  0  0  0  0  0  0  0  0  0
   18.1980  -17.2891    9.8788 H   0  0  0  0  0  0  0  0  0  0  0  0
   17.1468  -18.4556   11.6444 H   0  0  0  0  0  0  0  0  0  0  0  0
   18.2450  -20.1468   12.7110 H   0  0  0  0  0  0  0  0  0  0  0  0
   17.7994  -21.2082   11.3320 H   0  0  0  0  0  0  0  0  0  0  0  0
   19.3779  -20.3509   11.3320 H   0  0  0  0  0  0  0  0  0  0  0  0
   16.2296  -17.8266   12.6773 H   0  0  0  0  0  0  0  0  0  0  0  0
   15.5908  -16.1224   14.3681 H   0  0  0  0  0  0  0  0  0  0  0  0
   13.0126  -14.8435   10.8517 H   0  0  0  0  0  0  0  0  0  0  0  0
   14.7708  -13.0873   10.7482 H   0  0  0  0  0  0  0  0  0  0  0  0
   15.6515  -10.9049   11.4497 H   0  0  0  0  0  0  0  0  0  0  0  0
   13.4517   -8.4839   14.2662 H   0  0  0  0  0  0  0  0  0  0  0  0
   11.6921  -10.2364   14.3833 H   0  0  0  0  0  0  0  0  0  0  0  0
   10.7951  -12.4427   13.6771 H   0  0  0  0  0  0  0  0  0  0  0  0
   12.0483  -18.6976   11.9726 H   0  0  0  0  0  0  0  0  0  0  0  0
  1  2  1  0
  2  3  1  0
  3  4  1  0
  4  5  1  0
  5  6  1  0
  6  7  1  0
  6  8  1  0
  8  9  1  0
  9 10  1  0
 10 11  2  0
 10 12  1  0
 12 13  2  0
 13 14  1  0
 14 15  2  0
 15 16  1  0
 15 17  1  0
 17 18  1  0
 18 19  2  0
 18 20  2  0
 18 21  1  0
 21 22  1  0
 22 23  2  0
 22 24  1  0
 24 25  2  0
 25 26  1  0
 26 27  2  0
 27 28  1  0
 28 29  2  0
 29 30  1  0
 30 31  1  0
 30 32  1  0
 30 33  1  0
 33 34  2  0
 33 35  1  0
 33 36  1  0
 29 37  1  0
 37 38  2  0
 38 39  1  0
 39 40  2  0
 17 41  2  0
  8  2  1  0
 41 12  1  0
 40 24  1  0
 39 27  1  0
  1 42  1  0
  1 43  1  0
  1 44  1  0
  2 45  1  6
  3 46  1  0
  3 47  1  0
  4 48  1  0
  4 49  1  0
  5 50  1  0
  5 51  1  0
  6 52  1  1
  7 53  1  0
  7 54  1  0
  7 55  1  0
 13 56  1  0
 14 57  1  0
 25 58  1  0
 26 59  1  0
 28 60  1  0
 37 61  1  0
 38 62  1  0
 40 63  1  0
 41 64  1  0
M  CHG  4   9  -1  21  -1  35  -1  36  -1
M  END
>  <meeko>  (5) 
{"is_sidechain": [false], "free_energy": -7.355, "intermolecular_energy": -12.834, "internal_energy": -2.022}

$$$$
LIB_UAJLGPWMTHKWBD__M_PUB_ALL__e8__s20260927
     RDKit          3D

 64 67  0  0  0  0  0  0  0  0999 V2000
   10.9910  -12.7010   -0.3020 C   0  0  0  0  0  0  0  0  0  0  0  0
    9.7260  -12.5540   -1.1590 C   0  0  2  0  0  0  0  0  0  0  0  0
    8.5930  -13.3740   -0.5220 C   0  0  0  0  0  0  0  0  0  0  0  0
    7.2840  -13.2560   -1.2990 C   0  0  0  0  0  0  0  0  0  0  0  0
    7.5000  -12.7960   -2.7360 C   0  0  0  0  0  0  0  0  0  0  0  0
    8.8080  -13.3240   -3.3450 C   0  0  2  0  0  0  0  0  0  0  0  0
    8.7620  -14.8440   -3.5440 C   0  0  0  0  0  0  0  0  0  0  0  0
   10.0040  -12.9840   -2.5420 N   0  0  0  0  0  0  0  0  0  0  0  0
   10.8250  -11.9200   -3.2410 N   0  0  0  0  0  0  0  0  0  0  0  0
   12.0640  -12.2740   -3.6380 C   0  0  0  0  0  0  0  0  0  0  0  0
   13.1040  -11.6200   -3.5610 O   0  0  0  0  0  0  0  0  0  0  0  0
   12.1520  -13.6640   -4.2300 C   0  0  0  0  0  0  0  0  0  0  0  0
   12.6840  -14.7330   -3.4940 C   0  0  0  0  0  0  0  0  0  0  0  0
   12.7480  -16.0170   -4.0410 C   0  0  0  0  0  0  0  0  0  0  0  0
   12.2820  -16.2660   -5.3360 C   0  0  0  0  0  0  0  0  0  0  0  0
   12.4120  -17.9030   -5.8800 Cl  0  0  0  0  0  0  0  0  0  0  0  0
   11.7530  -15.2090   -6.0860 C   0  0  0  0  0  0  0  0  0  0  0  0
   11.1290  -15.5010   -7.7870 S   0  0  0  0  0  0  0  0  0  0  0  0
   10.9290  -14.1210   -8.2310 O   0  0  0  0  0  0  0  0  0  0  0  0
   12.2570  -16.1850   -8.4200 O   0  0  0  0  0  0  0  0  0  0  0  0
    9.8260  -16.3970   -7.5990 N   0  0  0  0  0  0  0  0  0  0  0  0
    8.8000  -16.2150   -8.4350 C   0  0  0  0  0  0  0  0  0  0  0  0
    8.6120  -16.7150   -9.5430 O   0  0  0  0  0  0  0  0  0  0  0  0
    7.7280  -15.2800   -7.9160 C   0  0  0  0  0  0  0  0  0  0  0  0
    7.3620  -14.1030   -8.5840 C   0  0  0  0  0  0  0  0  0  0  0  0
    6.3580  -13.2720   -8.0670 C   0  0  0  0  0  0  0  0  0  0  0  0
    5.6930  -13.5910   -6.8720 C   0  0  0  0  0  0  0  0  0  0  0  0
    4.6820  -12.7630   -6.3460 C   0  0  0  0  0  0  0  0  0  0  0  0
    4.0080  -13.0770   -5.1490 C   0  0  0  0  0  0  0  0  0  0  0  0
    2.9310  -12.1330   -4.6480 C   0  0  0  0  0  0  0  0  0  0  0  0
    1.6730  -12.6810   -4.7170 F   0  0  0  0  0  0  0  0  0  0  0  0
    2.8670  -10.9700   -5.3760 F   0  0  0  0  0  0  0  0  0  0  0  0
    2.9530  -11.4310   -2.7870 P   0  0  0  0  0  0  0  0  0  0  0  0
    2.2600  -12.5110   -1.9430 O   0  0  0  0  0  0  0  0  0  0  0  0
    4.4320  -11.2290   -2.4220 O   0  0  0  0  0  0  0  0  0  0  0  0
    2.1550  -10.1190   -2.8440 O   0  0  0  0  0  0  0  0  0  0  0  0
    4.3660  -14.2480   -4.4800 C   0  0  0  0  0  0  0  0  0  0  0  0
    5.3710  -15.0830   -4.9910 C   0  0  0  0  0  0  0  0  0  0  0  0
    6.0470  -14.7720   -6.1860 C   0  0  0  0  0  0  0  0  0  0  0  0
    7.0610  -15.6000   -6.7190 C   0  0  0  0  0  0  0  0  0  0  0  0
   11.6830  -13.9120   -5.5340 C   0  0  0  0  0  0  0  0  0  0  0  0
   10.7180  -12.6693    0.7631 H   0  0  0  0  0  0  0  0  0  0  0  0
   11.4771  -13.6617   -0.5275 H   0  0  0  0  0  0  0  0  0  0  0  0
   11.6844  -11.8774   -0.5275 H   0  0  0  0  0  0  0  0  0  0  0  0
    9.4111  -11.5008   -1.1990 H   0  0  0  0  0  0  0  0  0  0  0  0
    8.8940  -14.4317   -0.4949 H   0  0  0  0  0  0  0  0  0  0  0  0
    8.4201  -12.9791    0.4900 H   0  0  0  0  0  0  0  0  0  0  0  0
    6.7919  -14.2397   -1.3133 H   0  0  0  0  0  0  0  0  0  0  0  0
    6.6622  -12.5012   -0.7954 H   0  0  0  0  0  0  0  0  0  0  0  0
    6.6589  -13.1530   -3.3485 H   0  0  0  0  0  0  0  0  0  0  0  0
    7.5622  -11.6978   -2.7242 H   0  0  0  0  0  0  0  0  0  0  0  0
    8.8963  -12.8210   -4.3193 H   0  0  0  0  0  0  0  0  0  0  0  0
    8.7469  -15.3419   -2.5633 H   0  0  0  0  0  0  0  0  0  0  0  0
    7.8553  -15.1130   -4.1057 H   0  0  0  0  0  0  0  0  0  0  0  0
    9.6508  -15.1673   -4.1057 H   0  0  0  0  0  0  0  0  0  0  0  0
   13.0554  -14.5582   -2.4735 H   0  0  0  0  0  0  0  0  0  0  0  0
   13.1695  -16.8411   -3.4467 H   0  0  0  0  0  0  0  0  0  0  0  0
    7.8670  -13.8290   -9.5220 H   0  0  0  0  0  0  0  0  0  0  0  0
    6.0862  -12.3533   -8.6074 H   0  0  0  0  0  0  0  0  0  0  0  0
    4.4105  -11.8438   -6.8858 H   0  0  0  0  0  0  0  0  0  0  0  0
    3.8558  -14.5188   -3.5438 H   0  0  0  0  0  0  0  0  0  0  0  0
    5.6366  -16.0008   -4.4459 H   0  0  0  0  0  0  0  0  0  0  0  0
    7.3364  -16.5203   -6.1831 H   0  0  0  0  0  0  0  0  0  0  0  0
   11.2587  -13.0885   -6.1272 H   0  0  0  0  0  0  0  0  0  0  0  0
  1  2  1  0
  2  3  1  0
  3  4  1  0
  4  5  1  0
  5  6  1  0
  6  7  1  0
  6  8  1  0
  8  9  1  0
  9 10  1  0
 10 11  2  0
 10 12  1  0
 12 13  2  0
 13 14  1  0
 14 15  2  0
 15 16  1  0
 15 17  1  0
 17 18  1  0
 18 19  2  0
 18 20  2  0
 18 21  1  0
 21 22  1  0
 22 23  2  0
 22 24  1  0
 24 25  2  0
 25 26  1  0
 26 27  2  0
 27 28  1  0
 28 29  2  0
 29 30  1  0
 30 31  1  0
 30 32  1  0
 30 33  1  0
 33 34  2  0
 33 35  1  0
 33 36  1  0
 29 37  1  0
 37 38  2  0
 38 39  1  0
 39 40  2  0
 17 41  2  0
  8  2  1  0
 41 12  1  0
 40 24  1  0
 39 27  1  0
  1 42  1  0
  1 43  1  0
  1 44  1  0
  2 45  1  6
  3 46  1  0
  3 47  1  0
  4 48  1  0
  4 49  1  0
  5 50  1  0
  5 51  1  0
  6 52  1  6
  7 53  1  0
  7 54  1  0
  7 55  1  0
 13 56  1  0
 14 57  1  0
 25 58  1  0
 26 59  1  0
 28 60  1  0
 37 61  1  0
 38 62  1  0
 40 63  1  0
 41 64  1  0
M  CHG  4   9  -1  21  -1  35  -1  36  -1
M  END
>  <meeko>  (6) 
{"is_sidechain": [false], "free_energy": -7.343, "intermolecular_energy": -11.943, "internal_energy": -2.894}

$$$$
LIB_UAJLGPWMTHKWBD__M_PUB_ALL__e8__s20260927
     RDKit          3D

 64 67  0  0  0  0  0  0  0  0999 V2000
    9.0470  -13.6750   -4.1780 C   0  0  0  0  0  0  0  0  0  0  0  0
   10.5450  -13.3390   -4.1970 C   0  0  2  0  0  0  0  0  0  0  0  0
   11.2110  -14.0940   -5.3580 C   0  0  0  0  0  0  0  0  0  0  0  0
   12.7020  -13.7890   -5.4690 C   0  0  0  0  0  0  0  0  0  0  0  0
   13.2820  -13.2390   -4.1700 C   0  0  0  0  0  0  0  0  0  0  0  0
   12.6250  -13.8410   -2.9190 C   0  0  2  0  0  0  0  0  0  0  0  0
   12.9650  -15.3290   -2.7660 C   0  0  0  0  0  0  0  0  0  0  0  0
   11.1540  -13.6830   -2.8980 N   0  0  0  0  0  0  0  0  0  0  0  0
   10.7470  -12.6510   -1.8670 N   0  0  0  0  0  0  0  0  0  0  0  0
   10.4660  -13.1080   -0.6310 C   0  0  0  0  0  0  0  0  0  0  0  0
   11.2180  -13.6760    0.1600 O   0  0  0  0  0  0  0  0  0  0  0  0
    9.0410  -12.8580   -0.1870 C   0  0  0  0  0  0  0  0  0  0  0  0
    8.7360  -11.8390    0.7290 C   0  0  0  0  0  0  0  0  0  0  0  0
    7.4170  -11.6010    1.1230 C   0  0  0  0  0  0  0  0  0  0  0  0
    6.3690  -12.3750    0.6130 C   0  0  0  0  0  0  0  0  0  0  0  0
    4.7870  -11.9630    1.1790 Cl  0  0  0  0  0  0  0  0  0  0  0  0
    6.6560  -13.3990   -0.2970 C   0  0  0  0  0  0  0  0  0  0  0  0
    5.3050  -14.4300   -0.9900 S   0  0  0  0  0  0  0  0  0  0  0  0
    6.0880  -15.4320   -1.7130 O   0  0  0  0  0  0  0  0  0  0  0  0
    4.6450  -14.9290    0.2170 O   0  0  0  0  0  0  0  0  0  0  0  0
    4.4280  -13.4270   -1.8630 N   0  0  0  0  0  0  0  0  0  0  0  0
    3.7440  -13.9150   -2.9010 C   0  0  0  0  0  0  0  0  0  0  0  0
    2.7390  -14.6240   -2.8950 O   0  0  0  0  0  0  0  0  0  0  0  0
    4.2890  -13.5100   -4.2550 C   0  0  0  0  0  0  0  0  0  0  0  0
    3.9250  -12.3160   -4.8910 C   0  0  0  0  0  0  0  0  0  0  0  0
    4.4610  -11.9810   -6.1420 C   0  0  0  0  0  0  0  0  0  0  0  0
    5.3750  -12.8270   -6.7920 C   0  0  0  0  0  0  0  0  0  0  0  0
    5.9220  -12.4990   -8.0480 C   0  0  0  0  0  0  0  0  0  0  0  0
    6.8400  -13.3400   -8.7060 C   0  0  0  0  0  0  0  0  0  0  0  0
    7.3830  -12.9150  -10.0580 C   0  0  0  0  0  0  0  0  0  0  0  0
    7.4790  -11.5510  -10.1840 F   0  0  0  0  0  0  0  0  0  0  0  0
    6.5870  -13.3260  -11.0990 F   0  0  0  0  0  0  0  0  0  0  0  0
    9.1800  -13.4960  -10.6820 P   0  0  0  0  0  0  0  0  0  0  0  0
    9.1180  -15.0300  -10.7100 O   0  0  0  0  0  0  0  0  0  0  0  0
    9.3750  -12.8690  -12.0710 O   0  0  0  0  0  0  0  0  0  0  0  0
   10.1620  -12.9600   -9.6290 O   0  0  0  0  0  0  0  0  0  0  0  0
    7.2090  -14.5300   -8.0770 C   0  0  0  0  0  0  0  0  0  0  0  0
    6.6740  -14.8720   -6.8260 C   0  0  0  0  0  0  0  0  0  0  0  0
    5.7550  -14.0330   -6.1660 C   0  0  0  0  0  0  0  0  0  0  0  0
    5.2050  -14.3580   -4.9050 C   0  0  0  0  0  0  0  0  0  0  0  0
    7.9880  -13.6370   -0.7000 C   0  0  0  0  0  0  0  0  0  0  0  0
    8.7018  -13.7524   -3.1365 H   0  0  0  0  0  0  0  0  0  0  0  0
    8.4864  -12.8803   -4.6920 H   0  0  0  0  0  0  0  0  0  0  0  0
    8.8796  -14.6330   -4.6920 H   0  0  0  0  0  0  0  0  0  0  0  0
   10.6931  -12.2604   -4.3540 H   0  0  0  0  0  0  0  0  0  0  0  0
   11.0822  -15.1745   -5.1972 H   0  0  0  0  0  0  0  0  0  0  0  0
   10.7305  -13.7661   -6.2916 H   0  0  0  0  0  0  0  0  0  0  0  0
   13.2338  -14.7163   -5.7284 H   0  0  0  0  0  0  0  0  0  0  0  0
   12.8298  -13.0200   -6.2451 H   0  0  0  0  0  0  0  0  0  0  0  0
   14.3585  -13.4638   -4.1436 H   0  0  0  0  0  0  0  0  0  0  0  0
   13.0890  -12.1562   -4.1551 H   0  0  0  0  0  0  0  0  0  0  0  0
   13.0408  -13.2726   -2.0740 H   0  0  0  0  0  0  0  0  0  0  0  0
   13.0232  -15.5838   -1.6975 H   0  0  0  0  0  0  0  0  0  0  0  0
   12.1822  -15.9352   -3.2454 H   0  0  0  0  0  0  0  0  0  0  0  0
   13.9334  -15.5350   -3.2454 H   0  0  0  0  0  0  0  0  0  0  0  0
    9.5460  -11.2199    1.1419 H   0  0  0  0  0  0  0  0  0  0  0  0
    7.2002  -10.7968    1.8416 H   0  0  0  0  0  0  0  0  0  0  0  0
    3.2117  -11.6349   -4.4039 H   0  0  0  0  0  0  0  0  0  0  0  0
    4.1606  -11.0387   -6.6235 H   0  0  0  0  0  0  0  0  0  0  0  0
    5.6227  -11.5565   -8.5298 H   0  0  0  0  0  0  0  0  0  0  0  0
    7.9257  -15.2058   -8.5665 H   0  0  0  0  0  0  0  0  0  0  0  0
    6.9788  -15.8158   -6.3502 H   0  0  0  0  0  0  0  0  0  0  0  0
    5.5010  -15.2992   -4.4186 H   0  0  0  0  0  0  0  0  0  0  0  0
    8.2043  -14.4387   -1.4215 H   0  0  0  0  0  0  0  0  0  0  0  0
  1  2  1  0
  2  3  1  0
  3  4  1  0
  4  5  1  0
  5  6  1  0
  6  7  1  0
  6  8  1  0
  8  9  1  0
  9 10  1  0
 10 11  2  0
 10 12  1  0
 12 13  2  0
 13 14  1  0
 14 15  2  0
 15 16  1  0
 15 17  1  0
 17 18  1  0
 18 19  2  0
 18 20  2  0
 18 21  1  0
 21 22  1  0
 22 23  2  0
 22 24  1  0
 24 25  2  0
 25 26  1  0
 26 27  2  0
 27 28  1  0
 28 29  2  0
 29 30  1  0
 30 31  1  0
 30 32  1  0
 30 33  1  0
 33 34  2  0
 33 35  1  0
 33 36  1  0
 29 37  1  0
 37 38  2  0
 38 39  1  0
 39 40  2  0
 17 41  2  0
  8  2  1  0
 41 12  1  0
 40 24  1  0
 39 27  1  0
  1 42  1  0
  1 43  1  0
  1 44  1  0
  2 45  1  6
  3 46  1  0
  3 47  1  0
  4 48  1  0
  4 49  1  0
  5 50  1  0
  5 51  1  0
  6 52  1  1
  7 53  1  0
  7 54  1  0
  7 55  1  0
 13 56  1  0
 14 57  1  0
 25 58  1  0
 26 59  1  0
 28 60  1  0
 37 61  1  0
 38 62  1  0
 40 63  1  0
 41 64  1  0
M  CHG  4   9  -1  21  -1  35  -1  36  -1
M  END
>  <meeko>  (7) 
{"is_sidechain": [false], "free_energy": -7.33, "intermolecular_energy": -12.676, "internal_energy": -2.141}

$$$$
LIB_UAJLGPWMTHKWBD__M_PUB_ALL__e8__s20260927
     RDKit          3D

 64 67  0  0  0  0  0  0  0  0999 V2000
    1.1180  -14.4310   -3.6780 C   0  0  0  0  0  0  0  0  0  0  0  0
    2.3090  -13.6280   -3.1360 C   0  0  2  0  0  0  0  0  0  0  0  0
    1.8860  -12.9200   -1.8390 C   0  0  0  0  0  0  0  0  0  0  0  0
    3.0280  -12.1220   -1.2150 C   0  0  0  0  0  0  0  0  0  0  0  0
    4.1280  -11.7970   -2.2200 C   0  0  0  0  0  0  0  0  0  0  0  0
    3.5910  -11.5500   -3.6380 C   0  0  2  0  0  0  0  0  0  0  0  0
    2.7600  -10.2620   -3.7080 C   0  0  0  0  0  0  0  0  0  0  0  0
    2.7770  -12.6710   -4.1560 N   0  0  0  0  0  0  0  0  0  0  0  0
    3.5330  -13.4200   -5.2340 N   0  0  0  0  0  0  0  0  0  0  0  0
    4.8730  -13.2680   -5.2510 C   0  0  0  0  0  0  0  0  0  0  0  0
    5.5330  -12.3960   -5.8160 O   0  0  0  0  0  0  0  0  0  0  0  0
    5.6240  -14.3080   -4.4480 C   0  0  0  0  0  0  0  0  0  0  0  0
    5.3280  -15.6740   -4.5750 C   0  0  0  0  0  0  0  0  0  0  0  0
    6.0360  -16.6310   -3.8440 C   0  0  0  0  0  0  0  0  0  0  0  0
    7.0580  -16.2480   -2.9670 C   0  0  0  0  0  0  0  0  0  0  0  0
    7.8560  -17.5380   -2.1360 Cl  0  0  0  0  0  0  0  0  0  0  0  0
    7.3610  -14.8890   -2.8250 C   0  0  0  0  0  0  0  0  0  0  0  0
    8.6980  -14.3530   -1.6870 S   0  0  0  0  0  0  0  0  0  0  0  0
    9.8260  -15.1040   -2.2400 O   0  0  0  0  0  0  0  0  0  0  0  0
    8.7520  -12.9110   -1.9280 O   0  0  0  0  0  0  0  0  0  0  0  0
    8.1940  -14.7680   -0.2350 N   0  0  0  0  0  0  0  0  0  0  0  0
    7.5280  -13.8670    0.4920 C   0  0  0  0  0  0  0  0  0  0  0  0
    7.9330  -12.8030    0.9570 O   0  0  0  0  0  0  0  0  0  0  0  0
    6.0760  -14.2160    0.7450 C   0  0  0  0  0  0  0  0  0  0  0  0
    5.3610  -13.7290    1.8470 C   0  0  0  0  0  0  0  0  0  0  0  0
    4.0160  -14.0760    2.0350 C   0  0  0  0  0  0  0  0  0  0  0  0
    3.3480  -14.9160    1.1290 C   0  0  0  0  0  0  0  0  0  0  0  0
    1.9950  -15.2680    1.3080 C   0  0  0  0  0  0  0  0  0  0  0  0
    1.3160  -16.1080    0.4040 C   0  0  0  0  0  0  0  0  0  0  0  0
   -0.1400  -16.4410    0.6680 C   0  0  0  0  0  0  0  0  0  0  0  0
   -0.4910  -16.2700    1.9840 F   0  0  0  0  0  0  0  0  0  0  0  0
   -0.4450  -17.7470    0.3710 F   0  0  0  0  0  0  0  0  0  0  0  0
   -1.6080  -15.4730   -0.2610 P   0  0  0  0  0  0  0  0  0  0  0  0
   -1.6580  -16.0770   -1.6720 O   0  0  0  0  0  0  0  0  0  0  0  0
   -2.8810  -15.7350    0.5580 O   0  0  0  0  0  0  0  0  0  0  0  0
   -1.1780  -13.9980   -0.2610 O   0  0  0  0  0  0  0  0  0  0  0  0
    2.0220  -16.5960   -0.6970 C   0  0  0  0  0  0  0  0  0  0  0  0
    3.3690  -16.2540   -0.8900 C   0  0  0  0  0  0  0  0  0  0  0  0
    4.0500  -15.4150    0.0130 C   0  0  0  0  0  0  0  0  0  0  0  0
    5.4060  -15.0570   -0.1630 C   0  0  0  0  0  0  0  0  0  0  0  0
    6.6510  -13.9210   -3.5660 C   0  0  0  0  0  0  0  0  0  0  0  0
    0.5300  -14.8275   -2.8371 H   0  0  0  0  0  0  0  0  0  0  0  0
    0.4832  -13.7757   -4.2926 H   0  0  0  0  0  0  0  0  0  0  0  0
    1.4874  -15.2651   -4.2926 H   0  0  0  0  0  0  0  0  0  0  0  0
    3.1492  -14.2997   -2.9061 H   0  0  0  0  0  0  0  0  0  0  0  0
    1.0570  -12.2333   -2.0652 H   0  0  0  0  0  0  0  0  0  0  0  0
    1.5824  -13.6929   -1.1176 H   0  0  0  0  0  0  0  0  0  0  0  0
    2.6239  -11.1796   -0.8167 H   0  0  0  0  0  0  0  0  0  0  0  0
    3.4722  -12.7386   -0.4197 H   0  0  0  0  0  0  0  0  0  0  0  0
    4.6554  -10.8927   -1.8823 H   0  0  0  0  0  0  0  0  0  0  0  0
    4.7975  -12.6684   -2.2686 H   0  0  0  0  0  0  0  0  0  0  0  0
    4.4845  -11.4546   -4.2725 H   0  0  0  0  0  0  0  0  0  0  0  0
    2.5358   -9.9145   -2.6887 H   0  0  0  0  0  0  0  0  0  0  0  0
    3.3289   -9.4872   -4.2427 H   0  0  0  0  0  0  0  0  0  0  0  0
    1.8195  -10.4610   -4.2427 H   0  0  0  0  0  0  0  0  0  0  0  0
    4.5284  -15.9951   -5.2588 H   0  0  0  0  0  0  0  0  0  0  0  0
    5.7880  -17.6965   -3.9586 H   0  0  0  0  0  0  0  0  0  0  0  0
    5.8597  -13.0682    2.5714 H   0  0  0  0  0  0  0  0  0  0  0  0
    3.4739  -13.6833    2.9079 H   0  0  0  0  0  0  0  0  0  0  0  0
    1.4527  -14.8746    2.1805 H   0  0  0  0  0  0  0  0  0  0  0  0
    1.5178  -17.2545   -1.4196 H   0  0  0  0  0  0  0  0  0  0  0  0
    3.9046  -16.6498   -1.7655 H   0  0  0  0  0  0  0  0  0  0  0  0
    5.9530  -15.4467   -1.0342 H   0  0  0  0  0  0  0  0  0  0  0  0
    6.9016  -12.8558   -3.4539 H   0  0  0  0  0  0  0  0  0  0  0  0
  1  2  1  0
  2  3  1  0
  3  4  1  0
  4  5  1  0
  5  6  1  0
  6  7  1  0
  6  8  1  0
  8  9  1  0
  9 10  1  0
 10 11  2  0
 10 12  1  0
 12 13  2  0
 13 14  1  0
 14 15  2  0
 15 16  1  0
 15 17  1  0
 17 18  1  0
 18 19  2  0
 18 20  2  0
 18 21  1  0
 21 22  1  0
 22 23  2  0
 22 24  1  0
 24 25  2  0
 25 26  1  0
 26 27  2  0
 27 28  1  0
 28 29  2  0
 29 30  1  0
 30 31  1  0
 30 32  1  0
 30 33  1  0
 33 34  2  0
 33 35  1  0
 33 36  1  0
 29 37  1  0
 37 38  2  0
 38 39  1  0
 39 40  2  0
 17 41  2  0
  8  2  1  0
 41 12  1  0
 40 24  1  0
 39 27  1  0
  1 42  1  0
  1 43  1  0
  1 44  1  0
  2 45  1  1
  3 46  1  0
  3 47  1  0
  4 48  1  0
  4 49  1  0
  5 50  1  0
  5 51  1  0
  6 52  1  6
  7 53  1  0
  7 54  1  0
  7 55  1  0
 13 56  1  0
 14 57  1  0
 25 58  1  0
 26 59  1  0
 28 60  1  0
 37 61  1  0
 38 62  1  0
 40 63  1  0
 41 64  1  0
M  CHG  4   9  -1  21  -1  35  -1  36  -1
M  END
>  <meeko>  (8) 
{"is_sidechain": [false], "free_energy": -7.276, "intermolecular_energy": -10.871, "internal_energy": -3.864}

$$$$
LIB_UAJLGPWMTHKWBD__M_PUB_ALL__e8__s20260927
     RDKit          3D

 64 67  0  0  0  0  0  0  0  0999 V2000
    2.3120  -14.9230    2.6910 C   0  0  0  0  0  0  0  0  0  0  0  0
    2.7470  -15.5510    1.3600 C   0  0  2  0  0  0  0  0  0  0  0  0
    2.0820  -16.9300    1.2170 C   0  0  0  0  0  0  0  0  0  0  0  0
    2.4390  -17.6120   -0.1010 C   0  0  0  0  0  0  0  0  0  0  0  0
    3.7090  -17.0450   -0.7250 C   0  0  0  0  0  0  0  0  0  0  0  0
    4.7490  -16.6130    0.3200 C   0  0  2  0  0  0  0  0  0  0  0  0
    5.3250  -17.8180    1.0730 C   0  0  0  0  0  0  0  0  0  0  0  0
    4.2180  -15.6440    1.3050 N   0  0  0  0  0  0  0  0  0  0  0  0
    4.7960  -14.2660    1.0550 N   0  0  0  0  0  0  0  0  0  0  0  0
    6.1240  -14.1240    1.2390 C   0  0  0  0  0  0  0  0  0  0  0  0
    6.7900  -14.4100    2.2340 O   0  0  0  0  0  0  0  0  0  0  0  0
    6.8580  -13.5550    0.0440 C   0  0  0  0  0  0  0  0  0  0  0  0
    8.0810  -12.8830    0.1970 C   0  0  0  0  0  0  0  0  0  0  0  0
    8.7610  -12.3740   -0.9120 C   0  0  0  0  0  0  0  0  0  0  0  0
    8.2390  -12.5220   -2.2010 C   0  0  0  0  0  0  0  0  0  0  0  0
    9.1920  -11.8530   -3.4800 Cl  0  0  0  0  0  0  0  0  0  0  0  0
    7.0170  -13.1840   -2.3700 C   0  0  0  0  0  0  0  0  0  0  0  0
    6.3040  -13.4000   -4.0480 S   0  0  0  0  0  0  0  0  0  0  0  0
    6.0700  -12.0020   -4.4120 O   0  0  0  0  0  0  0  0  0  0  0  0
    7.4030  -14.0400   -4.7720 O   0  0  0  0  0  0  0  0  0  0  0  0
    5.0210  -14.3180   -3.8350 N   0  0  0  0  0  0  0  0  0  0  0  0
    3.8200  -13.8170   -4.1360 C   0  0  0  0  0  0  0  0  0  0  0  0
    3.3310  -13.6040   -5.2440 O   0  0  0  0  0  0  0  0  0  0  0  0
    2.9580  -13.4950   -2.9330 C   0  0  0  0  0  0  0  0  0  0  0  0
    3.1570  -12.3550   -2.1420 C   0  0  0  0  0  0  0  0  0  0  0  0
    2.3280  -12.0960   -1.0420 C   0  0  0  0  0  0  0  0  0  0  0  0
    1.2780  -12.9640   -0.7030 C   0  0  0  0  0  0  0  0  0  0  0  0
    0.4370  -12.7110    0.3990 C   0  0  0  0  0  0  0  0  0  0  0  0
   -0.6200  -13.5750    0.7460 C   0  0  0  0  0  0  0  0  0  0  0  0
   -1.4800  -13.2320    1.9490 C   0  0  0  0  0  0  0  0  0  0  0  0
   -0.7680  -12.6200    2.9500 F   0  0  0  0  0  0  0  0  0  0  0  0
   -2.0480  -14.3420    2.5250 F   0  0  0  0  0  0  0  0  0  0  0  0
   -3.0520  -12.0240    1.7870 P   0  0  0  0  0  0  0  0  0  0  0  0
   -4.1420  -12.6660    2.6580 O   0  0  0  0  0  0  0  0  0  0  0  0
   -2.5920  -10.6510    2.3000 O   0  0  0  0  0  0  0  0  0  0  0  0
   -3.4070  -12.0270    0.2920 O   0  0  0  0  0  0  0  0  0  0  0  0
   -0.8260  -14.7110   -0.0380 C   0  0  0  0  0  0  0  0  0  0  0  0
    0.0020  -14.9770   -1.1400 C   0  0  0  0  0  0  0  0  0  0  0  0
    1.0600  -14.1150   -1.4880 C   0  0  0  0  0  0  0  0  0  0  0  0
    1.9050  -14.3640   -2.5940 C   0  0  0  0  0  0  0  0  0  0  0  0
    6.3300  -13.7040   -1.2520 C   0  0  0  0  0  0  0  0  0  0  0  0
    2.7202  -15.5124    3.5253 H   0  0  0  0  0  0  0  0  0  0  0  0
    2.6903  -13.8918    2.7509 H   0  0  0  0  0  0  0  0  0  0  0  0
    1.2137  -14.9147    2.7509 H   0  0  0  0  0  0  0  0  0  0  0  0
    2.4253  -14.9214    0.5173 H   0  0  0  0  0  0  0  0  0  0  0  0
    2.4135  -17.5703    2.0477 H   0  0  0  0  0  0  0  0  0  0  0  0
    0.9922  -16.7812    1.2343 H   0  0  0  0  0  0  0  0  0  0  0  0
    2.5866  -18.6859    0.0859 H   0  0  0  0  0  0  0  0  0  0  0  0
    1.6122  -17.4344   -0.8045 H   0  0  0  0  0  0  0  0  0  0  0  0
    4.1579  -17.8159   -1.3686 H   0  0  0  0  0  0  0  0  0  0  0  0
    3.4239  -16.1491   -1.2960 H   0  0  0  0  0  0  0  0  0  0  0  0
    5.5446  -16.1157   -0.2542 H   0  0  0  0  0  0  0  0  0  0  0  0
    5.2431  -17.6466    2.1565 H   0  0  0  0  0  0  0  0  0  0  0  0
    4.7623  -18.7233    0.8014 H   0  0  0  0  0  0  0  0  0  0  0  0
    6.3829  -17.9486    0.8014 H   0  0  0  0  0  0  0  0  0  0  0  0
    8.5090  -12.7557    1.2023 H   0  0  0  0  0  0  0  0  0  0  0  0
    9.7181  -11.8507   -0.7698 H   0  0  0  0  0  0  0  0  0  0  0  0
    3.9713  -11.6572   -2.3869 H   0  0  0  0  0  0  0  0  0  0  0  0
    2.5032  -11.1966   -0.4334 H   0  0  0  0  0  0  0  0  0  0  0  0
    0.6113  -11.8110    1.0070 H   0  0  0  0  0  0  0  0  0  0  0  0
   -1.6439  -15.4037    0.2096 H   0  0  0  0  0  0  0  0  0  0  0  0
   -0.1794  -15.8779   -1.7446 H   0  0  0  0  0  0  0  0  0  0  0  0
    1.7343  -15.2619   -3.2061 H   0  0  0  0  0  0  0  0  0  0  0  0
    5.3744  -14.2298   -1.3948 H   0  0  0  0  0  0  0  0  0  0  0  0
  1  2  1  0
  2  3  1  0
  3  4  1  0
  4  5  1  0
  5  6  1  0
  6  7  1  0
  6  8  1  0
  8  9  1  0
  9 10  1  0
 10 11  2  0
 10 12  1  0
 12 13  2  0
 13 14  1  0
 14 15  2  0
 15 16  1  0
 15 17  1  0
 17 18  1  0
 18 19  2  0
 18 20  2  0
 18 21  1  0
 21 22  1  0
 22 23  2  0
 22 24  1  0
 24 25  2  0
 25 26  1  0
 26 27  2  0
 27 28  1  0
 28 29  2  0
 29 30  1  0
 30 31  1  0
 30 32  1  0
 30 33  1  0
 33 34  2  0
 33 35  1  0
 33 36  1  0
 29 37  1  0
 37 38  2  0
 38 39  1  0
 39 40  2  0
 17 41  2  0
  8  2  1  0
 41 12  1  0
 40 24  1  0
 39 27  1  0
  1 42  1  0
  1 43  1  0
  1 44  1  0
  2 45  1  6
  3 46  1  0
  3 47  1  0
  4 48  1  0
  4 49  1  0
  5 50  1  0
  5 51  1  0
  6 52  1  6
  7 53  1  0
  7 54  1  0
  7 55  1  0
 13 56  1  0
 14 57  1  0
 25 58  1  0
 26 59  1  0
 28 60  1  0
 37 61  1  0
 38 62  1  0
 40 63  1  0
 41 64  1  0
M  CHG  4   9  -1  21  -1  35  -1  36  -1
M  END
>  <meeko>  (9) 
{"is_sidechain": [false], "free_energy": -7.267, "intermolecular_energy": -10.885, "internal_energy": -3.837}

$$$$
