LIB_MCMVYADVIOSDHY__M_PUB_ALL__e8__s20260927
     RDKit          3D

 45 46  0  0  0  0  0  0  0  0999 V2000
    7.7030   -6.8060    3.6220 C   0  0  0  0  0  0  0  0  0  0  0  0
    6.8380   -7.5300    2.7500 O   0  0  0  0  0  0  0  0  0  0  0  0
    7.4210   -7.9040    1.5660 C   0  0  0  0  0  0  0  0  0  0  0  0
    8.2130   -7.1930    0.9500 O   0  0  0  0  0  0  0  0  0  0  0  0
    6.9940   -9.2430    1.1130 C   0  0  0  0  0  0  0  0  0  0  0  0
    7.1620   -9.6790   -0.1920 N   0  0  0  0  0  0  0  0  0  0  0  0
    6.6600  -10.8900   -0.1860 C   0  0  0  0  0  0  0  0  0  0  0  0
    6.5850  -11.9660   -1.5380 S   0  0  0  0  0  0  0  0  0  0  0  0
    8.3350  -12.2040   -1.7790 C   0  0  0  0  0  0  0  0  0  0  0  0
    8.9110  -12.1220   -3.0510 C   0  0  0  0  0  0  0  0  0  0  0  0
   10.2890  -12.2980   -3.2240 C   0  0  0  0  0  0  0  0  0  0  0  0
   11.1070  -12.5500   -2.1230 C   0  0  0  0  0  0  0  0  0  0  0  0
   12.4610  -12.7410   -2.1520 O   0  0  0  0  0  0  0  0  0  0  0  0
   13.2740  -11.5810   -2.0300 C   0  0  0  0  0  0  0  0  0  0  0  0
   10.5340  -12.6200   -0.8510 C   0  0  0  0  0  0  0  0  0  0  0  0
    9.1580  -12.4470   -0.6760 C   0  0  0  0  0  0  0  0  0  0  0  0
    6.2140  -11.1990    1.0630 N   0  0  0  0  0  0  0  0  0  0  0  0
    5.5640  -12.4100    1.5320 C   0  0  0  0  0  0  0  0  0  0  0  0
    6.5320  -13.4580    1.5820 O   0  0  0  0  0  0  0  0  0  0  0  0
    5.9610  -14.7670    1.5820 C   0  0  0  0  0  0  0  0  0  0  0  0
    6.2570  -15.5600    0.3090 C   0  0  0  0  0  0  0  0  0  0  0  0
    7.6310  -15.3690   -0.0700 O   0  0  0  0  0  0  0  0  0  0  0  0
    7.9700  -15.7530   -1.3290 C   0  0  0  0  0  0  0  0  0  0  0  0
    9.2860  -16.4680   -1.3120 C   0  0  0  0  0  0  0  0  0  0  0  0
    7.3050  -15.5550   -2.3370 O   0  0  0  0  0  0  0  0  0  0  0  0
    6.3990  -10.1560    1.9100 N   0  0  0  0  0  0  0  0  0  0  0  0
    7.4391   -7.0269    4.6668 H   0  0  0  0  0  0  0  0  0  0  0  0
    8.7451   -7.1050    3.4360 H   0  0  0  0  0  0  0  0  0  0  0  0
    7.5922   -5.7275    3.4360 H   0  0  0  0  0  0  0  0  0  0  0  0
    8.2746  -11.9171   -3.9245 H   0  0  0  0  0  0  0  0  0  0  0  0
   10.7277  -12.2374   -4.2309 H   0  0  0  0  0  0  0  0  0  0  0  0
   13.4326  -11.3547   -0.9653 H   0  0  0  0  0  0  0  0  0  0  0  0
   14.2447  -11.7609   -2.5152 H   0  0  0  0  0  0  0  0  0  0  0  0
   12.7737  -10.7299   -2.5152 H   0  0  0  0  0  0  0  0  0  0  0  0
   11.1731  -12.8135    0.0232 H   0  0  0  0  0  0  0  0  0  0  0  0
    8.7219  -12.5023    0.3324 H   0  0  0  0  0  0  0  0  0  0  0  0
    5.1480  -12.2419    2.5363 H   0  0  0  0  0  0  0  0  0  0  0  0
    4.7472  -12.6860    0.8489 H   0  0  0  0  0  0  0  0  0  0  0  0
    6.3648  -15.3233    2.4408 H   0  0  0  0  0  0  0  0  0  0  0  0
    4.8694  -14.6445    1.6411 H   0  0  0  0  0  0  0  0  0  0  0  0
    6.0731  -16.6289    0.4925 H   0  0  0  0  0  0  0  0  0  0  0  0
    5.6022  -15.2074   -0.5015 H   0  0  0  0  0  0  0  0  0  0  0  0
    9.5978  -16.6374   -0.2708 H   0  0  0  0  0  0  0  0  0  0  0  0
    9.1846  -17.4350   -1.8264 H   0  0  0  0  0  0  0  0  0  0  0  0
   10.0421  -15.8567   -1.8264 H   0  0  0  0  0  0  0  0  0  0  0  0
  1  2  1  0
  2  3  1  0
  3  4  2  0
  3  5  1  0
  5  6  1  0
  6  7  2  0
  7  8  1  0
  8  9  1  0
  9 10  2  0
 10 11  1  0
 11 12  2  0
 12 13  1  0
 13 14  1  0
 12 15  1  0
 15 16  2  0
  7 17  1  0
 17 18  1  0
 18 19  1  0
 19 20  1  0
 20 21  1  0
 21 22  1  0
 22 23  1  0
 23 24  1  0
 23 25  2  0
 17 26  1  0
 26  5  2  0
 16  9  1  0
  1 27  1  0
  1 28  1  0
  1 29  1  0
 10 30  1  0
 11 31  1  0
 14 32  1  0
 14 33  1  0
 14 34  1  0
 15 35  1  0
 16 36  1  0
 18 37  1  0
 18 38  1  0
 20 39  1  0
 20 40  1  0
 21 41  1  0
 21 42  1  0
 24 43  1  0
 24 44  1  0
 24 45  1  0
M  END
>  <meeko>  (1) 
{"is_sidechain": [false], "free_energy": -5.579, "intermolecular_energy": -9.167, "internal_energy": -1.386}

$$$$
LIB_MCMVYADVIOSDHY__M_PUB_ALL__e8__s20260927
     RDKit          3D

 45 46  0  0  0  0  0  0  0  0999 V2000
    7.1900   -7.7040    1.6770 C   0  0  0  0  0  0  0  0  0  0  0  0
    7.6410   -8.8950    1.0360 O   0  0  0  0  0  0  0  0  0  0  0  0
    6.8030   -9.9700    1.1950 C   0  0  0  0  0  0  0  0  0  0  0  0
    5.9800  -10.0530    2.1040 O   0  0  0  0  0  0  0  0  0  0  0  0
    6.9990  -11.0090    0.1650 C   0  0  0  0  0  0  0  0  0  0  0  0
    6.8200  -10.7620   -1.1870 N   0  0  0  0  0  0  0  0  0  0  0  0
    7.0800  -11.9150   -1.7540 C   0  0  0  0  0  0  0  0  0  0  0  0
    7.0340  -12.2480   -3.4510 S   0  0  0  0  0  0  0  0  0  0  0  0
    5.3600  -12.8530   -3.5520 C   0  0  0  0  0  0  0  0  0  0  0  0
    4.3050  -12.0100   -3.9150 C   0  0  0  0  0  0  0  0  0  0  0  0
    2.9970  -12.5020   -4.0030 C   0  0  0  0  0  0  0  0  0  0  0  0
    2.7330  -13.8450   -3.7380 C   0  0  0  0  0  0  0  0  0  0  0  0
    1.5080  -14.4510   -3.7870 O   0  0  0  0  0  0  0  0  0  0  0  0
    0.7420  -14.2510   -4.9690 C   0  0  0  0  0  0  0  0  0  0  0  0
    3.7900  -14.6900   -3.3870 C   0  0  0  0  0  0  0  0  0  0  0  0
    5.0960  -14.2010   -3.2960 C   0  0  0  0  0  0  0  0  0  0  0  0
    7.4190  -12.8310   -0.8040 N   0  0  0  0  0  0  0  0  0  0  0  0
    7.7580  -14.2350   -0.9620 C   0  0  0  0  0  0  0  0  0  0  0  0
    9.1080  -14.4280   -0.5380 O   0  0  0  0  0  0  0  0  0  0  0  0
   10.0430  -14.4860   -1.6160 C   0  0  0  0  0  0  0  0  0  0  0  0
   11.4180  -13.9200   -1.2600 C   0  0  0  0  0  0  0  0  0  0  0  0
   11.5380  -13.8070    0.1690 O   0  0  0  0  0  0  0  0  0  0  0  0
   11.5040  -12.5480    0.6810 C   0  0  0  0  0  0  0  0  0  0  0  0
   12.6270  -11.7340    0.1170 C   0  0  0  0  0  0  0  0  0  0  0  0
   10.6810  -12.1270    1.4820 O   0  0  0  0  0  0  0  0  0  0  0  0
    7.3570  -12.2820    0.4350 N   0  0  0  0  0  0  0  0  0  0  0  0
    7.2391   -7.8338    2.7682 H   0  0  0  0  0  0  0  0  0  0  0  0
    7.8314   -6.8616    1.3787 H   0  0  0  0  0  0  0  0  0  0  0  0
    6.1515   -7.4977    1.3787 H   0  0  0  0  0  0  0  0  0  0  0  0
    4.5045  -10.9505   -4.1334 H   0  0  0  0  0  0  0  0  0  0  0  0
    2.1749  -11.8265   -4.2822 H   0  0  0  0  0  0  0  0  0  0  0  0
   -0.2891  -13.9818   -4.6965 H   0  0  0  0  0  0  0  0  0  0  0  0
    1.1883  -13.4393   -5.5622 H   0  0  0  0  0  0  0  0  0  0  0  0
    0.7345  -15.1773   -5.5622 H   0  0  0  0  0  0  0  0  0  0  0  0
    3.5914  -15.7520   -3.1801 H   0  0  0  0  0  0  0  0  0  0  0  0
    5.9180  -14.8788   -3.0222 H   0  0  0  0  0  0  0  0  0  0  0  0
    7.0848  -14.8503   -0.3470 H   0  0  0  0  0  0  0  0  0  0  0  0
    7.6488  -14.5318   -2.0156 H   0  0  0  0  0  0  0  0  0  0  0  0
   10.1657  -15.5376   -1.9146 H   0  0  0  0  0  0  0  0  0  0  0  0
    9.6382  -13.8665   -2.4299 H   0  0  0  0  0  0  0  0  0  0  0  0
   12.2006  -14.5926   -1.6411 H   0  0  0  0  0  0  0  0  0  0  0  0
   11.5330  -12.9256   -1.7160 H   0  0  0  0  0  0  0  0  0  0  0  0
   13.2183  -11.3054    0.9396 H   0  0  0  0  0  0  0  0  0  0  0  0
   13.2710  -12.3765   -0.5015 H   0  0  0  0  0  0  0  0  0  0  0  0
   12.2168  -10.9221   -0.5015 H   0  0  0  0  0  0  0  0  0  0  0  0
  1  2  1  0
  2  3  1  0
  3  4  2  0
  3  5  1  0
  5  6  1  0
  6  7  2  0
  7  8  1  0
  8  9  1  0
  9 10  2  0
 10 11  1  0
 11 12  2  0
 12 13  1  0
 13 14  1  0
 12 15  1  0
 15 16  2  0
  7 17  1  0
 17 18  1  0
 18 19  1  0
 19 20  1  0
 20 21  1  0
 21 22  1  0
 22 23  1  0
 23 24  1  0
 23 25  2  0
 17 26  1  0
 26  5  2  0
 16  9  1  0
  1 27  1  0
  1 28  1  0
  1 29  1  0
 10 30  1  0
 11 31  1  0
 14 32  1  0
 14 33  1  0
 14 34  1  0
 15 35  1  0
 16 36  1  0
 18 37  1  0
 18 38  1  0
 20 39  1  0
 20 40  1  0
 21 41  1  0
 21 42  1  0
 24 43  1  0
 24 44  1  0
 24 45  1  0
M  END
>  <meeko>  (2) 
{"is_sidechain": [false], "free_energy": -5.453, "intermolecular_energy": -9.365, "internal_energy": -0.98}

$$$$
LIB_MCMVYADVIOSDHY__M_PUB_ALL__e8__s20260927
     RDKit          3D

 45 46  0  0  0  0  0  0  0  0999 V2000
    7.8000  -11.6870    1.0160 C   0  0  0  0  0  0  0  0  0  0  0  0
    6.5880  -11.8060    1.7570 O   0  0  0  0  0  0  0  0  0  0  0  0
    6.0720  -13.0770    1.7870 C   0  0  0  0  0  0  0  0  0  0  0  0
    6.7070  -14.0530    2.1820 O   0  0  0  0  0  0  0  0  0  0  0  0
    4.6810  -13.1450    1.2940 C   0  0  0  0  0  0  0  0  0  0  0  0
    4.0940  -12.1170    0.5740 N   0  0  0  0  0  0  0  0  0  0  0  0
    2.8820  -12.5540    0.3330 C   0  0  0  0  0  0  0  0  0  0  0  0
    1.6530  -11.7130   -0.5460 S   0  0  0  0  0  0  0  0  0  0  0  0
    2.4060  -11.7650   -2.1610 C   0  0  0  0  0  0  0  0  0  0  0  0
    2.8430  -12.9710   -2.7190 C   0  0  0  0  0  0  0  0  0  0  0  0
    3.4210  -13.0000   -3.9940 C   0  0  0  0  0  0  0  0  0  0  0  0
    3.5580  -11.8230   -4.7280 C   0  0  0  0  0  0  0  0  0  0  0  0
    4.1020  -11.7110   -5.9780 O   0  0  0  0  0  0  0  0  0  0  0  0
    5.2380  -12.5210   -6.2560 C   0  0  0  0  0  0  0  0  0  0  0  0
    3.1090  -10.6200   -4.1760 C   0  0  0  0  0  0  0  0  0  0  0  0
    2.5350  -10.5880   -2.9030 C   0  0  0  0  0  0  0  0  0  0  0  0
    2.7270  -13.7990    0.8640 N   0  0  0  0  0  0  0  0  0  0  0  0
    1.5540  -14.6560    0.8660 C   0  0  0  0  0  0  0  0  0  0  0  0
    1.8390  -15.8230    0.0950 O   0  0  0  0  0  0  0  0  0  0  0  0
    0.7620  -16.2260   -0.7530 C   0  0  0  0  0  0  0  0  0  0  0  0
    0.0340  -15.0550   -1.4120 C   0  0  0  0  0  0  0  0  0  0  0  0
   -1.3860  -15.2830   -1.3650 O   0  0  0  0  0  0  0  0  0  0  0  0
   -2.0360  -14.8200   -0.2640 C   0  0  0  0  0  0  0  0  0  0  0  0
   -2.7610  -15.9420    0.4140 C   0  0  0  0  0  0  0  0  0  0  0  0
   -2.0350  -13.6620    0.1280 O   0  0  0  0  0  0  0  0  0  0  0  0
    3.8570  -14.1940    1.5000 N   0  0  0  0  0  0  0  0  0  0  0  0
    8.6482  -11.6037    1.7114 H   0  0  0  0  0  0  0  0  0  0  0  0
    7.9313  -12.5766    0.3824 H   0  0  0  0  0  0  0  0  0  0  0  0
    7.7557  -10.7889    0.3824 H   0  0  0  0  0  0  0  0  0  0  0  0
    2.7314  -13.9060   -2.1504 H   0  0  0  0  0  0  0  0  0  0  0  0
    3.7679  -13.9541   -4.4175 H   0  0  0  0  0  0  0  0  0  0  0  0
    5.6958  -12.8474   -5.3106 H   0  0  0  0  0  0  0  0  0  0  0  0
    4.9269  -13.4022   -6.8362 H   0  0  0  0  0  0  0  0  0  0  0  0
    5.9697  -11.9397   -6.8362 H   0  0  0  0  0  0  0  0  0  0  0  0
    3.2088   -9.6875   -4.7508 H   0  0  0  0  0  0  0  0  0  0  0  0
    2.1836   -9.6338   -2.4835 H   0  0  0  0  0  0  0  0  0  0  0  0
    1.3086  -14.9452    1.8985 H   0  0  0  0  0  0  0  0  0  0  0  0
    0.6972  -14.1199    0.4320 H   0  0  0  0  0  0  0  0  0  0  0  0
    1.1659  -16.8746   -1.5443 H   0  0  0  0  0  0  0  0  0  0  0  0
    0.0292  -16.7474   -0.1197 H   0  0  0  0  0  0  0  0  0  0  0  0
    0.2738  -14.1255   -0.8748 H   0  0  0  0  0  0  0  0  0  0  0  0
    0.3560  -14.9672   -2.4602 H   0  0  0  0  0  0  0  0  0  0  0  0
   -2.6837  -15.8224    1.5047 H   0  0  0  0  0  0  0  0  0  0  0  0
   -3.8202  -15.9263    0.1176 H   0  0  0  0  0  0  0  0  0  0  0  0
   -2.3115  -16.9012    0.1176 H   0  0  0  0  0  0  0  0  0  0  0  0
  1  2  1  0
  2  3  1  0
  3  4  2  0
  3  5  1  0
  5  6  1  0
  6  7  2  0
  7  8  1  0
  8  9  1  0
  9 10  2  0
 10 11  1  0
 11 12  2  0
 12 13  1  0
 13 14  1  0
 12 15  1  0
 15 16  2  0
  7 17  1  0
 17 18  1  0
 18 19  1  0
 19 20  1  0
 20 21  1  0
 21 22  1  0
 22 23  1  0
 23 24  1  0
 23 25  2  0
 17 26  1  0
 26  5  2  0
 16  9  1  0
  1 27  1  0
  1 28  1  0
  1 29  1  0
 10 30  1  0
 11 31  1  0
 14 32  1  0
 14 33  1  0
 14 34  1  0
 15 35  1  0
 16 36  1  0
 18 37  1  0
 18 38  1  0
 20 39  1  0
 20 40  1  0
 21 41  1  0
 21 42  1  0
 24 43  1  0
 24 44  1  0
 24 45  1  0
M  END
>  <meeko>  (3) 
{"is_sidechain": [false], "free_energy": -5.306, "intermolecular_energy": -8.838, "internal_energy": -1.266}

$$$$
LIB_MCMVYADVIOSDHY__M_PUB_ALL__e8__s20260927
     RDKit          3D

 45 46  0  0  0  0  0  0  0  0999 V2000
    7.5600   -7.0910    1.5380 C   0  0  0  0  0  0  0  0  0  0  0  0
    7.4480   -8.3960    0.9760 O   0  0  0  0  0  0  0  0  0  0  0  0
    6.6640   -9.2550    1.7030 C   0  0  0  0  0  0  0  0  0  0  0  0
    5.9250   -8.8860    2.6130 O   0  0  0  0  0  0  0  0  0  0  0  0
    6.8080  -10.6630    1.2800 C   0  0  0  0  0  0  0  0  0  0  0  0
    5.9200  -11.6530    1.6690 N   0  0  0  0  0  0  0  0  0  0  0  0
    6.3890  -12.7360    1.0990 C   0  0  0  0  0  0  0  0  0  0  0  0
    5.7020  -14.3200    1.2050 S   0  0  0  0  0  0  0  0  0  0  0  0
    4.9340  -14.3790   -0.4030 C   0  0  0  0  0  0  0  0  0  0  0  0
    5.1200  -15.4720   -1.2560 C   0  0  0  0  0  0  0  0  0  0  0  0
    4.5010  -15.5110   -2.5110 C   0  0  0  0  0  0  0  0  0  0  0  0
    3.6810  -14.4610   -2.9220 C   0  0  0  0  0  0  0  0  0  0  0  0
    3.0200  -14.3730   -4.1160 O   0  0  0  0  0  0  0  0  0  0  0  0
    1.6360  -14.0520   -4.0590 C   0  0  0  0  0  0  0  0  0  0  0  0
    3.4860  -13.3750   -2.0640 C   0  0  0  0  0  0  0  0  0  0  0  0
    4.1050  -13.3320   -0.8120 C   0  0  0  0  0  0  0  0  0  0  0  0
    7.5050  -12.4340    0.3790 N   0  0  0  0  0  0  0  0  0  0  0  0
    8.3680  -13.3130   -0.3900 C   0  0  0  0  0  0  0  0  0  0  0  0
    8.6020  -12.7210   -1.6680 O   0  0  0  0  0  0  0  0  0  0  0  0
    9.9860  -12.5960   -1.9960 C   0  0  0  0  0  0  0  0  0  0  0  0
   10.8540  -13.7120   -1.4140 C   0  0  0  0  0  0  0  0  0  0  0  0
   12.0920  -13.1590   -0.9340 O   0  0  0  0  0  0  0  0  0  0  0  0
   12.0440  -12.5270    0.2700 C   0  0  0  0  0  0  0  0  0  0  0  0
   12.6550  -11.1640    0.1590 C   0  0  0  0  0  0  0  0  0  0  0  0
   11.5720  -12.9900    1.2990 O   0  0  0  0  0  0  0  0  0  0  0  0
    7.8060  -11.1160    0.4920 N   0  0  0  0  0  0  0  0  0  0  0  0
    7.5538   -7.1627    2.6356 H   0  0  0  0  0  0  0  0  0  0  0  0
    8.5012   -6.6284    1.2060 H   0  0  0  0  0  0  0  0  0  0  0  0
    6.7114   -6.4748    1.2060 H   0  0  0  0  0  0  0  0  0  0  0  0
    5.7588  -16.3089   -0.9375 H   0  0  0  0  0  0  0  0  0  0  0  0
    4.6621  -16.3730   -3.1751 H   0  0  0  0  0  0  0  0  0  0  0  0
    1.3196  -13.9786   -3.0080 H   0  0  0  0  0  0  0  0  0  0  0  0
    1.4618  -13.0896   -4.5624 H   0  0  0  0  0  0  0  0  0  0  0  0
    1.0559  -14.8394   -4.5624 H   0  0  0  0  0  0  0  0  0  0  0  0
    2.8373  -12.5440   -2.3782 H   0  0  0  0  0  0  0  0  0  0  0  0
    3.9390  -12.4716   -0.1470 H   0  0  0  0  0  0  0  0  0  0  0  0
    9.3244  -13.4465    0.1368 H   0  0  0  0  0  0  0  0  0  0  0  0
    7.8882  -14.2950   -0.5139 H   0  0  0  0  0  0  0  0  0  0  0  0
   10.0870  -12.6116   -3.0912 H   0  0  0  0  0  0  0  0  0  0  0  0
   10.3382  -11.6504   -1.5579 H   0  0  0  0  0  0  0  0  0  0  0  0
   10.3209  -14.1940   -0.5812 H   0  0  0  0  0  0  0  0  0  0  0  0
   11.0649  -14.4565   -2.1958 H   0  0  0  0  0  0  0  0  0  0  0  0
   12.8360  -10.7602    1.1661 H   0  0  0  0  0  0  0  0  0  0  0  0
   13.6084  -11.2328   -0.3853 H   0  0  0  0  0  0  0  0  0  0  0  0
   11.9693  -10.4980   -0.3853 H   0  0  0  0  0  0  0  0  0  0  0  0
  1  2  1  0
  2  3  1  0
  3  4  2  0
  3  5  1  0
  5  6  1  0
  6  7  2  0
  7  8  1  0
  8  9  1  0
  9 10  2  0
 10 11  1  0
 11 12  2  0
 12 13  1  0
 13 14  1  0
 12 15  1  0
 15 16  2  0
  7 17  1  0
 17 18  1  0
 18 19  1  0
 19 20  1  0
 20 21  1  0
 21 22  1  0
 22 23  1  0
 23 24  1  0
 23 25  2  0
 17 26  1  0
 26  5  2  0
 16  9  1  0
  1 27  1  0
  1 28  1  0
  1 29  1  0
 10 30  1  0
 11 31  1  0
 14 32  1  0
 14 33  1  0
 14 34  1  0
 15 35  1  0
 16 36  1  0
 18 37  1  0
 18 38  1  0
 20 39  1  0
 20 40  1  0
 21 41  1  0
 21 42  1  0
 24 43  1  0
 24 44  1  0
 24 45  1  0
M  END
>  <meeko>  (4) 
{"is_sidechain": [false], "free_energy": -5.297, "intermolecular_energy": -8.988, "internal_energy": -1.102}

$$$$
LIB_MCMVYADVIOSDHY__M_PUB_ALL__e8__s20260927
     RDKit          3D

 45 46  0  0  0  0  0  0  0  0999 V2000
    7.1230  -10.4780    1.0540 C   0  0  0  0  0  0  0  0  0  0  0  0
    6.2660  -11.3450    1.7930 O   0  0  0  0  0  0  0  0  0  0  0  0
    6.3940  -12.6720    1.4670 C   0  0  0  0  0  0  0  0  0  0  0  0
    7.4350  -13.3070    1.6260 O   0  0  0  0  0  0  0  0  0  0  0  0
    5.1560  -13.2480    0.9070 C   0  0  0  0  0  0  0  0  0  0  0  0
    4.3780  -12.5810   -0.0260 N   0  0  0  0  0  0  0  0  0  0  0  0
    3.3890  -13.4080   -0.2600 C   0  0  0  0  0  0  0  0  0  0  0  0
    2.0770  -13.1420   -1.3550 S   0  0  0  0  0  0  0  0  0  0  0  0
    1.1610  -11.9610   -0.3830 C   0  0  0  0  0  0  0  0  0  0  0  0
    0.6190  -12.3090    0.8590 C   0  0  0  0  0  0  0  0  0  0  0  0
   -0.0870  -11.3680    1.6180 C   0  0  0  0  0  0  0  0  0  0  0  0
   -0.2480  -10.0650    1.1470 C   0  0  0  0  0  0  0  0  0  0  0  0
   -0.9120   -9.0540    1.7850 O   0  0  0  0  0  0  0  0  0  0  0  0
   -2.3320   -9.1220    1.7870 C   0  0  0  0  0  0  0  0  0  0  0  0
    0.3050   -9.7150   -0.0880 C   0  0  0  0  0  0  0  0  0  0  0  0
    1.0070  -10.6530   -0.8490 C   0  0  0  0  0  0  0  0  0  0  0  0
    3.5490  -14.5410    0.4800 N   0  0  0  0  0  0  0  0  0  0  0  0
    2.6930  -15.7120    0.5650 C   0  0  0  0  0  0  0  0  0  0  0  0
    2.6730  -16.1660    1.9180 O   0  0  0  0  0  0  0  0  0  0  0  0
    2.3790  -17.5580    2.0500 C   0  0  0  0  0  0  0  0  0  0  0  0
    1.1130  -17.8390    2.8590 C   0  0  0  0  0  0  0  0  0  0  0  0
    0.0710  -16.9330    2.4540 O   0  0  0  0  0  0  0  0  0  0  0  0
   -0.9720  -17.4790    1.7730 C   0  0  0  0  0  0  0  0  0  0  0  0
   -1.0980  -16.8380    0.4260 C   0  0  0  0  0  0  0  0  0  0  0  0
   -1.7050  -18.3670    2.1870 O   0  0  0  0  0  0  0  0  0  0  0  0
    4.6630  -14.4570    1.2500 N   0  0  0  0  0  0  0  0  0  0  0  0
    7.7214   -9.8727    1.7508 H   0  0  0  0  0  0  0  0  0  0  0  0
    7.7932  -11.0776    0.4205 H   0  0  0  0  0  0  0  0  0  0  0  0
    6.5157   -9.8148    0.4205 H   0  0  0  0  0  0  0  0  0  0  0  0
    0.7488  -13.3317    1.2428 H   0  0  0  0  0  0  0  0  0  0  0  0
   -0.5160  -11.6571    2.5887 H   0  0  0  0  0  0  0  0  0  0  0  0
   -2.6968   -9.1395    2.8246 H   0  0  0  0  0  0  0  0  0  0  0  0
   -2.7419   -8.2425    1.2690 H   0  0  0  0  0  0  0  0  0  0  0  0
   -2.6560  -10.0367    1.2690 H   0  0  0  0  0  0  0  0  0  0  0  0
    0.1861   -8.6886   -0.4653 H   0  0  0  0  0  0  0  0  0  0  0  0
    1.4395  -10.3610   -1.8173 H   0  0  0  0  0  0  0  0  0  0  0  0
    1.6732  -15.4490    0.2475 H   0  0  0  0  0  0  0  0  0  0  0  0
    3.0777  -16.5063   -0.0916 H   0  0  0  0  0  0  0  0  0  0  0  0
    2.2511  -17.9839    1.0439 H   0  0  0  0  0  0  0  0  0  0  0  0
    3.2187  -18.0163    2.5930 H   0  0  0  0  0  0  0  0  0  0  0  0
    0.7873  -18.8746    2.6815 H   0  0  0  0  0  0  0  0  0  0  0  0
    1.3243  -17.6981    3.9293 H   0  0  0  0  0  0  0  0  0  0  0  0
   -1.3088  -15.7654    0.5486 H   0  0  0  0  0  0  0  0  0  0  0  0
   -0.1576  -16.9656   -0.1302 H   0  0  0  0  0  0  0  0  0  0  0  0
   -1.9202  -17.3120   -0.1302 H   0  0  0  0  0  0  0  0  0  0  0  0
  1  2  1  0
  2  3  1  0
  3  4  2  0
  3  5  1  0
  5  6  1  0
  6  7  2  0
  7  8  1  0
  8  9  1  0
  9 10  2  0
 10 11  1  0
 11 12  2  0
 12 13  1  0
 13 14  1  0
 12 15  1  0
 15 16  2  0
  7 17  1  0
 17 18  1  0
 18 19  1  0
 19 20  1  0
 20 21  1  0
 21 22  1  0
 22 23  1  0
 23 24  1  0
 23 25  2  0
 17 26  1  0
 26  5  2  0
 16  9  1  0
  1 27  1  0
  1 28  1  0
  1 29  1  0
 10 30  1  0
 11 31  1  0
 14 32  1  0
 14 33  1  0
 14 34  1  0
 15 35  1  0
 16 36  1  0
 18 37  1  0
 18 38  1  0
 20 39  1  0
 20 40  1  0
 21 41  1  0
 21 42  1  0
 24 43  1  0
 24 44  1  0
 24 45  1  0
M  END
>  <meeko>  (5) 
{"is_sidechain": [false], "free_energy": -5.244, "intermolecular_energy": -8.929, "internal_energy": -1.074}

$$$$
LIB_MCMVYADVIOSDHY__M_PUB_ALL__e8__s20260927
     RDKit          3D

 45 46  0  0  0  0  0  0  0  0999 V2000
    0.6120  -14.5180    5.5210 C   0  0  0  0  0  0  0  0  0  0  0  0
    1.7320  -14.7460    4.6690 O   0  0  0  0  0  0  0  0  0  0  0  0
    1.5960  -15.8340    3.8440 C   0  0  0  0  0  0  0  0  0  0  0  0
    1.6900  -16.9940    4.2380 O   0  0  0  0  0  0  0  0  0  0  0  0
    1.3320  -15.4600    2.4400 C   0  0  0  0  0  0  0  0  0  0  0  0
    1.6930  -14.2300    1.9140 N   0  0  0  0  0  0  0  0  0  0  0  0
    1.2880  -14.2900    0.6690 C   0  0  0  0  0  0  0  0  0  0  0  0
    1.4630  -13.0440   -0.5180 S   0  0  0  0  0  0  0  0  0  0  0  0
    0.5870  -11.7460    0.3360 C   0  0  0  0  0  0  0  0  0  0  0  0
    1.0520  -10.4270    0.3210 C   0  0  0  0  0  0  0  0  0  0  0  0
    0.3470   -9.4150    0.9850 C   0  0  0  0  0  0  0  0  0  0  0  0
   -0.8350   -9.7120    1.6620 C   0  0  0  0  0  0  0  0  0  0  0  0
   -1.6160   -8.8240    2.3480 O   0  0  0  0  0  0  0  0  0  0  0  0
   -1.5590   -8.8850    3.7680 C   0  0  0  0  0  0  0  0  0  0  0  0
   -1.3050  -11.0280    1.6660 C   0  0  0  0  0  0  0  0  0  0  0  0
   -0.6020  -12.0400    1.0060 C   0  0  0  0  0  0  0  0  0  0  0  0
    0.7150  -15.5020    0.4270 N   0  0  0  0  0  0  0  0  0  0  0  0
    0.1060  -16.0020   -0.7940 C   0  0  0  0  0  0  0  0  0  0  0  0
   -1.1680  -15.3810   -0.9560 O   0  0  0  0  0  0  0  0  0  0  0  0
   -2.2010  -15.9780   -0.1710 C   0  0  0  0  0  0  0  0  0  0  0  0
   -2.9180  -14.9880    0.7480 C   0  0  0  0  0  0  0  0  0  0  0  0
   -3.8230  -14.1810   -0.0260 O   0  0  0  0  0  0  0  0  0  0  0  0
   -4.3450  -13.0920    0.5980 C   0  0  0  0  0  0  0  0  0  0  0  0
   -4.2930  -11.9040   -0.3130 C   0  0  0  0  0  0  0  0  0  0  0  0
   -4.7970  -13.0710    1.7340 O   0  0  0  0  0  0  0  0  0  0  0  0
    0.7130  -16.2640    1.5480 N   0  0  0  0  0  0  0  0  0  0  0  0
    0.9313  -14.5830    6.5716 H   0  0  0  0  0  0  0  0  0  0  0  0
    0.1994  -13.5174    5.3244 H   0  0  0  0  0  0  0  0  0  0  0  0
   -0.1589  -15.2776    5.3244 H   0  0  0  0  0  0  0  0  0  0  0  0
    1.9797  -10.1822   -0.2171 H   0  0  0  0  0  0  0  0  0  0  0  0
    0.7271   -8.3828    0.9722 H   0  0  0  0  0  0  0  0  0  0  0  0
   -2.2512   -8.1443    4.1949 H   0  0  0  0  0  0  0  0  0  0  0  0
   -1.8471   -9.8922    4.1036 H   0  0  0  0  0  0  0  0  0  0  0  0
   -0.5346   -8.6657    4.1036 H   0  0  0  0  0  0  0  0  0  0  0  0
   -2.2388  -11.2703    2.1945 H   0  0  0  0  0  0  0  0  0  0  0  0
   -0.9866  -13.0706    1.0146 H   0  0  0  0  0  0  0  0  0  0  0  0
    0.7479  -15.7602   -1.6539 H   0  0  0  0  0  0  0  0  0  0  0  0
   -0.0137  -17.0938   -0.7338 H   0  0  0  0  0  0  0  0  0  0  0  0
   -2.9429  -16.4217   -0.8512 H   0  0  0  0  0  0  0  0  0  0  0  0
   -1.7235  -16.7306    0.4737 H   0  0  0  0  0  0  0  0  0  0  0  0
   -3.4831  -15.5412    1.5126 H   0  0  0  0  0  0  0  0  0  0  0  0
   -2.1761  -14.3393    1.2366 H   0  0  0  0  0  0  0  0  0  0  0  0
   -4.2527  -10.9831    0.2873 H   0  0  0  0  0  0  0  0  0  0  0  0
   -3.3968  -11.9675   -0.9476 H   0  0  0  0  0  0  0  0  0  0  0  0
   -5.1913  -11.8890   -0.9476 H   0  0  0  0  0  0  0  0  0  0  0  0
  1  2  1  0
  2  3  1  0
  3  4  2  0
  3  5  1  0
  5  6  1  0
  6  7  2  0
  7  8  1  0
  8  9  1  0
  9 10  2  0
 10 11  1  0
 11 12  2  0
 12 13  1  0
 13 14  1  0
 12 15  1  0
 15 16  2  0
  7 17  1  0
 17 18  1  0
 18 19  1  0
 19 20  1  0
 20 21  1  0
 21 22  1  0
 22 23  1  0
 23 24  1  0
 23 25  2  0
 17 26  1  0
 26  5  2  0
 16  9  1  0
  1 27  1  0
  1 28  1  0
  1 29  1  0
 10 30  1  0
 11 31  1  0
 14 32  1  0
 14 33  1  0
 14 34  1  0
 15 35  1  0
 16 36  1  0
 18 37  1  0
 18 38  1  0
 20 39  1  0
 20 40  1  0
 21 41  1  0
 21 42  1  0
 24 43  1  0
 24 44  1  0
 24 45  1  0
M  END
>  <meeko>  (6) 
{"is_sidechain": [false], "free_energy": -5.235, "intermolecular_energy": -8.734, "internal_energy": -1.253}

$$$$
LIB_MCMVYADVIOSDHY__M_PUB_ALL__e8__s20260927
     RDKit          3D

 45 46  0  0  0  0  0  0  0  0999 V2000
    7.6880  -13.4740   -0.3120 C   0  0  0  0  0  0  0  0  0  0  0  0
    7.0100  -12.5950    0.5830 O   0  0  0  0  0  0  0  0  0  0  0  0
    6.1800  -13.2310    1.4710 C   0  0  0  0  0  0  0  0  0  0  0  0
    6.5870  -13.8140    2.4740 O   0  0  0  0  0  0  0  0  0  0  0  0
    4.7550  -13.1420    1.0920 C   0  0  0  0  0  0  0  0  0  0  0  0
    4.2780  -12.1920    0.2040 N   0  0  0  0  0  0  0  0  0  0  0  0
    2.9920  -12.4400    0.1400 C   0  0  0  0  0  0  0  0  0  0  0  0
    1.8380  -11.5840   -0.8220 S   0  0  0  0  0  0  0  0  0  0  0  0
    2.5190  -11.9460   -2.4290 C   0  0  0  0  0  0  0  0  0  0  0  0
    3.0770  -10.9390   -3.2240 C   0  0  0  0  0  0  0  0  0  0  0  0
    3.6210  -11.2390   -4.4790 C   0  0  0  0  0  0  0  0  0  0  0  0
    3.6200  -12.5520   -4.9470 C   0  0  0  0  0  0  0  0  0  0  0  0
    4.1160  -12.9800   -6.1480 O   0  0  0  0  0  0  0  0  0  0  0  0
    5.2240  -12.2610   -6.6760 C   0  0  0  0  0  0  0  0  0  0  0  0
    3.0740  -13.5600   -4.1480 C   0  0  0  0  0  0  0  0  0  0  0  0
    2.5280  -13.2620   -2.8960 C   0  0  0  0  0  0  0  0  0  0  0  0
    2.6860  -13.5010    0.9380 N   0  0  0  0  0  0  0  0  0  0  0  0
    1.3940  -14.1100    1.2000 C   0  0  0  0  0  0  0  0  0  0  0  0
    0.5710  -13.1630    1.8800 O   0  0  0  0  0  0  0  0  0  0  0  0
   -0.7990  -13.2020    1.4790 C   0  0  0  0  0  0  0  0  0  0  0  0
   -1.4440  -11.8190    1.3780 C   0  0  0  0  0  0  0  0  0  0  0  0
   -0.6030  -10.8470    2.0230 O   0  0  0  0  0  0  0  0  0  0  0  0
   -0.7660   -9.5540    1.6330 C   0  0  0  0  0  0  0  0  0  0  0  0
   -2.2120   -9.1700    1.7190 C   0  0  0  0  0  0  0  0  0  0  0  0
    0.1270   -8.8020    1.2680 O   0  0  0  0  0  0  0  0  0  0  0  0
    3.7940  -13.9580    1.5730 N   0  0  0  0  0  0  0  0  0  0  0  0
    8.2599  -14.2154    0.2652 H   0  0  0  0  0  0  0  0  0  0  0  0
    6.9524  -13.9909   -0.9458 H   0  0  0  0  0  0  0  0  0  0  0  0
    8.3747  -12.8938   -0.9458 H   0  0  0  0  0  0  0  0  0  0  0  0
    3.0885   -9.9012   -2.8596 H   0  0  0  0  0  0  0  0  0  0  0  0
    4.0502  -10.4366   -5.0970 H   0  0  0  0  0  0  0  0  0  0  0  0
    5.8325  -11.8661   -5.8491 H   0  0  0  0  0  0  0  0  0  0  0  0
    5.8371  -12.9339   -7.2936 H   0  0  0  0  0  0  0  0  0  0  0  0
    4.8592  -11.4270   -7.2936 H   0  0  0  0  0  0  0  0  0  0  0  0
    3.0738  -14.5994   -4.5081 H   0  0  0  0  0  0  0  0  0  0  0  0
    2.1042  -14.0665   -2.2770 H   0  0  0  0  0  0  0  0  0  0  0  0
    0.9204  -14.3968    0.2495 H   0  0  0  0  0  0  0  0  0  0  0  0
    1.5225  -15.0089    1.8209 H   0  0  0  0  0  0  0  0  0  0  0  0
   -0.8599  -13.6875    0.4938 H   0  0  0  0  0  0  0  0  0  0  0  0
   -1.3472  -13.7593    2.2529 H   0  0  0  0  0  0  0  0  0  0  0  0
   -1.5691  -11.5497    0.3188 H   0  0  0  0  0  0  0  0  0  0  0  0
   -2.4269  -11.8370    1.8716 H   0  0  0  0  0  0  0  0  0  0  0  0
   -2.5083   -9.0913    2.7754 H   0  0  0  0  0  0  0  0  0  0  0  0
   -2.3640   -8.2003    1.2224 H   0  0  0  0  0  0  0  0  0  0  0  0
   -2.8251   -9.9365    1.2224 H   0  0  0  0  0  0  0  0  0  0  0  0
  1  2  1  0
  2  3  1  0
  3  4  2  0
  3  5  1  0
  5  6  1  0
  6  7  2  0
  7  8  1  0
  8  9  1  0
  9 10  2  0
 10 11  1  0
 11 12  2  0
 12 13  1  0
 13 14  1  0
 12 15  1  0
 15 16  2  0
  7 17  1  0
 17 18  1  0
 18 19  1  0
 19 20  1  0
 20 21  1  0
 21 22  1  0
 22 23  1  0
 23 24  1  0
 23 25  2  0
 17 26  1  0
 26  5  2  0
 16  9  1  0
  1 27  1  0
  1 28  1  0
  1 29  1  0
 10 30  1  0
 11 31  1  0
 14 32  1  0
 14 33  1  0
 14 34  1  0
 15 35  1  0
 16 36  1  0
 18 37  1  0
 18 38  1  0
 20 39  1  0
 20 40  1  0
 21 41  1  0
 21 42  1  0
 24 43  1  0
 24 44  1  0
 24 45  1  0
M  END
>  <meeko>  (7) 
{"is_sidechain": [false], "free_energy": -5.158, "intermolecular_energy": -8.784, "internal_energy": -1.076}

$$$$
LIB_MCMVYADVIOSDHY__M_PUB_ALL__e8__s20260927
     RDKit          3D

 45 46  0  0  0  0  0  0  0  0999 V2000
    7.4580   -7.3000    1.7260 C   0  0  0  0  0  0  0  0  0  0  0  0
    7.6470   -8.6160    1.2130 O   0  0  0  0  0  0  0  0  0  0  0  0
    6.6990   -9.5190    1.6220 C   0  0  0  0  0  0  0  0  0  0  0  0
    5.8480   -9.2640    2.4720 O   0  0  0  0  0  0  0  0  0  0  0  0
    6.8140  -10.8230    0.9390 C   0  0  0  0  0  0  0  0  0  0  0  0
    5.7090  -11.5750    0.5740 N   0  0  0  0  0  0  0  0  0  0  0  0
    6.2250  -12.6400    0.0110 C   0  0  0  0  0  0  0  0  0  0  0  0
    5.3400  -13.9640   -0.6640 S   0  0  0  0  0  0  0  0  0  0  0  0
    4.9930  -13.2560   -2.2630 C   0  0  0  0  0  0  0  0  0  0  0  0
    3.9270  -12.3680   -2.4480 C   0  0  0  0  0  0  0  0  0  0  0  0
    3.6740  -11.8100   -3.7060 C   0  0  0  0  0  0  0  0  0  0  0  0
    4.4900  -12.1260   -4.7920 C   0  0  0  0  0  0  0  0  0  0  0  0
    4.3540  -11.6530   -6.0680 O   0  0  0  0  0  0  0  0  0  0  0  0
    4.8440  -12.4830   -7.1130 C   0  0  0  0  0  0  0  0  0  0  0  0
    5.5620  -13.0030   -4.6040 C   0  0  0  0  0  0  0  0  0  0  0  0
    5.8160  -13.5640   -3.3500 C   0  0  0  0  0  0  0  0  0  0  0  0
    7.5840  -12.5500    0.0120 N   0  0  0  0  0  0  0  0  0  0  0  0
    8.5680  -13.5010   -0.4780 C   0  0  0  0  0  0  0  0  0  0  0  0
    8.6390  -13.3920   -1.8990 O   0  0  0  0  0  0  0  0  0  0  0  0
    9.5400  -12.3810   -2.3520 C   0  0  0  0  0  0  0  0  0  0  0  0
   11.0070  -12.6960   -2.0590 C   0  0  0  0  0  0  0  0  0  0  0  0
   11.5330  -11.7270   -1.1350 O   0  0  0  0  0  0  0  0  0  0  0  0
   12.8050  -11.3040   -1.3620 C   0  0  0  0  0  0  0  0  0  0  0  0
   13.4090  -10.7870   -0.0930 C   0  0  0  0  0  0  0  0  0  0  0  0
   13.3860  -11.3400   -2.4380 O   0  0  0  0  0  0  0  0  0  0  0  0
    7.9890  -11.4060    0.6170 N   0  0  0  0  0  0  0  0  0  0  0  0
    7.4624   -7.3309    2.8256 H   0  0  0  0  0  0  0  0  0  0  0  0
    8.2719   -6.6489    1.3742 H   0  0  0  0  0  0  0  0  0  0  0  0
    6.4938   -6.9043    1.3742 H   0  0  0  0  0  0  0  0  0  0  0  0
    3.2820  -12.1063   -1.5963 H   0  0  0  0  0  0  0  0  0  0  0  0
    2.8282  -11.1194   -3.8389 H   0  0  0  0  0  0  0  0  0  0  0  0
    5.3579  -13.3535   -6.6794 H   0  0  0  0  0  0  0  0  0  0  0  0
    4.0032  -12.8254   -7.7341 H   0  0  0  0  0  0  0  0  0  0  0  0
    5.5500  -11.9122   -7.7341 H   0  0  0  0  0  0  0  0  0  0  0  0
    6.2136  -13.2545   -5.4538 H   0  0  0  0  0  0  0  0  0  0  0  0
    6.6658  -14.2498   -3.2177 H   0  0  0  0  0  0  0  0  0  0  0  0
    9.5514  -13.2757   -0.0396 H   0  0  0  0  0  0  0  0  0  0  0  0
    8.2766  -14.5229   -0.1938 H   0  0  0  0  0  0  0  0  0  0  0  0
    9.4185  -12.2682   -3.4394 H   0  0  0  0  0  0  0  0  0  0  0  0
    9.2919  -11.4585   -1.8067 H   0  0  0  0  0  0  0  0  0  0  0  0
   11.0849  -13.7012   -1.6192 H   0  0  0  0  0  0  0  0  0  0  0  0
   11.5830  -12.6583   -2.9954 H   0  0  0  0  0  0  0  0  0  0  0  0
   12.8892  -11.2319    0.7683 H   0  0  0  0  0  0  0  0  0  0  0  0
   14.4748  -11.0570   -0.0576 H   0  0  0  0  0  0  0  0  0  0  0  0
   13.3067   -9.6923   -0.0576 H   0  0  0  0  0  0  0  0  0  0  0  0
  1  2  1  0
  2  3  1  0
  3  4  2  0
  3  5  1  0
  5  6  1  0
  6  7  2  0
  7  8  1  0
  8  9  1  0
  9 10  2  0
 10 11  1  0
 11 12  2  0
 12 13  1  0
 13 14  1  0
 12 15  1  0
 15 16  2  0
  7 17  1  0
 17 18  1  0
 18 19  1  0
 19 20  1  0
 20 21  1  0
 21 22  1  0
 22 23  1  0
 23 24  1  0
 23 25  2  0
 17 26  1  0
 26  5  2  0
 16  9  1  0
  1 27  1  0
  1 28  1  0
  1 29  1  0
 10 30  1  0
 11 31  1  0
 14 32  1  0
 14 33  1  0
 14 34  1  0
 15 35  1  0
 16 36  1  0
 18 37  1  0
 18 38  1  0
 20 39  1  0
 20 40  1  0
 21 41  1  0
 21 42  1  0
 24 43  1  0
 24 44  1  0
 24 45  1  0
M  END
>  <meeko>  (8) 
{"is_sidechain": [false], "free_energy": -5.157, "intermolecular_energy": -8.927, "internal_energy": -0.932}

$$$$
LIB_MCMVYADVIOSDHY__M_PUB_ALL__e8__s20260927
     RDKit          3D

 45 46  0  0  0  0  0  0  0  0999 V2000
   -2.0050   -9.3320    2.5810 C   0  0  0  0  0  0  0  0  0  0  0  0
   -1.6080   -9.7710    1.2840 O   0  0  0  0  0  0  0  0  0  0  0  0
   -0.2550   -9.7160    1.0630 C   0  0  0  0  0  0  0  0  0  0  0  0
    0.3750   -8.6620    1.0050 O   0  0  0  0  0  0  0  0  0  0  0  0
    0.3550  -11.0500    0.8980 C   0  0  0  0  0  0  0  0  0  0  0  0
    1.7000  -11.2260    0.6130 N   0  0  0  0  0  0  0  0  0  0  0  0
    1.8390  -12.5270    0.5430 C   0  0  0  0  0  0  0  0  0  0  0  0
    3.3100  -13.3770    0.2180 S   0  0  0  0  0  0  0  0  0  0  0  0
    3.5950  -12.7790   -1.4370 C   0  0  0  0  0  0  0  0  0  0  0  0
    4.7240  -12.0140   -1.7480 C   0  0  0  0  0  0  0  0  0  0  0  0
    4.9430  -11.5620   -3.0550 C   0  0  0  0  0  0  0  0  0  0  0  0
    4.0380  -11.8800   -4.0670 C   0  0  0  0  0  0  0  0  0  0  0  0
    4.1310  -11.5040   -5.3790 O   0  0  0  0  0  0  0  0  0  0  0  0
    4.4170  -12.5310   -6.3200 C   0  0  0  0  0  0  0  0  0  0  0  0
    2.9170  -12.6550   -3.7590 C   0  0  0  0  0  0  0  0  0  0  0  0
    2.6950  -13.1050   -2.4550 C   0  0  0  0  0  0  0  0  0  0  0  0
    0.6430  -13.1330    0.7860 N   0  0  0  0  0  0  0  0  0  0  0  0
    0.3150  -14.5480    0.7880 C   0  0  0  0  0  0  0  0  0  0  0  0
   -1.0370  -14.7030    1.2180 O   0  0  0  0  0  0  0  0  0  0  0  0
   -1.8940  -15.2650    0.2230 C   0  0  0  0  0  0  0  0  0  0  0  0
   -3.3360  -14.7640    0.3070 C   0  0  0  0  0  0  0  0  0  0  0  0
   -3.4600  -13.5280   -0.4180 O   0  0  0  0  0  0  0  0  0  0  0  0
   -3.8170  -12.4350    0.3080 C   0  0  0  0  0  0  0  0  0  0  0  0
   -4.2670  -11.3360   -0.6050 C   0  0  0  0  0  0  0  0  0  0  0  0
   -3.7850  -12.3500    1.5280 O   0  0  0  0  0  0  0  0  0  0  0  0
   -0.3280  -12.2110    0.9980 N   0  0  0  0  0  0  0  0  0  0  0  0
   -1.4743   -9.9189    3.3451 H   0  0  0  0  0  0  0  0  0  0  0  0
   -1.7574   -8.2668    2.6993 H   0  0  0  0  0  0  0  0  0  0  0  0
   -3.0897   -9.4716    2.6993 H   0  0  0  0  0  0  0  0  0  0  0  0
    5.4473  -11.7649   -0.9576 H   0  0  0  0  0  0  0  0  0  0  0  0
    5.8311  -10.9546   -3.2840 H   0  0  0  0  0  0  0  0  0  0  0  0
    4.6749  -13.4570   -5.7851 H   0  0  0  0  0  0  0  0  0  0  0  0
    3.5335  -12.7062   -6.9514 H   0  0  0  0  0  0  0  0  0  0  0  0
    5.2639  -12.2243   -6.9514 H   0  0  0  0  0  0  0  0  0  0  0  0
    2.2007  -12.9140   -4.5526 H   0  0  0  0  0  0  0  0  0  0  0  0
    1.8096  -13.7174   -2.2292 H   0  0  0  0  0  0  0  0  0  0  0  0
    0.4298  -14.9562   -0.2270 H   0  0  0  0  0  0  0  0  0  0  0  0
    0.9894  -15.0884    1.4686 H   0  0  0  0  0  0  0  0  0  0  0  0
   -1.4929  -15.0069   -0.7682 H   0  0  0  0  0  0  0  0  0  0  0  0
   -1.9184  -16.3515    0.3930 H   0  0  0  0  0  0  0  0  0  0  0  0
   -4.0105  -15.5146   -0.1309 H   0  0  0  0  0  0  0  0  0  0  0  0
   -3.6044  -14.5981    1.3608 H   0  0  0  0  0  0  0  0  0  0  0  0
   -4.6167  -10.4820   -0.0063 H   0  0  0  0  0  0  0  0  0  0  0  0
   -3.4262  -11.0191   -1.2396 H   0  0  0  0  0  0  0  0  0  0  0  0
   -5.0886  -11.6998   -1.2396 H   0  0  0  0  0  0  0  0  0  0  0  0
  1  2  1  0
  2  3  1  0
  3  4  2  0
  3  5  1  0
  5  6  1  0
  6  7  2  0
  7  8  1  0
  8  9  1  0
  9 10  2  0
 10 11  1  0
 11 12  2  0
 12 13  1  0
 13 14  1  0
 12 15  1  0
 15 16  2  0
  7 17  1  0
 17 18  1  0
 18 19  1  0
 19 20  1  0
 20 21  1  0
 21 22  1  0
 22 23  1  0
 23 24  1  0
 23 25  2  0
 17 26  1  0
 26  5  2  0
 16  9  1  0
  1 27  1  0
  1 28  1  0
  1 29  1  0
 10 30  1  0
 11 31  1  0
 14 32  1  0
 14 33  1  0
 14 34  1  0
 15 35  1  0
 16 36  1  0
 18 37  1  0
 18 38  1  0
 20 39  1  0
 20 40  1  0
 21 41  1  0
 21 42  1  0
 24 43  1  0
 24 44  1  0
 24 45  1  0
M  END
>  <meeko>  (9) 
{"is_sidechain": [false], "free_energy": -5.078, "intermolecular_energy": -8.477, "internal_energy": -1.253}

$$$$
