LIB_ZHCKPBKNEQACID__M_PUB_ALL__e8__s20260927
     RDKit          3D

 35 37  0  0  0  0  0  0  0  0999 V2000
   11.1330  -14.8580  -10.0360 C   0  0  0  0  0  0  0  0  0  0  0  0
   11.0330  -14.1260  -11.2510 O   0  0  0  0  0  0  0  0  0  0  0  0
   11.1650  -12.7660  -11.1770 C   0  0  0  0  0  0  0  0  0  0  0  0
   12.3700  -12.0950  -10.9470 C   0  0  0  0  0  0  0  0  0  0  0  0
   12.4030  -10.6940  -10.9060 C   0  0  0  0  0  0  0  0  0  0  0  0
   11.2350   -9.9490  -11.0980 C   0  0  0  0  0  0  0  0  0  0  0  0
   11.2900   -8.3770  -11.0460 C   0  0  0  0  0  0  0  0  0  0  0  0
   11.0690   -7.6310   -9.9400 N   0  0  0  0  0  0  0  0  0  0  0  0
   11.2080   -6.3240  -10.3120 N   0  0  0  0  0  0  0  0  0  0  0  0
   11.5110   -6.3200  -11.6300 C   0  0  0  0  0  0  0  0  0  0  0  0
   11.7640   -5.0280  -12.4910 C   0  0  0  0  0  0  0  0  0  0  0  0
   12.9390   -4.8990  -13.2220 C   0  0  0  0  0  0  0  0  0  0  0  0
   13.1090   -3.7430  -13.9590 C   0  0  0  0  0  0  0  0  0  0  0  0
   12.2050   -2.7350  -14.0130 N   0  0  0  0  0  0  0  0  0  0  0  0
   11.0680   -2.8870  -13.2890 C   0  0  0  0  0  0  0  0  0  0  0  0
   10.0630   -1.7770  -13.3430 C   0  0  0  0  0  0  0  0  0  0  0  0
   10.8100   -4.0140  -12.5180 C   0  0  0  0  0  0  0  0  0  0  0  0
   11.5630   -7.5830  -12.0970 N   0  0  0  0  0  0  0  0  0  0  0  0
   10.0230  -10.5930  -11.3310 C   0  0  0  0  0  0  0  0  0  0  0  0
   10.0110  -11.9890  -11.3640 C   0  0  0  0  0  0  0  0  0  0  0  0
    8.7440  -12.6450  -11.5940 N   0  0  0  0  0  0  0  0  0  0  0  0
    8.4600  -12.9310  -12.7660 O   0  0  0  0  0  0  0  0  0  0  0  0
    8.0240  -12.8550  -10.6070 O   0  0  0  0  0  0  0  0  0  0  0  0
   11.0388  -14.1688   -9.1839 H   0  0  0  0  0  0  0  0  0  0  0  0
   10.3289  -15.6073   -9.9921 H   0  0  0  0  0  0  0  0  0  0  0  0
   12.1086  -15.3642   -9.9921 H   0  0  0  0  0  0  0  0  0  0  0  0
   13.2964  -12.6690  -10.7975 H   0  0  0  0  0  0  0  0  0  0  0  0
   13.3558  -10.1762  -10.7212 H   0  0  0  0  0  0  0  0  0  0  0  0
   13.7052   -5.6882  -13.2140 H   0  0  0  0  0  0  0  0  0  0  0  0
   14.0373   -3.6338  -14.5389 H   0  0  0  0  0  0  0  0  0  0  0  0
    9.7920   -1.4777  -12.3198 H   0  0  0  0  0  0  0  0  0  0  0  0
   10.4954   -0.9164  -13.8744 H   0  0  0  0  0  0  0  0  0  0  0  0
    9.1638   -2.1220  -13.8744 H   0  0  0  0  0  0  0  0  0  0  0  0
    9.8760   -4.1028  -11.9437 H   0  0  0  0  0  0  0  0  0  0  0  0
    9.0986  -10.0171  -11.4851 H   0  0  0  0  0  0  0  0  0  0  0  0
  1  2  1  0
  2  3  1  0
  3  4  2  0
  4  5  1  0
  5  6  2  0
  6  7  1  0
  7  8  2  0
  8  9  1  0
  9 10  1  0
 10 11  1  0
 11 12  2  0
 12 13  1  0
 13 14  2  0
 14 15  1  0
 15 16  1  0
 15 17  2  0
 10 18  2  0
  6 19  1  0
 19 20  2  0
 20 21  1  0
 21 22  2  0
 21 23  1  0
 20  3  1  0
 18  7  1  0
 17 11  1  0
  1 24  1  0
  1 25  1  0
  1 26  1  0
  4 27  1  0
  5 28  1  0
 12 29  1  0
 13 30  1  0
 16 31  1  0
 16 32  1  0
 16 33  1  0
 17 34  1  0
 19 35  1  0
M  CHG  3   9  -1  21   1  23  -1
M  END
>  <meeko>  (1) 
{"is_sidechain": [false], "free_energy": -7.551, "intermolecular_energy": -9.317, "internal_energy": -0.463}

$$$$
LIB_ZHCKPBKNEQACID__M_PUB_ALL__e8__s20260927
     RDKit          3D

 35 37  0  0  0  0  0  0  0  0999 V2000
    9.7950  -14.6070  -10.3290 C   0  0  0  0  0  0  0  0  0  0  0  0
   10.5260  -13.9630  -11.3640 O   0  0  0  0  0  0  0  0  0  0  0  0
   10.6020  -12.5970  -11.3230 C   0  0  0  0  0  0  0  0  0  0  0  0
    9.5350  -11.7320  -11.5800 C   0  0  0  0  0  0  0  0  0  0  0  0
    9.7130  -10.3440  -11.4950 C   0  0  0  0  0  0  0  0  0  0  0  0
   10.9570   -9.8060  -11.1490 C   0  0  0  0  0  0  0  0  0  0  0  0
   11.1390   -8.2450  -11.0600 C   0  0  0  0  0  0  0  0  0  0  0  0
   11.0040   -7.5130   -9.9320 N   0  0  0  0  0  0  0  0  0  0  0  0
   11.2380   -6.2120  -10.2750 N   0  0  0  0  0  0  0  0  0  0  0  0
   11.5090   -6.1980  -11.6010 C   0  0  0  0  0  0  0  0  0  0  0  0
   11.8430   -4.9070  -12.4360 C   0  0  0  0  0  0  0  0  0  0  0  0
   13.1050   -4.7510  -12.9970 C   0  0  0  0  0  0  0  0  0  0  0  0
   13.3430   -3.5980  -13.7200 C   0  0  0  0  0  0  0  0  0  0  0  0
   12.4280   -2.6190  -13.9140 N   0  0  0  0  0  0  0  0  0  0  0  0
   11.2050   -2.7970  -13.3550 C   0  0  0  0  0  0  0  0  0  0  0  0
   10.1870   -1.7190  -13.5660 C   0  0  0  0  0  0  0  0  0  0  0  0
   10.8740   -3.9240  -12.6120 C   0  0  0  0  0  0  0  0  0  0  0  0
   11.4490   -7.4480  -12.0990 N   0  0  0  0  0  0  0  0  0  0  0  0
   12.0350  -10.6460  -10.8850 C   0  0  0  0  0  0  0  0  0  0  0  0
   11.8380  -12.0260  -10.9800 C   0  0  0  0  0  0  0  0  0  0  0  0
   12.9690  -12.8850  -10.7160 N   0  0  0  0  0  0  0  0  0  0  0  0
   13.1440  -13.2460   -9.5430 O   0  0  0  0  0  0  0  0  0  0  0  0
   13.6940  -13.1840  -11.6760 O   0  0  0  0  0  0  0  0  0  0  0  0
   10.1731  -14.2739   -9.3512 H   0  0  0  0  0  0  0  0  0  0  0  0
    8.7294  -14.3488  -10.4174 H   0  0  0  0  0  0  0  0  0  0  0  0
    9.9168  -15.6967  -10.4174 H   0  0  0  0  0  0  0  0  0  0  0  0
    8.5507  -12.1421  -11.8503 H   0  0  0  0  0  0  0  0  0  0  0  0
    8.8670   -9.6721  -11.7022 H   0  0  0  0  0  0  0  0  0  0  0  0
   13.8847   -5.5165  -12.8702 H   0  0  0  0  0  0  0  0  0  0  0  0
   14.3397   -3.4670  -14.1666 H   0  0  0  0  0  0  0  0  0  0  0  0
    9.8374   -1.3488  -12.5909 H   0  0  0  0  0  0  0  0  0  0  0  0
   10.6409   -0.8915  -14.1310 H   0  0  0  0  0  0  0  0  0  0  0  0
    9.3349   -2.1248  -14.1310 H   0  0  0  0  0  0  0  0  0  0  0  0
    9.8712   -4.0361  -12.1741 H   0  0  0  0  0  0  0  0  0  0  0  0
   13.0168  -10.2340  -10.6087 H   0  0  0  0  0  0  0  0  0  0  0  0
  1  2  1  0
  2  3  1  0
  3  4  2  0
  4  5  1  0
  5  6  2  0
  6  7  1  0
  7  8  2  0
  8  9  1  0
  9 10  1  0
 10 11  1  0
 11 12  2  0
 12 13  1  0
 13 14  2  0
 14 15  1  0
 15 16  1  0
 15 17  2  0
 10 18  2  0
  6 19  1  0
 19 20  2  0
 20 21  1  0
 21 22  2  0
 21 23  1  0
 20  3  1  0
 18  7  1  0
 17 11  1  0
  1 24  1  0
  1 25  1  0
  1 26  1  0
  4 27  1  0
  5 28  1  0
 12 29  1  0
 13 30  1  0
 16 31  1  0
 16 32  1  0
 16 33  1  0
 17 34  1  0
 19 35  1  0
M  CHG  3   9  -1  21   1  23  -1
M  END
>  <meeko>  (2) 
{"is_sidechain": [false], "free_energy": -7.494, "intermolecular_energy": -9.232, "internal_energy": -0.478}

$$$$
LIB_ZHCKPBKNEQACID__M_PUB_ALL__e8__s20260927
     RDKit          3D

 35 37  0  0  0  0  0  0  0  0999 V2000
   -9.0320  -17.2560    9.1630 C   0  0  0  0  0  0  0  0  0  0  0  0
   -9.3810  -16.2130    8.2600 O   0  0  0  0  0  0  0  0  0  0  0  0
   -8.4240  -15.8070    7.3700 C   0  0  0  0  0  0  0  0  0  0  0  0
   -7.3730  -14.9360    7.6730 C   0  0  0  0  0  0  0  0  0  0  0  0
   -6.4330  -14.5930    6.6920 C   0  0  0  0  0  0  0  0  0  0  0  0
   -6.5290  -15.1210    5.3990 C   0  0  0  0  0  0  0  0  0  0  0  0
   -5.4650  -14.7230    4.3090 C   0  0  0  0  0  0  0  0  0  0  0  0
   -4.3580  -15.4400    4.0120 N   0  0  0  0  0  0  0  0  0  0  0  0
   -3.7040  -14.7620    3.0230 N   0  0  0  0  0  0  0  0  0  0  0  0
   -4.4350  -13.6570    2.7530 C   0  0  0  0  0  0  0  0  0  0  0  0
   -4.0640  -12.5740    1.6740 C   0  0  0  0  0  0  0  0  0  0  0  0
   -4.8400  -12.4390    0.5290 C   0  0  0  0  0  0  0  0  0  0  0  0
   -4.4680  -11.4730   -0.3840 C   0  0  0  0  0  0  0  0  0  0  0  0
   -3.4000  -10.6540   -0.2330 N   0  0  0  0  0  0  0  0  0  0  0  0
   -2.6590  -10.8070    0.8930 C   0  0  0  0  0  0  0  0  0  0  0  0
   -1.4760   -9.9050    1.0690 C   0  0  0  0  0  0  0  0  0  0  0  0
   -2.9570  -11.7520    1.8680 C   0  0  0  0  0  0  0  0  0  0  0  0
   -5.5260  -13.6200    3.5430 N   0  0  0  0  0  0  0  0  0  0  0  0
   -7.5640  -15.9930    5.0730 C   0  0  0  0  0  0  0  0  0  0  0  0
   -8.4930  -16.3170    6.0640 C   0  0  0  0  0  0  0  0  0  0  0  0
   -9.5690  -17.2130    5.7080 N   0  0  0  0  0  0  0  0  0  0  0  0
  -10.6430  -16.7000    5.3630 O   0  0  0  0  0  0  0  0  0  0  0  0
   -9.3480  -18.4300    5.7930 O   0  0  0  0  0  0  0  0  0  0  0  0
   -9.1509  -16.9007   10.1972 H   0  0  0  0  0  0  0  0  0  0  0  0
   -9.6894  -18.1218    8.9949 H   0  0  0  0  0  0  0  0  0  0  0  0
   -7.9859  -17.5518    8.9949 H   0  0  0  0  0  0  0  0  0  0  0  0
   -7.2836  -14.5179    8.6865 H   0  0  0  0  0  0  0  0  0  0  0  0
   -5.6129  -13.9031    6.9400 H   0  0  0  0  0  0  0  0  0  0  0  0
   -5.7183  -13.0784    0.3567 H   0  0  0  0  0  0  0  0  0  0  0  0
   -5.0781  -11.3612   -1.2925 H   0  0  0  0  0  0  0  0  0  0  0  0
   -1.2833   -9.7581    2.1420 H   0  0  0  0  0  0  0  0  0  0  0  0
   -0.5934  -10.3615    0.5971 H   0  0  0  0  0  0  0  0  0  0  0  0
   -1.6826   -8.9331    0.5971 H   0  0  0  0  0  0  0  0  0  0  0  0
   -2.3342  -11.8479    2.7696 H   0  0  0  0  0  0  0  0  0  0  0  0
   -7.6479  -16.4159    4.0610 H   0  0  0  0  0  0  0  0  0  0  0  0
  1  2  1  0
  2  3  1  0
  3  4  2  0
  4  5  1  0
  5  6  2  0
  6  7  1  0
  7  8  2  0
  8  9  1  0
  9 10  1  0
 10 11  1  0
 11 12  2  0
 12 13  1  0
 13 14  2  0
 14 15  1  0
 15 16  1  0
 15 17  2  0
 10 18  2  0
  6 19  1  0
 19 20  2  0
 20 21  1  0
 21 22  2  0
 21 23  1  0
 20  3  1  0
 18  7  1  0
 17 11  1  0
  1 24  1  0
  1 25  1  0
  1 26  1  0
  4 27  1  0
  5 28  1  0
 12 29  1  0
 13 30  1  0
 16 31  1  0
 16 32  1  0
 16 33  1  0
 17 34  1  0
 19 35  1  0
M  CHG  3   9  -1  21   1  23  -1
M  END
>  <meeko>  (3) 
{"is_sidechain": [false], "free_energy": -6.89, "intermolecular_energy": -8.529, "internal_energy": -0.435}

$$$$
LIB_ZHCKPBKNEQACID__M_PUB_ALL__e8__s20260927
     RDKit          3D

 35 37  0  0  0  0  0  0  0  0999 V2000
   -1.9160  -12.8200    2.6410 C   0  0  0  0  0  0  0  0  0  0  0  0
   -0.7850  -11.9580    2.6670 O   0  0  0  0  0  0  0  0  0  0  0  0
   -0.0690  -11.8270    1.5090 C   0  0  0  0  0  0  0  0  0  0  0  0
    0.7600  -12.8160    0.9690 C   0  0  0  0  0  0  0  0  0  0  0  0
    1.4410  -12.5880   -0.2340 C   0  0  0  0  0  0  0  0  0  0  0  0
    1.2980  -11.3740   -0.9150 C   0  0  0  0  0  0  0  0  0  0  0  0
    2.0720  -11.1360   -2.2650 C   0  0  0  0  0  0  0  0  0  0  0  0
    2.1450   -9.9540   -2.9160 N   0  0  0  0  0  0  0  0  0  0  0  0
    2.8990  -10.1660   -4.0340 N   0  0  0  0  0  0  0  0  0  0  0  0
    3.2600  -11.4700   -4.0250 C   0  0  0  0  0  0  0  0  0  0  0  0
    4.1410  -12.1680   -5.1250 C   0  0  0  0  0  0  0  0  0  0  0  0
    4.4060  -11.5120   -6.3210 C   0  0  0  0  0  0  0  0  0  0  0  0
    5.1850  -12.1720   -7.2520 C   0  0  0  0  0  0  0  0  0  0  0  0
    5.7030  -13.4100   -7.0700 N   0  0  0  0  0  0  0  0  0  0  0  0
    5.4280  -14.0270   -5.8940 C   0  0  0  0  0  0  0  0  0  0  0  0
    5.9980  -15.3970   -5.6840 C   0  0  0  0  0  0  0  0  0  0  0  0
    4.6540  -13.4420   -4.8980 C   0  0  0  0  0  0  0  0  0  0  0  0
    2.7530  -12.0820   -2.9360 N   0  0  0  0  0  0  0  0  0  0  0  0
    0.4770  -10.3750   -0.4000 C   0  0  0  0  0  0  0  0  0  0  0  0
   -0.1880  -10.6200    0.8040 C   0  0  0  0  0  0  0  0  0  0  0  0
   -1.0270   -9.5690    1.3330 N   0  0  0  0  0  0  0  0  0  0  0  0
   -2.2310   -9.6040    1.0410 O   0  0  0  0  0  0  0  0  0  0  0  0
   -0.4800   -8.6960    2.0230 O   0  0  0  0  0  0  0  0  0  0  0  0
   -2.2226  -13.0537    3.6712 H   0  0  0  0  0  0  0  0  0  0  0  0
   -2.7445  -12.3222    2.1158 H   0  0  0  0  0  0  0  0  0  0  0  0
   -1.6556  -13.7508    2.1158 H   0  0  0  0  0  0  0  0  0  0  0  0
    0.8777  -13.7770    1.4912 H   0  0  0  0  0  0  0  0  0  0  0  0
    2.0942  -13.3707   -0.6471 H   0  0  0  0  0  0  0  0  0  0  0  0
    4.0104  -10.5049   -6.5192 H   0  0  0  0  0  0  0  0  0  0  0  0
    5.3980  -11.6592   -8.2015 H   0  0  0  0  0  0  0  0  0  0  0  0
    6.0816  -15.5980   -4.6058 H   0  0  0  0  0  0  0  0  0  0  0  0
    5.3361  -16.1443   -6.1460 H   0  0  0  0  0  0  0  0  0  0  0  0
    6.9946  -15.4543   -6.1460 H   0  0  0  0  0  0  0  0  0  0  0  0
    4.4523  -13.9720   -3.9554 H   0  0  0  0  0  0  0  0  0  0  0  0
    0.3549   -9.4174   -0.9273 H   0  0  0  0  0  0  0  0  0  0  0  0
  1  2  1  0
  2  3  1  0
  3  4  2  0
  4  5  1  0
  5  6  2  0
  6  7  1  0
  7  8  2  0
  8  9  1  0
  9 10  1  0
 10 11  1  0
 11 12  2  0
 12 13  1  0
 13 14  2  0
 14 15  1  0
 15 16  1  0
 15 17  2  0
 10 18  2  0
  6 19  1  0
 19 20  2  0
 20 21  1  0
 21 22  2  0
 21 23  1  0
 20  3  1  0
 18  7  1  0
 17 11  1  0
  1 24  1  0
  1 25  1  0
  1 26  1  0
  4 27  1  0
  5 28  1  0
 12 29  1  0
 13 30  1  0
 16 31  1  0
 16 32  1  0
 16 33  1  0
 17 34  1  0
 19 35  1  0
M  CHG  3   9  -1  21   1  23  -1
M  END
>  <meeko>  (4) 
{"is_sidechain": [false], "free_energy": -6.649, "intermolecular_energy": -8.179, "internal_energy": -0.488}

$$$$
LIB_ZHCKPBKNEQACID__M_PUB_ALL__e8__s20260927
     RDKit          3D

 35 37  0  0  0  0  0  0  0  0999 V2000
   13.9080  -10.1210    0.4210 C   0  0  0  0  0  0  0  0  0  0  0  0
   13.5140  -11.2840   -0.2970 O   0  0  0  0  0  0  0  0  0  0  0  0
   12.1920  -11.6330   -0.2510 C   0  0  0  0  0  0  0  0  0  0  0  0
   11.3710  -11.4940    0.8730 C   0  0  0  0  0  0  0  0  0  0  0  0
   10.0220  -11.8680    0.8130 C   0  0  0  0  0  0  0  0  0  0  0  0
    9.4760  -12.3800   -0.3690 C   0  0  0  0  0  0  0  0  0  0  0  0
    7.9590  -12.7970   -0.4170 C   0  0  0  0  0  0  0  0  0  0  0  0
    7.4420  -13.9010    0.1650 N   0  0  0  0  0  0  0  0  0  0  0  0
    6.1040  -13.9000   -0.1080 N   0  0  0  0  0  0  0  0  0  0  0  0
    5.8530  -12.7940   -0.8460 C   0  0  0  0  0  0  0  0  0  0  0  0
    4.4370  -12.3780   -1.3910 C   0  0  0  0  0  0  0  0  0  0  0  0
    3.2880  -12.8430   -0.7630 C   0  0  0  0  0  0  0  0  0  0  0  0
    2.0720  -12.4460   -1.2840 C   0  0  0  0  0  0  0  0  0  0  0  0
    1.9320  -11.6380   -2.3610 N   0  0  0  0  0  0  0  0  0  0  0  0
    3.0710  -11.2000   -2.9550 C   0  0  0  0  0  0  0  0  0  0  0  0
    2.9260  -10.3040   -4.1470 C   0  0  0  0  0  0  0  0  0  0  0  0
    4.3380  -11.5460   -2.5010 C   0  0  0  0  0  0  0  0  0  0  0  0
    6.9920  -12.1040   -1.0460 N   0  0  0  0  0  0  0  0  0  0  0  0
   10.2720  -12.5260   -1.5020 C   0  0  0  0  0  0  0  0  0  0  0  0
   11.6150  -12.1520   -1.4200 C   0  0  0  0  0  0  0  0  0  0  0  0
   12.4320  -12.3210   -2.6000 N   0  0  0  0  0  0  0  0  0  0  0  0
   12.5620  -11.3390   -3.3450 O   0  0  0  0  0  0  0  0  0  0  0  0
   12.9290  -13.4410   -2.7940 O   0  0  0  0  0  0  0  0  0  0  0  0
   13.8416  -10.3170    1.5014 H   0  0  0  0  0  0  0  0  0  0  0  0
   14.9442   -9.8615    0.1584 H   0  0  0  0  0  0  0  0  0  0  0  0
   13.2429   -9.2851    0.1584 H   0  0  0  0  0  0  0  0  0  0  0  0
   11.7862  -11.0894    1.8079 H   0  0  0  0  0  0  0  0  0  0  0  0
    9.3861  -11.7580    1.7038 H   0  0  0  0  0  0  0  0  0  0  0  0
    3.3447  -13.5023    0.1157 H   0  0  0  0  0  0  0  0  0  0  0  0
    1.1581  -12.8100   -0.7918 H   0  0  0  0  0  0  0  0  0  0  0  0
    2.7587   -9.2702   -3.8104 H   0  0  0  0  0  0  0  0  0  0  0  0
    3.8430  -10.3485   -4.7529 H   0  0  0  0  0  0  0  0  0  0  0  0
    2.0698  -10.6355   -4.7529 H   0  0  0  0  0  0  0  0  0  0  0  0
    5.2400  -11.1712   -3.0069 H   0  0  0  0  0  0  0  0  0  0  0  0
    9.8538  -12.9256   -2.4376 H   0  0  0  0  0  0  0  0  0  0  0  0
  1  2  1  0
  2  3  1  0
  3  4  2  0
  4  5  1  0
  5  6  2  0
  6  7  1  0
  7  8  2  0
  8  9  1  0
  9 10  1  0
 10 11  1  0
 11 12  2  0
 12 13  1  0
 13 14  2  0
 14 15  1  0
 15 16  1  0
 15 17  2  0
 10 18  2  0
  6 19  1  0
 19 20  2  0
 20 21  1  0
 21 22  2  0
 21 23  1  0
 20  3  1  0
 18  7  1  0
 17 11  1  0
  1 24  1  0
  1 25  1  0
  1 26  1  0
  4 27  1  0
  5 28  1  0
 12 29  1  0
 13 30  1  0
 16 31  1  0
 16 32  1  0
 16 33  1  0
 17 34  1  0
 19 35  1  0
M  CHG  3   9  -1  21   1  23  -1
M  END
>  <meeko>  (5) 
{"is_sidechain": [false], "free_energy": -6.559, "intermolecular_energy": -8.112, "internal_energy": -0.443}

$$$$
LIB_ZHCKPBKNEQACID__M_PUB_ALL__e8__s20260927
     RDKit          3D

 35 37  0  0  0  0  0  0  0  0999 V2000
   13.4600  -10.6470    0.1050 C   0  0  0  0  0  0  0  0  0  0  0  0
   12.4080  -11.0940   -0.7430 O   0  0  0  0  0  0  0  0  0  0  0  0
   12.7550  -11.8570   -1.8250 C   0  0  0  0  0  0  0  0  0  0  0  0
   13.6800  -11.4780   -2.8030 C   0  0  0  0  0  0  0  0  0  0  0  0
   13.9780  -12.3400   -3.8660 C   0  0  0  0  0  0  0  0  0  0  0  0
   13.3600  -13.5920   -3.9620 C   0  0  0  0  0  0  0  0  0  0  0  0
   13.7060  -14.5470   -5.1650 C   0  0  0  0  0  0  0  0  0  0  0  0
   13.4760  -15.8780   -5.1860 N   0  0  0  0  0  0  0  0  0  0  0  0
   13.9160  -16.3350   -6.3950 N   0  0  0  0  0  0  0  0  0  0  0  0
   14.3980  -15.2650   -7.0690 C   0  0  0  0  0  0  0  0  0  0  0  0
   15.0130  -15.3160   -8.5160 C   0  0  0  0  0  0  0  0  0  0  0  0
   14.3380  -14.7250   -9.5780 C   0  0  0  0  0  0  0  0  0  0  0  0
   14.9230  -14.8000  -10.8270 C   0  0  0  0  0  0  0  0  0  0  0  0
   16.1060  -15.4090  -11.0780 N   0  0  0  0  0  0  0  0  0  0  0  0
   16.7430  -15.9770  -10.0230 C   0  0  0  0  0  0  0  0  0  0  0  0
   18.0540  -16.6530  -10.2920 C   0  0  0  0  0  0  0  0  0  0  0  0
   16.2320  -15.9520   -8.7310 C   0  0  0  0  0  0  0  0  0  0  0  0
   14.2760  -14.1530   -6.3180 N   0  0  0  0  0  0  0  0  0  0  0  0
   12.4380  -13.9940   -3.0000 C   0  0  0  0  0  0  0  0  0  0  0  0
   12.1510  -13.1170   -1.9510 C   0  0  0  0  0  0  0  0  0  0  0  0
   11.1830  -13.5430   -0.9670 N   0  0  0  0  0  0  0  0  0  0  0  0
   11.6180  -14.0940    0.0550 O   0  0  0  0  0  0  0  0  0  0  0  0
    9.9860  -13.3450   -1.2230 O   0  0  0  0  0  0  0  0  0  0  0  0
   13.1623  -10.7735    1.1564 H   0  0  0  0  0  0  0  0  0  0  0  0
   14.3666  -11.2376   -0.0930 H   0  0  0  0  0  0  0  0  0  0  0  0
   13.6641   -9.5844   -0.0930 H   0  0  0  0  0  0  0  0  0  0  0  0
   14.1759  -10.4983   -2.7371 H   0  0  0  0  0  0  0  0  0  0  0  0
   14.7041  -12.0302   -4.6320 H   0  0  0  0  0  0  0  0  0  0  0  0
   13.3740  -14.2166   -9.4292 H   0  0  0  0  0  0  0  0  0  0  0  0
   14.3939  -14.3352  -11.6720 H   0  0  0  0  0  0  0  0  0  0  0  0
   18.5400  -16.9036   -9.3375 H   0  0  0  0  0  0  0  0  0  0  0  0
   17.8803  -17.5740  -10.8679 H   0  0  0  0  0  0  0  0  0  0  0  0
   18.7035  -15.9774  -10.8679 H   0  0  0  0  0  0  0  0  0  0  0  0
   16.7770  -16.4228   -7.8996 H   0  0  0  0  0  0  0  0  0  0  0  0
   11.9480  -14.9767   -3.0640 H   0  0  0  0  0  0  0  0  0  0  0  0
  1  2  1  0
  2  3  1  0
  3  4  2  0
  4  5  1  0
  5  6  2  0
  6  7  1  0
  7  8  2  0
  8  9  1  0
  9 10  1  0
 10 11  1  0
 11 12  2  0
 12 13  1  0
 13 14  2  0
 14 15  1  0
 15 16  1  0
 15 17  2  0
 10 18  2  0
  6 19  1  0
 19 20  2  0
 20 21  1  0
 21 22  2  0
 21 23  1  0
 20  3  1  0
 18  7  1  0
 17 11  1  0
  1 24  1  0
  1 25  1  0
  1 26  1  0
  4 27  1  0
  5 28  1  0
 12 29  1  0
 13 30  1  0
 16 31  1  0
 16 32  1  0
 16 33  1  0
 17 34  1  0
 19 35  1  0
M  CHG  3   9  -1  21   1  23  -1
M  END
>  <meeko>  (6) 
{"is_sidechain": [false], "free_energy": -6.548, "intermolecular_energy": -8.079, "internal_energy": -0.464}

$$$$
LIB_ZHCKPBKNEQACID__M_PUB_ALL__e8__s20260927
     RDKit          3D

 35 37  0  0  0  0  0  0  0  0999 V2000
   -7.8710  -17.2930    6.0760 C   0  0  0  0  0  0  0  0  0  0  0  0
   -6.5280  -16.8500    6.2230 O   0  0  0  0  0  0  0  0  0  0  0  0
   -6.0610  -15.9430    5.3110 C   0  0  0  0  0  0  0  0  0  0  0  0
   -6.7450  -14.7890    4.9150 C   0  0  0  0  0  0  0  0  0  0  0  0
   -6.1720  -13.9130    3.9830 C   0  0  0  0  0  0  0  0  0  0  0  0
   -4.9100  -14.1770    3.4400 C   0  0  0  0  0  0  0  0  0  0  0  0
   -4.2840  -13.1820    2.3930 C   0  0  0  0  0  0  0  0  0  0  0  0
   -4.7870  -12.9360    1.1630 N   0  0  0  0  0  0  0  0  0  0  0  0
   -3.9580  -12.0250    0.5730 N   0  0  0  0  0  0  0  0  0  0  0  0
   -2.9800  -11.7460    1.4660 C   0  0  0  0  0  0  0  0  0  0  0  0
   -1.7970  -10.7400    1.2180 C   0  0  0  0  0  0  0  0  0  0  0  0
   -1.5320   -9.7380    2.1440 C   0  0  0  0  0  0  0  0  0  0  0  0
   -0.4810   -8.8830    1.8760 C   0  0  0  0  0  0  0  0  0  0  0  0
    0.3010   -8.9610    0.7730 N   0  0  0  0  0  0  0  0  0  0  0  0
    0.0200   -9.9480   -0.1140 C   0  0  0  0  0  0  0  0  0  0  0  0
    0.8820  -10.0420   -1.3370 C   0  0  0  0  0  0  0  0  0  0  0  0
   -1.0170  -10.8550    0.0710 C   0  0  0  0  0  0  0  0  0  0  0  0
   -3.1690  -12.4570    2.5950 N   0  0  0  0  0  0  0  0  0  0  0  0
   -4.2080  -15.3170    3.8200 C   0  0  0  0  0  0  0  0  0  0  0  0
   -4.7990  -16.1800    4.7460 C   0  0  0  0  0  0  0  0  0  0  0  0
   -4.0640  -17.3660    5.1220 N   0  0  0  0  0  0  0  0  0  0  0  0
   -4.1620  -18.3520    4.3770 O   0  0  0  0  0  0  0  0  0  0  0  0
   -3.4060  -17.3200    6.1710 O   0  0  0  0  0  0  0  0  0  0  0  0
   -8.3192  -17.4408    7.0696 H   0  0  0  0  0  0  0  0  0  0  0  0
   -8.4478  -16.5375    5.5223 H   0  0  0  0  0  0  0  0  0  0  0  0
   -7.8851  -18.2434    5.5223 H   0  0  0  0  0  0  0  0  0  0  0  0
   -7.7366  -14.5681    5.3367 H   0  0  0  0  0  0  0  0  0  0  0  0
   -6.7195  -13.0098    3.6757 H   0  0  0  0  0  0  0  0  0  0  0  0
   -2.1369   -9.6300    3.0564 H   0  0  0  0  0  0  0  0  0  0  0  0
   -0.2653   -8.0879    2.6049 H   0  0  0  0  0  0  0  0  0  0  0  0
    1.9339  -10.1567   -1.0363 H   0  0  0  0  0  0  0  0  0  0  0  0
    0.5749  -10.9120   -1.9360 H   0  0  0  0  0  0  0  0  0  0  0  0
    0.7697   -9.1263   -1.9360 H   0  0  0  0  0  0  0  0  0  0  0  0
   -1.2160  -11.6433   -0.6700 H   0  0  0  0  0  0  0  0  0  0  0  0
   -3.2137  -15.5329    3.4021 H   0  0  0  0  0  0  0  0  0  0  0  0
  1  2  1  0
  2  3  1  0
  3  4  2  0
  4  5  1  0
  5  6  2  0
  6  7  1  0
  7  8  2  0
  8  9  1  0
  9 10  1  0
 10 11  1  0
 11 12  2  0
 12 13  1  0
 13 14  2  0
 14 15  1  0
 15 16  1  0
 15 17  2  0
 10 18  2  0
  6 19  1  0
 19 20  2  0
 20 21  1  0
 21 22  2  0
 21 23  1  0
 20  3  1  0
 18  7  1  0
 17 11  1  0
  1 24  1  0
  1 25  1  0
  1 26  1  0
  4 27  1  0
  5 28  1  0
 12 29  1  0
 13 30  1  0
 16 31  1  0
 16 32  1  0
 16 33  1  0
 17 34  1  0
 19 35  1  0
M  CHG  3   9  -1  21   1  23  -1
M  END
>  <meeko>  (7) 
{"is_sidechain": [false], "free_energy": -6.476, "intermolecular_energy": -8.027, "internal_energy": -0.427}

$$$$
LIB_ZHCKPBKNEQACID__M_PUB_ALL__e8__s20260927
     RDKit          3D

 35 37  0  0  0  0  0  0  0  0999 V2000
   -8.1810  -17.1700    8.9040 C   0  0  0  0  0  0  0  0  0  0  0  0
   -8.8140  -16.2130    8.0640 O   0  0  0  0  0  0  0  0  0  0  0  0
   -8.0570  -15.6480    7.0740 C   0  0  0  0  0  0  0  0  0  0  0  0
   -7.0660  -14.6830    7.2830 C   0  0  0  0  0  0  0  0  0  0  0  0
   -6.3330  -14.1760    6.2010 C   0  0  0  0  0  0  0  0  0  0  0  0
   -6.5780  -14.6310    4.9010 C   0  0  0  0  0  0  0  0  0  0  0  0
   -5.7460  -14.0490    3.6980 C   0  0  0  0  0  0  0  0  0  0  0  0
   -6.2220  -13.1860    2.7740 N   0  0  0  0  0  0  0  0  0  0  0  0
   -5.1980  -12.9290    1.9080 N   0  0  0  0  0  0  0  0  0  0  0  0
   -4.1320  -13.6440    2.3370 C   0  0  0  0  0  0  0  0  0  0  0  0
   -2.7200  -13.6570    1.6430 C   0  0  0  0  0  0  0  0  0  0  0  0
   -1.6840  -12.8910    2.1630 C   0  0  0  0  0  0  0  0  0  0  0  0
   -0.4660  -12.9400    1.5140 C   0  0  0  0  0  0  0  0  0  0  0  0
   -0.2220  -13.6850    0.4090 N   0  0  0  0  0  0  0  0  0  0  0  0
   -1.2510  -14.4240   -0.0770 C   0  0  0  0  0  0  0  0  0  0  0  0
   -0.9890  -15.2520   -1.2980 C   0  0  0  0  0  0  0  0  0  0  0  0
   -2.5110  -14.4370    0.5090 C   0  0  0  0  0  0  0  0  0  0  0  0
   -4.4580  -14.3430    3.4410 N   0  0  0  0  0  0  0  0  0  0  0  0
   -7.5560  -15.5930    4.6670 C   0  0  0  0  0  0  0  0  0  0  0  0
   -8.2790  -16.0810    5.7580 C   0  0  0  0  0  0  0  0  0  0  0  0
   -9.3000  -17.0690    5.4990 N   0  0  0  0  0  0  0  0  0  0  0  0
   -8.9420  -18.2550    5.4560 O   0  0  0  0  0  0  0  0  0  0  0  0
  -10.4560  -16.6600    5.3180 O   0  0  0  0  0  0  0  0  0  0  0  0
   -8.3558  -16.9058    9.9574 H   0  0  0  0  0  0  0  0  0  0  0  0
   -8.5979  -18.1677    8.7022 H   0  0  0  0  0  0  0  0  0  0  0  0
   -7.0997  -17.1768    8.7022 H   0  0  0  0  0  0  0  0  0  0  0  0
   -6.8610  -14.3204    8.3011 H   0  0  0  0  0  0  0  0  0  0  0  0
   -5.5589  -13.4142    6.3756 H   0  0  0  0  0  0  0  0  0  0  0  0
   -1.8286  -12.2686    3.0584 H   0  0  0  0  0  0  0  0  0  0  0  0
    0.3586  -12.3357    1.9201 H   0  0  0  0  0  0  0  0  0  0  0  0
   -0.6699  -16.2604   -0.9957 H   0  0  0  0  0  0  0  0  0  0  0  0
   -1.9087  -15.3227   -1.8974 H   0  0  0  0  0  0  0  0  0  0  0  0
   -0.1961  -14.7808   -1.8974 H   0  0  0  0  0  0  0  0  0  0  0  0
   -3.3227  -15.0481    0.0875 H   0  0  0  0  0  0  0  0  0  0  0  0
   -7.7546  -15.9597    3.6491 H   0  0  0  0  0  0  0  0  0  0  0  0
  1  2  1  0
  2  3  1  0
  3  4  2  0
  4  5  1  0
  5  6  2  0
  6  7  1  0
  7  8  2  0
  8  9  1  0
  9 10  1  0
 10 11  1  0
 11 12  2  0
 12 13  1  0
 13 14  2  0
 14 15  1  0
 15 16  1  0
 15 17  2  0
 10 18  2  0
  6 19  1  0
 19 20  2  0
 20 21  1  0
 21 22  2  0
 21 23  1  0
 20  3  1  0
 18  7  1  0
 17 11  1  0
  1 24  1  0
  1 25  1  0
  1 26  1  0
  4 27  1  0
  5 28  1  0
 12 29  1  0
 13 30  1  0
 16 31  1  0
 16 32  1  0
 16 33  1  0
 17 34  1  0
 19 35  1  0
M  CHG  3   9  -1  21   1  23  -1
M  END
>  <meeko>  (8) 
{"is_sidechain": [false], "free_energy": -6.4, "intermolecular_energy": -7.9, "internal_energy": -0.46}

$$$$
LIB_ZHCKPBKNEQACID__M_PUB_ALL__e8__s20260927
     RDKit          3D

 35 37  0  0  0  0  0  0  0  0999 V2000
   -8.4180  -15.3060   -8.8340 C   0  0  0  0  0  0  0  0  0  0  0  0
   -9.7900  -15.3540   -9.2040 O   0  0  0  0  0  0  0  0  0  0  0  0
  -10.5700  -14.2830   -8.8620 C   0  0  0  0  0  0  0  0  0  0  0  0
  -10.3320  -12.9640   -9.2620 C   0  0  0  0  0  0  0  0  0  0  0  0
  -11.2020  -11.9380   -8.8700 C   0  0  0  0  0  0  0  0  0  0  0  0
  -12.3220  -12.2170   -8.0790 C   0  0  0  0  0  0  0  0  0  0  0  0
  -13.2870  -11.0520   -7.6470 C   0  0  0  0  0  0  0  0  0  0  0  0
  -14.6170  -11.0220   -7.8830 N   0  0  0  0  0  0  0  0  0  0  0  0
  -15.0860   -9.8520   -7.3570 N   0  0  0  0  0  0  0  0  0  0  0  0
  -14.0230   -9.2110   -6.8160 C   0  0  0  0  0  0  0  0  0  0  0  0
  -14.0880   -7.8160   -6.0920 C   0  0  0  0  0  0  0  0  0  0  0  0
  -14.8440   -6.7850   -6.6360 C   0  0  0  0  0  0  0  0  0  0  0  0
  -14.8650   -5.5820   -5.9580 C   0  0  0  0  0  0  0  0  0  0  0  0
  -14.1970   -5.3480   -4.8040 N   0  0  0  0  0  0  0  0  0  0  0  0
  -13.4660   -6.3710   -4.2950 C   0  0  0  0  0  0  0  0  0  0  0  0
  -12.7240   -6.1200   -3.0170 C   0  0  0  0  0  0  0  0  0  0  0  0
  -13.3860   -7.6170   -4.9070 C   0  0  0  0  0  0  0  0  0  0  0  0
  -12.9050   -9.9410   -6.9910 N   0  0  0  0  0  0  0  0  0  0  0  0
  -12.5830  -13.5220   -7.6700 C   0  0  0  0  0  0  0  0  0  0  0  0
  -11.7010  -14.5290   -8.0680 C   0  0  0  0  0  0  0  0  0  0  0  0
  -11.9770  -15.8770   -7.6250 N   0  0  0  0  0  0  0  0  0  0  0  0
  -11.3780  -16.2770   -6.6170 O   0  0  0  0  0  0  0  0  0  0  0  0
  -12.7780  -16.5440   -8.2970 O   0  0  0  0  0  0  0  0  0  0  0  0
   -8.3339  -15.3031   -7.7372 H   0  0  0  0  0  0  0  0  0  0  0  0
   -7.8979  -16.1865   -9.2393 H   0  0  0  0  0  0  0  0  0  0  0  0
   -7.9607  -14.3913   -9.2393 H   0  0  0  0  0  0  0  0  0  0  0  0
   -9.4576  -12.7310   -9.8874 H   0  0  0  0  0  0  0  0  0  0  0  0
  -11.0027  -10.9037   -9.1870 H   0  0  0  0  0  0  0  0  0  0  0  0
  -15.4051   -6.9219   -7.5722 H   0  0  0  0  0  0  0  0  0  0  0  0
  -15.4625   -4.7618   -6.3827 H   0  0  0  0  0  0  0  0  0  0  0  0
  -13.3801   -6.3419   -2.1624 H   0  0  0  0  0  0  0  0  0  0  0  0
  -11.8359   -6.7677   -2.9754 H   0  0  0  0  0  0  0  0  0  0  0  0
  -12.4115   -5.0661   -2.9754 H   0  0  0  0  0  0  0  0  0  0  0  0
  -12.7834   -8.4246   -4.4658 H   0  0  0  0  0  0  0  0  0  0  0  0
  -13.4612  -13.7539   -7.0495 H   0  0  0  0  0  0  0  0  0  0  0  0
  1  2  1  0
  2  3  1  0
  3  4  2  0
  4  5  1  0
  5  6  2  0
  6  7  1  0
  7  8  2  0
  8  9  1  0
  9 10  1  0
 10 11  1  0
 11 12  2  0
 12 13  1  0
 13 14  2  0
 14 15  1  0
 15 16  1  0
 15 17  2  0
 10 18  2  0
  6 19  1  0
 19 20  2  0
 20 21  1  0
 21 22  2  0
 21 23  1  0
 20  3  1  0
 18  7  1  0
 17 11  1  0
  1 24  1  0
  1 25  1  0
  1 26  1  0
  4 27  1  0
  5 28  1  0
 12 29  1  0
 13 30  1  0
 16 31  1  0
 16 32  1  0
 16 33  1  0
 17 34  1  0
 19 35  1  0
M  CHG  3   9  -1  21   1  23  -1
M  END
>  <meeko>  (9) 
{"is_sidechain": [false], "free_energy": -6.2, "intermolecular_energy": -7.651, "internal_energy": -0.462}

$$$$
