LIB_JDMGNUZGYHBPDP__M_PUB_ALL__e8__s20260927
     RDKit          3D

 73 78  0  0  0  0  0  0  0  0999 V2000
   -2.7160  -17.8660    2.8580 C   0  0  0  0  0  0  0  0  0  0  0  0
   -2.0990  -17.2240    1.7510 O   0  0  0  0  0  0  0  0  0  0  0  0
   -2.4290  -15.9110    1.5490 C   0  0  0  0  0  0  0  0  0  0  0  0
   -2.6410  -14.9570    2.5430 C   0  0  0  0  0  0  0  0  0  0  0  0
   -2.9760  -13.6430    2.1990 C   0  0  0  0  0  0  0  0  0  0  0  0
   -3.1040  -13.2630    0.8560 C   0  0  0  0  0  0  0  0  0  0  0  0
   -3.4650  -11.8410    0.4980 C   0  0  0  0  0  0  0  0  0  0  0  0
   -2.4180  -10.9080    0.8520 N   0  0  0  0  0  0  0  0  0  0  0  0
   -2.6840   -9.7590    1.5760 N   0  0  0  0  0  0  0  0  0  0  0  0
   -1.4470   -9.2180    1.7280 C   0  0  0  0  0  0  0  0  0  0  0  0
   -0.4720  -10.0150    1.1470 C   0  0  0  0  0  0  0  0  0  0  0  0
    0.9420  -10.1300    0.9180 N   0  0  0  0  0  0  0  0  0  0  0  0
    1.0660  -11.3360    0.2090 C   0  0  0  0  0  0  0  0  0  0  0  0
    2.4890  -11.8900   -0.2840 C   0  0  0  0  0  0  0  0  0  0  0  0
    3.2760  -12.5390    0.6760 C   0  0  0  0  0  0  0  0  0  0  0  0
    4.5310  -13.0520    0.3470 C   0  0  0  0  0  0  0  0  0  0  0  0
    5.0280  -12.9300   -0.9530 C   0  0  0  0  0  0  0  0  0  0  0  0
    6.3110  -13.4680   -1.1950 N   0  0  0  0  0  0  0  0  0  0  0  0
    7.4850  -12.7880   -1.4890 C   0  0  0  0  0  0  0  0  0  0  0  0
    7.5830  -11.5800   -1.6580 O   0  0  0  0  0  0  0  0  0  0  0  0
    8.5470  -13.6840   -1.5580 N   0  0  0  0  0  0  0  0  0  0  0  0
    9.8840  -13.4170   -1.9240 C   0  0  0  0  0  0  0  0  0  0  0  0
   10.4830  -13.8760   -3.1030 C   0  0  0  0  0  0  0  0  0  0  0  0
   11.8210  -13.5890   -3.4300 C   0  0  0  0  0  0  0  0  0  0  0  0
   12.4160  -14.0250   -4.6110 N   0  0  0  0  0  0  0  0  0  0  0  0
   13.5410  -14.9750   -4.5180 C   0  0  0  0  0  0  0  0  0  0  0  0
   14.3470  -14.9760   -5.8270 C   0  0  0  0  0  0  0  0  0  0  0  0
   13.5180  -15.2410   -6.9670 O   0  0  0  0  0  0  0  0  0  0  0  0
   12.5010  -14.2310   -7.0750 C   0  0  0  0  0  0  0  0  0  0  0  0
   11.5990  -14.1880   -5.8310 C   0  0  0  0  0  0  0  0  0  0  0  0
   12.5450  -12.8060   -2.5200 C   0  0  0  0  0  0  0  0  0  0  0  0
   11.9800  -12.3440   -1.3190 C   0  0  0  0  0  0  0  0  0  0  0  0
   12.7890  -11.4880   -0.3830 C   0  0  0  0  0  0  0  0  0  0  0  0
   13.7270  -10.7440   -1.0330 F   0  0  0  0  0  0  0  0  0  0  0  0
   12.0310  -10.5970    0.3180 F   0  0  0  0  0  0  0  0  0  0  0  0
   13.4670  -12.2100    0.5530 F   0  0  0  0  0  0  0  0  0  0  0  0
   10.6440  -12.6540   -1.0350 C   0  0  0  0  0  0  0  0  0  0  0  0
    4.2470  -12.2820   -1.9130 C   0  0  0  0  0  0  0  0  0  0  0  0
    2.9730  -11.7570   -1.5990 C   0  0  0  0  0  0  0  0  0  0  0  0
    2.1920  -11.0750   -2.6860 C   0  0  0  0  0  0  0  0  0  0  0  0
   -0.1590  -11.9680   -0.0070 N   0  0  0  0  0  0  0  0  0  0  0  0
   -1.1000  -11.0640    0.6150 C   0  0  0  0  0  0  0  0  0  0  0  0
   -2.8850  -14.2230   -0.1390 C   0  0  0  0  0  0  0  0  0  0  0  0
   -2.5550  -15.5370    0.2080 C   0  0  0  0  0  0  0  0  0  0  0  0
   -2.3153  -17.4490    3.7937 H   0  0  0  0  0  0  0  0  0  0  0  0
   -3.8028  -17.7007    2.8187 H   0  0  0  0  0  0  0  0  0  0  0  0
   -2.5077  -18.9454    2.8187 H   0  0  0  0  0  0  0  0  0  0  0  0
   -2.5445  -15.2384    3.6020 H   0  0  0  0  0  0  0  0  0  0  0  0
   -3.1410  -12.8990    2.9922 H   0  0  0  0  0  0  0  0  0  0  0  0
   -3.6409  -11.7820   -0.5862 H   0  0  0  0  0  0  0  0  0  0  0  0
   -4.3676  -11.5679    1.0644 H   0  0  0  0  0  0  0  0  0  0  0  0
   -1.2446   -8.2689    2.2459 H   0  0  0  0  0  0  0  0  0  0  0  0
    2.8991  -12.6457    1.7039 H   0  0  0  0  0  0  0  0  0  0  0  0
    5.1336  -13.5562    1.1168 H   0  0  0  0  0  0  0  0  0  0  0  0
    6.3540  -14.4720   -1.1940 H   0  0  0  0  0  0  0  0  0  0  0  0
    8.3480  -14.6230   -1.2530 H   0  0  0  0  0  0  0  0  0  0  0  0
    9.8858  -14.4832   -3.7992 H   0  0  0  0  0  0  0  0  0  0  0  0
   14.1983  -14.6790   -3.6872 H   0  0  0  0  0  0  0  0  0  0  0  0
   13.1430  -15.9852   -4.3417 H   0  0  0  0  0  0  0  0  0  0  0  0
   14.8207  -13.9913   -5.9533 H   0  0  0  0  0  0  0  0  0  0  0  0
   15.1010  -15.7743   -5.7617 H   0  0  0  0  0  0  0  0  0  0  0  0
   12.9852  -13.2508   -7.1968 H   0  0  0  0  0  0  0  0  0  0  0  0
   11.8712  -14.4739   -7.9436 H   0  0  0  0  0  0  0  0  0  0  0  0
   10.9022  -13.3412   -5.9170 H   0  0  0  0  0  0  0  0  0  0  0  0
   11.0382  -15.1318   -5.7627 H   0  0  0  0  0  0  0  0  0  0  0  0
   13.5878  -12.5451   -2.7533 H   0  0  0  0  0  0  0  0  0  0  0  0
   10.1884  -12.2925   -0.1014 H   0  0  0  0  0  0  0  0  0  0  0  0
    4.6329  -12.1779   -2.9378 H   0  0  0  0  0  0  0  0  0  0  0  0
    1.4361  -10.4149   -2.2355 H   0  0  0  0  0  0  0  0  0  0  0  0
    2.8748  -10.4788   -3.3092 H   0  0  0  0  0  0  0  0  0  0  0  0
    1.6932  -11.8318   -3.3092 H   0  0  0  0  0  0  0  0  0  0  0  0
   -2.9729  -13.9425   -1.1990 H   0  0  0  0  0  0  0  0  0  0  0  0
   -2.3929  -16.2842   -0.5828 H   0  0  0  0  0  0  0  0  0  0  0  0
  1  2  1  0
  2  3  1  0
  3  4  2  0
  4  5  1  0
  5  6  2  0
  6  7  1  0
  7  8  1  0
  8  9  1  0
  9 10  2  0
 10 11  1  0
 11 12  1  0
 12 13  1  0
 13 14  1  0
 14 15  2  0
 15 16  1  0
 16 17  2  0
 17 18  1  0
 18 19  1  0
 19 20  2  0
 19 21  1  0
 21 22  1  0
 22 23  2  0
 23 24  1  0
 24 25  1  0
 25 26  1  0
 26 27  1  0
 27 28  1  0
 28 29  1  0
 29 30  1  0
 24 31  2  0
 31 32  1  0
 32 33  1  0
 33 34  1  0
 33 35  1  0
 33 36  1  0
 32 37  2  0
 17 38  1  0
 38 39  2  0
 39 40  1  0
 13 41  2  0
 41 42  1  0
  6 43  1  0
 43 44  2  0
 44  3  1  0
 42  8  1  0
 42 11  2  0
 39 14  1  0
 37 22  1  0
 30 25  1  0
  1 45  1  0
  1 46  1  0
  1 47  1  0
  4 48  1  0
  5 49  1  0
  7 50  1  0
  7 51  1  0
 10 52  1  0
 15 53  1  0
 16 54  1  0
 18 55  1  0
 21 56  1  0
 23 57  1  0
 26 58  1  0
 26 59  1  0
 27 60  1  0
 27 61  1  0
 29 62  1  0
 29 63  1  0
 30 64  1  0
 30 65  1  0
 31 66  1  0
 37 67  1  0
 38 68  1  0
 40 69  1  0
 40 70  1  0
 40 71  1  0
 43 72  1  0
 44 73  1  0
M  CHG  1  12  -1
M  END
>  <meeko>  (1) 
{"is_sidechain": [false], "free_energy": -9.384, "intermolecular_energy": -13.772, "internal_energy": -1.188}

$$$$
LIB_JDMGNUZGYHBPDP__M_PUB_ALL__e8__s20260927
     RDKit          3D

 73 78  0  0  0  0  0  0  0  0999 V2000
   -1.5390   -8.7240    4.1570 C   0  0  0  0  0  0  0  0  0  0  0  0
   -1.3150   -8.8150    2.7560 O   0  0  0  0  0  0  0  0  0  0  0  0
   -1.9040   -9.8700    2.1130 C   0  0  0  0  0  0  0  0  0  0  0  0
   -2.4300   -9.8530    0.8220 C   0  0  0  0  0  0  0  0  0  0  0  0
   -3.0090  -11.0070    0.2830 C   0  0  0  0  0  0  0  0  0  0  0  0
   -3.0690  -12.1940    1.0250 C   0  0  0  0  0  0  0  0  0  0  0  0
   -3.6950  -13.4330    0.4300 C   0  0  0  0  0  0  0  0  0  0  0  0
   -2.7720  -14.5470    0.3970 N   0  0  0  0  0  0  0  0  0  0  0  0
   -3.1710  -15.8310    0.7250 N   0  0  0  0  0  0  0  0  0  0  0  0
   -2.0380  -16.5500    0.5130 C   0  0  0  0  0  0  0  0  0  0  0  0
   -1.0070  -15.7460    0.0530 C   0  0  0  0  0  0  0  0  0  0  0  0
    0.3640  -15.7560   -0.3780 N   0  0  0  0  0  0  0  0  0  0  0  0
    0.6210  -14.4140   -0.7000 C   0  0  0  0  0  0  0  0  0  0  0  0
    2.0550  -13.9260   -1.2300 C   0  0  0  0  0  0  0  0  0  0  0  0
    2.9950  -13.5670   -0.2540 C   0  0  0  0  0  0  0  0  0  0  0  0
    4.2690  -13.1250   -0.6130 C   0  0  0  0  0  0  0  0  0  0  0  0
    4.6340  -13.0330   -1.9580 C   0  0  0  0  0  0  0  0  0  0  0  0
    5.9380  -12.5650   -2.2320 N   0  0  0  0  0  0  0  0  0  0  0  0
    7.1350  -13.2610   -2.1400 C   0  0  0  0  0  0  0  0  0  0  0  0
    7.2620  -14.4060   -1.7280 O   0  0  0  0  0  0  0  0  0  0  0  0
    8.1820  -12.4640   -2.5940 N   0  0  0  0  0  0  0  0  0  0  0  0
    9.5630  -12.7570   -2.5800 C   0  0  0  0  0  0  0  0  0  0  0  0
   10.2200  -13.4920   -3.5720 C   0  0  0  0  0  0  0  0  0  0  0  0
   11.6000  -13.7650   -3.5200 C   0  0  0  0  0  0  0  0  0  0  0  0
   12.2630  -14.4780   -4.5150 N   0  0  0  0  0  0  0  0  0  0  0  0
   13.7380  -14.5260   -4.4760 C   0  0  0  0  0  0  0  0  0  0  0  0
   14.2940  -14.9310   -5.8500 C   0  0  0  0  0  0  0  0  0  0  0  0
   13.7320  -16.1670   -6.3130 O   0  0  0  0  0  0  0  0  0  0  0  0
   12.3050  -16.0380   -6.4350 C   0  0  0  0  0  0  0  0  0  0  0  0
   11.6440  -15.6890   -5.0920 C   0  0  0  0  0  0  0  0  0  0  0  0
   12.3070  -13.2580   -2.4200 C   0  0  0  0  0  0  0  0  0  0  0  0
   11.6760  -12.5310   -1.3980 C   0  0  0  0  0  0  0  0  0  0  0  0
   12.4790  -11.9880   -0.2480 C   0  0  0  0  0  0  0  0  0  0  0  0
   11.7430  -11.1860    0.5720 F   0  0  0  0  0  0  0  0  0  0  0  0
   12.9940  -12.9630    0.5540 F   0  0  0  0  0  0  0  0  0  0  0  0
   13.5450  -11.2370   -0.6450 F   0  0  0  0  0  0  0  0  0  0  0  0
   10.2990  -12.2830   -1.4920 C   0  0  0  0  0  0  0  0  0  0  0  0
    3.6990  -13.3870   -2.9340 C   0  0  0  0  0  0  0  0  0  0  0  0
    2.4040  -13.8380   -2.5900 C   0  0  0  0  0  0  0  0  0  0  0  0
    1.4560  -14.2020   -3.6960 C   0  0  0  0  0  0  0  0  0  0  0  0
   -0.4860  -13.5860   -0.5060 N   0  0  0  0  0  0  0  0  0  0  0  0
   -1.4900  -14.5050   -0.0180 C   0  0  0  0  0  0  0  0  0  0  0  0
   -2.5340  -12.2080    2.3180 C   0  0  0  0  0  0  0  0  0  0  0  0
   -1.9610  -11.0520    2.8570 C   0  0  0  0  0  0  0  0  0  0  0  0
   -0.6499   -9.0852    4.6947 H   0  0  0  0  0  0  0  0  0  0  0  0
   -1.7321   -7.6761    4.4301 H   0  0  0  0  0  0  0  0  0  0  0  0
   -2.4082   -9.3403    4.4301 H   0  0  0  0  0  0  0  0  0  0  0  0
   -2.3897   -8.9297    0.2255 H   0  0  0  0  0  0  0  0  0  0  0  0
   -3.4223  -10.9821   -0.7361 H   0  0  0  0  0  0  0  0  0  0  0  0
   -4.5692  -13.7145    1.0355 H   0  0  0  0  0  0  0  0  0  0  0  0
   -3.9846  -13.2022   -0.6058 H   0  0  0  0  0  0  0  0  0  0  0  0
   -1.9500  -17.6330    0.6847 H   0  0  0  0  0  0  0  0  0  0  0  0
    2.7245  -13.6347    0.8101 H   0  0  0  0  0  0  0  0  0  0  0  0
    4.9910  -12.8470    0.1690 H   0  0  0  0  0  0  0  0  0  0  0  0
    5.9930  -11.5930   -2.4810 H   0  0  0  0  0  0  0  0  0  0  0  0
    7.9140  -11.6020   -3.0400 H   0  0  0  0  0  0  0  0  0  0  0  0
    9.6369  -13.8708   -4.4243 H   0  0  0  0  0  0  0  0  0  0  0  0
   14.1265  -13.5331   -4.2055 H   0  0  0  0  0  0  0  0  0  0  0  0
   14.0526  -15.2696   -3.7290 H   0  0  0  0  0  0  0  0  0  0  0  0
   14.0580  -14.1392   -6.5762 H   0  0  0  0  0  0  0  0  0  0  0  0
   15.3809  -15.0677   -5.7503 H   0  0  0  0  0  0  0  0  0  0  0  0
   12.0806  -15.2412   -7.1594 H   0  0  0  0  0  0  0  0  0  0  0  0
   11.9029  -17.0049   -6.7717 H   0  0  0  0  0  0  0  0  0  0  0  0
   10.5711  -15.5069   -5.2522 H   0  0  0  0  0  0  0  0  0  0  0  0
   11.7840  -16.5288   -4.3955 H   0  0  0  0  0  0  0  0  0  0  0  0
   13.3907  -13.4356   -2.3559 H   0  0  0  0  0  0  0  0  0  0  0  0
    9.7937  -11.7095   -0.7010 H   0  0  0  0  0  0  0  0  0  0  0  0
    3.9772  -13.3130   -3.9957 H   0  0  0  0  0  0  0  0  0  0  0  0
    0.5113  -14.5647   -3.2647 H   0  0  0  0  0  0  0  0  0  0  0  0
    1.2591  -13.3155   -4.3168 H   0  0  0  0  0  0  0  0  0  0  0  0
    1.9030  -14.9924   -4.3168 H   0  0  0  0  0  0  0  0  0  0  0  0
   -2.5644  -13.1326    2.9131 H   0  0  0  0  0  0  0  0  0  0  0  0
   -1.5507  -11.0730    3.8774 H   0  0  0  0  0  0  0  0  0  0  0  0
  1  2  1  0
  2  3  1  0
  3  4  2  0
  4  5  1  0
  5  6  2  0
  6  7  1  0
  7  8  1  0
  8  9  1  0
  9 10  2  0
 10 11  1  0
 11 12  1  0
 12 13  1  0
 13 14  1  0
 14 15  2  0
 15 16  1  0
 16 17  2  0
 17 18  1  0
 18 19  1  0
 19 20  2  0
 19 21  1  0
 21 22  1  0
 22 23  2  0
 23 24  1  0
 24 25  1  0
 25 26  1  0
 26 27  1  0
 27 28  1  0
 28 29  1  0
 29 30  1  0
 24 31  2  0
 31 32  1  0
 32 33  1  0
 33 34  1  0
 33 35  1  0
 33 36  1  0
 32 37  2  0
 17 38  1  0
 38 39  2  0
 39 40  1  0
 13 41  2  0
 41 42  1  0
  6 43  1  0
 43 44  2  0
 44  3  1  0
 42  8  1  0
 42 11  2  0
 39 14  1  0
 37 22  1  0
 30 25  1  0
  1 45  1  0
  1 46  1  0
  1 47  1  0
  4 48  1  0
  5 49  1  0
  7 50  1  0
  7 51  1  0
 10 52  1  0
 15 53  1  0
 16 54  1  0
 18 55  1  0
 21 56  1  0
 23 57  1  0
 26 58  1  0
 26 59  1  0
 27 60  1  0
 27 61  1  0
 29 62  1  0
 29 63  1  0
 30 64  1  0
 30 65  1  0
 31 66  1  0
 37 67  1  0
 38 68  1  0
 40 69  1  0
 40 70  1  0
 40 71  1  0
 43 72  1  0
 44 73  1  0
M  CHG  1  12  -1
M  END
>  <meeko>  (2) 
{"is_sidechain": [false], "free_energy": -9.357, "intermolecular_energy": -13.639, "internal_energy": -1.282}

$$$$
LIB_JDMGNUZGYHBPDP__M_PUB_ALL__e8__s20260927
     RDKit          3D

 73 78  0  0  0  0  0  0  0  0999 V2000
   13.1720  -18.6500   -3.5730 C   0  0  0  0  0  0  0  0  0  0  0  0
   12.9180  -17.8510   -4.7220 O   0  0  0  0  0  0  0  0  0  0  0  0
   12.7000  -16.5190   -4.4980 C   0  0  0  0  0  0  0  0  0  0  0  0
   11.5900  -15.7880   -4.9190 C   0  0  0  0  0  0  0  0  0  0  0  0
   11.4920  -14.4240   -4.6240 C   0  0  0  0  0  0  0  0  0  0  0  0
   12.5010  -13.7710   -3.9030 C   0  0  0  0  0  0  0  0  0  0  0  0
   12.3820  -12.2980   -3.5890 C   0  0  0  0  0  0  0  0  0  0  0  0
   12.2910  -12.0500   -2.1680 N   0  0  0  0  0  0  0  0  0  0  0  0
   13.3370  -11.4850   -1.4590 N   0  0  0  0  0  0  0  0  0  0  0  0
   12.8200  -11.3850   -0.2070 C   0  0  0  0  0  0  0  0  0  0  0  0
   11.5130  -11.8430   -0.1610 C   0  0  0  0  0  0  0  0  0  0  0  0
   10.3830  -12.0330    0.7070 N   0  0  0  0  0  0  0  0  0  0  0  0
    9.4040  -12.5780   -0.1370 C   0  0  0  0  0  0  0  0  0  0  0  0
    7.9440  -12.9740    0.3990 C   0  0  0  0  0  0  0  0  0  0  0  0
    7.2780  -12.0140    1.1710 C   0  0  0  0  0  0  0  0  0  0  0  0
    6.0050  -12.2640    1.6870 C   0  0  0  0  0  0  0  0  0  0  0  0
    5.3680  -13.4820    1.4410 C   0  0  0  0  0  0  0  0  0  0  0  0
    4.0880  -13.6560    2.0100 N   0  0  0  0  0  0  0  0  0  0  0  0
    2.8760  -13.8320    1.3580 C   0  0  0  0  0  0  0  0  0  0  0  0
    2.7080  -13.7950    0.1470 O   0  0  0  0  0  0  0  0  0  0  0  0
    1.8670  -14.0660    2.2880 N   0  0  0  0  0  0  0  0  0  0  0  0
    0.4820  -14.2010    2.0490 C   0  0  0  0  0  0  0  0  0  0  0  0
   -0.3260  -13.1880    1.5210 C   0  0  0  0  0  0  0  0  0  0  0  0
   -1.7050  -13.3610    1.3000 C   0  0  0  0  0  0  0  0  0  0  0  0
   -2.5100  -12.3640    0.7560 N   0  0  0  0  0  0  0  0  0  0  0  0
   -1.9000  -11.0510    0.4710 C   0  0  0  0  0  0  0  0  0  0  0  0
   -2.9890   -9.9760    0.3300 C   0  0  0  0  0  0  0  0  0  0  0  0
   -3.9710  -10.3330   -0.6520 O   0  0  0  0  0  0  0  0  0  0  0  0
   -4.6110  -11.5640   -0.2770 C   0  0  0  0  0  0  0  0  0  0  0  0
   -3.6070  -12.7220   -0.1660 C   0  0  0  0  0  0  0  0  0  0  0  0
   -2.2490  -14.6120    1.6260 C   0  0  0  0  0  0  0  0  0  0  0  0
   -1.4710  -15.6450    2.1730 C   0  0  0  0  0  0  0  0  0  0  0  0
   -2.0940  -16.9770    2.4880 C   0  0  0  0  0  0  0  0  0  0  0  0
   -3.4290  -17.0060    2.2200 F   0  0  0  0  0  0  0  0  0  0  0  0
   -1.5510  -18.0040    1.7730 F   0  0  0  0  0  0  0  0  0  0  0  0
   -1.9680  -17.3330    3.7960 F   0  0  0  0  0  0  0  0  0  0  0  0
   -0.1010  -15.4270    2.3770 C   0  0  0  0  0  0  0  0  0  0  0  0
    6.0290  -14.4440    0.6720 C   0  0  0  0  0  0  0  0  0  0  0  0
    7.3180  -14.2080    0.1410 C   0  0  0  0  0  0  0  0  0  0  0  0
    7.9630  -15.2900   -0.6770 C   0  0  0  0  0  0  0  0  0  0  0  0
    9.8420  -12.7310   -1.4530 N   0  0  0  0  0  0  0  0  0  0  0  0
   11.2030  -12.2450   -1.3940 C   0  0  0  0  0  0  0  0  0  0  0  0
   13.6110  -14.5100   -3.4770 C   0  0  0  0  0  0  0  0  0  0  0  0
   13.7080  -15.8720   -3.7780 C   0  0  0  0  0  0  0  0  0  0  0  0
   12.9837  -18.0576   -2.6655 H   0  0  0  0  0  0  0  0  0  0  0  0
   12.5084  -19.5273   -3.5825 H   0  0  0  0  0  0  0  0  0  0  0  0
   14.2203  -18.9831   -3.5825 H   0  0  0  0  0  0  0  0  0  0  0  0
   10.7886  -16.2854   -5.4850 H   0  0  0  0  0  0  0  0  0  0  0  0
   10.6121  -13.8570   -4.9621 H   0  0  0  0  0  0  0  0  0  0  0  0
   13.2678  -11.7787   -3.9836 H   0  0  0  0  0  0  0  0  0  0  0  0
   11.4590  -11.9256   -4.0574 H   0  0  0  0  0  0  0  0  0  0  0  0
   13.3692  -10.9904    0.6605 H   0  0  0  0  0  0  0  0  0  0  0  0
    7.7650  -11.0488    1.3738 H   0  0  0  0  0  0  0  0  0  0  0  0
    5.5003  -11.4961    2.2916 H   0  0  0  0  0  0  0  0  0  0  0  0
    4.0620  -13.5980    3.0140 H   0  0  0  0  0  0  0  0  0  0  0  0
    2.1720  -14.2150    3.2360 H   0  0  0  0  0  0  0  0  0  0  0  0
    0.1336  -12.2208    1.2694 H   0  0  0  0  0  0  0  0  0  0  0  0
   -1.2251  -10.7778    1.2956 H   0  0  0  0  0  0  0  0  0  0  0  0
   -1.3367  -11.1153   -0.4716 H   0  0  0  0  0  0  0  0  0  0  0  0
   -3.4886   -9.8468    1.3014 H   0  0  0  0  0  0  0  0  0  0  0  0
   -2.5058   -9.0430    0.0044 H   0  0  0  0  0  0  0  0  0  0  0  0
   -5.1038  -11.4262    0.6967 H   0  0  0  0  0  0  0  0  0  0  0  0
   -5.3413  -11.8201   -1.0587 H   0  0  0  0  0  0  0  0  0  0  0  0
   -4.1240  -13.6151    0.2149 H   0  0  0  0  0  0  0  0  0  0  0  0
   -3.1852  -12.9260   -1.1612 H   0  0  0  0  0  0  0  0  0  0  0  0
   -3.3198  -14.7896    1.4474 H   0  0  0  0  0  0  0  0  0  0  0  0
    0.5210  -16.2298    2.7997 H   0  0  0  0  0  0  0  0  0  0  0  0
    5.5350  -15.4069    0.4754 H   0  0  0  0  0  0  0  0  0  0  0  0
    8.4097  -16.0393   -0.0069 H   0  0  0  0  0  0  0  0  0  0  0  0
    7.2044  -15.7715   -1.3116 H   0  0  0  0  0  0  0  0  0  0  0  0
    8.7473  -14.8517   -1.3116 H   0  0  0  0  0  0  0  0  0  0  0  0
   14.4099  -14.0174   -2.9033 H   0  0  0  0  0  0  0  0  0  0  0  0
   14.5882  -16.4410   -3.4441 H   0  0  0  0  0  0  0  0  0  0  0  0
  1  2  1  0
  2  3  1  0
  3  4  2  0
  4  5  1  0
  5  6  2  0
  6  7  1  0
  7  8  1  0
  8  9  1  0
  9 10  2  0
 10 11  1  0
 11 12  1  0
 12 13  1  0
 13 14  1  0
 14 15  2  0
 15 16  1  0
 16 17  2  0
 17 18  1  0
 18 19  1  0
 19 20  2  0
 19 21  1  0
 21 22  1  0
 22 23  2  0
 23 24  1  0
 24 25  1  0
 25 26  1  0
 26 27  1  0
 27 28  1  0
 28 29  1  0
 29 30  1  0
 24 31  2  0
 31 32  1  0
 32 33  1  0
 33 34  1  0
 33 35  1  0
 33 36  1  0
 32 37  2  0
 17 38  1  0
 38 39  2  0
 39 40  1  0
 13 41  2  0
 41 42  1  0
  6 43  1  0
 43 44  2  0
 44  3  1  0
 42  8  1  0
 42 11  2  0
 39 14  1  0
 37 22  1  0
 30 25  1  0
  1 45  1  0
  1 46  1  0
  1 47  1  0
  4 48  1  0
  5 49  1  0
  7 50  1  0
  7 51  1  0
 10 52  1  0
 15 53  1  0
 16 54  1  0
 18 55  1  0
 21 56  1  0
 23 57  1  0
 26 58  1  0
 26 59  1  0
 27 60  1  0
 27 61  1  0
 29 62  1  0
 29 63  1  0
 30 64  1  0
 30 65  1  0
 31 66  1  0
 37 67  1  0
 38 68  1  0
 40 69  1  0
 40 70  1  0
 40 71  1  0
 43 72  1  0
 44 73  1  0
M  CHG  1  12  -1
M  END
>  <meeko>  (3) 
{"is_sidechain": [false], "free_energy": -9.212, "intermolecular_energy": -13.502, "internal_energy": -1.207}

$$$$
LIB_JDMGNUZGYHBPDP__M_PUB_ALL__e8__s20260927
     RDKit          3D

 73 78  0  0  0  0  0  0  0  0999 V2000
   12.5060  -11.0170    0.1490 C   0  0  0  0  0  0  0  0  0  0  0  0
   13.0580  -10.7260   -1.1290 O   0  0  0  0  0  0  0  0  0  0  0  0
   13.1000  -11.7630   -2.0220 C   0  0  0  0  0  0  0  0  0  0  0  0
   12.3530  -12.9370   -1.9500 C   0  0  0  0  0  0  0  0  0  0  0  0
   12.4930  -13.9220   -2.9340 C   0  0  0  0  0  0  0  0  0  0  0  0
   13.3810  -13.7470   -4.0040 C   0  0  0  0  0  0  0  0  0  0  0  0
   13.5220  -14.8180   -5.0600 C   0  0  0  0  0  0  0  0  0  0  0  0
   12.6110  -14.6160   -6.1640 N   0  0  0  0  0  0  0  0  0  0  0  0
   13.0670  -14.4160   -7.4550 N   0  0  0  0  0  0  0  0  0  0  0  0
   11.9100  -14.3270   -8.1620 C   0  0  0  0  0  0  0  0  0  0  0  0
   10.8040  -14.4910   -7.3440 C   0  0  0  0  0  0  0  0  0  0  0  0
    9.3670  -14.5440   -7.3370 N   0  0  0  0  0  0  0  0  0  0  0  0
    9.0500  -14.7750   -5.9890 C   0  0  0  0  0  0  0  0  0  0  0  0
    7.5330  -14.9030   -5.4820 C   0  0  0  0  0  0  0  0  0  0  0  0
    6.9340  -13.7330   -4.9960 C   0  0  0  0  0  0  0  0  0  0  0  0
    5.6190  -13.7400   -4.5280 C   0  0  0  0  0  0  0  0  0  0  0  0
    4.8720  -14.9200   -4.5360 C   0  0  0  0  0  0  0  0  0  0  0  0
    3.5540  -14.8410   -4.0340 N   0  0  0  0  0  0  0  0  0  0  0  0
    3.1450  -14.5280   -2.7460 C   0  0  0  0  0  0  0  0  0  0  0  0
    3.8860  -14.3340   -1.7920 O   0  0  0  0  0  0  0  0  0  0  0  0
    1.7560  -14.4610   -2.6920 N   0  0  0  0  0  0  0  0  0  0  0  0
    0.9400  -14.2650   -1.5560 C   0  0  0  0  0  0  0  0  0  0  0  0
    0.7030  -13.0190   -0.9660 C   0  0  0  0  0  0  0  0  0  0  0  0
   -0.1160  -12.8660    0.1690 C   0  0  0  0  0  0  0  0  0  0  0  0
   -0.3730  -11.6260    0.7480 N   0  0  0  0  0  0  0  0  0  0  0  0
    0.2250  -10.4280    0.1290 C   0  0  0  0  0  0  0  0  0  0  0  0
    0.2320   -9.2590    1.1270 C   0  0  0  0  0  0  0  0  0  0  0  0
   -1.0770   -8.9940    1.6510 O   0  0  0  0  0  0  0  0  0  0  0  0
   -1.5730  -10.1560    2.3350 C   0  0  0  0  0  0  0  0  0  0  0  0
   -1.6730  -11.3730    1.4010 C   0  0  0  0  0  0  0  0  0  0  0  0
   -0.7010  -14.0280    0.6920 C   0  0  0  0  0  0  0  0  0  0  0  0
   -0.4700  -15.2960    0.1340 C   0  0  0  0  0  0  0  0  0  0  0  0
   -1.1370  -16.5120    0.7170 C   0  0  0  0  0  0  0  0  0  0  0  0
   -0.5600  -17.6740    0.3020 F   0  0  0  0  0  0  0  0  0  0  0  0
   -1.0960  -16.5450    2.0790 F   0  0  0  0  0  0  0  0  0  0  0  0
   -2.4550  -16.6120    0.3860 F   0  0  0  0  0  0  0  0  0  0  0  0
    0.3530  -15.4010   -0.9960 C   0  0  0  0  0  0  0  0  0  0  0  0
    5.4650  -16.0900   -5.0180 C   0  0  0  0  0  0  0  0  0  0  0  0
    6.7960  -16.1010   -5.4970 C   0  0  0  0  0  0  0  0  0  0  0  0
    7.3630  -17.3970   -6.0000 C   0  0  0  0  0  0  0  0  0  0  0  0
   10.1780  -14.8740   -5.1730 N   0  0  0  0  0  0  0  0  0  0  0  0
   11.2650  -14.6770   -6.1060 C   0  0  0  0  0  0  0  0  0  0  0  0
   14.1250  -12.5640   -4.0750 C   0  0  0  0  0  0  0  0  0  0  0  0
   13.9860  -11.5830   -3.0870 C   0  0  0  0  0  0  0  0  0  0  0  0
   13.1881  -10.6574    0.9335 H   0  0  0  0  0  0  0  0  0  0  0  0
   11.5326  -10.5148    0.2510 H   0  0  0  0  0  0  0  0  0  0  0  0
   12.3703  -12.1038    0.2510 H   0  0  0  0  0  0  0  0  0  0  0  0
   11.6510  -13.0900   -1.1170 H   0  0  0  0  0  0  0  0  0  0  0  0
   11.8987  -14.8452   -2.8668 H   0  0  0  0  0  0  0  0  0  0  0  0
   14.5528  -14.8044   -5.4437 H   0  0  0  0  0  0  0  0  0  0  0  0
   13.2820  -15.7857   -4.5953 H   0  0  0  0  0  0  0  0  0  0  0  0
   11.8582  -14.1475   -9.2460 H   0  0  0  0  0  0  0  0  0  0  0  0
    7.5087  -12.7951   -4.9831 H   0  0  0  0  0  0  0  0  0  0  0  0
    5.1682  -12.8103   -4.1505 H   0  0  0  0  0  0  0  0  0  0  0  0
    2.8360  -15.0860   -4.6940 H   0  0  0  0  0  0  0  0  0  0  0  0
    1.2820  -14.4970   -3.5800 H   0  0  0  0  0  0  0  0  0  0  0  0
    1.1734  -12.1266   -1.4046 H   0  0  0  0  0  0  0  0  0  0  0  0
    1.2584  -10.6532   -0.1733 H   0  0  0  0  0  0  0  0  0  0  0  0
   -0.3715  -10.1441   -0.7505 H   0  0  0  0  0  0  0  0  0  0  0  0
    0.9051   -9.5075    1.9608 H   0  0  0  0  0  0  0  0  0  0  0  0
    0.5744   -8.3591    0.5950 H   0  0  0  0  0  0  0  0  0  0  0  0
   -0.8913  -10.3988    3.1635 H   0  0  0  0  0  0  0  0  0  0  0  0
   -2.5831   -9.9275    2.7059 H   0  0  0  0  0  0  0  0  0  0  0  0
   -1.9629  -12.2575    1.9872 H   0  0  0  0  0  0  0  0  0  0  0  0
   -2.4283  -11.1694    0.6276 H   0  0  0  0  0  0  0  0  0  0  0  0
   -1.3619  -13.9438    1.5673 H   0  0  0  0  0  0  0  0  0  0  0  0
    0.5379  -16.3877   -1.4456 H   0  0  0  0  0  0  0  0  0  0  0  0
    4.8835  -17.0237   -5.0251 H   0  0  0  0  0  0  0  0  0  0  0  0
    7.6407  -18.0318   -5.1457 H   0  0  0  0  0  0  0  0  0  0  0  0
    6.6090  -17.9143   -6.6114 H   0  0  0  0  0  0  0  0  0  0  0  0
    8.2547  -17.1944   -6.6114 H   0  0  0  0  0  0  0  0  0  0  0  0
   14.8220  -12.4046   -4.9109 H   0  0  0  0  0  0  0  0  0  0  0  0
   14.5809  -10.6599   -3.1496 H   0  0  0  0  0  0  0  0  0  0  0  0
  1  2  1  0
  2  3  1  0
  3  4  2  0
  4  5  1  0
  5  6  2  0
  6  7  1  0
  7  8  1  0
  8  9  1  0
  9 10  2  0
 10 11  1  0
 11 12  1  0
 12 13  1  0
 13 14  1  0
 14 15  2  0
 15 16  1  0
 16 17  2  0
 17 18  1  0
 18 19  1  0
 19 20  2  0
 19 21  1  0
 21 22  1  0
 22 23  2  0
 23 24  1  0
 24 25  1  0
 25 26  1  0
 26 27  1  0
 27 28  1  0
 28 29  1  0
 29 30  1  0
 24 31  2  0
 31 32  1  0
 32 33  1  0
 33 34  1  0
 33 35  1  0
 33 36  1  0
 32 37  2  0
 17 38  1  0
 38 39  2  0
 39 40  1  0
 13 41  2  0
 41 42  1  0
  6 43  1  0
 43 44  2  0
 44  3  1  0
 42  8  1  0
 42 11  2  0
 39 14  1  0
 37 22  1  0
 30 25  1  0
  1 45  1  0
  1 46  1  0
  1 47  1  0
  4 48  1  0
  5 49  1  0
  7 50  1  0
  7 51  1  0
 10 52  1  0
 15 53  1  0
 16 54  1  0
 18 55  1  0
 21 56  1  0
 23 57  1  0
 26 58  1  0
 26 59  1  0
 27 60  1  0
 27 61  1  0
 29 62  1  0
 29 63  1  0
 30 64  1  0
 30 65  1  0
 31 66  1  0
 37 67  1  0
 38 68  1  0
 40 69  1  0
 40 70  1  0
 40 71  1  0
 43 72  1  0
 44 73  1  0
M  CHG  1  12  -1
M  END
>  <meeko>  (4) 
{"is_sidechain": [false], "free_energy": -9.003, "intermolecular_energy": -13.244, "internal_energy": -1.158}

$$$$
LIB_JDMGNUZGYHBPDP__M_PUB_ALL__e8__s20260927
     RDKit          3D

 73 78  0  0  0  0  0  0  0  0999 V2000
   11.1260   -8.5390  -11.1640 C   0  0  0  0  0  0  0  0  0  0  0  0
   11.5700   -9.8580  -11.4520 O   0  0  0  0  0  0  0  0  0  0  0  0
   10.6180  -10.8410  -11.4130 C   0  0  0  0  0  0  0  0  0  0  0  0
   10.8570  -12.2090  -11.2960 C   0  0  0  0  0  0  0  0  0  0  0  0
    9.7880  -13.1110  -11.2690 C   0  0  0  0  0  0  0  0  0  0  0  0
    8.4640  -12.6580  -11.3590 C   0  0  0  0  0  0  0  0  0  0  0  0
    7.3190  -13.6420  -11.3270 C   0  0  0  0  0  0  0  0  0  0  0  0
    7.3960  -14.5320  -10.1900 N   0  0  0  0  0  0  0  0  0  0  0  0
    8.1020  -15.7210  -10.2430 N   0  0  0  0  0  0  0  0  0  0  0  0
    7.9600  -16.2000   -8.9800 C   0  0  0  0  0  0  0  0  0  0  0  0
    7.2250  -15.3320   -8.1890 C   0  0  0  0  0  0  0  0  0  0  0  0
    6.7070  -15.1320   -6.8630 N   0  0  0  0  0  0  0  0  0  0  0  0
    6.0480  -13.8960   -6.9470 C   0  0  0  0  0  0  0  0  0  0  0  0
    5.2910  -13.2480   -5.6890 C   0  0  0  0  0  0  0  0  0  0  0  0
    3.8960  -13.1490   -5.7810 C   0  0  0  0  0  0  0  0  0  0  0  0
    3.1460  -12.5960   -4.7410 C   0  0  0  0  0  0  0  0  0  0  0  0
    3.7750  -12.1310   -3.5840 C   0  0  0  0  0  0  0  0  0  0  0  0
    2.9410  -11.5760   -2.5880 N   0  0  0  0  0  0  0  0  0  0  0  0
    2.2260  -12.2390   -1.6010 C   0  0  0  0  0  0  0  0  0  0  0  0
    2.1470  -13.4540   -1.4760 O   0  0  0  0  0  0  0  0  0  0  0  0
    1.6110  -11.3170   -0.7600 N   0  0  0  0  0  0  0  0  0  0  0  0
    0.7190  -11.5740    0.3040 C   0  0  0  0  0  0  0  0  0  0  0  0
    0.5820  -12.8180    0.9300 C   0  0  0  0  0  0  0  0  0  0  0  0
   -0.3200  -13.0350    1.9880 C   0  0  0  0  0  0  0  0  0  0  0  0
   -0.4460  -14.2650    2.6290 N   0  0  0  0  0  0  0  0  0  0  0  0
   -1.6510  -14.5070    3.4460 C   0  0  0  0  0  0  0  0  0  0  0  0
   -1.4090  -15.6720    4.4190 C   0  0  0  0  0  0  0  0  0  0  0  0
   -0.9770  -16.8590    3.7380 O   0  0  0  0  0  0  0  0  0  0  0  0
    0.2540  -16.6010    3.0430 C   0  0  0  0  0  0  0  0  0  0  0  0
    0.1010  -15.4830    1.9990 C   0  0  0  0  0  0  0  0  0  0  0  0
   -1.0860  -11.9370    2.4050 C   0  0  0  0  0  0  0  0  0  0  0  0
   -0.9870  -10.6790    1.7870 C   0  0  0  0  0  0  0  0  0  0  0  0
   -1.8140   -9.5250    2.2830 C   0  0  0  0  0  0  0  0  0  0  0  0
   -1.0840   -8.6340    3.0100 F   0  0  0  0  0  0  0  0  0  0  0  0
   -2.3830   -8.8030    1.2760 F   0  0  0  0  0  0  0  0  0  0  0  0
   -2.8440   -9.9090    3.0880 F   0  0  0  0  0  0  0  0  0  0  0  0
   -0.0740  -10.5100    0.7370 C   0  0  0  0  0  0  0  0  0  0  0  0
    5.1650  -12.2260   -3.4900 C   0  0  0  0  0  0  0  0  0  0  0  0
    5.9410  -12.7830   -4.5320 C   0  0  0  0  0  0  0  0  0  0  0  0
    7.4310  -12.8520   -4.3550 C   0  0  0  0  0  0  0  0  0  0  0  0
    6.1280  -13.3210   -8.2160 N   0  0  0  0  0  0  0  0  0  0  0  0
    6.8920  -14.2970   -8.9610 C   0  0  0  0  0  0  0  0  0  0  0  0
    8.2290  -11.2830  -11.4700 C   0  0  0  0  0  0  0  0  0  0  0  0
    9.3000  -10.3850  -11.5010 C   0  0  0  0  0  0  0  0  0  0  0  0
   11.0785   -8.3979  -10.0741 H   0  0  0  0  0  0  0  0  0  0  0  0
   11.8291   -7.8126  -11.5975 H   0  0  0  0  0  0  0  0  0  0  0  0
   10.1267   -8.3856  -11.5975 H   0  0  0  0  0  0  0  0  0  0  0  0
   11.8898  -12.5808  -11.2246 H   0  0  0  0  0  0  0  0  0  0  0  0
    9.9885  -14.1886  -11.1760 H   0  0  0  0  0  0  0  0  0  0  0  0
    6.3729  -13.0832  -11.2762 H   0  0  0  0  0  0  0  0  0  0  0  0
    7.3737  -14.2539  -12.2395 H   0  0  0  0  0  0  0  0  0  0  0  0
    8.3759  -17.1561   -8.6295 H   0  0  0  0  0  0  0  0  0  0  0  0
    3.3849  -13.5119   -6.6849 H   0  0  0  0  0  0  0  0  0  0  0  0
    2.0521  -12.5261   -4.8337 H   0  0  0  0  0  0  0  0  0  0  0  0
    2.8280  -10.5790   -2.6410 H   0  0  0  0  0  0  0  0  0  0  0  0
    1.8810  -10.3560   -0.8920 H   0  0  0  0  0  0  0  0  0  0  0  0
    1.2023  -13.6572    0.5822 H   0  0  0  0  0  0  0  0  0  0  0  0
   -1.8896  -13.5989    4.0190 H   0  0  0  0  0  0  0  0  0  0  0  0
   -2.4891  -14.7634    2.7813 H   0  0  0  0  0  0  0  0  0  0  0  0
   -0.6351  -15.3758    5.1425 H   0  0  0  0  0  0  0  0  0  0  0  0
   -2.3600  -15.8966    4.9241 H   0  0  0  0  0  0  0  0  0  0  0  0
    1.0191  -16.3019    3.7745 H   0  0  0  0  0  0  0  0  0  0  0  0
    0.5465  -17.5211    2.5159 H   0  0  0  0  0  0  0  0  0  0  0  0
    1.0854  -15.2557    1.5638 H   0  0  0  0  0  0  0  0  0  0  0  0
   -0.5900  -15.8202    1.2123 H   0  0  0  0  0  0  0  0  0  0  0  0
   -1.7870  -12.0646    3.2430 H   0  0  0  0  0  0  0  0  0  0  0  0
    0.0186   -9.5285    0.2490 H   0  0  0  0  0  0  0  0  0  0  0  0
    5.6681  -11.8586   -2.5834 H   0  0  0  0  0  0  0  0  0  0  0  0
    7.6726  -12.8632   -3.2819 H   0  0  0  0  0  0  0  0  0  0  0  0
    7.8142  -13.7689   -4.8267 H   0  0  0  0  0  0  0  0  0  0  0  0
    7.8973  -11.9745   -4.8267 H   0  0  0  0  0  0  0  0  0  0  0  0
    7.1971  -10.9071  -11.5331 H   0  0  0  0  0  0  0  0  0  0  0  0
    9.1029   -9.3070  -11.5958 H   0  0  0  0  0  0  0  0  0  0  0  0
  1  2  1  0
  2  3  1  0
  3  4  2  0
  4  5  1  0
  5  6  2  0
  6  7  1  0
  7  8  1  0
  8  9  1  0
  9 10  2  0
 10 11  1  0
 11 12  1  0
 12 13  1  0
 13 14  1  0
 14 15  2  0
 15 16  1  0
 16 17  2  0
 17 18  1  0
 18 19  1  0
 19 20  2  0
 19 21  1  0
 21 22  1  0
 22 23  2  0
 23 24  1  0
 24 25  1  0
 25 26  1  0
 26 27  1  0
 27 28  1  0
 28 29  1  0
 29 30  1  0
 24 31  2  0
 31 32  1  0
 32 33  1  0
 33 34  1  0
 33 35  1  0
 33 36  1  0
 32 37  2  0
 17 38  1  0
 38 39  2  0
 39 40  1  0
 13 41  2  0
 41 42  1  0
  6 43  1  0
 43 44  2  0
 44  3  1  0
 42  8  1  0
 42 11  2  0
 39 14  1  0
 37 22  1  0
 30 25  1  0
  1 45  1  0
  1 46  1  0
  1 47  1  0
  4 48  1  0
  5 49  1  0
  7 50  1  0
  7 51  1  0
 10 52  1  0
 15 53  1  0
 16 54  1  0
 18 55  1  0
 21 56  1  0
 23 57  1  0
 26 58  1  0
 26 59  1  0
 27 60  1  0
 27 61  1  0
 29 62  1  0
 29 63  1  0
 30 64  1  0
 30 65  1  0
 31 66  1  0
 37 67  1  0
 38 68  1  0
 40 69  1  0
 40 70  1  0
 40 71  1  0
 43 72  1  0
 44 73  1  0
M  CHG  1  12  -1
M  END
>  <meeko>  (5) 
{"is_sidechain": [false], "free_energy": -8.988, "intermolecular_energy": -13.601, "internal_energy": -0.779}

$$$$
LIB_JDMGNUZGYHBPDP__M_PUB_ALL__e8__s20260927
     RDKit          3D

 73 78  0  0  0  0  0  0  0  0999 V2000
    1.8420  -17.8640    4.5820 C   0  0  0  0  0  0  0  0  0  0  0  0
    1.4770  -16.7300    5.3570 O   0  0  0  0  0  0  0  0  0  0  0  0
    0.6900  -15.7970    4.7370 C   0  0  0  0  0  0  0  0  0  0  0  0
    0.6300  -14.4400    5.0470 C   0  0  0  0  0  0  0  0  0  0  0  0
   -0.2230  -13.5910    4.3320 C   0  0  0  0  0  0  0  0  0  0  0  0
   -1.0260  -14.0880    3.2960 C   0  0  0  0  0  0  0  0  0  0  0  0
   -1.9410  -13.1610    2.5310 C   0  0  0  0  0  0  0  0  0  0  0  0
   -1.2190  -12.0720    1.9120 N   0  0  0  0  0  0  0  0  0  0  0  0
   -1.3880  -10.7610    2.3230 N   0  0  0  0  0  0  0  0  0  0  0  0
   -0.5060  -10.0930    1.5350 C   0  0  0  0  0  0  0  0  0  0  0  0
    0.1860  -10.9600    0.7030 C   0  0  0  0  0  0  0  0  0  0  0  0
    1.2030  -11.0250   -0.3110 N   0  0  0  0  0  0  0  0  0  0  0  0
    1.2860  -12.3940   -0.6090 C   0  0  0  0  0  0  0  0  0  0  0  0
    2.3010  -12.9640   -1.7140 C   0  0  0  0  0  0  0  0  0  0  0  0
    1.8180  -13.0410   -3.0280 C   0  0  0  0  0  0  0  0  0  0  0  0
    2.6220  -13.5260   -4.0600 C   0  0  0  0  0  0  0  0  0  0  0  0
    3.9290  -13.9450   -3.8030 C   0  0  0  0  0  0  0  0  0  0  0  0
    4.6670  -14.4330   -4.9030 N   0  0  0  0  0  0  0  0  0  0  0  0
    5.6350  -13.7740   -5.6470 C   0  0  0  0  0  0  0  0  0  0  0  0
    5.9640  -12.6030   -5.5070 O   0  0  0  0  0  0  0  0  0  0  0  0
    6.1900  -14.6430   -6.5820 N   0  0  0  0  0  0  0  0  0  0  0  0
    7.1330  -14.3460   -7.5900 C   0  0  0  0  0  0  0  0  0  0  0  0
    8.5170  -14.4700   -7.4310 C   0  0  0  0  0  0  0  0  0  0  0  0
    9.4250  -14.1610   -8.4610 C   0  0  0  0  0  0  0  0  0  0  0  0
   10.8020  -14.3030   -8.3160 N   0  0  0  0  0  0  0  0  0  0  0  0
   11.3420  -14.5480   -6.9650 C   0  0  0  0  0  0  0  0  0  0  0  0
   12.8410  -14.2160   -6.9210 C   0  0  0  0  0  0  0  0  0  0  0  0
   13.5780  -14.9250   -7.9270 O   0  0  0  0  0  0  0  0  0  0  0  0
   13.0850  -14.5740   -9.2300 C   0  0  0  0  0  0  0  0  0  0  0  0
   11.5970  -14.9230   -9.3950 C   0  0  0  0  0  0  0  0  0  0  0  0
    8.8810  -13.7230   -9.6780 C   0  0  0  0  0  0  0  0  0  0  0  0
    7.4980  -13.5700   -9.8650 C   0  0  0  0  0  0  0  0  0  0  0  0
    6.9590  -13.1170  -11.1950 C   0  0  0  0  0  0  0  0  0  0  0  0
    6.7060  -11.7790  -11.2270 F   0  0  0  0  0  0  0  0  0  0  0  0
    7.8150  -13.3570  -12.2290 F   0  0  0  0  0  0  0  0  0  0  0  0
    5.7900  -13.7260  -11.5360 F   0  0  0  0  0  0  0  0  0  0  0  0
    6.6320  -13.8900   -8.8110 C   0  0  0  0  0  0  0  0  0  0  0  0
    4.4140  -13.8720   -2.4950 C   0  0  0  0  0  0  0  0  0  0  0  0
    3.6150  -13.3820   -1.4360 C   0  0  0  0  0  0  0  0  0  0  0  0
    4.2070  -13.3330   -0.0570 C   0  0  0  0  0  0  0  0  0  0  0  0
    0.4070  -13.1710    0.1460 N   0  0  0  0  0  0  0  0  0  0  0  0
   -0.2700  -12.1860    0.9610 C   0  0  0  0  0  0  0  0  0  0  0  0
   -0.9580  -15.4510    2.9850 C   0  0  0  0  0  0  0  0  0  0  0  0
   -0.1080  -16.2970    3.7050 C   0  0  0  0  0  0  0  0  0  0  0  0
    2.1094  -18.6949    5.2514 H   0  0  0  0  0  0  0  0  0  0  0  0
    0.9946  -18.1626    3.9474 H   0  0  0  0  0  0  0  0  0  0  0  0
    2.7045  -17.6122    3.9474 H   0  0  0  0  0  0  0  0  0  0  0  0
    1.2550  -14.0344    5.8563 H   0  0  0  0  0  0  0  0  0  0  0  0
   -0.2636  -12.5215    4.5860 H   0  0  0  0  0  0  0  0  0  0  0  0
   -2.4544  -13.7370    1.7470 H   0  0  0  0  0  0  0  0  0  0  0  0
   -2.6586  -12.7292    3.2442 H   0  0  0  0  0  0  0  0  0  0  0  0
   -0.3594   -9.0030    1.5544 H   0  0  0  0  0  0  0  0  0  0  0  0
    0.7909  -12.7145   -3.2483 H   0  0  0  0  0  0  0  0  0  0  0  0
    2.2233  -13.5787   -5.0838 H   0  0  0  0  0  0  0  0  0  0  0  0
    4.4180  -15.3610   -5.2000 H   0  0  0  0  0  0  0  0  0  0  0  0
    5.9300  -15.6120   -6.4860 H   0  0  0  0  0  0  0  0  0  0  0  0
    8.9102  -14.8218   -6.4658 H   0  0  0  0  0  0  0  0  0  0  0  0
   10.8088  -13.9146   -6.2408 H   0  0  0  0  0  0  0  0  0  0  0  0
   11.2033  -15.6094   -6.7116 H   0  0  0  0  0  0  0  0  0  0  0  0
   12.9703  -13.1355   -7.0813 H   0  0  0  0  0  0  0  0  0  0  0  0
   13.2280  -14.5214   -5.9376 H   0  0  0  0  0  0  0  0  0  0  0  0
   13.2148  -13.4920   -9.3794 H   0  0  0  0  0  0  0  0  0  0  0  0
   13.6540  -15.1492   -9.9753 H   0  0  0  0  0  0  0  0  0  0  0  0
   11.2425  -14.5498  -10.3671 H   0  0  0  0  0  0  0  0  0  0  0  0
   11.4781  -16.0154   -9.3443 H   0  0  0  0  0  0  0  0  0  0  0  0
    9.5598  -13.4921  -10.5122 H   0  0  0  0  0  0  0  0  0  0  0  0
    5.5459  -13.7808   -8.9469 H   0  0  0  0  0  0  0  0  0  0  0  0
    5.4414  -14.2034   -2.2838 H   0  0  0  0  0  0  0  0  0  0  0  0
    3.4023  -13.3996    0.6900 H   0  0  0  0  0  0  0  0  0  0  0  0
    4.9003  -14.1768    0.0746 H   0  0  0  0  0  0  0  0  0  0  0  0
    4.7521  -12.3867    0.0746 H   0  0  0  0  0  0  0  0  0  0  0  0
   -1.5755  -15.8586    2.1710 H   0  0  0  0  0  0  0  0  0  0  0  0
   -0.0674  -17.3677    3.4559 H   0  0  0  0  0  0  0  0  0  0  0  0
  1  2  1  0
  2  3  1  0
  3  4  2  0
  4  5  1  0
  5  6  2  0
  6  7  1  0
  7  8  1  0
  8  9  1  0
  9 10  2  0
 10 11  1  0
 11 12  1  0
 12 13  1  0
 13 14  1  0
 14 15  2  0
 15 16  1  0
 16 17  2  0
 17 18  1  0
 18 19  1  0
 19 20  2  0
 19 21  1  0
 21 22  1  0
 22 23  2  0
 23 24  1  0
 24 25  1  0
 25 26  1  0
 26 27  1  0
 27 28  1  0
 28 29  1  0
 29 30  1  0
 24 31  2  0
 31 32  1  0
 32 33  1  0
 33 34  1  0
 33 35  1  0
 33 36  1  0
 32 37  2  0
 17 38  1  0
 38 39  2  0
 39 40  1  0
 13 41  2  0
 41 42  1  0
  6 43  1  0
 43 44  2  0
 44  3  1  0
 42  8  1  0
 42 11  2  0
 39 14  1  0
 37 22  1  0
 30 25  1  0
  1 45  1  0
  1 46  1  0
  1 47  1  0
  4 48  1  0
  5 49  1  0
  7 50  1  0
  7 51  1  0
 10 52  1  0
 15 53  1  0
 16 54  1  0
 18 55  1  0
 21 56  1  0
 23 57  1  0
 26 58  1  0
 26 59  1  0
 27 60  1  0
 27 61  1  0
 29 62  1  0
 29 63  1  0
 30 64  1  0
 30 65  1  0
 31 66  1  0
 37 67  1  0
 38 68  1  0
 40 69  1  0
 40 70  1  0
 40 71  1  0
 43 72  1  0
 44 73  1  0
M  CHG  1  12  -1
M  END
>  <meeko>  (6) 
{"is_sidechain": [false], "free_energy": -8.942, "intermolecular_energy": -12.821, "internal_energy": -1.491}

$$$$
LIB_JDMGNUZGYHBPDP__M_PUB_ALL__e8__s20260927
     RDKit          3D

 73 78  0  0  0  0  0  0  0  0999 V2000
   12.2440  -18.4850   -4.8500 C   0  0  0  0  0  0  0  0  0  0  0  0
   12.8350  -17.4130   -5.5730 O   0  0  0  0  0  0  0  0  0  0  0  0
   12.8590  -16.1970   -4.9460 C   0  0  0  0  0  0  0  0  0  0  0  0
   13.5000  -15.9080   -3.7420 C   0  0  0  0  0  0  0  0  0  0  0  0
   13.4450  -14.6170   -3.2070 C   0  0  0  0  0  0  0  0  0  0  0  0
   12.7480  -13.5950   -3.8670 C   0  0  0  0  0  0  0  0  0  0  0  0
   12.6970  -12.2050   -3.2790 C   0  0  0  0  0  0  0  0  0  0  0  0
   12.2340  -12.2110   -1.9090 N   0  0  0  0  0  0  0  0  0  0  0  0
   13.0640  -11.8570   -0.8600 N   0  0  0  0  0  0  0  0  0  0  0  0
   12.2330  -11.9470    0.2110 C   0  0  0  0  0  0  0  0  0  0  0  0
   10.9520  -12.3120   -0.1720 C   0  0  0  0  0  0  0  0  0  0  0  0
    9.6280  -12.5740    0.3220 N   0  0  0  0  0  0  0  0  0  0  0  0
    8.8990  -12.8880   -0.8360 C   0  0  0  0  0  0  0  0  0  0  0  0
    7.3410  -13.2690   -0.7820 C   0  0  0  0  0  0  0  0  0  0  0  0
    6.4360  -12.2020   -0.7030 C   0  0  0  0  0  0  0  0  0  0  0  0
    5.0610  -12.4290   -0.6480 C   0  0  0  0  0  0  0  0  0  0  0  0
    4.5560  -13.7310   -0.6720 C   0  0  0  0  0  0  0  0  0  0  0  0
    3.1530  -13.8700   -0.6000 N   0  0  0  0  0  0  0  0  0  0  0  0
    2.3550  -13.9420    0.5320 C   0  0  0  0  0  0  0  0  0  0  0  0
    2.7600  -13.9670    1.6870 O   0  0  0  0  0  0  0  0  0  0  0  0
    1.0120  -13.9760    0.1660 N   0  0  0  0  0  0  0  0  0  0  0  0
   -0.1110  -14.1430    1.0040 C   0  0  0  0  0  0  0  0  0  0  0  0
   -0.3950  -15.3160    1.7120 C   0  0  0  0  0  0  0  0  0  0  0  0
   -1.5280  -15.4440    2.5360 C   0  0  0  0  0  0  0  0  0  0  0  0
   -1.8050  -16.6020    3.2590 N   0  0  0  0  0  0  0  0  0  0  0  0
   -2.8930  -17.4790    2.7850 C   0  0  0  0  0  0  0  0  0  0  0  0
   -3.3550  -18.4130    3.9150 C   0  0  0  0  0  0  0  0  0  0  0  0
   -2.2660  -19.1640    4.4680 O   0  0  0  0  0  0  0  0  0  0  0  0
   -1.2810  -18.2680    5.0110 C   0  0  0  0  0  0  0  0  0  0  0  0
   -0.7120  -17.3250    3.9390 C   0  0  0  0  0  0  0  0  0  0  0  0
   -2.3750  -14.3310    2.6300 C   0  0  0  0  0  0  0  0  0  0  0  0
   -2.1300  -13.1440    1.9200 C   0  0  0  0  0  0  0  0  0  0  0  0
   -3.0550  -11.9670    2.0690 C   0  0  0  0  0  0  0  0  0  0  0  0
   -4.1880  -12.2780    2.7590 F   0  0  0  0  0  0  0  0  0  0  0  0
   -2.4890  -10.9230    2.7380 F   0  0  0  0  0  0  0  0  0  0  0  0
   -3.4720  -11.4580    0.8760 F   0  0  0  0  0  0  0  0  0  0  0  0
   -0.9890  -13.0620    1.1110 C   0  0  0  0  0  0  0  0  0  0  0  0
    5.4540  -14.7990   -0.7490 C   0  0  0  0  0  0  0  0  0  0  0  0
    6.8510  -14.5880   -0.8070 C   0  0  0  0  0  0  0  0  0  0  0  0
    7.7520  -15.7870   -0.8900 C   0  0  0  0  0  0  0  0  0  0  0  0
    9.6700  -12.8330   -1.9970 N   0  0  0  0  0  0  0  0  0  0  0  0
   10.9750  -12.4630   -1.4960 C   0  0  0  0  0  0  0  0  0  0  0  0
   12.1110  -13.8890   -5.0780 C   0  0  0  0  0  0  0  0  0  0  0  0
   12.1640  -15.1820   -5.6090 C   0  0  0  0  0  0  0  0  0  0  0  0
   12.3462  -18.2996   -3.7706 H   0  0  0  0  0  0  0  0  0  0  0  0
   11.1777  -18.5588   -5.1100 H   0  0  0  0  0  0  0  0  0  0  0  0
   12.7508  -19.4260   -5.1100 H   0  0  0  0  0  0  0  0  0  0  0  0
   14.0509  -16.6983   -3.2110 H   0  0  0  0  0  0  0  0  0  0  0  0
   13.9549  -14.4007   -2.2566 H   0  0  0  0  0  0  0  0  0  0  0  0
   13.7065  -11.7692   -3.3104 H   0  0  0  0  0  0  0  0  0  0  0  0
   11.9875  -11.6111   -3.8739 H   0  0  0  0  0  0  0  0  0  0  0  0
   12.5381  -11.7546    1.2502 H   0  0  0  0  0  0  0  0  0  0  0  0
    6.8158  -11.1698   -0.6841 H   0  0  0  0  0  0  0  0  0  0  0  0
    4.3690  -11.5762   -0.5852 H   0  0  0  0  0  0  0  0  0  0  0  0
    2.6940  -13.9710   -1.4890 H   0  0  0  0  0  0  0  0  0  0  0  0
    0.8200  -13.8000   -0.8070 H   0  0  0  0  0  0  0  0  0  0  0  0
    0.2930  -16.1695    1.6209 H   0  0  0  0  0  0  0  0  0  0  0  0
   -3.7409  -16.8602    2.4561 H   0  0  0  0  0  0  0  0  0  0  0  0
   -2.5231  -18.0872    1.9464 H   0  0  0  0  0  0  0  0  0  0  0  0
   -3.8106  -17.8077    4.7126 H   0  0  0  0  0  0  0  0  0  0  0  0
   -4.0800  -19.1247    3.4934 H   0  0  0  0  0  0  0  0  0  0  0  0
   -1.7474  -17.6649    5.8040 H   0  0  0  0  0  0  0  0  0  0  0  0
   -0.4522  -18.8724    5.4084 H   0  0  0  0  0  0  0  0  0  0  0  0
   -0.0381  -16.5982    4.4160 H   0  0  0  0  0  0  0  0  0  0  0  0
   -0.1604  -17.9198    3.1961 H   0  0  0  0  0  0  0  0  0  0  0  0
   -3.2600  -14.3890    3.2807 H   0  0  0  0  0  0  0  0  0  0  0  0
   -0.7824  -12.1362    0.5540 H   0  0  0  0  0  0  0  0  0  0  0  0
    5.0650  -15.8278   -0.7649 H   0  0  0  0  0  0  0  0  0  0  0  0
    8.0064  -16.1255    0.1252 H   0  0  0  0  0  0  0  0  0  0  0  0
    7.2367  -16.5963   -1.4280 H   0  0  0  0  0  0  0  0  0  0  0  0
    8.6727  -15.5172   -1.4280 H   0  0  0  0  0  0  0  0  0  0  0  0
   11.5657  -13.0990   -5.6151 H   0  0  0  0  0  0  0  0  0  0  0  0
   11.6534  -15.4021   -6.5581 H   0  0  0  0  0  0  0  0  0  0  0  0
  1  2  1  0
  2  3  1  0
  3  4  2  0
  4  5  1  0
  5  6  2  0
  6  7  1  0
  7  8  1  0
  8  9  1  0
  9 10  2  0
 10 11  1  0
 11 12  1  0
 12 13  1  0
 13 14  1  0
 14 15  2  0
 15 16  1  0
 16 17  2  0
 17 18  1  0
 18 19  1  0
 19 20  2  0
 19 21  1  0
 21 22  1  0
 22 23  2  0
 23 24  1  0
 24 25  1  0
 25 26  1  0
 26 27  1  0
 27 28  1  0
 28 29  1  0
 29 30  1  0
 24 31  2  0
 31 32  1  0
 32 33  1  0
 33 34  1  0
 33 35  1  0
 33 36  1  0
 32 37  2  0
 17 38  1  0
 38 39  2  0
 39 40  1  0
 13 41  2  0
 41 42  1  0
  6 43  1  0
 43 44  2  0
 44  3  1  0
 42  8  1  0
 42 11  2  0
 39 14  1  0
 37 22  1  0
 30 25  1  0
  1 45  1  0
  1 46  1  0
  1 47  1  0
  4 48  1  0
  5 49  1  0
  7 50  1  0
  7 51  1  0
 10 52  1  0
 15 53  1  0
 16 54  1  0
 18 55  1  0
 21 56  1  0
 23 57  1  0
 26 58  1  0
 26 59  1  0
 27 60  1  0
 27 61  1  0
 29 62  1  0
 29 63  1  0
 30 64  1  0
 30 65  1  0
 31 66  1  0
 37 67  1  0
 38 68  1  0
 40 69  1  0
 40 70  1  0
 40 71  1  0
 43 72  1  0
 44 73  1  0
M  CHG  1  12  -1
M  END
>  <meeko>  (7) 
{"is_sidechain": [false], "free_energy": -8.823, "intermolecular_energy": -12.716, "internal_energy": -1.422}

$$$$
LIB_JDMGNUZGYHBPDP__M_PUB_ALL__e8__s20260927
     RDKit          3D

 73 78  0  0  0  0  0  0  0  0999 V2000
   14.4760  -13.7000  -11.5710 C   0  0  0  0  0  0  0  0  0  0  0  0
   15.2850  -14.2860  -10.5590 O   0  0  0  0  0  0  0  0  0  0  0  0
   14.6920  -14.4740   -9.3400 C   0  0  0  0  0  0  0  0  0  0  0  0
   13.4170  -14.0440   -8.9740 C   0  0  0  0  0  0  0  0  0  0  0  0
   12.9290  -14.3010   -7.6890 C   0  0  0  0  0  0  0  0  0  0  0  0
   13.7070  -14.9940   -6.7510 C   0  0  0  0  0  0  0  0  0  0  0  0
   13.1680  -15.2670   -5.3670 C   0  0  0  0  0  0  0  0  0  0  0  0
   13.0760  -14.0620   -4.5710 N   0  0  0  0  0  0  0  0  0  0  0  0
   14.1780  -13.2580   -4.3400 N   0  0  0  0  0  0  0  0  0  0  0  0
   13.6480  -12.2390   -3.6150 C   0  0  0  0  0  0  0  0  0  0  0  0
   12.2830  -12.4020   -3.4360 C   0  0  0  0  0  0  0  0  0  0  0  0
   11.1130  -11.8040   -2.8540 N   0  0  0  0  0  0  0  0  0  0  0  0
   10.0830  -12.6990   -3.1850 C   0  0  0  0  0  0  0  0  0  0  0  0
    8.5640  -12.4530   -2.7320 C   0  0  0  0  0  0  0  0  0  0  0  0
    7.6200  -12.3050   -3.7580 C   0  0  0  0  0  0  0  0  0  0  0  0
    6.2730  -12.0830   -3.4680 C   0  0  0  0  0  0  0  0  0  0  0  0
    5.8380  -12.0050   -2.1430 C   0  0  0  0  0  0  0  0  0  0  0  0
    4.4610  -11.7660   -1.9400 N   0  0  0  0  0  0  0  0  0  0  0  0
    3.6220  -12.3360   -0.9930 C   0  0  0  0  0  0  0  0  0  0  0  0
    3.9360  -13.2160   -0.2030 O   0  0  0  0  0  0  0  0  0  0  0  0
    2.3590  -11.7540   -1.0670 N   0  0  0  0  0  0  0  0  0  0  0  0
    1.1970  -12.1120   -0.3490 C   0  0  0  0  0  0  0  0  0  0  0  0
    0.8250  -13.4300   -0.0630 C   0  0  0  0  0  0  0  0  0  0  0  0
   -0.3440  -13.7440    0.6540 C   0  0  0  0  0  0  0  0  0  0  0  0
   -0.7090  -15.0530    0.9600 N   0  0  0  0  0  0  0  0  0  0  0  0
   -2.1410  -15.4090    0.9120 C   0  0  0  0  0  0  0  0  0  0  0  0
   -2.3950  -16.7000    1.7050 C   0  0  0  0  0  0  0  0  0  0  0  0
   -1.5610  -17.7780    1.2560 O   0  0  0  0  0  0  0  0  0  0  0  0
   -0.1780  -17.4250    1.4200 C   0  0  0  0  0  0  0  0  0  0  0  0
    0.1930  -16.1700    0.6140 C   0  0  0  0  0  0  0  0  0  0  0  0
   -1.1330  -12.6690    1.0870 C   0  0  0  0  0  0  0  0  0  0  0  0
   -0.7980  -11.3350    0.8020 C   0  0  0  0  0  0  0  0  0  0  0  0
   -1.6650  -10.2130    1.3060 C   0  0  0  0  0  0  0  0  0  0  0  0
   -2.5270  -10.6160    2.2810 F   0  0  0  0  0  0  0  0  0  0  0  0
   -0.9490   -9.1850    1.8460 F   0  0  0  0  0  0  0  0  0  0  0  0
   -2.4370   -9.6530    0.3330 F   0  0  0  0  0  0  0  0  0  0  0  0
    0.3750  -11.0690    0.0850 C   0  0  0  0  0  0  0  0  0  0  0  0
    6.7750  -12.1500   -1.1170 C   0  0  0  0  0  0  0  0  0  0  0  0
    8.1440  -12.3770   -1.3920 C   0  0  0  0  0  0  0  0  0  0  0  0
    9.0900  -12.5240   -0.2350 C   0  0  0  0  0  0  0  0  0  0  0  0
   10.5300  -13.7930   -3.9270 N   0  0  0  0  0  0  0  0  0  0  0  0
   11.9490  -13.5400   -4.0460 C   0  0  0  0  0  0  0  0  0  0  0  0
   14.9840  -15.4290   -7.1250 C   0  0  0  0  0  0  0  0  0  0  0  0
   15.4710  -15.1650   -8.4090 C   0  0  0  0  0  0  0  0  0  0  0  0
   13.6697  -13.1159  -11.1034 H   0  0  0  0  0  0  0  0  0  0  0  0
   15.0931  -13.0380  -12.1962 H   0  0  0  0  0  0  0  0  0  0  0  0
   14.0394  -14.4928  -12.1962 H   0  0  0  0  0  0  0  0  0  0  0  0
   12.7928  -13.5007   -9.6987 H   0  0  0  0  0  0  0  0  0  0  0  0
   11.9225  -13.9552   -7.4108 H   0  0  0  0  0  0  0  0  0  0  0  0
   12.1650  -15.7094   -5.4579 H   0  0  0  0  0  0  0  0  0  0  0  0
   13.8631  -15.9540   -4.8623 H   0  0  0  0  0  0  0  0  0  0  0  0
   14.2282  -11.3920   -3.2201 H   0  0  0  0  0  0  0  0  0  0  0  0
    7.9458  -12.3647   -4.8069 H   0  0  0  0  0  0  0  0  0  0  0  0
    5.5491  -11.9687   -4.2883 H   0  0  0  0  0  0  0  0  0  0  0  0
    4.0410  -11.1340   -2.6000 H   0  0  0  0  0  0  0  0  0  0  0  0
    2.2850  -10.9440   -1.6610 H   0  0  0  0  0  0  0  0  0  0  0  0
    1.4698  -14.2503   -0.4113 H   0  0  0  0  0  0  0  0  0  0  0  0
   -2.7332  -14.5917    1.3494 H   0  0  0  0  0  0  0  0  0  0  0  0
   -2.4358  -15.5682   -0.1357 H   0  0  0  0  0  0  0  0  0  0  0  0
   -2.1885  -16.5102    2.7686 H   0  0  0  0  0  0  0  0  0  0  0  0
   -3.4437  -16.9938    1.5502 H   0  0  0  0  0  0  0  0  0  0  0  0
    0.0161  -17.2334    2.4857 H   0  0  0  0  0  0  0  0  0  0  0  0
    0.4333  -18.2610    1.0494 H   0  0  0  0  0  0  0  0  0  0  0  0
    1.2298  -15.8839    0.8448 H   0  0  0  0  0  0  0  0  0  0  0  0
    0.0929  -16.3914   -0.4588 H   0  0  0  0  0  0  0  0  0  0  0  0
   -2.0434  -12.8769    1.6684 H   0  0  0  0  0  0  0  0  0  0  0  0
    0.6521  -10.0283   -0.1388 H   0  0  0  0  0  0  0  0  0  0  0  0
    6.4405  -12.0862   -0.0710 H   0  0  0  0  0  0  0  0  0  0  0  0
    8.5314  -12.4372    0.7086 H   0  0  0  0  0  0  0  0  0  0  0  0
    9.5778  -13.5087   -0.2831 H   0  0  0  0  0  0  0  0  0  0  0  0
    9.8537  -11.7337   -0.2831 H   0  0  0  0  0  0  0  0  0  0  0  0
   15.6070  -15.9808   -6.4058 H   0  0  0  0  0  0  0  0  0  0  0  0
   16.4789  -15.5053   -8.6890 H   0  0  0  0  0  0  0  0  0  0  0  0
  1  2  1  0
  2  3  1  0
  3  4  2  0
  4  5  1  0
  5  6  2  0
  6  7  1  0
  7  8  1  0
  8  9  1  0
  9 10  2  0
 10 11  1  0
 11 12  1  0
 12 13  1  0
 13 14  1  0
 14 15  2  0
 15 16  1  0
 16 17  2  0
 17 18  1  0
 18 19  1  0
 19 20  2  0
 19 21  1  0
 21 22  1  0
 22 23  2  0
 23 24  1  0
 24 25  1  0
 25 26  1  0
 26 27  1  0
 27 28  1  0
 28 29  1  0
 29 30  1  0
 24 31  2  0
 31 32  1  0
 32 33  1  0
 33 34  1  0
 33 35  1  0
 33 36  1  0
 32 37  2  0
 17 38  1  0
 38 39  2  0
 39 40  1  0
 13 41  2  0
 41 42  1  0
  6 43  1  0
 43 44  2  0
 44  3  1  0
 42  8  1  0
 42 11  2  0
 39 14  1  0
 37 22  1  0
 30 25  1  0
  1 45  1  0
  1 46  1  0
  1 47  1  0
  4 48  1  0
  5 49  1  0
  7 50  1  0
  7 51  1  0
 10 52  1  0
 15 53  1  0
 16 54  1  0
 18 55  1  0
 21 56  1  0
 23 57  1  0
 26 58  1  0
 26 59  1  0
 27 60  1  0
 27 61  1  0
 29 62  1  0
 29 63  1  0
 30 64  1  0
 30 65  1  0
 31 66  1  0
 37 67  1  0
 38 68  1  0
 40 69  1  0
 40 70  1  0
 40 71  1  0
 43 72  1  0
 44 73  1  0
M  CHG  1  12  -1
M  END
>  <meeko>  (8) 
{"is_sidechain": [false], "free_energy": -8.669, "intermolecular_energy": -13.105, "internal_energy": -0.807}

$$$$
LIB_JDMGNUZGYHBPDP__M_PUB_ALL__e8__s20260927
     RDKit          3D

 73 78  0  0  0  0  0  0  0  0999 V2000
   -1.5490   -8.8570    3.5830 C   0  0  0  0  0  0  0  0  0  0  0  0
   -1.7630   -9.1330    2.2050 O   0  0  0  0  0  0  0  0  0  0  0  0
   -2.2080  -10.3900    1.9000 C   0  0  0  0  0  0  0  0  0  0  0  0
   -2.2030  -11.4920    2.7540 C   0  0  0  0  0  0  0  0  0  0  0  0
   -2.6890  -12.7270    2.3130 C   0  0  0  0  0  0  0  0  0  0  0  0
   -3.1870  -12.8800    1.0120 C   0  0  0  0  0  0  0  0  0  0  0  0
   -3.7090  -14.2190    0.5490 C   0  0  0  0  0  0  0  0  0  0  0  0
   -2.6910  -15.2450    0.5920 N   0  0  0  0  0  0  0  0  0  0  0  0
   -2.8630  -16.4100    1.3190 N   0  0  0  0  0  0  0  0  0  0  0  0
   -1.7220  -17.0950    1.0460 C   0  0  0  0  0  0  0  0  0  0  0  0
   -0.9070  -16.3920    0.1730 C   0  0  0  0  0  0  0  0  0  0  0  0
    0.3400  -16.4430   -0.5410 N   0  0  0  0  0  0  0  0  0  0  0  0
    0.3680  -15.2290   -1.2450 C   0  0  0  0  0  0  0  0  0  0  0  0
    1.5980  -14.8250   -2.1940 C   0  0  0  0  0  0  0  0  0  0  0  0
    2.8670  -14.8000   -1.6000 C   0  0  0  0  0  0  0  0  0  0  0  0
    3.9990  -14.4570   -2.3400 C   0  0  0  0  0  0  0  0  0  0  0  0
    3.8890  -14.1320   -3.6940 C   0  0  0  0  0  0  0  0  0  0  0  0
    5.0830  -13.7860   -4.3630 N   0  0  0  0  0  0  0  0  0  0  0  0
    5.8560  -14.5750   -5.2020 C   0  0  0  0  0  0  0  0  0  0  0  0
    5.6570  -15.7570   -5.4490 O   0  0  0  0  0  0  0  0  0  0  0  0
    6.8980  -13.8230   -5.7350 N   0  0  0  0  0  0  0  0  0  0  0  0
    7.9590  -14.2680   -6.5530 C   0  0  0  0  0  0  0  0  0  0  0  0
    9.2610  -14.4970   -6.0950 C   0  0  0  0  0  0  0  0  0  0  0  0
   10.2930  -14.9390   -6.9450 C   0  0  0  0  0  0  0  0  0  0  0  0
   11.5850  -15.1890   -6.4900 N   0  0  0  0  0  0  0  0  0  0  0  0
   11.7520  -15.7860   -5.1510 C   0  0  0  0  0  0  0  0  0  0  0  0
   13.1840  -15.5580   -4.6410 C   0  0  0  0  0  0  0  0  0  0  0  0
   14.1670  -16.0410   -5.5680 O   0  0  0  0  0  0  0  0  0  0  0  0
   14.0310  -15.3550   -6.8240 C   0  0  0  0  0  0  0  0  0  0  0  0
   12.6420  -15.5700   -7.4480 C   0  0  0  0  0  0  0  0  0  0  0  0
    9.9600  -15.1540   -8.2900 C   0  0  0  0  0  0  0  0  0  0  0  0
    8.6680  -14.9170   -8.7870 C   0  0  0  0  0  0  0  0  0  0  0  0
    8.3530  -15.1820  -10.2340 C   0  0  0  0  0  0  0  0  0  0  0  0
    8.3930  -16.5080  -10.5430 F   0  0  0  0  0  0  0  0  0  0  0  0
    7.1100  -14.7540  -10.5980 F   0  0  0  0  0  0  0  0  0  0  0  0
    9.2180  -14.5730  -11.0910 F   0  0  0  0  0  0  0  0  0  0  0  0
    7.6730  -14.4770   -7.9040 C   0  0  0  0  0  0  0  0  0  0  0  0
    2.6250  -14.1530   -4.2900 C   0  0  0  0  0  0  0  0  0  0  0  0
    1.4670  -14.4990   -3.5570 C   0  0  0  0  0  0  0  0  0  0  0  0
    0.1440  -14.5010   -4.2680 C   0  0  0  0  0  0  0  0  0  0  0  0
   -0.7630  -14.4430   -1.0230 N   0  0  0  0  0  0  0  0  0  0  0  0
   -1.5340  -15.2470   -0.1010 C   0  0  0  0  0  0  0  0  0  0  0  0
   -3.1960  -11.7700    0.1600 C   0  0  0  0  0  0  0  0  0  0  0  0
   -2.7050  -10.5380    0.6020 C   0  0  0  0  0  0  0  0  0  0  0  0
   -2.1098   -9.5803    4.1932 H   0  0  0  0  0  0  0  0  0  0  0  0
   -0.4760   -8.9389    3.8110 H   0  0  0  0  0  0  0  0  0  0  0  0
   -1.8956   -7.8382    3.8110 H   0  0  0  0  0  0  0  0  0  0  0  0
   -1.8154  -11.3897    3.7784 H   0  0  0  0  0  0  0  0  0  0  0  0
   -2.6803  -13.5892    2.9960 H   0  0  0  0  0  0  0  0  0  0  0  0
   -4.5427  -14.5192    1.2009 H   0  0  0  0  0  0  0  0  0  0  0  0
   -4.0371  -14.1115   -0.4954 H   0  0  0  0  0  0  0  0  0  0  0  0
   -1.4763  -18.0821    1.4646 H   0  0  0  0  0  0  0  0  0  0  0  0
    2.9721  -15.0545   -0.5350 H   0  0  0  0  0  0  0  0  0  0  0  0
    4.9855  -14.4424   -1.8535 H   0  0  0  0  0  0  0  0  0  0  0  0
    5.4260  -12.8620   -4.1620 H   0  0  0  0  0  0  0  0  0  0  0  0
    6.8550  -12.8310   -5.5630 H   0  0  0  0  0  0  0  0  0  0  0  0
    9.4867  -14.3255   -5.0322 H   0  0  0  0  0  0  0  0  0  0  0  0
   11.0399  -15.3197   -4.4542 H   0  0  0  0  0  0  0  0  0  0  0  0
   11.5625  -16.8677   -5.2150 H   0  0  0  0  0  0  0  0  0  0  0  0
   13.3393  -14.4798   -4.4881 H   0  0  0  0  0  0  0  0  0  0  0  0
   13.3023  -16.1140   -3.6993 H   0  0  0  0  0  0  0  0  0  0  0  0
   14.1840  -14.2782   -6.6594 H   0  0  0  0  0  0  0  0  0  0  0  0
   14.7824  -15.7612   -7.5171 H   0  0  0  0  0  0  0  0  0  0  0  0
   12.5513  -14.9517   -8.3532 H   0  0  0  0  0  0  0  0  0  0  0  0
   12.5258  -16.6333   -7.7046 H   0  0  0  0  0  0  0  0  0  0  0  0
   10.7360  -15.5202   -8.9783 H   0  0  0  0  0  0  0  0  0  0  0  0
    6.6552  -14.2941   -8.2790 H   0  0  0  0  0  0  0  0  0  0  0  0
    2.5291  -13.8941   -5.3548 H   0  0  0  0  0  0  0  0  0  0  0  0
   -0.6699  -14.5022   -3.5280 H   0  0  0  0  0  0  0  0  0  0  0  0
    0.0651  -13.6030   -4.8983 H   0  0  0  0  0  0  0  0  0  0  0  0
    0.0678  -15.3993   -4.8983 H   0  0  0  0  0  0  0  0  0  0  0  0
   -3.5911  -11.8673   -0.8620 H   0  0  0  0  0  0  0  0  0  0  0  0
   -2.7098   -9.6748   -0.0798 H   0  0  0  0  0  0  0  0  0  0  0  0
  1  2  1  0
  2  3  1  0
  3  4  2  0
  4  5  1  0
  5  6  2  0
  6  7  1  0
  7  8  1  0
  8  9  1  0
  9 10  2  0
 10 11  1  0
 11 12  1  0
 12 13  1  0
 13 14  1  0
 14 15  2  0
 15 16  1  0
 16 17  2  0
 17 18  1  0
 18 19  1  0
 19 20  2  0
 19 21  1  0
 21 22  1  0
 22 23  2  0
 23 24  1  0
 24 25  1  0
 25 26  1  0
 26 27  1  0
 27 28  1  0
 28 29  1  0
 29 30  1  0
 24 31  2  0
 31 32  1  0
 32 33  1  0
 33 34  1  0
 33 35  1  0
 33 36  1  0
 32 37  2  0
 17 38  1  0
 38 39  2  0
 39 40  1  0
 13 41  2  0
 41 42  1  0
  6 43  1  0
 43 44  2  0
 44  3  1  0
 42  8  1  0
 42 11  2  0
 39 14  1  0
 37 22  1  0
 30 25  1  0
  1 45  1  0
  1 46  1  0
  1 47  1  0
  4 48  1  0
  5 49  1  0
  7 50  1  0
  7 51  1  0
 10 52  1  0
 15 53  1  0
 16 54  1  0
 18 55  1  0
 21 56  1  0
 23 57  1  0
 26 58  1  0
 26 59  1  0
 27 60  1  0
 27 61  1  0
 29 62  1  0
 29 63  1  0
 30 64  1  0
 30 65  1  0
 31 66  1  0
 37 67  1  0
 38 68  1  0
 40 69  1  0
 40 70  1  0
 40 71  1  0
 43 72  1  0
 44 73  1  0
M  CHG  1  12  -1
M  END
>  <meeko>  (9) 
{"is_sidechain": [false], "free_energy": -8.618, "intermolecular_energy": -12.529, "internal_energy": -1.308}

$$$$
