LIB_AXHWESODWDIJCC__M_PUB_ALL__e8__s20260927
     RDKit          3D

 77 81  0  0  0  0  0  0  0  0999 V2000
   12.5730  -14.2080   -6.4500 C   0  0  0  0  0  0  0  0  0  0  0  0
   13.4850  -14.0480   -5.2460 C   0  0  0  0  0  0  0  0  0  0  0  0
   13.0140  -12.8920   -4.3720 N   0  0  0  0  0  0  0  0  0  0  0  0
   14.2000  -12.2460   -3.6370 C   0  0  0  0  0  0  0  0  0  0  0  0
   13.7280  -11.4520   -2.4020 C   0  0  0  0  0  0  0  0  0  0  0  0
   13.0450  -12.3660   -1.3800 N   0  0  0  0  0  0  0  0  0  0  0  0
   12.3160  -11.5730   -0.3070 C   0  0  0  0  0  0  0  0  0  0  0  0
   11.4450  -12.4180    0.6340 C   0  0  0  0  0  0  0  0  0  0  0  0
   10.2500  -11.6830    1.2400 C   0  0  0  0  0  0  0  0  0  0  0  0
    9.0900  -12.4800    0.9700 O   0  0  0  0  0  0  0  0  0  0  0  0
    8.4480  -12.1160   -0.1840 C   0  0  0  0  0  0  0  0  0  0  0  0
    8.7320  -12.8350   -1.3460 C   0  0  0  0  0  0  0  0  0  0  0  0
    7.9650  -12.6870   -2.4950 C   0  0  0  0  0  0  0  0  0  0  0  0
    8.2820  -13.4020   -3.5820 N   0  0  0  0  0  0  0  0  0  0  0  0
    7.4840  -13.3060   -4.6740 C   0  0  0  0  0  0  0  0  0  0  0  0
    6.3130  -12.5690   -4.7150 C   0  0  0  0  0  0  0  0  0  0  0  0
    5.4930  -12.6130   -5.8820 C   0  0  0  0  0  0  0  0  0  0  0  0
    4.8020  -12.6220   -6.8140 N   0  0  0  0  0  0  0  0  0  0  0  0
    5.9500  -11.8460   -3.5710 C   0  0  0  0  0  0  0  0  0  0  0  0
    4.6360  -11.3030   -3.4510 N   0  0  0  0  0  0  0  0  0  0  0  0
    3.4830  -11.9640   -2.9710 C   0  0  0  0  0  0  0  0  0  0  0  0
    3.2540  -12.0600   -1.5980 C   0  0  0  0  0  0  0  0  0  0  0  0
    2.2610  -12.9170   -1.1000 C   0  0  0  0  0  0  0  0  0  0  0  0
    1.4830  -13.7020   -1.9660 C   0  0  0  0  0  0  0  0  0  0  0  0
    0.2890  -14.8510   -1.2860 S   0  0  0  0  0  0  0  0  0  0  0  0
    1.3440  -16.1920   -0.9730 C   0  0  0  0  0  0  0  0  0  0  0  0
    2.5420  -16.3800   -1.5020 N   0  0  0  0  0  0  0  0  0  0  0  0
    2.9760  -17.5660   -0.9540 C   0  0  0  0  0  0  0  0  0  0  0  0
    2.0240  -18.1110   -0.1280 C   0  0  0  0  0  0  0  0  0  0  0  0
    0.9770  -17.2310   -0.1560 N   0  0  0  0  0  0  0  0  0  0  0  0
   -0.2640  -17.3940    0.5680 C   0  0  0  0  0  0  0  0  0  0  0  0
    1.6590  -13.5420   -3.3450 C   0  0  0  0  0  0  0  0  0  0  0  0
    0.7430  -14.4280   -4.5190 Cl  0  0  0  0  0  0  0  0  0  0  0  0
    2.6420  -12.6790   -3.8360 C   0  0  0  0  0  0  0  0  0  0  0  0
    6.8460  -11.8320   -2.4580 C   0  0  0  0  0  0  0  0  0  0  0  0
    6.6490  -11.0240   -1.3090 C   0  0  0  0  0  0  0  0  0  0  0  0
    7.4250  -11.1710   -0.1670 C   0  0  0  0  0  0  0  0  0  0  0  0
    7.1810  -10.5120    1.0130 O   0  0  0  0  0  0  0  0  0  0  0  0
    7.4540   -9.1050    0.9620 C   0  0  0  0  0  0  0  0  0  0  0  0
   12.2670  -13.5230   -2.0050 C   0  0  0  0  0  0  0  0  0  0  0  0
   11.8340  -13.2320   -3.4580 C   0  0  0  0  0  0  0  0  0  0  0  0
   11.5431  -14.3887   -6.1084 H   0  0  0  0  0  0  0  0  0  0  0  0
   12.6025  -13.2910   -7.0568 H   0  0  0  0  0  0  0  0  0  0  0  0
   12.9129  -15.0602   -7.0568 H   0  0  0  0  0  0  0  0  0  0  0  0
   13.4728  -14.9765   -4.6563 H   0  0  0  0  0  0  0  0  0  0  0  0
   14.5057  -13.8365   -5.5974 H   0  0  0  0  0  0  0  0  0  0  0  0
   12.6740  -12.1810   -5.0390 H   0  0  0  0  0  0  0  0  0  0  0  0
   14.8933  -13.0357   -3.3119 H   0  0  0  0  0  0  0  0  0  0  0  0
   14.6992  -11.5502   -4.3274 H   0  0  0  0  0  0  0  0  0  0  0  0
   14.5986  -10.9737   -1.9294 H   0  0  0  0  0  0  0  0  0  0  0  0
   13.0003  -10.6963   -2.7326 H   0  0  0  0  0  0  0  0  0  0  0  0
   13.8230  -12.8190   -0.8560 H   0  0  0  0  0  0  0  0  0  0  0  0
   13.0673  -11.0476    0.3009 H   0  0  0  0  0  0  0  0  0  0  0  0
   11.6328  -10.8911   -0.8345 H   0  0  0  0  0  0  0  0  0  0  0  0
   11.0637  -13.2789    0.0652 H   0  0  0  0  0  0  0  0  0  0  0  0
   12.0907  -12.7039    1.4774 H   0  0  0  0  0  0  0  0  0  0  0  0
   10.3866  -11.5696    2.3256 H   0  0  0  0  0  0  0  0  0  0  0  0
   10.1459  -10.6771    0.8071 H   0  0  0  0  0  0  0  0  0  0  0  0
    9.5814  -13.5339   -1.3523 H   0  0  0  0  0  0  0  0  0  0  0  0
    7.7857  -13.8470   -5.5831 H   0  0  0  0  0  0  0  0  0  0  0  0
    4.4680  -10.3970   -3.8880 H   0  0  0  0  0  0  0  0  0  0  0  0
    3.8565  -11.4593   -0.9008 H   0  0  0  0  0  0  0  0  0  0  0  0
    2.0894  -12.9748   -0.0150 H   0  0  0  0  0  0  0  0  0  0  0  0
    3.9587  -18.0187   -1.1523 H   0  0  0  0  0  0  0  0  0  0  0  0
    2.0893  -19.0534    0.4355 H   0  0  0  0  0  0  0  0  0  0  0  0
   -0.0638  -17.3677    1.6493 H   0  0  0  0  0  0  0  0  0  0  0  0
   -0.9531  -16.5786    0.3027 H   0  0  0  0  0  0  0  0  0  0  0  0
   -0.7192  -18.3596    0.3027 H   0  0  0  0  0  0  0  0  0  0  0  0
    2.7586  -12.5579   -4.9231 H   0  0  0  0  0  0  0  0  0  0  0  0
    5.8588  -10.2589   -1.3230 H   0  0  0  0  0  0  0  0  0  0  0  0
    7.5308   -8.7091    1.9854 H   0  0  0  0  0  0  0  0  0  0  0  0
    8.4020   -8.9345    0.4307 H   0  0  0  0  0  0  0  0  0  0  0  0
    6.6386   -8.5923    0.4307 H   0  0  0  0  0  0  0  0  0  0  0  0
   12.9046  -14.4193   -2.0004 H   0  0  0  0  0  0  0  0  0  0  0  0
   11.3543  -13.6708   -1.4090 H   0  0  0  0  0  0  0  0  0  0  0  0
   11.3247  -14.1213   -3.8577 H   0  0  0  0  0  0  0  0  0  0  0  0
   11.1689  -12.3561   -3.4362 H   0  0  0  0  0  0  0  0  0  0  0  0
  1  2  1  0
  2  3  1  0
  3  4  1  0
  4  5  1  0
  5  6  1  0
  6  7  1  0
  7  8  1  0
  8  9  1  0
  9 10  1  0
 10 11  1  0
 11 12  2  0
 12 13  1  0
 13 14  2  0
 14 15  1  0
 15 16  2  0
 16 17  1  0
 17 18  3  0
 16 19  1  0
 19 20  1  0
 20 21  1  0
 21 22  2  0
 22 23  1  0
 23 24  2  0
 24 25  1  0
 25 26  1  0
 26 27  2  0
 27 28  1  0
 28 29  2  0
 29 30  1  0
 30 31  1  0
 24 32  1  0
 32 33  1  0
 32 34  2  0
 19 35  2  0
 35 36  1  0
 36 37  2  0
 37 38  1  0
 38 39  1  0
  6 40  1  0
 40 41  1  0
 41  3  1  0
 37 11  1  0
 35 13  1  0
 34 21  1  0
 30 26  1  0
  1 42  1  0
  1 43  1  0
  1 44  1  0
  2 45  1  0
  2 46  1  0
  3 47  1  0
  4 48  1  0
  4 49  1  0
  5 50  1  0
  5 51  1  0
  6 52  1  0
  7 53  1  0
  7 54  1  0
  8 55  1  0
  8 56  1  0
  9 57  1  0
  9 58  1  0
 12 59  1  0
 15 60  1  0
 20 61  1  0
 22 62  1  0
 23 63  1  0
 28 64  1  0
 29 65  1  0
 31 66  1  0
 31 67  1  0
 31 68  1  0
 34 69  1  0
 36 70  1  0
 39 71  1  0
 39 72  1  0
 39 73  1  0
 40 74  1  0
 40 75  1  0
 41 76  1  0
 41 77  1  0
M  CHG  2   3   1   6   1
M  END
>  <meeko>  (1) 
{"is_sidechain": [false], "free_energy": -8.261, "intermolecular_energy": -13.573, "internal_energy": -1.78}

$$$$
LIB_AXHWESODWDIJCC__M_PUB_ALL__e8__s20260927
     RDKit          3D

 77 81  0  0  0  0  0  0  0  0999 V2000
   14.8790   -9.5760    0.8720 C   0  0  0  0  0  0  0  0  0  0  0  0
   13.4570   -9.9720    0.5150 C   0  0  0  0  0  0  0  0  0  0  0  0
   13.4380  -11.3380   -0.1610 N   0  0  0  0  0  0  0  0  0  0  0  0
   13.3590  -11.1870   -1.6900 C   0  0  0  0  0  0  0  0  0  0  0  0
   12.8350  -12.4780   -2.3520 C   0  0  0  0  0  0  0  0  0  0  0  0
   11.4130  -12.8050   -1.8860 N   0  0  0  0  0  0  0  0  0  0  0  0
   10.9940  -14.2100   -2.2860 C   0  0  0  0  0  0  0  0  0  0  0  0
    9.7020  -14.2830   -3.1130 C   0  0  0  0  0  0  0  0  0  0  0  0
    9.3120  -12.9840   -3.8180 C   0  0  0  0  0  0  0  0  0  0  0  0
    8.6640  -12.1580   -2.8430 O   0  0  0  0  0  0  0  0  0  0  0  0
    7.2990  -12.2640   -2.8740 C   0  0  0  0  0  0  0  0  0  0  0  0
    6.6760  -12.3340   -4.1210 C   0  0  0  0  0  0  0  0  0  0  0  0
    5.3330  -12.6710   -4.2420 C   0  0  0  0  0  0  0  0  0  0  0  0
    4.7860  -12.7240   -5.4620 N   0  0  0  0  0  0  0  0  0  0  0  0
    3.4960  -13.1240   -5.5760 C   0  0  0  0  0  0  0  0  0  0  0  0
    2.7230  -13.5580   -4.5120 C   0  0  0  0  0  0  0  0  0  0  0  0
    1.4070  -14.0540   -4.7530 C   0  0  0  0  0  0  0  0  0  0  0  0
    0.3320  -14.4600   -4.9090 N   0  0  0  0  0  0  0  0  0  0  0  0
    3.2970  -13.5440   -3.2330 C   0  0  0  0  0  0  0  0  0  0  0  0
    2.6640  -14.2310   -2.1550 N   0  0  0  0  0  0  0  0  0  0  0  0
    1.5320  -13.8060   -1.4230 C   0  0  0  0  0  0  0  0  0  0  0  0
    1.5370  -12.5650   -0.7860 C   0  0  0  0  0  0  0  0  0  0  0  0
    0.5360  -12.2370    0.1410 C   0  0  0  0  0  0  0  0  0  0  0  0
   -0.4860  -13.1480    0.4550 C   0  0  0  0  0  0  0  0  0  0  0  0
   -1.6910  -12.7260    1.7100 S   0  0  0  0  0  0  0  0  0  0  0  0
   -2.8430  -11.8920    0.7160 C   0  0  0  0  0  0  0  0  0  0  0  0
   -3.7800  -12.4550   -0.0310 N   0  0  0  0  0  0  0  0  0  0  0  0
   -4.4290  -11.3940   -0.6210 C   0  0  0  0  0  0  0  0  0  0  0  0
   -3.8590  -10.1980   -0.2630 C   0  0  0  0  0  0  0  0  0  0  0  0
   -2.8360  -10.5260    0.5840 N   0  0  0  0  0  0  0  0  0  0  0  0
   -1.9440   -9.5790    1.2150 C   0  0  0  0  0  0  0  0  0  0  0  0
   -0.5340  -14.3580   -0.2460 C   0  0  0  0  0  0  0  0  0  0  0  0
   -1.7580  -15.5530    0.0250 Cl  0  0  0  0  0  0  0  0  0  0  0  0
    0.4600  -14.6760   -1.1760 C   0  0  0  0  0  0  0  0  0  0  0  0
    4.6100  -13.0020   -3.0790 C   0  0  0  0  0  0  0  0  0  0  0  0
    5.2290  -12.8070   -1.8180 C   0  0  0  0  0  0  0  0  0  0  0  0
    6.5700  -12.4620   -1.7050 C   0  0  0  0  0  0  0  0  0  0  0  0
    7.2450  -12.4010   -0.5110 O   0  0  0  0  0  0  0  0  0  0  0  0
    6.7830  -11.3650    0.3680 C   0  0  0  0  0  0  0  0  0  0  0  0
   11.1280  -12.4070   -0.4390 C   0  0  0  0  0  0  0  0  0  0  0  0
   12.4100  -12.3130    0.4170 C   0  0  0  0  0  0  0  0  0  0  0  0
   14.9875   -9.5458    1.9662 H   0  0  0  0  0  0  0  0  0  0  0  0
   15.5807  -10.3129    0.4542 H   0  0  0  0  0  0  0  0  0  0  0  0
   15.0988   -8.5825    0.4542 H   0  0  0  0  0  0  0  0  0  0  0  0
   12.8514  -10.0135    1.4324 H   0  0  0  0  0  0  0  0  0  0  0  0
   13.0429   -9.2255   -0.1787 H   0  0  0  0  0  0  0  0  0  0  0  0
   14.3690  -11.7390    0.0360 H   0  0  0  0  0  0  0  0  0  0  0  0
   12.6792  -10.3573   -1.9339 H   0  0  0  0  0  0  0  0  0  0  0  0
   14.3704  -10.9852   -2.0727 H   0  0  0  0  0  0  0  0  0  0  0  0
   12.8325  -12.3452   -3.4439 H   0  0  0  0  0  0  0  0  0  0  0  0
   13.4949  -13.3091   -2.0624 H   0  0  0  0  0  0  0  0  0  0  0  0
   10.7920  -12.1960   -2.4580 H   0  0  0  0  0  0  0  0  0  0  0  0
   11.8066  -14.6539   -2.8799 H   0  0  0  0  0  0  0  0  0  0  0  0
   10.7953  -14.7533   -1.3504 H   0  0  0  0  0  0  0  0  0  0  0  0
    9.8308  -15.0617   -3.8792 H   0  0  0  0  0  0  0  0  0  0  0  0
    8.8928  -14.5010   -2.4005 H   0  0  0  0  0  0  0  0  0  0  0  0
   10.2098  -12.4793   -4.2043 H   0  0  0  0  0  0  0  0  0  0  0  0
    8.6451  -13.1838   -4.6696 H   0  0  0  0  0  0  0  0  0  0  0  0
    7.2604  -12.1178   -5.0275 H   0  0  0  0  0  0  0  0  0  0  0  0
    3.0349  -13.1026   -6.5745 H   0  0  0  0  0  0  0  0  0  0  0  0
    3.1540  -15.0370   -1.7690 H   0  0  0  0  0  0  0  0  0  0  0  0
    2.3313  -11.8384   -1.0120 H   0  0  0  0  0  0  0  0  0  0  0  0
    0.5519  -11.2514    0.6292 H   0  0  0  0  0  0  0  0  0  0  0  0
   -5.2939  -11.4922   -1.2935 H   0  0  0  0  0  0  0  0  0  0  0  0
   -4.1602   -9.1911   -0.5876 H   0  0  0  0  0  0  0  0  0  0  0  0
   -2.0281   -9.6683    2.3081 H   0  0  0  0  0  0  0  0  0  0  0  0
   -0.9088   -9.7899    0.9085 H   0  0  0  0  0  0  0  0  0  0  0  0
   -2.2164   -8.5583    0.9085 H   0  0  0  0  0  0  0  0  0  0  0  0
    0.4002  -15.6274   -1.7249 H   0  0  0  0  0  0  0  0  0  0  0  0
    4.6305  -12.9325   -0.9037 H   0  0  0  0  0  0  0  0  0  0  0  0
    6.9237  -11.6805    1.4124 H   0  0  0  0  0  0  0  0  0  0  0  0
    7.3559  -10.4444    0.1827 H   0  0  0  0  0  0  0  0  0  0  0  0
    5.7153  -11.1760    0.1827 H   0  0  0  0  0  0  0  0  0  0  0  0
   10.6298  -11.4263   -0.4354 H   0  0  0  0  0  0  0  0  0  0  0  0
   10.4912  -13.1885    0.0012 H   0  0  0  0  0  0  0  0  0  0  0  0
   12.1344  -11.9754    1.4270 H   0  0  0  0  0  0  0  0  0  0  0  0
   12.8721  -13.3111    0.4326 H   0  0  0  0  0  0  0  0  0  0  0  0
  1  2  1  0
  2  3  1  0
  3  4  1  0
  4  5  1  0
  5  6  1  0
  6  7  1  0
  7  8  1  0
  8  9  1  0
  9 10  1  0
 10 11  1  0
 11 12  2  0
 12 13  1  0
 13 14  2  0
 14 15  1  0
 15 16  2  0
 16 17  1  0
 17 18  3  0
 16 19  1  0
 19 20  1  0
 20 21  1  0
 21 22  2  0
 22 23  1  0
 23 24  2  0
 24 25  1  0
 25 26  1  0
 26 27  2  0
 27 28  1  0
 28 29  2  0
 29 30  1  0
 30 31  1  0
 24 32  1  0
 32 33  1  0
 32 34  2  0
 19 35  2  0
 35 36  1  0
 36 37  2  0
 37 38  1  0
 38 39  1  0
  6 40  1  0
 40 41  1  0
 41  3  1  0
 37 11  1  0
 35 13  1  0
 34 21  1  0
 30 26  1  0
  1 42  1  0
  1 43  1  0
  1 44  1  0
  2 45  1  0
  2 46  1  0
  3 47  1  0
  4 48  1  0
  4 49  1  0
  5 50  1  0
  5 51  1  0
  6 52  1  0
  7 53  1  0
  7 54  1  0
  8 55  1  0
  8 56  1  0
  9 57  1  0
  9 58  1  0
 12 59  1  0
 15 60  1  0
 20 61  1  0
 22 62  1  0
 23 63  1  0
 28 64  1  0
 29 65  1  0
 31 66  1  0
 31 67  1  0
 31 68  1  0
 34 69  1  0
 36 70  1  0
 39 71  1  0
 39 72  1  0
 39 73  1  0
 40 74  1  0
 40 75  1  0
 41 76  1  0
 41 77  1  0
M  CHG  2   3   1   6   1
M  END
>  <meeko>  (2) 
{"is_sidechain": [false], "free_energy": -7.841, "intermolecular_energy": -12.644, "internal_energy": -2.019}

$$$$
LIB_AXHWESODWDIJCC__M_PUB_ALL__e8__s20260927
     RDKit          3D

 77 81  0  0  0  0  0  0  0  0999 V2000
   12.4310  -10.0000    0.7100 C   0  0  0  0  0  0  0  0  0  0  0  0
   13.5370  -10.3270   -0.2780 C   0  0  0  0  0  0  0  0  0  0  0  0
   13.3900  -11.7570   -0.7860 N   0  0  0  0  0  0  0  0  0  0  0  0
   13.4480  -11.7980   -2.3220 C   0  0  0  0  0  0  0  0  0  0  0  0
   12.8110  -13.0900   -2.8720 C   0  0  0  0  0  0  0  0  0  0  0  0
   11.3270  -13.1800   -2.5020 N   0  0  0  0  0  0  0  0  0  0  0  0
   10.7580  -14.5650   -2.7700 C   0  0  0  0  0  0  0  0  0  0  0  0
   10.5990  -15.4440   -1.5220 C   0  0  0  0  0  0  0  0  0  0  0  0
    9.1540  -15.7140   -1.1020 C   0  0  0  0  0  0  0  0  0  0  0  0
    8.6780  -14.5260   -0.4590 O   0  0  0  0  0  0  0  0  0  0  0  0
    7.4180  -14.1690   -0.8590 C   0  0  0  0  0  0  0  0  0  0  0  0
    7.1250  -14.2180   -2.2230 C   0  0  0  0  0  0  0  0  0  0  0  0
    5.8210  -14.0980   -2.6880 C   0  0  0  0  0  0  0  0  0  0  0  0
    5.5970  -14.1540   -4.0070 N   0  0  0  0  0  0  0  0  0  0  0  0
    4.3160  -14.1090   -4.4480 C   0  0  0  0  0  0  0  0  0  0  0  0
    3.2110  -14.0840   -3.6140 C   0  0  0  0  0  0  0  0  0  0  0  0
    1.9000  -14.1380   -4.1770 C   0  0  0  0  0  0  0  0  0  0  0  0
    0.8210  -14.1770   -4.5990 N   0  0  0  0  0  0  0  0  0  0  0  0
    3.4310  -14.0640   -2.2300 C   0  0  0  0  0  0  0  0  0  0  0  0
    2.3550  -14.3190   -1.3270 N   0  0  0  0  0  0  0  0  0  0  0  0
    1.6880  -13.3780   -0.5120 C   0  0  0  0  0  0  0  0  0  0  0  0
    1.0950  -13.7860    0.6840 C   0  0  0  0  0  0  0  0  0  0  0  0
    0.2230  -12.9300    1.3740 C   0  0  0  0  0  0  0  0  0  0  0  0
   -0.0800  -11.6520    0.8780 C   0  0  0  0  0  0  0  0  0  0  0  0
   -1.2670  -10.6270    1.7410 S   0  0  0  0  0  0  0  0  0  0  0  0
   -2.6840  -11.0080    0.8160 C   0  0  0  0  0  0  0  0  0  0  0  0
   -3.1040  -10.3690   -0.2640 N   0  0  0  0  0  0  0  0  0  0  0  0
   -4.2520  -11.0340   -0.6300 C   0  0  0  0  0  0  0  0  0  0  0  0
   -4.5440  -12.0470    0.2500 C   0  0  0  0  0  0  0  0  0  0  0  0
   -3.5410  -12.0150    1.1800 N   0  0  0  0  0  0  0  0  0  0  0  0
   -3.4330  -12.9050    2.3150 C   0  0  0  0  0  0  0  0  0  0  0  0
    0.5790  -11.2160   -0.2780 C   0  0  0  0  0  0  0  0  0  0  0  0
    0.3170   -9.6520   -0.9750 Cl  0  0  0  0  0  0  0  0  0  0  0  0
    1.4550  -12.0680   -0.9550 C   0  0  0  0  0  0  0  0  0  0  0  0
    4.7750  -13.9790   -1.7520 C   0  0  0  0  0  0  0  0  0  0  0  0
    5.1070  -13.8090   -0.3840 C   0  0  0  0  0  0  0  0  0  0  0  0
    6.4130  -13.9230    0.0740 C   0  0  0  0  0  0  0  0  0  0  0  0
    6.7620  -13.9070    1.4010 O   0  0  0  0  0  0  0  0  0  0  0  0
    5.6490  -13.7590    2.2950 C   0  0  0  0  0  0  0  0  0  0  0  0
   10.9870  -12.5660   -1.1450 C   0  0  0  0  0  0  0  0  0  0  0  0
   12.2020  -12.5180   -0.1930 C   0  0  0  0  0  0  0  0  0  0  0  0
   12.8110  -10.1123    1.7362 H   0  0  0  0  0  0  0  0  0  0  0  0
   12.0951   -8.9641    0.5547 H   0  0  0  0  0  0  0  0  0  0  0  0
   11.5858  -10.6867    0.5547 H   0  0  0  0  0  0  0  0  0  0  0  0
   13.4799   -9.6324   -1.1290 H   0  0  0  0  0  0  0  0  0  0  0  0
   14.5086  -10.2260    0.2277 H   0  0  0  0  0  0  0  0  0  0  0  0
   14.2420  -12.2390   -0.4580 H   0  0  0  0  0  0  0  0  0  0  0  0
   12.9040  -10.9308   -2.7245 H   0  0  0  0  0  0  0  0  0  0  0  0
   14.5035  -11.7725   -2.6306 H   0  0  0  0  0  0  0  0  0  0  0  0
   12.9083  -13.0993   -3.9676 H   0  0  0  0  0  0  0  0  0  0  0  0
   13.3325  -13.9507   -2.4278 H   0  0  0  0  0  0  0  0  0  0  0  0
   10.8360  -12.5810   -3.1980 H   0  0  0  0  0  0  0  0  0  0  0  0
    9.7676  -14.4450   -3.2334 H   0  0  0  0  0  0  0  0  0  0  0  0
   11.4807  -15.0777   -3.4218 H   0  0  0  0  0  0  0  0  0  0  0  0
   11.0827  -16.4115   -1.7221 H   0  0  0  0  0  0  0  0  0  0  0  0
   11.0613  -14.8878   -0.6932 H   0  0  0  0  0  0  0  0  0  0  0  0
    8.5388  -15.9379   -1.9860 H   0  0  0  0  0  0  0  0  0  0  0  0
    9.0963  -16.5784   -0.4241 H   0  0  0  0  0  0  0  0  0  0  0  0
    7.9436  -14.3545   -2.9450 H   0  0  0  0  0  0  0  0  0  0  0  0
    4.1439  -14.0913   -5.5343 H   0  0  0  0  0  0  0  0  0  0  0  0
    2.1350  -15.2950   -1.1360 H   0  0  0  0  0  0  0  0  0  0  0  0
    1.3128  -14.7855    1.0884 H   0  0  0  0  0  0  0  0  0  0  0  0
   -0.2303  -13.2656    2.3184 H   0  0  0  0  0  0  0  0  0  0  0  0
   -4.8579  -10.7859   -1.5139 H   0  0  0  0  0  0  0  0  0  0  0  0
   -5.4005  -12.7363    0.2148 H   0  0  0  0  0  0  0  0  0  0  0  0
   -3.5037  -12.3227    3.2456 H   0  0  0  0  0  0  0  0  0  0  0  0
   -4.2482  -13.6428    2.2813 H   0  0  0  0  0  0  0  0  0  0  0  0
   -2.4650  -13.4264    2.2813 H   0  0  0  0  0  0  0  0  0  0  0  0
    1.9729  -11.7037   -1.8545 H   0  0  0  0  0  0  0  0  0  0  0  0
    4.3069  -13.5802    0.3353 H   0  0  0  0  0  0  0  0  0  0  0  0
    6.0050  -13.8063    3.3347 H   0  0  0  0  0  0  0  0  0  0  0  0
    5.1629  -12.7883    2.1177 H   0  0  0  0  0  0  0  0  0  0  0  0
    4.9261  -14.5689    2.1177 H   0  0  0  0  0  0  0  0  0  0  0  0
   10.6233  -11.5401   -1.3038 H   0  0  0  0  0  0  0  0  0  0  0  0
   10.2208  -13.2003   -0.6752 H   0  0  0  0  0  0  0  0  0  0  0  0
   11.8977  -12.0223    0.7406 H   0  0  0  0  0  0  0  0  0  0  0  0
   12.5266  -13.5543   -0.0176 H   0  0  0  0  0  0  0  0  0  0  0  0
  1  2  1  0
  2  3  1  0
  3  4  1  0
  4  5  1  0
  5  6  1  0
  6  7  1  0
  7  8  1  0
  8  9  1  0
  9 10  1  0
 10 11  1  0
 11 12  2  0
 12 13  1  0
 13 14  2  0
 14 15  1  0
 15 16  2  0
 16 17  1  0
 17 18  3  0
 16 19  1  0
 19 20  1  0
 20 21  1  0
 21 22  2  0
 22 23  1  0
 23 24  2  0
 24 25  1  0
 25 26  1  0
 26 27  2  0
 27 28  1  0
 28 29  2  0
 29 30  1  0
 30 31  1  0
 24 32  1  0
 32 33  1  0
 32 34  2  0
 19 35  2  0
 35 36  1  0
 36 37  2  0
 37 38  1  0
 38 39  1  0
  6 40  1  0
 40 41  1  0
 41  3  1  0
 37 11  1  0
 35 13  1  0
 34 21  1  0
 30 26  1  0
  1 42  1  0
  1 43  1  0
  1 44  1  0
  2 45  1  0
  2 46  1  0
  3 47  1  0
  4 48  1  0
  4 49  1  0
  5 50  1  0
  5 51  1  0
  6 52  1  0
  7 53  1  0
  7 54  1  0
  8 55  1  0
  8 56  1  0
  9 57  1  0
  9 58  1  0
 12 59  1  0
 15 60  1  0
 20 61  1  0
 22 62  1  0
 23 63  1  0
 28 64  1  0
 29 65  1  0
 31 66  1  0
 31 67  1  0
 31 68  1  0
 34 69  1  0
 36 70  1  0
 39 71  1  0
 39 72  1  0
 39 73  1  0
 40 74  1  0
 40 75  1  0
 41 76  1  0
 41 77  1  0
M  CHG  2   3   1   6   1
M  END
>  <meeko>  (3) 
{"is_sidechain": [false], "free_energy": -7.717, "intermolecular_energy": -12.84, "internal_energy": -1.62}

$$$$
LIB_AXHWESODWDIJCC__M_PUB_ALL__e8__s20260927
     RDKit          3D

 77 81  0  0  0  0  0  0  0  0999 V2000
    7.1840  -11.4360  -10.7380 C   0  0  0  0  0  0  0  0  0  0  0  0
    7.1930  -12.4740   -9.6290 C   0  0  0  0  0  0  0  0  0  0  0  0
    8.6180  -12.9280   -9.3370 N   0  0  0  0  0  0  0  0  0  0  0  0
    9.4880  -12.8390  -10.6020 C   0  0  0  0  0  0  0  0  0  0  0  0
   10.7360  -13.7380  -10.4880 C   0  0  0  0  0  0  0  0  0  0  0  0
   10.3470  -15.2140  -10.3450 N   0  0  0  0  0  0  0  0  0  0  0  0
   11.5310  -16.0750   -9.9350 C   0  0  0  0  0  0  0  0  0  0  0  0
   12.7200  -15.2960   -9.3560 C   0  0  0  0  0  0  0  0  0  0  0  0
   13.1500  -15.7230   -7.9530 C   0  0  0  0  0  0  0  0  0  0  0  0
   11.9800  -15.6820   -7.1280 O   0  0  0  0  0  0  0  0  0  0  0  0
   12.2370  -15.2420   -5.8570 C   0  0  0  0  0  0  0  0  0  0  0  0
   12.8480  -13.9960   -5.7060 C   0  0  0  0  0  0  0  0  0  0  0  0
   12.9340  -13.3770   -4.4650 C   0  0  0  0  0  0  0  0  0  0  0  0
   13.5300  -12.1820   -4.3770 N   0  0  0  0  0  0  0  0  0  0  0  0
   13.5450  -11.5530   -3.1760 C   0  0  0  0  0  0  0  0  0  0  0  0
   12.9140  -12.0350   -2.0420 C   0  0  0  0  0  0  0  0  0  0  0  0
   12.9050  -11.2470   -0.8520 C   0  0  0  0  0  0  0  0  0  0  0  0
   12.8790  -10.6370    0.1340 N   0  0  0  0  0  0  0  0  0  0  0  0
   12.2540  -13.2680   -2.1300 C   0  0  0  0  0  0  0  0  0  0  0  0
   11.3600  -13.6790   -1.0960 N   0  0  0  0  0  0  0  0  0  0  0  0
    9.9480  -13.6870   -1.1450 C   0  0  0  0  0  0  0  0  0  0  0  0
    9.2540  -14.8960   -1.0930 C   0  0  0  0  0  0  0  0  0  0  0  0
    7.8840  -14.9430   -1.3900 C   0  0  0  0  0  0  0  0  0  0  0  0
    7.1820  -13.7830   -1.7530 C   0  0  0  0  0  0  0  0  0  0  0  0
    5.4550  -13.9000   -2.2120 S   0  0  0  0  0  0  0  0  0  0  0  0
    5.6220  -14.8030   -3.6840 C   0  0  0  0  0  0  0  0  0  0  0  0
    5.5720  -16.1200   -3.8000 N   0  0  0  0  0  0  0  0  0  0  0  0
    5.7550  -16.3530   -5.1440 C   0  0  0  0  0  0  0  0  0  0  0  0
    5.9550  -15.1800   -5.8300 C   0  0  0  0  0  0  0  0  0  0  0  0
    5.8810  -14.1930   -4.8860 N   0  0  0  0  0  0  0  0  0  0  0  0
    6.0370  -12.7800   -5.1480 C   0  0  0  0  0  0  0  0  0  0  0  0
    7.8630  -12.5600   -1.7250 C   0  0  0  0  0  0  0  0  0  0  0  0
    7.1050  -11.0540   -2.1220 Cl  0  0  0  0  0  0  0  0  0  0  0  0
    9.2250  -12.5170   -1.4180 C   0  0  0  0  0  0  0  0  0  0  0  0
   12.3400  -14.0040   -3.3520 C   0  0  0  0  0  0  0  0  0  0  0  0
   11.8340  -15.3200   -3.5050 C   0  0  0  0  0  0  0  0  0  0  0  0
   11.7580  -15.9360   -4.7480 C   0  0  0  0  0  0  0  0  0  0  0  0
   11.1490  -17.1470   -4.9650 O   0  0  0  0  0  0  0  0  0  0  0  0
   10.0130  -17.3870   -4.1230 C   0  0  0  0  0  0  0  0  0  0  0  0
    9.0510  -15.4410   -9.5690 C   0  0  0  0  0  0  0  0  0  0  0  0
    8.7150  -14.2740   -8.6150 C   0  0  0  0  0  0  0  0  0  0  0  0
    7.1753  -10.4283  -10.2970 H   0  0  0  0  0  0  0  0  0  0  0  0
    8.0832  -11.5562  -11.3601 H   0  0  0  0  0  0  0  0  0  0  0  0
    6.2870  -11.5718  -11.3601 H   0  0  0  0  0  0  0  0  0  0  0  0
    6.7588  -12.0353   -8.7185 H   0  0  0  0  0  0  0  0  0  0  0  0
    6.6004  -13.3435   -9.9497 H   0  0  0  0  0  0  0  0  0  0  0  0
    8.9910  -12.2180   -8.6870 H   0  0  0  0  0  0  0  0  0  0  0  0
    8.8929  -13.1603  -11.4695 H   0  0  0  0  0  0  0  0  0  0  0  0
    9.8202  -11.7973  -10.7224 H   0  0  0  0  0  0  0  0  0  0  0  0
   11.3501  -13.6151  -11.3923 H   0  0  0  0  0  0  0  0  0  0  0  0
   11.2993  -13.4386   -9.5919 H   0  0  0  0  0  0  0  0  0  0  0  0
   10.1400  -15.5350  -11.3130 H   0  0  0  0  0  0  0  0  0  0  0  0
   11.1870  -16.7908   -9.1739 H   0  0  0  0  0  0  0  0  0  0  0  0
   11.8947  -16.5606  -10.8525 H   0  0  0  0  0  0  0  0  0  0  0  0
   13.5776  -15.4305  -10.0315 H   0  0  0  0  0  0  0  0  0  0  0  0
   12.3905  -14.2499   -9.2716 H   0  0  0  0  0  0  0  0  0  0  0  0
   13.5600  -16.7435   -7.9773 H   0  0  0  0  0  0  0  0  0  0  0  0
   13.9315  -15.0556   -7.5608 H   0  0  0  0  0  0  0  0  0  0  0  0
   13.2705  -13.4933   -6.5885 H   0  0  0  0  0  0  0  0  0  0  0  0
   14.0919  -10.6018   -3.0979 H   0  0  0  0  0  0  0  0  0  0  0  0
   11.7650  -13.8490   -0.1760 H   0  0  0  0  0  0  0  0  0  0  0  0
    9.7850  -15.8190   -0.8171 H   0  0  0  0  0  0  0  0  0  0  0  0
    7.3514  -15.9040   -1.3376 H   0  0  0  0  0  0  0  0  0  0  0  0
    5.7427  -17.3499   -5.6088 H   0  0  0  0  0  0  0  0  0  0  0  0
    6.1360  -15.0600   -6.9083 H   0  0  0  0  0  0  0  0  0  0  0  0
    6.0972  -12.2348   -4.1945 H   0  0  0  0  0  0  0  0  0  0  0  0
    6.9590  -12.6136   -5.7244 H   0  0  0  0  0  0  0  0  0  0  0  0
    5.1735  -12.4164   -5.7244 H   0  0  0  0  0  0  0  0  0  0  0  0
    9.7407  -11.5458   -1.3898 H   0  0  0  0  0  0  0  0  0  0  0  0
   11.4922  -15.8683   -2.6147 H   0  0  0  0  0  0  0  0  0  0  0  0
   10.3183  -17.3225   -3.0682 H   0  0  0  0  0  0  0  0  0  0  0  0
    9.2391  -16.6325   -4.3275 H   0  0  0  0  0  0  0  0  0  0  0  0
    9.6104  -18.3900   -4.3275 H   0  0  0  0  0  0  0  0  0  0  0  0
    8.2263  -15.5566  -10.2876 H   0  0  0  0  0  0  0  0  0  0  0  0
    9.1853  -16.3438   -8.9550 H   0  0  0  0  0  0  0  0  0  0  0  0
    7.7502  -14.4831   -8.1298 H   0  0  0  0  0  0  0  0  0  0  0  0
    9.5320  -14.1991   -7.8822 H   0  0  0  0  0  0  0  0  0  0  0  0
  1  2  1  0
  2  3  1  0
  3  4  1  0
  4  5  1  0
  5  6  1  0
  6  7  1  0
  7  8  1  0
  8  9  1  0
  9 10  1  0
 10 11  1  0
 11 12  2  0
 12 13  1  0
 13 14  2  0
 14 15  1  0
 15 16  2  0
 16 17  1  0
 17 18  3  0
 16 19  1  0
 19 20  1  0
 20 21  1  0
 21 22  2  0
 22 23  1  0
 23 24  2  0
 24 25  1  0
 25 26  1  0
 26 27  2  0
 27 28  1  0
 28 29  2  0
 29 30  1  0
 30 31  1  0
 24 32  1  0
 32 33  1  0
 32 34  2  0
 19 35  2  0
 35 36  1  0
 36 37  2  0
 37 38  1  0
 38 39  1  0
  6 40  1  0
 40 41  1  0
 41  3  1  0
 37 11  1  0
 35 13  1  0
 34 21  1  0
 30 26  1  0
  1 42  1  0
  1 43  1  0
  1 44  1  0
  2 45  1  0
  2 46  1  0
  3 47  1  0
  4 48  1  0
  4 49  1  0
  5 50  1  0
  5 51  1  0
  6 52  1  0
  7 53  1  0
  7 54  1  0
  8 55  1  0
  8 56  1  0
  9 57  1  0
  9 58  1  0
 12 59  1  0
 15 60  1  0
 20 61  1  0
 22 62  1  0
 23 63  1  0
 28 64  1  0
 29 65  1  0
 31 66  1  0
 31 67  1  0
 31 68  1  0
 34 69  1  0
 36 70  1  0
 39 71  1  0
 39 72  1  0
 39 73  1  0
 40 74  1  0
 40 75  1  0
 41 76  1  0
 41 77  1  0
M  CHG  2   3   1   6   1
M  END
>  <meeko>  (4) 
{"is_sidechain": [false], "free_energy": -7.685, "intermolecular_energy": -11.87, "internal_energy": -2.537}

$$$$
LIB_AXHWESODWDIJCC__M_PUB_ALL__e8__s20260927
     RDKit          3D

 77 81  0  0  0  0  0  0  0  0999 V2000
    7.0850  -12.3040  -11.0210 C   0  0  0  0  0  0  0  0  0  0  0  0
    7.7160  -13.5380  -11.6420 C   0  0  0  0  0  0  0  0  0  0  0  0
    8.1470  -14.5180  -10.5580 N   0  0  0  0  0  0  0  0  0  0  0  0
    7.2470  -14.3870   -9.3170 C   0  0  0  0  0  0  0  0  0  0  0  0
    7.9370  -14.9620   -8.0640 C   0  0  0  0  0  0  0  0  0  0  0  0
    9.2230  -14.1960   -7.7360 N   0  0  0  0  0  0  0  0  0  0  0  0
   10.0660  -14.9200   -6.6980 C   0  0  0  0  0  0  0  0  0  0  0  0
   10.8740  -16.1050   -7.2430 C   0  0  0  0  0  0  0  0  0  0  0  0
   12.3630  -15.8310   -7.4500 C   0  0  0  0  0  0  0  0  0  0  0  0
   13.0670  -16.5690   -6.4440 O   0  0  0  0  0  0  0  0  0  0  0  0
   13.1900  -15.8840   -5.2650 C   0  0  0  0  0  0  0  0  0  0  0  0
   13.5140  -14.5280   -5.3260 C   0  0  0  0  0  0  0  0  0  0  0  0
   13.4330  -13.7120   -4.2040 C   0  0  0  0  0  0  0  0  0  0  0  0
   13.7540  -12.4180   -4.3190 N   0  0  0  0  0  0  0  0  0  0  0  0
   13.6020  -11.6150   -3.2370 C   0  0  0  0  0  0  0  0  0  0  0  0
   13.0610  -12.0320   -2.0340 C   0  0  0  0  0  0  0  0  0  0  0  0
   12.8510  -11.0830   -0.9880 C   0  0  0  0  0  0  0  0  0  0  0  0
   12.6690  -10.3420   -0.1150 N   0  0  0  0  0  0  0  0  0  0  0  0
   12.6840  -13.3760   -1.9120 C   0  0  0  0  0  0  0  0  0  0  0  0
   11.8740  -13.7990   -0.8160 N   0  0  0  0  0  0  0  0  0  0  0  0
   10.4650  -13.8980   -0.7880 C   0  0  0  0  0  0  0  0  0  0  0  0
    9.8430  -15.1080   -1.0990 C   0  0  0  0  0  0  0  0  0  0  0  0
    8.4580  -15.1600   -1.3200 C   0  0  0  0  0  0  0  0  0  0  0  0
    7.6690  -14.0020   -1.2430 C   0  0  0  0  0  0  0  0  0  0  0  0
    5.9210  -14.0950   -1.6200 S   0  0  0  0  0  0  0  0  0  0  0  0
    5.9590  -13.4940   -3.2480 C   0  0  0  0  0  0  0  0  0  0  0  0
    6.6430  -14.0130   -4.2540 N   0  0  0  0  0  0  0  0  0  0  0  0
    6.3540  -13.1950   -5.3230 C   0  0  0  0  0  0  0  0  0  0  0  0
    5.5300  -12.1620   -4.9510 C   0  0  0  0  0  0  0  0  0  0  0  0
    5.2910  -12.3540   -3.6180 N   0  0  0  0  0  0  0  0  0  0  0  0
    4.4700  -11.4990   -2.7900 C   0  0  0  0  0  0  0  0  0  0  0  0
    8.2830  -12.8060   -0.8510 C   0  0  0  0  0  0  0  0  0  0  0  0
    7.4170  -11.3140   -0.6890 Cl  0  0  0  0  0  0  0  0  0  0  0  0
    9.6600  -12.7610   -0.6210 C   0  0  0  0  0  0  0  0  0  0  0  0
   12.9590  -14.2640   -2.9970 C   0  0  0  0  0  0  0  0  0  0  0  0
   12.7520  -15.6660   -2.9290 C   0  0  0  0  0  0  0  0  0  0  0  0
   12.8440  -16.4760   -4.0530 C   0  0  0  0  0  0  0  0  0  0  0  0
   12.5160  -17.8090   -4.0620 O   0  0  0  0  0  0  0  0  0  0  0  0
   12.4360  -18.3990   -2.7570 C   0  0  0  0  0  0  0  0  0  0  0  0
    9.9690  -13.6810   -8.9660 C   0  0  0  0  0  0  0  0  0  0  0  0
    9.6440  -14.4890  -10.2410 C   0  0  0  0  0  0  0  0  0  0  0  0
    7.1257  -12.3836   -9.9246 H   0  0  0  0  0  0  0  0  0  0  0  0
    7.6358  -11.4084  -11.3443 H   0  0  0  0  0  0  0  0  0  0  0  0
    6.0365  -12.2262  -11.3443 H   0  0  0  0  0  0  0  0  0  0  0  0
    6.9836  -14.0265  -12.3015 H   0  0  0  0  0  0  0  0  0  0  0  0
    8.6013  -13.2333  -12.2195 H   0  0  0  0  0  0  0  0  0  0  0  0
    7.9470  -15.4500  -10.9550 H   0  0  0  0  0  0  0  0  0  0  0  0
    7.0230  -13.3235   -9.1470 H   0  0  0  0  0  0  0  0  0  0  0  0
    6.3220  -14.9546   -9.4964 H   0  0  0  0  0  0  0  0  0  0  0  0
    7.2480  -14.8880   -7.2097 H   0  0  0  0  0  0  0  0  0  0  0  0
    8.1991  -16.0117   -8.2627 H   0  0  0  0  0  0  0  0  0  0  0  0
    8.9100  -13.3390   -7.2350 H   0  0  0  0  0  0  0  0  0  0  0  0
   10.7705  -14.1959   -6.2628 H   0  0  0  0  0  0  0  0  0  0  0  0
    9.3630  -15.3355   -5.9610 H   0  0  0  0  0  0  0  0  0  0  0  0
   10.7761  -16.9398   -6.5334 H   0  0  0  0  0  0  0  0  0  0  0  0
   10.4611  -16.3267   -8.2382 H   0  0  0  0  0  0  0  0  0  0  0  0
   12.6734  -16.1655   -8.4509 H   0  0  0  0  0  0  0  0  0  0  0  0
   12.5794  -14.7553   -7.3722 H   0  0  0  0  0  0  0  0  0  0  0  0
   13.8407  -14.0955   -6.2832 H   0  0  0  0  0  0  0  0  0  0  0  0
   13.9288  -10.5680   -3.3209 H   0  0  0  0  0  0  0  0  0  0  0  0
   12.3360  -13.9030    0.0870 H   0  0  0  0  0  0  0  0  0  0  0  0
   10.4425  -16.0274   -1.1714 H   0  0  0  0  0  0  0  0  0  0  0  0
    7.9835  -16.1236   -1.5573 H   0  0  0  0  0  0  0  0  0  0  0  0
    6.7343  -13.3493   -6.3436 H   0  0  0  0  0  0  0  0  0  0  0  0
    5.1444  -11.3528   -5.5886 H   0  0  0  0  0  0  0  0  0  0  0  0
    4.6731  -11.7106   -1.7298 H   0  0  0  0  0  0  0  0  0  0  0  0
    4.7040  -10.4459   -3.0051 H   0  0  0  0  0  0  0  0  0  0  0  0
    3.4083  -11.6901   -3.0051 H   0  0  0  0  0  0  0  0  0  0  0  0
   10.1226  -11.8152   -0.3025 H   0  0  0  0  0  0  0  0  0  0  0  0
   12.5118  -16.1243   -1.9583 H   0  0  0  0  0  0  0  0  0  0  0  0
   12.5423  -17.6148   -1.9929 H   0  0  0  0  0  0  0  0  0  0  0  0
   11.4622  -18.8966   -2.6387 H   0  0  0  0  0  0  0  0  0  0  0  0
   13.2422  -19.1380   -2.6387 H   0  0  0  0  0  0  0  0  0  0  0  0
    9.6883  -12.6307   -9.1338 H   0  0  0  0  0  0  0  0  0  0  0  0
   11.0462  -13.7877   -8.7703 H   0  0  0  0  0  0  0  0  0  0  0  0
   10.1746  -14.0340  -11.0904 H   0  0  0  0  0  0  0  0  0  0  0  0
    9.9664  -15.5263  -10.0675 H   0  0  0  0  0  0  0  0  0  0  0  0
  1  2  1  0
  2  3  1  0
  3  4  1  0
  4  5  1  0
  5  6  1  0
  6  7  1  0
  7  8  1  0
  8  9  1  0
  9 10  1  0
 10 11  1  0
 11 12  2  0
 12 13  1  0
 13 14  2  0
 14 15  1  0
 15 16  2  0
 16 17  1  0
 17 18  3  0
 16 19  1  0
 19 20  1  0
 20 21  1  0
 21 22  2  0
 22 23  1  0
 23 24  2  0
 24 25  1  0
 25 26  1  0
 26 27  2  0
 27 28  1  0
 28 29  2  0
 29 30  1  0
 30 31  1  0
 24 32  1  0
 32 33  1  0
 32 34  2  0
 19 35  2  0
 35 36  1  0
 36 37  2  0
 37 38  1  0
 38 39  1  0
  6 40  1  0
 40 41  1  0
 41  3  1  0
 37 11  1  0
 35 13  1  0
 34 21  1  0
 30 26  1  0
  1 42  1  0
  1 43  1  0
  1 44  1  0
  2 45  1  0
  2 46  1  0
  3 47  1  0
  4 48  1  0
  4 49  1  0
  5 50  1  0
  5 51  1  0
  6 52  1  0
  7 53  1  0
  7 54  1  0
  8 55  1  0
  8 56  1  0
  9 57  1  0
  9 58  1  0
 12 59  1  0
 15 60  1  0
 20 61  1  0
 22 62  1  0
 23 63  1  0
 28 64  1  0
 29 65  1  0
 31 66  1  0
 31 67  1  0
 31 68  1  0
 34 69  1  0
 36 70  1  0
 39 71  1  0
 39 72  1  0
 39 73  1  0
 40 74  1  0
 40 75  1  0
 41 76  1  0
 41 77  1  0
M  CHG  2   3   1   6   1
M  END
>  <meeko>  (5) 
{"is_sidechain": [false], "free_energy": -7.665, "intermolecular_energy": -11.922, "internal_energy": -2.452}

$$$$
LIB_AXHWESODWDIJCC__M_PUB_ALL__e8__s20260927
     RDKit          3D

 77 81  0  0  0  0  0  0  0  0999 V2000
    5.6980  -16.9580   -5.4060 C   0  0  0  0  0  0  0  0  0  0  0  0
    6.3080  -15.6530   -5.8850 C   0  0  0  0  0  0  0  0  0  0  0  0
    7.7930  -15.8330   -6.1730 N   0  0  0  0  0  0  0  0  0  0  0  0
    8.6270  -14.8000   -5.3960 C   0  0  0  0  0  0  0  0  0  0  0  0
   10.0210  -14.6160   -6.0300 C   0  0  0  0  0  0  0  0  0  0  0  0
    9.9160  -14.0830   -7.4620 N   0  0  0  0  0  0  0  0  0  0  0  0
   11.2410  -14.1760   -8.2020 C   0  0  0  0  0  0  0  0  0  0  0  0
   11.9760  -15.5130   -8.0330 C   0  0  0  0  0  0  0  0  0  0  0  0
   13.3800  -15.4070   -7.4410 C   0  0  0  0  0  0  0  0  0  0  0  0
   13.4260  -16.2930   -6.3160 O   0  0  0  0  0  0  0  0  0  0  0  0
   13.4270  -15.6350   -5.1150 C   0  0  0  0  0  0  0  0  0  0  0  0
   13.9410  -14.3370   -5.0800 C   0  0  0  0  0  0  0  0  0  0  0  0
   13.7700  -13.5210   -3.9680 C   0  0  0  0  0  0  0  0  0  0  0  0
   14.2830  -12.2850   -3.9880 N   0  0  0  0  0  0  0  0  0  0  0  0
   14.0490  -11.4700   -2.9300 C   0  0  0  0  0  0  0  0  0  0  0  0
   13.2460  -11.8100   -1.8540 C   0  0  0  0  0  0  0  0  0  0  0  0
   12.9830  -10.8430   -0.8380 C   0  0  0  0  0  0  0  0  0  0  0  0
   12.7500  -10.0850    0.0090 N   0  0  0  0  0  0  0  0  0  0  0  0
   12.6720  -13.0880   -1.8390 C   0  0  0  0  0  0  0  0  0  0  0  0
   11.6260  -13.3950   -0.9190 N   0  0  0  0  0  0  0  0  0  0  0  0
   10.2500  -13.1120   -1.0690 C   0  0  0  0  0  0  0  0  0  0  0  0
    9.6980  -12.9820   -2.3440 C   0  0  0  0  0  0  0  0  0  0  0  0
    8.4070  -12.4590   -2.5110 C   0  0  0  0  0  0  0  0  0  0  0  0
    7.6440  -12.0480   -1.4060 C   0  0  0  0  0  0  0  0  0  0  0  0
    6.0380  -11.3030   -1.6680 S   0  0  0  0  0  0  0  0  0  0  0  0
    5.1410  -12.7250   -2.0970 C   0  0  0  0  0  0  0  0  0  0  0  0
    4.8720  -13.7460   -1.3000 N   0  0  0  0  0  0  0  0  0  0  0  0
    4.1480  -14.6130   -2.0860 C   0  0  0  0  0  0  0  0  0  0  0  0
    4.0150  -14.1330   -3.3660 C   0  0  0  0  0  0  0  0  0  0  0  0
    4.6640  -12.9290   -3.3670 N   0  0  0  0  0  0  0  0  0  0  0  0
    4.7910  -12.0550   -4.5130 C   0  0  0  0  0  0  0  0  0  0  0  0
    8.1680  -12.2550   -0.1250 C   0  0  0  0  0  0  0  0  0  0  0  0
    7.3170  -11.8200    1.3200 Cl  0  0  0  0  0  0  0  0  0  0  0  0
    9.4510  -12.7860    0.0370 C   0  0  0  0  0  0  0  0  0  0  0  0
   13.0140  -14.0040   -2.8820 C   0  0  0  0  0  0  0  0  0  0  0  0
   12.6060  -15.3620   -2.8910 C   0  0  0  0  0  0  0  0  0  0  0  0
   12.7880  -16.1750   -4.0020 C   0  0  0  0  0  0  0  0  0  0  0  0
   12.2860  -17.4480   -4.1070 O   0  0  0  0  0  0  0  0  0  0  0  0
   13.0380  -18.4330   -3.3840 C   0  0  0  0  0  0  0  0  0  0  0  0
    8.6870  -14.5830   -8.2210 C   0  0  0  0  0  0  0  0  0  0  0  0
    8.1420  -15.9140   -7.6610 C   0  0  0  0  0  0  0  0  0  0  0  0
    5.6892  -16.9768   -4.3062 H   0  0  0  0  0  0  0  0  0  0  0  0
    4.6677  -17.0411   -5.7824 H   0  0  0  0  0  0  0  0  0  0  0  0
    6.2950  -17.8018   -5.7824 H   0  0  0  0  0  0  0  0  0  0  0  0
    5.7973  -15.3305   -6.8044 H   0  0  0  0  0  0  0  0  0  0  0  0
    6.1874  -14.8937   -5.0983 H   0  0  0  0  0  0  0  0  0  0  0  0
    8.0290  -16.7510   -5.7640 H   0  0  0  0  0  0  0  0  0  0  0  0
    8.0995  -13.8347   -5.4033 H   0  0  0  0  0  0  0  0  0  0  0  0
    8.7586  -15.1631   -4.3660 H   0  0  0  0  0  0  0  0  0  0  0  0
   10.5989  -13.9028   -5.4238 H   0  0  0  0  0  0  0  0  0  0  0  0
   10.5203  -15.5957   -6.0603 H   0  0  0  0  0  0  0  0  0  0  0  0
    9.7690  -13.0570   -7.3600 H   0  0  0  0  0  0  0  0  0  0  0  0
   11.0464  -14.0248   -9.2740 H   0  0  0  0  0  0  0  0  0  0  0  0
   11.8945  -13.4046   -7.7685 H   0  0  0  0  0  0  0  0  0  0  0  0
   11.3737  -16.1523   -7.3707 H   0  0  0  0  0  0  0  0  0  0  0  0
   12.0993  -15.9263   -9.0449 H   0  0  0  0  0  0  0  0  0  0  0  0
   14.1293  -15.7061   -8.1888 H   0  0  0  0  0  0  0  0  0  0  0  0
   13.6018  -14.3734   -7.1371 H   0  0  0  0  0  0  0  0  0  0  0  0
   14.4926  -13.9525   -5.9505 H   0  0  0  0  0  0  0  0  0  0  0  0
   14.5258  -10.4787   -2.9260 H   0  0  0  0  0  0  0  0  0  0  0  0
   11.9050  -13.7200    0.0060 H   0  0  0  0  0  0  0  0  0  0  0  0
   10.2795  -13.2919   -3.2248 H   0  0  0  0  0  0  0  0  0  0  0  0
    7.9858  -12.3695   -3.5232 H   0  0  0  0  0  0  0  0  0  0  0  0
    3.7296  -15.5676   -1.7344 H   0  0  0  0  0  0  0  0  0  0  0  0
    3.4976  -14.6137   -4.2093 H   0  0  0  0  0  0  0  0  0  0  0  0
    4.9413  -11.0206   -4.1704 H   0  0  0  0  0  0  0  0  0  0  0  0
    5.6529  -12.3691   -5.1200 H   0  0  0  0  0  0  0  0  0  0  0  0
    3.8753  -12.1108   -5.1200 H   0  0  0  0  0  0  0  0  0  0  0  0
    9.8418  -12.9515    1.0518 H   0  0  0  0  0  0  0  0  0  0  0  0
   12.1318  -15.7835   -1.9924 H   0  0  0  0  0  0  0  0  0  0  0  0
   12.9130  -18.2693   -2.3034 H   0  0  0  0  0  0  0  0  0  0  0  0
   12.6749  -19.4374   -3.6471 H   0  0  0  0  0  0  0  0  0  0  0  0
   14.1026  -18.3474   -3.6471 H   0  0  0  0  0  0  0  0  0  0  0  0
    7.8962  -13.8216   -8.1509 H   0  0  0  0  0  0  0  0  0  0  0  0
    8.9897  -14.7602   -9.2636 H   0  0  0  0  0  0  0  0  0  0  0  0
    7.2346  -16.1854   -8.2205 H   0  0  0  0  0  0  0  0  0  0  0  0
    8.9331  -16.6698   -7.7749 H   0  0  0  0  0  0  0  0  0  0  0  0
  1  2  1  0
  2  3  1  0
  3  4  1  0
  4  5  1  0
  5  6  1  0
  6  7  1  0
  7  8  1  0
  8  9  1  0
  9 10  1  0
 10 11  1  0
 11 12  2  0
 12 13  1  0
 13 14  2  0
 14 15  1  0
 15 16  2  0
 16 17  1  0
 17 18  3  0
 16 19  1  0
 19 20  1  0
 20 21  1  0
 21 22  2  0
 22 23  1  0
 23 24  2  0
 24 25  1  0
 25 26  1  0
 26 27  2  0
 27 28  1  0
 28 29  2  0
 29 30  1  0
 30 31  1  0
 24 32  1  0
 32 33  1  0
 32 34  2  0
 19 35  2  0
 35 36  1  0
 36 37  2  0
 37 38  1  0
 38 39  1  0
  6 40  1  0
 40 41  1  0
 41  3  1  0
 37 11  1  0
 35 13  1  0
 34 21  1  0
 30 26  1  0
  1 42  1  0
  1 43  1  0
  1 44  1  0
  2 45  1  0
  2 46  1  0
  3 47  1  0
  4 48  1  0
  4 49  1  0
  5 50  1  0
  5 51  1  0
  6 52  1  0
  7 53  1  0
  7 54  1  0
  8 55  1  0
  8 56  1  0
  9 57  1  0
  9 58  1  0
 12 59  1  0
 15 60  1  0
 20 61  1  0
 22 62  1  0
 23 63  1  0
 28 64  1  0
 29 65  1  0
 31 66  1  0
 31 67  1  0
 31 68  1  0
 34 69  1  0
 36 70  1  0
 39 71  1  0
 39 72  1  0
 39 73  1  0
 40 74  1  0
 40 75  1  0
 41 76  1  0
 41 77  1  0
M  CHG  2   3   1   6   1
M  END
>  <meeko>  (6) 
{"is_sidechain": [false], "free_energy": -7.588, "intermolecular_energy": -11.535, "internal_energy": -2.713}

$$$$
LIB_AXHWESODWDIJCC__M_PUB_ALL__e8__s20260927
     RDKit          3D

 77 81  0  0  0  0  0  0  0  0999 V2000
   12.1280  -15.2180   -5.7080 C   0  0  0  0  0  0  0  0  0  0  0  0
   13.3420  -14.3310   -5.4950 C   0  0  0  0  0  0  0  0  0  0  0  0
   12.9690  -13.1080   -4.6660 N   0  0  0  0  0  0  0  0  0  0  0  0
   14.2100  -12.5220   -3.9730 C   0  0  0  0  0  0  0  0  0  0  0  0
   13.8150  -11.6440   -2.7680 C   0  0  0  0  0  0  0  0  0  0  0  0
   13.0810  -12.4620   -1.7000 N   0  0  0  0  0  0  0  0  0  0  0  0
   12.4270  -11.5730   -0.6550 C   0  0  0  0  0  0  0  0  0  0  0  0
   11.7720  -12.3280    0.5100 C   0  0  0  0  0  0  0  0  0  0  0  0
   10.5380  -11.6520    1.1060 C   0  0  0  0  0  0  0  0  0  0  0  0
    9.4450  -12.5640    0.9470 O   0  0  0  0  0  0  0  0  0  0  0  0
    8.6070  -12.2210   -0.0810 C   0  0  0  0  0  0  0  0  0  0  0  0
    8.7790  -12.8620   -1.3080 C   0  0  0  0  0  0  0  0  0  0  0  0
    7.8380  -12.7460   -2.3240 C   0  0  0  0  0  0  0  0  0  0  0  0
    8.0530  -13.3840   -3.4820 N   0  0  0  0  0  0  0  0  0  0  0  0
    7.0960  -13.3240   -4.4400 C   0  0  0  0  0  0  0  0  0  0  0  0
    5.8700  -12.7050   -4.2720 C   0  0  0  0  0  0  0  0  0  0  0  0
    4.8920  -12.7850   -5.3090 C   0  0  0  0  0  0  0  0  0  0  0  0
    4.0740  -12.8250   -6.1300 N   0  0  0  0  0  0  0  0  0  0  0  0
    5.6160  -12.0660   -3.0510 C   0  0  0  0  0  0  0  0  0  0  0  0
    4.2910  -11.6600   -2.7130 N   0  0  0  0  0  0  0  0  0  0  0  0
    3.3900  -12.3280   -1.8540 C   0  0  0  0  0  0  0  0  0  0  0  0
    2.2710  -11.6570   -1.3580 C   0  0  0  0  0  0  0  0  0  0  0  0
    1.5110  -12.2130   -0.3180 C   0  0  0  0  0  0  0  0  0  0  0  0
    1.8590  -13.4480    0.2520 C   0  0  0  0  0  0  0  0  0  0  0  0
    0.9180  -14.0800    1.6370 S   0  0  0  0  0  0  0  0  0  0  0  0
   -0.6830  -13.7440    1.0580 C   0  0  0  0  0  0  0  0  0  0  0  0
   -1.3180  -14.3980    0.0990 N   0  0  0  0  0  0  0  0  0  0  0  0
   -2.5380  -13.7670    0.0040 C   0  0  0  0  0  0  0  0  0  0  0  0
   -2.6220  -12.7100    0.8770 C   0  0  0  0  0  0  0  0  0  0  0  0
   -1.4250  -12.6950    1.5400 N   0  0  0  0  0  0  0  0  0  0  0  0
   -1.0550  -11.7420    2.5620 C   0  0  0  0  0  0  0  0  0  0  0  0
    2.9330  -14.1550   -0.3020 C   0  0  0  0  0  0  0  0  0  0  0  0
    3.4460  -15.7010    0.2890 Cl  0  0  0  0  0  0  0  0  0  0  0  0
    3.6800  -13.6020   -1.3450 C   0  0  0  0  0  0  0  0  0  0  0  0
    6.6640  -12.0080   -2.0800 C   0  0  0  0  0  0  0  0  0  0  0  0
    6.5670  -11.2680   -0.8740 C   0  0  0  0  0  0  0  0  0  0  0  0
    7.5160  -11.3820    0.1340 C   0  0  0  0  0  0  0  0  0  0  0  0
    7.3920  -10.7970    1.3700 O   0  0  0  0  0  0  0  0  0  0  0  0
    7.0900   -9.3950    1.3230 C   0  0  0  0  0  0  0  0  0  0  0  0
   12.2120  -13.5830   -2.2670 C   0  0  0  0  0  0  0  0  0  0  0  0
   11.7810  -13.3220   -3.7260 C   0  0  0  0  0  0  0  0  0  0  0  0
   11.7174  -15.5180   -4.7326 H   0  0  0  0  0  0  0  0  0  0  0  0
   11.3637  -14.6641   -6.2729 H   0  0  0  0  0  0  0  0  0  0  0  0
   12.4235  -16.1145   -6.2729 H   0  0  0  0  0  0  0  0  0  0  0  0
   14.1201  -14.9024   -4.9677 H   0  0  0  0  0  0  0  0  0  0  0  0
   13.7156  -13.9972   -6.4743 H   0  0  0  0  0  0  0  0  0  0  0  0
   12.6730  -12.4030   -5.3600 H   0  0  0  0  0  0  0  0  0  0  0  0
   14.8477  -13.3467   -3.6220 H   0  0  0  0  0  0  0  0  0  0  0  0
   14.7497  -11.8951   -4.6980 H   0  0  0  0  0  0  0  0  0  0  0  0
   14.7249  -11.2119   -2.3259 H   0  0  0  0  0  0  0  0  0  0  0  0
   13.1402  -10.8509   -3.1226 H   0  0  0  0  0  0  0  0  0  0  0  0
   13.8310  -12.9480   -1.1660 H   0  0  0  0  0  0  0  0  0  0  0  0
   13.1980  -10.9065   -0.2411 H   0  0  0  0  0  0  0  0  0  0  0  0
   11.6184  -11.0326   -1.1689 H   0  0  0  0  0  0  0  0  0  0  0  0
   11.4742  -13.3229    0.1473 H   0  0  0  0  0  0  0  0  0  0  0  0
   12.5219  -12.3623    1.3141 H   0  0  0  0  0  0  0  0  0  0  0  0
   10.7013  -11.4400    2.1729 H   0  0  0  0  0  0  0  0  0  0  0  0
   10.3301  -10.6972    0.6009 H   0  0  0  0  0  0  0  0  0  0  0  0
    9.6788  -13.4724   -1.4749 H   0  0  0  0  0  0  0  0  0  0  0  0
    7.3070  -13.7965   -5.4107 H   0  0  0  0  0  0  0  0  0  0  0  0
    3.8920  -10.8930   -3.2520 H   0  0  0  0  0  0  0  0  0  0  0  0
    1.9830  -10.6853   -1.7856 H   0  0  0  0  0  0  0  0  0  0  0  0
    0.6289  -11.6730    0.0566 H   0  0  0  0  0  0  0  0  0  0  0  0
   -3.3420  -14.0704   -0.6827 H   0  0  0  0  0  0  0  0  0  0  0  0
   -3.4699  -12.0227    1.0139 H   0  0  0  0  0  0  0  0  0  0  0  0
   -1.2265  -12.1838    3.5547 H   0  0  0  0  0  0  0  0  0  0  0  0
    0.0088  -11.4836    2.4545 H   0  0  0  0  0  0  0  0  0  0  0  0
   -1.6657  -10.8334    2.4545 H   0  0  0  0  0  0  0  0  0  0  0  0
    4.5125  -14.1776   -1.7757 H   0  0  0  0  0  0  0  0  0  0  0  0
    5.7166  -10.5847   -0.7329 H   0  0  0  0  0  0  0  0  0  0  0  0
    7.0057   -9.0035    2.3475 H   0  0  0  0  0  0  0  0  0  0  0  0
    7.8944   -8.8642    0.7927 H   0  0  0  0  0  0  0  0  0  0  0  0
    6.1384   -9.2425    0.7927 H   0  0  0  0  0  0  0  0  0  0  0  0
   12.7824  -14.5229   -2.2312 H   0  0  0  0  0  0  0  0  0  0  0  0
   11.2993  -13.6378   -1.6555 H   0  0  0  0  0  0  0  0  0  0  0  0
   11.2028  -14.1875   -4.0818 H   0  0  0  0  0  0  0  0  0  0  0  0
   11.1818  -12.3996   -3.7343 H   0  0  0  0  0  0  0  0  0  0  0  0
  1  2  1  0
  2  3  1  0
  3  4  1  0
  4  5  1  0
  5  6  1  0
  6  7  1  0
  7  8  1  0
  8  9  1  0
  9 10  1  0
 10 11  1  0
 11 12  2  0
 12 13  1  0
 13 14  2  0
 14 15  1  0
 15 16  2  0
 16 17  1  0
 17 18  3  0
 16 19  1  0
 19 20  1  0
 20 21  1  0
 21 22  2  0
 22 23  1  0
 23 24  2  0
 24 25  1  0
 25 26  1  0
 26 27  2  0
 27 28  1  0
 28 29  2  0
 29 30  1  0
 30 31  1  0
 24 32  1  0
 32 33  1  0
 32 34  2  0
 19 35  2  0
 35 36  1  0
 36 37  2  0
 37 38  1  0
 38 39  1  0
  6 40  1  0
 40 41  1  0
 41  3  1  0
 37 11  1  0
 35 13  1  0
 34 21  1  0
 30 26  1  0
  1 42  1  0
  1 43  1  0
  1 44  1  0
  2 45  1  0
  2 46  1  0
  3 47  1  0
  4 48  1  0
  4 49  1  0
  5 50  1  0
  5 51  1  0
  6 52  1  0
  7 53  1  0
  7 54  1  0
  8 55  1  0
  8 56  1  0
  9 57  1  0
  9 58  1  0
 12 59  1  0
 15 60  1  0
 20 61  1  0
 22 62  1  0
 23 63  1  0
 28 64  1  0
 29 65  1  0
 31 66  1  0
 31 67  1  0
 31 68  1  0
 34 69  1  0
 36 70  1  0
 39 71  1  0
 39 72  1  0
 39 73  1  0
 40 74  1  0
 40 75  1  0
 41 76  1  0
 41 77  1  0
M  CHG  2   3   1   6   1
M  END
>  <meeko>  (7) 
{"is_sidechain": [false], "free_energy": -7.55, "intermolecular_energy": -12.427, "internal_energy": -1.757}

$$$$
LIB_AXHWESODWDIJCC__M_PUB_ALL__e8__s20260927
     RDKit          3D

 77 81  0  0  0  0  0  0  0  0999 V2000
   14.6660  -13.6480  -11.5740 C   0  0  0  0  0  0  0  0  0  0  0  0
   14.2140  -12.3390  -10.9500 C   0  0  0  0  0  0  0  0  0  0  0  0
   12.9300  -11.8510  -11.6100 N   0  0  0  0  0  0  0  0  0  0  0  0
   12.2420  -10.7860  -10.7400 C   0  0  0  0  0  0  0  0  0  0  0  0
   10.7480  -10.6520  -11.0970 C   0  0  0  0  0  0  0  0  0  0  0  0
    9.9940  -11.9600  -10.8380 N   0  0  0  0  0  0  0  0  0  0  0  0
    8.6040  -11.9460  -11.4550 C   0  0  0  0  0  0  0  0  0  0  0  0
    8.0540  -13.3300  -11.8270 C   0  0  0  0  0  0  0  0  0  0  0  0
    7.1440  -13.9670  -10.7770 C   0  0  0  0  0  0  0  0  0  0  0  0
    7.9950  -14.4990   -9.7550 O   0  0  0  0  0  0  0  0  0  0  0  0
    7.6420  -14.0870   -8.4970 C   0  0  0  0  0  0  0  0  0  0  0  0
    6.4850  -13.3190   -8.3590 C   0  0  0  0  0  0  0  0  0  0  0  0
    5.9340  -13.0570   -7.1110 C   0  0  0  0  0  0  0  0  0  0  0  0
    4.8220  -12.3160   -7.0360 N   0  0  0  0  0  0  0  0  0  0  0  0
    4.2500  -12.1270   -5.8220 C   0  0  0  0  0  0  0  0  0  0  0  0
    4.7030  -12.7160   -4.6530 C   0  0  0  0  0  0  0  0  0  0  0  0
    3.9710  -12.5320   -3.4420 C   0  0  0  0  0  0  0  0  0  0  0  0
    3.4050  -12.4030   -2.4380 N   0  0  0  0  0  0  0  0  0  0  0  0
    5.8440  -13.5260   -4.7230 C   0  0  0  0  0  0  0  0  0  0  0  0
    6.1920  -14.3740   -3.6300 N   0  0  0  0  0  0  0  0  0  0  0  0
    7.1970  -14.1470   -2.6630 C   0  0  0  0  0  0  0  0  0  0  0  0
    7.3960  -12.8650   -2.1500 C   0  0  0  0  0  0  0  0  0  0  0  0
    8.5370  -12.5730   -1.3880 C   0  0  0  0  0  0  0  0  0  0  0  0
    9.5060  -13.5560   -1.1310 C   0  0  0  0  0  0  0  0  0  0  0  0
   10.9910  -13.1200   -0.2310 S   0  0  0  0  0  0  0  0  0  0  0  0
   12.0000  -12.6650   -1.5680 C   0  0  0  0  0  0  0  0  0  0  0  0
   12.0030  -13.2250   -2.7670 N   0  0  0  0  0  0  0  0  0  0  0  0
   12.9600  -12.5270   -3.4680 C   0  0  0  0  0  0  0  0  0  0  0  0
   13.5600  -11.5750   -2.6810 C   0  0  0  0  0  0  0  0  0  0  0  0
   12.9470  -11.6780   -1.4620 N   0  0  0  0  0  0  0  0  0  0  0  0
   13.2600  -10.8690   -0.3050 C   0  0  0  0  0  0  0  0  0  0  0  0
    9.2630  -14.8600   -1.5780 C   0  0  0  0  0  0  0  0  0  0  0  0
   10.3650  -16.1680   -1.3020 Cl  0  0  0  0  0  0  0  0  0  0  0  0
    8.1200  -15.1480   -2.3280 C   0  0  0  0  0  0  0  0  0  0  0  0
    6.5330  -13.6300   -5.9720 C   0  0  0  0  0  0  0  0  0  0  0  0
    7.7720  -14.3020   -6.1230 C   0  0  0  0  0  0  0  0  0  0  0  0
    8.3220  -14.5530   -7.3740 C   0  0  0  0  0  0  0  0  0  0  0  0
    9.4420  -15.3200   -7.5760 O   0  0  0  0  0  0  0  0  0  0  0  0
   10.6720  -14.5840   -7.5120 C   0  0  0  0  0  0  0  0  0  0  0  0
   10.8270  -13.2160  -11.0900 C   0  0  0  0  0  0  0  0  0  0  0  0
   11.9940  -12.9700  -12.0710 C   0  0  0  0  0  0  0  0  0  0  0  0
   14.9142  -14.3667  -10.7791 H   0  0  0  0  0  0  0  0  0  0  0  0
   13.8566  -14.0558  -12.1974 H   0  0  0  0  0  0  0  0  0  0  0  0
   15.5545  -13.4695  -12.1974 H   0  0  0  0  0  0  0  0  0  0  0  0
   14.0335  -12.4928   -9.8759 H   0  0  0  0  0  0  0  0  0  0  0  0
   15.0000  -11.5836  -11.0970 H   0  0  0  0  0  0  0  0  0  0  0  0
   13.2450  -11.3600  -12.4620 H   0  0  0  0  0  0  0  0  0  0  0  0
   12.3334  -11.0735   -9.6822 H   0  0  0  0  0  0  0  0  0  0  0  0
   12.7314   -9.8181  -10.9235 H   0  0  0  0  0  0  0  0  0  0  0  0
   10.3032   -9.8546  -10.4836 H   0  0  0  0  0  0  0  0  0  0  0  0
   10.6672  -10.4109  -12.1672 H   0  0  0  0  0  0  0  0  0  0  0  0
    9.8030  -11.9670   -9.8150 H   0  0  0  0  0  0  0  0  0  0  0  0
    7.9133  -11.4853  -10.7334 H   0  0  0  0  0  0  0  0  0  0  0  0
    8.6869  -11.3813  -12.3954 H   0  0  0  0  0  0  0  0  0  0  0  0
    7.4803  -13.2297  -12.7601 H   0  0  0  0  0  0  0  0  0  0  0  0
    8.9269  -13.9928  -11.9202 H   0  0  0  0  0  0  0  0  0  0  0  0
    6.4699  -13.2092  -10.3511 H   0  0  0  0  0  0  0  0  0  0  0  0
    6.5228  -14.7579  -11.2227 H   0  0  0  0  0  0  0  0  0  0  0  0
    5.9988  -12.9123   -9.2580 H   0  0  0  0  0  0  0  0  0  0  0  0
    3.3729  -11.4659   -5.7613 H   0  0  0  0  0  0  0  0  0  0  0  0
    5.7800  -15.3060   -3.6200 H   0  0  0  0  0  0  0  0  0  0  0  0
    6.6529  -12.0776   -2.3444 H   0  0  0  0  0  0  0  0  0  0  0  0
    8.6746  -11.5585   -0.9857 H   0  0  0  0  0  0  0  0  0  0  0  0
   13.2119  -12.7085   -4.5233 H   0  0  0  0  0  0  0  0  0  0  0  0
   14.3616  -10.8788   -2.9688 H   0  0  0  0  0  0  0  0  0  0  0  0
   13.0400  -11.4377    0.6105 H   0  0  0  0  0  0  0  0  0  0  0  0
   14.3267  -10.6010   -0.3227 H   0  0  0  0  0  0  0  0  0  0  0  0
   12.6514   -9.9528   -0.3227 H   0  0  0  0  0  0  0  0  0  0  0  0
    7.9406  -16.1805   -2.6623 H   0  0  0  0  0  0  0  0  0  0  0  0
    8.3131  -14.6340   -5.2247 H   0  0  0  0  0  0  0  0  0  0  0  0
   10.9466  -14.4197   -6.4596 H   0  0  0  0  0  0  0  0  0  0  0  0
   11.4673  -15.1547   -8.0137 H   0  0  0  0  0  0  0  0  0  0  0  0
   10.5450  -13.6133   -8.0137 H   0  0  0  0  0  0  0  0  0  0  0  0
   11.2402  -13.5625  -10.1313 H   0  0  0  0  0  0  0  0  0  0  0  0
   10.1649  -13.9685  -11.5432 H   0  0  0  0  0  0  0  0  0  0  0  0
   12.5760  -13.8987  -12.1648 H   0  0  0  0  0  0  0  0  0  0  0  0
   11.5586  -12.6623  -13.0332 H   0  0  0  0  0  0  0  0  0  0  0  0
  1  2  1  0
  2  3  1  0
  3  4  1  0
  4  5  1  0
  5  6  1  0
  6  7  1  0
  7  8  1  0
  8  9  1  0
  9 10  1  0
 10 11  1  0
 11 12  2  0
 12 13  1  0
 13 14  2  0
 14 15  1  0
 15 16  2  0
 16 17  1  0
 17 18  3  0
 16 19  1  0
 19 20  1  0
 20 21  1  0
 21 22  2  0
 22 23  1  0
 23 24  2  0
 24 25  1  0
 25 26  1  0
 26 27  2  0
 27 28  1  0
 28 29  2  0
 29 30  1  0
 30 31  1  0
 24 32  1  0
 32 33  1  0
 32 34  2  0
 19 35  2  0
 35 36  1  0
 36 37  2  0
 37 38  1  0
 38 39  1  0
  6 40  1  0
 40 41  1  0
 41  3  1  0
 37 11  1  0
 35 13  1  0
 34 21  1  0
 30 26  1  0
  1 42  1  0
  1 43  1  0
  1 44  1  0
  2 45  1  0
  2 46  1  0
  3 47  1  0
  4 48  1  0
  4 49  1  0
  5 50  1  0
  5 51  1  0
  6 52  1  0
  7 53  1  0
  7 54  1  0
  8 55  1  0
  8 56  1  0
  9 57  1  0
  9 58  1  0
 12 59  1  0
 15 60  1  0
 20 61  1  0
 22 62  1  0
 23 63  1  0
 28 64  1  0
 29 65  1  0
 31 66  1  0
 31 67  1  0
 31 68  1  0
 34 69  1  0
 36 70  1  0
 39 71  1  0
 39 72  1  0
 39 73  1  0
 40 74  1  0
 40 75  1  0
 41 76  1  0
 41 77  1  0
M  CHG  2   3   1   6   1
M  END
>  <meeko>  (8) 
{"is_sidechain": [false], "free_energy": -7.543, "intermolecular_energy": -12.089, "internal_energy": -2.086}

$$$$
LIB_AXHWESODWDIJCC__M_PUB_ALL__e8__s20260927
     RDKit          3D

 77 81  0  0  0  0  0  0  0  0999 V2000
   14.1870  -14.8840   -5.9340 C   0  0  0  0  0  0  0  0  0  0  0  0
   12.7290  -15.1820   -5.6310 C   0  0  0  0  0  0  0  0  0  0  0  0
   12.1370  -14.0940   -4.7430 N   0  0  0  0  0  0  0  0  0  0  0  0
   13.1780  -12.9980   -4.4580 C   0  0  0  0  0  0  0  0  0  0  0  0
   12.8060  -12.1870   -3.2000 C   0  0  0  0  0  0  0  0  0  0  0  0
   12.7770  -13.0770   -1.9530 N   0  0  0  0  0  0  0  0  0  0  0  0
   12.1300  -12.3740   -0.7700 C   0  0  0  0  0  0  0  0  0  0  0  0
   10.8280  -13.0180   -0.2750 C   0  0  0  0  0  0  0  0  0  0  0  0
    9.5600  -12.5300   -0.9740 C   0  0  0  0  0  0  0  0  0  0  0  0
    8.6130  -12.2130    0.0520 O   0  0  0  0  0  0  0  0  0  0  0  0
    7.3260  -12.1370   -0.4110 C   0  0  0  0  0  0  0  0  0  0  0  0
    7.1290  -12.1030   -1.7930 C   0  0  0  0  0  0  0  0  0  0  0  0
    5.8640  -12.2580   -2.3470 C   0  0  0  0  0  0  0  0  0  0  0  0
    5.7320  -12.2190   -3.6790 N   0  0  0  0  0  0  0  0  0  0  0  0
    4.5060  -12.4430   -4.2140 C   0  0  0  0  0  0  0  0  0  0  0  0
    3.3890  -12.7870   -3.4730 C   0  0  0  0  0  0  0  0  0  0  0  0
    2.1680  -13.1010   -4.1420 C   0  0  0  0  0  0  0  0  0  0  0  0
    1.1580  -13.3590   -4.6500 N   0  0  0  0  0  0  0  0  0  0  0  0
    3.5230  -12.8700   -2.0800 C   0  0  0  0  0  0  0  0  0  0  0  0
    2.5020  -13.4840   -1.2960 N   0  0  0  0  0  0  0  0  0  0  0  0
    1.7500  -12.8870   -0.2590 C   0  0  0  0  0  0  0  0  0  0  0  0
    1.0790  -13.6860    0.6670 C   0  0  0  0  0  0  0  0  0  0  0  0
    0.1360  -13.1240    1.5410 C   0  0  0  0  0  0  0  0  0  0  0  0
   -0.1610  -11.7520    1.5000 C   0  0  0  0  0  0  0  0  0  0  0  0
   -1.4350  -11.0900    2.5690 S   0  0  0  0  0  0  0  0  0  0  0  0
   -2.8070  -11.9250    1.9120 C   0  0  0  0  0  0  0  0  0  0  0  0
   -3.3490  -13.0320    2.3930 N   0  0  0  0  0  0  0  0  0  0  0  0
   -4.3950  -13.3000    1.5400 C   0  0  0  0  0  0  0  0  0  0  0  0
   -4.4580  -12.3790    0.5230 C   0  0  0  0  0  0  0  0  0  0  0  0
   -3.4300  -11.5090    0.7620 N   0  0  0  0  0  0  0  0  0  0  0  0
   -3.1030  -10.3650   -0.0600 C   0  0  0  0  0  0  0  0  0  0  0  0
    0.5730  -10.9410    0.6270 C   0  0  0  0  0  0  0  0  0  0  0  0
    0.3250   -9.2310    0.5010 Cl  0  0  0  0  0  0  0  0  0  0  0  0
    1.5190  -11.5040   -0.2340 C   0  0  0  0  0  0  0  0  0  0  0  0
    4.7740  -12.5090   -1.4910 C   0  0  0  0  0  0  0  0  0  0  0  0
    4.9780  -12.4180   -0.0900 C   0  0  0  0  0  0  0  0  0  0  0  0
    6.2440  -12.2550    0.4570 C   0  0  0  0  0  0  0  0  0  0  0  0
    6.5060  -12.3030    1.8040 O   0  0  0  0  0  0  0  0  0  0  0  0
    6.1160  -13.5330    2.4300 C   0  0  0  0  0  0  0  0  0  0  0  0
   12.3090  -14.5060   -2.2210 C   0  0  0  0  0  0  0  0  0  0  0  0
   11.4340  -14.6180   -3.4880 C   0  0  0  0  0  0  0  0  0  0  0  0
   14.7417  -14.7706   -4.9909 H   0  0  0  0  0  0  0  0  0  0  0  0
   14.6175  -15.7127   -6.5153 H   0  0  0  0  0  0  0  0  0  0  0  0
   14.2578  -13.9528   -6.5153 H   0  0  0  0  0  0  0  0  0  0  0  0
   12.1647  -15.2267   -6.5742 H   0  0  0  0  0  0  0  0  0  0  0  0
   12.6640  -16.1460   -5.1051 H   0  0  0  0  0  0  0  0  0  0  0  0
   11.4100  -13.6490   -5.3240 H   0  0  0  0  0  0  0  0  0  0  0  0
   14.1605  -13.4681   -4.3040 H   0  0  0  0  0  0  0  0  0  0  0  0
   13.2056  -12.3126   -5.3179 H   0  0  0  0  0  0  0  0  0  0  0  0
   13.5501  -11.3900   -3.0543 H   0  0  0  0  0  0  0  0  0  0  0  0
   11.8026  -11.7603   -3.3458 H   0  0  0  0  0  0  0  0  0  0  0  0
   13.7720  -13.1700   -1.6620 H   0  0  0  0  0  0  0  0  0  0  0  0
   12.8491  -12.3717    0.0624 H   0  0  0  0  0  0  0  0  0  0  0  0
   11.8650  -11.3640   -1.1158 H   0  0  0  0  0  0  0  0  0  0  0  0
   10.9052  -14.1046   -0.4277 H   0  0  0  0  0  0  0  0  0  0  0  0
   10.7259  -12.7317    0.7822 H   0  0  0  0  0  0  0  0  0  0  0  0
    9.7801  -11.6352   -1.5747 H   0  0  0  0  0  0  0  0  0  0  0  0
    9.1629  -13.3010   -1.6507 H   0  0  0  0  0  0  0  0  0  0  0  0
    7.9928  -11.9504   -2.4567 H   0  0  0  0  0  0  0  0  0  0  0  0
    4.3926  -12.3452   -5.3038 H   0  0  0  0  0  0  0  0  0  0  0  0
    2.3960  -14.4940   -1.3840 H   0  0  0  0  0  0  0  0  0  0  0  0
    1.2907  -14.7645    0.7123 H   0  0  0  0  0  0  0  0  0  0  0  0
   -0.3785  -13.7680    2.2694 H   0  0  0  0  0  0  0  0  0  0  0  0
   -5.0912  -14.1435    1.6575 H   0  0  0  0  0  0  0  0  0  0  0  0
   -5.1804  -12.3478   -0.3060 H   0  0  0  0  0  0  0  0  0  0  0  0
   -2.8581   -9.5082    0.5849 H   0  0  0  0  0  0  0  0  0  0  0  0
   -2.2375  -10.6052   -0.6950 H   0  0  0  0  0  0  0  0  0  0  0  0
   -3.9647  -10.1115   -0.6950 H   0  0  0  0  0  0  0  0  0  0  0  0
    2.0939  -10.8493   -0.9055 H   0  0  0  0  0  0  0  0  0  0  0  0
    4.1091  -12.4782    0.5818 H   0  0  0  0  0  0  0  0  0  0  0  0
    6.1531  -13.4160    3.5231 H   0  0  0  0  0  0  0  0  0  0  0  0
    5.0917  -13.7918    2.1235 H   0  0  0  0  0  0  0  0  0  0  0  0
    6.8040  -14.3347    2.1235 H   0  0  0  0  0  0  0  0  0  0  0  0
   13.1932  -15.1484   -2.3459 H   0  0  0  0  0  0  0  0  0  0  0  0
   11.6953  -14.8211   -1.3642 H   0  0  0  0  0  0  0  0  0  0  0  0
   11.1768  -15.6759   -3.6451 H   0  0  0  0  0  0  0  0  0  0  0  0
   10.5385  -13.9997   -3.3276 H   0  0  0  0  0  0  0  0  0  0  0  0
  1  2  1  0
  2  3  1  0
  3  4  1  0
  4  5  1  0
  5  6  1  0
  6  7  1  0
  7  8  1  0
  8  9  1  0
  9 10  1  0
 10 11  1  0
 11 12  2  0
 12 13  1  0
 13 14  2  0
 14 15  1  0
 15 16  2  0
 16 17  1  0
 17 18  3  0
 16 19  1  0
 19 20  1  0
 20 21  1  0
 21 22  2  0
 22 23  1  0
 23 24  2  0
 24 25  1  0
 25 26  1  0
 26 27  2  0
 27 28  1  0
 28 29  2  0
 29 30  1  0
 30 31  1  0
 24 32  1  0
 32 33  1  0
 32 34  2  0
 19 35  2  0
 35 36  1  0
 36 37  2  0
 37 38  1  0
 38 39  1  0
  6 40  1  0
 40 41  1  0
 41  3  1  0
 37 11  1  0
 35 13  1  0
 34 21  1  0
 30 26  1  0
  1 42  1  0
  1 43  1  0
  1 44  1  0
  2 45  1  0
  2 46  1  0
  3 47  1  0
  4 48  1  0
  4 49  1  0
  5 50  1  0
  5 51  1  0
  6 52  1  0
  7 53  1  0
  7 54  1  0
  8 55  1  0
  8 56  1  0
  9 57  1  0
  9 58  1  0
 12 59  1  0
 15 60  1  0
 20 61  1  0
 22 62  1  0
 23 63  1  0
 28 64  1  0
 29 65  1  0
 31 66  1  0
 31 67  1  0
 31 68  1  0
 34 69  1  0
 36 70  1  0
 39 71  1  0
 39 72  1  0
 39 73  1  0
 40 74  1  0
 40 75  1  0
 41 76  1  0
 41 77  1  0
M  CHG  2   3   1   6   1
M  END
>  <meeko>  (9) 
{"is_sidechain": [false], "free_energy": -7.515, "intermolecular_energy": -12.642, "internal_energy": -1.485}

$$$$
