LIB_RSCVHKUJNYXHPQ__M_PUB_ALL__e8__s20260927
     RDKit          3D

 91 96  0  0  0  0  0  0  0  0999 V2000
    0.8280  -15.1860    3.6010 C   0  0  0  0  0  0  0  0  0  0  0  0
    1.8090  -15.5420    2.5320 C   0  0  0  0  0  0  0  0  0  0  0  0
    1.7000  -16.5040    1.5930 C   0  0  0  0  0  0  0  0  0  0  0  0
    0.5270  -17.4200    1.4030 C   0  0  0  0  0  0  0  0  0  0  0  0
    2.8520  -16.6510    0.6460 C   0  0  0  0  0  0  0  0  0  0  0  0
    3.5580  -17.6440    0.5650 O   0  0  0  0  0  0  0  0  0  0  0  0
    2.9480  -15.5340   -0.1120 O   0  0  0  0  0  0  0  0  0  0  0  0
    2.3870  -15.5750   -1.4510 C   0  0  2  0  0  0  0  0  0  0  0  0
    3.5230  -15.9550   -2.4140 C   0  0  2  0  0  0  0  0  0  0  0  0
    4.2110  -17.1790   -2.0650 O   0  0  0  0  0  0  0  0  0  0  0  0
    5.6480  -16.9390   -2.1330 C   0  0  0  0  0  0  0  0  0  0  0  0
    5.8340  -15.6260   -2.9190 C   0  0  2  0  0  0  0  0  0  0  0  0
    5.8160  -15.9860   -4.4200 C   0  0  0  0  0  0  0  0  0  0  0  0
    7.0740  -14.7540   -2.6170 C   0  0  2  0  0  0  0  0  0  0  0  0
    7.3640  -14.6980   -1.2040 O   0  0  0  0  0  0  0  0  0  0  0  0
    8.6710  -14.5650   -0.8510 C   0  0  0  0  0  0  0  0  0  0  0  0
    9.4480  -15.7600   -1.3120 C   0  0  0  0  0  0  0  0  0  0  0  0
    9.1570  -13.6060   -0.2710 O   0  0  0  0  0  0  0  0  0  0  0  0
    6.8450  -13.2890   -3.0840 C   0  0  0  0  0  0  0  0  0  0  0  0
    5.5190  -12.6290   -2.5960 C   0  0  2  0  0  0  0  0  0  0  0  0
    5.6310  -12.3880   -1.1760 O   0  0  0  0  0  0  0  0  0  0  0  0
    6.3260  -11.2840   -0.7920 C   0  0  0  0  0  0  0  0  0  0  0  0
    6.5730  -11.3310    0.6840 C   0  0  0  0  0  0  0  0  0  0  0  0
    6.7020  -10.3860   -1.5300 O   0  0  0  0  0  0  0  0  0  0  0  0
    4.2350  -13.5170   -2.8690 C   0  0  1  0  0  0  0  0  0  0  0  0
    3.9430  -13.4520   -4.3840 C   0  0  0  0  0  0  0  0  0  0  0  0
    4.6100  -14.9120   -2.3730 C   0  0  1  0  0  0  0  0  0  0  0  0
    2.9750  -13.0780   -1.9710 C   0  0  1  0  0  0  0  0  0  0  0  0
    2.4400  -11.6370   -2.3100 C   0  0  0  0  0  0  0  0  0  0  0  0
    1.4580  -11.0700   -1.2890 C   0  0  0  0  0  0  0  0  0  0  0  0
    1.8220  -11.5190    0.0080 O   0  0  0  0  0  0  0  0  0  0  0  0
    1.2190  -12.7420    0.4170 C   0  0  1  0  0  0  0  0  0  0  0  0
   -0.0810  -12.4150    1.1470 C   0  0  0  0  0  0  0  0  0  0  0  0
   -1.0040  -13.5980    0.8780 C   0  0  1  0  0  0  0  0  0  0  0  0
   -2.4350  -13.1980    0.7520 C   0  0  0  0  0  0  0  0  0  0  0  0
   -2.9600  -12.1570    0.1030 C   0  0  0  0  0  0  0  0  0  0  0  0
   -4.4240  -12.1240    0.2470 C   0  0  0  0  0  0  0  0  0  0  0  0
   -4.7230  -13.2600    1.0520 O   0  0  0  0  0  0  0  0  0  0  0  0
   -3.5670  -13.9100    1.3640 C   0  0  0  0  0  0  0  0  0  0  0  0
   -3.4980  -14.9200    2.0430 O   0  0  0  0  0  0  0  0  0  0  0  0
   -0.4110  -14.2390   -0.3600 C   0  0  0  0  0  0  0  0  0  0  0  0
   -1.1800  -15.3590   -0.9880 C   0  0  0  0  0  0  0  0  0  0  0  0
    0.8150  -13.7450   -0.6560 C   0  0  0  0  0  0  0  0  0  0  0  0
    1.7890  -14.1530   -1.7970 C   0  0  2  0  0  0  0  0  0  0  0  0
    0.9710  -14.2300   -3.1130 C   0  0  0  0  0  0  0  0  0  0  0  0
    1.2848  -15.3518    4.5878 H   0  0  0  0  0  0  0  0  0  0  0  0
    0.5448  -14.1278    3.5011 H   0  0  0  0  0  0  0  0  0  0  0  0
   -0.0679  -15.8163    3.5011 H   0  0  0  0  0  0  0  0  0  0  0  0
    2.7336  -14.9465    2.5078 H   0  0  0  0  0  0  0  0  0  0  0  0
    0.1368  -17.7247    2.3853 H   0  0  0  0  0  0  0  0  0  0  0  0
   -0.2607  -16.8956    0.8422 H   0  0  0  0  0  0  0  0  0  0  0  0
    0.8449  -18.3113    0.8422 H   0  0  0  0  0  0  0  0  0  0  0  0
    1.5761  -16.3136   -1.5341 H   0  0  0  0  0  0  0  0  0  0  0  0
    3.0243  -16.0567   -3.3892 H   0  0  0  0  0  0  0  0  0  0  0  0
    6.0651  -16.8383   -1.1201 H   0  0  0  0  0  0  0  0  0  0  0  0
    6.1687  -17.7744   -2.6238 H   0  0  0  0  0  0  0  0  0  0  0  0
    5.7614  -17.0787   -4.5344 H   0  0  0  0  0  0  0  0  0  0  0  0
    4.9399  -15.5231   -4.8976 H   0  0  0  0  0  0  0  0  0  0  0  0
    6.7339  -15.6128   -4.8976 H   0  0  0  0  0  0  0  0  0  0  0  0
    7.9111  -15.2203   -3.1572 H   0  0  0  0  0  0  0  0  0  0  0  0
    9.8121  -16.3200   -0.4381 H   0  0  0  0  0  0  0  0  0  0  0  0
    8.7982  -16.4083   -1.9182 H   0  0  0  0  0  0  0  0  0  0  0  0
   10.3042  -15.4291   -1.9182 H   0  0  0  0  0  0  0  0  0  0  0  0
    7.6830  -12.6802   -2.7137 H   0  0  0  0  0  0  0  0  0  0  0  0
    6.7770  -13.3286   -4.1812 H   0  0  0  0  0  0  0  0  0  0  0  0
    5.3847  -11.6967   -3.1642 H   0  0  0  0  0  0  0  0  0  0  0  0
    5.6291  -11.1514    1.2196 H   0  0  0  0  0  0  0  0  0  0  0  0
    6.9678  -12.3204    0.9584 H   0  0  0  0  0  0  0  0  0  0  0  0
    7.3035  -10.5558    0.9584 H   0  0  0  0  0  0  0  0  0  0  0  0
    2.8805  -13.2155   -4.5428 H   0  0  0  0  0  0  0  0  0  0  0  0
    4.5654  -12.6704   -4.8442 H   0  0  0  0  0  0  0  0  0  0  0  0
    4.1751  -14.4238   -4.8442 H   0  0  0  0  0  0  0  0  0  0  0  0
    4.8395  -14.5568   -1.3575 H   0  0  0  0  0  0  0  0  0  0  0  0
    3.4180  -13.0400   -0.9648 H   0  0  0  0  0  0  0  0  0  0  0  0
    3.3019  -10.9564   -2.3724 H   0  0  0  0  0  0  0  0  0  0  0  0
    1.8900  -11.7228   -3.2588 H   0  0  0  0  0  0  0  0  0  0  0  0
    1.4887   -9.9709   -1.3199 H   0  0  0  0  0  0  0  0  0  0  0  0
    0.4397  -11.4118   -1.5262 H   0  0  0  0  0  0  0  0  0  0  0  0
    2.0157  -13.2187    1.0069 H   0  0  0  0  0  0  0  0  0  0  0  0
    0.1005  -12.3060    2.2264 H   0  0  0  0  0  0  0  0  0  0  0  0
   -0.5183  -11.4673    0.7997 H   0  0  0  0  0  0  0  0  0  0  0  0
   -1.0469  -14.3130    1.7128 H   0  0  0  0  0  0  0  0  0  0  0  0
   -2.3746  -11.4195   -0.4656 H   0  0  0  0  0  0  0  0  0  0  0  0
   -4.7460  -11.1976    0.7451 H   0  0  0  0  0  0  0  0  0  0  0  0
   -4.9428  -12.1472   -0.7227 H   0  0  0  0  0  0  0  0  0  0  0  0
   -1.6147  -15.9921   -0.2005 H   0  0  0  0  0  0  0  0  0  0  0  0
   -1.9857  -14.9456   -1.6125 H   0  0  0  0  0  0  0  0  0  0  0  0
   -0.5048  -15.9624   -1.6125 H   0  0  0  0  0  0  0  0  0  0  0  0
   -0.0982  -14.3306   -2.8748 H   0  0  0  0  0  0  0  0  0  0  0  0
    1.1314  -13.3128   -3.6986 H   0  0  0  0  0  0  0  0  0  0  0  0
    1.2998  -15.1012   -3.6986 H   0  0  0  0  0  0  0  0  0  0  0  0
  1  2  1  0
  2  3  2  0
  3  4  1  0
  3  5  1  0
  5  6  2  0
  5  7  1  0
  7  8  1  0
  8  9  1  0
  9 10  1  0
 10 11  1  0
 11 12  1  0
 12 13  1  6
 12 14  1  0
 14 15  1  0
 15 16  1  0
 16 17  1  0
 16 18  2  0
 14 19  1  0
 19 20  1  0
 20 21  1  0
 21 22  1  0
 22 23  1  0
 22 24  2  0
 20 25  1  0
 25 26  1  6
 25 27  1  0
 25 28  1  0
 28 29  1  0
 29 30  1  0
 30 31  1  0
 31 32  1  0
 32 33  1  0
 33 34  1  0
 34 35  1  0
 35 36  2  0
 36 37  1  0
 37 38  1  0
 38 39  1  0
 39 40  2  0
 34 41  1  0
 41 42  1  0
 41 43  2  0
 43 44  1  0
 44 45  1  6
 44  8  1  0
 27  9  1  0
 44 28  1  0
 27 12  1  0
 43 32  1  0
 39 35  1  0
  1 46  1  0
  1 47  1  0
  1 48  1  0
  2 49  1  0
  4 50  1  0
  4 51  1  0
  4 52  1  0
  8 53  1  1
  9 54  1  6
 11 55  1  0
 11 56  1  0
 13 57  1  0
 13 58  1  0
 13 59  1  0
 14 60  1  6
 17 61  1  0
 17 62  1  0
 17 63  1  0
 19 64  1  0
 19 65  1  0
 20 66  1  6
 23 67  1  0
 23 68  1  0
 23 69  1  0
 26 70  1  0
 26 71  1  0
 26 72  1  0
 27 73  1  1
 28 74  1  1
 29 75  1  0
 29 76  1  0
 30 77  1  0
 30 78  1  0
 32 79  1  1
 33 80  1  0
 33 81  1  0
 34 82  1  1
 36 83  1  0
 37 84  1  0
 37 85  1  0
 42 86  1  0
 42 87  1  0
 42 88  1  0
 45 89  1  0
 45 90  1  0
 45 91  1  0
M  END
>  <meeko>  (1) 
{"is_sidechain": [false], "free_energy": -6.577, "intermolecular_energy": -11.191, "internal_energy": -1.471}

$$$$
LIB_RSCVHKUJNYXHPQ__M_PUB_ALL__e8__s20260927
     RDKit          3D

 91 96  0  0  0  0  0  0  0  0999 V2000
    6.0070  -17.1950   -5.4250 C   0  0  0  0  0  0  0  0  0  0  0  0
    6.2130  -17.0580   -3.9520 C   0  0  0  0  0  0  0  0  0  0  0  0
    7.3530  -17.2380   -3.2540 C   0  0  0  0  0  0  0  0  0  0  0  0
    8.6920  -17.5900   -3.8310 C   0  0  0  0  0  0  0  0  0  0  0  0
    7.2690  -17.0440   -1.7700 C   0  0  0  0  0  0  0  0  0  0  0  0
    7.7100  -17.8310   -0.9450 O   0  0  0  0  0  0  0  0  0  0  0  0
    6.6680  -15.8600   -1.5100 O   0  0  0  0  0  0  0  0  0  0  0  0
    7.1810  -15.0700   -0.4050 C   0  0  2  0  0  0  0  0  0  0  0  0
    6.0650  -14.9700    0.6470 C   0  0  2  0  0  0  0  0  0  0  0  0
    5.5410  -16.2490    1.0770 O   0  0  0  0  0  0  0  0  0  0  0  0
    4.0830  -16.1850    1.0520 C   0  0  0  0  0  0  0  0  0  0  0  0
    3.7140  -14.6920    0.9650 C   0  0  2  0  0  0  0  0  0  0  0  0
    3.7210  -14.1340    2.4040 C   0  0  0  0  0  0  0  0  0  0  0  0
    2.3900  -14.2980    0.2700 C   0  0  2  0  0  0  0  0  0  0  0  0
    2.1470  -15.0850   -0.9160 O   0  0  0  0  0  0  0  0  0  0  0  0
    0.8480  -15.3550   -1.2160 C   0  0  0  0  0  0  0  0  0  0  0  0
    0.1770  -16.0040   -0.0450 C   0  0  0  0  0  0  0  0  0  0  0  0
    0.2920  -15.0850   -2.2710 O   0  0  0  0  0  0  0  0  0  0  0  0
    2.4260  -12.8110   -0.1820 C   0  0  0  0  0  0  0  0  0  0  0  0
    3.6810  -12.3910   -1.0080 C   0  0  2  0  0  0  0  0  0  0  0  0
    3.5920  -13.0100   -2.3100 O   0  0  0  0  0  0  0  0  0  0  0  0
    2.8650  -12.3560   -3.2550 C   0  0  0  0  0  0  0  0  0  0  0  0
    3.1660  -10.8900   -3.1980 C   0  0  0  0  0  0  0  0  0  0  0  0
    2.0850  -12.8740   -4.0400 O   0  0  0  0  0  0  0  0  0  0  0  0
    5.0500  -12.8080   -0.3300 C   0  0  1  0  0  0  0  0  0  0  0  0
    5.2780  -11.8640    0.8710 C   0  0  0  0  0  0  0  0  0  0  0  0
    4.8640  -14.2720    0.0640 C   0  0  1  0  0  0  0  0  0  0  0  0
    6.2810  -12.8080   -1.3660 C   0  0  1  0  0  0  0  0  0  0  0  0
    6.6080  -11.3770   -1.9060 C   0  0  0  0  0  0  0  0  0  0  0  0
    7.5820  -11.3610   -3.0810 C   0  0  0  0  0  0  0  0  0  0  0  0
    7.3300  -12.4850   -3.9110 O   0  0  0  0  0  0  0  0  0  0  0  0
    8.0740  -13.6560   -3.5890 C   0  0  1  0  0  0  0  0  0  0  0  0
    9.3540  -13.6540   -4.4220 C   0  0  0  0  0  0  0  0  0  0  0  0
   10.3900  -14.3800   -3.5720 C   0  0  1  0  0  0  0  0  0  0  0  0
   11.7650  -13.8260   -3.7400 C   0  0  0  0  0  0  0  0  0  0  0  0
   12.1760  -12.5600   -3.6490 C   0  0  0  0  0  0  0  0  0  0  0  0
   13.6210  -12.4500   -3.9030 C   0  0  0  0  0  0  0  0  0  0  0  0
   14.0360  -13.7890   -4.1560 O   0  0  0  0  0  0  0  0  0  0  0  0
   12.9590  -14.6210   -4.0670 C   0  0  0  0  0  0  0  0  0  0  0  0
   12.9960  -15.8270   -4.2330 O   0  0  0  0  0  0  0  0  0  0  0  0
    9.8320  -14.2800   -2.1670 C   0  0  0  0  0  0  0  0  0  0  0  0
   10.6980  -14.7690   -1.0480 C   0  0  0  0  0  0  0  0  0  0  0  0
    8.5510  -13.8390   -2.1540 C   0  0  0  0  0  0  0  0  0  0  0  0
    7.5920  -13.6430   -0.9460 C   0  0  2  0  0  0  0  0  0  0  0  0
    8.3660  -12.8640    0.1500 C   0  0  0  0  0  0  0  0  0  0  0  0
    5.1048  -17.7950   -5.6148 H   0  0  0  0  0  0  0  0  0  0  0  0
    5.8849  -16.1976   -5.8725 H   0  0  0  0  0  0  0  0  0  0  0  0
    6.8796  -17.6933   -5.8725 H   0  0  0  0  0  0  0  0  0  0  0  0
    5.3267  -16.7758   -3.3647 H   0  0  0  0  0  0  0  0  0  0  0  0
    9.4052  -17.7775   -3.0148 H   0  0  0  0  0  0  0  0  0  0  0  0
    8.5981  -18.4940   -4.4507 H   0  0  0  0  0  0  0  0  0  0  0  0
    9.0548  -16.7567   -4.4507 H   0  0  0  0  0  0  0  0  0  0  0  0
    8.0706  -15.5302    0.0497 H   0  0  0  0  0  0  0  0  0  0  0  0
    6.5361  -14.4421    1.4893 H   0  0  0  0  0  0  0  0  0  0  0  0
    3.6936  -16.7247    0.1762 H   0  0  0  0  0  0  0  0  0  0  0  0
    3.6482  -16.6514    1.9483 H   0  0  0  0  0  0  0  0  0  0  0  0
    3.7105  -14.9683    3.1208 H   0  0  0  0  0  0  0  0  0  0  0  0
    4.6268  -13.5293    2.5584 H   0  0  0  0  0  0  0  0  0  0  0  0
    2.8307  -13.5067    2.5584 H   0  0  0  0  0  0  0  0  0  0  0  0
    1.5955  -14.4731    1.0104 H   0  0  0  0  0  0  0  0  0  0  0  0
    0.5956  -15.5991    0.8882 H   0  0  0  0  0  0  0  0  0  0  0  0
   -0.9032  -15.7992   -0.0815 H   0  0  0  0  0  0  0  0  0  0  0  0
    0.3457  -17.0904   -0.0815 H   0  0  0  0  0  0  0  0  0  0  0  0
    1.5353  -12.6227   -0.7993 H   0  0  0  0  0  0  0  0  0  0  0  0
    2.4589  -12.2149    0.7419 H   0  0  0  0  0  0  0  0  0  0  0  0
    3.6828  -11.2929   -1.0722 H   0  0  0  0  0  0  0  0  0  0  0  0
    3.2318  -10.5698   -2.1477 H   0  0  0  0  0  0  0  0  0  0  0  0
    4.1235  -10.6924   -3.7022 H   0  0  0  0  0  0  0  0  0  0  0  0
    2.3639  -10.3311   -3.7022 H   0  0  0  0  0  0  0  0  0  0  0  0
    5.1428  -12.4238    1.8082 H   0  0  0  0  0  0  0  0  0  0  0  0
    6.2998  -11.4588    0.8301 H   0  0  0  0  0  0  0  0  0  0  0  0
    4.5538  -11.0371    0.8301 H   0  0  0  0  0  0  0  0  0  0  0  0
    4.6324  -14.5840   -0.9651 H   0  0  0  0  0  0  0  0  0  0  0  0
    5.8933  -13.4030   -2.2060 H   0  0  0  0  0  0  0  0  0  0  0  0
    5.6678  -10.9072   -2.2305 H   0  0  0  0  0  0  0  0  0  0  0  0
    7.0944  -10.8316   -1.0838 H   0  0  0  0  0  0  0  0  0  0  0  0
    7.4436  -10.4367   -3.6612 H   0  0  0  0  0  0  0  0  0  0  0  0
    8.6151  -11.4028   -2.7055 H   0  0  0  0  0  0  0  0  0  0  0  0
    7.3525  -14.4629   -3.7847 H   0  0  0  0  0  0  0  0  0  0  0  0
    9.1956  -14.1845   -5.3725 H   0  0  0  0  0  0  0  0  0  0  0  0
    9.6755  -12.6332   -4.6762 H   0  0  0  0  0  0  0  0  0  0  0  0
   10.5352  -15.4296   -3.8673 H   0  0  0  0  0  0  0  0  0  0  0  0
   11.5197  -11.7089   -3.4145 H   0  0  0  0  0  0  0  0  0  0  0  0
   13.8157  -11.8100   -4.7762 H   0  0  0  0  0  0  0  0  0  0  0  0
   14.1625  -11.9938   -3.0612 H   0  0  0  0  0  0  0  0  0  0  0  0
   10.2351  -14.5076   -0.0850 H   0  0  0  0  0  0  0  0  0  0  0  0
   10.8060  -15.8614   -1.1184 H   0  0  0  0  0  0  0  0  0  0  0  0
   11.6892  -14.2973   -1.1184 H   0  0  0  0  0  0  0  0  0  0  0  0
    8.0325  -13.1996    1.1431 H   0  0  0  0  0  0  0  0  0  0  0  0
    9.4442  -13.0531    0.0420 H   0  0  0  0  0  0  0  0  0  0  0  0
    8.1700  -11.7870    0.0420 H   0  0  0  0  0  0  0  0  0  0  0  0
  1  2  1  0
  2  3  2  0
  3  4  1  0
  3  5  1  0
  5  6  2  0
  5  7  1  0
  7  8  1  0
  8  9  1  0
  9 10  1  0
 10 11  1  0
 11 12  1  0
 12 13  1  1
 12 14  1  0
 14 15  1  0
 15 16  1  0
 16 17  1  0
 16 18  2  0
 14 19  1  0
 19 20  1  0
 20 21  1  0
 21 22  1  0
 22 23  1  0
 22 24  2  0
 20 25  1  0
 25 26  1  1
 25 27  1  0
 25 28  1  0
 28 29  1  0
 29 30  1  0
 30 31  1  0
 31 32  1  0
 32 33  1  0
 33 34  1  0
 34 35  1  0
 35 36  2  0
 36 37  1  0
 37 38  1  0
 38 39  1  0
 39 40  2  0
 34 41  1  0
 41 42  1  0
 41 43  2  0
 43 44  1  0
 44 45  1  1
 44  8  1  0
 27  9  1  0
 44 28  1  0
 27 12  1  0
 43 32  1  0
 39 35  1  0
  1 46  1  0
  1 47  1  0
  1 48  1  0
  2 49  1  0
  4 50  1  0
  4 51  1  0
  4 52  1  0
  8 53  1  1
  9 54  1  1
 11 55  1  0
 11 56  1  0
 13 57  1  0
 13 58  1  0
 13 59  1  0
 14 60  1  1
 17 61  1  0
 17 62  1  0
 17 63  1  0
 19 64  1  0
 19 65  1  0
 20 66  1  6
 23 67  1  0
 23 68  1  0
 23 69  1  0
 26 70  1  0
 26 71  1  0
 26 72  1  0
 27 73  1  6
 28 74  1  6
 29 75  1  0
 29 76  1  0
 30 77  1  0
 30 78  1  0
 32 79  1  6
 33 80  1  0
 33 81  1  0
 34 82  1  6
 36 83  1  0
 37 84  1  0
 37 85  1  0
 42 86  1  0
 42 87  1  0
 42 88  1  0
 45 89  1  0
 45 90  1  0
 45 91  1  0
M  END
>  <meeko>  (2) 
{"is_sidechain": [false], "free_energy": -6.496, "intermolecular_energy": -10.664, "internal_energy": -1.861}

$$$$
LIB_RSCVHKUJNYXHPQ__M_PUB_ALL__e8__s20260927
     RDKit          3D

 91 96  0  0  0  0  0  0  0  0999 V2000
    9.9270  -12.6250  -10.8070 C   0  0  0  0  0  0  0  0  0  0  0  0
    9.8270  -13.9930  -10.2130 C   0  0  0  0  0  0  0  0  0  0  0  0
    8.7100  -14.7000   -9.9450 C   0  0  0  0  0  0  0  0  0  0  0  0
    7.3030  -14.2630  -10.2230 C   0  0  0  0  0  0  0  0  0  0  0  0
    8.9050  -16.0540   -9.3320 C   0  0  0  0  0  0  0  0  0  0  0  0
    8.8940  -17.1030   -9.9580 O   0  0  0  0  0  0  0  0  0  0  0  0
    9.1280  -15.9130   -8.0050 O   0  0  0  0  0  0  0  0  0  0  0  0
    9.6760  -17.0500   -7.2860 C   0  0  2  0  0  0  0  0  0  0  0  0
    8.5560  -17.6150   -6.3980 C   0  0  2  0  0  0  0  0  0  0  0  0
    7.3430  -17.9470   -7.1140 O   0  0  0  0  0  0  0  0  0  0  0  0
    6.2070  -17.3930   -6.3830 C   0  0  0  0  0  0  0  0  0  0  0  0
    6.7260  -17.0400   -4.9750 C   0  0  2  0  0  0  0  0  0  0  0  0
    6.6550  -18.3280   -4.1260 C   0  0  0  0  0  0  0  0  0  0  0  0
    6.0480  -15.8830   -4.2070 C   0  0  2  0  0  0  0  0  0  0  0  0
    5.7400  -14.7680   -5.0720 O   0  0  0  0  0  0  0  0  0  0  0  0
    4.5670  -14.1190   -4.8400 C   0  0  0  0  0  0  0  0  0  0  0  0
    4.4490  -12.9350   -5.7510 C   0  0  0  0  0  0  0  0  0  0  0  0
    3.7150  -14.4580   -4.0320 O   0  0  0  0  0  0  0  0  0  0  0  0
    6.9840  -15.3370   -3.0920 C   0  0  0  0  0  0  0  0  0  0  0  0
    8.4330  -14.9820   -3.5480 C   0  0  2  0  0  0  0  0  0  0  0  0
    8.3690  -13.7990   -4.3740 O   0  0  0  0  0  0  0  0  0  0  0  0
    8.2160  -12.6090   -3.7340 C   0  0  0  0  0  0  0  0  0  0  0  0
    9.4800  -12.2570   -3.0140 C   0  0  0  0  0  0  0  0  0  0  0  0
    7.2070  -11.9200   -3.7430 O   0  0  0  0  0  0  0  0  0  0  0  0
    9.1400  -16.1420   -4.3620 C   0  0  1  0  0  0  0  0  0  0  0  0
    9.5150  -17.2510   -3.3550 C   0  0  0  0  0  0  0  0  0  0  0  0
    8.1090  -16.5780   -5.4020 C   0  0  1  0  0  0  0  0  0  0  0  0
   10.4010  -15.6230   -5.2160 C   0  0  1  0  0  0  0  0  0  0  0  0
   11.5710  -15.1250   -4.2930 C   0  0  0  0  0  0  0  0  0  0  0  0
   12.6850  -14.4080   -5.0500 C   0  0  0  0  0  0  0  0  0  0  0  0
   12.1150  -13.6250   -6.0880 O   0  0  0  0  0  0  0  0  0  0  0  0
   11.9900  -14.2830   -7.3450 C   0  0  1  0  0  0  0  0  0  0  0  0
   13.2340  -13.9740   -8.1740 C   0  0  0  0  0  0  0  0  0  0  0  0
   13.4410  -15.1950   -9.0630 C   0  0  1  0  0  0  0  0  0  0  0  0
   14.8820  -15.4960   -9.3050 C   0  0  0  0  0  0  0  0  0  0  0  0
   15.5120  -15.7020  -10.4620 C   0  0  0  0  0  0  0  0  0  0  0  0
   16.9400  -15.9840  -10.2470 C   0  0  0  0  0  0  0  0  0  0  0  0
   17.1000  -15.9250   -8.8330 O   0  0  0  0  0  0  0  0  0  0  0  0
   15.9000  -15.6400   -8.2530 C   0  0  0  0  0  0  0  0  0  0  0  0
   15.7170  -15.5240   -7.0540 O   0  0  0  0  0  0  0  0  0  0  0  0
   12.6740  -16.2890   -8.3490 C   0  0  0  0  0  0  0  0  0  0  0  0
   12.8010  -17.6800   -8.8880 C   0  0  0  0  0  0  0  0  0  0  0  0
   11.8870  -15.8030   -7.3590 C   0  0  0  0  0  0  0  0  0  0  0  0
   10.9060  -16.5620   -6.4220 C   0  0  2  0  0  0  0  0  0  0  0  0
   11.6600  -17.7850   -5.8380 C   0  0  0  0  0  0  0  0  0  0  0  0
    9.9816  -11.8784  -10.0010 H   0  0  0  0  0  0  0  0  0  0  0  0
   10.8323  -12.5604  -11.4286 H   0  0  0  0  0  0  0  0  0  0  0  0
    9.0408  -12.4295  -11.4286 H   0  0  0  0  0  0  0  0  0  0  0  0
   10.7801  -14.4826   -9.9642 H   0  0  0  0  0  0  0  0  0  0  0  0
    6.7753  -14.0991   -9.2719 H   0  0  0  0  0  0  0  0  0  0  0  0
    7.3171  -13.3269  -10.8005 H   0  0  0  0  0  0  0  0  0  0  0  0
    6.7843  -15.0424  -10.8005 H   0  0  0  0  0  0  0  0  0  0  0  0
   10.0316  -17.8355   -7.9691 H   0  0  0  0  0  0  0  0  0  0  0  0
    8.9990  -18.5166   -5.9498 H   0  0  0  0  0  0  0  0  0  0  0  0
    5.8333  -16.4901   -6.8881 H   0  0  0  0  0  0  0  0  0  0  0  0
    5.3759  -18.1119   -6.3331 H   0  0  0  0  0  0  0  0  0  0  0  0
    6.6695  -18.0645   -3.0581 H   0  0  0  0  0  0  0  0  0  0  0  0
    5.7257  -18.8690   -4.3576 H   0  0  0  0  0  0  0  0  0  0  0  0
    7.5192  -18.9679   -4.3576 H   0  0  0  0  0  0  0  0  0  0  0  0
    5.1230  -16.3015   -3.7837 H   0  0  0  0  0  0  0  0  0  0  0  0
    4.3576  -12.0179   -5.1504 H   0  0  0  0  0  0  0  0  0  0  0  0
    5.3451  -12.8699   -6.3856 H   0  0  0  0  0  0  0  0  0  0  0  0
    3.5577  -13.0480   -6.3856 H   0  0  0  0  0  0  0  0  0  0  0  0
    6.5253  -14.4260   -2.6800 H   0  0  0  0  0  0  0  0  0  0  0  0
    7.0881  -16.1505   -2.3589 H   0  0  0  0  0  0  0  0  0  0  0  0
    9.0348  -14.8210   -2.6414 H   0  0  0  0  0  0  0  0  0  0  0  0
    9.3090  -12.3046   -1.9284 H   0  0  0  0  0  0  0  0  0  0  0  0
   10.2709  -12.9691   -3.2922 H   0  0  0  0  0  0  0  0  0  0  0  0
    9.7890  -11.2386   -3.2922 H   0  0  0  0  0  0  0  0  0  0  0  0
    9.3874  -16.8737   -2.3297 H   0  0  0  0  0  0  0  0  0  0  0  0
    8.8615  -18.1224   -3.5090 H   0  0  0  0  0  0  0  0  0  0  0  0
   10.5632  -17.5470   -3.5090 H   0  0  0  0  0  0  0  0  0  0  0  0
    8.0214  -15.5686   -5.8303 H   0  0  0  0  0  0  0  0  0  0  0  0
    9.9968  -14.7561   -5.7592 H   0  0  0  0  0  0  0  0  0  0  0  0
   11.1546  -14.4310   -3.5480 H   0  0  0  0  0  0  0  0  0  0  0  0
   12.0184  -16.0172   -3.8306 H   0  0  0  0  0  0  0  0  0  0  0  0
   13.2388  -13.7556   -4.3588 H   0  0  0  0  0  0  0  0  0  0  0  0
   13.3744  -15.1485   -5.4817 H   0  0  0  0  0  0  0  0  0  0  0  0
   11.0310  -13.9003   -7.7243 H   0  0  0  0  0  0  0  0  0  0  0  0
   13.0747  -13.0744   -8.7866 H   0  0  0  0  0  0  0  0  0  0  0  0
   14.1103  -13.7767   -7.5391 H   0  0  0  0  0  0  0  0  0  0  0  0
   13.0688  -15.0537  -10.0884 H   0  0  0  0  0  0  0  0  0  0  0  0
   15.0272  -15.6658  -11.4488 H   0  0  0  0  0  0  0  0  0  0  0  0
   17.2019  -16.9822  -10.6277 H   0  0  0  0  0  0  0  0  0  0  0  0
   17.5933  -15.2734  -10.7744 H   0  0  0  0  0  0  0  0  0  0  0  0
   12.8660  -18.3925   -8.0524 H   0  0  0  0  0  0  0  0  0  0  0  0
   11.9207  -17.9164   -9.5038 H   0  0  0  0  0  0  0  0  0  0  0  0
   13.7096  -17.7531   -9.5038 H   0  0  0  0  0  0  0  0  0  0  0  0
   11.6333  -17.7417   -4.7392 H   0  0  0  0  0  0  0  0  0  0  0  0
   11.1762  -18.7117   -6.1803 H   0  0  0  0  0  0  0  0  0  0  0  0
   12.7053  -17.7690   -6.1803 H   0  0  0  0  0  0  0  0  0  0  0  0
  1  2  1  0
  2  3  2  0
  3  4  1  0
  3  5  1  0
  5  6  2  0
  5  7  1  0
  7  8  1  0
  8  9  1  0
  9 10  1  0
 10 11  1  0
 11 12  1  0
 12 13  1  1
 12 14  1  0
 14 15  1  0
 15 16  1  0
 16 17  1  0
 16 18  2  0
 14 19  1  0
 19 20  1  0
 20 21  1  0
 21 22  1  0
 22 23  1  0
 22 24  2  0
 20 25  1  0
 25 26  1  1
 25 27  1  0
 25 28  1  0
 28 29  1  0
 29 30  1  0
 30 31  1  0
 31 32  1  0
 32 33  1  0
 33 34  1  0
 34 35  1  0
 35 36  2  0
 36 37  1  0
 37 38  1  0
 38 39  1  0
 39 40  2  0
 34 41  1  0
 41 42  1  0
 41 43  2  0
 43 44  1  0
 44 45  1  1
 44  8  1  0
 27  9  1  0
 44 28  1  0
 27 12  1  0
 43 32  1  0
 39 35  1  0
  1 46  1  0
  1 47  1  0
  1 48  1  0
  2 49  1  0
  4 50  1  0
  4 51  1  0
  4 52  1  0
  8 53  1  6
  9 54  1  1
 11 55  1  0
 11 56  1  0
 13 57  1  0
 13 58  1  0
 13 59  1  0
 14 60  1  1
 17 61  1  0
 17 62  1  0
 17 63  1  0
 19 64  1  0
 19 65  1  0
 20 66  1  1
 23 67  1  0
 23 68  1  0
 23 69  1  0
 26 70  1  0
 26 71  1  0
 26 72  1  0
 27 73  1  6
 28 74  1  6
 29 75  1  0
 29 76  1  0
 30 77  1  0
 30 78  1  0
 32 79  1  6
 33 80  1  0
 33 81  1  0
 34 82  1  6
 36 83  1  0
 37 84  1  0
 37 85  1  0
 42 86  1  0
 42 87  1  0
 42 88  1  0
 45 89  1  0
 45 90  1  0
 45 91  1  0
M  END
>  <meeko>  (3) 
{"is_sidechain": [false], "free_energy": -6.298, "intermolecular_energy": -10.794, "internal_energy": -1.394}

$$$$
LIB_RSCVHKUJNYXHPQ__M_PUB_ALL__e8__s20260927
     RDKit          3D

 91 96  0  0  0  0  0  0  0  0999 V2000
    7.4570   -8.5090    0.9660 C   0  0  0  0  0  0  0  0  0  0  0  0
    6.6340   -9.7330    1.2090 C   0  0  0  0  0  0  0  0  0  0  0  0
    6.7520  -10.9410    0.6210 C   0  0  0  0  0  0  0  0  0  0  0  0
    7.7790  -11.3260   -0.4030 C   0  0  0  0  0  0  0  0  0  0  0  0
    5.7760  -11.9940    1.0510 C   0  0  0  0  0  0  0  0  0  0  0  0
    5.4770  -12.2250    2.2130 O   0  0  0  0  0  0  0  0  0  0  0  0
    5.2700  -12.6050   -0.0450 O   0  0  0  0  0  0  0  0  0  0  0  0
    4.7790  -13.9640    0.1040 C   0  0  2  0  0  0  0  0  0  0  0  0
    5.9160  -14.9110   -0.3120 C   0  0  2  0  0  0  0  0  0  0  0  0
    7.1590  -14.6920    0.3950 O   0  0  0  0  0  0  0  0  0  0  0  0
    8.2460  -14.6570   -0.5780 C   0  0  0  0  0  0  0  0  0  0  0  0
    7.6830  -15.2550   -1.8820 C   0  0  2  0  0  0  0  0  0  0  0  0
    7.8160  -16.7890   -1.7760 C   0  0  0  0  0  0  0  0  0  0  0  0
    8.2780  -14.7810   -3.2280 C   0  0  2  0  0  0  0  0  0  0  0  0
    8.5320  -13.3600   -3.2350 O   0  0  0  0  0  0  0  0  0  0  0  0
    9.8310  -12.9710   -3.3490 C   0  0  0  0  0  0  0  0  0  0  0  0
   10.7030  -14.1660   -3.5900 C   0  0  0  0  0  0  0  0  0  0  0  0
   10.2360  -11.8190   -3.2950 O   0  0  0  0  0  0  0  0  0  0  0  0
    7.2910  -15.0640   -4.3960 C   0  0  0  0  0  0  0  0  0  0  0  0
    5.8310  -14.5590   -4.1780 C   0  0  2  0  0  0  0  0  0  0  0  0
    5.8390  -13.1160   -4.2460 O   0  0  0  0  0  0  0  0  0  0  0  0
    5.3430  -12.5500   -5.3780 C   0  0  0  0  0  0  0  0  0  0  0  0
    4.4200  -11.4270   -5.0190 C   0  0  0  0  0  0  0  0  0  0  0  0
    5.6080  -12.8920   -6.5210 O   0  0  0  0  0  0  0  0  0  0  0  0
    5.2090  -15.0080   -2.7920 C   0  0  1  0  0  0  0  0  0  0  0  0
    4.8850  -16.5140   -2.8980 C   0  0  0  0  0  0  0  0  0  0  0  0
    6.2820  -14.6800   -1.7550 C   0  0  1  0  0  0  0  0  0  0  0  0
    3.9350  -14.1230   -2.3680 C   0  0  1  0  0  0  0  0  0  0  0  0
    2.7130  -14.3050   -3.3480 C   0  0  0  0  0  0  0  0  0  0  0  0
    1.5970  -13.2840   -3.1440 C   0  0  0  0  0  0  0  0  0  0  0  0
    2.1670  -12.0320   -2.7950 O   0  0  0  0  0  0  0  0  0  0  0  0
    2.3290  -11.8070   -1.3980 C   0  0  1  0  0  0  0  0  0  0  0  0
    1.0770  -11.1050   -0.8780 C   0  0  0  0  0  0  0  0  0  0  0  0
    0.9290  -11.5620    0.5690 C   0  0  1  0  0  0  0  0  0  0  0  0
   -0.4960  -11.7050    0.9860 C   0  0  0  0  0  0  0  0  0  0  0  0
   -1.3130  -12.7480    0.8320 C   0  0  0  0  0  0  0  0  0  0  0  0
   -2.6490  -12.4620    1.3780 C   0  0  0  0  0  0  0  0  0  0  0  0
   -2.5470  -11.1330    1.8780 O   0  0  0  0  0  0  0  0  0  0  0  0
   -1.2860  -10.6620    1.6580 C   0  0  0  0  0  0  0  0  0  0  0  0
   -0.8920   -9.5540    1.9750 O   0  0  0  0  0  0  0  0  0  0  0  0
    1.7390  -12.8400    0.6230 C   0  0  0  0  0  0  0  0  0  0  0  0
    1.6770  -13.6390    1.8880 C   0  0  0  0  0  0  0  0  0  0  0  0
    2.4980  -13.0150   -0.4850 C   0  0  0  0  0  0  0  0  0  0  0  0
    3.5070  -14.1500   -0.8160 C   0  0  2  0  0  0  0  0  0  0  0  0
    2.8190  -15.5030   -0.4980 C   0  0  0  0  0  0  0  0  0  0  0  0
    7.7529   -8.0689    1.9297 H   0  0  0  0  0  0  0  0  0  0  0  0
    8.3572   -8.7799    0.3947 H   0  0  0  0  0  0  0  0  0  0  0  0
    6.8665   -7.7776    0.3947 H   0  0  0  0  0  0  0  0  0  0  0  0
    5.8348   -9.6367    1.9587 H   0  0  0  0  0  0  0  0  0  0  0  0
    8.6927  -11.6685    0.1048 H   0  0  0  0  0  0  0  0  0  0  0  0
    7.3833  -12.1369   -1.0323 H   0  0  0  0  0  0  0  0  0  0  0  0
    8.0139  -10.4549   -1.0323 H   0  0  0  0  0  0  0  0  0  0  0  0
    4.4827  -14.1829    1.1405 H   0  0  0  0  0  0  0  0  0  0  0  0
    5.5210  -15.9146   -0.0957 H   0  0  0  0  0  0  0  0  0  0  0  0
    8.5734  -13.6203   -0.7453 H   0  0  0  0  0  0  0  0  0  0  0  0
    9.1176  -15.2260   -0.2224 H   0  0  0  0  0  0  0  0  0  0  0  0
    7.8414  -17.0825   -0.7162 H   0  0  0  0  0  0  0  0  0  0  0  0
    6.9559  -17.2665   -2.2681 H   0  0  0  0  0  0  0  0  0  0  0  0
    8.7455  -17.1113   -2.2681 H   0  0  0  0  0  0  0  0  0  0  0  0
    9.2199  -15.3346   -3.3560 H   0  0  0  0  0  0  0  0  0  0  0  0
   11.0146  -14.5930   -2.6254 H   0  0  0  0  0  0  0  0  0  0  0  0
   10.1417  -14.9204   -4.1608 H   0  0  0  0  0  0  0  0  0  0  0  0
   11.5927  -13.8616   -4.1608 H   0  0  0  0  0  0  0  0  0  0  0  0
    7.6867  -14.5774   -5.2997 H   0  0  0  0  0  0  0  0  0  0  0  0
    7.2233  -16.1590   -4.4760 H   0  0  0  0  0  0  0  0  0  0  0  0
    5.2045  -15.0063   -4.9637 H   0  0  0  0  0  0  0  0  0  0  0  0
    4.3519  -11.3441   -3.9242 H   0  0  0  0  0  0  0  0  0  0  0  0
    4.8089  -10.4857   -5.4345 H   0  0  0  0  0  0  0  0  0  0  0  0
    3.4212  -11.6262   -5.4345 H   0  0  0  0  0  0  0  0  0  0  0  0
    4.7931  -16.9412   -1.8885 H   0  0  0  0  0  0  0  0  0  0  0  0
    3.9375  -16.6479   -3.4405 H   0  0  0  0  0  0  0  0  0  0  0  0
    5.6936  -17.0257   -3.4405 H   0  0  0  0  0  0  0  0  0  0  0  0
    6.3153  -13.6164   -2.0336 H   0  0  0  0  0  0  0  0  0  0  0  0
    4.3091  -13.0954   -2.4866 H   0  0  0  0  0  0  0  0  0  0  0  0
    3.0810  -14.2137   -4.3806 H   0  0  0  0  0  0  0  0  0  0  0  0
    2.2813  -15.2948   -3.1385 H   0  0  0  0  0  0  0  0  0  0  0  0
    1.0201  -13.1788   -4.0747 H   0  0  0  0  0  0  0  0  0  0  0  0
    0.9291  -13.6230   -2.3384 H   0  0  0  0  0  0  0  0  0  0  0  0
    3.2728  -11.2439   -1.3510 H   0  0  0  0  0  0  0  0  0  0  0  0
    1.1999  -10.0129   -0.9262 H   0  0  0  0  0  0  0  0  0  0  0  0
    0.1893  -11.3530   -1.4785 H   0  0  0  0  0  0  0  0  0  0  0  0
    1.3005  -10.8262    1.2974 H   0  0  0  0  0  0  0  0  0  0  0  0
   -1.0254  -13.6983    0.3584 H   0  0  0  0  0  0  0  0  0  0  0  0
   -3.4137  -12.5242    0.5897 H   0  0  0  0  0  0  0  0  0  0  0  0
   -2.9488  -13.1814    2.1542 H   0  0  0  0  0  0  0  0  0  0  0  0
    1.7296  -12.9612    2.7528 H   0  0  0  0  0  0  0  0  0  0  0  0
    0.7325  -14.2019    1.9202 H   0  0  0  0  0  0  0  0  0  0  0  0
    2.5234  -14.3409    1.9202 H   0  0  0  0  0  0  0  0  0  0  0  0
    2.7527  -15.6333    0.5922 H   0  0  0  0  0  0  0  0  0  0  0  0
    1.8076  -15.5106   -0.9303 H   0  0  0  0  0  0  0  0  0  0  0  0
    3.4087  -16.3248   -0.9303 H   0  0  0  0  0  0  0  0  0  0  0  0
  1  2  1  0
  2  3  2  0
  3  4  1  0
  3  5  1  0
  5  6  2  0
  5  7  1  0
  7  8  1  0
  8  9  1  0
  9 10  1  0
 10 11  1  0
 11 12  1  0
 12 13  1  1
 12 14  1  0
 14 15  1  0
 15 16  1  0
 16 17  1  0
 16 18  2  0
 14 19  1  0
 19 20  1  0
 20 21  1  0
 21 22  1  0
 22 23  1  0
 22 24  2  0
 20 25  1  0
 25 26  1  6
 25 27  1  0
 25 28  1  0
 28 29  1  0
 29 30  1  0
 30 31  1  0
 31 32  1  0
 32 33  1  0
 33 34  1  0
 34 35  1  0
 35 36  2  0
 36 37  1  0
 37 38  1  0
 38 39  1  0
 39 40  2  0
 34 41  1  0
 41 42  1  0
 41 43  2  0
 43 44  1  0
 44 45  1  1
 44  8  1  0
 27  9  1  0
 44 28  1  0
 27 12  1  0
 43 32  1  0
 39 35  1  0
  1 46  1  0
  1 47  1  0
  1 48  1  0
  2 49  1  0
  4 50  1  0
  4 51  1  0
  4 52  1  0
  8 53  1  1
  9 54  1  6
 11 55  1  0
 11 56  1  0
 13 57  1  0
 13 58  1  0
 13 59  1  0
 14 60  1  6
 17 61  1  0
 17 62  1  0
 17 63  1  0
 19 64  1  0
 19 65  1  0
 20 66  1  6
 23 67  1  0
 23 68  1  0
 23 69  1  0
 26 70  1  0
 26 71  1  0
 26 72  1  0
 27 73  1  1
 28 74  1  6
 29 75  1  0
 29 76  1  0
 30 77  1  0
 30 78  1  0
 32 79  1  6
 33 80  1  0
 33 81  1  0
 34 82  1  1
 36 83  1  0
 37 84  1  0
 37 85  1  0
 42 86  1  0
 42 87  1  0
 42 88  1  0
 45 89  1  0
 45 90  1  0
 45 91  1  0
M  END
>  <meeko>  (4) 
{"is_sidechain": [false], "free_energy": -6.259, "intermolecular_energy": -11.422, "internal_energy": -0.7}

$$$$
LIB_RSCVHKUJNYXHPQ__M_PUB_ALL__e8__s20260927
     RDKit          3D

 91 96  0  0  0  0  0  0  0  0999 V2000
    0.4840  -14.5030   -5.1580 C   0  0  0  0  0  0  0  0  0  0  0  0
    1.1070  -13.7390   -4.0350 C   0  0  0  0  0  0  0  0  0  0  0  0
    2.3640  -13.2560   -3.9580 C   0  0  0  0  0  0  0  0  0  0  0  0
    3.4140  -13.3600   -5.0250 C   0  0  0  0  0  0  0  0  0  0  0  0
    2.7290  -12.5320   -2.6980 C   0  0  0  0  0  0  0  0  0  0  0  0
    2.2270  -11.4780   -2.3370 O   0  0  0  0  0  0  0  0  0  0  0  0
    3.6600  -13.2500   -2.0280 O   0  0  0  0  0  0  0  0  0  0  0  0
    3.8290  -12.9820   -0.6100 C   0  0  2  0  0  0  0  0  0  0  0  0
    5.2920  -12.5670   -0.3920 C   0  0  2  0  0  0  0  0  0  0  0  0
    5.7240  -11.4610   -1.2180 O   0  0  0  0  0  0  0  0  0  0  0  0
    7.0090  -11.8040   -1.8190 C   0  0  0  0  0  0  0  0  0  0  0  0
    7.5530  -13.0080   -1.0250 C   0  0  2  0  0  0  0  0  0  0  0  0
    8.2750  -12.4470    0.2190 C   0  0  0  0  0  0  0  0  0  0  0  0
    8.4820  -14.0090   -1.7480 C   0  0  2  0  0  0  0  0  0  0  0  0
    8.0400  -14.2810   -3.0950 O   0  0  0  0  0  0  0  0  0  0  0  0
    8.9710  -14.1630   -4.0810 C   0  0  0  0  0  0  0  0  0  0  0  0
    9.0540  -15.4400   -4.8610 C   0  0  0  0  0  0  0  0  0  0  0  0
    9.6280  -13.1610   -4.3220 O   0  0  0  0  0  0  0  0  0  0  0  0
    8.5070  -15.3740   -1.0040 C   0  0  0  0  0  0  0  0  0  0  0  0
    7.1100  -15.9860   -0.6770 C   0  0  2  0  0  0  0  0  0  0  0  0
    6.5100  -16.4270   -1.9150 O   0  0  0  0  0  0  0  0  0  0  0  0
    6.8220  -17.6800   -2.3390 C   0  0  0  0  0  0  0  0  0  0  0  0
    6.3420  -18.6850   -1.3380 C   0  0  0  0  0  0  0  0  0  0  0  0
    7.4000  -17.9590   -3.3780 O   0  0  0  0  0  0  0  0  0  0  0  0
    6.1290  -14.9700    0.0390 C   0  0  1  0  0  0  0  0  0  0  0  0
    6.6180  -14.8040    1.4940 C   0  0  0  0  0  0  0  0  0  0  0  0
    6.2150  -13.6890   -0.7890 C   0  0  1  0  0  0  0  0  0  0  0  0
    4.5880  -15.4240   -0.0540 C   0  0  1  0  0  0  0  0  0  0  0  0
    4.3140  -16.7370    0.7250 C   0  0  0  0  0  0  0  0  0  0  0  0
    2.9420  -17.3510    0.4600 C   0  0  0  0  0  0  0  0  0  0  0  0
    2.5980  -17.1570   -0.9030 O   0  0  0  0  0  0  0  0  0  0  0  0
    1.8850  -15.9570   -1.1840 C   0  0  1  0  0  0  0  0  0  0  0  0
    0.3900  -16.2650   -1.1340 C   0  0  0  0  0  0  0  0  0  0  0  0
   -0.2740  -14.9730   -0.6710 C   0  0  1  0  0  0  0  0  0  0  0  0
   -1.4670  -15.2140    0.1920 C   0  0  0  0  0  0  0  0  0  0  0  0
   -1.6100  -16.0730    1.2020 C   0  0  0  0  0  0  0  0  0  0  0  0
   -2.9630  -15.9970    1.7750 C   0  0  0  0  0  0  0  0  0  0  0  0
   -3.6180  -14.9980    1.0000 O   0  0  0  0  0  0  0  0  0  0  0  0
   -2.7570  -14.5200    0.0580 C   0  0  0  0  0  0  0  0  0  0  0  0
   -3.0270  -13.6550   -0.7570 O   0  0  0  0  0  0  0  0  0  0  0  0
    0.8530  -14.2140   -0.0010 C   0  0  0  0  0  0  0  0  0  0  0  0
    0.4980  -12.9450    0.7090 C   0  0  0  0  0  0  0  0  0  0  0  0
    2.0630  -14.7720   -0.2440 C   0  0  0  0  0  0  0  0  0  0  0  0
    3.4730  -14.2910    0.2020 C   0  0  2  0  0  0  0  0  0  0  0  0
    3.4070  -13.9710    1.7180 C   0  0  0  0  0  0  0  0  0  0  0  0
   -0.1614  -15.2945   -4.7494 H   0  0  0  0  0  0  0  0  0  0  0  0
   -0.1187  -13.8209   -5.7756 H   0  0  0  0  0  0  0  0  0  0  0  0
    1.2735  -14.9561   -5.7756 H   0  0  0  0  0  0  0  0  0  0  0  0
    0.4618  -13.5471   -3.1650 H   0  0  0  0  0  0  0  0  0  0  0  0
    4.4044  -13.4581   -4.5565 H   0  0  0  0  0  0  0  0  0  0  0  0
    3.2151  -14.2428   -5.6503 H   0  0  0  0  0  0  0  0  0  0  0  0
    3.3922  -12.4553   -5.6503 H   0  0  0  0  0  0  0  0  0  0  0  0
    3.1659  -12.1762   -0.2621 H   0  0  0  0  0  0  0  0  0  0  0  0
    5.3365  -12.2940    0.6726 H   0  0  0  0  0  0  0  0  0  0  0  0
    6.8742  -12.0752   -2.8765 H   0  0  0  0  0  0  0  0  0  0  0  0
    7.7062  -10.9540   -1.7821 H   0  0  0  0  0  0  0  0  0  0  0  0
    7.7866  -12.8265    1.1286 H   0  0  0  0  0  0  0  0  0  0  0  0
    9.3275  -12.7666    0.2073 H   0  0  0  0  0  0  0  0  0  0  0  0
    8.2253  -11.3482    0.2073 H   0  0  0  0  0  0  0  0  0  0  0  0
    9.4776  -13.5415   -1.7628 H   0  0  0  0  0  0  0  0  0  0  0  0
    9.1093  -16.2911   -4.1663 H   0  0  0  0  0  0  0  0  0  0  0  0
    8.1605  -15.5414   -5.4946 H   0  0  0  0  0  0  0  0  0  0  0  0
    9.9531  -15.4249   -5.4946 H   0  0  0  0  0  0  0  0  0  0  0  0
    9.0531  -16.0927   -1.6326 H   0  0  0  0  0  0  0  0  0  0  0  0
    8.9866  -15.1802   -0.0332 H   0  0  0  0  0  0  0  0  0  0  0  0
    7.2690  -16.8182    0.0246 H   0  0  0  0  0  0  0  0  0  0  0  0
    6.5232  -18.3055   -0.3216 H   0  0  0  0  0  0  0  0  0  0  0  0
    5.2646  -18.8568   -1.4786 H   0  0  0  0  0  0  0  0  0  0  0  0
    6.8855  -19.6309   -1.4786 H   0  0  0  0  0  0  0  0  0  0  0  0
    5.8086  -15.0788    2.1864 H   0  0  0  0  0  0  0  0  0  0  0  0
    7.4856  -15.4580    1.6661 H   0  0  0  0  0  0  0  0  0  0  0  0
    6.9082  -13.7570    1.6661 H   0  0  0  0  0  0  0  0  0  0  0  0
    5.9133  -14.1954   -1.7177 H   0  0  0  0  0  0  0  0  0  0  0  0
    4.4561  -15.6317   -1.1261 H   0  0  0  0  0  0  0  0  0  0  0  0
    5.0811  -17.4724    0.4408 H   0  0  0  0  0  0  0  0  0  0  0  0
    4.3425  -16.4802    1.7942 H   0  0  0  0  0  0  0  0  0  0  0  0
    2.9721  -18.4280    0.6819 H   0  0  0  0  0  0  0  0  0  0  0  0
    2.1912  -16.8678    1.1025 H   0  0  0  0  0  0  0  0  0  0  0  0
    2.2995  -15.6514   -2.1560 H   0  0  0  0  0  0  0  0  0  0  0  0
    0.0224  -16.5510   -2.1305 H   0  0  0  0  0  0  0  0  0  0  0  0
    0.1675  -17.1043   -0.4586 H   0  0  0  0  0  0  0  0  0  0  0  0
   -0.7105  -14.3893   -1.4949 H   0  0  0  0  0  0  0  0  0  0  0  0
   -0.8200  -16.7496    1.5598 H   0  0  0  0  0  0  0  0  0  0  0  0
   -3.4802  -16.9634    1.6823 H   0  0  0  0  0  0  0  0  0  0  0  0
   -2.9518  -15.7560    2.8482 H   0  0  0  0  0  0  0  0  0  0  0  0
    0.5436  -13.1079    1.7959 H   0  0  0  0  0  0  0  0  0  0  0  0
    1.2097  -12.1553    0.4264 H   0  0  0  0  0  0  0  0  0  0  0  0
   -0.5202  -12.6392    0.4264 H   0  0  0  0  0  0  0  0  0  0  0  0
    3.5962  -14.8883    2.2949 H   0  0  0  0  0  0  0  0  0  0  0  0
    4.1686  -13.2175    1.9672 H   0  0  0  0  0  0  0  0  0  0  0  0
    2.4094  -13.5803    1.9672 H   0  0  0  0  0  0  0  0  0  0  0  0
  1  2  1  0
  2  3  2  0
  3  4  1  0
  3  5  1  0
  5  6  2  0
  5  7  1  0
  7  8  1  0
  8  9  1  0
  9 10  1  0
 10 11  1  0
 11 12  1  0
 12 13  1  1
 12 14  1  0
 14 15  1  0
 15 16  1  0
 16 17  1  0
 16 18  2  0
 14 19  1  0
 19 20  1  0
 20 21  1  0
 21 22  1  0
 22 23  1  0
 22 24  2  0
 20 25  1  0
 25 26  1  1
 25 27  1  0
 25 28  1  0
 28 29  1  0
 29 30  1  0
 30 31  1  0
 31 32  1  0
 32 33  1  0
 33 34  1  0
 34 35  1  0
 35 36  2  0
 36 37  1  0
 37 38  1  0
 38 39  1  0
 39 40  2  0
 34 41  1  0
 41 42  1  0
 41 43  2  0
 43 44  1  0
 44 45  1  1
 44  8  1  0
 27  9  1  0
 44 28  1  0
 27 12  1  0
 43 32  1  0
 39 35  1  0
  1 46  1  0
  1 47  1  0
  1 48  1  0
  2 49  1  0
  4 50  1  0
  4 51  1  0
  4 52  1  0
  8 53  1  1
  9 54  1  1
 11 55  1  0
 11 56  1  0
 13 57  1  0
 13 58  1  0
 13 59  1  0
 14 60  1  6
 17 61  1  0
 17 62  1  0
 17 63  1  0
 19 64  1  0
 19 65  1  0
 20 66  1  1
 23 67  1  0
 23 68  1  0
 23 69  1  0
 26 70  1  0
 26 71  1  0
 26 72  1  0
 27 73  1  6
 28 74  1  6
 29 75  1  0
 29 76  1  0
 30 77  1  0
 30 78  1  0
 32 79  1  6
 33 80  1  0
 33 81  1  0
 34 82  1  6
 36 83  1  0
 37 84  1  0
 37 85  1  0
 42 86  1  0
 42 87  1  0
 42 88  1  0
 45 89  1  0
 45 90  1  0
 45 91  1  0
M  END
>  <meeko>  (5) 
{"is_sidechain": [false], "free_energy": -6.252, "intermolecular_energy": -10.603, "internal_energy": -1.506}

$$$$
LIB_RSCVHKUJNYXHPQ__M_PUB_ALL__e8__s20260927
     RDKit          3D

 91 96  0  0  0  0  0  0  0  0999 V2000
   11.6660  -12.3570   -1.0750 C   0  0  0  0  0  0  0  0  0  0  0  0
   11.6000  -12.5740   -2.5520 C   0  0  0  0  0  0  0  0  0  0  0  0
   11.9210  -13.6870   -3.2420 C   0  0  0  0  0  0  0  0  0  0  0  0
   12.3940  -14.9820   -2.6510 C   0  0  0  0  0  0  0  0  0  0  0  0
   11.7670  -13.6210   -4.7310 C   0  0  0  0  0  0  0  0  0  0  0  0
   12.6820  -13.4010   -5.5100 O   0  0  0  0  0  0  0  0  0  0  0  0
   10.4800  -13.8790   -5.0560 O   0  0  0  0  0  0  0  0  0  0  0  0
    9.9540  -15.1960   -4.7420 C   0  0  2  0  0  0  0  0  0  0  0  0
   10.3260  -16.1300   -5.9050 C   0  0  2  0  0  0  0  0  0  0  0  0
   11.7400  -16.1580   -6.2110 O   0  0  0  0  0  0  0  0  0  0  0  0
   11.9040  -16.0170   -7.6540 C   0  0  0  0  0  0  0  0  0  0  0  0
   10.5230  -16.2930   -8.2790 C   0  0  2  0  0  0  0  0  0  0  0  0
   10.3900  -17.8230   -8.4360 C   0  0  0  0  0  0  0  0  0  0  0  0
   10.1690  -15.6090   -9.6190 C   0  0  2  0  0  0  0  0  0  0  0  0
   10.6270  -14.2400   -9.6650 O   0  0  0  0  0  0  0  0  0  0  0  0
   11.0460  -13.7750  -10.8720 C   0  0  0  0  0  0  0  0  0  0  0  0
   10.8820  -12.2870  -10.9310 C   0  0  0  0  0  0  0  0  0  0  0  0
   11.5150  -14.4550  -11.7730 O   0  0  0  0  0  0  0  0  0  0  0  0
    8.6290  -15.5700   -9.8280 C   0  0  0  0  0  0  0  0  0  0  0  0
    7.8030  -15.0030   -8.6320 C   0  0  2  0  0  0  0  0  0  0  0  0
    8.0460  -13.5810   -8.5510 O   0  0  0  0  0  0  0  0  0  0  0  0
    7.0810  -12.7630   -9.0500 C   0  0  0  0  0  0  0  0  0  0  0  0
    7.1710  -12.7290  -10.5440 C   0  0  0  0  0  0  0  0  0  0  0  0
    6.2570  -12.1480   -8.3900 O   0  0  0  0  0  0  0  0  0  0  0  0
    8.1690  -15.6690   -7.2420 C   0  0  1  0  0  0  0  0  0  0  0  0
    7.5680  -17.0920   -7.2400 C   0  0  0  0  0  0  0  0  0  0  0  0
    9.6950  -15.6450   -7.1830 C   0  0  1  0  0  0  0  0  0  0  0  0
    7.6880  -14.7870   -5.9860 C   0  0  1  0  0  0  0  0  0  0  0  0
    6.1240  -14.6950   -5.8920 C   0  0  0  0  0  0  0  0  0  0  0  0
    5.6270  -13.6760   -4.8710 C   0  0  0  0  0  0  0  0  0  0  0  0
    6.4840  -12.5440   -4.8850 O   0  0  0  0  0  0  0  0  0  0  0  0
    7.5760  -12.5990   -3.9710 C   0  0  1  0  0  0  0  0  0  0  0  0
    7.1480  -11.9180   -2.6730 C   0  0  0  0  0  0  0  0  0  0  0  0
    7.9240  -12.6270   -1.5700 C   0  0  1  0  0  0  0  0  0  0  0  0
    7.1490  -12.7420   -0.3000 C   0  0  0  0  0  0  0  0  0  0  0  0
    5.8620  -13.0440   -0.1290 C   0  0  0  0  0  0  0  0  0  0  0  0
    5.4980  -13.0340    1.2960 C   0  0  0  0  0  0  0  0  0  0  0  0
    6.7080  -12.6920    1.9650 O   0  0  0  0  0  0  0  0  0  0  0  0
    7.6980  -12.5130    1.0450 C   0  0  0  0  0  0  0  0  0  0  0  0
    8.8490  -12.2140    1.3110 O   0  0  0  0  0  0  0  0  0  0  0  0
    8.3120  -13.9490   -2.2000 C   0  0  0  0  0  0  0  0  0  0  0  0
    8.9660  -14.9650   -1.3160 C   0  0  0  0  0  0  0  0  0  0  0  0
    8.0870  -13.9670   -3.5350 C   0  0  0  0  0  0  0  0  0  0  0  0
    8.3860  -15.0900   -4.5670 C   0  0  2  0  0  0  0  0  0  0  0  0
    7.8280  -16.4190   -3.9950 C   0  0  0  0  0  0  0  0  0  0  0  0
   11.3839  -13.2845   -0.5552 H   0  0  0  0  0  0  0  0  0  0  0  0
   12.6906  -12.0747   -0.7913 H   0  0  0  0  0  0  0  0  0  0  0  0
   10.9721  -11.5520   -0.7913 H   0  0  0  0  0  0  0  0  0  0  0  0
   11.2461  -11.7210   -3.1497 H   0  0  0  0  0  0  0  0  0  0  0  0
   12.3694  -14.9147   -1.5533 H   0  0  0  0  0  0  0  0  0  0  0  0
   11.7361  -15.7986   -2.9831 H   0  0  0  0  0  0  0  0  0  0  0  0
   13.4233  -15.1823   -2.9831 H   0  0  0  0  0  0  0  0  0  0  0  0
   10.3745  -15.5934   -3.8065 H   0  0  0  0  0  0  0  0  0  0  0  0
    9.9819  -17.1211   -5.5743 H   0  0  0  0  0  0  0  0  0  0  0  0
   12.2364  -14.9980   -7.9011 H   0  0  0  0  0  0  0  0  0  0  0  0
   12.6620  -16.7151   -8.0388 H   0  0  0  0  0  0  0  0  0  0  0  0
   10.3493  -18.2915   -7.4416 H   0  0  0  0  0  0  0  0  0  0  0  0
    9.4682  -18.0561   -8.9891 H   0  0  0  0  0  0  0  0  0  0  0  0
   11.2577  -18.2116   -8.9891 H   0  0  0  0  0  0  0  0  0  0  0  0
   10.6654  -16.2014  -10.4017 H   0  0  0  0  0  0  0  0  0  0  0  0
   10.8374  -11.8822   -9.9092 H   0  0  0  0  0  0  0  0  0  0  0  0
   11.7368  -11.8447  -11.4636 H   0  0  0  0  0  0  0  0  0  0  0  0
    9.9514  -12.0415  -11.4636 H   0  0  0  0  0  0  0  0  0  0  0  0
    8.4223  -14.9449  -10.7092 H   0  0  0  0  0  0  0  0  0  0  0  0
    8.3133  -16.6174   -9.9434 H   0  0  0  0  0  0  0  0  0  0  0  0
    6.7440  -15.2315   -8.8224 H   0  0  0  0  0  0  0  0  0  0  0  0
    8.1612  -12.3549  -10.8433 H   0  0  0  0  0  0  0  0  0  0  0  0
    7.0264  -13.7437  -10.9432 H   0  0  0  0  0  0  0  0  0  0  0  0
    6.3916  -12.0634  -10.9432 H   0  0  0  0  0  0  0  0  0  0  0  0
    7.4259  -17.4285   -6.2024 H   0  0  0  0  0  0  0  0  0  0  0  0
    6.5977  -17.0810   -7.7581 H   0  0  0  0  0  0  0  0  0  0  0  0
    8.2525  -17.7798   -7.7581 H   0  0  0  0  0  0  0  0  0  0  0  0
    9.7447  -14.5534   -7.3095 H   0  0  0  0  0  0  0  0  0  0  0  0
    8.0777  -13.7859   -6.2226 H   0  0  0  0  0  0  0  0  0  0  0  0
    5.7331  -14.4138   -6.8810 H   0  0  0  0  0  0  0  0  0  0  0  0
    5.7645  -15.6807   -5.5617 H   0  0  0  0  0  0  0  0  0  0  0  0
    4.6037  -13.3658   -5.1291 H   0  0  0  0  0  0  0  0  0  0  0  0
    5.6281  -14.1276   -3.8680 H   0  0  0  0  0  0  0  0  0  0  0  0
    8.3911  -12.1256   -4.5380 H   0  0  0  0  0  0  0  0  0  0  0  0
    7.4035  -10.8484   -2.6970 H   0  0  0  0  0  0  0  0  0  0  0  0
    6.0612  -11.9830   -2.5157 H   0  0  0  0  0  0  0  0  0  0  0  0
    8.8125  -12.0699   -1.2380 H   0  0  0  0  0  0  0  0  0  0  0  0
    5.1630  -13.2712   -0.9474 H   0  0  0  0  0  0  0  0  0  0  0  0
    4.7178  -12.2842    1.4938 H   0  0  0  0  0  0  0  0  0  0  0  0
    5.0893  -13.9982    1.6325 H   0  0  0  0  0  0  0  0  0  0  0  0
    8.7947  -14.6989   -0.2625 H   0  0  0  0  0  0  0  0  0  0  0  0
    8.5367  -15.9574   -1.5180 H   0  0  0  0  0  0  0  0  0  0  0  0
   10.0471  -14.9852   -1.5180 H   0  0  0  0  0  0  0  0  0  0  0  0
    7.8442  -16.3805   -2.8958 H   0  0  0  0  0  0  0  0  0  0  0  0
    6.7939  -16.5619   -4.3417 H   0  0  0  0  0  0  0  0  0  0  0  0
    8.4501  -17.2573   -4.3417 H   0  0  0  0  0  0  0  0  0  0  0  0
  1  2  1  0
  2  3  2  0
  3  4  1  0
  3  5  1  0
  5  6  2  0
  5  7  1  0
  7  8  1  0
  8  9  1  0
  9 10  1  0
 10 11  1  0
 11 12  1  0
 12 13  1  6
 12 14  1  0
 14 15  1  0
 15 16  1  0
 16 17  1  0
 16 18  2  0
 14 19  1  0
 19 20  1  0
 20 21  1  0
 21 22  1  0
 22 23  1  0
 22 24  2  0
 20 25  1  0
 25 26  1  1
 25 27  1  0
 25 28  1  0
 28 29  1  0
 29 30  1  0
 30 31  1  0
 31 32  1  0
 32 33  1  0
 33 34  1  0
 34 35  1  0
 35 36  2  0
 36 37  1  0
 37 38  1  0
 38 39  1  0
 39 40  2  0
 34 41  1  0
 41 42  1  0
 41 43  2  0
 43 44  1  0
 44 45  1  1
 44  8  1  0
 27  9  1  0
 44 28  1  0
 27 12  1  0
 43 32  1  0
 39 35  1  0
  1 46  1  0
  1 47  1  0
  1 48  1  0
  2 49  1  0
  4 50  1  0
  4 51  1  0
  4 52  1  0
  8 53  1  1
  9 54  1  1
 11 55  1  0
 11 56  1  0
 13 57  1  0
 13 58  1  0
 13 59  1  0
 14 60  1  6
 17 61  1  0
 17 62  1  0
 17 63  1  0
 19 64  1  0
 19 65  1  0
 20 66  1  6
 23 67  1  0
 23 68  1  0
 23 69  1  0
 26 70  1  0
 26 71  1  0
 26 72  1  0
 27 73  1  6
 28 74  1  6
 29 75  1  0
 29 76  1  0
 30 77  1  0
 30 78  1  0
 32 79  1  6
 33 80  1  0
 33 81  1  0
 34 82  1  1
 36 83  1  0
 37 84  1  0
 37 85  1  0
 42 86  1  0
 42 87  1  0
 42 88  1  0
 45 89  1  0
 45 90  1  0
 45 91  1  0
M  END
>  <meeko>  (6) 
{"is_sidechain": [false], "free_energy": -6.108, "intermolecular_energy": -10.677, "internal_energy": -1.187}

$$$$
LIB_RSCVHKUJNYXHPQ__M_PUB_ALL__e8__s20260927
     RDKit          3D

 91 96  0  0  0  0  0  0  0  0999 V2000
   -1.2910  -15.2060    0.1170 C   0  0  0  0  0  0  0  0  0  0  0  0
   -0.0950  -14.3530   -0.1590 C   0  0  0  0  0  0  0  0  0  0  0  0
    0.6890  -14.3550   -1.2560 C   0  0  0  0  0  0  0  0  0  0  0  0
    0.5000  -15.2140   -2.4720 C   0  0  0  0  0  0  0  0  0  0  0  0
    1.8380  -13.3940   -1.2610 C   0  0  0  0  0  0  0  0  0  0  0  0
    1.7230  -12.1790   -1.1920 O   0  0  0  0  0  0  0  0  0  0  0  0
    2.9980  -14.0890   -1.3160 O   0  0  0  0  0  0  0  0  0  0  0  0
    3.9940  -13.8240   -0.2930 C   0  0  2  0  0  0  0  0  0  0  0  0
    5.0860  -12.9480   -0.9290 C   0  0  2  0  0  0  0  0  0  0  0  0
    4.5890  -11.7360   -1.5440 O   0  0  0  0  0  0  0  0  0  0  0  0
    5.1870  -11.6090   -2.8680 C   0  0  0  0  0  0  0  0  0  0  0  0
    6.3800  -12.5840   -2.9030 C   0  0  2  0  0  0  0  0  0  0  0  0
    7.5880  -11.8520   -2.2790 C   0  0  0  0  0  0  0  0  0  0  0  0
    6.7970  -13.1930   -4.2620 C   0  0  2  0  0  0  0  0  0  0  0  0
    5.6530  -13.5550   -5.0650 O   0  0  0  0  0  0  0  0  0  0  0  0
    5.6680  -13.1560   -6.3660 C   0  0  0  0  0  0  0  0  0  0  0  0
    4.6070  -12.1230   -6.5950 C   0  0  0  0  0  0  0  0  0  0  0  0
    6.4450  -13.5520   -7.2220 O   0  0  0  0  0  0  0  0  0  0  0  0
    7.6250  -14.4920   -4.0530 C   0  0  0  0  0  0  0  0  0  0  0  0
    6.9870  -15.5480   -3.0980 C   0  0  2  0  0  0  0  0  0  0  0  0
    5.8430  -16.1250   -3.7630 O   0  0  0  0  0  0  0  0  0  0  0  0
    6.0580  -17.2530   -4.4920 C   0  0  0  0  0  0  0  0  0  0  0  0
    5.8870  -16.9530   -5.9490 C   0  0  0  0  0  0  0  0  0  0  0  0
    6.3520  -18.3490   -4.0390 O   0  0  0  0  0  0  0  0  0  0  0  0
    6.5250  -14.9430   -1.7090 C   0  0  1  0  0  0  0  0  0  0  0  0
    7.7980  -14.6670   -0.8790 C   0  0  0  0  0  0  0  0  0  0  0  0
    5.7410  -13.6820   -2.0700 C   0  0  1  0  0  0  0  0  0  0  0  0
    5.4710  -15.8850   -0.9400 C   0  0  1  0  0  0  0  0  0  0  0  0
    6.0970  -17.2560   -0.5100 C   0  0  0  0  0  0  0  0  0  0  0  0
    5.0750  -18.2780   -0.0200 C   0  0  0  0  0  0  0  0  0  0  0  0
    3.8860  -18.1520   -0.7860 O   0  0  0  0  0  0  0  0  0  0  0  0
    2.9150  -17.2540   -0.2560 C   0  0  1  0  0  0  0  0  0  0  0  0
    1.9570  -18.0500    0.6260 C   0  0  0  0  0  0  0  0  0  0  0  0
    1.4950  -17.0760    1.7030 C   0  0  1  0  0  0  0  0  0  0  0  0
    1.2750  -17.7350    3.0230 C   0  0  0  0  0  0  0  0  0  0  0  0
    2.0820  -18.5590    3.6930 C   0  0  0  0  0  0  0  0  0  0  0  0
    1.4670  -18.9950    4.9570 C   0  0  0  0  0  0  0  0  0  0  0  0
    0.2010  -18.3420    4.9750 O   0  0  0  0  0  0  0  0  0  0  0  0
    0.0620  -17.5930    3.8440 C   0  0  0  0  0  0  0  0  0  0  0  0
   -0.9150  -16.9180    3.5720 O   0  0  0  0  0  0  0  0  0  0  0  0
    2.5660  -16.0050    1.6980 C   0  0  0  0  0  0  0  0  0  0  0  0
    2.4930  -14.9560    2.7640 C   0  0  0  0  0  0  0  0  0  0  0  0
    3.3940  -16.1120    0.6310 C   0  0  0  0  0  0  0  0  0  0  0  0
    4.5820  -15.2010    0.2140 C   0  0  2  0  0  0  0  0  0  0  0  0
    5.4640  -14.9680    1.4690 C   0  0  0  0  0  0  0  0  0  0  0  0
   -1.4285  -15.3041    1.2040 H   0  0  0  0  0  0  0  0  0  0  0  0
   -2.1839  -14.7396   -0.3249 H   0  0  0  0  0  0  0  0  0  0  0  0
   -1.1408  -16.2021   -0.3249 H   0  0  0  0  0  0  0  0  0  0  0  0
    0.1790  -13.6361    0.6290 H   0  0  0  0  0  0  0  0  0  0  0  0
    0.2733  -16.2446   -2.1613 H   0  0  0  0  0  0  0  0  0  0  0  0
   -0.3331  -14.8205   -3.0730 H   0  0  0  0  0  0  0  0  0  0  0  0
    1.4213  -15.2065   -3.0730 H   0  0  0  0  0  0  0  0  0  0  0  0
    3.5639  -13.2988    0.5725 H   0  0  0  0  0  0  0  0  0  0  0  0
    5.7594  -12.7093   -0.0926 H   0  0  0  0  0  0  0  0  0  0  0  0
    4.4542  -11.8767   -3.6435 H   0  0  0  0  0  0  0  0  0  0  0  0
    5.5111  -10.5758   -3.0613 H   0  0  0  0  0  0  0  0  0  0  0  0
    7.5164  -11.8954   -1.1822 H   0  0  0  0  0  0  0  0  0  0  0  0
    8.5195  -12.3377   -2.6052 H   0  0  0  0  0  0  0  0  0  0  0  0
    7.5886  -10.8015   -2.6052 H   0  0  0  0  0  0  0  0  0  0  0  0
    7.3886  -12.4190   -4.7728 H   0  0  0  0  0  0  0  0  0  0  0  0
    4.2338  -11.7597   -5.6261 H   0  0  0  0  0  0  0  0  0  0  0  0
    5.0307  -11.2820   -7.1635 H   0  0  0  0  0  0  0  0  0  0  0  0
    3.7776  -12.5690   -7.1635 H   0  0  0  0  0  0  0  0  0  0  0  0
    7.7668  -14.9655   -5.0357 H   0  0  0  0  0  0  0  0  0  0  0  0
    8.5636  -14.1782   -3.5729 H   0  0  0  0  0  0  0  0  0  0  0  0
    7.7577  -16.3003   -2.8745 H   0  0  0  0  0  0  0  0  0  0  0  0
    5.3454  -16.0028   -6.0666 H   0  0  0  0  0  0  0  0  0  0  0  0
    6.8753  -16.8731   -6.4254 H   0  0  0  0  0  0  0  0  0  0  0  0
    5.3147  -17.7627   -6.4254 H   0  0  0  0  0  0  0  0  0  0  0  0
    7.5555  -14.7196    0.1927 H   0  0  0  0  0  0  0  0  0  0  0  0
    8.5628  -15.4202   -1.1193 H   0  0  0  0  0  0  0  0  0  0  0  0
    8.1822  -13.6647   -1.1193 H   0  0  0  0  0  0  0  0  0  0  0  0
    5.0297  -14.2306   -2.7049 H   0  0  0  0  0  0  0  0  0  0  0  0
    4.7155  -16.0892   -1.7130 H   0  0  0  0  0  0  0  0  0  0  0  0
    6.6247  -17.6822   -1.3760 H   0  0  0  0  0  0  0  0  0  0  0  0
    6.7696  -17.0479    0.3351 H   0  0  0  0  0  0  0  0  0  0  0  0
    5.4832  -19.2926   -0.1382 H   0  0  0  0  0  0  0  0  0  0  0  0
    4.8518  -18.0981    1.0420 H   0  0  0  0  0  0  0  0  0  0  0  0
    2.4924  -16.7925   -1.1607 H   0  0  0  0  0  0  0  0  0  0  0  0
    1.0995  -18.4081    0.0374 H   0  0  0  0  0  0  0  0  0  0  0  0
    2.4410  -18.9383    1.0580 H   0  0  0  0  0  0  0  0  0  0  0  0
    0.5027  -16.6460    1.5019 H   0  0  0  0  0  0  0  0  0  0  0  0
    3.0778  -18.8720    3.3459 H   0  0  0  0  0  0  0  0  0  0  0  0
    1.3423  -20.0878    4.9733 H   0  0  0  0  0  0  0  0  0  0  0  0
    2.0826  -18.7433    5.8332 H   0  0  0  0  0  0  0  0  0  0  0  0
    2.5264  -15.4357    3.7533 H   0  0  0  0  0  0  0  0  0  0  0  0
    3.3455  -14.2685    2.6609 H   0  0  0  0  0  0  0  0  0  0  0  0
    1.5535  -14.3932    2.6609 H   0  0  0  0  0  0  0  0  0  0  0  0
    4.8614  -15.1272    2.3754 H   0  0  0  0  0  0  0  0  0  0  0  0
    6.3074  -15.6742    1.4607 H   0  0  0  0  0  0  0  0  0  0  0  0
    5.8486  -13.9375    1.4607 H   0  0  0  0  0  0  0  0  0  0  0  0
  1  2  1  0
  2  3  2  0
  3  4  1  0
  3  5  1  0
  5  6  2  0
  5  7  1  0
  7  8  1  0
  8  9  1  0
  9 10  1  0
 10 11  1  0
 11 12  1  0
 12 13  1  1
 12 14  1  0
 14 15  1  0
 15 16  1  0
 16 17  1  0
 16 18  2  0
 14 19  1  0
 19 20  1  0
 20 21  1  0
 21 22  1  0
 22 23  1  0
 22 24  2  0
 20 25  1  0
 25 26  1  1
 25 27  1  0
 25 28  1  0
 28 29  1  0
 29 30  1  0
 30 31  1  0
 31 32  1  0
 32 33  1  0
 33 34  1  0
 34 35  1  0
 35 36  2  0
 36 37  1  0
 37 38  1  0
 38 39  1  0
 39 40  2  0
 34 41  1  0
 41 42  1  0
 41 43  2  0
 43 44  1  0
 44 45  1  1
 44  8  1  0
 27  9  1  0
 44 28  1  0
 27 12  1  0
 43 32  1  0
 39 35  1  0
  1 46  1  0
  1 47  1  0
  1 48  1  0
  2 49  1  0
  4 50  1  0
  4 51  1  0
  4 52  1  0
  8 53  1  1
  9 54  1  1
 11 55  1  0
 11 56  1  0
 13 57  1  0
 13 58  1  0
 13 59  1  0
 14 60  1  6
 17 61  1  0
 17 62  1  0
 17 63  1  0
 19 64  1  0
 19 65  1  0
 20 66  1  1
 23 67  1  0
 23 68  1  0
 23 69  1  0
 26 70  1  0
 26 71  1  0
 26 72  1  0
 27 73  1  6
 28 74  1  6
 29 75  1  0
 29 76  1  0
 30 77  1  0
 30 78  1  0
 32 79  1  6
 33 80  1  0
 33 81  1  0
 34 82  1  6
 36 83  1  0
 37 84  1  0
 37 85  1  0
 42 86  1  0
 42 87  1  0
 42 88  1  0
 45 89  1  0
 45 90  1  0
 45 91  1  0
M  END
>  <meeko>  (7) 
{"is_sidechain": [false], "free_energy": -6.106, "intermolecular_energy": -10.18, "internal_energy": -1.68}

$$$$
LIB_RSCVHKUJNYXHPQ__M_PUB_ALL__e8__s20260927
     RDKit          3D

 91 96  0  0  0  0  0  0  0  0999 V2000
   13.4210  -15.0470   -3.7890 C   0  0  0  0  0  0  0  0  0  0  0  0
   12.2530  -14.1140   -3.7760 C   0  0  0  0  0  0  0  0  0  0  0  0
   11.2270  -14.0810   -2.9020 C   0  0  0  0  0  0  0  0  0  0  0  0
   11.0570  -14.9780   -1.7100 C   0  0  0  0  0  0  0  0  0  0  0  0
   10.1780  -13.0380   -3.1370 C   0  0  0  0  0  0  0  0  0  0  0  0
   10.4100  -11.8490   -3.2980 O   0  0  0  0  0  0  0  0  0  0  0  0
    8.9630  -13.6310   -3.1750 O   0  0  0  0  0  0  0  0  0  0  0  0
    8.1150  -13.3630   -4.3240 C   0  0  2  0  0  0  0  0  0  0  0  0
    6.9650  -12.4620   -3.8460 C   0  0  2  0  0  0  0  0  0  0  0  0
    7.3970  -11.2510   -3.1830 O   0  0  0  0  0  0  0  0  0  0  0  0
    6.6300  -11.0990   -1.9510 C   0  0  0  0  0  0  0  0  0  0  0  0
    5.4270  -12.0540   -2.0650 C   0  0  2  0  0  0  0  0  0  0  0  0
    4.3260  -11.3110   -2.8510 C   0  0  0  0  0  0  0  0  0  0  0  0
    4.8240  -12.6400   -0.7680 C   0  0  2  0  0  0  0  0  0  0  0  0
    5.8440  -13.0100    0.1840 O   0  0  0  0  0  0  0  0  0  0  0  0
    5.7490  -12.4660    1.4270 C   0  0  0  0  0  0  0  0  0  0  0  0
    5.3460  -13.5180    2.4150 C   0  0  0  0  0  0  0  0  0  0  0  0
    5.9830  -11.3010    1.7130 O   0  0  0  0  0  0  0  0  0  0  0  0
    4.0080  -13.9280   -1.0710 C   0  0  0  0  0  0  0  0  0  0  0  0
    4.7480  -15.0050   -1.9230 C   0  0  2  0  0  0  0  0  0  0  0  0
    5.7840  -15.5930   -1.1060 O   0  0  0  0  0  0  0  0  0  0  0  0
    5.4320  -16.6560   -0.3360 C   0  0  0  0  0  0  0  0  0  0  0  0
    4.7370  -17.6810   -1.1770 C   0  0  0  0  0  0  0  0  0  0  0  0
    5.6490  -16.7720    0.8610 O   0  0  0  0  0  0  0  0  0  0  0  0
    5.4000  -14.4240   -3.2450 C   0  0  1  0  0  0  0  0  0  0  0  0
    4.2530  -14.1390   -4.2390 C   0  0  0  0  0  0  0  0  0  0  0  0
    6.1510  -13.1720   -2.7960 C   0  0  1  0  0  0  0  0  0  0  0  0
    6.5300  -15.3920   -3.8580 C   0  0  1  0  0  0  0  0  0  0  0  0
    5.9420  -16.7500   -4.3530 C   0  0  0  0  0  0  0  0  0  0  0  0
    6.9970  -17.7970   -4.6990 C   0  0  0  0  0  0  0  0  0  0  0  0
    8.0790  -17.6890   -3.7850 O   0  0  0  0  0  0  0  0  0  0  0  0
    9.1270  -16.8130   -4.1860 C   0  0  1  0  0  0  0  0  0  0  0  0
   10.1810  -17.6330   -4.9260 C   0  0  0  0  0  0  0  0  0  0  0  0
   10.8010  -16.6770   -5.9380 C   0  0  1  0  0  0  0  0  0  0  0  0
   11.1840  -17.3520   -7.2120 C   0  0  0  0  0  0  0  0  0  0  0  0
   12.3800  -17.4160   -7.7990 C   0  0  0  0  0  0  0  0  0  0  0  0
   12.3130  -18.1730   -9.0590 C   0  0  0  0  0  0  0  0  0  0  0  0
   10.9460  -18.5580   -9.1660 O   0  0  0  0  0  0  0  0  0  0  0  0
   10.2580  -18.0840   -8.0880 C   0  0  0  0  0  0  0  0  0  0  0  0
    9.0660  -18.2520   -7.8960 O   0  0  0  0  0  0  0  0  0  0  0  0
    9.7580  -15.5880   -6.0850 C   0  0  0  0  0  0  0  0  0  0  0  0
    9.9920  -14.5510   -7.1390 C   0  0  0  0  0  0  0  0  0  0  0  0
    8.7920  -15.6710   -5.1380 C   0  0  0  0  0  0  0  0  0  0  0  0
    7.5750  -14.7360   -4.8910 C   0  0  2  0  0  0  0  0  0  0  0  0
    6.8720  -14.5050   -6.2540 C   0  0  0  0  0  0  0  0  0  0  0  0
   13.7145  -15.2815   -2.7551 H   0  0  0  0  0  0  0  0  0  0  0  0
   13.1434  -15.9748   -4.3107 H   0  0  0  0  0  0  0  0  0  0  0  0
   14.2645  -14.5713   -4.3107 H   0  0  0  0  0  0  0  0  0  0  0  0
   12.2276  -13.3619   -4.5783 H   0  0  0  0  0  0  0  0  0  0  0  0
   11.1688  -14.3881   -0.7883 H   0  0  0  0  0  0  0  0  0  0  0  0
   10.0564  -15.4343   -1.7342 H   0  0  0  0  0  0  0  0  0  0  0  0
   11.8213  -15.7688   -1.7342 H   0  0  0  0  0  0  0  0  0  0  0  0
    8.6646  -12.8560   -5.1308 H   0  0  0  0  0  0  0  0  0  0  0  0
    6.4129  -12.2218   -4.7666 H   0  0  0  0  0  0  0  0  0  0  0  0
    7.2486  -11.3689   -1.0824 H   0  0  0  0  0  0  0  0  0  0  0  0
    6.3006  -10.0586   -1.8129 H   0  0  0  0  0  0  0  0  0  0  0  0
    3.6266  -10.8390   -2.1452 H   0  0  0  0  0  0  0  0  0  0  0  0
    4.7857  -10.5377   -3.4840 H   0  0  0  0  0  0  0  0  0  0  0  0
    3.7809  -12.0267   -3.4840 H   0  0  0  0  0  0  0  0  0  0  0  0
    4.1838  -11.8499   -0.3487 H   0  0  0  0  0  0  0  0  0  0  0  0
    5.4920  -13.1369    3.4365 H   0  0  0  0  0  0  0  0  0  0  0  0
    4.2864  -13.7734    2.2669 H   0  0  0  0  0  0  0  0  0  0  0  0
    5.9638  -14.4160    2.2669 H   0  0  0  0  0  0  0  0  0  0  0  0
    3.7301  -14.3872   -0.1108 H   0  0  0  0  0  0  0  0  0  0  0  0
    3.1459  -13.6055   -1.6733 H   0  0  0  0  0  0  0  0  0  0  0  0
    4.0007  -15.7474   -2.2398 H   0  0  0  0  0  0  0  0  0  0  0  0
    4.2398  -18.4143   -0.5250 H   0  0  0  0  0  0  0  0  0  0  0  0
    3.9869  -17.1869   -1.8120 H   0  0  0  0  0  0  0  0  0  0  0  0
    5.4736  -18.1950   -1.8120 H   0  0  0  0  0  0  0  0  0  0  0  0
    3.3328  -13.9104   -3.6813 H   0  0  0  0  0  0  0  0  0  0  0  0
    4.5212  -13.2802   -4.8719 H   0  0  0  0  0  0  0  0  0  0  0  0
    4.0880  -15.0235   -4.8719 H   0  0  0  0  0  0  0  0  0  0  0  0
    6.7620  -13.7255   -2.0678 H   0  0  0  0  0  0  0  0  0  0  0  0
    7.1741  -15.6003   -2.9910 H   0  0  0  0  0  0  0  0  0  0  0  0
    5.2983  -17.1574   -3.5595 H   0  0  0  0  0  0  0  0  0  0  0  0
    5.3902  -16.5373   -5.2805 H   0  0  0  0  0  0  0  0  0  0  0  0
    6.5550  -18.8019   -4.6290 H   0  0  0  0  0  0  0  0  0  0  0  0
    7.3607  -17.6308   -5.7238 H   0  0  0  0  0  0  0  0  0  0  0  0
    9.4320  -16.3502   -3.2358 H   0  0  0  0  0  0  0  0  0  0  0  0
   10.9452  -17.9999   -4.2249 H   0  0  0  0  0  0  0  0  0  0  0  0
    9.7436  -18.5169   -5.4132 H   0  0  0  0  0  0  0  0  0  0  0  0
   11.7648  -16.2620   -5.6081 H   0  0  0  0  0  0  0  0  0  0  0  0
   13.2966  -16.9622   -7.3941 H   0  0  0  0  0  0  0  0  0  0  0  0
   12.6075  -17.5407   -9.9096 H   0  0  0  0  0  0  0  0  0  0  0  0
   12.9946  -19.0363   -9.0673 H   0  0  0  0  0  0  0  0  0  0  0  0
   10.2100  -13.5847   -6.6607 H   0  0  0  0  0  0  0  0  0  0  0  0
   10.8451  -14.8508   -7.7654 H   0  0  0  0  0  0  0  0  0  0  0  0
    9.0928  -14.4554   -7.7654 H   0  0  0  0  0  0  0  0  0  0  0  0
    5.8399  -14.1659   -6.0814 H   0  0  0  0  0  0  0  0  0  0  0  0
    7.4191  -13.7394   -6.8237 H   0  0  0  0  0  0  0  0  0  0  0  0
    6.8584  -15.4459   -6.8237 H   0  0  0  0  0  0  0  0  0  0  0  0
  1  2  1  0
  2  3  2  0
  3  4  1  0
  3  5  1  0
  5  6  2  0
  5  7  1  0
  7  8  1  0
  8  9  1  0
  9 10  1  0
 10 11  1  0
 11 12  1  0
 12 13  1  6
 12 14  1  0
 14 15  1  0
 15 16  1  0
 16 17  1  0
 16 18  2  0
 14 19  1  0
 19 20  1  0
 20 21  1  0
 21 22  1  0
 22 23  1  0
 22 24  2  0
 20 25  1  0
 25 26  1  6
 25 27  1  0
 25 28  1  0
 28 29  1  0
 29 30  1  0
 30 31  1  0
 31 32  1  0
 32 33  1  0
 33 34  1  0
 34 35  1  0
 35 36  2  0
 36 37  1  0
 37 38  1  0
 38 39  1  0
 39 40  2  0
 34 41  1  0
 41 42  1  0
 41 43  2  0
 43 44  1  0
 44 45  1  6
 44  8  1  0
 27  9  1  0
 44 28  1  0
 27 12  1  0
 43 32  1  0
 39 35  1  0
  1 46  1  0
  1 47  1  0
  1 48  1  0
  2 49  1  0
  4 50  1  0
  4 51  1  0
  4 52  1  0
  8 53  1  6
  9 54  1  6
 11 55  1  0
 11 56  1  0
 13 57  1  0
 13 58  1  0
 13 59  1  0
 14 60  1  1
 17 61  1  0
 17 62  1  0
 17 63  1  0
 19 64  1  0
 19 65  1  0
 20 66  1  6
 23 67  1  0
 23 68  1  0
 23 69  1  0
 26 70  1  0
 26 71  1  0
 26 72  1  0
 27 73  1  1
 28 74  1  1
 29 75  1  0
 29 76  1  0
 30 77  1  0
 30 78  1  0
 32 79  1  1
 33 80  1  0
 33 81  1  0
 34 82  1  1
 36 83  1  0
 37 84  1  0
 37 85  1  0
 42 86  1  0
 42 87  1  0
 42 88  1  0
 45 89  1  0
 45 90  1  0
 45 91  1  0
M  END
>  <meeko>  (8) 
{"is_sidechain": [false], "free_energy": -6.101, "intermolecular_energy": -10.145, "internal_energy": -1.707}

$$$$
LIB_RSCVHKUJNYXHPQ__M_PUB_ALL__e8__s20260927
     RDKit          3D

 91 96  0  0  0  0  0  0  0  0999 V2000
    4.8520  -12.9460   -6.7390 C   0  0  0  0  0  0  0  0  0  0  0  0
    4.0800  -13.1620   -5.4780 C   0  0  0  0  0  0  0  0  0  0  0  0
    3.4570  -12.2370   -4.7180 C   0  0  0  0  0  0  0  0  0  0  0  0
    3.3820  -10.7670   -5.0070 C   0  0  0  0  0  0  0  0  0  0  0  0
    2.7620  -12.7370   -3.4890 C   0  0  0  0  0  0  0  0  0  0  0  0
    1.5500  -12.7520   -3.3390 O   0  0  0  0  0  0  0  0  0  0  0  0
    3.6850  -13.1920   -2.6110 O   0  0  0  0  0  0  0  0  0  0  0  0
    4.1430  -12.2790   -1.5770 C   0  0  2  0  0  0  0  0  0  0  0  0
    5.6600  -12.1090   -1.7530 C   0  0  2  0  0  0  0  0  0  0  0  0
    6.0590  -11.6880   -3.0790 O   0  0  0  0  0  0  0  0  0  0  0  0
    7.1620  -12.5340   -3.5220 C   0  0  0  0  0  0  0  0  0  0  0  0
    7.6970  -13.2460   -2.2650 C   0  0  2  0  0  0  0  0  0  0  0  0
    8.6970  -12.2850   -1.5860 C   0  0  0  0  0  0  0  0  0  0  0  0
    8.3530  -14.6370   -2.4260 C   0  0  2  0  0  0  0  0  0  0  0  0
    7.6420  -15.4630   -3.3730 O   0  0  0  0  0  0  0  0  0  0  0  0
    8.2390  -15.6650   -4.5790 C   0  0  0  0  0  0  0  0  0  0  0  0
    9.7150  -15.8380   -4.3960 C   0  0  0  0  0  0  0  0  0  0  0  0
    7.6630  -15.7290   -5.6550 O   0  0  0  0  0  0  0  0  0  0  0  0
    8.3540  -15.4060   -1.0750 C   0  0  0  0  0  0  0  0  0  0  0  0
    6.9790  -15.4770   -0.3430 C   0  0  2  0  0  0  0  0  0  0  0  0
    6.1140  -16.3580   -1.0920 O   0  0  0  0  0  0  0  0  0  0  0  0
    6.1450  -17.6770   -0.7640 C   0  0  0  0  0  0  0  0  0  0  0  0
    5.2850  -17.9190    0.4380 C   0  0  0  0  0  0  0  0  0  0  0  0
    6.7700  -18.5450   -1.3550 O   0  0  0  0  0  0  0  0  0  0  0  0
    6.2730  -14.0680   -0.1890 C   0  0  1  0  0  0  0  0  0  0  0  0
    7.0380  -13.2840    0.9000 C   0  0  0  0  0  0  0  0  0  0  0  0
    6.3560  -13.4330   -1.5770 C   0  0  1  0  0  0  0  0  0  0  0  0
    4.6990  -14.1910    0.1200 C   0  0  1  0  0  0  0  0  0  0  0  0
    4.4080  -14.8300    1.5200 C   0  0  0  0  0  0  0  0  0  0  0  0
    2.9490  -15.2200    1.7430 C   0  0  0  0  0  0  0  0  0  0  0  0
    2.3970  -15.6830    0.5200 O   0  0  0  0  0  0  0  0  0  0  0  0
    1.7900  -14.6800   -0.2900 C   0  0  1  0  0  0  0  0  0  0  0  0
    0.3050  -14.6180    0.0580 C   0  0  0  0  0  0  0  0  0  0  0  0
   -0.1060  -13.1690   -0.1800 C   0  0  1  0  0  0  0  0  0  0  0  0
   -1.1390  -12.6950    0.7850 C   0  0  0  0  0  0  0  0  0  0  0  0
   -2.3410  -12.1740    0.5370 C   0  0  0  0  0  0  0  0  0  0  0  0
   -3.0370  -11.8240    1.7850 C   0  0  0  0  0  0  0  0  0  0  0  0
   -2.1220  -12.1920    2.8130 O   0  0  0  0  0  0  0  0  0  0  0  0
   -0.9930  -12.7080    2.2490 C   0  0  0  0  0  0  0  0  0  0  0  0
   -0.0270  -13.1130    2.8720 O   0  0  0  0  0  0  0  0  0  0  0  0
    1.2070  -12.4140   -0.1290 C   0  0  0  0  0  0  0  0  0  0  0  0
    1.1400  -10.9190   -0.1760 C   0  0  0  0  0  0  0  0  0  0  0  0
    2.2780  -13.2440   -0.1490 C   0  0  0  0  0  0  0  0  0  0  0  0
    3.7920  -12.8920   -0.1640 C   0  0  2  0  0  0  0  0  0  0  0  0
    4.0440  -11.8390    0.9470 C   0  0  0  0  0  0  0  0  0  0  0  0
    5.8843  -12.6572   -6.4920 H   0  0  0  0  0  0  0  0  0  0  0  0
    4.8620  -13.8758   -7.3266 H   0  0  0  0  0  0  0  0  0  0  0  0
    4.3780  -12.1460   -7.3266 H   0  0  0  0  0  0  0  0  0  0  0  0
    4.0111  -14.2019   -5.1262 H   0  0  0  0  0  0  0  0  0  0  0  0
    3.3535  -10.2081   -4.0600 H   0  0  0  0  0  0  0  0  0  0  0  0
    4.2657  -10.4617   -5.5865 H   0  0  0  0  0  0  0  0  0  0  0  0
    2.4718  -10.5532   -5.5865 H   0  0  0  0  0  0  0  0  0  0  0  0
    3.6547  -11.2961   -1.6514 H   0  0  0  0  0  0  0  0  0  0  0  0
    5.9317  -11.3477   -1.0070 H   0  0  0  0  0  0  0  0  0  0  0  0
    6.8043  -13.2728   -4.2543 H   0  0  0  0  0  0  0  0  0  0  0  0
    7.9493  -11.9398   -4.0089 H   0  0  0  0  0  0  0  0  0  0  0  0
    8.6056  -12.3728   -0.4933 H   0  0  0  0  0  0  0  0  0  0  0  0
    9.7212  -12.5464   -1.8905 H   0  0  0  0  0  0  0  0  0  0  0  0
    8.4765  -11.2512   -1.8905 H   0  0  0  0  0  0  0  0  0  0  0  0
    9.3773  -14.4500   -2.7808 H   0  0  0  0  0  0  0  0  0  0  0  0
    9.9506  -15.8656   -3.3219 H   0  0  0  0  0  0  0  0  0  0  0  0
   10.0348  -16.7798   -4.8658 H   0  0  0  0  0  0  0  0  0  0  0  0
   10.2439  -14.9957   -4.8658 H   0  0  0  0  0  0  0  0  0  0  0  0
    8.6872  -16.4358   -1.2713 H   0  0  0  0  0  0  0  0  0  0  0  0
    9.0233  -14.8435   -0.4074 H   0  0  0  0  0  0  0  0  0  0  0  0
    7.1654  -15.8488    0.6753 H   0  0  0  0  0  0  0  0  0  0  0  0
    5.8757  -17.7528    1.3509 H   0  0  0  0  0  0  0  0  0  0  0  0
    4.4305  -17.2264    0.4230 H   0  0  0  0  0  0  0  0  0  0  0  0
    4.9171  -18.9555    0.4230 H   0  0  0  0  0  0  0  0  0  0  0  0
    6.7090  -13.6212    1.8940 H   0  0  0  0  0  0  0  0  0  0  0  0
    8.1177  -13.4635    0.7908 H   0  0  0  0  0  0  0  0  0  0  0  0
    6.8321  -12.2090    0.7908 H   0  0  0  0  0  0  0  0  0  0  0  0
    5.8324  -14.2712   -2.0600 H   0  0  0  0  0  0  0  0  0  0  0  0
    4.3606  -14.8934   -0.6560 H   0  0  0  0  0  0  0  0  0  0  0  0
    5.0254  -15.7348    1.6205 H   0  0  0  0  0  0  0  0  0  0  0  0
    4.6468  -14.0630    2.2715 H   0  0  0  0  0  0  0  0  0  0  0  0
    2.8929  -16.0185    2.4975 H   0  0  0  0  0  0  0  0  0  0  0  0
    2.3828  -14.3456    2.0962 H   0  0  0  0  0  0  0  0  0  0  0  0
    2.0498  -15.0006   -1.3097 H   0  0  0  0  0  0  0  0  0  0  0  0
   -0.2711  -15.2932   -0.5917 H   0  0  0  0  0  0  0  0  0  0  0  0
    0.1141  -14.9326    1.0946 H   0  0  0  0  0  0  0  0  0  0  0  0
   -0.6156  -13.0147   -1.1426 H   0  0  0  0  0  0  0  0  0  0  0  0
   -2.7581  -12.0252   -0.4699 H   0  0  0  0  0  0  0  0  0  0  0  0
   -3.2519  -10.7458    1.8222 H   0  0  0  0  0  0  0  0  0  0  0  0
   -4.0067  -12.3341    1.8829 H   0  0  0  0  0  0  0  0  0  0  0  0
    1.1221  -10.5204    0.8491 H   0  0  0  0  0  0  0  0  0  0  0  0
    2.0216  -10.5289   -0.7058 H   0  0  0  0  0  0  0  0  0  0  0  0
    0.2271  -10.6094   -0.7058 H   0  0  0  0  0  0  0  0  0  0  0  0
    3.9307  -12.3124    1.9334 H   0  0  0  0  0  0  0  0  0  0  0  0
    5.0635  -11.4380    0.8477 H   0  0  0  0  0  0  0  0  0  0  0  0
    3.3165  -11.0199    0.8477 H   0  0  0  0  0  0  0  0  0  0  0  0
  1  2  1  0
  2  3  2  0
  3  4  1  0
  3  5  1  0
  5  6  2  0
  5  7  1  0
  7  8  1  0
  8  9  1  0
  9 10  1  0
 10 11  1  0
 11 12  1  0
 12 13  1  1
 12 14  1  0
 14 15  1  0
 15 16  1  0
 16 17  1  0
 16 18  2  0
 14 19  1  0
 19 20  1  0
 20 21  1  0
 21 22  1  0
 22 23  1  0
 22 24  2  0
 20 25  1  0
 25 26  1  1
 25 27  1  0
 25 28  1  0
 28 29  1  0
 29 30  1  0
 30 31  1  0
 31 32  1  0
 32 33  1  0
 33 34  1  0
 34 35  1  0
 35 36  2  0
 36 37  1  0
 37 38  1  0
 38 39  1  0
 39 40  2  0
 34 41  1  0
 41 42  1  0
 41 43  2  0
 43 44  1  0
 44 45  1  1
 44  8  1  0
 27  9  1  0
 44 28  1  0
 27 12  1  0
 43 32  1  0
 39 35  1  0
  1 46  1  0
  1 47  1  0
  1 48  1  0
  2 49  1  0
  4 50  1  0
  4 51  1  0
  4 52  1  0
  8 53  1  6
  9 54  1  1
 11 55  1  0
 11 56  1  0
 13 57  1  0
 13 58  1  0
 13 59  1  0
 14 60  1  6
 17 61  1  0
 17 62  1  0
 17 63  1  0
 19 64  1  0
 19 65  1  0
 20 66  1  1
 23 67  1  0
 23 68  1  0
 23 69  1  0
 26 70  1  0
 26 71  1  0
 26 72  1  0
 27 73  1  6
 28 74  1  6
 29 75  1  0
 29 76  1  0
 30 77  1  0
 30 78  1  0
 32 79  1  6
 33 80  1  0
 33 81  1  0
 34 82  1  6
 36 83  1  0
 37 84  1  0
 37 85  1  0
 42 86  1  0
 42 87  1  0
 42 88  1  0
 45 89  1  0
 45 90  1  0
 45 91  1  0
M  END
>  <meeko>  (9) 
{"is_sidechain": [false], "free_energy": -5.867, "intermolecular_energy": -10.794, "internal_energy": -0.66}

$$$$
