LIB_YZVIHKKOGKRSKO__M_PUB_ALL__e8__s20260927
     RDKit          3D

 41 43  0  0  0  0  0  0  0  0999 V2000
   10.9790   -0.6780  -12.1140 O   0  0  0  0  0  0  0  0  0  0  0  0
   11.1650   -1.7780  -12.6310 C   0  0  0  0  0  0  0  0  0  0  0  0
   12.4770   -2.0990  -13.3330 C   0  0  0  0  0  0  0  0  0  0  0  0
   12.5960   -3.5520  -13.7660 C   0  0  0  0  0  0  0  0  0  0  0  0
   11.8400   -4.3610  -12.7600 C   0  0  0  0  0  0  0  0  0  0  0  0
   12.3720   -5.6600  -12.3040 C   0  0  0  0  0  0  0  0  0  0  0  0
   12.2230   -6.6880  -13.2430 C   0  0  0  0  0  0  0  0  0  0  0  0
   11.5830   -7.8500  -12.8470 C   0  0  0  0  0  0  0  0  0  0  0  0
   11.1020   -7.9070  -11.5380 C   0  0  0  0  0  0  0  0  0  0  0  0
    9.9010   -8.5480  -11.3110 O   0  0  0  0  0  0  0  0  0  0  0  0
    9.9130   -9.7640  -12.0880 C   0  0  0  0  0  0  0  0  0  0  0  0
   10.1980  -11.1100  -11.3670 C   0  0  0  0  0  0  0  0  0  0  0  0
   11.2880  -11.6670  -11.4410 O   0  0  0  0  0  0  0  0  0  0  0  0
    9.1700  -11.8570  -10.6250 N   0  0  0  0  0  0  0  0  0  0  0  0
    9.3540  -13.3510  -10.6180 C   0  0  0  0  0  0  0  0  0  0  0  0
    7.9500  -13.9030  -10.4570 C   0  0  0  0  0  0  0  0  0  0  0  0
    7.1150  -12.9140  -11.2400 C   0  0  0  0  0  0  0  0  0  0  0  0
    7.7410  -11.5700  -10.9130 C   0  0  0  0  0  0  0  0  0  0  0  0
   11.5550   -7.0480  -10.5370 C   0  0  0  0  0  0  0  0  0  0  0  0
   12.1940   -5.8830  -10.9330 C   0  0  0  0  0  0  0  0  0  0  0  0
   10.7200   -3.9640  -12.2100 N   0  0  0  0  0  0  0  0  0  0  0  0
   10.2670   -2.7740  -12.6540 N   0  0  0  0  0  0  0  0  0  0  0  0
   12.5584   -1.4621  -14.2262 H   0  0  0  0  0  0  0  0  0  0  0  0
   13.2843   -1.9106  -12.6100 H   0  0  0  0  0  0  0  0  0  0  0  0
   12.1597   -3.6868  -14.7667 H   0  0  0  0  0  0  0  0  0  0  0  0
   13.6491   -3.8658  -13.8169 H   0  0  0  0  0  0  0  0  0  0  0  0
   12.6045   -6.5752  -14.2685 H   0  0  0  0  0  0  0  0  0  0  0  0
   11.4582   -8.6966  -13.5381 H   0  0  0  0  0  0  0  0  0  0  0  0
    8.9247   -9.8543  -12.5624 H   0  0  0  0  0  0  0  0  0  0  0  0
   10.7705   -9.6383  -12.7654 H   0  0  0  0  0  0  0  0  0  0  0  0
    9.3160  -11.5850   -9.5970 H   0  0  0  0  0  0  0  0  0  0  0  0
    9.8006  -13.6927  -11.5634 H   0  0  0  0  0  0  0  0  0  0  0  0
   10.0308  -13.6865   -9.8184 H   0  0  0  0  0  0  0  0  0  0  0  0
    7.8698  -14.9145  -10.8818 H   0  0  0  0  0  0  0  0  0  0  0  0
    7.6376  -14.0050   -9.4072 H   0  0  0  0  0  0  0  0  0  0  0  0
    7.1725  -13.1206  -12.3189 H   0  0  0  0  0  0  0  0  0  0  0  0
    6.0472  -12.9598  -10.9797 H   0  0  0  0  0  0  0  0  0  0  0  0
    7.6514  -10.8856  -11.7695 H   0  0  0  0  0  0  0  0  0  0  0  0
    7.2427  -11.0843  -10.0611 H   0  0  0  0  0  0  0  0  0  0  0  0
   11.4107   -7.2859   -9.4728 H   0  0  0  0  0  0  0  0  0  0  0  0
   12.5513   -5.1540  -10.1907 H   0  0  0  0  0  0  0  0  0  0  0  0
  1  2  2  0
  2  3  1  0
  3  4  1  0
  4  5  1  0
  5  6  1  0
  6  7  2  0
  7  8  1  0
  8  9  2  0
  9 10  1  0
 10 11  1  0
 11 12  1  0
 12 13  2  0
 12 14  1  0
 14 15  1  0
 15 16  1  0
 16 17  1  0
 17 18  1  0
  9 19  1  0
 19 20  2  0
  5 21  2  0
 21 22  1  0
 22  2  1  0
 20  6  1  0
 18 14  1  0
  3 23  1  0
  3 24  1  0
  4 25  1  0
  4 26  1  0
  7 27  1  0
  8 28  1  0
 11 29  1  0
 11 30  1  0
 14 31  1  0
 15 32  1  0
 15 33  1  0
 16 34  1  0
 16 35  1  0
 17 36  1  0
 17 37  1  0
 18 38  1  0
 18 39  1  0
 19 40  1  0
 20 41  1  0
M  CHG  2  14   1  22  -1
M  END
>  <meeko>  (1) 
{"is_sidechain": [false], "free_energy": -6.915, "intermolecular_energy": -8.936, "internal_energy": -0.685}

$$$$
LIB_YZVIHKKOGKRSKO__M_PUB_ALL__e8__s20260927
     RDKit          3D

 41 43  0  0  0  0  0  0  0  0999 V2000
   10.1960  -13.5070   12.1860 O   0  0  0  0  0  0  0  0  0  0  0  0
   11.3690  -13.1960   12.3800 C   0  0  0  0  0  0  0  0  0  0  0  0
   12.4830  -13.7720   11.5170 C   0  0  0  0  0  0  0  0  0  0  0  0
   13.8450  -13.1550   11.7870 C   0  0  0  0  0  0  0  0  0  0  0  0
   13.5990  -11.7330   12.1860 C   0  0  0  0  0  0  0  0  0  0  0  0
   14.4940  -10.6640   11.7060 C   0  0  0  0  0  0  0  0  0  0  0  0
   15.5910  -10.4330   12.5450 C   0  0  0  0  0  0  0  0  0  0  0  0
   15.8050   -9.1440   13.0040 C   0  0  0  0  0  0  0  0  0  0  0  0
   14.8900   -8.1620   12.6200 C   0  0  0  0  0  0  0  0  0  0  0  0
   14.5510   -7.1890   13.5380 O   0  0  0  0  0  0  0  0  0  0  0  0
   15.7030   -6.3330   13.6960 C   0  0  0  0  0  0  0  0  0  0  0  0
   16.3950   -5.7670   12.4260 C   0  0  0  0  0  0  0  0  0  0  0  0
   15.8000   -5.0500   11.6290 O   0  0  0  0  0  0  0  0  0  0  0  0
   17.7710   -6.1160   12.0390 N   0  0  0  0  0  0  0  0  0  0  0  0
   18.7410   -4.9650   12.0420 C   0  0  0  0  0  0  0  0  0  0  0  0
   19.7900   -5.3520   11.0170 C   0  0  0  0  0  0  0  0  0  0  0  0
   18.9760   -6.0850    9.9740 C   0  0  0  0  0  0  0  0  0  0  0  0
   17.9790   -6.8910   10.7890 C   0  0  0  0  0  0  0  0  0  0  0  0
   14.0340   -8.3240   11.5310 C   0  0  0  0  0  0  0  0  0  0  0  0
   13.8180   -9.6140   11.0720 C   0  0  0  0  0  0  0  0  0  0  0  0
   12.5850  -11.3580   12.9250 N   0  0  0  0  0  0  0  0  0  0  0  0
   11.7910  -12.3640   13.3430 N   0  0  0  0  0  0  0  0  0  0  0  0
   12.5472  -14.8532   11.7088 H   0  0  0  0  0  0  0  0  0  0  0  0
   12.2291  -13.5460   10.4708 H   0  0  0  0  0  0  0  0  0  0  0  0
   14.3519  -13.6951   12.6002 H   0  0  0  0  0  0  0  0  0  0  0  0
   14.4895  -13.2115   10.8974 H   0  0  0  0  0  0  0  0  0  0  0  0
   16.2650  -11.2536   12.8319 H   0  0  0  0  0  0  0  0  0  0  0  0
   16.6641   -8.9029   13.6473 H   0  0  0  0  0  0  0  0  0  0  0  0
   15.3850   -5.4717   14.3018 H   0  0  0  0  0  0  0  0  0  0  0  0
   16.4635   -6.9906   14.1423 H   0  0  0  0  0  0  0  0  0  0  0  0
   18.1320   -6.7450   12.8310 H   0  0  0  0  0  0  0  0  0  0  0  0
   18.2378   -4.0313   11.7503 H   0  0  0  0  0  0  0  0  0  0  0  0
   19.1740   -4.7845   13.0370 H   0  0  0  0  0  0  0  0  0  0  0  0
   20.2748   -4.4621   10.5893 H   0  0  0  0  0  0  0  0  0  0  0  0
   20.6099   -5.9543   11.4354 H   0  0  0  0  0  0  0  0  0  0  0  0
   18.4578   -5.3755    9.3122 H   0  0  0  0  0  0  0  0  0  0  0  0
   19.5951   -6.7145    9.3179 H   0  0  0  0  0  0  0  0  0  0  0  0
   17.0314   -6.9981   10.2407 H   0  0  0  0  0  0  0  0  0  0  0  0
   18.3464   -7.9072   10.9948 H   0  0  0  0  0  0  0  0  0  0  0  0
   13.5482   -7.4600   11.0539 H   0  0  0  0  0  0  0  0  0  0  0  0
   13.1341   -9.8078   10.2325 H   0  0  0  0  0  0  0  0  0  0  0  0
  1  2  2  0
  2  3  1  0
  3  4  1  0
  4  5  1  0
  5  6  1  0
  6  7  2  0
  7  8  1  0
  8  9  2  0
  9 10  1  0
 10 11  1  0
 11 12  1  0
 12 13  2  0
 12 14  1  0
 14 15  1  0
 15 16  1  0
 16 17  1  0
 17 18  1  0
  9 19  1  0
 19 20  2  0
  5 21  2  0
 21 22  1  0
 22  2  1  0
 20  6  1  0
 18 14  1  0
  3 23  1  0
  3 24  1  0
  4 25  1  0
  4 26  1  0
  7 27  1  0
  8 28  1  0
 11 29  1  0
 11 30  1  0
 14 31  1  0
 15 32  1  0
 15 33  1  0
 16 34  1  0
 16 35  1  0
 17 36  1  0
 17 37  1  0
 18 38  1  0
 18 39  1  0
 19 40  1  0
 20 41  1  0
M  CHG  2  14   1  22  -1
M  END
>  <meeko>  (2) 
{"is_sidechain": [false], "free_energy": -6.425, "intermolecular_energy": -8.271, "internal_energy": -0.717}

$$$$
LIB_YZVIHKKOGKRSKO__M_PUB_ALL__e8__s20260927
     RDKit          3D

 41 43  0  0  0  0  0  0  0  0999 V2000
   -1.7900  -16.8290    0.2360 O   0  0  0  0  0  0  0  0  0  0  0  0
   -2.5380  -15.9290    0.6140 C   0  0  0  0  0  0  0  0  0  0  0  0
   -2.6510  -15.5770    2.0910 C   0  0  0  0  0  0  0  0  0  0  0  0
   -3.4900  -14.3380    2.3590 C   0  0  0  0  0  0  0  0  0  0  0  0
   -3.3030  -13.4320    1.1840 C   0  0  0  0  0  0  0  0  0  0  0  0
   -3.1770  -11.9760    1.3840 C   0  0  0  0  0  0  0  0  0  0  0  0
   -3.3780  -11.2290    0.2170 C   0  0  0  0  0  0  0  0  0  0  0  0
   -2.3930  -10.3350   -0.1670 C   0  0  0  0  0  0  0  0  0  0  0  0
   -1.2460  -10.2580    0.6260 C   0  0  0  0  0  0  0  0  0  0  0  0
   -0.0310  -10.0740   -0.0010 O   0  0  0  0  0  0  0  0  0  0  0  0
    0.8440  -11.1310    0.4480 C   0  0  0  0  0  0  0  0  0  0  0  0
    0.9770  -12.4120   -0.4210 C   0  0  0  0  0  0  0  0  0  0  0  0
    0.2940  -13.4090   -0.2150 O   0  0  0  0  0  0  0  0  0  0  0  0
    1.9820  -12.5590   -1.4850 N   0  0  0  0  0  0  0  0  0  0  0  0
    2.2160  -11.3220   -2.3100 C   0  0  0  0  0  0  0  0  0  0  0  0
    2.6800  -11.8480   -3.6560 C   0  0  0  0  0  0  0  0  0  0  0  0
    1.8750  -13.1190   -3.8070 C   0  0  0  0  0  0  0  0  0  0  0  0
    1.8690  -13.7150   -2.4100 C   0  0  0  0  0  0  0  0  0  0  0  0
   -1.2130  -10.7290    1.9380 C   0  0  0  0  0  0  0  0  0  0  0  0
   -2.1970  -11.6260    2.3220 C   0  0  0  0  0  0  0  0  0  0  0  0
   -3.2010  -13.8620   -0.0490 N   0  0  0  0  0  0  0  0  0  0  0  0
   -3.3230  -15.1970   -0.1900 N   0  0  0  0  0  0  0  0  0  0  0  0
   -3.1090  -16.4276    2.6171 H   0  0  0  0  0  0  0  0  0  0  0  0
   -1.6338  -15.3615    2.4499 H   0  0  0  0  0  0  0  0  0  0  0  0
   -4.5502  -14.6126    2.4614 H   0  0  0  0  0  0  0  0  0  0  0  0
   -3.1817  -13.8449    3.2927 H   0  0  0  0  0  0  0  0  0  0  0  0
   -4.2946  -11.3493   -0.3792 H   0  0  0  0  0  0  0  0  0  0  0  0
   -2.5096   -9.7085   -1.0636 H   0  0  0  0  0  0  0  0  0  0  0  0
    1.8510  -10.6987    0.5430 H   0  0  0  0  0  0  0  0  0  0  0  0
    0.3757  -11.4873    1.3774 H   0  0  0  0  0  0  0  0  0  0  0  0
    2.9150  -12.6940   -0.9710 H   0  0  0  0  0  0  0  0  0  0  0  0
    1.2862  -10.7442   -2.4174 H   0  0  0  0  0  0  0  0  0  0  0  0
    2.9493  -10.6435   -1.8496 H   0  0  0  0  0  0  0  0  0  0  0  0
    2.4513  -11.1348   -4.4616 H   0  0  0  0  0  0  0  0  0  0  0  0
    3.7668  -12.0084   -3.7127 H   0  0  0  0  0  0  0  0  0  0  0  0
    0.8512  -12.8965   -4.1421 H   0  0  0  0  0  0  0  0  0  0  0  0
    2.2977  -13.8024   -4.5582 H   0  0  0  0  0  0  0  0  0  0  0  0
    0.9318  -14.2617   -2.2293 H   0  0  0  0  0  0  0  0  0  0  0  0
    2.6908  -14.4324   -2.2689 H   0  0  0  0  0  0  0  0  0  0  0  0
   -0.4345  -10.4006    2.6423 H   0  0  0  0  0  0  0  0  0  0  0  0
   -2.2083  -12.0518    3.3362 H   0  0  0  0  0  0  0  0  0  0  0  0
  1  2  2  0
  2  3  1  0
  3  4  1  0
  4  5  1  0
  5  6  1  0
  6  7  2  0
  7  8  1  0
  8  9  2  0
  9 10  1  0
 10 11  1  0
 11 12  1  0
 12 13  2  0
 12 14  1  0
 14 15  1  0
 15 16  1  0
 16 17  1  0
 17 18  1  0
  9 19  1  0
 19 20  2  0
  5 21  2  0
 21 22  1  0
 22  2  1  0
 20  6  1  0
 18 14  1  0
  3 23  1  0
  3 24  1  0
  4 25  1  0
  4 26  1  0
  7 27  1  0
  8 28  1  0
 11 29  1  0
 11 30  1  0
 14 31  1  0
 15 32  1  0
 15 33  1  0
 16 34  1  0
 16 35  1  0
 17 36  1  0
 17 37  1  0
 18 38  1  0
 18 39  1  0
 19 40  1  0
 20 41  1  0
M  CHG  2  14   1  22  -1
M  END
>  <meeko>  (3) 
{"is_sidechain": [false], "free_energy": -6.362, "intermolecular_energy": -7.824, "internal_energy": -1.082}

$$$$
LIB_YZVIHKKOGKRSKO__M_PUB_ALL__e8__s20260927
     RDKit          3D

 41 43  0  0  0  0  0  0  0  0999 V2000
   -4.1810  -17.3290    5.5120 O   0  0  0  0  0  0  0  0  0  0  0  0
   -5.1590  -16.7200    5.9390 C   0  0  0  0  0  0  0  0  0  0  0  0
   -5.8240  -15.6310    5.1090 C   0  0  0  0  0  0  0  0  0  0  0  0
   -7.1120  -15.1010    5.7180 C   0  0  0  0  0  0  0  0  0  0  0  0
   -7.7390  -16.2430    6.4540 C   0  0  0  0  0  0  0  0  0  0  0  0
   -9.2000  -16.4400    6.4100 C   0  0  0  0  0  0  0  0  0  0  0  0
   -9.8660  -15.9470    7.5380 C   0  0  0  0  0  0  0  0  0  0  0  0
  -10.6960  -16.8080    8.2380 C   0  0  0  0  0  0  0  0  0  0  0  0
  -10.7890  -18.1250    7.7830 C   0  0  0  0  0  0  0  0  0  0  0  0
  -10.8840  -19.1340    8.7200 O   0  0  0  0  0  0  0  0  0  0  0  0
  -11.0390  -20.3740    7.9960 C   0  0  0  0  0  0  0  0  0  0  0  0
  -12.3800  -21.1490    8.1160 C   0  0  0  0  0  0  0  0  0  0  0  0
  -12.4140  -22.3520    8.3470 O   0  0  0  0  0  0  0  0  0  0  0  0
  -13.6910  -20.5260    7.8770 N   0  0  0  0  0  0  0  0  0  0  0  0
  -14.8730  -21.4230    8.1290 C   0  0  0  0  0  0  0  0  0  0  0  0
  -15.9570  -20.8850    7.2150 C   0  0  0  0  0  0  0  0  0  0  0  0
  -15.1720  -20.4360    6.0020 C   0  0  0  0  0  0  0  0  0  0  0  0
  -13.9150  -19.8200    6.5900 C   0  0  0  0  0  0  0  0  0  0  0  0
  -10.4140  -18.4980    6.4930 C   0  0  0  0  0  0  0  0  0  0  0  0
   -9.5830  -17.6380    5.7930 C   0  0  0  0  0  0  0  0  0  0  0  0
   -7.0510  -17.1330    7.1240 N   0  0  0  0  0  0  0  0  0  0  0  0
   -5.7200  -16.9180    7.1410 N   0  0  0  0  0  0  0  0  0  0  0  0
   -5.1184  -14.7936    5.0051 H   0  0  0  0  0  0  0  0  0  0  0  0
   -6.0870  -16.0801    4.1399 H   0  0  0  0  0  0  0  0  0  0  0  0
   -6.8923  -14.2768    6.4126 H   0  0  0  0  0  0  0  0  0  0  0  0
   -7.7868  -14.7114    4.9415 H   0  0  0  0  0  0  0  0  0  0  0  0
   -9.7340  -14.9036    7.8603 H   0  0  0  0  0  0  0  0  0  0  0  0
  -11.2602  -16.4670    9.1186 H   0  0  0  0  0  0  0  0  0  0  0  0
  -10.8916  -20.1463    6.9300 H   0  0  0  0  0  0  0  0  0  0  0  0
  -10.3015  -21.0460    8.4592 H   0  0  0  0  0  0  0  0  0  0  0  0
  -13.7850  -19.7740    8.6380 H   0  0  0  0  0  0  0  0  0  0  0  0
  -14.6315  -22.4656    7.8747 H   0  0  0  0  0  0  0  0  0  0  0  0
  -15.1791  -21.4261    9.1856 H   0  0  0  0  0  0  0  0  0  0  0  0
  -16.6804  -21.6706    6.9515 H   0  0  0  0  0  0  0  0  0  0  0  0
  -16.5555  -20.0825    7.6708 H   0  0  0  0  0  0  0  0  0  0  0  0
  -14.9239  -21.2920    5.3572 H   0  0  0  0  0  0  0  0  0  0  0  0
  -15.7334  -19.7332    5.3689 H   0  0  0  0  0  0  0  0  0  0  0  0
  -13.0603  -19.9720    5.9144 H   0  0  0  0  0  0  0  0  0  0  0  0
  -14.0214  -18.7346    6.7334 H   0  0  0  0  0  0  0  0  0  0  0  0
  -10.7649  -19.4404    6.0472 H   0  0  0  0  0  0  0  0  0  0  0  0
   -9.2336  -17.8891    4.7806 H   0  0  0  0  0  0  0  0  0  0  0  0
  1  2  2  0
  2  3  1  0
  3  4  1  0
  4  5  1  0
  5  6  1  0
  6  7  2  0
  7  8  1  0
  8  9  2  0
  9 10  1  0
 10 11  1  0
 11 12  1  0
 12 13  2  0
 12 14  1  0
 14 15  1  0
 15 16  1  0
 16 17  1  0
 17 18  1  0
  9 19  1  0
 19 20  2  0
  5 21  2  0
 21 22  1  0
 22  2  1  0
 20  6  1  0
 18 14  1  0
  3 23  1  0
  3 24  1  0
  4 25  1  0
  4 26  1  0
  7 27  1  0
  8 28  1  0
 11 29  1  0
 11 30  1  0
 14 31  1  0
 15 32  1  0
 15 33  1  0
 16 34  1  0
 16 35  1  0
 17 36  1  0
 17 37  1  0
 18 38  1  0
 18 39  1  0
 19 40  1  0
 20 41  1  0
M  CHG  2  14   1  22  -1
M  END
>  <meeko>  (4) 
{"is_sidechain": [false], "free_energy": -6.313, "intermolecular_energy": -8.024, "internal_energy": -0.819}

$$$$
LIB_YZVIHKKOGKRSKO__M_PUB_ALL__e8__s20260927
     RDKit          3D

 41 43  0  0  0  0  0  0  0  0999 V2000
   13.1430  -12.4010  -13.2040 O   0  0  0  0  0  0  0  0  0  0  0  0
   13.4270  -12.5130  -12.0130 C   0  0  0  0  0  0  0  0  0  0  0  0
   12.5750  -11.8480  -10.9410 C   0  0  0  0  0  0  0  0  0  0  0  0
   12.9730  -12.2270   -9.5240 C   0  0  0  0  0  0  0  0  0  0  0  0
   13.4890  -13.6300   -9.5850 C   0  0  0  0  0  0  0  0  0  0  0  0
   13.1590  -14.5870   -8.5120 C   0  0  0  0  0  0  0  0  0  0  0  0
   12.0880  -14.1810   -7.7070 C   0  0  0  0  0  0  0  0  0  0  0  0
   12.2830  -14.1220   -6.3370 C   0  0  0  0  0  0  0  0  0  0  0  0
   13.5500  -14.4480   -5.8520 C   0  0  0  0  0  0  0  0  0  0  0  0
   14.0440  -13.7290   -4.7820 O   0  0  0  0  0  0  0  0  0  0  0  0
   12.9610  -13.5660   -3.8420 C   0  0  0  0  0  0  0  0  0  0  0  0
   12.9050  -12.2730   -2.9820 C   0  0  0  0  0  0  0  0  0  0  0  0
   12.8770  -11.1570   -3.4900 O   0  0  0  0  0  0  0  0  0  0  0  0
   12.9710  -12.2830   -1.5120 N   0  0  0  0  0  0  0  0  0  0  0  0
   11.7140  -12.7430   -0.8250 C   0  0  0  0  0  0  0  0  0  0  0  0
   11.7440  -12.0470    0.5230 C   0  0  0  0  0  0  0  0  0  0  0  0
   12.3760  -10.7130    0.1900 C   0  0  0  0  0  0  0  0  0  0  0  0
   13.4570  -11.0640   -0.8170 C   0  0  0  0  0  0  0  0  0  0  0  0
   14.4750  -15.1720   -6.6040 C   0  0  0  0  0  0  0  0  0  0  0  0
   14.2820  -15.2290   -7.9750 C   0  0  0  0  0  0  0  0  0  0  0  0
   14.2050  -14.0920  -10.5800 N   0  0  0  0  0  0  0  0  0  0  0  0
   14.4850  -13.1860  -11.5380 N   0  0  0  0  0  0  0  0  0  0  0  0
   12.6698  -10.7574  -11.0487 H   0  0  0  0  0  0  0  0  0  0  0  0
   11.5419  -12.1954  -11.0892 H   0  0  0  0  0  0  0  0  0  0  0  0
   13.7579  -11.5497   -9.1563 H   0  0  0  0  0  0  0  0  0  0  0  0
   12.1171  -12.1489   -8.8375 H   0  0  0  0  0  0  0  0  0  0  0  0
   11.1171  -13.9158   -8.1509 H   0  0  0  0  0  0  0  0  0  0  0  0
   11.4696  -13.8291   -5.6569 H   0  0  0  0  0  0  0  0  0  0  0  0
   12.0242  -13.6130   -4.4166 H   0  0  0  0  0  0  0  0  0  0  0  0
   13.1237  -14.3678   -3.1068 H   0  0  0  0  0  0  0  0  0  0  0  0
   13.6800  -13.0530   -1.2710 H   0  0  0  0  0  0  0  0  0  0  0  0
   10.8247  -12.4424   -1.3985 H   0  0  0  0  0  0  0  0  0  0  0  0
   11.6646  -13.8378   -0.7305 H   0  0  0  0  0  0  0  0  0  0  0  0
   10.7286  -11.9162    0.9254 H   0  0  0  0  0  0  0  0  0  0  0  0
   12.2897  -12.6099    1.2946 H   0  0  0  0  0  0  0  0  0  0  0  0
   11.6366  -10.0287   -0.2517 H   0  0  0  0  0  0  0  0  0  0  0  0
   12.7729  -10.1977    1.0771 H   0  0  0  0  0  0  0  0  0  0  0  0
   13.5956  -10.2418   -1.5345 H   0  0  0  0  0  0  0  0  0  0  0  0
   14.4291  -11.2319   -0.3303 H   0  0  0  0  0  0  0  0  0  0  0  0
   15.3263  -15.6790   -6.1264 H   0  0  0  0  0  0  0  0  0  0  0  0
   14.9913  -15.7638   -8.6238 H   0  0  0  0  0  0  0  0  0  0  0  0
  1  2  2  0
  2  3  1  0
  3  4  1  0
  4  5  1  0
  5  6  1  0
  6  7  2  0
  7  8  1  0
  8  9  2  0
  9 10  1  0
 10 11  1  0
 11 12  1  0
 12 13  2  0
 12 14  1  0
 14 15  1  0
 15 16  1  0
 16 17  1  0
 17 18  1  0
  9 19  1  0
 19 20  2  0
  5 21  2  0
 21 22  1  0
 22  2  1  0
 20  6  1  0
 18 14  1  0
  3 23  1  0
  3 24  1  0
  4 25  1  0
  4 26  1  0
  7 27  1  0
  8 28  1  0
 11 29  1  0
 11 30  1  0
 14 31  1  0
 15 32  1  0
 15 33  1  0
 16 34  1  0
 16 35  1  0
 17 36  1  0
 17 37  1  0
 18 38  1  0
 18 39  1  0
 19 40  1  0
 20 41  1  0
M  CHG  2  14   1  22  -1
M  END
>  <meeko>  (5) 
{"is_sidechain": [false], "free_energy": -6.29, "intermolecular_energy": -8.14, "internal_energy": -0.674}

$$$$
LIB_YZVIHKKOGKRSKO__M_PUB_ALL__e8__s20260927
     RDKit          3D

 41 43  0  0  0  0  0  0  0  0999 V2000
   -2.0370  -16.6950    0.1490 O   0  0  0  0  0  0  0  0  0  0  0  0
   -2.7200  -15.7550    0.5500 C   0  0  0  0  0  0  0  0  0  0  0  0
   -2.9140  -15.5120    2.0400 C   0  0  0  0  0  0  0  0  0  0  0  0
   -3.6470  -14.2170    2.3550 C   0  0  0  0  0  0  0  0  0  0  0  0
   -3.2790  -13.2450    1.2790 C   0  0  0  0  0  0  0  0  0  0  0  0
   -3.0260  -11.8300    1.6140 C   0  0  0  0  0  0  0  0  0  0  0  0
   -2.9980  -10.9860    0.4970 C   0  0  0  0  0  0  0  0  0  0  0  0
   -1.8840  -10.1860    0.3080 C   0  0  0  0  0  0  0  0  0  0  0  0
   -0.8450  -10.2970    1.2350 C   0  0  0  0  0  0  0  0  0  0  0  0
    0.4530  -10.2100    0.7740 O   0  0  0  0  0  0  0  0  0  0  0  0
    0.7270  -11.4230    0.0410 C   0  0  0  0  0  0  0  0  0  0  0  0
    1.9160  -12.3170    0.4880 C   0  0  0  0  0  0  0  0  0  0  0  0
    3.0090  -12.2660   -0.0650 O   0  0  0  0  0  0  0  0  0  0  0  0
    1.7990  -13.3430    1.5360 N   0  0  0  0  0  0  0  0  0  0  0  0
    2.9090  -14.3600    1.5520 C   0  0  0  0  0  0  0  0  0  0  0  0
    2.2750  -15.6010    2.1510 C   0  0  0  0  0  0  0  0  0  0  0  0
    0.8630  -15.5420    1.6120 C   0  0  0  0  0  0  0  0  0  0  0  0
    0.5100  -14.0660    1.6770 C   0  0  0  0  0  0  0  0  0  0  0  0
   -1.0280  -10.8590    2.4980 C   0  0  0  0  0  0  0  0  0  0  0  0
   -2.1430  -11.6620    2.6870 C   0  0  0  0  0  0  0  0  0  0  0  0
   -3.1220  -13.5840    0.0240 N   0  0  0  0  0  0  0  0  0  0  0  0
   -3.3640  -14.8840   -0.2410 N   0  0  0  0  0  0  0  0  0  0  0  0
   -3.4929  -16.3495    2.4565 H   0  0  0  0  0  0  0  0  0  0  0  0
   -1.9121  -15.4328    2.4872 H   0  0  0  0  0  0  0  0  0  0  0  0
   -4.7338  -14.3870    2.3575 H   0  0  0  0  0  0  0  0  0  0  0  0
   -3.3676  -13.8344    3.3477 H   0  0  0  0  0  0  0  0  0  0  0  0
   -3.8389  -10.9593   -0.2116 H   0  0  0  0  0  0  0  0  0  0  0  0
   -1.8195   -9.4890   -0.5405 H   0  0  0  0  0  0  0  0  0  0  0  0
   -0.1802  -12.0430    0.0919 H   0  0  0  0  0  0  0  0  0  0  0  0
    1.0225  -11.0685   -0.9575 H   0  0  0  0  0  0  0  0  0  0  0  0
    1.9350  -12.8140    2.4600 H   0  0  0  0  0  0  0  0  0  0  0  0
    3.2682  -14.5602    0.5318 H   0  0  0  0  0  0  0  0  0  0  0  0
    3.7832  -14.0175    2.1251 H   0  0  0  0  0  0  0  0  0  0  0  0
    2.7908  -16.5124    1.8146 H   0  0  0  0  0  0  0  0  0  0  0  0
    2.3234  -15.6307    3.2495 H   0  0  0  0  0  0  0  0  0  0  0  0
    0.8238  -15.9088    0.5757 H   0  0  0  0  0  0  0  0  0  0  0  0
    0.1640  -16.1714    2.1823 H   0  0  0  0  0  0  0  0  0  0  0  0
   -0.1729  -13.7976    0.8575 H   0  0  0  0  0  0  0  0  0  0  0  0
   -0.0008  -13.8097    2.6169 H   0  0  0  0  0  0  0  0  0  0  0  0
   -0.3145  -10.6724    3.3142 H   0  0  0  0  0  0  0  0  0  0  0  0
   -2.3283  -12.1533    3.6536 H   0  0  0  0  0  0  0  0  0  0  0  0
  1  2  2  0
  2  3  1  0
  3  4  1  0
  4  5  1  0
  5  6  1  0
  6  7  2  0
  7  8  1  0
  8  9  2  0
  9 10  1  0
 10 11  1  0
 11 12  1  0
 12 13  2  0
 12 14  1  0
 14 15  1  0
 15 16  1  0
 16 17  1  0
 17 18  1  0
  9 19  1  0
 19 20  2  0
  5 21  2  0
 21 22  1  0
 22  2  1  0
 20  6  1  0
 18 14  1  0
  3 23  1  0
  3 24  1  0
  4 25  1  0
  4 26  1  0
  7 27  1  0
  8 28  1  0
 11 29  1  0
 11 30  1  0
 14 31  1  0
 15 32  1  0
 15 33  1  0
 16 34  1  0
 16 35  1  0
 17 36  1  0
 17 37  1  0
 18 38  1  0
 18 39  1  0
 19 40  1  0
 20 41  1  0
M  CHG  2  14   1  22  -1
M  END
>  <meeko>  (6) 
{"is_sidechain": [false], "free_energy": -6.245, "intermolecular_energy": -7.406, "internal_energy": -1.349}

$$$$
LIB_YZVIHKKOGKRSKO__M_PUB_ALL__e8__s20260927
     RDKit          3D

 41 43  0  0  0  0  0  0  0  0999 V2000
   -2.1730  -18.9530    5.2720 O   0  0  0  0  0  0  0  0  0  0  0  0
   -2.3450  -18.2280    4.2940 C   0  0  0  0  0  0  0  0  0  0  0  0
   -2.1740  -16.7190    4.4010 C   0  0  0  0  0  0  0  0  0  0  0  0
   -2.2610  -16.0000    3.0640 C   0  0  0  0  0  0  0  0  0  0  0  0
   -1.7180  -16.9410    2.0360 C   0  0  0  0  0  0  0  0  0  0  0  0
   -0.8670  -16.4330    0.9430 C   0  0  0  0  0  0  0  0  0  0  0  0
    0.3660  -15.9320    1.3790 C   0  0  0  0  0  0  0  0  0  0  0  0
    0.7140  -14.6420    1.0140 C   0  0  0  0  0  0  0  0  0  0  0  0
   -0.2050  -13.9150    0.2560 C   0  0  0  0  0  0  0  0  0  0  0  0
   -0.3380  -12.5650    0.5090 O   0  0  0  0  0  0  0  0  0  0  0  0
   -0.4460  -12.4080    1.9410 C   0  0  0  0  0  0  0  0  0  0  0  0
   -1.5790  -11.5120    2.5120 C   0  0  0  0  0  0  0  0  0  0  0  0
   -1.4310  -10.8550    3.5370 O   0  0  0  0  0  0  0  0  0  0  0  0
   -2.9270  -11.4520    1.9270 N   0  0  0  0  0  0  0  0  0  0  0  0
   -3.6560  -12.7680    1.8790 C   0  0  0  0  0  0  0  0  0  0  0  0
   -4.6040  -12.6330    0.7030 C   0  0  0  0  0  0  0  0  0  0  0  0
   -3.8030  -11.7980   -0.2710 C   0  0  0  0  0  0  0  0  0  0  0  0
   -3.0990  -10.7820    0.6130 C   0  0  0  0  0  0  0  0  0  0  0  0
   -1.2400  -14.5270   -0.4510 C   0  0  0  0  0  0  0  0  0  0  0  0
   -1.5900  -15.8170   -0.0860 C   0  0  0  0  0  0  0  0  0  0  0  0
   -1.9220  -18.2340    2.0630 N   0  0  0  0  0  0  0  0  0  0  0  0
   -2.7050  -18.6580    3.0760 N   0  0  0  0  0  0  0  0  0  0  0  0
   -2.9625  -16.3255    5.0594 H   0  0  0  0  0  0  0  0  0  0  0  0
   -1.1655  -16.5362    4.8004 H   0  0  0  0  0  0  0  0  0  0  0  0
   -3.3075  -15.7504    2.8348 H   0  0  0  0  0  0  0  0  0  0  0  0
   -1.6903  -15.0598    3.0816 H   0  0  0  0  0  0  0  0  0  0  0  0
    1.0397  -16.5462    1.9945 H   0  0  0  0  0  0  0  0  0  0  0  0
    1.6795  -14.2064    1.3108 H   0  0  0  0  0  0  0  0  0  0  0  0
   -0.5827  -13.4129    2.3670 H   0  0  0  0  0  0  0  0  0  0  0  0
    0.4775  -11.8801    2.2212 H   0  0  0  0  0  0  0  0  0  0  0  0
   -3.5060  -10.8740    2.6220 H   0  0  0  0  0  0  0  0  0  0  0  0
   -2.9515  -13.5973    1.7176 H   0  0  0  0  0  0  0  0  0  0  0  0
   -4.1833  -12.9891    2.8187 H   0  0  0  0  0  0  0  0  0  0  0  0
   -4.8490  -13.6164    0.2753 H   0  0  0  0  0  0  0  0  0  0  0  0
   -5.5725  -12.1852    0.9704 H   0  0  0  0  0  0  0  0  0  0  0  0
   -3.0734  -12.4190   -0.8114 H   0  0  0  0  0  0  0  0  0  0  0  0
   -4.4301  -11.3273   -1.0425 H   0  0  0  0  0  0  0  0  0  0  0  0
   -2.1209  -10.5140    0.1871 H   0  0  0  0  0  0  0  0  0  0  0  0
   -3.6756   -9.8495    0.7025 H   0  0  0  0  0  0  0  0  0  0  0  0
   -1.7592  -14.0048   -1.2682 H   0  0  0  0  0  0  0  0  0  0  0  0
   -2.4136  -16.3431   -0.5909 H   0  0  0  0  0  0  0  0  0  0  0  0
  1  2  2  0
  2  3  1  0
  3  4  1  0
  4  5  1  0
  5  6  1  0
  6  7  2  0
  7  8  1  0
  8  9  2  0
  9 10  1  0
 10 11  1  0
 11 12  1  0
 12 13  2  0
 12 14  1  0
 14 15  1  0
 15 16  1  0
 16 17  1  0
 17 18  1  0
  9 19  1  0
 19 20  2  0
  5 21  2  0
 21 22  1  0
 22  2  1  0
 20  6  1  0
 18 14  1  0
  3 23  1  0
  3 24  1  0
  4 25  1  0
  4 26  1  0
  7 27  1  0
  8 28  1  0
 11 29  1  0
 11 30  1  0
 14 31  1  0
 15 32  1  0
 15 33  1  0
 16 34  1  0
 16 35  1  0
 17 36  1  0
 17 37  1  0
 18 38  1  0
 18 39  1  0
 19 40  1  0
 20 41  1  0
M  CHG  2  14   1  22  -1
M  END
>  <meeko>  (7) 
{"is_sidechain": [false], "free_energy": -6.208, "intermolecular_energy": -7.425, "internal_energy": -1.282}

$$$$
LIB_YZVIHKKOGKRSKO__M_PUB_ALL__e8__s20260927
     RDKit          3D

 41 43  0  0  0  0  0  0  0  0999 V2000
   12.8350  -10.4100   -9.9610 O   0  0  0  0  0  0  0  0  0  0  0  0
   12.1070  -11.2190  -10.5330 C   0  0  0  0  0  0  0  0  0  0  0  0
   11.8310  -12.5870   -9.9250 C   0  0  0  0  0  0  0  0  0  0  0  0
   10.7840  -13.3900  -10.6810 C   0  0  0  0  0  0  0  0  0  0  0  0
    9.8210  -12.4010  -11.2580 C   0  0  0  0  0  0  0  0  0  0  0  0
    8.3750  -12.6920  -11.2640 C   0  0  0  0  0  0  0  0  0  0  0  0
    7.5970  -11.6810  -10.6870 C   0  0  0  0  0  0  0  0  0  0  0  0
    6.7290  -12.0240   -9.6640 C   0  0  0  0  0  0  0  0  0  0  0  0
    6.7090  -13.3590   -9.2560 C   0  0  0  0  0  0  0  0  0  0  0  0
    6.5530  -13.6290   -7.9120 O   0  0  0  0  0  0  0  0  0  0  0  0
    5.4390  -12.8380   -7.4450 C   0  0  0  0  0  0  0  0  0  0  0  0
    5.2070  -12.7010   -5.9150 C   0  0  0  0  0  0  0  0  0  0  0  0
    6.1130  -12.8650   -5.1050 O   0  0  0  0  0  0  0  0  0  0  0  0
    3.8830  -12.4550   -5.3230 N   0  0  0  0  0  0  0  0  0  0  0  0
    3.7040  -11.0900   -4.7160 C   0  0  0  0  0  0  0  0  0  0  0  0
    2.6590  -11.2900   -3.6350 C   0  0  0  0  0  0  0  0  0  0  0  0
    2.9810  -12.6750   -3.1190 C   0  0  0  0  0  0  0  0  0  0  0  0
    3.3370  -13.4570   -4.3720 C   0  0  0  0  0  0  0  0  0  0  0  0
    7.2100  -14.3910  -10.0510 C   0  0  0  0  0  0  0  0  0  0  0  0
    8.0800  -14.0480  -11.0730 C   0  0  0  0  0  0  0  0  0  0  0  0
   10.1840  -11.2380  -11.7390 N   0  0  0  0  0  0  0  0  0  0  0  0
   11.5130  -11.0110  -11.7170 N   0  0  0  0  0  0  0  0  0  0  0  0
   12.7700  -13.1600   -9.9176 H   0  0  0  0  0  0  0  0  0  0  0  0
   11.4368  -12.4160   -8.9124 H   0  0  0  0  0  0  0  0  0  0  0  0
   11.2590  -13.9708  -11.4853 H   0  0  0  0  0  0  0  0  0  0  0  0
   10.2719  -14.1002  -10.0152 H   0  0  0  0  0  0  0  0  0  0  0  0
    7.6733  -10.6411  -11.0373 H   0  0  0  0  0  0  0  0  0  0  0  0
    6.0797  -11.2728   -9.1906 H   0  0  0  0  0  0  0  0  0  0  0  0
    5.5746  -11.8218   -7.8436 H   0  0  0  0  0  0  0  0  0  0  0  0
    4.5551  -13.3884   -7.7996 H   0  0  0  0  0  0  0  0  0  0  0  0
    3.2040  -12.4480   -6.1540 H   0  0  0  0  0  0  0  0  0  0  0  0
    4.6486  -10.7304   -4.2820 H   0  0  0  0  0  0  0  0  0  0  0  0
    3.3992  -10.3382   -5.4589 H   0  0  0  0  0  0  0  0  0  0  0  0
    2.7603  -10.5364   -2.8402 H   0  0  0  0  0  0  0  0  0  0  0  0
    1.6263  -11.1875   -3.9997 H   0  0  0  0  0  0  0  0  0  0  0  0
    3.8310  -12.6451   -2.4214 H   0  0  0  0  0  0  0  0  0  0  0  0
    2.1468  -13.1246   -2.5605 H   0  0  0  0  0  0  0  0  0  0  0  0
    4.0927  -14.2235   -4.1451 H   0  0  0  0  0  0  0  0  0  0  0  0
    2.4639  -13.9812   -4.7879 H   0  0  0  0  0  0  0  0  0  0  0  0
    6.9245  -15.4382   -9.8726 H   0  0  0  0  0  0  0  0  0  0  0  0
    8.5271  -14.8196  -11.7171 H   0  0  0  0  0  0  0  0  0  0  0  0
  1  2  2  0
  2  3  1  0
  3  4  1  0
  4  5  1  0
  5  6  1  0
  6  7  2  0
  7  8  1  0
  8  9  2  0
  9 10  1  0
 10 11  1  0
 11 12  1  0
 12 13  2  0
 12 14  1  0
 14 15  1  0
 15 16  1  0
 16 17  1  0
 17 18  1  0
  9 19  1  0
 19 20  2  0
  5 21  2  0
 21 22  1  0
 22  2  1  0
 20  6  1  0
 18 14  1  0
  3 23  1  0
  3 24  1  0
  4 25  1  0
  4 26  1  0
  7 27  1  0
  8 28  1  0
 11 29  1  0
 11 30  1  0
 14 31  1  0
 15 32  1  0
 15 33  1  0
 16 34  1  0
 16 35  1  0
 17 36  1  0
 17 37  1  0
 18 38  1  0
 18 39  1  0
 19 40  1  0
 20 41  1  0
M  CHG  2  14   1  22  -1
M  END
>  <meeko>  (8) 
{"is_sidechain": [false], "free_energy": -6.205, "intermolecular_energy": -8.013, "internal_energy": -0.691}

$$$$
LIB_YZVIHKKOGKRSKO__M_PUB_ALL__e8__s20260927
     RDKit          3D

 41 43  0  0  0  0  0  0  0  0999 V2000
   -0.9230   -8.7890    2.0140 O   0  0  0  0  0  0  0  0  0  0  0  0
   -1.2290   -9.7870    1.3650 C   0  0  0  0  0  0  0  0  0  0  0  0
   -0.4510  -11.0860    1.5170 C   0  0  0  0  0  0  0  0  0  0  0  0
   -1.0660  -12.2570    0.7680 C   0  0  0  0  0  0  0  0  0  0  0  0
   -2.5460  -12.0360    0.7710 C   0  0  0  0  0  0  0  0  0  0  0  0
   -3.4640  -13.1750    0.9650 C   0  0  0  0  0  0  0  0  0  0  0  0
   -4.2710  -13.0560    2.1040 C   0  0  0  0  0  0  0  0  0  0  0  0
   -4.2620  -14.0920    3.0240 C   0  0  0  0  0  0  0  0  0  0  0  0
   -3.4230  -15.1770    2.7650 C   0  0  0  0  0  0  0  0  0  0  0  0
   -2.7800  -15.7740    3.8310 O   0  0  0  0  0  0  0  0  0  0  0  0
   -3.6370  -16.8350    4.3050 C   0  0  0  0  0  0  0  0  0  0  0  0
   -4.1100  -16.8100    5.7840 C   0  0  0  0  0  0  0  0  0  0  0  0
   -3.3630  -17.1090    6.7090 O   0  0  0  0  0  0  0  0  0  0  0  0
   -5.4970  -16.5180    6.1790 N   0  0  0  0  0  0  0  0  0  0  0  0
   -6.4950  -16.5490    5.0530 C   0  0  0  0  0  0  0  0  0  0  0  0
   -7.5940  -15.6020    5.4960 C   0  0  0  0  0  0  0  0  0  0  0  0
   -6.8260  -14.5310    6.2390 C   0  0  0  0  0  0  0  0  0  0  0  0
   -5.7610  -15.3060    6.9950 C   0  0  0  0  0  0  0  0  0  0  0  0
   -2.9110  -15.4390    1.4950 C   0  0  0  0  0  0  0  0  0  0  0  0
   -2.9180  -14.4030    0.5740 C   0  0  0  0  0  0  0  0  0  0  0  0
   -3.0990  -10.8550    0.6480 N   0  0  0  0  0  0  0  0  0  0  0  0
   -2.2270   -9.8430    0.4710 N   0  0  0  0  0  0  0  0  0  0  0  0
    0.5686  -10.9269    1.1361 H   0  0  0  0  0  0  0  0  0  0  0  0
   -0.4636  -11.3454    2.5859 H   0  0  0  0  0  0  0  0  0  0  0  0
   -0.6888  -12.2872   -0.2649 H   0  0  0  0  0  0  0  0  0  0  0  0
   -0.8066  -13.2136    1.2451 H   0  0  0  0  0  0  0  0  0  0  0  0
   -4.8949  -12.1642    2.2636 H   0  0  0  0  0  0  0  0  0  0  0  0
   -4.8925  -14.0606    3.9248 H   0  0  0  0  0  0  0  0  0  0  0  0
   -4.5398  -16.8265    3.6766 H   0  0  0  0  0  0  0  0  0  0  0  0
   -3.0066  -17.7343    4.2424 H   0  0  0  0  0  0  0  0  0  0  0  0
   -5.7920  -17.3480    6.7930 H   0  0  0  0  0  0  0  0  0  0  0  0
   -6.0356  -16.2009    4.1161 H   0  0  0  0  0  0  0  0  0  0  0  0
   -6.8709  -17.5634    4.8541 H   0  0  0  0  0  0  0  0  0  0  0  0
   -8.1277  -15.1806    4.6314 H   0  0  0  0  0  0  0  0  0  0  0  0
   -8.3703  -16.0870    6.1060 H   0  0  0  0  0  0  0  0  0  0  0  0
   -6.3679  -13.8190    5.5367 H   0  0  0  0  0  0  0  0  0  0  0  0
   -7.4667  -13.9315    6.9024 H   0  0  0  0  0  0  0  0  0  0  0  0
   -4.8461  -14.7037    7.0956 H   0  0  0  0  0  0  0  0  0  0  0  0
   -6.0893  -15.5633    8.0129 H   0  0  0  0  0  0  0  0  0  0  0  0
   -2.5159  -16.4317    1.2333 H   0  0  0  0  0  0  0  0  0  0  0  0
   -2.5058  -14.5422   -0.4363 H   0  0  0  0  0  0  0  0  0  0  0  0
  1  2  2  0
  2  3  1  0
  3  4  1  0
  4  5  1  0
  5  6  1  0
  6  7  2  0
  7  8  1  0
  8  9  2  0
  9 10  1  0
 10 11  1  0
 11 12  1  0
 12 13  2  0
 12 14  1  0
 14 15  1  0
 15 16  1  0
 16 17  1  0
 17 18  1  0
  9 19  1  0
 19 20  2  0
  5 21  2  0
 21 22  1  0
 22  2  1  0
 20  6  1  0
 18 14  1  0
  3 23  1  0
  3 24  1  0
  4 25  1  0
  4 26  1  0
  7 27  1  0
  8 28  1  0
 11 29  1  0
 11 30  1  0
 14 31  1  0
 15 32  1  0
 15 33  1  0
 16 34  1  0
 16 35  1  0
 17 36  1  0
 17 37  1  0
 18 38  1  0
 18 39  1  0
 19 40  1  0
 20 41  1  0
M  CHG  2  14   1  22  -1
M  END
>  <meeko>  (9) 
{"is_sidechain": [false], "free_energy": -6.169, "intermolecular_energy": -7.757, "internal_energy": -0.9}

$$$$
