LIB_SRPZEFNNDSQZCP__M_PUB_ALL__e8__s20260927
     RDKit          3D

 59 61  0  0  0  0  0  0  0  0999 V2000
    0.0730  -17.4320    0.0860 C   0  0  0  0  0  0  0  0  0  0  0  0
   -0.0120  -15.9130    0.2890 C   0  0  0  0  0  0  0  0  0  0  0  0
    1.2000  -15.4540    1.1060 C   0  0  0  0  0  0  0  0  0  0  0  0
   -0.0670  -15.2310   -1.0830 C   0  0  0  0  0  0  0  0  0  0  0  0
   -1.2500  -15.7030    1.0270 O   0  0  0  0  0  0  0  0  0  0  0  0
   -2.2270  -14.9500    0.5130 C   0  0  0  0  0  0  0  0  0  0  0  0
   -3.1540  -15.2540   -0.2060 O   0  0  0  0  0  0  0  0  0  0  0  0
   -2.1580  -13.5430    0.8580 N   0  0  0  0  0  0  0  0  0  0  0  0
   -2.2400  -13.3020    2.3560 C   0  0  0  0  0  0  0  0  0  0  0  0
   -3.2250  -12.0990    2.4110 C   0  0  2  0  0  0  0  0  0  0  0  0
   -4.2880  -12.6130    1.4390 C   0  0  0  0  0  0  0  0  0  0  0  0
   -3.3090  -12.7160    0.2650 C   0  0  1  0  0  0  0  0  0  0  0  0
   -2.8650  -11.2310    0.1710 C   0  0  0  0  0  0  0  0  0  0  0  0
   -2.7220  -10.8650    1.6320 N   0  0  0  0  0  0  0  0  0  0  0  0
   -1.1510  -10.4240    2.0660 S   0  0  0  0  0  0  0  0  0  0  0  0
   -1.3170   -9.0130    2.2950 O   0  0  0  0  0  0  0  0  0  0  0  0
   -0.8790  -11.3520    3.1430 O   0  0  0  0  0  0  0  0  0  0  0  0
   -0.0960  -10.7150    0.6940 C   0  0  0  0  0  0  0  0  0  0  0  0
   -0.0660   -9.8130   -0.3680 C   0  0  0  0  0  0  0  0  0  0  0  0
    0.8010  -10.0410   -1.4420 C   0  0  0  0  0  0  0  0  0  0  0  0
    1.6390  -11.1690   -1.4790 C   0  0  0  0  0  0  0  0  0  0  0  0
    2.5960  -11.4540   -2.6570 C   0  0  0  0  0  0  0  0  0  0  0  0
    2.0640  -12.6480   -3.4770 C   0  0  0  0  0  0  0  0  0  0  0  0
    2.7600  -10.2640   -3.6310 C   0  0  0  0  0  0  0  0  0  0  0  0
    4.0010  -11.7930   -2.1140 C   0  0  0  0  0  0  0  0  0  0  0  0
    1.5650  -12.0720   -0.4000 C   0  0  0  0  0  0  0  0  0  0  0  0
    0.7040  -11.8560    0.6790 C   0  0  0  0  0  0  0  0  0  0  0  0
    0.1010  -17.9318    1.0655 H   0  0  0  0  0  0  0  0  0  0  0  0
   -0.8073  -17.7766   -0.4765 H   0  0  0  0  0  0  0  0  0  0  0  0
    0.9862  -17.6762   -0.4765 H   0  0  0  0  0  0  0  0  0  0  0  0
    0.9729  -15.5400    2.1788 H   0  0  0  0  0  0  0  0  0  0  0  0
    2.0668  -16.0861    0.8629 H   0  0  0  0  0  0  0  0  0  0  0  0
    1.4306  -14.4063    0.8629 H   0  0  0  0  0  0  0  0  0  0  0  0
   -0.1548  -14.1428   -0.9483 H   0  0  0  0  0  0  0  0  0  0  0  0
    0.8524  -15.4582   -1.6425 H   0  0  0  0  0  0  0  0  0  0  0  0
   -0.9381  -15.6026   -1.6425 H   0  0  0  0  0  0  0  0  0  0  0  0
   -1.2250  -13.2680    0.5050 H   0  0  0  0  0  0  0  0  0  0  0  0
   -2.6432  -14.1784    2.8845 H   0  0  0  0  0  0  0  0  0  0  0  0
   -1.2693  -13.1151    2.8385 H   0  0  0  0  0  0  0  0  0  0  0  0
   -3.4584  -11.8250    3.4505 H   0  0  0  0  0  0  0  0  0  0  0  0
   -4.7144  -13.5828    1.7351 H   0  0  0  0  0  0  0  0  0  0  0  0
   -5.2045  -12.0196    1.3049 H   0  0  0  0  0  0  0  0  0  0  0  0
   -3.6552  -13.1401   -0.6891 H   0  0  0  0  0  0  0  0  0  0  0  0
   -1.9089  -11.1307   -0.3637 H   0  0  0  0  0  0  0  0  0  0  0  0
   -3.5634  -10.5888   -0.3856 H   0  0  0  0  0  0  0  0  0  0  0  0
   -3.2760  -10.0400    1.8860 H   0  0  0  0  0  0  0  0  0  0  0  0
   -0.7194   -8.9281   -0.3618 H   0  0  0  0  0  0  0  0  0  0  0  0
    0.8275   -9.3228   -2.2747 H   0  0  0  0  0  0  0  0  0  0  0  0
    1.7133  -13.4351   -2.7933 H   0  0  0  0  0  0  0  0  0  0  0  0
    1.2293  -12.3145   -4.1111 H   0  0  0  0  0  0  0  0  0  0  0  0
    2.8701  -13.0456   -4.1111 H   0  0  0  0  0  0  0  0  0  0  0  0
    2.8881   -9.3348   -3.0564 H   0  0  0  0  0  0  0  0  0  0  0  0
    3.6440  -10.4280   -4.2647 H   0  0  0  0  0  0  0  0  0  0  0  0
    1.8646  -10.1828   -4.2647 H   0  0  0  0  0  0  0  0  0  0  0  0
    3.9801  -11.7880   -1.0142 H   0  0  0  0  0  0  0  0  0  0  0  0
    4.3013  -12.7894   -2.4705 H   0  0  0  0  0  0  0  0  0  0  0  0
    4.7226  -11.0432   -2.4705 H   0  0  0  0  0  0  0  0  0  0  0  0
    2.2010  -12.9695   -0.4073 H   0  0  0  0  0  0  0  0  0  0  0  0
    0.6581  -12.5784    1.5073 H   0  0  0  0  0  0  0  0  0  0  0  0
  1  2  1  0
  2  3  1  0
  2  4  1  0
  2  5  1  0
  5  6  1  0
  6  7  2  0
  6  8  1  0
  8  9  1  0
  9 10  1  0
 10 11  1  0
 11 12  1  0
 12 13  1  0
 13 14  1  0
 14 15  1  0
 15 16  2  0
 15 17  2  0
 15 18  1  0
 18 19  2  0
 19 20  1  0
 20 21  2  0
 21 22  1  0
 22 23  1  0
 22 24  1  0
 22 25  1  0
 21 26  1  0
 26 27  2  0
 12  8  1  0
 27 18  1  0
 14 10  1  0
  1 28  1  0
  1 29  1  0
  1 30  1  0
  3 31  1  0
  3 32  1  0
  3 33  1  0
  4 34  1  0
  4 35  1  0
  4 36  1  0
  8 37  1  0
  9 38  1  0
  9 39  1  0
 10 40  1  1
 11 41  1  0
 11 42  1  0
 12 43  1  6
 13 44  1  0
 13 45  1  0
 14 46  1  0
 19 47  1  0
 20 48  1  0
 23 49  1  0
 23 50  1  0
 23 51  1  0
 24 52  1  0
 24 53  1  0
 24 54  1  0
 25 55  1  0
 25 56  1  0
 25 57  1  0
 26 58  1  0
 27 59  1  0
M  CHG  2   8   1  14   1
M  END
>  <meeko>  (1) 
{"is_sidechain": [false], "free_energy": -7.156, "intermolecular_energy": -9.666, "internal_energy": -0.102}

$$$$
LIB_SRPZEFNNDSQZCP__M_PUB_ALL__e8__s20260927
     RDKit          3D

 59 61  0  0  0  0  0  0  0  0999 V2000
    7.2910   -9.4290    1.0120 C   0  0  0  0  0  0  0  0  0  0  0  0
    7.2080  -10.8670    0.4810 C   0  0  0  0  0  0  0  0  0  0  0  0
    6.1370  -11.6250    1.2710 C   0  0  0  0  0  0  0  0  0  0  0  0
    6.8910  -10.8250   -1.0180 C   0  0  0  0  0  0  0  0  0  0  0  0
    8.5300  -11.4300    0.7200 O   0  0  0  0  0  0  0  0  0  0  0  0
    8.9060  -12.5600    0.1130 C   0  0  0  0  0  0  0  0  0  0  0  0
    8.4170  -13.6680    0.1480 O   0  0  0  0  0  0  0  0  0  0  0  0
   10.0970  -12.4440   -0.7080 N   0  0  0  0  0  0  0  0  0  0  0  0
   10.3650  -13.6940   -1.5300 C   0  0  0  0  0  0  0  0  0  0  0  0
   11.9000  -13.8570   -1.3300 C   0  0  2  0  0  0  0  0  0  0  0  0
   11.9700  -13.6420    0.1830 C   0  0  0  0  0  0  0  0  0  0  0  0
   11.3790  -12.2310    0.1100 C   0  0  1  0  0  0  0  0  0  0  0  0
   12.4440  -11.5520   -0.7910 C   0  0  0  0  0  0  0  0  0  0  0  0
   12.7090  -12.6350   -1.8140 N   0  0  0  0  0  0  0  0  0  0  0  0
   12.3160  -12.1850   -3.3930 S   0  0  0  0  0  0  0  0  0  0  0  0
   11.0020  -11.6310   -3.2000 O   0  0  0  0  0  0  0  0  0  0  0  0
   13.4530  -11.3650   -3.7500 O   0  0  0  0  0  0  0  0  0  0  0  0
   12.2440  -13.6360   -4.3790 C   0  0  0  0  0  0  0  0  0  0  0  0
   13.3700  -14.4450   -4.5150 C   0  0  0  0  0  0  0  0  0  0  0  0
   13.2910  -15.6140   -5.2790 C   0  0  0  0  0  0  0  0  0  0  0  0
   12.0990  -15.9880   -5.9240 C   0  0  0  0  0  0  0  0  0  0  0  0
   11.9860  -17.2640   -6.7850 C   0  0  0  0  0  0  0  0  0  0  0  0
   10.5860  -17.3300   -7.4310 C   0  0  0  0  0  0  0  0  0  0  0  0
   13.0240  -17.3420   -7.9270 C   0  0  0  0  0  0  0  0  0  0  0  0
   12.1970  -18.5090   -5.8960 C   0  0  0  0  0  0  0  0  0  0  0  0
   10.9870  -15.1330   -5.7840 C   0  0  0  0  0  0  0  0  0  0  0  0
   11.0520  -13.9630   -5.0230 C   0  0  0  0  0  0  0  0  0  0  0  0
    7.2902   -9.4437    2.1119 H   0  0  0  0  0  0  0  0  0  0  0  0
    8.2178   -8.9582    0.6523 H   0  0  0  0  0  0  0  0  0  0  0  0
    6.4245   -8.8547    0.6523 H   0  0  0  0  0  0  0  0  0  0  0  0
    6.3172  -11.4974    2.3486 H   0  0  0  0  0  0  0  0  0  0  0  0
    5.1434  -11.2279    1.0159 H   0  0  0  0  0  0  0  0  0  0  0  0
    6.1811  -12.6941    1.0159 H   0  0  0  0  0  0  0  0  0  0  0  0
    5.8097  -10.6817   -1.1602 H   0  0  0  0  0  0  0  0  0  0  0  0
    7.4359   -9.9912   -1.4848 H   0  0  0  0  0  0  0  0  0  0  0  0
    7.1999  -11.7719   -1.4848 H   0  0  0  0  0  0  0  0  0  0  0  0
    9.8660  -11.6520   -1.3320 H   0  0  0  0  0  0  0  0  0  0  0  0
    9.8123  -14.5609   -1.1389 H   0  0  0  0  0  0  0  0  0  0  0  0
   10.0497  -13.6218   -2.5814 H   0  0  0  0  0  0  0  0  0  0  0  0
   12.2680  -14.7739   -1.8136 H   0  0  0  0  0  0  0  0  0  0  0  0
   11.3443  -14.3461    0.7511 H   0  0  0  0  0  0  0  0  0  0  0  0
   12.9384  -13.7782    0.6866 H   0  0  0  0  0  0  0  0  0  0  0  0
   11.1712  -11.6863    1.0428 H   0  0  0  0  0  0  0  0  0  0  0  0
   12.0485  -10.6409   -1.2637 H   0  0  0  0  0  0  0  0  0  0  0  0
   13.3413  -11.2170   -0.2500 H   0  0  0  0  0  0  0  0  0  0  0  0
   13.7040  -12.8780   -1.8800 H   0  0  0  0  0  0  0  0  0  0  0  0
   14.3146  -14.1664   -4.0250 H   0  0  0  0  0  0  0  0  0  0  0  0
   14.1801  -16.2542   -5.3773 H   0  0  0  0  0  0  0  0  0  0  0  0
    9.8197  -17.3661   -6.6426 H   0  0  0  0  0  0  0  0  0  0  0  0
   10.4279  -16.4383   -8.0554 H   0  0  0  0  0  0  0  0  0  0  0  0
   10.5125  -18.2326   -8.0554 H   0  0  0  0  0  0  0  0  0  0  0  0
   14.0346  -17.4179   -7.4994 H   0  0  0  0  0  0  0  0  0  0  0  0
   12.8209  -18.2274   -8.5473 H   0  0  0  0  0  0  0  0  0  0  0  0
   12.9555  -16.4362   -8.5473 H   0  0  0  0  0  0  0  0  0  0  0  0
   12.1473  -18.2160   -4.8369 H   0  0  0  0  0  0  0  0  0  0  0  0
   11.4115  -19.2490   -6.1089 H   0  0  0  0  0  0  0  0  0  0  0  0
   13.1825  -18.9488   -6.1089 H   0  0  0  0  0  0  0  0  0  0  0  0
   10.0440  -15.3936   -6.2867 H   0  0  0  0  0  0  0  0  0  0  0  0
   10.1730  -13.3078   -4.9332 H   0  0  0  0  0  0  0  0  0  0  0  0
  1  2  1  0
  2  3  1  0
  2  4  1  0
  2  5  1  0
  5  6  1  0
  6  7  2  0
  6  8  1  0
  8  9  1  0
  9 10  1  0
 10 11  1  0
 11 12  1  0
 12 13  1  0
 13 14  1  0
 14 15  1  0
 15 16  2  0
 15 17  2  0
 15 18  1  0
 18 19  2  0
 19 20  1  0
 20 21  2  0
 21 22  1  0
 22 23  1  0
 22 24  1  0
 22 25  1  0
 21 26  1  0
 26 27  2  0
 12  8  1  0
 27 18  1  0
 14 10  1  0
  1 28  1  0
  1 29  1  0
  1 30  1  0
  3 31  1  0
  3 32  1  0
  3 33  1  0
  4 34  1  0
  4 35  1  0
  4 36  1  0
  8 37  1  0
  9 38  1  0
  9 39  1  0
 10 40  1  1
 11 41  1  0
 11 42  1  0
 12 43  1  1
 13 44  1  0
 13 45  1  0
 14 46  1  0
 19 47  1  0
 20 48  1  0
 23 49  1  0
 23 50  1  0
 23 51  1  0
 24 52  1  0
 24 53  1  0
 24 54  1  0
 25 55  1  0
 25 56  1  0
 25 57  1  0
 26 58  1  0
 27 59  1  0
M  CHG  2   8   1  14   1
M  END
>  <meeko>  (2) 
{"is_sidechain": [false], "free_energy": -6.911, "intermolecular_energy": -9.165, "internal_energy": -0.272}

$$$$
LIB_SRPZEFNNDSQZCP__M_PUB_ALL__e8__s20260927
     RDKit          3D

 59 61  0  0  0  0  0  0  0  0999 V2000
   13.1560  -10.6980   -9.9060 C   0  0  0  0  0  0  0  0  0  0  0  0
   12.8780  -12.1260  -10.3970 C   0  0  0  0  0  0  0  0  0  0  0  0
   13.9510  -12.5160  -11.4190 C   0  0  0  0  0  0  0  0  0  0  0  0
   12.8660  -13.0720   -9.1910 C   0  0  0  0  0  0  0  0  0  0  0  0
   11.5630  -12.0570  -11.0210 O   0  0  0  0  0  0  0  0  0  0  0  0
   10.8820  -13.1750  -11.2910 C   0  0  0  0  0  0  0  0  0  0  0  0
   11.1140  -14.0610  -12.0840 O   0  0  0  0  0  0  0  0  0  0  0  0
    9.6620  -13.3460  -10.5240 N   0  0  0  0  0  0  0  0  0  0  0  0
    9.0880  -14.7490  -10.6420 C   0  0  0  0  0  0  0  0  0  0  0  0
    7.5760  -14.4360  -10.8320 C   0  0  2  0  0  0  0  0  0  0  0  0
    7.6890  -13.3300  -11.8830 C   0  0  0  0  0  0  0  0  0  0  0  0
    8.5250  -12.4190  -10.9780 C   0  0  1  0  0  0  0  0  0  0  0  0
    7.5260  -12.2360   -9.8050 C   0  0  0  0  0  0  0  0  0  0  0  0
    6.9680  -13.6350   -9.6620 N   0  0  0  0  0  0  0  0  0  0  0  0
    7.2890  -14.3410   -8.1620 S   0  0  0  0  0  0  0  0  0  0  0  0
    7.0420  -15.7280   -8.4540 O   0  0  0  0  0  0  0  0  0  0  0  0
    8.6170  -13.8370   -7.8850 O   0  0  0  0  0  0  0  0  0  0  0  0
    6.1220  -13.7280   -7.0030 C   0  0  0  0  0  0  0  0  0  0  0  0
    5.4090  -12.5620   -7.2780 C   0  0  0  0  0  0  0  0  0  0  0  0
    4.4600  -12.1010   -6.3590 C   0  0  0  0  0  0  0  0  0  0  0  0
    4.2160  -12.7840   -5.1550 C   0  0  0  0  0  0  0  0  0  0  0  0
    3.1850  -12.2910   -4.1160 C   0  0  0  0  0  0  0  0  0  0  0  0
    1.8360  -13.0040   -4.3470 C   0  0  0  0  0  0  0  0  0  0  0  0
    3.5990  -12.5530   -2.6500 C   0  0  0  0  0  0  0  0  0  0  0  0
    2.9880  -10.7660   -4.2650 C   0  0  0  0  0  0  0  0  0  0  0  0
    4.9720  -13.9450   -4.8990 C   0  0  0  0  0  0  0  0  0  0  0  0
    5.9210  -14.4170   -5.8080 C   0  0  0  0  0  0  0  0  0  0  0  0
   13.1590  -10.6825   -8.8061 H   0  0  0  0  0  0  0  0  0  0  0  0
   14.1357  -10.3658  -10.2801 H   0  0  0  0  0  0  0  0  0  0  0  0
   12.3725  -10.0226  -10.2801 H   0  0  0  0  0  0  0  0  0  0  0  0
   14.8579  -12.8456  -10.8908 H   0  0  0  0  0  0  0  0  0  0  0  0
   13.5759  -13.3353  -12.0499 H   0  0  0  0  0  0  0  0  0  0  0  0
   14.1895  -11.6471  -12.0499 H   0  0  0  0  0  0  0  0  0  0  0  0
   12.8735  -12.4824   -8.2624 H   0  0  0  0  0  0  0  0  0  0  0  0
   11.9599  -13.6949   -9.2226 H   0  0  0  0  0  0  0  0  0  0  0  0
   13.7560  -13.7176   -9.2226 H   0  0  0  0  0  0  0  0  0  0  0  0
    9.9780  -13.1720   -9.5550 H   0  0  0  0  0  0  0  0  0  0  0  0
    9.5021  -15.2832  -11.5098 H   0  0  0  0  0  0  0  0  0  0  0  0
    9.3116  -15.4038   -9.7869 H   0  0  0  0  0  0  0  0  0  0  0  0
    6.9994  -15.3570  -11.0032 H   0  0  0  0  0  0  0  0  0  0  0  0
    8.2219  -13.6470  -12.7916 H   0  0  0  0  0  0  0  0  0  0  0  0
    6.7636  -12.9268  -12.3201 H   0  0  0  0  0  0  0  0  0  0  0  0
    8.9178  -11.4740  -11.3813 H   0  0  0  0  0  0  0  0  0  0  0  0
    8.0389  -11.9124   -8.8873 H   0  0  0  0  0  0  0  0  0  0  0  0
    6.7621  -11.4648   -9.9830 H   0  0  0  0  0  0  0  0  0  0  0  0
    5.9440  -13.6570   -9.7170 H   0  0  0  0  0  0  0  0  0  0  0  0
    5.5912  -12.0083   -8.2109 H   0  0  0  0  0  0  0  0  0  0  0  0
    3.8933  -11.1853   -6.5833 H   0  0  0  0  0  0  0  0  0  0  0  0
    1.3782  -13.2459   -3.3765 H   0  0  0  0  0  0  0  0  0  0  0  0
    1.1644  -12.3431   -4.9146 H   0  0  0  0  0  0  0  0  0  0  0  0
    2.0038  -13.9312   -4.9146 H   0  0  0  0  0  0  0  0  0  0  0  0
    2.8660  -12.0892   -1.9735 H   0  0  0  0  0  0  0  0  0  0  0  0
    3.6325  -13.6371   -2.4666 H   0  0  0  0  0  0  0  0  0  0  0  0
    4.5931  -12.1192   -2.4666 H   0  0  0  0  0  0  0  0  0  0  0  0
    2.9284  -10.3049   -3.2681 H   0  0  0  0  0  0  0  0  0  0  0  0
    3.8384  -10.3386   -4.8165 H   0  0  0  0  0  0  0  0  0  0  0  0
    2.0569  -10.5687   -4.8165 H   0  0  0  0  0  0  0  0  0  0  0  0
    4.8106  -14.4935   -3.9593 H   0  0  0  0  0  0  0  0  0  0  0  0
    6.5036  -15.3226   -5.5836 H   0  0  0  0  0  0  0  0  0  0  0  0
  1  2  1  0
  2  3  1  0
  2  4  1  0
  2  5  1  0
  5  6  1  0
  6  7  2  0
  6  8  1  0
  8  9  1  0
  9 10  1  0
 10 11  1  0
 11 12  1  0
 12 13  1  0
 13 14  1  0
 14 15  1  0
 15 16  2  0
 15 17  2  0
 15 18  1  0
 18 19  2  0
 19 20  1  0
 20 21  2  0
 21 22  1  0
 22 23  1  0
 22 24  1  0
 22 25  1  0
 21 26  1  0
 26 27  2  0
 12  8  1  0
 27 18  1  0
 14 10  1  0
  1 28  1  0
  1 29  1  0
  1 30  1  0
  3 31  1  0
  3 32  1  0
  3 33  1  0
  4 34  1  0
  4 35  1  0
  4 36  1  0
  8 37  1  0
  9 38  1  0
  9 39  1  0
 10 40  1  6
 11 41  1  0
 11 42  1  0
 12 43  1  6
 13 44  1  0
 13 45  1  0
 14 46  1  0
 19 47  1  0
 20 48  1  0
 23 49  1  0
 23 50  1  0
 23 51  1  0
 24 52  1  0
 24 53  1  0
 24 54  1  0
 25 55  1  0
 25 56  1  0
 25 57  1  0
 26 58  1  0
 27 59  1  0
M  CHG  2   8   1  14   1
M  END
>  <meeko>  (3) 
{"is_sidechain": [false], "free_energy": -6.749, "intermolecular_energy": -8.92, "internal_energy": -0.297}

$$$$
LIB_SRPZEFNNDSQZCP__M_PUB_ALL__e8__s20260927
     RDKit          3D

 59 61  0  0  0  0  0  0  0  0999 V2000
   -6.5680  -14.3380    8.1890 C   0  0  0  0  0  0  0  0  0  0  0  0
   -6.9310  -15.3100    7.0590 C   0  0  0  0  0  0  0  0  0  0  0  0
   -6.7160  -14.6100    5.7130 C   0  0  0  0  0  0  0  0  0  0  0  0
   -6.0680  -16.5700    7.1920 C   0  0  0  0  0  0  0  0  0  0  0  0
   -8.3390  -15.6190    7.2690 O   0  0  0  0  0  0  0  0  0  0  0  0
   -8.9740  -16.4740    6.4610 C   0  0  0  0  0  0  0  0  0  0  0  0
   -9.0700  -16.4880    5.2540 O   0  0  0  0  0  0  0  0  0  0  0  0
   -9.6720  -17.5500    7.1410 N   0  0  0  0  0  0  0  0  0  0  0  0
  -10.9290  -17.9880    6.4080 C   0  0  0  0  0  0  0  0  0  0  0  0
  -11.9330  -18.1190    7.5900 C   0  0  2  0  0  0  0  0  0  0  0  0
  -11.6250  -16.8070    8.3140 C   0  0  0  0  0  0  0  0  0  0  0  0
  -10.1530  -17.1660    8.5480 C   0  0  1  0  0  0  0  0  0  0  0  0
  -10.3350  -18.4580    9.3880 C   0  0  0  0  0  0  0  0  0  0  0  0
  -11.4800  -19.1320    8.6630 N   0  0  0  0  0  0  0  0  0  0  0  0
  -11.0720  -20.6310    8.0030 S   0  0  0  0  0  0  0  0  0  0  0  0
  -11.8400  -20.6130    6.7860 O   0  0  0  0  0  0  0  0  0  0  0  0
   -9.6270  -20.5630    8.0030 O   0  0  0  0  0  0  0  0  0  0  0  0
  -11.6490  -21.8860    9.0860 C   0  0  0  0  0  0  0  0  0  0  0  0
  -13.0130  -22.1590    9.1760 C   0  0  0  0  0  0  0  0  0  0  0  0
  -13.4580  -23.1820   10.0210 C   0  0  0  0  0  0  0  0  0  0  0  0
  -12.5570  -23.9370   10.7920 C   0  0  0  0  0  0  0  0  0  0  0  0
  -13.0200  -25.0620   11.7430 C   0  0  0  0  0  0  0  0  0  0  0  0
  -14.4830  -24.8130   12.1650 C   0  0  0  0  0  0  0  0  0  0  0  0
  -12.9560  -26.4750   11.1190 C   0  0  0  0  0  0  0  0  0  0  0  0
  -12.1230  -25.0800   13.0000 C   0  0  0  0  0  0  0  0  0  0  0  0
  -11.1880  -23.6190   10.6940 C   0  0  0  0  0  0  0  0  0  0  0  0
  -10.7300  -22.6000    9.8530 C   0  0  0  0  0  0  0  0  0  0  0  0
   -6.7485  -14.8213    9.1605 H   0  0  0  0  0  0  0  0  0  0  0  0
   -5.5062  -14.0621    8.1084 H   0  0  0  0  0  0  0  0  0  0  0  0
   -7.1890  -13.4336    8.1084 H   0  0  0  0  0  0  0  0  0  0  0  0
   -6.3971  -13.5716    5.8865 H   0  0  0  0  0  0  0  0  0  0  0  0
   -5.9397  -15.1416    5.1431 H   0  0  0  0  0  0  0  0  0  0  0  0
   -7.6569  -14.6142    5.1431 H   0  0  0  0  0  0  0  0  0  0  0  0
   -5.9124  -16.7971    8.2570 H   0  0  0  0  0  0  0  0  0  0  0  0
   -6.5772  -17.4160    6.7072 H   0  0  0  0  0  0  0  0  0  0  0  0
   -5.0952  -16.4010    6.7072 H   0  0  0  0  0  0  0  0  0  0  0  0
   -8.9730  -18.3130    7.1350 H   0  0  0  0  0  0  0  0  0  0  0  0
  -11.2574  -17.2303    5.6813 H   0  0  0  0  0  0  0  0  0  0  0  0
  -10.8095  -18.9044    5.8115 H   0  0  0  0  0  0  0  0  0  0  0  0
  -12.9408  -18.3714    7.2285 H   0  0  0  0  0  0  0  0  0  0  0  0
  -11.7598  -15.9187    7.6793 H   0  0  0  0  0  0  0  0  0  0  0  0
  -12.2409  -16.5318    9.1829 H   0  0  0  0  0  0  0  0  0  0  0  0
   -9.4847  -16.4240    9.0093 H   0  0  0  0  0  0  0  0  0  0  0  0
   -9.4275  -19.0794    9.3708 H   0  0  0  0  0  0  0  0  0  0  0  0
  -10.5265  -18.2750   10.4556 H   0  0  0  0  0  0  0  0  0  0  0  0
  -12.2630  -19.3550    9.2860 H   0  0  0  0  0  0  0  0  0  0  0  0
  -13.7348  -21.5743    8.5868 H   0  0  0  0  0  0  0  0  0  0  0  0
  -14.5345  -23.3997   10.0831 H   0  0  0  0  0  0  0  0  0  0  0  0
  -14.5510  -24.8014   13.2628 H   0  0  0  0  0  0  0  0  0  0  0  0
  -14.8198  -23.8446   11.7665 H   0  0  0  0  0  0  0  0  0  0  0  0
  -15.1212  -25.6154   11.7665 H   0  0  0  0  0  0  0  0  0  0  0  0
  -12.9219  -27.2283   11.9199 H   0  0  0  0  0  0  0  0  0  0  0  0
  -13.8475  -26.6417   10.4966 H   0  0  0  0  0  0  0  0  0  0  0  0
  -12.0531  -26.5604   10.4966 H   0  0  0  0  0  0  0  0  0  0  0  0
  -12.7540  -25.0673   13.9009 H   0  0  0  0  0  0  0  0  0  0  0  0
  -11.5061  -25.9907   12.9972 H   0  0  0  0  0  0  0  0  0  0  0  0
  -11.4700  -24.1948   12.9972 H   0  0  0  0  0  0  0  0  0  0  0  0
  -10.4613  -24.1864   11.2940 H   0  0  0  0  0  0  0  0  0  0  0  0
   -9.6569  -22.3647    9.7974 H   0  0  0  0  0  0  0  0  0  0  0  0
  1  2  1  0
  2  3  1  0
  2  4  1  0
  2  5  1  0
  5  6  1  0
  6  7  2  0
  6  8  1  0
  8  9  1  0
  9 10  1  0
 10 11  1  0
 11 12  1  0
 12 13  1  0
 13 14  1  0
 14 15  1  0
 15 16  2  0
 15 17  2  0
 15 18  1  0
 18 19  2  0
 19 20  1  0
 20 21  2  0
 21 22  1  0
 22 23  1  0
 22 24  1  0
 22 25  1  0
 21 26  1  0
 26 27  2  0
 12  8  1  0
 27 18  1  0
 14 10  1  0
  1 28  1  0
  1 29  1  0
  1 30  1  0
  3 31  1  0
  3 32  1  0
  3 33  1  0
  4 34  1  0
  4 35  1  0
  4 36  1  0
  8 37  1  0
  9 38  1  0
  9 39  1  0
 10 40  1  6
 11 41  1  0
 11 42  1  0
 12 43  1  1
 13 44  1  0
 13 45  1  0
 14 46  1  0
 19 47  1  0
 20 48  1  0
 23 49  1  0
 23 50  1  0
 23 51  1  0
 24 52  1  0
 24 53  1  0
 24 54  1  0
 25 55  1  0
 25 56  1  0
 25 57  1  0
 26 58  1  0
 27 59  1  0
M  CHG  2   8   1  14   1
M  END
>  <meeko>  (4) 
{"is_sidechain": [false], "free_energy": -6.726, "intermolecular_energy": -8.831, "internal_energy": -0.355}

$$$$
LIB_SRPZEFNNDSQZCP__M_PUB_ALL__e8__s20260927
     RDKit          3D

 59 61  0  0  0  0  0  0  0  0999 V2000
   10.8630  -12.2530    0.3860 C   0  0  0  0  0  0  0  0  0  0  0  0
   10.3840  -13.2880   -0.6410 C   0  0  0  0  0  0  0  0  0  0  0  0
   10.2450  -12.6040   -2.0050 C   0  0  0  0  0  0  0  0  0  0  0  0
   11.3850  -14.4480   -0.6820 C   0  0  0  0  0  0  0  0  0  0  0  0
    9.0880  -13.7340   -0.1450 O   0  0  0  0  0  0  0  0  0  0  0  0
    8.1750  -14.2300   -0.9850 C   0  0  0  0  0  0  0  0  0  0  0  0
    8.2680  -15.1080   -1.8150 O   0  0  0  0  0  0  0  0  0  0  0  0
    6.8670  -13.6080   -0.9000 N   0  0  0  0  0  0  0  0  0  0  0  0
    6.2790  -13.2900   -2.2650 C   0  0  0  0  0  0  0  0  0  0  0  0
    5.7170  -11.8590   -2.0210 C   0  0  2  0  0  0  0  0  0  0  0  0
    6.9220  -11.2470   -1.3030 C   0  0  0  0  0  0  0  0  0  0  0  0
    6.8820  -12.2640   -0.1570 C   0  0  1  0  0  0  0  0  0  0  0  0
    5.4590  -11.9750    0.3920 C   0  0  0  0  0  0  0  0  0  0  0  0
    4.6710  -11.8010   -0.8880 N   0  0  0  0  0  0  0  0  0  0  0  0
    3.4430  -12.9420   -1.0850 S   0  0  0  0  0  0  0  0  0  0  0  0
    3.3760  -13.0270   -2.5210 O   0  0  0  0  0  0  0  0  0  0  0  0
    3.9310  -14.0340   -0.2720 O   0  0  0  0  0  0  0  0  0  0  0  0
    1.9580  -12.2750   -0.4290 C   0  0  0  0  0  0  0  0  0  0  0  0
    1.2700  -12.9540    0.5750 C   0  0  0  0  0  0  0  0  0  0  0  0
    0.1040  -12.3970    1.1100 C   0  0  0  0  0  0  0  0  0  0  0  0
   -0.3970  -11.1660    0.6500 C   0  0  0  0  0  0  0  0  0  0  0  0
   -1.6890  -10.5340    1.2120 C   0  0  0  0  0  0  0  0  0  0  0  0
   -2.6890  -10.2910    0.0620 C   0  0  0  0  0  0  0  0  0  0  0  0
   -2.4050  -11.4080    2.2670 C   0  0  0  0  0  0  0  0  0  0  0  0
   -1.3550   -9.1880    1.8900 C   0  0  0  0  0  0  0  0  0  0  0  0
    0.3110  -10.5190   -0.3820 C   0  0  0  0  0  0  0  0  0  0  0  0
    1.4770  -11.0640   -0.9250 C   0  0  0  0  0  0  0  0  0  0  0  0
   10.6860  -12.6355    1.4020 H   0  0  0  0  0  0  0  0  0  0  0  0
   11.9383  -12.0680    0.2460 H   0  0  0  0  0  0  0  0  0  0  0  0
   10.3081  -11.3136    0.2460 H   0  0  0  0  0  0  0  0  0  0  0  0
   10.0279  -11.5356   -1.8590 H   0  0  0  0  0  0  0  0  0  0  0  0
   11.1838  -12.7138   -2.5676 H   0  0  0  0  0  0  0  0  0  0  0  0
    9.4235  -13.0715   -2.5676 H   0  0  0  0  0  0  0  0  0  0  0  0
   11.6426  -14.7465    0.3449 H   0  0  0  0  0  0  0  0  0  0  0  0
   10.9354  -15.3018   -1.2102 H   0  0  0  0  0  0  0  0  0  0  0  0
   12.2954  -14.1282   -1.2102 H   0  0  0  0  0  0  0  0  0  0  0  0
    6.3000  -14.3350   -0.4300 H   0  0  0  0  0  0  0  0  0  0  0  0
    7.0516  -13.2924   -3.0480 H   0  0  0  0  0  0  0  0  0  0  0  0
    5.5317  -14.0164   -2.6170 H   0  0  0  0  0  0  0  0  0  0  0  0
    5.3011  -11.4332   -2.9460 H   0  0  0  0  0  0  0  0  0  0  0  0
    7.8491  -11.2940   -1.8932 H   0  0  0  0  0  0  0  0  0  0  0  0
    6.8936  -10.1761   -1.0532 H   0  0  0  0  0  0  0  0  0  0  0  0
    7.6694  -12.2418    0.6108 H   0  0  0  0  0  0  0  0  0  0  0  0
    5.0787  -12.8188    0.9864 H   0  0  0  0  0  0  0  0  0  0  0  0
    5.4074  -11.1113    1.0712 H   0  0  0  0  0  0  0  0  0  0  0  0
    4.1680  -10.9070   -0.9210 H   0  0  0  0  0  0  0  0  0  0  0  0
    1.6415  -13.9213    0.9441 H   0  0  0  0  0  0  0  0  0  0  0  0
   -0.4323  -12.9328    1.9070 H   0  0  0  0  0  0  0  0  0  0  0  0
   -3.6776  -10.0508    0.4804 H   0  0  0  0  0  0  0  0  0  0  0  0
   -2.3390   -9.4518   -0.5570 H   0  0  0  0  0  0  0  0  0  0  0  0
   -2.7632  -11.1973   -0.5570 H   0  0  0  0  0  0  0  0  0  0  0  0
   -2.1263  -11.0678    3.2753 H   0  0  0  0  0  0  0  0  0  0  0  0
   -3.4939  -11.3199    2.1382 H   0  0  0  0  0  0  0  0  0  0  0  0
   -2.1043  -12.4582    2.1382 H   0  0  0  0  0  0  0  0  0  0  0  0
   -1.3854   -9.3104    2.9827 H   0  0  0  0  0  0  0  0  0  0  0  0
   -0.3491   -8.8635    1.5852 H   0  0  0  0  0  0  0  0  0  0  0  0
   -2.0925   -8.4309    1.5852 H   0  0  0  0  0  0  0  0  0  0  0  0
   -0.0639   -9.5604   -0.7700 H   0  0  0  0  0  0  0  0  0  0  0  0
    2.0096  -10.5436   -1.7347 H   0  0  0  0  0  0  0  0  0  0  0  0
  1  2  1  0
  2  3  1  0
  2  4  1  0
  2  5  1  0
  5  6  1  0
  6  7  2  0
  6  8  1  0
  8  9  1  0
  9 10  1  0
 10 11  1  0
 11 12  1  0
 12 13  1  0
 13 14  1  0
 14 15  1  0
 15 16  2  0
 15 17  2  0
 15 18  1  0
 18 19  2  0
 19 20  1  0
 20 21  2  0
 21 22  1  0
 22 23  1  0
 22 24  1  0
 22 25  1  0
 21 26  1  0
 26 27  2  0
 12  8  1  0
 27 18  1  0
 14 10  1  0
  1 28  1  0
  1 29  1  0
  1 30  1  0
  3 31  1  0
  3 32  1  0
  3 33  1  0
  4 34  1  0
  4 35  1  0
  4 36  1  0
  8 37  1  0
  9 38  1  0
  9 39  1  0
 10 40  1  6
 11 41  1  0
 11 42  1  0
 12 43  1  1
 13 44  1  0
 13 45  1  0
 14 46  1  0
 19 47  1  0
 20 48  1  0
 23 49  1  0
 23 50  1  0
 23 51  1  0
 24 52  1  0
 24 53  1  0
 24 54  1  0
 25 55  1  0
 25 56  1  0
 25 57  1  0
 26 58  1  0
 27 59  1  0
M  CHG  2   8   1  14   1
M  END
>  <meeko>  (5) 
{"is_sidechain": [false], "free_energy": -6.7, "intermolecular_energy": -8.507, "internal_energy": -0.645}

$$$$
LIB_SRPZEFNNDSQZCP__M_PUB_ALL__e8__s20260927
     RDKit          3D

 59 61  0  0  0  0  0  0  0  0999 V2000
   -1.6070  -19.9010    9.5110 C   0  0  0  0  0  0  0  0  0  0  0  0
   -1.0430  -20.6800    8.3150 C   0  0  0  0  0  0  0  0  0  0  0  0
    0.4870  -20.6140    8.3570 C   0  0  0  0  0  0  0  0  0  0  0  0
   -1.5550  -22.1240    8.3770 C   0  0  0  0  0  0  0  0  0  0  0  0
   -1.5630  -19.9920    7.1410 O   0  0  0  0  0  0  0  0  0  0  0  0
   -0.7900  -19.8020    6.0670 C   0  0  0  0  0  0  0  0  0  0  0  0
   -0.1660  -20.5980    5.4010 O   0  0  0  0  0  0  0  0  0  0  0  0
   -0.6680  -18.4210    5.6400 N   0  0  0  0  0  0  0  0  0  0  0  0
    0.5960  -17.7560    6.1610 C   0  0  0  0  0  0  0  0  0  0  0  0
    0.0400  -16.3760    6.6170 C   0  0  2  0  0  0  0  0  0  0  0  0
   -1.2010  -16.8540    7.3730 C   0  0  0  0  0  0  0  0  0  0  0  0
   -1.8140  -17.5280    6.1410 C   0  0  1  0  0  0  0  0  0  0  0  0
   -1.9360  -16.2950    5.2070 C   0  0  0  0  0  0  0  0  0  0  0  0
   -0.6290  -15.5820    5.4750 N   0  0  0  0  0  0  0  0  0  0  0  0
    0.3610  -15.4530    4.1130 S   0  0  0  0  0  0  0  0  0  0  0  0
    1.6640  -15.4230    4.7240 O   0  0  0  0  0  0  0  0  0  0  0  0
   -0.0920  -16.5750    3.3200 O   0  0  0  0  0  0  0  0  0  0  0  0
    0.0090  -13.9280    3.3170 C   0  0  0  0  0  0  0  0  0  0  0  0
    0.4960  -13.6800    2.0350 C   0  0  0  0  0  0  0  0  0  0  0  0
    0.1840  -12.4740    1.4000 C   0  0  0  0  0  0  0  0  0  0  0  0
   -0.6060  -11.4970    2.0320 C   0  0  0  0  0  0  0  0  0  0  0  0
   -0.9550  -10.1510    1.3610 C   0  0  0  0  0  0  0  0  0  0  0  0
    0.3240   -9.5220    0.7680 C   0  0  0  0  0  0  0  0  0  0  0  0
   -1.9830  -10.2720    0.2130 C   0  0  0  0  0  0  0  0  0  0  0  0
   -1.5560   -9.1900    2.4100 C   0  0  0  0  0  0  0  0  0  0  0  0
   -1.0610  -11.7720    3.3370 C   0  0  0  0  0  0  0  0  0  0  0  0
   -0.7570  -12.9730    3.9830 C   0  0  0  0  0  0  0  0  0  0  0  0
   -1.2678  -20.3695   10.4466 H   0  0  0  0  0  0  0  0  0  0  0  0
   -1.2512  -18.8609    9.4718 H   0  0  0  0  0  0  0  0  0  0  0  0
   -2.7062  -19.9143    9.4718 H   0  0  0  0  0  0  0  0  0  0  0  0
    0.8248  -20.5994    9.4038 H   0  0  0  0  0  0  0  0  0  0  0  0
    0.9061  -21.4949    7.8487 H   0  0  0  0  0  0  0  0  0  0  0  0
    0.8287  -19.7003    7.8487 H   0  0  0  0  0  0  0  0  0  0  0  0
   -1.6634  -22.4298    9.4281 H   0  0  0  0  0  0  0  0  0  0  0  0
   -2.5310  -22.1889    7.8737 H   0  0  0  0  0  0  0  0  0  0  0  0
   -0.8379  -22.7892    7.8737 H   0  0  0  0  0  0  0  0  0  0  0  0
   -0.6270  -18.5040    4.6100 H   0  0  0  0  0  0  0  0  0  0  0  0
    1.0288  -18.3154    7.0035 H   0  0  0  0  0  0  0  0  0  0  0  0
    1.4121  -17.6953    5.4260 H   0  0  0  0  0  0  0  0  0  0  0  0
    0.8249  -15.7703    7.0935 H   0  0  0  0  0  0  0  0  0  0  0  0
   -0.9702  -17.5599    8.1845 H   0  0  0  0  0  0  0  0  0  0  0  0
   -1.8022  -16.1095    7.9156 H   0  0  0  0  0  0  0  0  0  0  0  0
   -2.7475  -18.0996    6.2494 H   0  0  0  0  0  0  0  0  0  0  0  0
   -2.0201  -16.5966    4.1525 H   0  0  0  0  0  0  0  0  0  0  0  0
   -2.8285  -15.6792    5.3920 H   0  0  0  0  0  0  0  0  0  0  0  0
   -0.7640  -14.6060    5.7600 H   0  0  0  0  0  0  0  0  0  0  0  0
    1.1217  -14.4280    1.5261 H   0  0  0  0  0  0  0  0  0  0  0  0
    0.5643  -12.2855    0.3852 H   0  0  0  0  0  0  0  0  0  0  0  0
    0.9853   -9.1968    1.5847 H   0  0  0  0  0  0  0  0  0  0  0  0
    0.8454  -10.2665    0.1484 H   0  0  0  0  0  0  0  0  0  0  0  0
    0.0527   -8.6546    0.1484 H   0  0  0  0  0  0  0  0  0  0  0  0
   -2.9918  -10.3907    0.6352 H   0  0  0  0  0  0  0  0  0  0  0  0
   -1.9494   -9.3637   -0.4066 H   0  0  0  0  0  0  0  0  0  0  0  0
   -1.7394  -11.1477   -0.4066 H   0  0  0  0  0  0  0  0  0  0  0  0
   -1.3252   -9.5591    3.4202 H   0  0  0  0  0  0  0  0  0  0  0  0
   -1.1240   -8.1870    2.2785 H   0  0  0  0  0  0  0  0  0  0  0  0
   -2.6469   -9.1394    2.2785 H   0  0  0  0  0  0  0  0  0  0  0  0
   -1.6714  -11.0216    3.8607 H   0  0  0  0  0  0  0  0  0  0  0  0
   -1.1178  -13.1625    5.0047 H   0  0  0  0  0  0  0  0  0  0  0  0
  1  2  1  0
  2  3  1  0
  2  4  1  0
  2  5  1  0
  5  6  1  0
  6  7  2  0
  6  8  1  0
  8  9  1  0
  9 10  1  0
 10 11  1  0
 11 12  1  0
 12 13  1  0
 13 14  1  0
 14 15  1  0
 15 16  2  0
 15 17  2  0
 15 18  1  0
 18 19  2  0
 19 20  1  0
 20 21  2  0
 21 22  1  0
 22 23  1  0
 22 24  1  0
 22 25  1  0
 21 26  1  0
 26 27  2  0
 12  8  1  0
 27 18  1  0
 14 10  1  0
  1 28  1  0
  1 29  1  0
  1 30  1  0
  3 31  1  0
  3 32  1  0
  3 33  1  0
  4 34  1  0
  4 35  1  0
  4 36  1  0
  8 37  1  0
  9 38  1  0
  9 39  1  0
 10 40  1  1
 11 41  1  0
 11 42  1  0
 12 43  1  1
 13 44  1  0
 13 45  1  0
 14 46  1  0
 19 47  1  0
 20 48  1  0
 23 49  1  0
 23 50  1  0
 23 51  1  0
 24 52  1  0
 24 53  1  0
 24 54  1  0
 25 55  1  0
 25 56  1  0
 25 57  1  0
 26 58  1  0
 27 59  1  0
M  CHG  2   8   1  14   1
M  END
>  <meeko>  (6) 
{"is_sidechain": [false], "free_energy": -6.665, "intermolecular_energy": -8.692, "internal_energy": -0.412}

$$$$
LIB_SRPZEFNNDSQZCP__M_PUB_ALL__e8__s20260927
     RDKit          3D

 59 61  0  0  0  0  0  0  0  0999 V2000
   -2.3470  -10.3560    2.1950 C   0  0  0  0  0  0  0  0  0  0  0  0
   -2.4180  -11.1620    0.8900 C   0  0  0  0  0  0  0  0  0  0  0  0
   -3.2150  -10.3600   -0.1440 C   0  0  0  0  0  0  0  0  0  0  0  0
   -0.9930  -11.4570    0.4100 C   0  0  0  0  0  0  0  0  0  0  0  0
   -3.1140  -12.3910    1.2480 O   0  0  0  0  0  0  0  0  0  0  0  0
   -2.8590  -13.5290    0.5950 C   0  0  0  0  0  0  0  0  0  0  0  0
   -2.9450  -13.7910   -0.5850 O   0  0  0  0  0  0  0  0  0  0  0  0
   -2.4260  -14.6300    1.4350 N   0  0  0  0  0  0  0  0  0  0  0  0
   -2.7980  -14.4340    2.8950 C   0  0  0  0  0  0  0  0  0  0  0  0
   -1.4800  -14.8720    3.5990 C   0  0  2  0  0  0  0  0  0  0  0  0
   -0.4780  -14.1100    2.7300 C   0  0  0  0  0  0  0  0  0  0  0  0
   -0.9020  -14.8230    1.4410 C   0  0  1  0  0  0  0  0  0  0  0  0
   -0.5820  -16.2880    1.8420 C   0  0  0  0  0  0  0  0  0  0  0  0
   -1.0710  -16.3240    3.2730 N   0  0  0  0  0  0  0  0  0  0  0  0
   -2.3270  -17.4220    3.5310 S   0  0  0  0  0  0  0  0  0  0  0  0
   -3.0850  -17.2600    2.3180 O   0  0  0  0  0  0  0  0  0  0  0  0
   -1.5940  -18.6340    3.8260 O   0  0  0  0  0  0  0  0  0  0  0  0
   -3.2530  -16.8840    4.9220 C   0  0  0  0  0  0  0  0  0  0  0  0
   -4.6080  -16.5830    4.7860 C   0  0  0  0  0  0  0  0  0  0  0  0
   -5.3420  -16.1840    5.9080 C   0  0  0  0  0  0  0  0  0  0  0  0
   -4.7390  -16.0710    7.1740 C   0  0  0  0  0  0  0  0  0  0  0  0
   -5.5210  -15.6190    8.4270 C   0  0  0  0  0  0  0  0  0  0  0  0
   -6.4240  -14.4200    8.0690 C   0  0  0  0  0  0  0  0  0  0  0  0
   -6.4300  -16.7170    9.0250 C   0  0  0  0  0  0  0  0  0  0  0  0
   -4.5290  -15.1990    9.5330 C   0  0  0  0  0  0  0  0  0  0  0  0
   -3.3640  -16.3600    7.2690 C   0  0  0  0  0  0  0  0  0  0  0  0
   -2.6190  -16.7600    6.1570 C   0  0  0  0  0  0  0  0  0  0  0  0
   -2.4074  -11.0416    3.0531 H   0  0  0  0  0  0  0  0  0  0  0  0
   -1.3967   -9.8033    2.2334 H   0  0  0  0  0  0  0  0  0  0  0  0
   -3.1861   -9.6457    2.2334 H   0  0  0  0  0  0  0  0  0  0  0  0
   -3.8991   -9.6716    0.3739 H   0  0  0  0  0  0  0  0  0  0  0  0
   -2.5220   -9.7832   -0.7741 H   0  0  0  0  0  0  0  0  0  0  0  0
   -3.7961  -11.0494   -0.7741 H   0  0  0  0  0  0  0  0  0  0  0  0
   -0.3339  -11.5934    1.2800 H   0  0  0  0  0  0  0  0  0  0  0  0
   -0.9931  -12.3742   -0.1973 H   0  0  0  0  0  0  0  0  0  0  0  0
   -0.6290  -10.6152   -0.1973 H   0  0  0  0  0  0  0  0  0  0  0  0
   -2.9440  -15.4330    1.0410 H   0  0  0  0  0  0  0  0  0  0  0  0
   -3.0421  -13.3836    3.1121 H   0  0  0  0  0  0  0  0  0  0  0  0
   -3.6900  -14.9928    3.2145 H   0  0  0  0  0  0  0  0  0  0  0  0
   -1.5451  -14.7293    4.6878 H   0  0  0  0  0  0  0  0  0  0  0  0
   -0.6602  -13.0255    2.7065 H   0  0  0  0  0  0  0  0  0  0  0  0
    0.5843  -14.1319    3.0148 H   0  0  0  0  0  0  0  0  0  0  0  0
   -0.4568  -14.5144    0.4836 H   0  0  0  0  0  0  0  0  0  0  0  0
   -1.1290  -17.0053    1.2125 H   0  0  0  0  0  0  0  0  0  0  0  0
    0.4761  -16.5641    1.7231 H   0  0  0  0  0  0  0  0  0  0  0  0
   -0.3460  -16.6380    3.9280 H   0  0  0  0  0  0  0  0  0  0  0  0
   -5.0962  -16.6588    3.8032 H   0  0  0  0  0  0  0  0  0  0  0  0
   -6.4121  -15.9540    5.7982 H   0  0  0  0  0  0  0  0  0  0  0  0
   -6.7833  -13.9429    8.9927 H   0  0  0  0  0  0  0  0  0  0  0  0
   -5.8488  -13.6909    7.4795 H   0  0  0  0  0  0  0  0  0  0  0  0
   -7.2836  -14.7715    7.4795 H   0  0  0  0  0  0  0  0  0  0  0  0
   -6.3898  -16.6684   10.1232 H   0  0  0  0  0  0  0  0  0  0  0  0
   -7.4654  -16.5592    8.6887 H   0  0  0  0  0  0  0  0  0  0  0  0
   -6.0817  -17.7047    8.6887 H   0  0  0  0  0  0  0  0  0  0  0  0
   -4.9775  -15.3889   10.5193 H   0  0  0  0  0  0  0  0  0  0  0  0
   -3.6012  -15.7815    9.4339 H   0  0  0  0  0  0  0  0  0  0  0  0
   -4.3015  -14.1274    9.4339 H   0  0  0  0  0  0  0  0  0  0  0  0
   -2.8635  -16.2684    8.2443 H   0  0  0  0  0  0  0  0  0  0  0  0
   -1.5446  -16.9746    6.2550 H   0  0  0  0  0  0  0  0  0  0  0  0
  1  2  1  0
  2  3  1  0
  2  4  1  0
  2  5  1  0
  5  6  1  0
  6  7  2  0
  6  8  1  0
  8  9  1  0
  9 10  1  0
 10 11  1  0
 11 12  1  0
 12 13  1  0
 13 14  1  0
 14 15  1  0
 15 16  2  0
 15 17  2  0
 15 18  1  0
 18 19  2  0
 19 20  1  0
 20 21  2  0
 21 22  1  0
 22 23  1  0
 22 24  1  0
 22 25  1  0
 21 26  1  0
 26 27  2  0
 12  8  1  0
 27 18  1  0
 14 10  1  0
  1 28  1  0
  1 29  1  0
  1 30  1  0
  3 31  1  0
  3 32  1  0
  3 33  1  0
  4 34  1  0
  4 35  1  0
  4 36  1  0
  8 37  1  0
  9 38  1  0
  9 39  1  0
 10 40  1  1
 11 41  1  0
 11 42  1  0
 12 43  1  6
 13 44  1  0
 13 45  1  0
 14 46  1  0
 19 47  1  0
 20 48  1  0
 23 49  1  0
 23 50  1  0
 23 51  1  0
 24 52  1  0
 24 53  1  0
 24 54  1  0
 25 55  1  0
 25 56  1  0
 25 57  1  0
 26 58  1  0
 27 59  1  0
M  CHG  2   8   1  14   1
M  END
>  <meeko>  (7) 
{"is_sidechain": [false], "free_energy": -6.656, "intermolecular_energy": -8.775, "internal_energy": -0.317}

$$$$
LIB_SRPZEFNNDSQZCP__M_PUB_ALL__e8__s20260927
     RDKit          3D

 59 61  0  0  0  0  0  0  0  0999 V2000
  -14.6260  -24.8810   12.1890 C   0  0  0  0  0  0  0  0  0  0  0  0
  -13.4670  -24.4820   11.2660 C   0  0  0  0  0  0  0  0  0  0  0  0
  -12.2550  -25.3640   11.5830 C   0  0  0  0  0  0  0  0  0  0  0  0
  -13.9180  -24.6320    9.8090 C   0  0  0  0  0  0  0  0  0  0  0  0
  -13.1960  -23.0870   11.5880 O   0  0  0  0  0  0  0  0  0  0  0  0
  -13.7100  -22.1060   10.8390 C   0  0  0  0  0  0  0  0  0  0  0  0
  -14.8640  -21.8110   10.6190 O   0  0  0  0  0  0  0  0  0  0  0  0
  -12.7290  -21.2700   10.1720 N   0  0  0  0  0  0  0  0  0  0  0  0
  -12.9310  -21.2170    8.6670 C   0  0  0  0  0  0  0  0  0  0  0  0
  -11.4650  -21.3700    8.1650 C   0  0  2  0  0  0  0  0  0  0  0  0
  -11.0250  -22.5320    9.0560 C   0  0  0  0  0  0  0  0  0  0  0  0
  -11.2860  -21.7650   10.3570 C   0  0  1  0  0  0  0  0  0  0  0  0
  -10.3150  -20.5720   10.1490 C   0  0  0  0  0  0  0  0  0  0  0  0
  -10.5260  -20.2610    8.6840 N   0  0  0  0  0  0  0  0  0  0  0  0
  -11.1380  -18.7130    8.4030 S   0  0  0  0  0  0  0  0  0  0  0  0
  -12.0190  -18.9650    7.2930 O   0  0  0  0  0  0  0  0  0  0  0  0
  -11.6340  -18.3570    9.7140 O   0  0  0  0  0  0  0  0  0  0  0  0
   -9.8090  -17.6730    7.9220 C   0  0  0  0  0  0  0  0  0  0  0  0
   -9.8010  -17.0880    6.6560 C   0  0  0  0  0  0  0  0  0  0  0  0
   -8.7510  -16.2370    6.2960 C   0  0  0  0  0  0  0  0  0  0  0  0
   -7.6930  -15.9650    7.1810 C   0  0  0  0  0  0  0  0  0  0  0  0
   -6.5140  -15.0410    6.8050 C   0  0  0  0  0  0  0  0  0  0  0  0
   -5.1920  -15.8320    6.8860 C   0  0  0  0  0  0  0  0  0  0  0  0
   -6.6110  -14.4530    5.3790 C   0  0  0  0  0  0  0  0  0  0  0  0
   -6.4570  -13.8490    7.7850 C   0  0  0  0  0  0  0  0  0  0  0  0
   -7.7210  -16.5920    8.4420 C   0  0  0  0  0  0  0  0  0  0  0  0
   -8.7640  -17.4430    8.8150 C   0  0  0  0  0  0  0  0  0  0  0  0
  -14.3131  -24.7733   13.2380 H   0  0  0  0  0  0  0  0  0  0  0  0
  -15.4903  -24.2287   11.9953 H   0  0  0  0  0  0  0  0  0  0  0  0
  -14.9055  -25.9271   11.9953 H   0  0  0  0  0  0  0  0  0  0  0  0
  -12.1384  -25.4488   12.6735 H   0  0  0  0  0  0  0  0  0  0  0  0
  -12.4067  -26.3644   11.1515 H   0  0  0  0  0  0  0  0  0  0  0  0
  -11.3497  -24.9120   11.1515 H   0  0  0  0  0  0  0  0  0  0  0  0
  -14.9615  -24.9791    9.7820 H   0  0  0  0  0  0  0  0  0  0  0  0
  -13.8416  -23.6601    9.2996 H   0  0  0  0  0  0  0  0  0  0  0  0
  -13.2747  -25.3645    9.2996 H   0  0  0  0  0  0  0  0  0  0  0  0
  -12.9040  -20.3390   10.5870 H   0  0  0  0  0  0  0  0  0  0  0  0
  -13.5667  -22.0430    8.3154 H   0  0  0  0  0  0  0  0  0  0  0  0
  -13.4404  -20.3100    8.3095 H   0  0  0  0  0  0  0  0  0  0  0  0
  -11.4250  -21.4204    7.0669 H   0  0  0  0  0  0  0  0  0  0  0  0
  -11.6554  -23.4267    8.9455 H   0  0  0  0  0  0  0  0  0  0  0  0
  -10.0266  -22.9649    8.8956 H   0  0  0  0  0  0  0  0  0  0  0  0
  -11.1610  -22.2806   11.3206 H   0  0  0  0  0  0  0  0  0  0  0  0
  -10.5880  -19.7166   10.7844 H   0  0  0  0  0  0  0  0  0  0  0  0
   -9.2706  -20.7933   10.4139 H   0  0  0  0  0  0  0  0  0  0  0  0
   -9.6490  -20.2670    8.1510 H   0  0  0  0  0  0  0  0  0  0  0  0
  -10.6149  -17.2945    5.9454 H   0  0  0  0  0  0  0  0  0  0  0  0
   -8.7531  -15.7708    5.2997 H   0  0  0  0  0  0  0  0  0  0  0  0
   -4.9245  -15.9920    7.9409 H   0  0  0  0  0  0  0  0  0  0  0  0
   -5.3156  -16.8047    6.3874 H   0  0  0  0  0  0  0  0  0  0  0  0
   -4.3933  -15.2633    6.3874 H   0  0  0  0  0  0  0  0  0  0  0  0
   -6.7898  -13.3694    5.4406 H   0  0  0  0  0  0  0  0  0  0  0  0
   -5.6700  -14.6394    4.8407 H   0  0  0  0  0  0  0  0  0  0  0  0
   -7.4423  -14.9318    4.8407 H   0  0  0  0  0  0  0  0  0  0  0  0
   -6.4749  -14.2234    8.8192 H   0  0  0  0  0  0  0  0  0  0  0  0
   -5.5306  -13.2801    7.6170 H   0  0  0  0  0  0  0  0  0  0  0  0
   -7.3249  -13.1943    7.6170 H   0  0  0  0  0  0  0  0  0  0  0  0
   -6.9007  -16.4068    9.1511 H   0  0  0  0  0  0  0  0  0  0  0  0
   -8.7606  -17.9265    9.8030 H   0  0  0  0  0  0  0  0  0  0  0  0
  1  2  1  0
  2  3  1  0
  2  4  1  0
  2  5  1  0
  5  6  1  0
  6  7  2  0
  6  8  1  0
  8  9  1  0
  9 10  1  0
 10 11  1  0
 11 12  1  0
 12 13  1  0
 13 14  1  0
 14 15  1  0
 15 16  2  0
 15 17  2  0
 15 18  1  0
 18 19  2  0
 19 20  1  0
 20 21  2  0
 21 22  1  0
 22 23  1  0
 22 24  1  0
 22 25  1  0
 21 26  1  0
 26 27  2  0
 12  8  1  0
 27 18  1  0
 14 10  1  0
  1 28  1  0
  1 29  1  0
  1 30  1  0
  3 31  1  0
  3 32  1  0
  3 33  1  0
  4 34  1  0
  4 35  1  0
  4 36  1  0
  8 37  1  0
  9 38  1  0
  9 39  1  0
 10 40  1  6
 11 41  1  0
 11 42  1  0
 12 43  1  1
 13 44  1  0
 13 45  1  0
 14 46  1  0
 19 47  1  0
 20 48  1  0
 23 49  1  0
 23 50  1  0
 23 51  1  0
 24 52  1  0
 24 53  1  0
 24 54  1  0
 25 55  1  0
 25 56  1  0
 25 57  1  0
 26 58  1  0
 27 59  1  0
M  CHG  2   8   1  14   1
M  END
>  <meeko>  (8) 
{"is_sidechain": [false], "free_energy": -6.643, "intermolecular_energy": -8.58, "internal_energy": -0.495}

$$$$
LIB_SRPZEFNNDSQZCP__M_PUB_ALL__e8__s20260927
     RDKit          3D

 59 61  0  0  0  0  0  0  0  0999 V2000
   11.0790  -12.6070   -2.3440 C   0  0  0  0  0  0  0  0  0  0  0  0
   10.5820  -13.3540   -1.0980 C   0  0  0  0  0  0  0  0  0  0  0  0
   11.7170  -14.2320   -0.5620 C   0  0  0  0  0  0  0  0  0  0  0  0
   10.1130  -12.3290   -0.0590 C   0  0  0  0  0  0  0  0  0  0  0  0
    9.4690  -14.1670   -1.5690 O   0  0  0  0  0  0  0  0  0  0  0  0
    8.2650  -14.0640   -0.9990 C   0  0  0  0  0  0  0  0  0  0  0  0
    7.9240  -14.2450    0.1490 O   0  0  0  0  0  0  0  0  0  0  0  0
    7.1930  -13.6910   -1.9030 N   0  0  0  0  0  0  0  0  0  0  0  0
    7.6990  -13.3040   -3.2830 C   0  0  0  0  0  0  0  0  0  0  0  0
    6.8450  -12.0330   -3.5670 C   0  0  2  0  0  0  0  0  0  0  0  0
    7.0170  -11.3230   -2.2220 C   0  0  0  0  0  0  0  0  0  0  0  0
    6.3920  -12.4710   -1.4230 C   0  0  1  0  0  0  0  0  0  0  0  0
    4.9850  -12.5030   -2.0770 C   0  0  0  0  0  0  0  0  0  0  0  0
    5.3260  -12.3020   -3.5370 N   0  0  0  0  0  0  0  0  0  0  0  0
    4.8820  -13.6000   -4.5200 S   0  0  0  0  0  0  0  0  0  0  0  0
    5.5030  -14.6960   -3.8240 O   0  0  0  0  0  0  0  0  0  0  0  0
    3.4450  -13.4400   -4.5770 O   0  0  0  0  0  0  0  0  0  0  0  0
    5.6100  -13.3710   -6.1010 C   0  0  0  0  0  0  0  0  0  0  0  0
    6.4740  -14.3340   -6.6190 C   0  0  0  0  0  0  0  0  0  0  0  0
    7.0240  -14.1540   -7.8920 C   0  0  0  0  0  0  0  0  0  0  0  0
    6.7320  -13.0130   -8.6610 C   0  0  0  0  0  0  0  0  0  0  0  0
    7.3360  -12.7810  -10.0630 C   0  0  0  0  0  0  0  0  0  0  0  0
    6.6990  -13.7620  -11.0690 C   0  0  0  0  0  0  0  0  0  0  0  0
    7.1150  -11.3520  -10.6100 C   0  0  0  0  0  0  0  0  0  0  0  0
    8.8610  -13.0170  -10.0160 C   0  0  0  0  0  0  0  0  0  0  0  0
    5.8740  -12.0490   -8.0960 C   0  0  0  0  0  0  0  0  0  0  0  0
    5.3170  -12.2170   -6.8260 C   0  0  0  0  0  0  0  0  0  0  0  0
   11.6639  -11.7279   -2.0355 H   0  0  0  0  0  0  0  0  0  0  0  0
   11.7124  -13.2765   -2.9446 H   0  0  0  0  0  0  0  0  0  0  0  0
   10.2168  -12.2814   -2.9446 H   0  0  0  0  0  0  0  0  0  0  0  0
   11.7016  -14.2201    0.5378 H   0  0  0  0  0  0  0  0  0  0  0  0
   11.5827  -15.2636   -0.9195 H   0  0  0  0  0  0  0  0  0  0  0  0
   12.6817  -13.8428   -0.9195 H   0  0  0  0  0  0  0  0  0  0  0  0
   10.2933  -12.7230    0.9521 H   0  0  0  0  0  0  0  0  0  0  0  0
   10.6713  -11.3906   -0.1918 H   0  0  0  0  0  0  0  0  0  0  0  0
    9.0379  -12.1380   -0.1918 H   0  0  0  0  0  0  0  0  0  0  0  0
    6.6320  -14.5590   -1.9610 H   0  0  0  0  0  0  0  0  0  0  0  0
    8.7744  -13.0732   -3.2689 H   0  0  0  0  0  0  0  0  0  0  0  0
    7.6001  -14.0954   -4.0406 H   0  0  0  0  0  0  0  0  0  0  0  0
    7.1311  -11.5677   -4.5218 H   0  0  0  0  0  0  0  0  0  0  0  0
    8.0691  -11.1350   -1.9616 H   0  0  0  0  0  0  0  0  0  0  0  0
    6.5948  -10.3139   -2.1054 H   0  0  0  0  0  0  0  0  0  0  0  0
    6.3721  -12.4138   -0.3247 H   0  0  0  0  0  0  0  0  0  0  0  0
    4.4863  -13.4692   -1.9102 H   0  0  0  0  0  0  0  0  0  0  0  0
    4.2857  -11.7562   -1.6730 H   0  0  0  0  0  0  0  0  0  0  0  0
    4.8230  -11.5100   -3.9530 H   0  0  0  0  0  0  0  0  0  0  0  0
    6.7217  -15.2297   -6.0304 H   0  0  0  0  0  0  0  0  0  0  0  0
    7.6990  -14.9206   -8.3004 H   0  0  0  0  0  0  0  0  0  0  0  0
    6.1793  -14.5623  -10.5218 H   0  0  0  0  0  0  0  0  0  0  0  0
    5.9785  -13.2224  -11.7012 H   0  0  0  0  0  0  0  0  0  0  0  0
    7.4850  -14.2007  -11.7012 H   0  0  0  0  0  0  0  0  0  0  0  0
    7.0065  -10.6505   -9.7697 H   0  0  0  0  0  0  0  0  0  0  0  0
    7.9782  -11.0571  -11.2247 H   0  0  0  0  0  0  0  0  0  0  0  0
    6.2030  -11.3317  -11.2247 H   0  0  0  0  0  0  0  0  0  0  0  0
    9.1920  -13.0682   -8.9682 H   0  0  0  0  0  0  0  0  0  0  0  0
    9.1014  -13.9630  -10.5231 H   0  0  0  0  0  0  0  0  0  0  0  0
    9.3761  -12.1879  -10.5231 H   0  0  0  0  0  0  0  0  0  0  0  0
    5.6366  -11.1409   -8.6695 H   0  0  0  0  0  0  0  0  0  0  0  0
    4.6547  -11.4474   -6.4028 H   0  0  0  0  0  0  0  0  0  0  0  0
  1  2  1  0
  2  3  1  0
  2  4  1  0
  2  5  1  0
  5  6  1  0
  6  7  2  0
  6  8  1  0
  8  9  1  0
  9 10  1  0
 10 11  1  0
 11 12  1  0
 12 13  1  0
 13 14  1  0
 14 15  1  0
 15 16  2  0
 15 17  2  0
 15 18  1  0
 18 19  2  0
 19 20  1  0
 20 21  2  0
 21 22  1  0
 22 23  1  0
 22 24  1  0
 22 25  1  0
 21 26  1  0
 26 27  2  0
 12  8  1  0
 27 18  1  0
 14 10  1  0
  1 28  1  0
  1 29  1  0
  1 30  1  0
  3 31  1  0
  3 32  1  0
  3 33  1  0
  4 34  1  0
  4 35  1  0
  4 36  1  0
  8 37  1  0
  9 38  1  0
  9 39  1  0
 10 40  1  6
 11 41  1  0
 11 42  1  0
 12 43  1  1
 13 44  1  0
 13 45  1  0
 14 46  1  0
 19 47  1  0
 20 48  1  0
 23 49  1  0
 23 50  1  0
 23 51  1  0
 24 52  1  0
 24 53  1  0
 24 54  1  0
 25 55  1  0
 25 56  1  0
 25 57  1  0
 26 58  1  0
 27 59  1  0
M  CHG  2   8   1  14   1
M  END
>  <meeko>  (9) 
{"is_sidechain": [false], "free_energy": -6.56, "intermolecular_energy": -8.794, "internal_energy": -0.169}

$$$$
