LIB_IJNPXERHOGNDDN__M_PUB_ALL__e8__s20260927
     RDKit          3D

 88 95  0  0  0  0  0  0  0  0999 V2000
    5.2500  -12.9320   -6.7250 C   0  0  0  0  0  0  0  0  0  0  0  0
    6.1100  -14.0820   -6.2990 C   0  0  0  0  0  0  0  0  0  0  0  0
    6.9040  -14.6610   -7.0280 O   0  0  0  0  0  0  0  0  0  0  0  0
    5.8730  -14.3780   -4.9910 O   0  0  0  0  0  0  0  0  0  0  0  0
    6.0080  -13.2880   -4.0500 C   0  0  2  0  0  0  0  0  0  0  0  0
    7.5120  -12.9280   -3.9060 C   0  0  0  0  0  0  0  0  0  0  0  0
    8.1970  -13.2300   -2.5650 C   0  0  1  0  0  0  0  0  0  0  0  0
    9.1780  -14.3910   -2.5380 C   0  0  0  0  0  0  0  0  0  0  0  0
    9.7320  -12.9890   -2.4860 C   0  0  1  0  0  0  0  0  0  0  0  0
   10.4800  -12.5030   -3.7270 C   0  0  0  0  0  0  0  0  0  0  0  0
   11.9510  -12.1820   -3.4460 C   0  0  0  0  0  0  0  0  0  0  0  0
   12.5460  -13.1130   -2.3900 C   0  0  2  0  0  0  0  0  0  0  0  0
   12.4640  -14.4450   -2.9020 O   0  0  0  0  0  0  0  0  0  0  0  0
   11.8310  -12.9500   -1.0030 C   0  0  0  0  0  0  0  0  0  0  0  0
   11.9280  -14.2540   -0.1860 C   0  0  0  0  0  0  0  0  0  0  0  0
   12.5950  -11.8620   -0.2060 C   0  0  0  0  0  0  0  0  0  0  0  0
   10.3480  -12.4510   -1.1940 C   0  0  2  0  0  0  0  0  0  0  0  0
    9.4420  -12.6160    0.0360 C   0  0  0  0  0  0  0  0  0  0  0  0
    8.0330  -12.1170   -0.2760 C   0  0  0  0  0  0  0  0  0  0  0  0
    7.3520  -13.0560   -1.2830 C   0  0  1  0  0  0  0  0  0  0  0  0
    5.8750  -12.6950   -1.5920 C   0  0  2  0  0  0  0  0  0  0  0  0
    5.7390  -11.1740   -1.9120 C   0  0  0  0  0  0  0  0  0  0  0  0
    4.9070  -12.9870   -0.4300 C   0  0  0  0  0  0  0  0  0  0  0  0
    3.5330  -13.1940   -1.0940 C   0  0  2  0  0  0  0  0  0  0  0  0
    2.9260  -14.3400   -0.5100 O   0  0  0  0  0  0  0  0  0  0  0  0
    1.6260  -14.6510   -1.0200 C   0  0  2  0  0  0  0  0  0  0  0  0
    0.5530  -14.0330   -0.0900 C   0  0  0  0  0  0  0  0  0  0  0  0
    0.4000  -15.0470    1.0590 C   0  0  0  0  0  0  0  0  0  0  0  0
    0.7070  -16.3740    0.4370 C   0  0  1  0  0  0  0  0  0  0  0  0
    0.9430  -17.5720    1.2790 C   0  0  0  0  0  0  0  0  0  0  0  0
    0.0880  -16.6290   -0.8330 O   0  0  0  0  0  0  0  0  0  0  0  0
    1.4390  -16.1410   -0.8390 C   0  0  1  0  0  0  0  0  0  0  0  0
    1.4400  -14.2350   -2.4850 C   0  0  0  0  0  0  0  0  0  0  0  0
    2.7640  -14.3430   -3.2610 C   0  0  1  0  0  0  0  0  0  0  0  0
    2.5080  -14.0260   -4.7340 C   0  0  0  0  0  0  0  0  0  0  0  0
    3.7850  -13.3730   -2.6200 C   0  0  2  0  0  0  0  0  0  0  0  0
    5.3260  -13.6630   -2.7100 C   0  0  1  0  0  0  0  0  0  0  0  0
    5.5830  -15.1730   -2.4040 C   0  0  0  0  0  0  0  0  0  0  0  0
    4.8628  -12.4143   -5.8350 H   0  0  0  0  0  0  0  0  0  0  0  0
    5.8471  -12.2307   -7.3264 H   0  0  0  0  0  0  0  0  0  0  0  0
    4.4085  -13.3065   -7.3264 H   0  0  0  0  0  0  0  0  0  0  0  0
    5.4942  -12.3855   -4.4125 H   0  0  0  0  0  0  0  0  0  0  0  0
    8.0575  -13.4813   -4.6846 H   0  0  0  0  0  0  0  0  0  0  0  0
    7.5431  -11.8318   -3.9914 H   0  0  0  0  0  0  0  0  0  0  0  0
    9.2373  -15.0337   -1.6472 H   0  0  0  0  0  0  0  0  0  0  0  0
    9.3540  -15.2616   -3.1869 H   0  0  0  0  0  0  0  0  0  0  0  0
   10.4324  -13.2881   -4.4959 H   0  0  0  0  0  0  0  0  0  0  0  0
    9.9965  -11.5735   -4.0621 H   0  0  0  0  0  0  0  0  0  0  0  0
   12.5233  -12.2909   -4.3791 H   0  0  0  0  0  0  0  0  0  0  0  0
   12.0081  -11.1522   -3.0636 H   0  0  0  0  0  0  0  0  0  0  0  0
   13.5985  -12.8578   -2.1974 H   0  0  0  0  0  0  0  0  0  0  0  0
   12.4160  -15.0520   -2.1460 H   0  0  0  0  0  0  0  0  0  0  0  0
   11.9103  -14.0161    0.8878 H   0  0  0  0  0  0  0  0  0  0  0  0
   11.0758  -14.9047   -0.4315 H   0  0  0  0  0  0  0  0  0  0  0  0
   12.8671  -14.7715   -0.4315 H   0  0  0  0  0  0  0  0  0  0  0  0
   12.4693  -12.0410    0.8720 H   0  0  0  0  0  0  0  0  0  0  0  0
   13.6640  -11.9026   -0.4622 H   0  0  0  0  0  0  0  0  0  0  0  0
   12.1939  -10.8703   -0.4622 H   0  0  0  0  0  0  0  0  0  0  0  0
   10.4208  -11.3587   -1.3020 H   0  0  0  0  0  0  0  0  0  0  0  0
    9.3975  -13.6792    0.3145 H   0  0  0  0  0  0  0  0  0  0  0  0
    9.8554  -12.0268    0.8678 H   0  0  0  0  0  0  0  0  0  0  0  0
    7.4430  -12.0890    0.6520 H   0  0  0  0  0  0  0  0  0  0  0  0
    8.0959  -11.1081   -0.7098 H   0  0  0  0  0  0  0  0  0  0  0  0
    7.3008  -14.0347   -0.7835 H   0  0  0  0  0  0  0  0  0  0  0  0
    5.6881  -10.6047   -0.9722 H   0  0  0  0  0  0  0  0  0  0  0  0
    6.6111  -10.8425   -2.4947 H   0  0  0  0  0  0  0  0  0  0  0  0
    4.8219  -11.0025   -2.4947 H   0  0  0  0  0  0  0  0  0  0  0  0
    5.2152  -13.8941    0.1105 H   0  0  0  0  0  0  0  0  0  0  0  0
    4.8896  -12.1703    0.3067 H   0  0  0  0  0  0  0  0  0  0  0  0
    2.8534  -12.3421   -0.9442 H   0  0  0  0  0  0  0  0  0  0  0  0
    0.8880  -13.0585    0.2948 H   0  0  0  0  0  0  0  0  0  0  0  0
   -0.3970  -13.8515   -0.6140 H   0  0  0  0  0  0  0  0  0  0  0  0
    1.1096  -14.8249    1.8696 H   0  0  0  0  0  0  0  0  0  0  0  0
   -0.6039  -15.0196    1.5079 H   0  0  0  0  0  0  0  0  0  0  0  0
    0.8875  -17.2905    2.3409 H   0  0  0  0  0  0  0  0  0  0  0  0
    0.1770  -18.3306    1.0603 H   0  0  0  0  0  0  0  0  0  0  0  0
    1.9394  -17.9834    1.0603 H   0  0  0  0  0  0  0  0  0  0  0  0
    2.3492  -16.4811   -1.3547 H   0  0  0  0  0  0  0  0  0  0  0  0
    0.6935  -14.8930   -2.9538 H   0  0  0  0  0  0  0  0  0  0  0  0
    1.1022  -13.1885   -2.5120 H   0  0  0  0  0  0  0  0  0  0  0  0
    3.1784  -15.3607   -3.2102 H   0  0  0  0  0  0  0  0  0  0  0  0
    1.8186  -13.1723   -4.8109 H   0  0  0  0  0  0  0  0  0  0  0  0
    3.4593  -13.7745   -5.2256 H   0  0  0  0  0  0  0  0  0  0  0  0
    2.0618  -14.9031   -5.2256 H   0  0  0  0  0  0  0  0  0  0  0  0
    3.5850  -12.4994   -3.2578 H   0  0  0  0  0  0  0  0  0  0  0  0
    5.6092  -15.3272   -1.3152 H   0  0  0  0  0  0  0  0  0  0  0  0
    4.7750  -15.7783   -2.8407 H   0  0  0  0  0  0  0  0  0  0  0  0
    6.5458  -15.4769   -2.8407 H   0  0  0  0  0  0  0  0  0  0  0  0
  1  2  1  0
  2  3  2  0
  2  4  1  0
  4  5  1  0
  5  6  1  0
  7  6  1  6
  7  8  1  0
  9  8  1  1
  9 10  1  0
 10 11  1  0
 11 12  1  0
 12 13  1  0
 12 14  1  0
 14 15  1  0
 14 16  1  0
 14 17  1  0
 17 18  1  0
 18 19  1  0
 19 20  1  0
 20 21  1  0
 21 22  1  6
 21 23  1  0
 23 24  1  0
 24 25  1  0
 26 25  1  1
 26 27  1  0
 27 28  1  0
 28 29  1  0
 29 30  1  1
 29 31  1  0
 31 32  1  0
 26 33  1  0
 33 34  1  0
 34 35  1  0
 34 36  1  0
 36 37  1  0
 37 38  1  1
 37  5  1  0
  9  7  1  0
 37 21  1  0
 20  7  1  0
 36 24  1  0
 17  9  1  0
 32 26  1  0
 32 29  1  0
  1 39  1  0
  1 40  1  0
  1 41  1  0
  5 42  1  6
  6 43  1  0
  6 44  1  0
  8 45  1  0
  8 46  1  0
 10 47  1  0
 10 48  1  0
 11 49  1  0
 11 50  1  0
 12 51  1  1
 13 52  1  0
 15 53  1  0
 15 54  1  0
 15 55  1  0
 16 56  1  0
 16 57  1  0
 16 58  1  0
 17 59  1  6
 18 60  1  0
 18 61  1  0
 19 62  1  0
 19 63  1  0
 20 64  1  1
 22 65  1  0
 22 66  1  0
 22 67  1  0
 23 68  1  0
 23 69  1  0
 24 70  1  6
 27 71  1  0
 27 72  1  0
 28 73  1  0
 28 74  1  0
 30 75  1  0
 30 76  1  0
 30 77  1  0
 32 78  1  1
 33 79  1  0
 33 80  1  0
 34 81  1  6
 35 82  1  0
 35 83  1  0
 35 84  1  0
 36 85  1  6
 38 86  1  0
 38 87  1  0
 38 88  1  0
M  END
>  <meeko>  (1) 
{"is_sidechain": [false], "free_energy": -8.704, "intermolecular_energy": -9.976, "internal_energy": -0.592}

$$$$
LIB_IJNPXERHOGNDDN__M_PUB_ALL__e8__s20260927
     RDKit          3D

 88 95  0  0  0  0  0  0  0  0999 V2000
    5.1060  -12.6320   -0.2340 C   0  0  0  0  0  0  0  0  0  0  0  0
    4.8380  -12.5840    1.2390 C   0  0  0  0  0  0  0  0  0  0  0  0
    5.4220  -11.8520    2.0250 O   0  0  0  0  0  0  0  0  0  0  0  0
    3.8550  -13.4700    1.5590 O   0  0  0  0  0  0  0  0  0  0  0  0
    2.9920  -13.8940    0.4790 C   0  0  2  0  0  0  0  0  0  0  0  0
    1.8250  -12.8800    0.3380 C   0  0  0  0  0  0  0  0  0  0  0  0
    0.4110  -13.3560    0.7050 C   0  0  1  0  0  0  0  0  0  0  0  0
   -0.1840  -12.8160    1.9940 C   0  0  0  0  0  0  0  0  0  0  0  0
   -0.7200  -12.2890    0.6860 C   0  0  1  0  0  0  0  0  0  0  0  0
   -0.3790  -10.8390    0.3420 C   0  0  0  0  0  0  0  0  0  0  0  0
   -1.6200   -9.9480    0.2300 C   0  0  0  0  0  0  0  0  0  0  0  0
   -2.7130  -10.3660    1.2130 C   0  0  2  0  0  0  0  0  0  0  0  0
   -2.1750  -10.2300    2.5300 O   0  0  0  0  0  0  0  0  0  0  0  0
   -3.2360  -11.8150    0.9170 C   0  0  0  0  0  0  0  0  0  0  0  0
   -3.7840  -12.4680    2.2010 C   0  0  0  0  0  0  0  0  0  0  0  0
   -4.4280  -11.6910   -0.0680 C   0  0  0  0  0  0  0  0  0  0  0  0
   -2.1210  -12.6790    0.2130 C   0  0  2  0  0  0  0  0  0  0  0  0
   -2.3720  -14.1940    0.2170 C   0  0  0  0  0  0  0  0  0  0  0  0
   -1.2210  -14.9220   -0.4730 C   0  0  0  0  0  0  0  0  0  0  0  0
    0.0520  -14.8230    0.3800 C   0  0  1  0  0  0  0  0  0  0  0  0
    1.2600  -15.6180   -0.1830 C   0  0  2  0  0  0  0  0  0  0  0  0
    1.4580  -15.3110   -1.7010 C   0  0  0  0  0  0  0  0  0  0  0  0
    1.1110  -17.1460   -0.0610 C   0  0  0  0  0  0  0  0  0  0  0  0
    2.5520  -17.6900   -0.0400 C   0  0  2  0  0  0  0  0  0  0  0  0
    2.6430  -18.6640    0.9930 O   0  0  0  0  0  0  0  0  0  0  0  0
    3.9300  -19.2740    1.1240 C   0  0  2  0  0  0  0  0  0  0  0  0
    3.9440  -20.6080    0.3370 C   0  0  0  0  0  0  0  0  0  0  0  0
    3.3040  -21.6330    1.2900 C   0  0  0  0  0  0  0  0  0  0  0  0
    3.6540  -21.1440    2.6620 C   0  0  1  0  0  0  0  0  0  0  0  0
    2.9840  -21.7020    3.8620 C   0  0  0  0  0  0  0  0  0  0  0  0
    5.0170  -20.7370    2.8550 O   0  0  0  0  0  0  0  0  0  0  0  0
    4.0520  -19.7120    2.5670 C   0  0  1  0  0  0  0  0  0  0  0  0
    5.0810  -18.3430    0.7190 C   0  0  0  0  0  0  0  0  0  0  0  0
    4.7390  -16.8770    1.0360 C   0  0  1  0  0  0  0  0  0  0  0  0
    5.9520  -16.0030    0.7200 C   0  0  0  0  0  0  0  0  0  0  0  0
    3.4950  -16.4770    0.2090 C   0  0  2  0  0  0  0  0  0  0  0  0
    2.5250  -15.3520    0.7200 C   0  0  1  0  0  0  0  0  0  0  0  0
    2.2540  -15.5620    2.2450 C   0  0  0  0  0  0  0  0  0  0  0  0
    6.1754  -12.8235   -0.4061 H   0  0  0  0  0  0  0  0  0  0  0  0
    4.5113  -13.4379   -0.6888 H   0  0  0  0  0  0  0  0  0  0  0  0
    4.8280  -11.6698   -0.6888 H   0  0  0  0  0  0  0  0  0  0  0  0
    3.5310  -13.9007   -0.4798 H   0  0  0  0  0  0  0  0  0  0  0  0
    2.0587  -12.0198    0.9826 H   0  0  0  0  0  0  0  0  0  0  0  0
    1.7733  -12.6669   -0.7399 H   0  0  0  0  0  0  0  0  0  0  0  0
   -0.8137  -13.4671    2.6182 H   0  0  0  0  0  0  0  0  0  0  0  0
    0.2368  -12.3465    2.8954 H   0  0  0  0  0  0  0  0  0  0  0  0
    0.2738  -10.4350    1.1298 H   0  0  0  0  0  0  0  0  0  0  0  0
    0.1181  -10.8395   -0.6393 H   0  0  0  0  0  0  0  0  0  0  0  0
   -1.3310   -8.9078    0.4409 H   0  0  0  0  0  0  0  0  0  0  0  0
   -2.0214  -10.0495   -0.7891 H   0  0  0  0  0  0  0  0  0  0  0  0
   -3.5966   -9.7192    1.1085 H   0  0  0  0  0  0  0  0  0  0  0  0
   -2.3240   -9.3150    2.8190 H   0  0  0  0  0  0  0  0  0  0  0  0
   -3.3590  -11.9615    3.0801 H   0  0  0  0  0  0  0  0  0  0  0  0
   -4.8801  -12.3769    2.2197 H   0  0  0  0  0  0  0  0  0  0  0  0
   -3.5041  -13.5316    2.2197 H   0  0  0  0  0  0  0  0  0  0  0  0
   -5.3647  -11.5936    0.5004 H   0  0  0  0  0  0  0  0  0  0  0  0
   -4.2893  -10.8024   -0.7014 H   0  0  0  0  0  0  0  0  0  0  0  0
   -4.4752  -12.5891   -0.7014 H   0  0  0  0  0  0  0  0  0  0  0  0
   -2.1849  -12.4208   -0.8544 H   0  0  0  0  0  0  0  0  0  0  0  0
   -2.4534  -14.5459    1.2560 H   0  0  0  0  0  0  0  0  0  0  0  0
   -3.3056  -14.4041   -0.3254 H   0  0  0  0  0  0  0  0  0  0  0  0
   -1.4880  -15.9807   -0.6068 H   0  0  0  0  0  0  0  0  0  0  0  0
   -1.0357  -14.4565   -1.4523 H   0  0  0  0  0  0  0  0  0  0  0  0
   -0.1917  -15.3229    1.3291 H   0  0  0  0  0  0  0  0  0  0  0  0
    2.0510  -14.3915   -1.8148 H   0  0  0  0  0  0  0  0  0  0  0  0
    1.9860  -16.1494   -2.1788 H   0  0  0  0  0  0  0  0  0  0  0  0
    0.4765  -15.1758   -2.1788 H   0  0  0  0  0  0  0  0  0  0  0  0
    0.5852  -17.4096    0.8686 H   0  0  0  0  0  0  0  0  0  0  0  0
    0.5228  -17.5698   -0.8883 H   0  0  0  0  0  0  0  0  0  0  0  0
    2.8396  -18.1749   -0.9845 H   0  0  0  0  0  0  0  0  0  0  0  0
    3.3553  -20.5185   -0.5879 H   0  0  0  0  0  0  0  0  0  0  0  0
    4.9601  -20.9007    0.0338 H   0  0  0  0  0  0  0  0  0  0  0  0
    2.2127  -21.6607    1.1543 H   0  0  0  0  0  0  0  0  0  0  0  0
    3.6661  -22.6554    1.1068 H   0  0  0  0  0  0  0  0  0  0  0  0
    3.4631  -21.3030    4.7683 H   0  0  0  0  0  0  0  0  0  0  0  0
    1.9213  -21.4183    3.8538 H   0  0  0  0  0  0  0  0  0  0  0  0
    3.0708  -22.7985    3.8538 H   0  0  0  0  0  0  0  0  0  0  0  0
    3.8268  -18.7481    3.0468 H   0  0  0  0  0  0  0  0  0  0  0  0
    5.9874  -18.6291    1.2726 H   0  0  0  0  0  0  0  0  0  0  0  0
    5.2460  -18.4390   -0.3643 H   0  0  0  0  0  0  0  0  0  0  0  0
    4.5011  -16.7395    2.1011 H   0  0  0  0  0  0  0  0  0  0  0  0
    6.4171  -15.6679    1.6589 H   0  0  0  0  0  0  0  0  0  0  0  0
    6.6811  -16.5847    0.1368 H   0  0  0  0  0  0  0  0  0  0  0  0
    5.6310  -15.1273    0.1368 H   0  0  0  0  0  0  0  0  0  0  0  0
    4.0204  -16.0734   -0.6691 H   0  0  0  0  0  0  0  0  0  0  0  0
    2.9902  -14.9915    2.8302 H   0  0  0  0  0  0  0  0  0  0  0  0
    1.2404  -15.2112    2.4890 H   0  0  0  0  0  0  0  0  0  0  0  0
    2.3407  -16.6311    2.4890 H   0  0  0  0  0  0  0  0  0  0  0  0
  1  2  1  0
  2  3  2  0
  2  4  1  0
  4  5  1  0
  5  6  1  0
  7  6  1  1
  7  8  1  0
  9  8  1  1
  9 10  1  0
 10 11  1  0
 11 12  1  0
 12 13  1  0
 12 14  1  0
 14 15  1  0
 14 16  1  0
 14 17  1  0
 17 18  1  0
 18 19  1  0
 19 20  1  0
 20 21  1  0
 21 22  1  6
 21 23  1  0
 23 24  1  0
 24 25  1  0
 26 25  1  1
 26 27  1  0
 27 28  1  0
 28 29  1  0
 29 30  1  1
 29 31  1  0
 31 32  1  0
 26 33  1  0
 33 34  1  0
 34 35  1  0
 34 36  1  0
 36 37  1  0
 37 38  1  1
 37  5  1  0
  9  7  1  0
 37 21  1  0
 20  7  1  0
 36 24  1  0
 17  9  1  0
 32 26  1  0
 32 29  1  0
  1 39  1  0
  1 40  1  0
  1 41  1  0
  5 42  1  6
  6 43  1  0
  6 44  1  0
  8 45  1  0
  8 46  1  0
 10 47  1  0
 10 48  1  0
 11 49  1  0
 11 50  1  0
 12 51  1  1
 13 52  1  0
 15 53  1  0
 15 54  1  0
 15 55  1  0
 16 56  1  0
 16 57  1  0
 16 58  1  0
 17 59  1  6
 18 60  1  0
 18 61  1  0
 19 62  1  0
 19 63  1  0
 20 64  1  1
 22 65  1  0
 22 66  1  0
 22 67  1  0
 23 68  1  0
 23 69  1  0
 24 70  1  6
 27 71  1  0
 27 72  1  0
 28 73  1  0
 28 74  1  0
 30 75  1  0
 30 76  1  0
 30 77  1  0
 32 78  1  1
 33 79  1  0
 33 80  1  0
 34 81  1  1
 35 82  1  0
 35 83  1  0
 35 84  1  0
 36 85  1  6
 38 86  1  0
 38 87  1  0
 38 88  1  0
M  END
>  <meeko>  (2) 
{"is_sidechain": [false], "free_energy": -8.59, "intermolecular_energy": -9.979, "internal_energy": -0.459}

$$$$
LIB_IJNPXERHOGNDDN__M_PUB_ALL__e8__s20260927
     RDKit          3D

 88 95  0  0  0  0  0  0  0  0999 V2000
   -0.9960  -10.4610    0.3370 C   0  0  0  0  0  0  0  0  0  0  0  0
    0.3390  -10.1580    0.9430 C   0  0  0  0  0  0  0  0  0  0  0  0
    0.6940   -9.0490    1.3200 O   0  0  0  0  0  0  0  0  0  0  0  0
    1.0860  -11.2940    1.0090 O   0  0  0  0  0  0  0  0  0  0  0  0
    0.4580  -12.5060    0.5310 C   0  0  2  0  0  0  0  0  0  0  0  0
   -0.0630  -13.3180    1.7470 C   0  0  0  0  0  0  0  0  0  0  0  0
    0.6290  -14.6510    2.0710 C   0  0  1  0  0  0  0  0  0  0  0  0
    1.5190  -14.6840    3.3030 C   0  0  0  0  0  0  0  0  0  0  0  0
    0.1830  -15.3810    3.3700 C   0  0  1  0  0  0  0  0  0  0  0  0
   -0.8780  -14.7400    4.2640 C   0  0  0  0  0  0  0  0  0  0  0  0
   -1.3050  -15.6480    5.4230 C   0  0  0  0  0  0  0  0  0  0  0  0
   -0.1460  -16.5000    5.9370 C   0  0  2  0  0  0  0  0  0  0  0  0
    0.8630  -15.6040    6.4100 O   0  0  0  0  0  0  0  0  0  0  0  0
    0.3850  -17.4830    4.8350 C   0  0  0  0  0  0  0  0  0  0  0  0
    1.8690  -17.8220    5.0780 C   0  0  0  0  0  0  0  0  0  0  0  0
   -0.4060  -18.8100    4.9710 C   0  0  0  0  0  0  0  0  0  0  0  0
    0.1110  -16.9090    3.3930 C   0  0  2  0  0  0  0  0  0  0  0  0
    0.9050  -17.5790    2.2630 C   0  0  0  0  0  0  0  0  0  0  0  0
    0.5710  -16.9280    0.9230 C   0  0  0  0  0  0  0  0  0  0  0  0
    1.1290  -15.4980    0.8790 C   0  0  1  0  0  0  0  0  0  0  0  0
    0.9310  -14.7790   -0.4810 C   0  0  2  0  0  0  0  0  0  0  0  0
   -0.5440  -14.9260   -0.9700 C   0  0  0  0  0  0  0  0  0  0  0  0
    1.8230  -15.3270   -1.6110 C   0  0  0  0  0  0  0  0  0  0  0  0
    1.9770  -14.1600   -2.6040 C   0  0  2  0  0  0  0  0  0  0  0  0
    3.3460  -14.0760   -2.9810 O   0  0  0  0  0  0  0  0  0  0  0  0
    3.6430  -13.0390   -3.9200 C   0  0  2  0  0  0  0  0  0  0  0  0
    3.6410  -13.6320   -5.3510 C   0  0  0  0  0  0  0  0  0  0  0  0
    5.0390  -14.2540   -5.5190 C   0  0  0  0  0  0  0  0  0  0  0  0
    5.9340  -13.4140   -4.6610 C   0  0  1  0  0  0  0  0  0  0  0  0
    7.3090  -13.8590   -4.3310 C   0  0  0  0  0  0  0  0  0  0  0  0
    5.7610  -11.9930   -4.7780 O   0  0  0  0  0  0  0  0  0  0  0  0
    5.0890  -12.6570   -3.6950 C   0  0  1  0  0  0  0  0  0  0  0  0
    2.7130  -11.8250   -3.7890 C   0  0  0  0  0  0  0  0  0  0  0  0
    2.2760  -11.6230   -2.3290 C   0  0  1  0  0  0  0  0  0  0  0  0
    1.4450  -10.3440   -2.2290 C   0  0  0  0  0  0  0  0  0  0  0  0
    1.4850  -12.8740   -1.8780 C   0  0  2  0  0  0  0  0  0  0  0  0
    1.4480  -13.2930   -0.3650 C   0  0  1  0  0  0  0  0  0  0  0  0
    2.8870  -13.1830    0.2330 C   0  0  0  0  0  0  0  0  0  0  0  0
   -1.7324  -10.6281    1.1369 H   0  0  0  0  0  0  0  0  0  0  0  0
   -1.3171   -9.6129   -0.2856 H   0  0  0  0  0  0  0  0  0  0  0  0
   -0.9195  -11.3646   -0.2856 H   0  0  0  0  0  0  0  0  0  0  0  0
   -0.4126  -12.2782   -0.1016 H   0  0  0  0  0  0  0  0  0  0  0  0
    0.0317  -12.6755    2.6348 H   0  0  0  0  0  0  0  0  0  0  0  0
   -1.0897  -13.6001    1.4708 H   0  0  0  0  0  0  0  0  0  0  0  0
    2.4441  -15.2790    3.2912 H   0  0  0  0  0  0  0  0  0  0  0  0
    2.0137  -13.9136    3.9128 H   0  0  0  0  0  0  0  0  0  0  0  0
   -0.4701  -13.8071    4.6802 H   0  0  0  0  0  0  0  0  0  0  0  0
   -1.7669  -14.5551    3.6430 H   0  0  0  0  0  0  0  0  0  0  0  0
   -1.6782  -15.0215    6.2465 H   0  0  0  0  0  0  0  0  0  0  0  0
   -2.0885  -16.3260    5.0536 H   0  0  0  0  0  0  0  0  0  0  0  0
   -0.4779  -17.1492    6.7606 H   0  0  0  0  0  0  0  0  0  0  0  0
    1.1410  -15.0480    5.6640 H   0  0  0  0  0  0  0  0  0  0  0  0
    2.0626  -17.8662    6.1599 H   0  0  0  0  0  0  0  0  0  0  0  0
    2.1017  -18.7964    4.6237 H   0  0  0  0  0  0  0  0  0  0  0  0
    2.5017  -17.0453    4.6237 H   0  0  0  0  0  0  0  0  0  0  0  0
   -0.5464  -19.0456    6.0363 H   0  0  0  0  0  0  0  0  0  0  0  0
   -1.3878  -18.7029    4.4866 H   0  0  0  0  0  0  0  0  0  0  0  0
    0.1552  -19.6227    4.4866 H   0  0  0  0  0  0  0  0  0  0  0  0
   -0.9278  -17.1878    3.1625 H   0  0  0  0  0  0  0  0  0  0  0  0
    1.9814  -17.4695    2.4614 H   0  0  0  0  0  0  0  0  0  0  0  0
    0.6364  -18.6448    2.2200 H   0  0  0  0  0  0  0  0  0  0  0  0
    1.0182  -17.5185    0.1098 H   0  0  0  0  0  0  0  0  0  0  0  0
   -0.5217  -16.8926    0.8017 H   0  0  0  0  0  0  0  0  0  0  0  0
    2.2189  -15.6056    0.9818 H   0  0  0  0  0  0  0  0  0  0  0  0
   -1.2138  -14.9928   -0.1000 H   0  0  0  0  0  0  0  0  0  0  0  0
   -0.8179  -14.0507   -1.5773 H   0  0  0  0  0  0  0  0  0  0  0  0
   -0.6398  -15.8381   -1.5773 H   0  0  0  0  0  0  0  0  0  0  0  0
    2.8040  -15.6297   -1.2160 H   0  0  0  0  0  0  0  0  0  0  0  0
    1.3849  -16.2169   -2.0864 H   0  0  0  0  0  0  0  0  0  0  0  0
    1.3850  -14.2981   -3.5208 H   0  0  0  0  0  0  0  0  0  0  0  0
    2.8602  -14.4003   -5.4513 H   0  0  0  0  0  0  0  0  0  0  0  0
    3.4298  -12.8707   -6.1164 H   0  0  0  0  0  0  0  0  0  0  0  0
    5.0423  -15.2993   -5.1763 H   0  0  0  0  0  0  0  0  0  0  0  0
    5.3642  -14.2696   -6.5697 H   0  0  0  0  0  0  0  0  0  0  0  0
    7.4294  -13.8980   -3.2383 H   0  0  0  0  0  0  0  0  0  0  0  0
    7.4824  -14.8591   -4.7549 H   0  0  0  0  0  0  0  0  0  0  0  0
    8.0355  -13.1501   -4.7549 H   0  0  0  0  0  0  0  0  0  0  0  0
    5.0343  -12.4493   -2.6162 H   0  0  0  0  0  0  0  0  0  0  0  0
    3.2444  -10.9256   -4.1335 H   0  0  0  0  0  0  0  0  0  0  0  0
    1.8172  -12.0010   -4.4026 H   0  0  0  0  0  0  0  0  0  0  0  0
    3.1430  -11.5069   -1.6621 H   0  0  0  0  0  0  0  0  0  0  0  0
    1.2826  -10.0941   -1.1701 H   0  0  0  0  0  0  0  0  0  0  0  0
    1.9803   -9.5194   -2.7224 H   0  0  0  0  0  0  0  0  0  0  0  0
    0.4740  -10.4981   -2.7224 H   0  0  0  0  0  0  0  0  0  0  0  0
    0.4769  -12.5172   -2.1358 H   0  0  0  0  0  0  0  0  0  0  0  0
    2.8289  -13.1874    1.3315 H   0  0  0  0  0  0  0  0  0  0  0  0
    3.4911  -14.0376   -0.1057 H   0  0  0  0  0  0  0  0  0  0  0  0
    3.3542  -12.2465   -0.1057 H   0  0  0  0  0  0  0  0  0  0  0  0
  1  2  1  0
  2  3  2  0
  2  4  1  0
  4  5  1  0
  5  6  1  0
  7  6  1  6
  7  8  1  0
  9  8  1  1
  9 10  1  0
 10 11  1  0
 11 12  1  0
 12 13  1  0
 12 14  1  0
 14 15  1  0
 14 16  1  0
 14 17  1  0
 17 18  1  0
 18 19  1  0
 19 20  1  0
 20 21  1  0
 21 22  1  6
 21 23  1  0
 23 24  1  0
 24 25  1  0
 26 25  1  1
 26 27  1  0
 27 28  1  0
 28 29  1  0
 29 30  1  1
 29 31  1  0
 31 32  1  0
 26 33  1  0
 33 34  1  0
 34 35  1  0
 34 36  1  0
 36 37  1  0
 37 38  1  1
 37  5  1  0
  9  7  1  0
 37 21  1  0
 20  7  1  0
 36 24  1  0
 17  9  1  0
 32 26  1  0
 32 29  1  0
  1 39  1  0
  1 40  1  0
  1 41  1  0
  5 42  1  6
  6 43  1  0
  6 44  1  0
  8 45  1  0
  8 46  1  0
 10 47  1  0
 10 48  1  0
 11 49  1  0
 11 50  1  0
 12 51  1  1
 13 52  1  0
 15 53  1  0
 15 54  1  0
 15 55  1  0
 16 56  1  0
 16 57  1  0
 16 58  1  0
 17 59  1  6
 18 60  1  0
 18 61  1  0
 19 62  1  0
 19 63  1  0
 20 64  1  1
 22 65  1  0
 22 66  1  0
 22 67  1  0
 23 68  1  0
 23 69  1  0
 24 70  1  6
 27 71  1  0
 27 72  1  0
 28 73  1  0
 28 74  1  0
 30 75  1  0
 30 76  1  0
 30 77  1  0
 32 78  1  1
 33 79  1  0
 33 80  1  0
 34 81  1  1
 35 82  1  0
 35 83  1  0
 35 84  1  0
 36 85  1  6
 38 86  1  0
 38 87  1  0
 38 88  1  0
M  END
>  <meeko>  (3) 
{"is_sidechain": [false], "free_energy": -8.514, "intermolecular_energy": -10.034, "internal_energy": -0.316}

$$$$
LIB_IJNPXERHOGNDDN__M_PUB_ALL__e8__s20260927
     RDKit          3D

 88 95  0  0  0  0  0  0  0  0999 V2000
    1.8850  -18.2840    0.9610 C   0  0  0  0  0  0  0  0  0  0  0  0
    0.8170  -17.4730    0.2920 C   0  0  0  0  0  0  0  0  0  0  0  0
   -0.3830  -17.6260    0.4720 O   0  0  0  0  0  0  0  0  0  0  0  0
    1.3850  -16.5520   -0.5340 O   0  0  0  0  0  0  0  0  0  0  0  0
    2.0250  -15.4230    0.1030 C   0  0  2  0  0  0  0  0  0  0  0  0
    0.9750  -14.6620    0.9570 C   0  0  0  0  0  0  0  0  0  0  0  0
    0.5560  -13.2580    0.4980 C   0  0  1  0  0  0  0  0  0  0  0  0
   -0.8340  -13.1140   -0.0980 C   0  0  0  0  0  0  0  0  0  0  0  0
   -0.5930  -12.5700    1.2890 C   0  0  1  0  0  0  0  0  0  0  0  0
   -1.2630  -13.3170    2.4420 C   0  0  0  0  0  0  0  0  0  0  0  0
   -2.2730  -12.4520    3.2020 C   0  0  0  0  0  0  0  0  0  0  0  0
   -2.9930  -11.4700    2.2780 C   0  0  2  0  0  0  0  0  0  0  0  0
   -3.6990  -12.2420    1.3050 O   0  0  0  0  0  0  0  0  0  0  0  0
   -1.9970  -10.4440    1.6330 C   0  0  0  0  0  0  0  0  0  0  0  0
   -2.5370   -9.9390    0.2800 C   0  0  0  0  0  0  0  0  0  0  0  0
   -1.9170   -9.2130    2.5720 C   0  0  0  0  0  0  0  0  0  0  0  0
   -0.5490  -11.0600    1.5270 C   0  0  2  0  0  0  0  0  0  0  0  0
    0.4080  -10.3150    0.5860 C   0  0  0  0  0  0  0  0  0  0  0  0
    1.7660  -11.0130    0.5530 C   0  0  0  0  0  0  0  0  0  0  0  0
    1.6430  -12.3720   -0.1520 C   0  0  1  0  0  0  0  0  0  0  0  0
    2.9900  -13.1210   -0.3290 C   0  0  2  0  0  0  0  0  0  0  0  0
    3.7850  -13.1450    1.0140 C   0  0  0  0  0  0  0  0  0  0  0  0
    3.9220  -12.4870   -1.3790 C   0  0  0  0  0  0  0  0  0  0  0  0
    4.8210  -13.6390   -1.8670 C   0  0  2  0  0  0  0  0  0  0  0  0
    4.8950  -13.5730   -3.2850 O   0  0  0  0  0  0  0  0  0  0  0  0
    5.7150  -14.5790   -3.8860 C   0  0  2  0  0  0  0  0  0  0  0  0
    7.1330  -14.0040   -4.1280 C   0  0  0  0  0  0  0  0  0  0  0  0
    7.0210  -13.2300   -5.4550 C   0  0  0  0  0  0  0  0  0  0  0  0
    5.9650  -13.9570   -6.2290 C   0  0  1  0  0  0  0  0  0  0  0  0
    5.3650  -13.3570   -7.4460 C   0  0  0  0  0  0  0  0  0  0  0  0
    6.0680  -15.3890   -6.2390 O   0  0  0  0  0  0  0  0  0  0  0  0
    5.1750  -14.7940   -5.2830 C   0  0  1  0  0  0  0  0  0  0  0  0
    5.7440  -15.8880   -3.0870 C   0  0  0  0  0  0  0  0  0  0  0  0
    4.4030  -16.1240   -2.3700 C   0  0  1  0  0  0  0  0  0  0  0  0
    4.4390  -17.4870   -1.6790 C   0  0  0  0  0  0  0  0  0  0  0  0
    4.1730  -14.9650   -1.3720 C   0  0  2  0  0  0  0  0  0  0  0  0
    2.7170  -14.5390   -0.9660 C   0  0  1  0  0  0  0  0  0  0  0  0
    1.8230  -14.4810   -2.2460 C   0  0  0  0  0  0  0  0  0  0  0  0
    1.7776  -18.2024    2.0527 H   0  0  0  0  0  0  0  0  0  0  0  0
    1.7875  -19.3377    0.6607 H   0  0  0  0  0  0  0  0  0  0  0  0
    2.8738  -17.9071    0.6607 H   0  0  0  0  0  0  0  0  0  0  0  0
    2.8195  -15.7531    0.7884 H   0  0  0  0  0  0  0  0  0  0  0  0
    0.0664  -15.2814    0.9872 H   0  0  0  0  0  0  0  0  0  0  0  0
    1.4726  -14.4986    1.9243 H   0  0  0  0  0  0  0  0  0  0  0  0
   -0.9988  -12.4193   -0.9348 H   0  0  0  0  0  0  0  0  0  0  0  0
   -1.5600  -13.8183   -0.5302 H   0  0  0  0  0  0  0  0  0  0  0  0
   -1.7874  -14.1941    2.0350 H   0  0  0  0  0  0  0  0  0  0  0  0
   -0.4743  -13.6065    3.1520 H   0  0  0  0  0  0  0  0  0  0  0  0
   -3.0191  -13.1083    3.6739 H   0  0  0  0  0  0  0  0  0  0  0  0
   -1.7232  -11.8695    3.9559 H   0  0  0  0  0  0  0  0  0  0  0  0
   -3.7057  -10.8541    2.8461 H   0  0  0  0  0  0  0  0  0  0  0  0
   -4.2460  -11.6330    0.7810 H   0  0  0  0  0  0  0  0  0  0  0  0
   -3.3301   -9.1973    0.4556 H   0  0  0  0  0  0  0  0  0  0  0  0
   -1.7196   -9.4737   -0.2904 H   0  0  0  0  0  0  0  0  0  0  0  0
   -2.9465  -10.7857   -0.2904 H   0  0  0  0  0  0  0  0  0  0  0  0
   -1.9388   -9.5487    3.6193 H   0  0  0  0  0  0  0  0  0  0  0  0
   -0.9815   -8.6667    2.3815 H   0  0  0  0  0  0  0  0  0  0  0  0
   -2.7740   -8.5502    2.3815 H   0  0  0  0  0  0  0  0  0  0  0  0
   -0.0931  -10.9029    2.5157 H   0  0  0  0  0  0  0  0  0  0  0  0
   -0.0178  -10.3006   -0.4282 H   0  0  0  0  0  0  0  0  0  0  0  0
    0.5423   -9.2864    0.9519 H   0  0  0  0  0  0  0  0  0  0  0  0
    2.4854  -10.3841    0.0081 H   0  0  0  0  0  0  0  0  0  0  0  0
    2.1145  -11.1722    1.5841 H   0  0  0  0  0  0  0  0  0  0  0  0
    1.3149  -12.1428   -1.1766 H   0  0  0  0  0  0  0  0  0  0  0  0
    3.0798  -13.1237    1.8580 H   0  0  0  0  0  0  0  0  0  0  0  0
    4.3906  -14.0618    1.0653 H   0  0  0  0  0  0  0  0  0  0  0  0
    4.4448  -12.2664    1.0653 H   0  0  0  0  0  0  0  0  0  0  0  0
    3.3377  -12.0731   -2.2140 H   0  0  0  0  0  0  0  0  0  0  0  0
    4.5086  -11.6559   -0.9605 H   0  0  0  0  0  0  0  0  0  0  0  0
    5.8466  -13.5766   -1.4744 H   0  0  0  0  0  0  0  0  0  0  0  0
    7.4228  -13.3294   -3.3089 H   0  0  0  0  0  0  0  0  0  0  0  0
    7.8996  -14.7918   -4.1696 H   0  0  0  0  0  0  0  0  0  0  0  0
    6.7202  -12.1878   -5.2724 H   0  0  0  0  0  0  0  0  0  0  0  0
    7.9785  -13.1872   -5.9948 H   0  0  0  0  0  0  0  0  0  0  0  0
    4.6152  -12.6072   -7.1536 H   0  0  0  0  0  0  0  0  0  0  0  0
    6.1526  -12.8744   -8.0434 H   0  0  0  0  0  0  0  0  0  0  0  0
    4.8824  -14.1446   -8.0434 H   0  0  0  0  0  0  0  0  0  0  0  0
    4.1259  -14.9956   -5.0209 H   0  0  0  0  0  0  0  0  0  0  0  0
    5.9371  -16.7250   -3.7741 H   0  0  0  0  0  0  0  0  0  0  0  0
    6.5397  -15.8202   -2.3305 H   0  0  0  0  0  0  0  0  0  0  0  0
    3.5633  -16.1364   -3.0804 H   0  0  0  0  0  0  0  0  0  0  0  0
    4.4353  -17.3453   -0.5882 H   0  0  0  0  0  0  0  0  0  0  0  0
    3.5560  -18.0720   -1.9758 H   0  0  0  0  0  0  0  0  0  0  0  0
    5.3517  -18.0246   -1.9758 H   0  0  0  0  0  0  0  0  0  0  0  0
    4.6277  -15.4343   -0.4871 H   0  0  0  0  0  0  0  0  0  0  0  0
    0.7653  -14.4124   -1.9517 H   0  0  0  0  0  0  0  0  0  0  0  0
    2.0953  -13.5986   -2.8437 H   0  0  0  0  0  0  0  0  0  0  0  0
    1.9790  -15.3912   -2.8437 H   0  0  0  0  0  0  0  0  0  0  0  0
  1  2  1  0
  2  3  2  0
  2  4  1  0
  4  5  1  0
  5  6  1  0
  7  6  1  1
  7  8  1  0
  9  8  1  6
  9 10  1  0
 10 11  1  0
 11 12  1  0
 12 13  1  0
 12 14  1  0
 14 15  1  0
 14 16  1  0
 14 17  1  0
 17 18  1  0
 18 19  1  0
 19 20  1  0
 20 21  1  0
 21 22  1  1
 21 23  1  0
 23 24  1  0
 24 25  1  0
 26 25  1  1
 26 27  1  0
 27 28  1  0
 28 29  1  0
 29 30  1  6
 29 31  1  0
 31 32  1  0
 26 33  1  0
 33 34  1  0
 34 35  1  0
 34 36  1  0
 36 37  1  0
 37 38  1  6
 37  5  1  0
  9  7  1  0
 37 21  1  0
 20  7  1  0
 36 24  1  0
 17  9  1  0
 32 26  1  0
 32 29  1  0
  1 39  1  0
  1 40  1  0
  1 41  1  0
  5 42  1  1
  6 43  1  0
  6 44  1  0
  8 45  1  0
  8 46  1  0
 10 47  1  0
 10 48  1  0
 11 49  1  0
 11 50  1  0
 12 51  1  1
 13 52  1  0
 15 53  1  0
 15 54  1  0
 15 55  1  0
 16 56  1  0
 16 57  1  0
 16 58  1  0
 17 59  1  1
 18 60  1  0
 18 61  1  0
 19 62  1  0
 19 63  1  0
 20 64  1  6
 22 65  1  0
 22 66  1  0
 22 67  1  0
 23 68  1  0
 23 69  1  0
 24 70  1  1
 27 71  1  0
 27 72  1  0
 28 73  1  0
 28 74  1  0
 30 75  1  0
 30 76  1  0
 30 77  1  0
 32 78  1  1
 33 79  1  0
 33 80  1  0
 34 81  1  6
 35 82  1  0
 35 83  1  0
 35 84  1  0
 36 85  1  1
 38 86  1  0
 38 87  1  0
 38 88  1  0
M  END
>  <meeko>  (4) 
{"is_sidechain": [false], "free_energy": -8.384, "intermolecular_energy": -9.677, "internal_energy": -0.525}

$$$$
LIB_IJNPXERHOGNDDN__M_PUB_ALL__e8__s20260927
     RDKit          3D

 88 95  0  0  0  0  0  0  0  0999 V2000
   13.1220  -11.1030   -0.2530 C   0  0  0  0  0  0  0  0  0  0  0  0
   12.9040  -11.3380   -1.7160 C   0  0  0  0  0  0  0  0  0  0  0  0
   13.7310  -11.1020   -2.5860 O   0  0  0  0  0  0  0  0  0  0  0  0
   11.6600  -11.8500   -1.9220 O   0  0  0  0  0  0  0  0  0  0  0  0
   11.5480  -13.2920   -1.9240 C   0  0  2  0  0  0  0  0  0  0  0  0
   12.4130  -13.8640   -3.0800 C   0  0  0  0  0  0  0  0  0  0  0  0
   11.6860  -14.5170   -4.2650 C   0  0  1  0  0  0  0  0  0  0  0  0
   11.6730  -13.7460   -5.5740 C   0  0  0  0  0  0  0  0  0  0  0  0
   12.5610  -14.9610   -5.4720 C   0  0  1  0  0  0  0  0  0  0  0  0
   14.0680  -14.7050   -5.4410 C   0  0  0  0  0  0  0  0  0  0  0  0
   14.8000  -15.3250   -6.6360 C   0  0  0  0  0  0  0  0  0  0  0  0
   13.9470  -15.2980   -7.9030 C   0  0  2  0  0  0  0  0  0  0  0  0
   13.6720  -13.9280   -8.2020 O   0  0  0  0  0  0  0  0  0  0  0  0
   12.6440  -16.1580   -7.7450 C   0  0  0  0  0  0  0  0  0  0  0  0
   11.5280  -15.6280   -8.6660 C   0  0  0  0  0  0  0  0  0  0  0  0
   12.9730  -17.5980   -8.2190 C   0  0  0  0  0  0  0  0  0  0  0  0
   12.2090  -16.2400   -6.2320 C   0  0  2  0  0  0  0  0  0  0  0  0
   10.7700  -16.7220   -5.9940 C   0  0  0  0  0  0  0  0  0  0  0  0
   10.4610  -16.7420   -4.4990 C   0  0  0  0  0  0  0  0  0  0  0  0
   10.3950  -15.3070   -3.9550 C   0  0  1  0  0  0  0  0  0  0  0  0
    9.9850  -15.2100   -2.4620 C   0  0  2  0  0  0  0  0  0  0  0  0
   10.8230  -16.2040   -1.5980 C   0  0  0  0  0  0  0  0  0  0  0  0
    8.5040  -15.5420   -2.2000 C   0  0  0  0  0  0  0  0  0  0  0  0
    8.1490  -14.7980   -0.8990 C   0  0  2  0  0  0  0  0  0  0  0  0
    6.8920  -14.1590   -1.0830 O   0  0  0  0  0  0  0  0  0  0  0  0
    6.4200  -13.4340    0.0570 C   0  0  2  0  0  0  0  0  0  0  0  0
    5.4560  -14.3340    0.8690 C   0  0  0  0  0  0  0  0  0  0  0  0
    4.0980  -14.1970    0.1560 C   0  0  0  0  0  0  0  0  0  0  0  0
    4.1120  -12.8170   -0.4250 C   0  0  1  0  0  0  0  0  0  0  0  0
    3.1000  -12.4040   -1.4270 C   0  0  0  0  0  0  0  0  0  0  0  0
    4.5740  -11.7740    0.4460 O   0  0  0  0  0  0  0  0  0  0  0  0
    5.5220  -12.3380   -0.4740 C   0  0  1  0  0  0  0  0  0  0  0  0
    7.5540  -12.8640    0.9180 C   0  0  0  0  0  0  0  0  0  0  0  0
    8.7700  -12.4930    0.0520 C   0  0  1  0  0  0  0  0  0  0  0  0
    9.8280  -11.8300    0.9340 C   0  0  0  0  0  0  0  0  0  0  0  0
    9.2950  -13.7790   -0.6280 C   0  0  2  0  0  0  0  0  0  0  0  0
   10.0560  -13.7030   -1.9990 C   0  0  1  0  0  0  0  0  0  0  0  0
    9.2970  -12.7260   -2.9540 C   0  0  0  0  0  0  0  0  0  0  0  0
   12.4864  -11.7882    0.3271 H   0  0  0  0  0  0  0  0  0  0  0  0
   14.1783  -11.2849   -0.0058 H   0  0  0  0  0  0  0  0  0  0  0  0
   12.8614  -10.0633   -0.0058 H   0  0  0  0  0  0  0  0  0  0  0  0
   11.9363  -13.7215   -0.9887 H   0  0  0  0  0  0  0  0  0  0  0  0
   13.0141  -13.0346   -3.4810 H   0  0  0  0  0  0  0  0  0  0  0  0
   12.9825  -14.6845   -2.6191 H   0  0  0  0  0  0  0  0  0  0  0  0
   10.7798  -13.7762   -6.2153 H   0  0  0  0  0  0  0  0  0  0  0  0
   11.8416  -12.6935   -5.8458 H   0  0  0  0  0  0  0  0  0  0  0  0
   14.2402  -13.6186   -5.4484 H   0  0  0  0  0  0  0  0  0  0  0  0
   14.4652  -15.1747   -4.5291 H   0  0  0  0  0  0  0  0  0  0  0  0
   15.7257  -14.7595   -6.8184 H   0  0  0  0  0  0  0  0  0  0  0  0
   15.0183  -16.3757   -6.3943 H   0  0  0  0  0  0  0  0  0  0  0  0
   14.4886  -15.7563   -8.7436 H   0  0  0  0  0  0  0  0  0  0  0  0
   13.4320  -13.8700   -9.1420 H   0  0  0  0  0  0  0  0  0  0  0  0
   10.7025  -15.2360   -8.0537 H   0  0  0  0  0  0  0  0  0  0  0  0
   11.9277  -14.8235   -9.3009 H   0  0  0  0  0  0  0  0  0  0  0  0
   11.1571  -16.4461   -9.3009 H   0  0  0  0  0  0  0  0  0  0  0  0
   13.1213  -18.2473   -7.3435 H   0  0  0  0  0  0  0  0  0  0  0  0
   12.1399  -17.9839   -8.8248 H   0  0  0  0  0  0  0  0  0  0  0  0
   13.8911  -17.5839   -8.8248 H   0  0  0  0  0  0  0  0  0  0  0  0
   12.8152  -17.0492   -5.7988 H   0  0  0  0  0  0  0  0  0  0  0  0
   10.0703  -16.0410   -6.5006 H   0  0  0  0  0  0  0  0  0  0  0  0
   10.6613  -17.7399   -6.3966 H   0  0  0  0  0  0  0  0  0  0  0  0
    9.4935  -17.2386   -4.3340 H   0  0  0  0  0  0  0  0  0  0  0  0
   11.2571  -17.2901   -3.9739 H   0  0  0  0  0  0  0  0  0  0  0  0
    9.5715  -14.8240   -4.5014 H   0  0  0  0  0  0  0  0  0  0  0  0
   10.6498  -15.9986   -0.5313 H   0  0  0  0  0  0  0  0  0  0  0  0
   10.5182  -17.2358   -1.8269 H   0  0  0  0  0  0  0  0  0  0  0  0
   11.8915  -16.0780   -1.8269 H   0  0  0  0  0  0  0  0  0  0  0  0
    7.8762  -15.1877   -3.0309 H   0  0  0  0  0  0  0  0  0  0  0  0
    8.3338  -16.6254   -2.1143 H   0  0  0  0  0  0  0  0  0  0  0  0
    8.0597  -15.4700   -0.0327 H   0  0  0  0  0  0  0  0  0  0  0  0
    5.7975  -15.3796    0.8551 H   0  0  0  0  0  0  0  0  0  0  0  0
    5.4020  -14.0373    1.9269 H   0  0  0  0  0  0  0  0  0  0  0  0
    3.9989  -14.9515   -0.6383 H   0  0  0  0  0  0  0  0  0  0  0  0
    3.2508  -14.3522    0.8403 H   0  0  0  0  0  0  0  0  0  0  0  0
    2.2009  -12.0371   -0.9103 H   0  0  0  0  0  0  0  0  0  0  0  0
    3.5135  -11.6027   -2.0570 H   0  0  0  0  0  0  0  0  0  0  0  0
    2.8348  -13.2658   -2.0570 H   0  0  0  0  0  0  0  0  0  0  0  0
    6.2264  -11.8838   -1.1864 H   0  0  0  0  0  0  0  0  0  0  0  0
    7.1938  -11.9636    1.4371 H   0  0  0  0  0  0  0  0  0  0  0  0
    7.8617  -13.6304    1.6446 H   0  0  0  0  0  0  0  0  0  0  0  0
    8.4989  -11.7744   -0.7355 H   0  0  0  0  0  0  0  0  0  0  0  0
    9.5747  -11.9887    1.9926 H   0  0  0  0  0  0  0  0  0  0  0  0
   10.8122  -12.2732    0.7220 H   0  0  0  0  0  0  0  0  0  0  0  0
    9.8584  -10.7510    0.7220 H   0  0  0  0  0  0  0  0  0  0  0  0
   10.0359  -14.0620    0.1342 H   0  0  0  0  0  0  0  0  0  0  0  0
    8.7302  -11.9963   -2.3571 H   0  0  0  0  0  0  0  0  0  0  0  0
   10.0226  -12.1960   -3.5885 H   0  0  0  0  0  0  0  0  0  0  0  0
    8.6041  -13.2980   -3.5885 H   0  0  0  0  0  0  0  0  0  0  0  0
  1  2  1  0
  2  3  2  0
  2  4  1  0
  4  5  1  0
  5  6  1  0
  7  6  1  1
  7  8  1  0
  9  8  1  6
  9 10  1  0
 10 11  1  0
 11 12  1  0
 12 13  1  0
 12 14  1  0
 14 15  1  0
 14 16  1  0
 14 17  1  0
 17 18  1  0
 18 19  1  0
 19 20  1  0
 20 21  1  0
 21 22  1  1
 21 23  1  0
 23 24  1  0
 24 25  1  0
 26 25  1  6
 26 27  1  0
 27 28  1  0
 28 29  1  0
 29 30  1  6
 29 31  1  0
 31 32  1  0
 26 33  1  0
 33 34  1  0
 34 35  1  0
 34 36  1  0
 36 37  1  0
 37 38  1  6
 37  5  1  0
  9  7  1  0
 37 21  1  0
 20  7  1  0
 36 24  1  0
 17  9  1  0
 32 26  1  0
 32 29  1  0
  1 39  1  0
  1 40  1  0
  1 41  1  0
  5 42  1  1
  6 43  1  0
  6 44  1  0
  8 45  1  0
  8 46  1  0
 10 47  1  0
 10 48  1  0
 11 49  1  0
 11 50  1  0
 12 51  1  6
 13 52  1  0
 15 53  1  0
 15 54  1  0
 15 55  1  0
 16 56  1  0
 16 57  1  0
 16 58  1  0
 17 59  1  1
 18 60  1  0
 18 61  1  0
 19 62  1  0
 19 63  1  0
 20 64  1  6
 22 65  1  0
 22 66  1  0
 22 67  1  0
 23 68  1  0
 23 69  1  0
 24 70  1  1
 27 71  1  0
 27 72  1  0
 28 73  1  0
 28 74  1  0
 30 75  1  0
 30 76  1  0
 30 77  1  0
 32 78  1  6
 33 79  1  0
 33 80  1  0
 34 81  1  6
 35 82  1  0
 35 83  1  0
 35 84  1  0
 36 85  1  1
 38 86  1  0
 38 87  1  0
 38 88  1  0
M  END
>  <meeko>  (5) 
{"is_sidechain": [false], "free_energy": -8.365, "intermolecular_energy": -9.846, "internal_energy": -0.334}

$$$$
LIB_IJNPXERHOGNDDN__M_PUB_ALL__e8__s20260927
     RDKit          3D

 88 95  0  0  0  0  0  0  0  0999 V2000
    2.2000  -18.2250    3.5520 C   0  0  0  0  0  0  0  0  0  0  0  0
    1.1670  -17.8230    2.5450 C   0  0  0  0  0  0  0  0  0  0  0  0
   -0.0380  -17.9770    2.6890 O   0  0  0  0  0  0  0  0  0  0  0  0
    1.7700  -17.2660    1.4590 O   0  0  0  0  0  0  0  0  0  0  0  0
    2.4780  -16.0240    1.6810 C   0  0  2  0  0  0  0  0  0  0  0  0
    1.4730  -14.9540    2.1870 C   0  0  0  0  0  0  0  0  0  0  0  0
    1.1480  -13.7770    1.2550 C   0  0  1  0  0  0  0  0  0  0  0  0
   -0.2270  -13.7700    0.6080 C   0  0  0  0  0  0  0  0  0  0  0  0
    0.0400  -12.7910    1.7240 C   0  0  1  0  0  0  0  0  0  0  0  0
   -0.6840  -13.0480    3.0450 C   0  0  0  0  0  0  0  0  0  0  0  0
   -1.6420  -11.9150    3.4280 C   0  0  0  0  0  0  0  0  0  0  0  0
   -2.2910  -11.2790    2.2000 C   0  0  2  0  0  0  0  0  0  0  0  0
   -3.0390  -12.3000    1.5370 O   0  0  0  0  0  0  0  0  0  0  0  0
   -1.2270  -10.6020    1.2660 C   0  0  0  0  0  0  0  0  0  0  0  0
   -1.7260  -10.5710   -0.1920 C   0  0  0  0  0  0  0  0  0  0  0  0
   -1.0760   -9.1270    1.7200 C   0  0  0  0  0  0  0  0  0  0  0  0
    0.1780  -11.2980    1.4230 C   0  0  2  0  0  0  0  0  0  0  0  0
    1.1880  -10.9850    0.3090 C   0  0  0  0  0  0  0  0  0  0  0  0
    2.4980  -11.7280    0.5600 C   0  0  0  0  0  0  0  0  0  0  0  0
    2.2930  -13.2380    0.3690 C   0  0  1  0  0  0  0  0  0  0  0  0
    3.5900  -14.0780    0.5030 C   0  0  2  0  0  0  0  0  0  0  0  0
    4.3730  -13.6770    1.7910 C   0  0  0  0  0  0  0  0  0  0  0  0
    4.5680  -13.9060   -0.6760 C   0  0  0  0  0  0  0  0  0  0  0  0
    5.3940  -15.2050   -0.7060 C   0  0  2  0  0  0  0  0  0  0  0  0
    5.4820  -15.6430   -2.0570 O   0  0  0  0  0  0  0  0  0  0  0  0
    6.2400  -16.8410   -2.2460 C   0  0  2  0  0  0  0  0  0  0  0  0
    7.6930  -16.4700   -2.6330 C   0  0  0  0  0  0  0  0  0  0  0  0
    7.6390  -16.2030   -4.1480 C   0  0  0  0  0  0  0  0  0  0  0  0
    6.5440  -17.0930   -4.6510 C   0  0  1  0  0  0  0  0  0  0  0  0
    5.9920  -16.9220   -6.0170 C   0  0  0  0  0  0  0  0  0  0  0  0
    6.5560  -18.4410   -4.1580 O   0  0  0  0  0  0  0  0  0  0  0  0
    5.6960  -17.5000   -3.4950 C   0  0  1  0  0  0  0  0  0  0  0  0
    6.1790  -17.7880   -1.0400 C   0  0  0  0  0  0  0  0  0  0  0  0
    4.8220  -17.6810   -0.3250 C   0  0  1  0  0  0  0  0  0  0  0  0
    4.7660  -18.7160    0.7980 C   0  0  0  0  0  0  0  0  0  0  0  0
    4.6600  -16.2350    0.2010 C   0  0  2  0  0  0  0  0  0  0  0  0
    3.2310  -15.6110    0.3910 C   0  0  1  0  0  0  0  0  0  0  0  0
    2.3520  -15.9530   -0.8540 C   0  0  0  0  0  0  0  0  0  0  0  0
    1.8030  -18.0705    4.5662 H   0  0  0  0  0  0  0  0  0  0  0  0
    2.4521  -19.2869    3.4147 H   0  0  0  0  0  0  0  0  0  0  0  0
    3.1036  -17.6129    3.4147 H   0  0  0  0  0  0  0  0  0  0  0  0
    3.2461  -16.1387    2.4600 H   0  0  0  0  0  0  0  0  0  0  0  0
    0.5266  -15.4704    2.4051 H   0  0  0  0  0  0  0  0  0  0  0  0
    1.9729  -14.4922    3.0512 H   0  0  0  0  0  0  0  0  0  0  0  0
   -0.3424  -13.4032   -0.4226 H   0  0  0  0  0  0  0  0  0  0  0  0
   -0.9940  -14.5378    0.4284 H   0  0  0  0  0  0  0  0  0  0  0  0
   -1.2609  -13.9802    2.9539 H   0  0  0  0  0  0  0  0  0  0  0  0
    0.0801  -13.1160    3.8334 H   0  0  0  0  0  0  0  0  0  0  0  0
   -2.4315  -12.3210    4.0775 H   0  0  0  0  0  0  0  0  0  0  0  0
   -1.0616  -11.1385    3.9478 H   0  0  0  0  0  0  0  0  0  0  0  0
   -2.9664  -10.4634    2.4977 H   0  0  0  0  0  0  0  0  0  0  0  0
   -3.9750  -12.1850    1.7740 H   0  0  0  0  0  0  0  0  0  0  0  0
   -2.8238  -10.5028   -0.2024 H   0  0  0  0  0  0  0  0  0  0  0  0
   -1.2995   -9.6976   -0.7070 H   0  0  0  0  0  0  0  0  0  0  0  0
   -1.4108  -11.4905   -0.7070 H   0  0  0  0  0  0  0  0  0  0  0  0
   -1.0712   -9.0803    2.8190 H   0  0  0  0  0  0  0  0  0  0  0  0
   -0.1314   -8.7187    1.3315 H   0  0  0  0  0  0  0  0  0  0  0  0
   -1.9183   -8.5357    1.3315 H   0  0  0  0  0  0  0  0  0  0  0  0
    0.6350  -10.8317    2.3083 H   0  0  0  0  0  0  0  0  0  0  0  0
    0.7709  -11.3008   -0.6586 H   0  0  0  0  0  0  0  0  0  0  0  0
    1.3858   -9.9030    0.2979 H   0  0  0  0  0  0  0  0  0  0  0  0
    3.2600  -11.3717   -0.1488 H   0  0  0  0  0  0  0  0  0  0  0  0
    2.8283  -11.5371    1.5917 H   0  0  0  0  0  0  0  0  0  0  0  0
    1.9873  -13.3621   -0.6803 H   0  0  0  0  0  0  0  0  0  0  0  0
    3.7948  -13.9731    2.6787 H   0  0  0  0  0  0  0  0  0  0  0  0
    5.3476  -14.1870    1.8013 H   0  0  0  0  0  0  0  0  0  0  0  0
    4.5288  -12.5881    1.8013 H   0  0  0  0  0  0  0  0  0  0  0  0
    4.0168  -13.7772   -1.6192 H   0  0  0  0  0  0  0  0  0  0  0  0
    5.2039  -13.0163   -0.5571 H   0  0  0  0  0  0  0  0  0  0  0  0
    6.4187  -15.0686   -0.3300 H   0  0  0  0  0  0  0  0  0  0  0  0
    8.0205  -15.5699   -2.0921 H   0  0  0  0  0  0  0  0  0  0  0  0
    8.4077  -17.2658   -2.3763 H   0  0  0  0  0  0  0  0  0  0  0  0
    7.4037  -15.1472   -4.3479 H   0  0  0  0  0  0  0  0  0  0  0  0
    8.6009  -16.4062   -4.6414 H   0  0  0  0  0  0  0  0  0  0  0  0
    4.9432  -16.5971   -5.9506 H   0  0  0  0  0  0  0  0  0  0  0  0
    6.5775  -16.1631   -6.5567 H   0  0  0  0  0  0  0  0  0  0  0  0
    6.0460  -17.8790   -6.5567 H   0  0  0  0  0  0  0  0  0  0  0  0
    4.6345  -17.5373   -3.2088 H   0  0  0  0  0  0  0  0  0  0  0  0
    6.3226  -18.8220   -1.3867 H   0  0  0  0  0  0  0  0  0  0  0  0
    6.9720  -17.5059   -0.3318 H   0  0  0  0  0  0  0  0  0  0  0  0
    3.9883  -17.8922   -1.0109 H   0  0  0  0  0  0  0  0  0  0  0  0
    4.7937  -18.2033    1.7708 H   0  0  0  0  0  0  0  0  0  0  0  0
    3.8351  -19.2963    0.7157 H   0  0  0  0  0  0  0  0  0  0  0  0
    5.6288  -19.3933    0.7157 H   0  0  0  0  0  0  0  0  0  0  0  0
    5.0781  -16.3911    1.2064 H   0  0  0  0  0  0  0  0  0  0  0  0
    1.3753  -16.3330   -0.5200 H   0  0  0  0  0  0  0  0  0  0  0  0
    2.2052  -15.0464   -1.4594 H   0  0  0  0  0  0  0  0  0  0  0  0
    2.8565  -16.7204   -1.4594 H   0  0  0  0  0  0  0  0  0  0  0  0
  1  2  1  0
  2  3  2  0
  2  4  1  0
  4  5  1  0
  5  6  1  0
  7  6  1  1
  7  8  1  0
  9  8  1  6
  9 10  1  0
 10 11  1  0
 11 12  1  0
 12 13  1  0
 12 14  1  0
 14 15  1  0
 14 16  1  0
 14 17  1  0
 17 18  1  0
 18 19  1  0
 19 20  1  0
 20 21  1  0
 21 22  1  1
 21 23  1  0
 23 24  1  0
 24 25  1  0
 26 25  1  1
 26 27  1  0
 27 28  1  0
 28 29  1  0
 29 30  1  6
 29 31  1  0
 31 32  1  0
 26 33  1  0
 33 34  1  0
 34 35  1  0
 34 36  1  0
 36 37  1  0
 37 38  1  6
 37  5  1  0
  9  7  1  0
 37 21  1  0
 20  7  1  0
 36 24  1  0
 17  9  1  0
 32 26  1  0
 32 29  1  0
  1 39  1  0
  1 40  1  0
  1 41  1  0
  5 42  1  1
  6 43  1  0
  6 44  1  0
  8 45  1  0
  8 46  1  0
 10 47  1  0
 10 48  1  0
 11 49  1  0
 11 50  1  0
 12 51  1  1
 13 52  1  0
 15 53  1  0
 15 54  1  0
 15 55  1  0
 16 56  1  0
 16 57  1  0
 16 58  1  0
 17 59  1  1
 18 60  1  0
 18 61  1  0
 19 62  1  0
 19 63  1  0
 20 64  1  6
 22 65  1  0
 22 66  1  0
 22 67  1  0
 23 68  1  0
 23 69  1  0
 24 70  1  1
 27 71  1  0
 27 72  1  0
 28 73  1  0
 28 74  1  0
 30 75  1  0
 30 76  1  0
 30 77  1  0
 32 78  1  6
 33 79  1  0
 33 80  1  0
 34 81  1  6
 35 82  1  0
 35 83  1  0
 35 84  1  0
 36 85  1  1
 38 86  1  0
 38 87  1  0
 38 88  1  0
M  END
>  <meeko>  (6) 
{"is_sidechain": [false], "free_energy": -8.23, "intermolecular_energy": -9.463, "internal_energy": -0.562}

$$$$
LIB_IJNPXERHOGNDDN__M_PUB_ALL__e8__s20260927
     RDKit          3D

 88 95  0  0  0  0  0  0  0  0999 V2000
    5.7630  -10.9760    1.6430 C   0  0  0  0  0  0  0  0  0  0  0  0
    5.5400  -12.4350    1.9000 C   0  0  0  0  0  0  0  0  0  0  0  0
    5.6260  -12.9660    2.9980 O   0  0  0  0  0  0  0  0  0  0  0  0
    5.2290  -13.0680    0.7350 O   0  0  0  0  0  0  0  0  0  0  0  0
    4.0110  -12.6470    0.0780 C   0  0  2  0  0  0  0  0  0  0  0  0
    2.7980  -13.0480    0.9580 C   0  0  0  0  0  0  0  0  0  0  0  0
    1.8600  -14.1450    0.4320 C   0  0  1  0  0  0  0  0  0  0  0  0
    1.9310  -15.4990    1.1180 C   0  0  0  0  0  0  0  0  0  0  0  0
    0.7300  -14.6270    1.3870 C   0  0  1  0  0  0  0  0  0  0  0  0
    0.6250  -14.0240    2.7880 C   0  0  0  0  0  0  0  0  0  0  0  0
   -0.6180  -14.5010    3.5470 C   0  0  0  0  0  0  0  0  0  0  0  0
   -0.9790  -15.9450    3.2000 C   0  0  2  0  0  0  0  0  0  0  0  0
    0.1280  -16.7630    3.5840 O   0  0  0  0  0  0  0  0  0  0  0  0
   -1.3530  -16.1020    1.6840 C   0  0  0  0  0  0  0  0  0  0  0  0
   -1.0630  -17.5360    1.1990 C   0  0  0  0  0  0  0  0  0  0  0  0
   -2.8830  -15.8840    1.5540 C   0  0  0  0  0  0  0  0  0  0  0  0
   -0.6380  -14.9990    0.8140 C   0  0  2  0  0  0  0  0  0  0  0  0
   -0.6190  -15.2730   -0.6970 C   0  0  0  0  0  0  0  0  0  0  0  0
    0.1140  -14.1510   -1.4280 C   0  0  0  0  0  0  0  0  0  0  0  0
    1.6130  -14.1940   -1.0920 C   0  0  1  0  0  0  0  0  0  0  0  0
    2.4680  -13.1550   -1.8640 C   0  0  2  0  0  0  0  0  0  0  0  0
    1.8150  -11.7400   -1.7840 C   0  0  0  0  0  0  0  0  0  0  0  0
    2.6360  -13.4760   -3.3620 C   0  0  0  0  0  0  0  0  0  0  0  0
    3.9490  -12.7860   -3.7760 C   0  0  2  0  0  0  0  0  0  0  0  0
    4.7000  -13.7000   -4.5650 O   0  0  0  0  0  0  0  0  0  0  0  0
    5.9500  -13.1900   -5.0400 C   0  0  2  0  0  0  0  0  0  0  0  0
    5.7620  -12.6380   -6.4750 C   0  0  0  0  0  0  0  0  0  0  0  0
    5.8620  -13.8750   -7.3860 C   0  0  0  0  0  0  0  0  0  0  0  0
    6.7840  -14.8070   -6.6610 C   0  0  1  0  0  0  0  0  0  0  0  0
    6.9130  -16.2250   -7.0770 C   0  0  0  0  0  0  0  0  0  0  0  0
    7.9740  -14.2160   -6.1190 O   0  0  0  0  0  0  0  0  0  0  0  0
    6.8560  -14.3870   -5.2340 C   0  0  1  0  0  0  0  0  0  0  0  0
    6.5760  -12.1580   -4.0940 C   0  0  0  0  0  0  0  0  0  0  0  0
    6.2270  -12.4710   -2.6290 C   0  0  1  0  0  0  0  0  0  0  0  0
    6.9600  -11.4860   -1.7180 C   0  0  0  0  0  0  0  0  0  0  0  0
    4.6910  -12.3900   -2.4660 C   0  0  2  0  0  0  0  0  0  0  0  0
    3.9600  -13.2290   -1.3570 C   0  0  1  0  0  0  0  0  0  0  0  0
    4.5400  -14.6800   -1.3470 C   0  0  0  0  0  0  0  0  0  0  0  0
    5.8445  -10.4431    2.6018 H   0  0  0  0  0  0  0  0  0  0  0  0
    6.6920  -10.8425    1.0692 H   0  0  0  0  0  0  0  0  0  0  0  0
    4.9163  -10.5711    1.0692 H   0  0  0  0  0  0  0  0  0  0  0  0
    3.9789  -11.5533   -0.0346 H   0  0  0  0  0  0  0  0  0  0  0  0
    3.1941  -13.3916    1.9250 H   0  0  0  0  0  0  0  0  0  0  0  0
    2.1724  -12.1439    0.9940 H   0  0  0  0  0  0  0  0  0  0  0  0
    1.8153  -16.4175    0.5239 H   0  0  0  0  0  0  0  0  0  0  0  0
    2.6755  -15.9970    1.7566 H   0  0  0  0  0  0  0  0  0  0  0  0
    1.5188  -14.3101    3.3619 H   0  0  0  0  0  0  0  0  0  0  0  0
    0.5458  -12.9328    2.6743 H   0  0  0  0  0  0  0  0  0  0  0  0
   -0.4227  -14.4332    4.6274 H   0  0  0  0  0  0  0  0  0  0  0  0
   -1.4624  -13.8592    3.2554 H   0  0  0  0  0  0  0  0  0  0  0  0
   -1.8787  -16.2622    3.7477 H   0  0  0  0  0  0  0  0  0  0  0  0
    0.3620  -17.3220    2.8250 H   0  0  0  0  0  0  0  0  0  0  0  0
   -0.9293  -18.1970    2.0680 H   0  0  0  0  0  0  0  0  0  0  0  0
   -1.9067  -17.8952    0.5914 H   0  0  0  0  0  0  0  0  0  0  0  0
   -0.1460  -17.5392    0.5914 H   0  0  0  0  0  0  0  0  0  0  0  0
   -3.3308  -15.8202    2.5567 H   0  0  0  0  0  0  0  0  0  0  0  0
   -3.0750  -14.9494    1.0065 H   0  0  0  0  0  0  0  0  0  0  0  0
   -3.3284  -16.7278    1.0065 H   0  0  0  0  0  0  0  0  0  0  0  0
   -1.2756  -14.1063    0.8945 H   0  0  0  0  0  0  0  0  0  0  0  0
   -0.1048  -16.2267   -0.8867 H   0  0  0  0  0  0  0  0  0  0  0  0
   -1.6543  -15.3243   -1.0651 H   0  0  0  0  0  0  0  0  0  0  0  0
   -0.0196  -14.2753   -2.5128 H   0  0  0  0  0  0  0  0  0  0  0  0
   -0.2992  -13.1828   -1.1089 H   0  0  0  0  0  0  0  0  0  0  0  0
    1.9669  -15.1706   -1.4539 H   0  0  0  0  0  0  0  0  0  0  0  0
    1.6838  -11.4558   -0.7295 H   0  0  0  0  0  0  0  0  0  0  0  0
    2.4659  -11.0070   -2.2831 H   0  0  0  0  0  0  0  0  0  0  0  0
    0.8349  -11.7597   -2.2831 H   0  0  0  0  0  0  0  0  0  0  0  0
    2.7048  -14.5626   -3.5186 H   0  0  0  0  0  0  0  0  0  0  0  0
    1.7804  -13.1242   -3.9571 H   0  0  0  0  0  0  0  0  0  0  0  0
    3.7842  -11.8800   -4.3776 H   0  0  0  0  0  0  0  0  0  0  0  0
    4.7781  -12.1575   -6.5799 H   0  0  0  0  0  0  0  0  0  0  0  0
    6.5110  -11.8732   -6.7281 H   0  0  0  0  0  0  0  0  0  0  0  0
    4.8730  -14.3366   -7.5235 H   0  0  0  0  0  0  0  0  0  0  0  0
    6.2306  -13.6231   -8.3913 H   0  0  0  0  0  0  0  0  0  0  0  0
    6.9712  -16.8651   -6.1844 H   0  0  0  0  0  0  0  0  0  0  0  0
    6.0373  -16.5121   -7.6776 H   0  0  0  0  0  0  0  0  0  0  0  0
    7.8262  -16.3493   -7.6776 H   0  0  0  0  0  0  0  0  0  0  0  0
    6.7645  -14.8235   -4.2285 H   0  0  0  0  0  0  0  0  0  0  0  0
    7.6692  -12.1754   -4.2151 H   0  0  0  0  0  0  0  0  0  0  0  0
    6.1765  -11.1643   -4.3451 H   0  0  0  0  0  0  0  0  0  0  0  0
    6.5497  -13.4839   -2.3463 H   0  0  0  0  0  0  0  0  0  0  0  0
    6.7669  -11.7455   -0.6666 H   0  0  0  0  0  0  0  0  0  0  0  0
    8.0408  -11.5381   -1.9160 H   0  0  0  0  0  0  0  0  0  0  0  0
    6.5997  -10.4657   -1.9160 H   0  0  0  0  0  0  0  0  0  0  0  0
    4.6268  -11.3344   -2.1635 H   0  0  0  0  0  0  0  0  0  0  0  0
    4.6736  -15.0143   -0.3076 H   0  0  0  0  0  0  0  0  0  0  0  0
    3.8433  -15.3569   -1.8632 H   0  0  0  0  0  0  0  0  0  0  0  0
    5.5113  -14.6902   -1.8632 H   0  0  0  0  0  0  0  0  0  0  0  0
  1  2  1  0
  2  3  2  0
  2  4  1  0
  4  5  1  0
  5  6  1  0
  7  6  1  1
  7  8  1  0
  9  8  1  1
  9 10  1  0
 10 11  1  0
 11 12  1  0
 12 13  1  0
 12 14  1  0
 14 15  1  0
 14 16  1  0
 14 17  1  0
 17 18  1  0
 18 19  1  0
 19 20  1  0
 20 21  1  0
 21 22  1  6
 21 23  1  0
 23 24  1  0
 24 25  1  0
 26 25  1  1
 26 27  1  0
 27 28  1  0
 28 29  1  0
 29 30  1  1
 29 31  1  0
 31 32  1  0
 26 33  1  0
 33 34  1  0
 34 35  1  0
 34 36  1  0
 36 37  1  0
 37 38  1  1
 37  5  1  0
  9  7  1  0
 37 21  1  0
 20  7  1  0
 36 24  1  0
 17  9  1  0
 32 26  1  0
 32 29  1  0
  1 39  1  0
  1 40  1  0
  1 41  1  0
  5 42  1  6
  6 43  1  0
  6 44  1  0
  8 45  1  0
  8 46  1  0
 10 47  1  0
 10 48  1  0
 11 49  1  0
 11 50  1  0
 12 51  1  1
 13 52  1  0
 15 53  1  0
 15 54  1  0
 15 55  1  0
 16 56  1  0
 16 57  1  0
 16 58  1  0
 17 59  1  6
 18 60  1  0
 18 61  1  0
 19 62  1  0
 19 63  1  0
 20 64  1  6
 22 65  1  0
 22 66  1  0
 22 67  1  0
 23 68  1  0
 23 69  1  0
 24 70  1  6
 27 71  1  0
 27 72  1  0
 28 73  1  0
 28 74  1  0
 30 75  1  0
 30 76  1  0
 30 77  1  0
 32 78  1  1
 33 79  1  0
 33 80  1  0
 34 81  1  1
 35 82  1  0
 35 83  1  0
 35 84  1  0
 36 85  1  1
 38 86  1  0
 38 87  1  0
 38 88  1  0
M  END
>  <meeko>  (7) 
{"is_sidechain": [false], "free_energy": -8.212, "intermolecular_energy": -9.422, "internal_energy": -0.583}

$$$$
LIB_IJNPXERHOGNDDN__M_PUB_ALL__e8__s20260927
     RDKit          3D

 88 95  0  0  0  0  0  0  0  0999 V2000
    2.9360  -10.3350   -3.9010 C   0  0  0  0  0  0  0  0  0  0  0  0
    3.2160  -11.8060   -3.8610 C   0  0  0  0  0  0  0  0  0  0  0  0
    2.9720  -12.5820   -4.7750 O   0  0  0  0  0  0  0  0  0  0  0  0
    3.7760  -12.1380   -2.6660 O   0  0  0  0  0  0  0  0  0  0  0  0
    3.7960  -13.5460   -2.3330 C   0  0  2  0  0  0  0  0  0  0  0  0
    2.4760  -13.9100   -1.6010 C   0  0  0  0  0  0  0  0  0  0  0  0
    2.5590  -14.2850   -0.1140 C   0  0  1  0  0  0  0  0  0  0  0  0
    2.0290  -13.2700    0.8840 C   0  0  0  0  0  0  0  0  0  0  0  0
    1.2140  -14.5150    0.6330 C   0  0  1  0  0  0  0  0  0  0  0  0
   -0.1030  -14.3290   -0.1200 C   0  0  0  0  0  0  0  0  0  0  0  0
   -1.3250  -14.7270    0.7150 C   0  0  0  0  0  0  0  0  0  0  0  0
   -1.1280  -14.4160    2.1980 C   0  0  2  0  0  0  0  0  0  0  0  0
   -0.9410  -13.0030    2.3140 O   0  0  0  0  0  0  0  0  0  0  0  0
    0.0590  -15.2380    2.8120 C   0  0  0  0  0  0  0  0  0  0  0  0
    0.6730  -14.4920    4.0130 C   0  0  0  0  0  0  0  0  0  0  0  0
   -0.5250  -16.5660    3.3590 C   0  0  0  0  0  0  0  0  0  0  0  0
    1.1190  -15.6020    1.7040 C   0  0  2  0  0  0  0  0  0  0  0  0
    2.4840  -16.0650    2.2350 C   0  0  0  0  0  0  0  0  0  0  0  0
    3.4270  -16.3690    1.0740 C   0  0  0  0  0  0  0  0  0  0  0  0
    3.8080  -15.0700    0.3490 C   0  0  1  0  0  0  0  0  0  0  0  0
    4.8460  -15.2560   -0.7890 C   0  0  2  0  0  0  0  0  0  0  0  0
    4.4290  -16.4340   -1.7240 C   0  0  0  0  0  0  0  0  0  0  0  0
    6.2680  -15.5750   -0.2880 C   0  0  0  0  0  0  0  0  0  0  0  0
    7.2070  -15.0910   -1.4090 C   0  0  2  0  0  0  0  0  0  0  0  0
    8.2820  -14.3790   -0.8090 O   0  0  0  0  0  0  0  0  0  0  0  0
    9.2520  -13.8770   -1.7330 C   0  0  2  0  0  0  0  0  0  0  0  0
   10.4270  -14.8820   -1.8340 C   0  0  0  0  0  0  0  0  0  0  0  0
   11.3280  -14.5530   -0.6290 C   0  0  0  0  0  0  0  0  0  0  0  0
   11.1310  -13.0870   -0.3980 C   0  0  1  0  0  0  0  0  0  0  0  0
   11.6100  -12.4430    0.8490 C   0  0  0  0  0  0  0  0  0  0  0  0
   11.1660  -12.2570   -1.5690 O   0  0  0  0  0  0  0  0  0  0  0  0
    9.8770  -12.6630   -1.0810 C   0  0  1  0  0  0  0  0  0  0  0  0
    8.6560  -13.5350   -3.1050 C   0  0  0  0  0  0  0  0  0  0  0  0
    7.2040  -13.0470   -2.9670 C   0  0  1  0  0  0  0  0  0  0  0  0
    6.6890  -12.6150   -4.3390 C   0  0  0  0  0  0  0  0  0  0  0  0
    6.3610  -14.1920   -2.3580 C   0  0  2  0  0  0  0  0  0  0  0  0
    5.0720  -13.8750   -1.5180 C   0  0  1  0  0  0  0  0  0  0  0  0
    5.3770  -12.6980   -0.5360 C   0  0  0  0  0  0  0  0  0  0  0  0
    2.8623   -9.9477   -2.8741 H   0  0  0  0  0  0  0  0  0  0  0  0
    3.7524   -9.8206   -4.4292 H   0  0  0  0  0  0  0  0  0  0  0  0
    1.9877  -10.1565   -4.4292 H   0  0  0  0  0  0  0  0  0  0  0  0
    3.8438  -14.1676   -3.2393 H   0  0  0  0  0  0  0  0  0  0  0  0
    1.8057  -13.0417   -1.6830 H   0  0  0  0  0  0  0  0  0  0  0  0
    2.1289  -14.8278   -2.0981 H   0  0  0  0  0  0  0  0  0  0  0  0
    2.5388  -13.1380    1.8498 H   0  0  0  0  0  0  0  0  0  0  0  0
    1.8152  -12.1918    0.8411 H   0  0  0  0  0  0  0  0  0  0  0  0
   -0.1999  -13.2704   -0.4026 H   0  0  0  0  0  0  0  0  0  0  0  0
   -0.0761  -14.9856   -1.0021 H   0  0  0  0  0  0  0  0  0  0  0  0
   -2.2017  -14.1726    0.3488 H   0  0  0  0  0  0  0  0  0  0  0  0
   -1.4701  -15.8124    0.6108 H   0  0  0  0  0  0  0  0  0  0  0  0
   -2.0117  -14.7197    2.7784 H   0  0  0  0  0  0  0  0  0  0  0  0
   -1.5980  -12.5680    1.7460 H   0  0  0  0  0  0  0  0  0  0  0  0
    0.3055  -14.9385    4.9488 H   0  0  0  0  0  0  0  0  0  0  0  0
    1.7693  -14.5733    3.9737 H   0  0  0  0  0  0  0  0  0  0  0  0
    0.3823  -13.4318    3.9737 H   0  0  0  0  0  0  0  0  0  0  0  0
   -0.5158  -16.5451    4.4588 H   0  0  0  0  0  0  0  0  0  0  0  0
   -1.5589  -16.6860    3.0032 H   0  0  0  0  0  0  0  0  0  0  0  0
    0.0854  -17.4091    3.0032 H   0  0  0  0  0  0  0  0  0  0  0  0
    0.7269  -16.5049    1.2131 H   0  0  0  0  0  0  0  0  0  0  0  0
    2.9198  -15.2702    2.8582 H   0  0  0  0  0  0  0  0  0  0  0  0
    2.3452  -16.9781    2.8325 H   0  0  0  0  0  0  0  0  0  0  0  0
    4.3374  -16.8499    1.4612 H   0  0  0  0  0  0  0  0  0  0  0  0
    2.9206  -17.0412    0.3657 H   0  0  0  0  0  0  0  0  0  0  0  0
    4.3263  -14.4563    1.1004 H   0  0  0  0  0  0  0  0  0  0  0  0
    4.1237  -17.2964   -1.1133 H   0  0  0  0  0  0  0  0  0  0  0  0
    3.5880  -16.1182   -2.3589 H   0  0  0  0  0  0  0  0  0  0  0  0
    5.2814  -16.7176   -2.3589 H   0  0  0  0  0  0  0  0  0  0  0  0
    6.4767  -15.0381    0.6491 H   0  0  0  0  0  0  0  0  0  0  0  0
    6.3990  -16.6462   -0.0747 H   0  0  0  0  0  0  0  0  0  0  0  0
    7.6368  -15.9177   -1.9937 H   0  0  0  0  0  0  0  0  0  0  0  0
   10.0588  -15.9167   -1.7719 H   0  0  0  0  0  0  0  0  0  0  0  0
   10.9644  -14.7991   -2.7902 H   0  0  0  0  0  0  0  0  0  0  0  0
   11.0197  -15.1301    0.2552 H   0  0  0  0  0  0  0  0  0  0  0  0
   12.3819  -14.8077   -0.8148 H   0  0  0  0  0  0  0  0  0  0  0  0
   11.2080  -12.9835    1.7186 H   0  0  0  0  0  0  0  0  0  0  0  0
   12.7093  -12.4699    0.8767 H   0  0  0  0  0  0  0  0  0  0  0  0
   11.2680  -11.3979    0.8767 H   0  0  0  0  0  0  0  0  0  0  0  0
    8.9550  -12.1037   -0.8640 H   0  0  0  0  0  0  0  0  0  0  0  0
    9.2593  -12.7427   -3.5722 H   0  0  0  0  0  0  0  0  0  0  0  0
    8.6641  -14.4419   -3.7274 H   0  0  0  0  0  0  0  0  0  0  0  0
    7.1343  -12.1758   -2.2991 H   0  0  0  0  0  0  0  0  0  0  0  0
    5.8519  -11.9128   -4.2120 H   0  0  0  0  0  0  0  0  0  0  0  0
    7.4994  -12.1225   -4.8964 H   0  0  0  0  0  0  0  0  0  0  0  0
    6.3450  -13.4987   -4.8964 H   0  0  0  0  0  0  0  0  0  0  0  0
    6.0249  -14.6498   -3.3001 H   0  0  0  0  0  0  0  0  0  0  0  0
    5.2851  -13.0527    0.5012 H   0  0  0  0  0  0  0  0  0  0  0  0
    6.3997  -12.3318   -0.7090 H   0  0  0  0  0  0  0  0  0  0  0  0
    4.6609  -11.8812   -0.7090 H   0  0  0  0  0  0  0  0  0  0  0  0
  1  2  1  0
  2  3  2  0
  2  4  1  0
  4  5  1  0
  5  6  1  0
  7  6  1  6
  7  8  1  0
  9  8  1  1
  9 10  1  0
 10 11  1  0
 11 12  1  0
 12 13  1  0
 12 14  1  0
 14 15  1  0
 14 16  1  0
 14 17  1  0
 17 18  1  0
 18 19  1  0
 19 20  1  0
 20 21  1  0
 21 22  1  6
 21 23  1  0
 23 24  1  0
 24 25  1  0
 26 25  1  1
 26 27  1  0
 27 28  1  0
 28 29  1  0
 29 30  1  1
 29 31  1  0
 31 32  1  0
 26 33  1  0
 33 34  1  0
 34 35  1  0
 34 36  1  0
 36 37  1  0
 37 38  1  1
 37  5  1  0
  9  7  1  0
 37 21  1  0
 20  7  1  0
 36 24  1  0
 17  9  1  0
 32 26  1  0
 32 29  1  0
  1 39  1  0
  1 40  1  0
  1 41  1  0
  5 42  1  6
  6 43  1  0
  6 44  1  0
  8 45  1  0
  8 46  1  0
 10 47  1  0
 10 48  1  0
 11 49  1  0
 11 50  1  0
 12 51  1  1
 13 52  1  0
 15 53  1  0
 15 54  1  0
 15 55  1  0
 16 56  1  0
 16 57  1  0
 16 58  1  0
 17 59  1  6
 18 60  1  0
 18 61  1  0
 19 62  1  0
 19 63  1  0
 20 64  1  1
 22 65  1  0
 22 66  1  0
 22 67  1  0
 23 68  1  0
 23 69  1  0
 24 70  1  6
 27 71  1  0
 27 72  1  0
 28 73  1  0
 28 74  1  0
 30 75  1  0
 30 76  1  0
 30 77  1  0
 32 78  1  1
 33 79  1  0
 33 80  1  0
 34 81  1  1
 35 82  1  0
 35 83  1  0
 35 84  1  0
 36 85  1  6
 38 86  1  0
 38 87  1  0
 38 88  1  0
M  END
>  <meeko>  (8) 
{"is_sidechain": [false], "free_energy": -8.187, "intermolecular_energy": -9.471, "internal_energy": -0.506}

$$$$
LIB_IJNPXERHOGNDDN__M_PUB_ALL__e8__s20260927
     RDKit          3D

 88 95  0  0  0  0  0  0  0  0999 V2000
   12.7630  -11.7030   -0.2880 C   0  0  0  0  0  0  0  0  0  0  0  0
   11.8780  -12.7980    0.2250 C   0  0  0  0  0  0  0  0  0  0  0  0
   11.6440  -13.0020    1.4080 O   0  0  0  0  0  0  0  0  0  0  0  0
   11.3840  -13.5200   -0.8180 O   0  0  0  0  0  0  0  0  0  0  0  0
   10.4200  -12.8510   -1.6650 C   0  0  2  0  0  0  0  0  0  0  0  0
    9.2000  -12.4270   -0.8030 C   0  0  0  0  0  0  0  0  0  0  0  0
    7.8620  -13.1390   -1.0520 C   0  0  1  0  0  0  0  0  0  0  0  0
    7.3980  -14.1250    0.0070 C   0  0  0  0  0  0  0  0  0  0  0  0
    6.6890  -12.7960   -0.0900 C   0  0  1  0  0  0  0  0  0  0  0  0
    6.9230  -11.8130    1.0570 C   0  0  0  0  0  0  0  0  0  0  0  0
    5.6390  -11.4780    1.8220 C   0  0  0  0  0  0  0  0  0  0  0  0
    4.6880  -12.6720    1.8920 C   0  0  2  0  0  0  0  0  0  0  0  0
    5.3700  -13.7180    2.5870 O   0  0  0  0  0  0  0  0  0  0  0  0
    4.1990  -13.1090    0.4660 C   0  0  0  0  0  0  0  0  0  0  0  0
    3.8350  -14.6070    0.4520 C   0  0  0  0  0  0  0  0  0  0  0  0
    2.8960  -12.3270    0.1580 C   0  0  0  0  0  0  0  0  0  0  0  0
    5.2610  -12.7210   -0.6320 C   0  0  2  0  0  0  0  0  0  0  0  0
    5.0810  -13.4200   -1.9880 C   0  0  0  0  0  0  0  0  0  0  0  0
    6.1740  -12.9800   -2.9590 C   0  0  0  0  0  0  0  0  0  0  0  0
    7.5330  -13.5380   -2.5090 C   0  0  1  0  0  0  0  0  0  0  0  0
    8.7000  -13.2330   -3.4840 C   0  0  2  0  0  0  0  0  0  0  0  0
    8.7050  -11.7230   -3.8790 C   0  0  0  0  0  0  0  0  0  0  0  0
    8.6360  -14.0300   -4.8010 C   0  0  0  0  0  0  0  0  0  0  0  0
   10.0920  -14.1070   -5.2960 C   0  0  2  0  0  0  0  0  0  0  0  0
   10.3470  -15.4410   -5.7170 O   0  0  0  0  0  0  0  0  0  0  0  0
   11.6660  -15.6650   -6.2220 C   0  0  2  0  0  0  0  0  0  0  0  0
   11.6480  -15.5460   -7.7670 C   0  0  0  0  0  0  0  0  0  0  0  0
   11.1710  -16.9240   -8.2600 C   0  0  0  0  0  0  0  0  0  0  0  0
   11.6560  -17.8870   -7.2210 C   0  0  1  0  0  0  0  0  0  0  0  0
   11.1570  -19.2840   -7.1860 C   0  0  0  0  0  0  0  0  0  0  0  0
   13.0130  -17.7100   -6.7860 O   0  0  0  0  0  0  0  0  0  0  0  0
   11.9760  -17.1260   -5.9810 C   0  0  1  0  0  0  0  0  0  0  0  0
   12.7190  -14.7530   -5.5780 C   0  0  0  0  0  0  0  0  0  0  0  0
   12.3520  -14.4350   -4.1180 C   0  0  1  0  0  0  0  0  0  0  0  0
   13.4790  -13.6190   -3.4860 C   0  0  0  0  0  0  0  0  0  0  0  0
   11.0020  -13.6800   -4.1080 C   0  0  2  0  0  0  0  0  0  0  0  0
   10.0500  -13.7630   -2.8620 C   0  0  1  0  0  0  0  0  0  0  0  0
    9.9690  -15.2460   -2.3770 C   0  0  0  0  0  0  0  0  0  0  0  0
   13.2027  -11.1589    0.5609 H   0  0  0  0  0  0  0  0  0  0  0  0
   13.5665  -12.1377   -0.9007 H   0  0  0  0  0  0  0  0  0  0  0  0
   12.1694  -11.0086   -0.9007 H   0  0  0  0  0  0  0  0  0  0  0  0
   10.8429  -11.9331   -2.0993 H   0  0  0  0  0  0  0  0  0  0  0  0
    9.4691  -12.5944    0.2504 H   0  0  0  0  0  0  0  0  0  0  0  0
    9.0126  -11.3807   -1.0860 H   0  0  0  0  0  0  0  0  0  0  0  0
    6.8759  -15.0446   -0.2960 H   0  0  0  0  0  0  0  0  0  0  0  0
    7.8996  -14.6693    0.8207 H   0  0  0  0  0  0  0  0  0  0  0  0
    7.6447  -12.2568    1.7586 H   0  0  0  0  0  0  0  0  0  0  0  0
    7.3020  -10.8775    0.6197 H   0  0  0  0  0  0  0  0  0  0  0  0
    5.9041  -11.1743    2.8455 H   0  0  0  0  0  0  0  0  0  0  0  0
    5.1261  -10.6653    1.2868 H   0  0  0  0  0  0  0  0  0  0  0  0
    3.7704  -12.4054    2.4369 H   0  0  0  0  0  0  0  0  0  0  0  0
    5.5620  -14.4250    1.9480 H   0  0  0  0  0  0  0  0  0  0  0  0
    3.7462  -14.9724    1.4857 H   0  0  0  0  0  0  0  0  0  0  0  0
    2.8768  -14.7466   -0.0699 H   0  0  0  0  0  0  0  0  0  0  0  0
    4.6223  -15.1708   -0.0699 H   0  0  0  0  0  0  0  0  0  0  0  0
    2.4112  -12.0361    1.1016 H   0  0  0  0  0  0  0  0  0  0  0  0
    3.1384  -11.4250   -0.4230 H   0  0  0  0  0  0  0  0  0  0  0  0
    2.2140  -12.9652   -0.4230 H   0  0  0  0  0  0  0  0  0  0  0  0
    5.0602  -11.6657   -0.8688 H   0  0  0  0  0  0  0  0  0  0  0  0
    5.1389  -14.5092   -1.8455 H   0  0  0  0  0  0  0  0  0  0  0  0
    4.1004  -13.1466   -2.4046 H   0  0  0  0  0  0  0  0  0  0  0  0
    5.9405  -13.3574   -3.9655 H   0  0  0  0  0  0  0  0  0  0  0  0
    6.2222  -11.8812   -2.9743 H   0  0  0  0  0  0  0  0  0  0  0  0
    7.4250  -14.6323   -2.5369 H   0  0  0  0  0  0  0  0  0  0  0  0
    8.7070  -11.1058   -2.9685 H   0  0  0  0  0  0  0  0  0  0  0  0
    9.6039  -11.5025   -4.4735 H   0  0  0  0  0  0  0  0  0  0  0  0
    7.8076  -11.4965   -4.4735 H   0  0  0  0  0  0  0  0  0  0  0  0
    8.2352  -15.0387   -4.6226 H   0  0  0  0  0  0  0  0  0  0  0  0
    7.9749  -13.5526   -5.5393 H   0  0  0  0  0  0  0  0  0  0  0  0
   10.2885  -13.4423   -6.1502 H   0  0  0  0  0  0  0  0  0  0  0  0
   10.9514  -14.7571   -8.0871 H   0  0  0  0  0  0  0  0  0  0  0  0
   12.6333  -15.2764   -8.1750 H   0  0  0  0  0  0  0  0  0  0  0  0
   10.0738  -16.9517   -8.3328 H   0  0  0  0  0  0  0  0  0  0  0  0
   11.5555  -17.1639   -9.2623 H   0  0  0  0  0  0  0  0  0  0  0  0
   11.0419  -19.6062   -6.1405 H   0  0  0  0  0  0  0  0  0  0  0  0
   10.1838  -19.3386   -7.6958 H   0  0  0  0  0  0  0  0  0  0  0  0
   11.8754  -19.9428   -7.6958 H   0  0  0  0  0  0  0  0  0  0  0  0
   11.7660  -17.1597   -4.9018 H   0  0  0  0  0  0  0  0  0  0  0  0
   13.6958  -15.2582   -5.6018 H   0  0  0  0  0  0  0  0  0  0  0  0
   12.7598  -13.8102   -6.1431 H   0  0  0  0  0  0  0  0  0  0  0  0
   12.2358  -15.3527   -3.5228 H   0  0  0  0  0  0  0  0  0  0  0  0
   13.4020  -13.6747   -2.3901 H   0  0  0  0  0  0  0  0  0  0  0  0
   14.4498  -14.0249   -3.8065 H   0  0  0  0  0  0  0  0  0  0  0  0
   13.3964  -12.5700   -3.8065 H   0  0  0  0  0  0  0  0  0  0  0  0
   11.4018  -12.6557   -4.1377 H   0  0  0  0  0  0  0  0  0  0  0  0
    9.9675  -15.2726   -1.2773 H   0  0  0  0  0  0  0  0  0  0  0  0
    9.0444  -15.7058   -2.7561 H   0  0  0  0  0  0  0  0  0  0  0  0
   10.8380  -15.8037   -2.7561 H   0  0  0  0  0  0  0  0  0  0  0  0
  1  2  1  0
  2  3  2  0
  2  4  1  0
  4  5  1  0
  5  6  1  0
  7  6  1  6
  7  8  1  0
  9  8  1  1
  9 10  1  0
 10 11  1  0
 11 12  1  0
 12 13  1  0
 12 14  1  0
 14 15  1  0
 14 16  1  0
 14 17  1  0
 17 18  1  0
 18 19  1  0
 19 20  1  0
 20 21  1  0
 21 22  1  6
 21 23  1  0
 23 24  1  0
 24 25  1  0
 26 25  1  1
 26 27  1  0
 27 28  1  0
 28 29  1  0
 29 30  1  1
 29 31  1  0
 31 32  1  0
 26 33  1  0
 33 34  1  0
 34 35  1  0
 34 36  1  0
 36 37  1  0
 37 38  1  1
 37  5  1  0
  9  7  1  0
 37 21  1  0
 20  7  1  0
 36 24  1  0
 17  9  1  0
 32 26  1  0
 32 29  1  0
  1 39  1  0
  1 40  1  0
  1 41  1  0
  5 42  1  6
  6 43  1  0
  6 44  1  0
  8 45  1  0
  8 46  1  0
 10 47  1  0
 10 48  1  0
 11 49  1  0
 11 50  1  0
 12 51  1  1
 13 52  1  0
 15 53  1  0
 15 54  1  0
 15 55  1  0
 16 56  1  0
 16 57  1  0
 16 58  1  0
 17 59  1  6
 18 60  1  0
 18 61  1  0
 19 62  1  0
 19 63  1  0
 20 64  1  1
 22 65  1  0
 22 66  1  0
 22 67  1  0
 23 68  1  0
 23 69  1  0
 24 70  1  6
 27 71  1  0
 27 72  1  0
 28 73  1  0
 28 74  1  0
 30 75  1  0
 30 76  1  0
 30 77  1  0
 32 78  1  1
 33 79  1  0
 33 80  1  0
 34 81  1  1
 35 82  1  0
 35 83  1  0
 35 84  1  0
 36 85  1  6
 38 86  1  0
 38 87  1  0
 38 88  1  0
M  END
>  <meeko>  (9) 
{"is_sidechain": [false], "free_energy": -8.013, "intermolecular_energy": -9.236, "internal_energy": -0.54}

$$$$
