LIB_NHELMIDNJBAZJD__M_PUB_ALL__e8__s20260927
     RDKit          3D

 50 52  0  0  0  0  0  0  0  0999 V2000
    7.4740   -6.9770    4.0890 C   0  0  0  0  0  0  0  0  0  0  0  0
    7.2090   -6.9420    2.5920 C   0  0  0  0  0  0  0  0  0  0  0  0
    6.9130   -8.3110    2.0500 C   0  0  0  0  0  0  0  0  0  0  0  0
    7.6280   -8.8380    0.9850 C   0  0  0  0  0  0  0  0  0  0  0  0
    7.2960  -10.1030    0.5170 C   0  0  0  0  0  0  0  0  0  0  0  0
    6.2650  -10.7990    1.1360 C   0  0  0  0  0  0  0  0  0  0  0  0
    5.8220  -12.1640    0.6700 C   0  0  0  0  0  0  0  0  0  0  0  0
    4.5320  -12.1780   -0.1220 C   0  0  0  0  0  0  0  0  0  0  0  0
    3.3090  -12.2330    0.5750 C   0  0  0  0  0  0  0  0  0  0  0  0
    2.0730  -12.2030   -0.0950 C   0  0  0  0  0  0  0  0  0  0  0  0
    0.7820  -12.2170    0.7120 C   0  0  2  0  0  0  0  0  0  0  0  0
   -0.0990  -13.1990    0.1410 O   0  0  0  0  0  0  0  0  0  0  0  0
   -1.3360  -13.3340    0.8460 C   0  0  2  0  0  0  0  0  0  0  0  0
   -2.1400  -14.4550    0.1730 C   0  0  0  0  0  0  0  0  0  0  0  0
   -3.1450  -13.9200   -0.6850 O   0  0  0  0  0  0  0  0  0  0  0  0
   -2.1130  -12.0060    0.8450 C   0  0  1  0  0  0  0  0  0  0  0  0
   -3.3130  -12.0640    1.6270 O   0  0  0  0  0  0  0  0  0  0  0  0
   -1.2360  -10.9050    1.4360 C   0  0  2  0  0  0  0  0  0  0  0  0
   -1.8980   -9.6330    1.3300 O   0  0  0  0  0  0  0  0  0  0  0  0
    0.1210  -10.8220    0.7330 C   0  0  1  0  0  0  0  0  0  0  0  0
    0.9210   -9.8570    1.4370 O   0  0  0  0  0  0  0  0  0  0  0  0
    2.0740  -12.1160   -1.4940 C   0  0  0  0  0  0  0  0  0  0  0  0
    3.2780  -12.0710   -2.2000 C   0  0  0  0  0  0  0  0  0  0  0  0
    4.4990  -12.1000   -1.5210 C   0  0  0  0  0  0  0  0  0  0  0  0
    5.9390  -12.0350   -2.4690 Cl  0  0  0  0  0  0  0  0  0  0  0  0
    5.5750  -10.2470    2.1580 N   0  0  0  0  0  0  0  0  0  0  0  0
    5.9000   -8.9980    2.6180 N   0  0  0  0  0  0  0  0  0  0  0  0
    6.5257   -6.8518    4.6323 H   0  0  0  0  0  0  0  0  0  0  0  0
    7.9264   -7.9427    4.3588 H   0  0  0  0  0  0  0  0  0  0  0  0
    8.1616   -6.1619    4.3588 H   0  0  0  0  0  0  0  0  0  0  0  0
    6.3469   -6.2871    2.3975 H   0  0  0  0  0  0  0  0  0  0  0  0
    8.1121   -6.5622    2.0919 H   0  0  0  0  0  0  0  0  0  0  0  0
    8.4432   -8.2647    0.5193 H   0  0  0  0  0  0  0  0  0  0  0  0
    7.8404  -10.5465   -0.3298 H   0  0  0  0  0  0  0  0  0  0  0  0
    6.6170  -12.5836    0.0361 H   0  0  0  0  0  0  0  0  0  0  0  0
    5.6333  -12.7546    1.5786 H   0  0  0  0  0  0  0  0  0  0  0  0
    3.3212  -12.3012    1.6728 H   0  0  0  0  0  0  0  0  0  0  0  0
    1.0029  -12.4797    1.7571 H   0  0  0  0  0  0  0  0  0  0  0  0
   -1.1508  -13.5908    1.8995 H   0  0  0  0  0  0  0  0  0  0  0  0
   -1.4571  -15.0811   -0.4200 H   0  0  0  0  0  0  0  0  0  0  0  0
   -2.6300  -15.0527    0.9557 H   0  0  0  0  0  0  0  0  0  0  0  0
   -3.9930  -14.0260   -0.2140 H   0  0  0  0  0  0  0  0  0  0  0  0
   -2.3847  -11.8016   -0.2011 H   0  0  0  0  0  0  0  0  0  0  0  0
   -3.6380  -11.1400    1.7070 H   0  0  0  0  0  0  0  0  0  0  0  0
   -1.0656  -11.1552    2.4935 H   0  0  0  0  0  0  0  0  0  0  0  0
   -2.8440   -9.8560    1.2030 H   0  0  0  0  0  0  0  0  0  0  0  0
    0.0114  -10.5014   -0.3135 H   0  0  0  0  0  0  0  0  0  0  0  0
    0.4900   -9.7700    2.3120 H   0  0  0  0  0  0  0  0  0  0  0  0
    1.1195  -12.0829   -2.0397 H   0  0  0  0  0  0  0  0  0  0  0  0
    3.2652  -12.0123   -3.2984 H   0  0  0  0  0  0  0  0  0  0  0  0
  1  2  1  0
  2  3  1  0
  3  4  2  0
  4  5  1  0
  5  6  2  0
  6  7  1  0
  7  8  1  0
  8  9  2  0
  9 10  1  0
 10 11  1  0
 11 12  1  0
 12 13  1  0
 13 14  1  0
 14 15  1  0
 13 16  1  0
 16 17  1  0
 16 18  1  0
 18 19  1  0
 18 20  1  0
 20 21  1  0
 10 22  2  0
 22 23  1  0
 23 24  2  0
 24 25  1  0
  6 26  1  0
 26 27  2  0
 27  3  1  0
 24  8  1  0
 20 11  1  0
  1 28  1  0
  1 29  1  0
  1 30  1  0
  2 31  1  0
  2 32  1  0
  4 33  1  0
  5 34  1  0
  7 35  1  0
  7 36  1  0
  9 37  1  0
 11 38  1  1
 13 39  1  1
 14 40  1  0
 14 41  1  0
 15 42  1  0
 16 43  1  6
 17 44  1  0
 18 45  1  1
 19 46  1  0
 20 47  1  6
 21 48  1  0
 22 49  1  0
 23 50  1  0
M  END
>  <meeko>  (1) 
{"is_sidechain": [false], "free_energy": -7.319, "intermolecular_energy": -10.315, "internal_energy": -1.011}

$$$$
LIB_NHELMIDNJBAZJD__M_PUB_ALL__e8__s20260927
     RDKit          3D

 50 52  0  0  0  0  0  0  0  0999 V2000
    7.5220   -6.9190    3.9870 C   0  0  0  0  0  0  0  0  0  0  0  0
    7.2100   -6.9400    2.4990 C   0  0  0  0  0  0  0  0  0  0  0  0
    6.8900   -8.3270    2.0200 C   0  0  0  0  0  0  0  0  0  0  0  0
    7.6220   -8.9310    1.0100 C   0  0  0  0  0  0  0  0  0  0  0  0
    7.2670  -10.2090    0.5980 C   0  0  0  0  0  0  0  0  0  0  0  0
    6.1960  -10.8410    1.2180 C   0  0  0  0  0  0  0  0  0  0  0  0
    5.7260  -12.2150    0.8100 C   0  0  0  0  0  0  0  0  0  0  0  0
    4.5460  -12.2290   -0.1390 C   0  0  0  0  0  0  0  0  0  0  0  0
    3.2440  -12.2810    0.3980 C   0  0  0  0  0  0  0  0  0  0  0  0
    2.1030  -12.2500   -0.4220 C   0  0  0  0  0  0  0  0  0  0  0  0
    0.7210  -12.2590    0.2150 C   0  0  2  0  0  0  0  0  0  0  0  0
    0.3840  -10.9110    0.5880 O   0  0  0  0  0  0  0  0  0  0  0  0
   -0.9200  -10.7880    1.1620 C   0  0  2  0  0  0  0  0  0  0  0  0
   -1.1680   -9.2990    1.4440 C   0  0  0  0  0  0  0  0  0  0  0  0
   -0.8540   -8.9750    2.7960 O   0  0  0  0  0  0  0  0  0  0  0  0
   -1.0350  -11.6290    2.4440 C   0  0  1  0  0  0  0  0  0  0  0  0
   -2.3560  -11.6180    3.0000 O   0  0  0  0  0  0  0  0  0  0  0  0
   -0.6850  -13.0820    2.1290 C   0  0  2  0  0  0  0  0  0  0  0  0
   -0.6660  -13.8610    3.3380 O   0  0  0  0  0  0  0  0  0  0  0  0
    0.6740  -13.2020    1.4360 C   0  0  1  0  0  0  0  0  0  0  0  0
    0.8570  -14.5780    1.0630 O   0  0  0  0  0  0  0  0  0  0  0  0
    2.2810  -12.1670   -1.8100 C   0  0  0  0  0  0  0  0  0  0  0  0
    3.5640  -12.1260   -2.3580 C   0  0  0  0  0  0  0  0  0  0  0  0
    4.6900  -12.1550   -1.5310 C   0  0  0  0  0  0  0  0  0  0  0  0
    6.2390  -12.0950   -2.2900 Cl  0  0  0  0  0  0  0  0  0  0  0  0
    5.4900  -10.2150    2.1850 N   0  0  0  0  0  0  0  0  0  0  0  0
    5.8380   -8.9530    2.5890 N   0  0  0  0  0  0  0  0  0  0  0  0
    6.5846   -6.9821    4.5591 H   0  0  0  0  0  0  0  0  0  0  0  0
    8.1639   -7.7760    4.2392 H   0  0  0  0  0  0  0  0  0  0  0  0
    8.0432   -5.9837    4.2392 H   0  0  0  0  0  0  0  0  0  0  0  0
    6.3455   -6.2877    2.3064 H   0  0  0  0  0  0  0  0  0  0  0  0
    8.0988   -6.5855    1.9564 H   0  0  0  0  0  0  0  0  0  0  0  0
    8.4692   -8.4075    0.5429 H   0  0  0  0  0  0  0  0  0  0  0  0
    7.8244  -10.7124   -0.2057 H   0  0  0  0  0  0  0  0  0  0  0  0
    6.5646  -12.7317    0.3203 H   0  0  0  0  0  0  0  0  0  0  0  0
    5.3872  -12.7116    1.7312 H   0  0  0  0  0  0  0  0  0  0  0  0
    3.1174  -12.3477    1.4887 H   0  0  0  0  0  0  0  0  0  0  0  0
   -0.0156  -12.6390   -0.5082 H   0  0  0  0  0  0  0  0  0  0  0  0
   -1.6827  -11.1681    0.4665 H   0  0  0  0  0  0  0  0  0  0  0  0
   -0.5372   -8.6963    0.7740 H   0  0  0  0  0  0  0  0  0  0  0  0
   -2.2324   -9.0824    1.2703 H   0  0  0  0  0  0  0  0  0  0  0  0
   -1.4050   -9.5560    3.3540 H   0  0  0  0  0  0  0  0  0  0  0  0
   -0.3430  -11.1847    3.1745 H   0  0  0  0  0  0  0  0  0  0  0  0
   -2.9570  -11.9450    2.2950 H   0  0  0  0  0  0  0  0  0  0  0  0
   -1.4583  -13.4631    1.4458 H   0  0  0  0  0  0  0  0  0  0  0  0
   -1.5170  -13.6540    3.7780 H   0  0  0  0  0  0  0  0  0  0  0  0
    1.4929  -12.9016    2.1062 H   0  0  0  0  0  0  0  0  0  0  0  0
    1.2780  -14.9920    1.8440 H   0  0  0  0  0  0  0  0  0  0  0  0
    1.4032  -12.1339   -2.4721 H   0  0  0  0  0  0  0  0  0  0  0  0
    3.6898  -12.0704   -3.4494 H   0  0  0  0  0  0  0  0  0  0  0  0
  1  2  1  0
  2  3  1  0
  3  4  2  0
  4  5  1  0
  5  6  2  0
  6  7  1  0
  7  8  1  0
  8  9  2  0
  9 10  1  0
 10 11  1  0
 11 12  1  0
 12 13  1  0
 13 14  1  0
 14 15  1  0
 13 16  1  0
 16 17  1  0
 16 18  1  0
 18 19  1  0
 18 20  1  0
 20 21  1  0
 10 22  2  0
 22 23  1  0
 23 24  2  0
 24 25  1  0
  6 26  1  0
 26 27  2  0
 27  3  1  0
 24  8  1  0
 20 11  1  0
  1 28  1  0
  1 29  1  0
  1 30  1  0
  2 31  1  0
  2 32  1  0
  4 33  1  0
  5 34  1  0
  7 35  1  0
  7 36  1  0
  9 37  1  0
 11 38  1  6
 13 39  1  6
 14 40  1  0
 14 41  1  0
 15 42  1  0
 16 43  1  1
 17 44  1  0
 18 45  1  6
 19 46  1  0
 20 47  1  1
 21 48  1  0
 22 49  1  0
 23 50  1  0
M  END
>  <meeko>  (2) 
{"is_sidechain": [false], "free_energy": -7.138, "intermolecular_energy": -9.97, "internal_energy": -1.1}

$$$$
LIB_NHELMIDNJBAZJD__M_PUB_ALL__e8__s20260927
     RDKit          3D

 50 52  0  0  0  0  0  0  0  0999 V2000
    2.4900  -10.7720   -3.0450 C   0  0  0  0  0  0  0  0  0  0  0  0
    3.1790  -10.5060   -4.3740 C   0  0  0  0  0  0  0  0  0  0  0  0
    4.0270  -11.6700   -4.8020 C   0  0  0  0  0  0  0  0  0  0  0  0
    4.3560  -11.8750   -6.1330 C   0  0  0  0  0  0  0  0  0  0  0  0
    5.1290  -12.9800   -6.4680 C   0  0  0  0  0  0  0  0  0  0  0  0
    5.5520  -13.8350   -5.4590 C   0  0  0  0  0  0  0  0  0  0  0  0
    6.3670  -15.0720   -5.7420 C   0  0  0  0  0  0  0  0  0  0  0  0
    7.8190  -14.8120   -6.0870 C   0  0  0  0  0  0  0  0  0  0  0  0
    8.6950  -14.3930   -5.0670 C   0  0  0  0  0  0  0  0  0  0  0  0
   10.0630  -14.1780   -5.3070 C   0  0  0  0  0  0  0  0  0  0  0  0
   10.9720  -13.7730   -4.1550 C   0  0  2  0  0  0  0  0  0  0  0  0
   11.4470  -14.9670   -3.5100 O   0  0  0  0  0  0  0  0  0  0  0  0
   12.3510  -14.7110   -2.4320 C   0  0  2  0  0  0  0  0  0  0  0  0
   12.8260  -16.0650   -1.8870 C   0  0  0  0  0  0  0  0  0  0  0  0
   12.3060  -16.3020   -0.5810 O   0  0  0  0  0  0  0  0  0  0  0  0
   11.6710  -13.8710   -1.3360 C   0  0  1  0  0  0  0  0  0  0  0  0
   12.5680  -13.5030   -0.2810 O   0  0  0  0  0  0  0  0  0  0  0  0
   11.1330  -12.5810   -1.9490 C   0  0  2  0  0  0  0  0  0  0  0  0
   10.3860  -11.8400   -0.9680 O   0  0  0  0  0  0  0  0  0  0  0  0
   10.2340  -12.8560   -3.1560 C   0  0  1  0  0  0  0  0  0  0  0  0
    9.8850  -11.5910   -3.7420 O   0  0  0  0  0  0  0  0  0  0  0  0
   10.5540  -14.3910   -6.6020 C   0  0  0  0  0  0  0  0  0  0  0  0
    9.6970  -14.7950   -7.6270 C   0  0  0  0  0  0  0  0  0  0  0  0
    8.3390  -15.0070   -7.3740 C   0  0  0  0  0  0  0  0  0  0  0  0
    7.3510  -15.5130   -8.6950 Cl  0  0  0  0  0  0  0  0  0  0  0  0
    5.1940  -13.6170   -4.1740 N   0  0  0  0  0  0  0  0  0  0  0  0
    4.4300  -12.5300   -3.8430 N   0  0  0  0  0  0  0  0  0  0  0  0
    3.1695  -10.5097   -2.2207 H   0  0  0  0  0  0  0  0  0  0  0  0
    1.5775  -10.1615   -2.9764 H   0  0  0  0  0  0  0  0  0  0  0  0
    2.2245  -11.8373   -2.9764 H   0  0  0  0  0  0  0  0  0  0  0  0
    2.4134  -10.3210   -5.1419 H   0  0  0  0  0  0  0  0  0  0  0  0
    3.8339   -9.6306   -4.2520 H   0  0  0  0  0  0  0  0  0  0  0  0
    4.0116  -11.1760   -6.9094 H   0  0  0  0  0  0  0  0  0  0  0  0
    5.4015  -13.1743   -7.5158 H   0  0  0  0  0  0  0  0  0  0  0  0
    6.3372  -15.7130   -4.8486 H   0  0  0  0  0  0  0  0  0  0  0  0
    5.9177  -15.5421   -6.6292 H   0  0  0  0  0  0  0  0  0  0  0  0
    8.2975  -14.2295   -4.0544 H   0  0  0  0  0  0  0  0  0  0  0  0
   11.8252  -13.1974   -4.5433 H   0  0  0  0  0  0  0  0  0  0  0  0
   13.2146  -14.1288   -2.7859 H   0  0  0  0  0  0  0  0  0  0  0  0
   12.4833  -16.8640   -2.5609 H   0  0  0  0  0  0  0  0  0  0  0  0
   13.9244  -16.0533   -1.8296 H   0  0  0  0  0  0  0  0  0  0  0  0
   13.0350  -16.1240    0.0430 H   0  0  0  0  0  0  0  0  0  0  0  0
   10.8694  -14.4944   -0.9131 H   0  0  0  0  0  0  0  0  0  0  0  0
   13.4550  -13.4000   -0.6930 H   0  0  0  0  0  0  0  0  0  0  0  0
   12.0001  -11.9949   -2.2877 H   0  0  0  0  0  0  0  0  0  0  0  0
    9.5850  -12.3800   -0.8070 H   0  0  0  0  0  0  0  0  0  0  0  0
    9.3126  -13.3779   -2.8582 H   0  0  0  0  0  0  0  0  0  0  0  0
    9.6500  -11.0220   -2.9800 H   0  0  0  0  0  0  0  0  0  0  0  0
   11.6229  -14.2387   -6.8124 H   0  0  0  0  0  0  0  0  0  0  0  0
   10.0935  -14.9477   -8.6416 H   0  0  0  0  0  0  0  0  0  0  0  0
  1  2  1  0
  2  3  1  0
  3  4  2  0
  4  5  1  0
  5  6  2  0
  6  7  1  0
  7  8  1  0
  8  9  2  0
  9 10  1  0
 10 11  1  0
 11 12  1  0
 12 13  1  0
 13 14  1  0
 14 15  1  0
 13 16  1  0
 16 17  1  0
 16 18  1  0
 18 19  1  0
 18 20  1  0
 20 21  1  0
 10 22  2  0
 22 23  1  0
 23 24  2  0
 24 25  1  0
  6 26  1  0
 26 27  2  0
 27  3  1  0
 24  8  1  0
 20 11  1  0
  1 28  1  0
  1 29  1  0
  1 30  1  0
  2 31  1  0
  2 32  1  0
  4 33  1  0
  5 34  1  0
  7 35  1  0
  7 36  1  0
  9 37  1  0
 11 38  1  6
 13 39  1  6
 14 40  1  0
 14 41  1  0
 15 42  1  0
 16 43  1  1
 17 44  1  0
 18 45  1  6
 19 46  1  0
 20 47  1  1
 21 48  1  0
 22 49  1  0
 23 50  1  0
M  END
>  <meeko>  (3) 
{"is_sidechain": [false], "free_energy": -6.877, "intermolecular_energy": -9.587, "internal_energy": -1.115}

$$$$
LIB_NHELMIDNJBAZJD__M_PUB_ALL__e8__s20260927
     RDKit          3D

 50 52  0  0  0  0  0  0  0  0999 V2000
    7.1640  -11.4590  -10.6690 C   0  0  0  0  0  0  0  0  0  0  0  0
    7.2300  -12.9440  -10.3510 C   0  0  0  0  0  0  0  0  0  0  0  0
    6.7620  -13.2320   -8.9530 C   0  0  0  0  0  0  0  0  0  0  0  0
    5.9940  -12.3200   -8.2440 C   0  0  0  0  0  0  0  0  0  0  0  0
    5.6060  -12.6370   -6.9490 C   0  0  0  0  0  0  0  0  0  0  0  0
    5.9920  -13.8580   -6.4110 C   0  0  0  0  0  0  0  0  0  0  0  0
    5.6390  -14.2660   -5.0020 C   0  0  0  0  0  0  0  0  0  0  0  0
    6.1620  -13.3420   -3.9220 C   0  0  0  0  0  0  0  0  0  0  0  0
    7.4930  -13.4920   -3.4870 C   0  0  0  0  0  0  0  0  0  0  0  0
    8.0570  -12.6390   -2.5210 C   0  0  0  0  0  0  0  0  0  0  0  0
    9.5150  -12.8180   -2.1240 C   0  0  2  0  0  0  0  0  0  0  0  0
    9.7150  -12.1980   -0.8410 O   0  0  0  0  0  0  0  0  0  0  0  0
   11.0470  -12.3400   -0.3410 C   0  0  2  0  0  0  0  0  0  0  0  0
   11.0950  -11.6970    1.0520 C   0  0  0  0  0  0  0  0  0  0  0  0
   11.4740  -10.3260    0.9710 O   0  0  0  0  0  0  0  0  0  0  0  0
   12.0620  -11.6880   -1.2960 C   0  0  1  0  0  0  0  0  0  0  0  0
   13.4200  -11.8930   -0.8880 O   0  0  0  0  0  0  0  0  0  0  0  0
   11.9070  -12.2940   -2.6890 C   0  0  2  0  0  0  0  0  0  0  0  0
   12.7610  -11.6110   -3.6240 O   0  0  0  0  0  0  0  0  0  0  0  0
   10.4620  -12.2170   -3.1850 C   0  0  1  0  0  0  0  0  0  0  0  0
   10.3880  -12.9230   -4.4350 O   0  0  0  0  0  0  0  0  0  0  0  0
    7.2600  -11.6180   -1.9870 C   0  0  0  0  0  0  0  0  0  0  0  0
    5.9360  -11.4630   -2.3990 C   0  0  0  0  0  0  0  0  0  0  0  0
    5.3880  -12.3160   -3.3610 C   0  0  0  0  0  0  0  0  0  0  0  0
    3.7460  -12.0510   -3.8200 Cl  0  0  0  0  0  0  0  0  0  0  0  0
    6.7590  -14.7150   -7.1220 N   0  0  0  0  0  0  0  0  0  0  0  0
    7.1450  -14.4010   -8.3980 N   0  0  0  0  0  0  0  0  0  0  0  0
    7.1384  -10.8841   -9.7316 H   0  0  0  0  0  0  0  0  0  0  0  0
    8.0502  -11.1693  -11.2528 H   0  0  0  0  0  0  0  0  0  0  0  0
    6.2556  -11.2490  -11.2528 H   0  0  0  0  0  0  0  0  0  0  0  0
    6.5910  -13.4897  -11.0608 H   0  0  0  0  0  0  0  0  0  0  0  0
    8.2778  -13.2676  -10.4363 H   0  0  0  0  0  0  0  0  0  0  0  0
    5.6979  -11.3634   -8.6992 H   0  0  0  0  0  0  0  0  0  0  0  0
    5.0024  -11.9322   -6.3584 H   0  0  0  0  0  0  0  0  0  0  0  0
    4.5426  -14.3010   -4.9207 H   0  0  0  0  0  0  0  0  0  0  0  0
    6.1188  -15.2414   -4.8333 H   0  0  0  0  0  0  0  0  0  0  0  0
    8.1081  -14.2978   -3.9141 H   0  0  0  0  0  0  0  0  0  0  0  0
    9.7504  -13.8906   -2.0594 H   0  0  0  0  0  0  0  0  0  0  0  0
   11.3187  -13.4036   -0.2700 H   0  0  0  0  0  0  0  0  0  0  0  0
   10.0997  -11.7679    1.5150 H   0  0  0  0  0  0  0  0  0  0  0  0
   11.8420  -12.2309    1.6578 H   0  0  0  0  0  0  0  0  0  0  0  0
   11.1100   -9.9880    0.1310 H   0  0  0  0  0  0  0  0  0  0  0  0
   11.8528  -10.6081   -1.2884 H   0  0  0  0  0  0  0  0  0  0  0  0
   13.5160  -11.4580   -0.0110 H   0  0  0  0  0  0  0  0  0  0  0  0
   12.1938  -13.3536   -2.6179 H   0  0  0  0  0  0  0  0  0  0  0  0
   13.6690  -11.7710   -3.2920 H   0  0  0  0  0  0  0  0  0  0  0  0
   10.1487  -11.1746   -3.3439 H   0  0  0  0  0  0  0  0  0  0  0  0
   10.6930  -13.8300   -4.2250 H   0  0  0  0  0  0  0  0  0  0  0  0
    7.6815  -10.9329   -1.2367 H   0  0  0  0  0  0  0  0  0  0  0  0
    5.3188  -10.6634   -1.9634 H   0  0  0  0  0  0  0  0  0  0  0  0
  1  2  1  0
  2  3  1  0
  3  4  2  0
  4  5  1  0
  5  6  2  0
  6  7  1  0
  7  8  1  0
  8  9  2  0
  9 10  1  0
 10 11  1  0
 11 12  1  0
 12 13  1  0
 13 14  1  0
 14 15  1  0
 13 16  1  0
 16 17  1  0
 16 18  1  0
 18 19  1  0
 18 20  1  0
 20 21  1  0
 10 22  2  0
 22 23  1  0
 23 24  2  0
 24 25  1  0
  6 26  1  0
 26 27  2  0
 27  3  1  0
 24  8  1  0
 20 11  1  0
  1 28  1  0
  1 29  1  0
  1 30  1  0
  2 31  1  0
  2 32  1  0
  4 33  1  0
  5 34  1  0
  7 35  1  0
  7 36  1  0
  9 37  1  0
 11 38  1  1
 13 39  1  1
 14 40  1  0
 14 41  1  0
 15 42  1  0
 16 43  1  6
 17 44  1  0
 18 45  1  1
 19 46  1  0
 20 47  1  6
 21 48  1  0
 22 49  1  0
 23 50  1  0
M  END
>  <meeko>  (4) 
{"is_sidechain": [false], "free_energy": -6.805, "intermolecular_energy": -9.678, "internal_energy": -0.923}

$$$$
LIB_NHELMIDNJBAZJD__M_PUB_ALL__e8__s20260927
     RDKit          3D

 50 52  0  0  0  0  0  0  0  0999 V2000
   -2.9140  -10.2480    0.0010 C   0  0  0  0  0  0  0  0  0  0  0  0
   -2.5750  -10.1180    1.4770 C   0  0  0  0  0  0  0  0  0  0  0  0
   -2.0260  -11.4010    2.0340 C   0  0  0  0  0  0  0  0  0  0  0  0
   -1.2280  -11.4130    3.1680 C   0  0  0  0  0  0  0  0  0  0  0  0
   -0.7360  -12.6290    3.6260 C   0  0  0  0  0  0  0  0  0  0  0  0
   -1.0660  -13.7900    2.9370 C   0  0  0  0  0  0  0  0  0  0  0  0
   -0.5490  -15.1450    3.3490 C   0  0  0  0  0  0  0  0  0  0  0  0
   -1.6210  -16.1540    3.7060 C   0  0  0  0  0  0  0  0  0  0  0  0
   -2.2560  -16.0540    4.9600 C   0  0  0  0  0  0  0  0  0  0  0  0
   -3.2900  -16.9280    5.3370 C   0  0  0  0  0  0  0  0  0  0  0  0
   -3.9730  -16.7430    6.6850 C   0  0  2  0  0  0  0  0  0  0  0  0
   -5.1130  -15.8850    6.5020 O   0  0  0  0  0  0  0  0  0  0  0  0
   -5.8640  -15.6720    7.7000 C   0  0  2  0  0  0  0  0  0  0  0  0
   -7.0780  -14.8010    7.3430 C   0  0  0  0  0  0  0  0  0  0  0  0
   -8.0780  -14.8770    8.3560 O   0  0  0  0  0  0  0  0  0  0  0  0
   -4.9940  -15.0060    8.7800 C   0  0  1  0  0  0  0  0  0  0  0  0
   -5.6750  -14.8650   10.0330 O   0  0  0  0  0  0  0  0  0  0  0  0
   -3.7540  -15.8620    9.0280 C   0  0  2  0  0  0  0  0  0  0  0  0
   -2.8680  -15.1960    9.9440 O   0  0  0  0  0  0  0  0  0  0  0  0
   -3.0000  -16.1600    7.7300 C   0  0  1  0  0  0  0  0  0  0  0  0
   -1.9330  -17.0710    8.0420 O   0  0  0  0  0  0  0  0  0  0  0  0
   -3.6890  -17.9200    4.4320 C   0  0  0  0  0  0  0  0  0  0  0  0
   -3.0620  -18.0400    3.1900 C   0  0  0  0  0  0  0  0  0  0  0  0
   -2.0360  -17.1630    2.8270 C   0  0  0  0  0  0  0  0  0  0  0  0
   -1.3190  -17.3760    1.2710 Cl  0  0  0  0  0  0  0  0  0  0  0  0
   -1.8290  -13.7380    1.8220 N   0  0  0  0  0  0  0  0  0  0  0  0
   -2.3110  -12.5390    1.3690 N   0  0  0  0  0  0  0  0  0  0  0  0
   -3.9361  -10.6399   -0.1073 H   0  0  0  0  0  0  0  0  0  0  0  0
   -2.8472   -9.2605   -0.4789 H   0  0  0  0  0  0  0  0  0  0  0  0
   -2.2040  -10.9377   -0.4789 H   0  0  0  0  0  0  0  0  0  0  0  0
   -1.8238   -9.3243    1.6021 H   0  0  0  0  0  0  0  0  0  0  0  0
   -3.4990   -9.8741    2.0218 H   0  0  0  0  0  0  0  0  0  0  0  0
   -0.9890  -10.4775    3.6950 H   0  0  0  0  0  0  0  0  0  0  0  0
   -0.0957  -12.6721    4.5194 H   0  0  0  0  0  0  0  0  0  0  0  0
    0.0412  -15.5537    2.5155 H   0  0  0  0  0  0  0  0  0  0  0  0
    0.0418  -14.9854    4.2631 H   0  0  0  0  0  0  0  0  0  0  0  0
   -1.9339  -15.2711    5.6624 H   0  0  0  0  0  0  0  0  0  0  0  0
   -4.3018  -17.7200    7.0688 H   0  0  0  0  0  0  0  0  0  0  0  0
   -6.2031  -16.6324    8.1156 H   0  0  0  0  0  0  0  0  0  0  0  0
   -6.7520  -13.7558    7.2373 H   0  0  0  0  0  0  0  0  0  0  0  0
   -7.5071  -15.1686    6.3992 H   0  0  0  0  0  0  0  0  0  0  0  0
   -8.0730  -15.7980    8.6800 H   0  0  0  0  0  0  0  0  0  0  0  0
   -4.7380  -14.0040    8.4052 H   0  0  0  0  0  0  0  0  0  0  0  0
   -5.3370  -15.5810   10.6160 H   0  0  0  0  0  0  0  0  0  0  0  0
   -4.0954  -16.8154    9.4576 H   0  0  0  0  0  0  0  0  0  0  0  0
   -3.3090  -15.2730   10.8160 H   0  0  0  0  0  0  0  0  0  0  0  0
   -2.5728  -15.2442    7.2955 H   0  0  0  0  0  0  0  0  0  0  0  0
   -1.3130  -16.9940    7.2880 H   0  0  0  0  0  0  0  0  0  0  0  0
   -4.5024  -18.6097    4.7017 H   0  0  0  0  0  0  0  0  0  0  0  0
   -3.3777  -18.8300    2.4927 H   0  0  0  0  0  0  0  0  0  0  0  0
  1  2  1  0
  2  3  1  0
  3  4  2  0
  4  5  1  0
  5  6  2  0
  6  7  1  0
  7  8  1  0
  8  9  2  0
  9 10  1  0
 10 11  1  0
 11 12  1  0
 12 13  1  0
 13 14  1  0
 14 15  1  0
 13 16  1  0
 16 17  1  0
 16 18  1  0
 18 19  1  0
 18 20  1  0
 20 21  1  0
 10 22  2  0
 22 23  1  0
 23 24  2  0
 24 25  1  0
  6 26  1  0
 26 27  2  0
 27  3  1  0
 24  8  1  0
 20 11  1  0
  1 28  1  0
  1 29  1  0
  1 30  1  0
  2 31  1  0
  2 32  1  0
  4 33  1  0
  5 34  1  0
  7 35  1  0
  7 36  1  0
  9 37  1  0
 11 38  1  1
 13 39  1  1
 14 40  1  0
 14 41  1  0
 15 42  1  0
 16 43  1  6
 17 44  1  0
 18 45  1  1
 19 46  1  0
 20 47  1  6
 21 48  1  0
 22 49  1  0
 23 50  1  0
M  END
>  <meeko>  (5) 
{"is_sidechain": [false], "free_energy": -6.7, "intermolecular_energy": -9.413, "internal_energy": -1.041}

$$$$
LIB_NHELMIDNJBAZJD__M_PUB_ALL__e8__s20260927
     RDKit          3D

 50 52  0  0  0  0  0  0  0  0999 V2000
    0.0960  -12.5230    0.2660 C   0  0  0  0  0  0  0  0  0  0  0  0
    1.4070  -11.8350    0.6090 C   0  0  0  0  0  0  0  0  0  0  0  0
    2.3340  -11.7870   -0.5730 C   0  0  0  0  0  0  0  0  0  0  0  0
    1.9010  -11.3490   -1.8150 C   0  0  0  0  0  0  0  0  0  0  0  0
    2.8000  -11.3450   -2.8730 C   0  0  0  0  0  0  0  0  0  0  0  0
    4.1040  -11.7710   -2.6490 C   0  0  0  0  0  0  0  0  0  0  0  0
    5.1330  -11.8260   -3.7500 C   0  0  0  0  0  0  0  0  0  0  0  0
    6.3130  -12.7340   -3.4740 C   0  0  0  0  0  0  0  0  0  0  0  0
    7.4520  -12.1950   -2.8440 C   0  0  0  0  0  0  0  0  0  0  0  0
    8.5630  -12.9910   -2.5170 C   0  0  0  0  0  0  0  0  0  0  0  0
    9.7470  -12.3640   -1.7930 C   0  0  2  0  0  0  0  0  0  0  0  0
   10.9370  -12.6260   -2.5570 O   0  0  0  0  0  0  0  0  0  0  0  0
   12.1150  -12.0450   -1.9940 C   0  0  2  0  0  0  0  0  0  0  0  0
   13.2850  -12.3450   -2.9420 C   0  0  0  0  0  0  0  0  0  0  0  0
   14.4650  -11.6580   -2.5340 O   0  0  0  0  0  0  0  0  0  0  0  0
   12.3790  -12.6010   -0.5840 C   0  0  1  0  0  0  0  0  0  0  0  0
   13.4940  -11.9730    0.0620 O   0  0  0  0  0  0  0  0  0  0  0  0
   11.1510  -12.3630    0.2920 C   0  0  2  0  0  0  0  0  0  0  0  0
   11.3300  -12.9850    1.5760 O   0  0  0  0  0  0  0  0  0  0  0  0
    9.8770  -12.9110   -0.3560 C   0  0  1  0  0  0  0  0  0  0  0  0
    8.7650  -12.5280    0.4700 O   0  0  0  0  0  0  0  0  0  0  0  0
    8.5230  -14.3550   -2.8320 C   0  0  0  0  0  0  0  0  0  0  0  0
    7.4070  -14.9030   -3.4660 C   0  0  0  0  0  0  0  0  0  0  0  0
    6.3070  -14.1010   -3.7850 C   0  0  0  0  0  0  0  0  0  0  0  0
    4.9660  -14.8590   -4.5620 Cl  0  0  0  0  0  0  0  0  0  0  0  0
    4.4860  -12.2120   -1.4300 N   0  0  0  0  0  0  0  0  0  0  0  0
    3.5990  -12.2190   -0.3870 N   0  0  0  0  0  0  0  0  0  0  0  0
   -0.4276  -12.7978    1.1936 H   0  0  0  0  0  0  0  0  0  0  0  0
   -0.5340  -11.8393   -0.3219 H   0  0  0  0  0  0  0  0  0  0  0  0
    0.3007  -13.4299   -0.3219 H   0  0  0  0  0  0  0  0  0  0  0  0
    1.1950  -10.8070    0.9380 H   0  0  0  0  0  0  0  0  0  0  0  0
    1.8982  -12.4104    1.4075 H   0  0  0  0  0  0  0  0  0  0  0  0
    0.8643  -11.0109   -1.9596 H   0  0  0  0  0  0  0  0  0  0  0  0
    2.4854  -11.0101   -3.8724 H   0  0  0  0  0  0  0  0  0  0  0  0
    4.6359  -12.1801   -4.6651 H   0  0  0  0  0  0  0  0  0  0  0  0
    5.5411  -10.8087   -3.8424 H   0  0  0  0  0  0  0  0  0  0  0  0
    7.4722  -11.1222   -2.6015 H   0  0  0  0  0  0  0  0  0  0  0  0
    9.5934  -11.2782   -1.7067 H   0  0  0  0  0  0  0  0  0  0  0  0
   11.9916  -10.9572   -1.8869 H   0  0  0  0  0  0  0  0  0  0  0  0
   13.4806  -13.4275   -2.9399 H   0  0  0  0  0  0  0  0  0  0  0  0
   13.0131  -12.0032   -3.9516 H   0  0  0  0  0  0  0  0  0  0  0  0
   15.1850  -12.3170   -2.5430 H   0  0  0  0  0  0  0  0  0  0  0  0
   12.6008  -13.6716   -0.7048 H   0  0  0  0  0  0  0  0  0  0  0  0
   13.1680  -11.1100    0.4020 H   0  0  0  0  0  0  0  0  0  0  0  0
   11.0402  -11.2751    0.4115 H   0  0  0  0  0  0  0  0  0  0  0  0
   12.2740  -13.2440    1.5960 H   0  0  0  0  0  0  0  0  0  0  0  0
    9.9058  -14.0081   -0.4308 H   0  0  0  0  0  0  0  0  0  0  0  0
    8.2600  -11.8900   -0.0750 H   0  0  0  0  0  0  0  0  0  0  0  0
    9.3776  -14.9992   -2.5778 H   0  0  0  0  0  0  0  0  0  0  0  0
    7.3927  -15.9740   -3.7166 H   0  0  0  0  0  0  0  0  0  0  0  0
  1  2  1  0
  2  3  1  0
  3  4  2  0
  4  5  1  0
  5  6  2  0
  6  7  1  0
  7  8  1  0
  8  9  2  0
  9 10  1  0
 10 11  1  0
 11 12  1  0
 12 13  1  0
 13 14  1  0
 14 15  1  0
 13 16  1  0
 16 17  1  0
 16 18  1  0
 18 19  1  0
 18 20  1  0
 20 21  1  0
 10 22  2  0
 22 23  1  0
 23 24  2  0
 24 25  1  0
  6 26  1  0
 26 27  2  0
 27  3  1  0
 24  8  1  0
 20 11  1  0
  1 28  1  0
  1 29  1  0
  1 30  1  0
  2 31  1  0
  2 32  1  0
  4 33  1  0
  5 34  1  0
  7 35  1  0
  7 36  1  0
  9 37  1  0
 11 38  1  1
 13 39  1  1
 14 40  1  0
 14 41  1  0
 15 42  1  0
 16 43  1  6
 17 44  1  0
 18 45  1  1
 19 46  1  0
 20 47  1  6
 21 48  1  0
 22 49  1  0
 23 50  1  0
M  END
>  <meeko>  (6) 
{"is_sidechain": [false], "free_energy": -6.664, "intermolecular_energy": -9.53, "internal_energy": -0.872}

$$$$
LIB_NHELMIDNJBAZJD__M_PUB_ALL__e8__s20260927
     RDKit          3D

 50 52  0  0  0  0  0  0  0  0999 V2000
    5.8070  -11.9850    1.3760 C   0  0  0  0  0  0  0  0  0  0  0  0
    6.9290  -11.0280    1.0090 C   0  0  0  0  0  0  0  0  0  0  0  0
    8.1360  -11.7600    0.4940 C   0  0  0  0  0  0  0  0  0  0  0  0
    8.1770  -12.2690   -0.7960 C   0  0  0  0  0  0  0  0  0  0  0  0
    9.3140  -12.9520   -1.2090 C   0  0  0  0  0  0  0  0  0  0  0  0
   10.3720  -13.0950   -0.3200 C   0  0  0  0  0  0  0  0  0  0  0  0
   11.6290  -13.8480   -0.6780 C   0  0  0  0  0  0  0  0  0  0  0  0
   12.3340  -13.3520   -1.9240 C   0  0  0  0  0  0  0  0  0  0  0  0
   12.2670  -14.1290   -3.0970 C   0  0  0  0  0  0  0  0  0  0  0  0
   12.8590  -13.7070   -4.3000 C   0  0  0  0  0  0  0  0  0  0  0  0
   12.7140  -14.5650   -5.5490 C   0  0  2  0  0  0  0  0  0  0  0  0
   14.0050  -14.6820   -6.1720 O   0  0  0  0  0  0  0  0  0  0  0  0
   14.0010  -15.5070   -7.3400 C   0  0  2  0  0  0  0  0  0  0  0  0
   15.4440  -15.5960   -7.8550 C   0  0  0  0  0  0  0  0  0  0  0  0
   15.6140  -16.7220   -8.7130 O   0  0  0  0  0  0  0  0  0  0  0  0
   13.0560  -14.9350   -8.4110 C   0  0  1  0  0  0  0  0  0  0  0  0
   12.9420  -15.7820   -9.5610 O   0  0  0  0  0  0  0  0  0  0  0  0
   11.6580  -14.7760   -7.8190 C   0  0  2  0  0  0  0  0  0  0  0  0
   10.7900  -14.1280   -8.7650 O   0  0  0  0  0  0  0  0  0  0  0  0
   11.6780  -13.9640   -6.5220 C   0  0  1  0  0  0  0  0  0  0  0  0
   10.3490  -13.9800   -5.9740 O   0  0  0  0  0  0  0  0  0  0  0  0
   13.5320  -12.4780   -4.3170 C   0  0  0  0  0  0  0  0  0  0  0  0
   13.6170  -11.7010   -3.1600 C   0  0  0  0  0  0  0  0  0  0  0  0
   13.0220  -12.1310   -1.9710 C   0  0  0  0  0  0  0  0  0  0  0  0
   13.1690  -11.1080   -0.5900 Cl  0  0  0  0  0  0  0  0  0  0  0  0
   10.2890  -12.6050    0.9370 N   0  0  0  0  0  0  0  0  0  0  0  0
    9.1670  -11.9340    1.3460 N   0  0  0  0  0  0  0  0  0  0  0  0
    5.7268  -12.0534    2.4709 H   0  0  0  0  0  0  0  0  0  0  0  0
    4.8582  -11.6138    0.9614 H   0  0  0  0  0  0  0  0  0  0  0  0
    6.0239  -12.9805    0.9614 H   0  0  0  0  0  0  0  0  0  0  0  0
    6.5700  -10.3395    0.2298 H   0  0  0  0  0  0  0  0  0  0  0  0
    7.2217  -10.4782    1.9156 H   0  0  0  0  0  0  0  0  0  0  0  0
    7.3252  -12.1343   -1.4789 H   0  0  0  0  0  0  0  0  0  0  0  0
    9.3756  -13.3728   -2.2235 H   0  0  0  0  0  0  0  0  0  0  0  0
   12.3290  -13.7664    0.1666 H   0  0  0  0  0  0  0  0  0  0  0  0
   11.3207  -14.8828   -0.8880 H   0  0  0  0  0  0  0  0  0  0  0  0
   11.7368  -15.0925   -3.0709 H   0  0  0  0  0  0  0  0  0  0  0  0
   12.3458  -15.5634   -5.2705 H   0  0  0  0  0  0  0  0  0  0  0  0
   13.6294  -16.5135   -7.0972 H   0  0  0  0  0  0  0  0  0  0  0  0
   15.6833  -14.6792   -8.4137 H   0  0  0  0  0  0  0  0  0  0  0  0
   16.1167  -15.7094   -6.9921 H   0  0  0  0  0  0  0  0  0  0  0  0
   15.0750  -17.4410   -8.3330 H   0  0  0  0  0  0  0  0  0  0  0  0
   13.4835  -13.9718   -8.7265 H   0  0  0  0  0  0  0  0  0  0  0  0
   12.0040  -16.0740   -9.5990 H   0  0  0  0  0  0  0  0  0  0  0  0
   11.2837  -15.7849   -7.5911 H   0  0  0  0  0  0  0  0  0  0  0  0
   11.2340  -14.2470   -9.6300 H   0  0  0  0  0  0  0  0  0  0  0  0
   11.9760  -12.9212   -6.7059 H   0  0  0  0  0  0  0  0  0  0  0  0
   10.4290  -14.5000   -5.1470 H   0  0  0  0  0  0  0  0  0  0  0  0
   13.9967  -12.1228   -5.2486 H   0  0  0  0  0  0  0  0  0  0  0  0
   14.1566  -10.7428   -3.1847 H   0  0  0  0  0  0  0  0  0  0  0  0
  1  2  1  0
  2  3  1  0
  3  4  2  0
  4  5  1  0
  5  6  2  0
  6  7  1  0
  7  8  1  0
  8  9  2  0
  9 10  1  0
 10 11  1  0
 11 12  1  0
 12 13  1  0
 13 14  1  0
 14 15  1  0
 13 16  1  0
 16 17  1  0
 16 18  1  0
 18 19  1  0
 18 20  1  0
 20 21  1  0
 10 22  2  0
 22 23  1  0
 23 24  2  0
 24 25  1  0
  6 26  1  0
 26 27  2  0
 27  3  1  0
 24  8  1  0
 20 11  1  0
  1 28  1  0
  1 29  1  0
  1 30  1  0
  2 31  1  0
  2 32  1  0
  4 33  1  0
  5 34  1  0
  7 35  1  0
  7 36  1  0
  9 37  1  0
 11 38  1  1
 13 39  1  1
 14 40  1  0
 14 41  1  0
 15 42  1  0
 16 43  1  6
 17 44  1  0
 18 45  1  1
 19 46  1  0
 20 47  1  6
 21 48  1  0
 22 49  1  0
 23 50  1  0
M  END
>  <meeko>  (7) 
{"is_sidechain": [false], "free_energy": -6.615, "intermolecular_energy": -9.295, "internal_energy": -1.038}

$$$$
LIB_NHELMIDNJBAZJD__M_PUB_ALL__e8__s20260927
     RDKit          3D

 50 52  0  0  0  0  0  0  0  0999 V2000
    2.2390  -10.6450   -2.7680 C   0  0  0  0  0  0  0  0  0  0  0  0
    3.0150  -10.2760   -4.0230 C   0  0  0  0  0  0  0  0  0  0  0  0
    3.9080  -11.3980   -4.4720 C   0  0  0  0  0  0  0  0  0  0  0  0
    4.1270  -11.6530   -5.8170 C   0  0  0  0  0  0  0  0  0  0  0  0
    4.9490  -12.7160   -6.1700 C   0  0  0  0  0  0  0  0  0  0  0  0
    5.5300  -13.4790   -5.1650 C   0  0  0  0  0  0  0  0  0  0  0  0
    6.4100  -14.6670   -5.4620 C   0  0  0  0  0  0  0  0  0  0  0  0
    7.5520  -14.8740   -4.4890 C   0  0  0  0  0  0  0  0  0  0  0  0
    8.7870  -14.2490   -4.7480 C   0  0  0  0  0  0  0  0  0  0  0  0
    9.8740  -14.3600   -3.8640 C   0  0  0  0  0  0  0  0  0  0  0  0
   11.1700  -13.6230   -4.1710 C   0  0  2  0  0  0  0  0  0  0  0  0
   12.1120  -14.5670   -4.7090 O   0  0  0  0  0  0  0  0  0  0  0  0
   13.3610  -13.9780   -5.0780 C   0  0  2  0  0  0  0  0  0  0  0  0
   14.2350  -15.0800   -5.6940 C   0  0  0  0  0  0  0  0  0  0  0  0
   15.2030  -14.5290   -6.5840 O   0  0  0  0  0  0  0  0  0  0  0  0
   14.0450  -13.3350   -3.8590 C   0  0  1  0  0  0  0  0  0  0  0  0
   15.2530  -12.6430   -4.2000 O   0  0  0  0  0  0  0  0  0  0  0  0
   13.0980  -12.3170   -3.2270 C   0  0  2  0  0  0  0  0  0  0  0  0
   13.6690  -11.7950   -2.0150 O   0  0  0  0  0  0  0  0  0  0  0  0
   11.7320  -12.9310   -2.9120 C   0  0  1  0  0  0  0  0  0  0  0  0
   10.8740  -11.8760   -2.4470 O   0  0  0  0  0  0  0  0  0  0  0  0
    9.7090  -15.1170   -2.6970 C   0  0  0  0  0  0  0  0  0  0  0  0
    8.4950  -15.7530   -2.4300 C   0  0  0  0  0  0  0  0  0  0  0  0
    7.4210  -15.6320   -3.3170 C   0  0  0  0  0  0  0  0  0  0  0  0
    5.9540  -16.4440   -2.9080 Cl  0  0  0  0  0  0  0  0  0  0  0  0
    5.2770  -13.2150   -3.8630 N   0  0  0  0  0  0  0  0  0  0  0  0
    4.4640  -12.1700   -3.5150 N   0  0  0  0  0  0  0  0  0  0  0  0
    2.8247  -10.3665   -1.8796 H   0  0  0  0  0  0  0  0  0  0  0  0
    1.2798  -10.1066   -2.7584 H   0  0  0  0  0  0  0  0  0  0  0  0
    2.0512  -11.7288   -2.7584 H   0  0  0  0  0  0  0  0  0  0  0  0
    2.3022  -10.0434   -4.8278 H   0  0  0  0  0  0  0  0  0  0  0  0
    3.6464   -9.4051   -3.7931 H   0  0  0  0  0  0  0  0  0  0  0  0
    3.6589  -11.0257   -6.5899 H   0  0  0  0  0  0  0  0  0  0  0  0
    5.1367  -12.9497   -7.2284 H   0  0  0  0  0  0  0  0  0  0  0  0
    5.7815  -15.5697   -5.4482 H   0  0  0  0  0  0  0  0  0  0  0  0
    6.8709  -14.4721   -6.4416 H   0  0  0  0  0  0  0  0  0  0  0  0
    8.9043  -13.6574   -5.6679 H   0  0  0  0  0  0  0  0  0  0  0  0
   10.9775  -12.8300   -4.9086 H   0  0  0  0  0  0  0  0  0  0  0  0
   13.2029  -13.1737   -5.8116 H   0  0  0  0  0  0  0  0  0  0  0  0
   14.7538  -15.6197   -4.8881 H   0  0  0  0  0  0  0  0  0  0  0  0
   13.5870  -15.7637   -6.2619 H   0  0  0  0  0  0  0  0  0  0  0  0
   15.5450  -15.2740   -7.1140 H   0  0  0  0  0  0  0  0  0  0  0  0
   14.2935  -14.1544   -3.1685 H   0  0  0  0  0  0  0  0  0  0  0  0
   15.7910  -13.2690   -4.7330 H   0  0  0  0  0  0  0  0  0  0  0  0
   12.9547  -11.5067   -3.9570 H   0  0  0  0  0  0  0  0  0  0  0  0
   13.7400  -10.8300   -2.1700 H   0  0  0  0  0  0  0  0  0  0  0  0
   11.8090  -13.7003   -2.1296 H   0  0  0  0  0  0  0  0  0  0  0  0
   11.4740  -11.1160   -2.2980 H   0  0  0  0  0  0  0  0  0  0  0  0
   10.5424  -15.2112   -1.9853 H   0  0  0  0  0  0  0  0  0  0  0  0
    8.3828  -16.3535   -1.5153 H   0  0  0  0  0  0  0  0  0  0  0  0
  1  2  1  0
  2  3  1  0
  3  4  2  0
  4  5  1  0
  5  6  2  0
  6  7  1  0
  7  8  1  0
  8  9  2  0
  9 10  1  0
 10 11  1  0
 11 12  1  0
 12 13  1  0
 13 14  1  0
 14 15  1  0
 13 16  1  0
 16 17  1  0
 16 18  1  0
 18 19  1  0
 18 20  1  0
 20 21  1  0
 10 22  2  0
 22 23  1  0
 23 24  2  0
 24 25  1  0
  6 26  1  0
 26 27  2  0
 27  3  1  0
 24  8  1  0
 20 11  1  0
  1 28  1  0
  1 29  1  0
  1 30  1  0
  2 31  1  0
  2 32  1  0
  4 33  1  0
  5 34  1  0
  7 35  1  0
  7 36  1  0
  9 37  1  0
 11 38  1  6
 13 39  1  6
 14 40  1  0
 14 41  1  0
 15 42  1  0
 16 43  1  1
 17 44  1  0
 18 45  1  6
 19 46  1  0
 20 47  1  1
 21 48  1  0
 22 49  1  0
 23 50  1  0
M  END
>  <meeko>  (8) 
{"is_sidechain": [false], "free_energy": -6.592, "intermolecular_energy": -9.459, "internal_energy": -0.842}

$$$$
LIB_NHELMIDNJBAZJD__M_PUB_ALL__e8__s20260927
     RDKit          3D

 50 52  0  0  0  0  0  0  0  0999 V2000
    2.9660  -10.3480   -3.9630 C   0  0  0  0  0  0  0  0  0  0  0  0
    2.6050  -11.7860   -4.3000 C   0  0  0  0  0  0  0  0  0  0  0  0
    3.7500  -12.5050   -4.9550 C   0  0  0  0  0  0  0  0  0  0  0  0
    4.4520  -11.9400   -6.0080 C   0  0  0  0  0  0  0  0  0  0  0  0
    5.4900  -12.6620   -6.5850 C   0  0  0  0  0  0  0  0  0  0  0  0
    5.7940  -13.9200   -6.0800 C   0  0  0  0  0  0  0  0  0  0  0  0
    6.8850  -14.7810   -6.6680 C   0  0  0  0  0  0  0  0  0  0  0  0
    7.9560  -15.2080   -5.6860 C   0  0  0  0  0  0  0  0  0  0  0  0
    8.7650  -14.2190   -5.0920 C   0  0  0  0  0  0  0  0  0  0  0  0
    9.7470  -14.5400   -4.1390 C   0  0  0  0  0  0  0  0  0  0  0  0
   10.5580  -13.4260   -3.4930 C   0  0  2  0  0  0  0  0  0  0  0  0
   11.9470  -13.6390   -3.8010 O   0  0  0  0  0  0  0  0  0  0  0  0
   12.8090  -12.6240   -3.2800 C   0  0  2  0  0  0  0  0  0  0  0  0
   14.2390  -12.9420   -3.7400 C   0  0  0  0  0  0  0  0  0  0  0  0
   15.1660  -11.9880   -3.2270 O   0  0  0  0  0  0  0  0  0  0  0  0
   12.7130  -12.5600   -1.7460 C   0  0  1  0  0  0  0  0  0  0  0  0
   13.4830  -11.4880   -1.1860 O   0  0  0  0  0  0  0  0  0  0  0  0
   11.2590  -12.3380   -1.3390 C   0  0  2  0  0  0  0  0  0  0  0  0
   11.1300  -12.3980    0.0920 O   0  0  0  0  0  0  0  0  0  0  0  0
   10.3280  -13.3770   -1.9680 C   0  0  1  0  0  0  0  0  0  0  0  0
    8.9770  -13.0130   -1.6380 O   0  0  0  0  0  0  0  0  0  0  0  0
    9.9150  -15.8850   -3.7810 C   0  0  0  0  0  0  0  0  0  0  0  0
    9.1290  -16.8770   -4.3690 C   0  0  0  0  0  0  0  0  0  0  0  0
    8.1550  -16.5440   -5.3130 C   0  0  0  0  0  0  0  0  0  0  0  0
    7.2230  -17.8310   -5.9870 Cl  0  0  0  0  0  0  0  0  0  0  0  0
    5.0750  -14.4500   -5.0660 N   0  0  0  0  0  0  0  0  0  0  0  0
    4.0490  -13.7400   -4.5000 N   0  0  0  0  0  0  0  0  0  0  0  0
    2.9971  -10.2242   -2.8704 H   0  0  0  0  0  0  0  0  0  0  0  0
    3.9522  -10.1084   -4.3874 H   0  0  0  0  0  0  0  0  0  0  0  0
    2.2099   -9.6710   -4.3874 H   0  0  0  0  0  0  0  0  0  0  0  0
    2.3361  -12.3132   -3.3728 H   0  0  0  0  0  0  0  0  0  0  0  0
    1.7597  -11.7725   -5.0037 H   0  0  0  0  0  0  0  0  0  0  0  0
    4.1923  -10.9381   -6.3804 H   0  0  0  0  0  0  0  0  0  0  0  0
    6.0612  -12.2444   -7.4273 H   0  0  0  0  0  0  0  0  0  0  0  0
    6.4196  -15.6875   -7.0823 H   0  0  0  0  0  0  0  0  0  0  0  0
    7.3892  -14.1658   -7.4278 H   0  0  0  0  0  0  0  0  0  0  0  0
    8.6242  -13.1673   -5.3820 H   0  0  0  0  0  0  0  0  0  0  0  0
   10.2332  -12.4544   -3.8936 H   0  0  0  0  0  0  0  0  0  0  0  0
   12.5084  -11.6351   -3.6565 H   0  0  0  0  0  0  0  0  0  0  0  0
   14.5179  -13.9435   -3.3806 H   0  0  0  0  0  0  0  0  0  0  0  0
   14.2697  -12.9039   -4.8389 H   0  0  0  0  0  0  0  0  0  0  0  0
   15.5900  -11.5720   -4.0020 H   0  0  0  0  0  0  0  0  0  0  0  0
   13.1085  -13.5133   -1.3655 H   0  0  0  0  0  0  0  0  0  0  0  0
   14.1890  -11.2820   -1.8380 H   0  0  0  0  0  0  0  0  0  0  0  0
   10.9663  -11.3424   -1.7038 H   0  0  0  0  0  0  0  0  0  0  0  0
   10.3330  -11.8640    0.2920 H   0  0  0  0  0  0  0  0  0  0  0  0
   10.5322  -14.3853   -1.5786 H   0  0  0  0  0  0  0  0  0  0  0  0
    8.7700  -12.2640   -2.2350 H   0  0  0  0  0  0  0  0  0  0  0  0
   10.6716  -16.1603   -3.0315 H   0  0  0  0  0  0  0  0  0  0  0  0
    9.2778  -17.9297   -4.0867 H   0  0  0  0  0  0  0  0  0  0  0  0
  1  2  1  0
  2  3  1  0
  3  4  2  0
  4  5  1  0
  5  6  2  0
  6  7  1  0
  7  8  1  0
  8  9  2  0
  9 10  1  0
 10 11  1  0
 11 12  1  0
 12 13  1  0
 13 14  1  0
 14 15  1  0
 13 16  1  0
 16 17  1  0
 16 18  1  0
 18 19  1  0
 18 20  1  0
 20 21  1  0
 10 22  2  0
 22 23  1  0
 23 24  2  0
 24 25  1  0
  6 26  1  0
 26 27  2  0
 27  3  1  0
 24  8  1  0
 20 11  1  0
  1 28  1  0
  1 29  1  0
  1 30  1  0
  2 31  1  0
  2 32  1  0
  4 33  1  0
  5 34  1  0
  7 35  1  0
  7 36  1  0
  9 37  1  0
 11 38  1  6
 13 39  1  6
 14 40  1  0
 14 41  1  0
 15 42  1  0
 16 43  1  1
 17 44  1  0
 18 45  1  6
 19 46  1  0
 20 47  1  1
 21 48  1  0
 22 49  1  0
 23 50  1  0
M  END
>  <meeko>  (9) 
{"is_sidechain": [false], "free_energy": -6.524, "intermolecular_energy": -9.165, "internal_energy": -1.04}

$$$$
