LIB_BZBZUGSXRITWQR__M_PUB_ALL__e8__s20260927
     RDKit          3D

 41 42  0  0  0  0  0  0  0  0999 V2000
    0.4510  -10.3000   -0.5890 C   0  0  0  0  0  0  0  0  0  0  0  0
   -0.7860  -10.3830    0.1020 O   0  0  0  0  0  0  0  0  0  0  0  0
   -0.7970  -11.1040    1.2820 C   0  0  0  0  0  0  0  0  0  0  0  0
   -0.1130  -12.3260    1.1200 C   0  0  0  0  0  0  0  0  0  0  0  0
    0.0210  -13.2330    2.1690 C   0  0  0  0  0  0  0  0  0  0  0  0
   -0.5240  -12.9290    3.4100 C   0  0  0  0  0  0  0  0  0  0  0  0
   -0.4490  -13.8550    4.5560 C   0  0  0  0  0  0  0  0  0  0  0  0
    0.3290  -14.9490    4.6020 C   0  0  0  0  0  0  0  0  0  0  0  0
    0.3250  -15.8370    5.7860 C   0  0  0  0  0  0  0  0  0  0  0  0
    1.2700  -16.0190    6.5390 O   0  0  0  0  0  0  0  0  0  0  0  0
   -0.9050  -16.4010    5.8760 O   0  0  0  0  0  0  0  0  0  0  0  0
   -1.1270  -17.5060    4.9870 C   0  0  0  0  0  0  0  0  0  0  0  0
   -2.5800  -17.5920    4.5190 C   0  0  0  0  0  0  0  0  0  0  0  0
   -3.1030  -18.6630    4.1880 O   0  0  0  0  0  0  0  0  0  0  0  0
   -3.3490  -16.2910    4.4350 C   0  0  0  0  0  0  0  0  0  0  0  0
   -3.2610  -15.6470    3.0860 C   0  0  0  0  0  0  0  0  0  0  0  0
   -2.6660  -16.2940    2.0190 C   0  0  0  0  0  0  0  0  0  0  0  0
   -2.6270  -15.6660    0.7730 C   0  0  0  0  0  0  0  0  0  0  0  0
   -3.1650  -14.3790    0.4970 C   0  0  0  0  0  0  0  0  0  0  0  0
   -3.0500  -13.9320   -0.7090 O   0  0  0  0  0  0  0  0  0  0  0  0
   -3.7990  -13.6880    1.6170 C   0  0  0  0  0  0  0  0  0  0  0  0
   -4.3490  -12.5220    1.5810 O   0  0  0  0  0  0  0  0  0  0  0  0
   -3.8060  -14.3750    2.8640 C   0  0  0  0  0  0  0  0  0  0  0  0
   -1.2310  -11.7160    3.5460 C   0  0  0  0  0  0  0  0  0  0  0  0
   -1.4110  -10.7510    2.5150 C   0  0  0  0  0  0  0  0  0  0  0  0
   -2.0940   -9.6940    2.7570 O   0  0  0  0  0  0  0  0  0  0  0  0
    1.2743  -10.2448    0.1384 H   0  0  0  0  0  0  0  0  0  0  0  0
    0.5788  -11.1916   -1.2205 H   0  0  0  0  0  0  0  0  0  0  0  0
    0.4585   -9.3993   -1.2205 H   0  0  0  0  0  0  0  0  0  0  0  0
    0.3258  -12.5694    0.1411 H   0  0  0  0  0  0  0  0  0  0  0  0
    0.5544  -14.1827    2.0156 H   0  0  0  0  0  0  0  0  0  0  0  0
   -1.0737  -13.6341    5.4340 H   0  0  0  0  0  0  0  0  0  0  0  0
    0.9786  -15.1884    3.7472 H   0  0  0  0  0  0  0  0  0  0  0  0
   -0.4783  -17.3874    4.1066 H   0  0  0  0  0  0  0  0  0  0  0  0
   -0.8951  -18.4308    5.5356 H   0  0  0  0  0  0  0  0  0  0  0  0
   -4.4068  -16.4937    4.6586 H   0  0  0  0  0  0  0  0  0  0  0  0
   -2.9022  -15.5965    5.1616 H   0  0  0  0  0  0  0  0  0  0  0  0
   -2.2275  -17.2942    2.1506 H   0  0  0  0  0  0  0  0  0  0  0  0
   -2.1451  -16.2058   -0.0555 H   0  0  0  0  0  0  0  0  0  0  0  0
   -4.2757  -13.8680    3.7198 H   0  0  0  0  0  0  0  0  0  0  0  0
   -1.6789  -11.4984    4.5268 H   0  0  0  0  0  0  0  0  0  0  0  0
  1  2  1  0
  2  3  1  0
  3  4  2  0
  4  5  1  0
  5  6  2  0
  6  7  1  0
  7  8  2  0
  8  9  1  0
  9 10  2  0
  9 11  1  0
 11 12  1  0
 12 13  1  0
 13 14  2  0
 13 15  1  0
 15 16  1  0
 16 17  2  0
 17 18  1  0
 18 19  2  0
 19 20  1  0
 19 21  1  0
 21 22  1  0
 21 23  2  0
  6 24  1  0
 24 25  2  0
 25 26  1  0
 25  3  1  0
 23 16  1  0
  1 27  1  0
  1 28  1  0
  1 29  1  0
  4 30  1  0
  5 31  1  0
  7 32  1  0
  8 33  1  0
 12 34  1  0
 12 35  1  0
 15 36  1  0
 15 37  1  0
 17 38  1  0
 18 39  1  0
 23 40  1  0
 24 41  1  0
M  CHG  3  20  -1  22  -1  26  -1
M  END
>  <meeko>  (1) 
{"is_sidechain": [false], "free_energy": -5.937, "intermolecular_energy": -8.714, "internal_energy": -2.488}

$$$$
LIB_BZBZUGSXRITWQR__M_PUB_ALL__e8__s20260927
     RDKit          3D

 41 42  0  0  0  0  0  0  0  0999 V2000
   12.2920   -0.2950  -12.1400 C   0  0  0  0  0  0  0  0  0  0  0  0
   11.6870   -1.1210  -13.1230 O   0  0  0  0  0  0  0  0  0  0  0  0
   11.5960   -2.4710  -12.8350 C   0  0  0  0  0  0  0  0  0  0  0  0
   12.8740   -3.0660  -12.8460 C   0  0  0  0  0  0  0  0  0  0  0  0
   13.0510   -4.4210  -12.5790 C   0  0  0  0  0  0  0  0  0  0  0  0
   11.9460   -5.2110  -12.2880 C   0  0  0  0  0  0  0  0  0  0  0  0
   12.0540   -6.6590  -12.0290 C   0  0  0  0  0  0  0  0  0  0  0  0
   11.1400   -7.3850  -11.3640 C   0  0  0  0  0  0  0  0  0  0  0  0
   11.3410   -8.8330  -11.1300 C   0  0  0  0  0  0  0  0  0  0  0  0
   12.1340   -9.3200  -10.3390 O   0  0  0  0  0  0  0  0  0  0  0  0
   10.4900   -9.5050  -11.9450 O   0  0  0  0  0  0  0  0  0  0  0  0
    9.4950  -10.2840  -11.2660 C   0  0  0  0  0  0  0  0  0  0  0  0
    9.3990  -11.7080  -11.8130 C   0  0  0  0  0  0  0  0  0  0  0  0
   10.3930  -12.3330  -12.2040 O   0  0  0  0  0  0  0  0  0  0  0  0
    8.0150  -12.3150  -11.9000 C   0  0  0  0  0  0  0  0  0  0  0  0
    7.6910  -13.1980  -10.7340 C   0  0  0  0  0  0  0  0  0  0  0  0
    8.0870  -14.5230  -10.7040 C   0  0  0  0  0  0  0  0  0  0  0  0
    7.7830  -15.3020   -9.5870 C   0  0  0  0  0  0  0  0  0  0  0  0
    7.0810  -14.8380   -8.4400 C   0  0  0  0  0  0  0  0  0  0  0  0
    6.8760  -15.6830   -7.4860 O   0  0  0  0  0  0  0  0  0  0  0  0
    6.6610  -13.4390   -8.4610 C   0  0  0  0  0  0  0  0  0  0  0  0
    6.0210  -12.8220   -7.5260 O   0  0  0  0  0  0  0  0  0  0  0  0
    6.9950  -12.6930   -9.6270 C   0  0  0  0  0  0  0  0  0  0  0  0
   10.6720   -4.6070  -12.3120 C   0  0  0  0  0  0  0  0  0  0  0  0
   10.4210   -3.2320  -12.5840 C   0  0  0  0  0  0  0  0  0  0  0  0
    9.2130   -2.8050  -12.5960 O   0  0  0  0  0  0  0  0  0  0  0  0
   12.0239   -0.6611  -11.1380 H   0  0  0  0  0  0  0  0  0  0  0  0
   13.3851   -0.3226  -12.2601 H   0  0  0  0  0  0  0  0  0  0  0  0
   11.9359    0.7388  -12.2601 H   0  0  0  0  0  0  0  0  0  0  0  0
   13.7531   -2.4444  -13.0711 H   0  0  0  0  0  0  0  0  0  0  0  0
   14.0583   -4.8626  -12.5983 H   0  0  0  0  0  0  0  0  0  0  0  0
   12.9455   -7.1810  -12.4069 H   0  0  0  0  0  0  0  0  0  0  0  0
   10.2290   -6.8965  -10.9879 H   0  0  0  0  0  0  0  0  0  0  0  0
    9.7521  -10.3322  -10.1976 H   0  0  0  0  0  0  0  0  0  0  0  0
    8.5214   -9.7970  -11.4238 H   0  0  0  0  0  0  0  0  0  0  0  0
    7.2765  -11.5007  -11.9394 H   0  0  0  0  0  0  0  0  0  0  0  0
    7.9848  -12.9394  -12.8051 H   0  0  0  0  0  0  0  0  0  0  0  0
    8.6360  -14.9581  -11.5521 H   0  0  0  0  0  0  0  0  0  0  0  0
    8.1102  -16.3522   -9.5938 H   0  0  0  0  0  0  0  0  0  0  0  0
    6.6827  -11.6388   -9.6617 H   0  0  0  0  0  0  0  0  0  0  0  0
    9.8032   -5.2489  -12.1041 H   0  0  0  0  0  0  0  0  0  0  0  0
  1  2  1  0
  2  3  1  0
  3  4  2  0
  4  5  1  0
  5  6  2  0
  6  7  1  0
  7  8  2  0
  8  9  1  0
  9 10  2  0
  9 11  1  0
 11 12  1  0
 12 13  1  0
 13 14  2  0
 13 15  1  0
 15 16  1  0
 16 17  2  0
 17 18  1  0
 18 19  2  0
 19 20  1  0
 19 21  1  0
 21 22  1  0
 21 23  2  0
  6 24  1  0
 24 25  2  0
 25 26  1  0
 25  3  1  0
 23 16  1  0
  1 27  1  0
  1 28  1  0
  1 29  1  0
  4 30  1  0
  5 31  1  0
  7 32  1  0
  8 33  1  0
 12 34  1  0
 12 35  1  0
 15 36  1  0
 15 37  1  0
 17 38  1  0
 18 39  1  0
 23 40  1  0
 24 41  1  0
M  CHG  3  20  -1  22  -1  26  -1
M  END
>  <meeko>  (2) 
{"is_sidechain": [false], "free_energy": -5.8, "intermolecular_energy": -10.424, "internal_energy": -0.576}

$$$$
LIB_BZBZUGSXRITWQR__M_PUB_ALL__e8__s20260927
     RDKit          3D

 41 42  0  0  0  0  0  0  0  0999 V2000
   17.0110   -6.2430   10.9080 C   0  0  0  0  0  0  0  0  0  0  0  0
   16.0930   -6.5970   11.9300 O   0  0  0  0  0  0  0  0  0  0  0  0
   15.7080   -7.9240   11.9940 C   0  0  0  0  0  0  0  0  0  0  0  0
   14.4430   -8.1010   11.3960 C   0  0  0  0  0  0  0  0  0  0  0  0
   13.8360   -9.3520   11.3270 C   0  0  0  0  0  0  0  0  0  0  0  0
   14.4900  -10.4600   11.8530 C   0  0  0  0  0  0  0  0  0  0  0  0
   13.8940  -11.8090   11.8450 C   0  0  0  0  0  0  0  0  0  0  0  0
   12.7660  -12.1470   12.4900 C   0  0  0  0  0  0  0  0  0  0  0  0
   12.2490  -13.5330   12.4470 C   0  0  0  0  0  0  0  0  0  0  0  0
   12.7850  -14.4720   11.8800 O   0  0  0  0  0  0  0  0  0  0  0  0
   11.0860  -13.5620   13.1450 O   0  0  0  0  0  0  0  0  0  0  0  0
   11.2080  -13.2220   14.5330 C   0  0  0  0  0  0  0  0  0  0  0  0
   10.1910  -12.1640   14.9630 C   0  0  0  0  0  0  0  0  0  0  0  0
    9.9930  -11.8850   16.1530 O   0  0  0  0  0  0  0  0  0  0  0  0
    9.3960  -11.4930   13.8630 C   0  0  0  0  0  0  0  0  0  0  0  0
    9.3740  -10.0010   13.9850 C   0  0  0  0  0  0  0  0  0  0  0  0
   10.4920   -9.2400   13.6970 C   0  0  0  0  0  0  0  0  0  0  0  0
   10.4190   -7.8500   13.8020 C   0  0  0  0  0  0  0  0  0  0  0  0
    9.2590   -7.1260   14.1900 C   0  0  0  0  0  0  0  0  0  0  0  0
    9.3500   -5.8390   14.2420 O   0  0  0  0  0  0  0  0  0  0  0  0
    8.0710   -7.9200   14.4950 C   0  0  0  0  0  0  0  0  0  0  0  0
    6.9220   -7.4640   14.8600 O   0  0  0  0  0  0  0  0  0  0  0  0
    8.2050   -9.3330   14.3730 C   0  0  0  0  0  0  0  0  0  0  0  0
   15.7410  -10.2600   12.4750 C   0  0  0  0  0  0  0  0  0  0  0  0
   16.4110   -9.0090   12.5850 C   0  0  0  0  0  0  0  0  0  0  0  0
   17.5380   -8.9530   13.1930 O   0  0  0  0  0  0  0  0  0  0  0  0
   17.9454   -5.8827   11.3631 H   0  0  0  0  0  0  0  0  0  0  0  0
   17.2229   -7.1239   10.2842 H   0  0  0  0  0  0  0  0  0  0  0  0
   16.5766   -5.4479   10.2842 H   0  0  0  0  0  0  0  0  0  0  0  0
   13.9229   -7.2287   10.9735 H   0  0  0  0  0  0  0  0  0  0  0  0
   12.8463   -9.4628   10.8598 H   0  0  0  0  0  0  0  0  0  0  0  0
   14.4095  -12.5928   11.2706 H   0  0  0  0  0  0  0  0  0  0  0  0
   12.2177  -11.3819   13.0592 H   0  0  0  0  0  0  0  0  0  0  0  0
   11.0504  -14.1293   15.1346 H   0  0  0  0  0  0  0  0  0  0  0  0
   12.2138  -12.8054   14.6902 H   0  0  0  0  0  0  0  0  0  0  0  0
    9.8440  -11.7591   12.8942 H   0  0  0  0  0  0  0  0  0  0  0  0
    8.3573  -11.8456   13.9452 H   0  0  0  0  0  0  0  0  0  0  0  0
   11.4297   -9.7252   13.3882 H   0  0  0  0  0  0  0  0  0  0  0  0
   11.3255   -7.2727   13.5673 H   0  0  0  0  0  0  0  0  0  0  0  0
    7.3218   -9.9477   14.6012 H   0  0  0  0  0  0  0  0  0  0  0  0
   16.2374  -11.1404   12.9091 H   0  0  0  0  0  0  0  0  0  0  0  0
  1  2  1  0
  2  3  1  0
  3  4  2  0
  4  5  1  0
  5  6  2  0
  6  7  1  0
  7  8  2  0
  8  9  1  0
  9 10  2  0
  9 11  1  0
 11 12  1  0
 12 13  1  0
 13 14  2  0
 13 15  1  0
 15 16  1  0
 16 17  2  0
 17 18  1  0
 18 19  2  0
 19 20  1  0
 19 21  1  0
 21 22  1  0
 21 23  2  0
  6 24  1  0
 24 25  2  0
 25 26  1  0
 25  3  1  0
 23 16  1  0
  1 27  1  0
  1 28  1  0
  1 29  1  0
  4 30  1  0
  5 31  1  0
  7 32  1  0
  8 33  1  0
 12 34  1  0
 12 35  1  0
 15 36  1  0
 15 37  1  0
 17 38  1  0
 18 39  1  0
 23 40  1  0
 24 41  1  0
M  CHG  3  20  -1  22  -1  26  -1
M  END
>  <meeko>  (3) 
{"is_sidechain": [false], "free_energy": -5.7, "intermolecular_energy": -9.585, "internal_energy": -1.268}

$$$$
LIB_BZBZUGSXRITWQR__M_PUB_ALL__e8__s20260927
     RDKit          3D

 41 42  0  0  0  0  0  0  0  0999 V2000
    4.1070   -5.2630   15.5210 C   0  0  0  0  0  0  0  0  0  0  0  0
    4.2290   -6.2750   14.5330 O   0  0  0  0  0  0  0  0  0  0  0  0
    5.4560   -6.9030   14.4280 C   0  0  0  0  0  0  0  0  0  0  0  0
    6.4240   -6.0120   13.9200 C   0  0  0  0  0  0  0  0  0  0  0  0
    7.7460   -6.4040   13.7260 C   0  0  0  0  0  0  0  0  0  0  0  0
    8.1300   -7.7010   14.0430 C   0  0  0  0  0  0  0  0  0  0  0  0
    9.5040   -8.1940   13.8320 C   0  0  0  0  0  0  0  0  0  0  0  0
    9.9410   -9.4100   14.1970 C   0  0  0  0  0  0  0  0  0  0  0  0
   11.3460   -9.8160   13.9660 C   0  0  0  0  0  0  0  0  0  0  0  0
   12.3300   -9.1440   14.2290 O   0  0  0  0  0  0  0  0  0  0  0  0
   11.3320  -11.0570   13.4170 O   0  0  0  0  0  0  0  0  0  0  0  0
   12.5350  -11.8140   13.6110 C   0  0  0  0  0  0  0  0  0  0  0  0
   13.0570  -12.4190   12.3070 C   0  0  0  0  0  0  0  0  0  0  0  0
   12.4120  -13.2590   11.6660 O   0  0  0  0  0  0  0  0  0  0  0  0
   14.4300  -11.9760   11.8490 C   0  0  0  0  0  0  0  0  0  0  0  0
   14.5890  -10.4870   11.8370 C   0  0  0  0  0  0  0  0  0  0  0  0
   13.7390   -9.6800   11.1030 C   0  0  0  0  0  0  0  0  0  0  0  0
   13.9100   -8.2950   11.1400 C   0  0  0  0  0  0  0  0  0  0  0  0
   14.9120   -7.6210   11.8910 C   0  0  0  0  0  0  0  0  0  0  0  0
   14.9420   -6.3320   11.8210 O   0  0  0  0  0  0  0  0  0  0  0  0
   15.8130   -8.4640   12.6730 C   0  0  0  0  0  0  0  0  0  0  0  0
   16.7810   -8.0570   13.4220 O   0  0  0  0  0  0  0  0  0  0  0  0
   15.5930   -9.8690   12.5950 C   0  0  0  0  0  0  0  0  0  0  0  0
    7.1420   -8.5880   14.5210 C   0  0  0  0  0  0  0  0  0  0  0  0
    5.7750   -8.2550   14.7350 C   0  0  0  0  0  0  0  0  0  0  0  0
    4.9670   -9.1570   15.1540 O   0  0  0  0  0  0  0  0  0  0  0  0
    4.1619   -5.7182   16.5209 H   0  0  0  0  0  0  0  0  0  0  0  0
    4.9240   -4.5358   15.4039 H   0  0  0  0  0  0  0  0  0  0  0  0
    3.1406   -4.7508   15.4039 H   0  0  0  0  0  0  0  0  0  0  0  0
    6.1275   -4.9824   13.6710 H   0  0  0  0  0  0  0  0  0  0  0  0
    8.4815   -5.6914   13.3244 H   0  0  0  0  0  0  0  0  0  0  0  0
   10.2204   -7.5186   13.3416 H   0  0  0  0  0  0  0  0  0  0  0  0
    9.2448  -10.1151   14.6747 H   0  0  0  0  0  0  0  0  0  0  0  0
   13.3073  -11.1503   14.0271 H   0  0  0  0  0  0  0  0  0  0  0  0
   12.3044  -12.6420   14.2974 H   0  0  0  0  0  0  0  0  0  0  0  0
   15.1815  -12.4036   12.5290 H   0  0  0  0  0  0  0  0  0  0  0  0
   14.5632  -12.3301   10.8161 H   0  0  0  0  0  0  0  0  0  0  0  0
   12.9365  -10.1248   10.4963 H   0  0  0  0  0  0  0  0  0  0  0  0
   13.2191   -7.6800   10.5447 H   0  0  0  0  0  0  0  0  0  0  0  0
   16.2635  -10.5201   13.1751 H   0  0  0  0  0  0  0  0  0  0  0  0
    7.4532   -9.6188   14.7461 H   0  0  0  0  0  0  0  0  0  0  0  0
  1  2  1  0
  2  3  1  0
  3  4  2  0
  4  5  1  0
  5  6  2  0
  6  7  1  0
  7  8  2  0
  8  9  1  0
  9 10  2  0
  9 11  1  0
 11 12  1  0
 12 13  1  0
 13 14  2  0
 13 15  1  0
 15 16  1  0
 16 17  2  0
 17 18  1  0
 18 19  2  0
 19 20  1  0
 19 21  1  0
 21 22  1  0
 21 23  2  0
  6 24  1  0
 24 25  2  0
 25 26  1  0
 25  3  1  0
 23 16  1  0
  1 27  1  0
  1 28  1  0
  1 29  1  0
  4 30  1  0
  5 31  1  0
  7 32  1  0
  8 33  1  0
 12 34  1  0
 12 35  1  0
 15 36  1  0
 15 37  1  0
 17 38  1  0
 18 39  1  0
 23 40  1  0
 24 41  1  0
M  CHG  3  20  -1  22  -1  26  -1
M  END
>  <meeko>  (4) 
{"is_sidechain": [false], "free_energy": -5.674, "intermolecular_energy": -9.875, "internal_energy": -0.94}

$$$$
LIB_BZBZUGSXRITWQR__M_PUB_ALL__e8__s20260927
     RDKit          3D

 41 42  0  0  0  0  0  0  0  0999 V2000
   15.5750   -4.8410   11.9880 C   0  0  0  0  0  0  0  0  0  0  0  0
   16.1150   -5.9020   11.2140 O   0  0  0  0  0  0  0  0  0  0  0  0
   15.7700   -7.1880   11.5880 C   0  0  0  0  0  0  0  0  0  0  0  0
   14.4570   -7.4870   11.1720 C   0  0  0  0  0  0  0  0  0  0  0  0
   13.8760   -8.7280   11.4250 C   0  0  0  0  0  0  0  0  0  0  0  0
   14.6050   -9.7010   12.0980 C   0  0  0  0  0  0  0  0  0  0  0  0
   14.0430  -11.0230   12.4290 C   0  0  0  0  0  0  0  0  0  0  0  0
   13.5570  -11.8930   11.5280 C   0  0  0  0  0  0  0  0  0  0  0  0
   12.9900  -13.1930   11.9510 C   0  0  0  0  0  0  0  0  0  0  0  0
   13.6210  -14.2290   12.0900 O   0  0  0  0  0  0  0  0  0  0  0  0
   11.6600  -13.0180   12.1520 O   0  0  0  0  0  0  0  0  0  0  0  0
   11.0980  -13.8240   13.1970 C   0  0  0  0  0  0  0  0  0  0  0  0
   11.3880  -13.2570   14.5870 C   0  0  0  0  0  0  0  0  0  0  0  0
   12.2640  -13.7310   15.3220 O   0  0  0  0  0  0  0  0  0  0  0  0
   10.5210  -12.1070   15.0510 C   0  0  0  0  0  0  0  0  0  0  0  0
   11.2110  -10.7810   14.9600 C   0  0  0  0  0  0  0  0  0  0  0  0
   12.3960  -10.5410   15.6330 C   0  0  0  0  0  0  0  0  0  0  0  0
   13.0170   -9.2980   15.5020 C   0  0  0  0  0  0  0  0  0  0  0  0
   12.5240   -8.2240   14.7100 C   0  0  0  0  0  0  0  0  0  0  0  0
   13.2130   -7.1330   14.6910 O   0  0  0  0  0  0  0  0  0  0  0  0
   11.2750   -8.4690   13.9930 C   0  0  0  0  0  0  0  0  0  0  0  0
   10.6630   -7.6350   13.2220 O   0  0  0  0  0  0  0  0  0  0  0  0
   10.6850   -9.7530   14.1670 C   0  0  0  0  0  0  0  0  0  0  0  0
   15.9060   -9.3730   12.5330 C   0  0  0  0  0  0  0  0  0  0  0  0
   16.5550   -8.1250   12.3150 C   0  0  0  0  0  0  0  0  0  0  0  0
   17.7350   -7.9410   12.7790 O   0  0  0  0  0  0  0  0  0  0  0  0
   15.6920   -5.0708   13.0573 H   0  0  0  0  0  0  0  0  0  0  0  0
   16.1078   -3.9077   11.7531 H   0  0  0  0  0  0  0  0  0  0  0  0
   14.5069   -4.7225   11.7531 H   0  0  0  0  0  0  0  0  0  0  0  0
   13.8769   -6.7223   10.6347 H   0  0  0  0  0  0  0  0  0  0  0  0
   12.8477   -8.9360   11.0944 H   0  0  0  0  0  0  0  0  0  0  0  0
   14.0199  -11.3179   13.4885 H   0  0  0  0  0  0  0  0  0  0  0  0
   13.5809  -11.6350   10.4589 H   0  0  0  0  0  0  0  0  0  0  0  0
   10.0082  -13.8759   13.0564 H   0  0  0  0  0  0  0  0  0  0  0  0
   11.5587  -14.8211   13.1375 H   0  0  0  0  0  0  0  0  0  0  0  0
    9.6165  -12.0753   14.4258 H   0  0  0  0  0  0  0  0  0  0  0  0
   10.2816  -12.2816   16.1103 H   0  0  0  0  0  0  0  0  0  0  0  0
   12.8440  -11.3220   16.2649 H   0  0  0  0  0  0  0  0  0  0  0  0
   13.9563   -9.1370   16.0513 H   0  0  0  0  0  0  0  0  0  0  0  0
    9.7421   -9.9535   13.6371 H   0  0  0  0  0  0  0  0  0  0  0  0
   16.4640  -10.1436   13.0851 H   0  0  0  0  0  0  0  0  0  0  0  0
  1  2  1  0
  2  3  1  0
  3  4  2  0
  4  5  1  0
  5  6  2  0
  6  7  1  0
  7  8  2  0
  8  9  1  0
  9 10  2  0
  9 11  1  0
 11 12  1  0
 12 13  1  0
 13 14  2  0
 13 15  1  0
 15 16  1  0
 16 17  2  0
 17 18  1  0
 18 19  2  0
 19 20  1  0
 19 21  1  0
 21 22  1  0
 21 23  2  0
  6 24  1  0
 24 25  2  0
 25 26  1  0
 25  3  1  0
 23 16  1  0
  1 27  1  0
  1 28  1  0
  1 29  1  0
  4 30  1  0
  5 31  1  0
  7 32  1  0
  8 33  1  0
 12 34  1  0
 12 35  1  0
 15 36  1  0
 15 37  1  0
 17 38  1  0
 18 39  1  0
 23 40  1  0
 24 41  1  0
M  CHG  3  20  -1  22  -1  26  -1
M  END
>  <meeko>  (5) 
{"is_sidechain": [false], "free_energy": -5.627, "intermolecular_energy": -8.695, "internal_energy": -2.051}

$$$$
LIB_BZBZUGSXRITWQR__M_PUB_ALL__e8__s20260927
     RDKit          3D

 41 42  0  0  0  0  0  0  0  0999 V2000
    3.9060   -6.5160   14.9700 C   0  0  0  0  0  0  0  0  0  0  0  0
    4.4740   -7.2510   13.8970 O   0  0  0  0  0  0  0  0  0  0  0  0
    5.8320   -7.5040   13.9620 C   0  0  0  0  0  0  0  0  0  0  0  0
    6.5470   -6.5560   13.2020 C   0  0  0  0  0  0  0  0  0  0  0  0
    7.9360   -6.5900   13.1110 C   0  0  0  0  0  0  0  0  0  0  0  0
    8.6420   -7.5770   13.7880 C   0  0  0  0  0  0  0  0  0  0  0  0
   10.1100   -7.6950   13.7100 C   0  0  0  0  0  0  0  0  0  0  0  0
   10.8860   -8.2120   14.6770 C   0  0  0  0  0  0  0  0  0  0  0  0
   12.3560   -8.2710   14.5250 C   0  0  0  0  0  0  0  0  0  0  0  0
   13.1360   -8.7340   15.3430 O   0  0  0  0  0  0  0  0  0  0  0  0
   12.6700   -7.7250   13.3240 O   0  0  0  0  0  0  0  0  0  0  0  0
   14.0290   -7.9210   12.9090 C   0  0  0  0  0  0  0  0  0  0  0  0
   14.1570   -8.9990   11.8310 C   0  0  0  0  0  0  0  0  0  0  0  0
   13.7420   -8.8300   10.6780 O   0  0  0  0  0  0  0  0  0  0  0  0
   14.7820  -10.3120   12.2500 C   0  0  0  0  0  0  0  0  0  0  0  0
   13.8110  -11.4510   12.2380 C   0  0  0  0  0  0  0  0  0  0  0  0
   14.0600  -12.6010   11.5110 C   0  0  0  0  0  0  0  0  0  0  0  0
   13.1370  -13.6480   11.5470 C   0  0  0  0  0  0  0  0  0  0  0  0
   11.9260  -13.6350   12.2920 C   0  0  0  0  0  0  0  0  0  0  0  0
   11.1730  -14.6820   12.2230 O   0  0  0  0  0  0  0  0  0  0  0  0
   11.6540  -12.4260   13.0660 C   0  0  0  0  0  0  0  0  0  0  0  0
   10.6210  -12.2120   13.8080 O   0  0  0  0  0  0  0  0  0  0  0  0
   12.6290  -11.3910   12.9880 C   0  0  0  0  0  0  0  0  0  0  0  0
    7.9090   -8.5360   14.5180 C   0  0  0  0  0  0  0  0  0  0  0  0
    6.4920   -8.5620   14.6460 C   0  0  0  0  0  0  0  0  0  0  0  0
    5.9390   -9.5000   15.3220 O   0  0  0  0  0  0  0  0  0  0  0  0
    4.2387   -6.9465   15.9260 H   0  0  0  0  0  0  0  0  0  0  0  0
    4.2302   -5.4667   14.9078 H   0  0  0  0  0  0  0  0  0  0  0  0
    2.8089   -6.5651   14.9078 H   0  0  0  0  0  0  0  0  0  0  0  0
    5.9937   -5.7698   12.6675 H   0  0  0  0  0  0  0  0  0  0  0  0
    8.4704   -5.8413   12.5078 H   0  0  0  0  0  0  0  0  0  0  0  0
   10.6042   -7.3344   12.7958 H   0  0  0  0  0  0  0  0  0  0  0  0
   10.4209   -8.5975   15.5963 H   0  0  0  0  0  0  0  0  0  0  0  0
   14.4170   -6.9727   12.5088 H   0  0  0  0  0  0  0  0  0  0  0  0
   14.6043   -8.2521   13.7861 H   0  0  0  0  0  0  0  0  0  0  0  0
   15.6048  -10.5453   11.5582 H   0  0  0  0  0  0  0  0  0  0  0  0
   15.1371  -10.1927   13.2843 H   0  0  0  0  0  0  0  0  0  0  0  0
   14.9769  -12.6899   10.9099 H   0  0  0  0  0  0  0  0  0  0  0  0
   13.3630  -14.5480   10.9563 H   0  0  0  0  0  0  0  0  0  0  0  0
   12.4392  -10.4719   13.5618 H   0  0  0  0  0  0  0  0  0  0  0  0
    8.4780   -9.3266   15.0290 H   0  0  0  0  0  0  0  0  0  0  0  0
  1  2  1  0
  2  3  1  0
  3  4  2  0
  4  5  1  0
  5  6  2  0
  6  7  1  0
  7  8  2  0
  8  9  1  0
  9 10  2  0
  9 11  1  0
 11 12  1  0
 12 13  1  0
 13 14  2  0
 13 15  1  0
 15 16  1  0
 16 17  2  0
 17 18  1  0
 18 19  2  0
 19 20  1  0
 19 21  1  0
 21 22  1  0
 21 23  2  0
  6 24  1  0
 24 25  2  0
 25 26  1  0
 25  3  1  0
 23 16  1  0
  1 27  1  0
  1 28  1  0
  1 29  1  0
  4 30  1  0
  5 31  1  0
  7 32  1  0
  8 33  1  0
 12 34  1  0
 12 35  1  0
 15 36  1  0
 15 37  1  0
 17 38  1  0
 18 39  1  0
 23 40  1  0
 24 41  1  0
M  CHG  3  20  -1  22  -1  26  -1
M  END
>  <meeko>  (6) 
{"is_sidechain": [false], "free_energy": -5.461, "intermolecular_energy": -9.425, "internal_energy": -1.077}

$$$$
LIB_BZBZUGSXRITWQR__M_PUB_ALL__e8__s20260927
     RDKit          3D

 41 42  0  0  0  0  0  0  0  0999 V2000
   -1.8410   -9.3460    2.7470 C   0  0  0  0  0  0  0  0  0  0  0  0
   -1.4440  -10.3590    1.8350 O   0  0  0  0  0  0  0  0  0  0  0  0
   -1.7870  -11.6590    2.1560 C   0  0  0  0  0  0  0  0  0  0  0  0
   -0.8790  -12.1930    3.0930 C   0  0  0  0  0  0  0  0  0  0  0  0
   -1.0120  -13.4900    3.5820 C   0  0  0  0  0  0  0  0  0  0  0  0
   -2.0660  -14.2820    3.1440 C   0  0  0  0  0  0  0  0  0  0  0  0
   -2.2490  -15.6750    3.5930 C   0  0  0  0  0  0  0  0  0  0  0  0
   -1.4940  -16.2810    4.5230 C   0  0  0  0  0  0  0  0  0  0  0  0
   -1.7340  -17.6930    4.8990 C   0  0  0  0  0  0  0  0  0  0  0  0
   -2.6340  -18.0910    5.6220 O   0  0  0  0  0  0  0  0  0  0  0  0
   -0.7820  -18.4480    4.2970 O   0  0  0  0  0  0  0  0  0  0  0  0
    0.5680  -18.0610    4.5900 C   0  0  0  0  0  0  0  0  0  0  0  0
    1.4620  -18.0890    3.3500 C   0  0  0  0  0  0  0  0  0  0  0  0
    1.8960  -19.1460    2.8740 O   0  0  0  0  0  0  0  0  0  0  0  0
    1.8360  -16.7520    2.7460 C   0  0  0  0  0  0  0  0  0  0  0  0
    0.9030  -16.3220    1.6570 C   0  0  0  0  0  0  0  0  0  0  0  0
   -0.0630  -17.1780    1.1590 C   0  0  0  0  0  0  0  0  0  0  0  0
   -0.9260  -16.7270    0.1590 C   0  0  0  0  0  0  0  0  0  0  0  0
   -0.8990  -15.4230   -0.4080 C   0  0  0  0  0  0  0  0  0  0  0  0
   -1.7650  -15.1560   -1.3280 O   0  0  0  0  0  0  0  0  0  0  0  0
    0.1150  -14.5110    0.1130 C   0  0  0  0  0  0  0  0  0  0  0  0
    0.3070  -13.2900   -0.2590 O   0  0  0  0  0  0  0  0  0  0  0  0
    0.9700  -15.0260    1.1290 C   0  0  0  0  0  0  0  0  0  0  0  0
   -2.9470  -13.7430    2.1830 C   0  0  0  0  0  0  0  0  0  0  0  0
   -2.8640  -12.4310    1.6380 C   0  0  0  0  0  0  0  0  0  0  0  0
   -3.7150  -12.0640    0.7530 O   0  0  0  0  0  0  0  0  0  0  0  0
   -1.7004   -9.7047    3.7773 H   0  0  0  0  0  0  0  0  0  0  0  0
   -1.2289   -8.4465    2.5851 H   0  0  0  0  0  0  0  0  0  0  0  0
   -2.9013   -9.1019    2.5851 H   0  0  0  0  0  0  0  0  0  0  0  0
   -0.0446  -11.5695    3.4466 H   0  0  0  0  0  0  0  0  0  0  0  0
   -0.2877  -13.8846    4.3098 H   0  0  0  0  0  0  0  0  0  0  0  0
   -3.0609  -16.2581    3.1337 H   0  0  0  0  0  0  0  0  0  0  0  0
   -0.6847  -15.7201    5.0132 H   0  0  0  0  0  0  0  0  0  0  0  0
    0.5624  -17.0399    4.9990 H   0  0  0  0  0  0  0  0  0  0  0  0
    0.9749  -18.7818    5.3145 H   0  0  0  0  0  0  0  0  0  0  0  0
    1.8216  -15.9917    3.5408 H   0  0  0  0  0  0  0  0  0  0  0  0
    2.8357  -16.8599    2.3000 H   0  0  0  0  0  0  0  0  0  0  0  0
   -0.1501  -18.2036    1.5472 H   0  0  0  0  0  0  0  0  0  0  0  0
   -1.6821  -17.4314   -0.2180 H   0  0  0  0  0  0  0  0  0  0  0  0
    1.7430  -14.3541    1.5303 H   0  0  0  0  0  0  0  0  0  0  0  0
   -3.7633  -14.3884    1.8265 H   0  0  0  0  0  0  0  0  0  0  0  0
  1  2  1  0
  2  3  1  0
  3  4  2  0
  4  5  1  0
  5  6  2  0
  6  7  1  0
  7  8  2  0
  8  9  1  0
  9 10  2  0
  9 11  1  0
 11 12  1  0
 12 13  1  0
 13 14  2  0
 13 15  1  0
 15 16  1  0
 16 17  2  0
 17 18  1  0
 18 19  2  0
 19 20  1  0
 19 21  1  0
 21 22  1  0
 21 23  2  0
  6 24  1  0
 24 25  2  0
 25 26  1  0
 25  3  1  0
 23 16  1  0
  1 27  1  0
  1 28  1  0
  1 29  1  0
  4 30  1  0
  5 31  1  0
  7 32  1  0
  8 33  1  0
 12 34  1  0
 12 35  1  0
 15 36  1  0
 15 37  1  0
 17 38  1  0
 18 39  1  0
 23 40  1  0
 24 41  1  0
M  CHG  3  20  -1  22  -1  26  -1
M  END
>  <meeko>  (7) 
{"is_sidechain": [false], "free_energy": -5.448, "intermolecular_energy": -7.971, "internal_energy": -2.513}

$$$$
LIB_BZBZUGSXRITWQR__M_PUB_ALL__e8__s20260927
     RDKit          3D

 41 42  0  0  0  0  0  0  0  0999 V2000
    3.7780  -14.1180   -4.5190 C   0  0  0  0  0  0  0  0  0  0  0  0
    3.3600  -12.7660   -4.6280 O   0  0  0  0  0  0  0  0  0  0  0  0
    2.7470  -12.2090   -3.5200 C   0  0  0  0  0  0  0  0  0  0  0  0
    2.2930  -13.2190   -2.6480 C   0  0  0  0  0  0  0  0  0  0  0  0
    1.6440  -12.9150   -1.4540 C   0  0  0  0  0  0  0  0  0  0  0  0
    1.4420  -11.5860   -1.1040 C   0  0  0  0  0  0  0  0  0  0  0  0
    0.7330  -11.1900    0.1280 C   0  0  0  0  0  0  0  0  0  0  0  0
   -0.2530  -10.2800    0.1810 C   0  0  0  0  0  0  0  0  0  0  0  0
   -0.8960   -9.9270    1.4670 C   0  0  0  0  0  0  0  0  0  0  0  0
   -0.8520   -8.8310    2.0030 O   0  0  0  0  0  0  0  0  0  0  0  0
   -1.5320  -11.0320    1.9280 O   0  0  0  0  0  0  0  0  0  0  0  0
   -2.8560  -11.2260    1.4090 C   0  0  0  0  0  0  0  0  0  0  0  0
   -3.3600  -12.6540    1.6210 C   0  0  0  0  0  0  0  0  0  0  0  0
   -4.4350  -13.0490    1.1530 O   0  0  0  0  0  0  0  0  0  0  0  0
   -2.5000  -13.5620    2.4730 C   0  0  0  0  0  0  0  0  0  0  0  0
   -1.8140  -14.6310    1.6800 C   0  0  0  0  0  0  0  0  0  0  0  0
   -1.3430  -14.3870    0.4020 C   0  0  0  0  0  0  0  0  0  0  0  0
   -0.6890  -15.4060   -0.2920 C   0  0  0  0  0  0  0  0  0  0  0  0
   -0.4570  -16.7140    0.2160 C   0  0  0  0  0  0  0  0  0  0  0  0
    0.1620  -17.5480   -0.5500 O   0  0  0  0  0  0  0  0  0  0  0  0
   -0.9480  -16.9810    1.5660 C   0  0  0  0  0  0  0  0  0  0  0  0
   -0.8380  -18.0930    2.2110 O   0  0  0  0  0  0  0  0  0  0  0  0
   -1.6090  -15.9060    2.2250 C   0  0  0  0  0  0  0  0  0  0  0  0
    1.8750  -10.5890   -2.0030 C   0  0  0  0  0  0  0  0  0  0  0  0
    2.5360  -10.8310   -3.2400 C   0  0  0  0  0  0  0  0  0  0  0  0
    2.8640   -9.8390   -3.9820 O   0  0  0  0  0  0  0  0  0  0  0  0
    3.8625  -14.3912   -3.4568 H   0  0  0  0  0  0  0  0  0  0  0  0
    3.0397  -14.7706   -5.0079 H   0  0  0  0  0  0  0  0  0  0  0  0
    4.7558  -14.2400   -5.0079 H   0  0  0  0  0  0  0  0  0  0  0  0
    2.4553  -14.2731   -2.9172 H   0  0  0  0  0  0  0  0  0  0  0  0
    1.2939  -13.7214   -0.7928 H   0  0  0  0  0  0  0  0  0  0  0  0
    1.0332  -11.6742    1.0690 H   0  0  0  0  0  0  0  0  0  0  0  0
   -0.5880   -9.7895   -0.7449 H   0  0  0  0  0  0  0  0  0  0  0  0
   -3.5403  -10.5305    1.9169 H   0  0  0  0  0  0  0  0  0  0  0  0
   -2.8231  -11.0386    0.3256 H   0  0  0  0  0  0  0  0  0  0  0  0
   -1.7345  -12.9512    2.9739 H   0  0  0  0  0  0  0  0  0  0  0  0
   -3.1632  -14.0617    3.1945 H   0  0  0  0  0  0  0  0  0  0  0  0
   -1.4827  -13.3996   -0.0624 H   0  0  0  0  0  0  0  0  0  0  0  0
   -0.3265  -15.1811   -1.3059 H   0  0  0  0  0  0  0  0  0  0  0  0
   -1.9884  -16.0903    3.2409 H   0  0  0  0  0  0  0  0  0  0  0  0
    1.6868   -9.5412   -1.7260 H   0  0  0  0  0  0  0  0  0  0  0  0
  1  2  1  0
  2  3  1  0
  3  4  2  0
  4  5  1  0
  5  6  2  0
  6  7  1  0
  7  8  2  0
  8  9  1  0
  9 10  2  0
  9 11  1  0
 11 12  1  0
 12 13  1  0
 13 14  2  0
 13 15  1  0
 15 16  1  0
 16 17  2  0
 17 18  1  0
 18 19  2  0
 19 20  1  0
 19 21  1  0
 21 22  1  0
 21 23  2  0
  6 24  1  0
 24 25  2  0
 25 26  1  0
 25  3  1  0
 23 16  1  0
  1 27  1  0
  1 28  1  0
  1 29  1  0
  4 30  1  0
  5 31  1  0
  7 32  1  0
  8 33  1  0
 12 34  1  0
 12 35  1  0
 15 36  1  0
 15 37  1  0
 17 38  1  0
 18 39  1  0
 23 40  1  0
 24 41  1  0
M  CHG  3  20  -1  22  -1  26  -1
M  END
>  <meeko>  (8) 
{"is_sidechain": [false], "free_energy": -5.404, "intermolecular_energy": -9.004, "internal_energy": -1.415}

$$$$
LIB_BZBZUGSXRITWQR__M_PUB_ALL__e8__s20260927
     RDKit          3D

 41 42  0  0  0  0  0  0  0  0999 V2000
   -4.3210  -11.6810   -0.5870 C   0  0  0  0  0  0  0  0  0  0  0  0
   -3.3960  -11.0750    0.3030 O   0  0  0  0  0  0  0  0  0  0  0  0
   -2.6260  -11.9230    1.0780 C   0  0  0  0  0  0  0  0  0  0  0  0
   -1.3280  -12.0400    0.5400 C   0  0  0  0  0  0  0  0  0  0  0  0
   -0.3570  -12.8360    1.1440 C   0  0  0  0  0  0  0  0  0  0  0  0
   -0.6660  -13.5290    2.3080 C   0  0  0  0  0  0  0  0  0  0  0  0
    0.3010  -14.4150    2.9820 C   0  0  0  0  0  0  0  0  0  0  0  0
    0.0890  -15.0160    4.1640 C   0  0  0  0  0  0  0  0  0  0  0  0
    1.1250  -15.8740    4.7810 C   0  0  0  0  0  0  0  0  0  0  0  0
    1.1030  -16.3020    5.9240 O   0  0  0  0  0  0  0  0  0  0  0  0
    2.0880  -16.0920    3.8500 O   0  0  0  0  0  0  0  0  0  0  0  0
    2.0870  -17.4080    3.2800 C   0  0  0  0  0  0  0  0  0  0  0  0
    2.2400  -17.3810    1.7590 C   0  0  0  0  0  0  0  0  0  0  0  0
    3.1050  -16.6990    1.1950 O   0  0  0  0  0  0  0  0  0  0  0  0
    1.2490  -18.2000    0.9580 C   0  0  0  0  0  0  0  0  0  0  0  0
   -0.0220  -17.4610    0.6720 C   0  0  0  0  0  0  0  0  0  0  0  0
   -1.0890  -17.5010    1.5510 C   0  0  0  0  0  0  0  0  0  0  0  0
   -2.2460  -16.7790    1.2550 C   0  0  0  0  0  0  0  0  0  0  0  0
   -2.4280  -15.9790    0.0920 C   0  0  0  0  0  0  0  0  0  0  0  0
   -3.5590  -15.3710   -0.0410 O   0  0  0  0  0  0  0  0  0  0  0  0
   -1.3050  -15.9280   -0.8410 C   0  0  0  0  0  0  0  0  0  0  0  0
   -1.2620  -15.2640   -1.9460 O   0  0  0  0  0  0  0  0  0  0  0  0
   -0.1530  -16.6870   -0.4890 C   0  0  0  0  0  0  0  0  0  0  0  0
   -1.9790  -13.4240    2.8150 C   0  0  0  0  0  0  0  0  0  0  0  0
   -3.0180  -12.6370    2.2440 C   0  0  0  0  0  0  0  0  0  0  0  0
   -4.1790  -12.6400    2.7870 O   0  0  0  0  0  0  0  0  0  0  0  0
   -5.1038  -12.1939   -0.0090 H   0  0  0  0  0  0  0  0  0  0  0  0
   -4.7802  -10.9081   -1.2209 H   0  0  0  0  0  0  0  0  0  0  0  0
   -3.7958  -12.4106   -1.2209 H   0  0  0  0  0  0  0  0  0  0  0  0
   -1.0759  -11.4897   -0.3785 H   0  0  0  0  0  0  0  0  0  0  0  0
    0.6473  -12.9153    0.7024 H   0  0  0  0  0  0  0  0  0  0  0  0
    1.2636  -14.5964    2.4814 H   0  0  0  0  0  0  0  0  0  0  0  0
   -0.8701  -14.8682    4.6819 H   0  0  0  0  0  0  0  0  0  0  0  0
    2.9224  -17.9803    3.7096 H   0  0  0  0  0  0  0  0  0  0  0  0
    1.1187  -17.8751    3.5128 H   0  0  0  0  0  0  0  0  0  0  0  0
    1.7158  -18.4785    0.0017 H   0  0  0  0  0  0  0  0  0  0  0  0
    0.9888  -19.0835    1.5594 H   0  0  0  0  0  0  0  0  0  0  0  0
   -1.0263  -18.0959    2.4741 H   0  0  0  0  0  0  0  0  0  0  0  0
   -3.0779  -16.8321    1.9728 H   0  0  0  0  0  0  0  0  0  0  0  0
    0.7007  -16.6641   -1.1823 H   0  0  0  0  0  0  0  0  0  0  0  0
   -2.2181  -13.9959    3.7237 H   0  0  0  0  0  0  0  0  0  0  0  0
  1  2  1  0
  2  3  1  0
  3  4  2  0
  4  5  1  0
  5  6  2  0
  6  7  1  0
  7  8  2  0
  8  9  1  0
  9 10  2  0
  9 11  1  0
 11 12  1  0
 12 13  1  0
 13 14  2  0
 13 15  1  0
 15 16  1  0
 16 17  2  0
 17 18  1  0
 18 19  2  0
 19 20  1  0
 19 21  1  0
 21 22  1  0
 21 23  2  0
  6 24  1  0
 24 25  2  0
 25 26  1  0
 25  3  1  0
 23 16  1  0
  1 27  1  0
  1 28  1  0
  1 29  1  0
  4 30  1  0
  5 31  1  0
  7 32  1  0
  8 33  1  0
 12 34  1  0
 12 35  1  0
 15 36  1  0
 15 37  1  0
 17 38  1  0
 18 39  1  0
 23 40  1  0
 24 41  1  0
M  CHG  3  20  -1  22  -1  26  -1
M  END
>  <meeko>  (9) 
{"is_sidechain": [false], "free_energy": -5.398, "intermolecular_energy": -8.054, "internal_energy": -2.357}

$$$$
