LIB_FKQCJYCSHIYYNP__M_PUB_ALL__e8__s20260927
     RDKit          3D

 30 31  0  0  0  0  0  0  0  0999 V2000
   13.7640  -11.5290   -1.7430 N   0  0  0  0  0  0  0  0  0  0  0  0
   12.6250  -11.9550   -1.0960 C   0  0  0  0  0  0  0  0  0  0  0  0
   12.6880  -12.1730    0.2380 N   0  0  0  0  0  0  0  0  0  0  0  0
   11.5650  -12.5880    0.8670 C   0  0  0  0  0  0  0  0  0  0  0  0
   10.3470  -12.8310    0.3450 N   0  0  0  0  0  0  0  0  0  0  0  0
   10.3410  -12.5950   -0.9780 C   0  0  0  0  0  0  0  0  0  0  0  0
   11.4040  -12.1700   -1.7590 C   0  0  0  0  0  0  0  0  0  0  0  0
   11.0290  -12.0440   -3.0820 N   0  0  0  0  0  0  0  0  0  0  0  0
    9.7530  -12.3760   -3.0980 C   0  0  0  0  0  0  0  0  0  0  0  0
    9.2980  -12.7200   -1.8520 N   0  0  0  0  0  0  0  0  0  0  0  0
    7.9680  -13.1910   -1.5340 C   0  0  0  0  0  0  0  0  0  0  0  0
    6.8570  -12.2130   -1.9110 C   0  0  0  0  0  0  0  0  0  0  0  0
    7.0570  -10.8100   -1.3460 C   0  0  0  0  0  0  0  0  0  0  0  0
    6.4620  -10.7530   -0.0510 O   0  0  0  0  0  0  0  0  0  0  0  0
    7.4090  -10.3390    0.9640 C   0  0  0  0  0  0  0  0  0  0  0  0
    7.1660   -8.8960    1.4670 C   0  0  0  0  0  0  0  0  0  0  0  0
    6.2850   -8.7890    2.3710 O   0  0  0  0  0  0  0  0  0  0  0  0
    7.8830   -7.9990    0.9360 O   0  0  0  0  0  0  0  0  0  0  0  0
   14.5100  -12.1940   -1.8910 H   0  0  0  0  0  0  0  0  0  0  0  0
   13.7850  -10.5920   -2.1070 H   0  0  0  0  0  0  0  0  0  0  0  0
   11.6587  -12.7489    1.9511 H   0  0  0  0  0  0  0  0  0  0  0  0
    9.1283  -12.3767   -4.0034 H   0  0  0  0  0  0  0  0  0  0  0  0
    7.7966  -14.1341   -2.0736 H   0  0  0  0  0  0  0  0  0  0  0  0
    7.9265  -13.3149   -0.4418 H   0  0  0  0  0  0  0  0  0  0  0  0
    6.8137  -12.1427   -3.0079 H   0  0  0  0  0  0  0  0  0  0  0  0
    5.9243  -12.6038   -1.4783 H   0  0  0  0  0  0  0  0  0  0  0  0
    8.1322  -10.5907   -1.2700 H   0  0  0  0  0  0  0  0  0  0  0  0
    6.5884  -10.0673   -2.0084 H   0  0  0  0  0  0  0  0  0  0  0  0
    7.3287  -11.0262    1.8192 H   0  0  0  0  0  0  0  0  0  0  0  0
    8.4101  -10.3639    0.5089 H   0  0  0  0  0  0  0  0  0  0  0  0
  1  2  1  0
  2  3  2  0
  3  4  1  0
  4  5  2  0
  5  6  1  0
  6  7  2  0
  7  8  1  0
  8  9  2  0
  9 10  1  0
 10 11  1  0
 11 12  1  0
 12 13  1  0
 13 14  1  0
 14 15  1  0
 15 16  1  0
 16 17  2  0
 16 18  1  0
  7  2  1  0
 10  6  1  0
  1 19  1  0
  1 20  1  0
  4 21  1  0
  9 22  1  0
 11 23  1  0
 11 24  1  0
 12 25  1  0
 12 26  1  0
 13 27  1  0
 13 28  1  0
 15 29  1  0
 15 30  1  0
M  CHG  1  18  -1
M  END
>  <meeko>  (1) 
{"is_sidechain": [false], "free_energy": -5.537, "intermolecular_energy": -7.641, "internal_energy": -0.483}

$$$$
LIB_FKQCJYCSHIYYNP__M_PUB_ALL__e8__s20260927
     RDKit          3D

 30 31  0  0  0  0  0  0  0  0999 V2000
   14.4160  -11.5060   -2.5390 N   0  0  0  0  0  0  0  0  0  0  0  0
   13.1310  -11.9940   -2.6340 C   0  0  0  0  0  0  0  0  0  0  0  0
   12.6880  -12.4060   -3.8440 N   0  0  0  0  0  0  0  0  0  0  0  0
   11.4270  -12.8870   -3.9280 C   0  0  0  0  0  0  0  0  0  0  0  0
   10.5080  -13.0190   -2.9520 N   0  0  0  0  0  0  0  0  0  0  0  0
   11.0020  -12.6010   -1.7740 C   0  0  0  0  0  0  0  0  0  0  0  0
   12.2650  -12.0860   -1.5300 C   0  0  0  0  0  0  0  0  0  0  0  0
   12.4150  -11.7510   -0.1990 N   0  0  0  0  0  0  0  0  0  0  0  0
   11.2630  -12.0720    0.3570 C   0  0  0  0  0  0  0  0  0  0  0  0
   10.3790  -12.5840   -0.5570 N   0  0  0  0  0  0  0  0  0  0  0  0
    9.0130  -12.9760   -0.2910 C   0  0  0  0  0  0  0  0  0  0  0  0
    8.0160  -11.8200   -0.3380 C   0  0  0  0  0  0  0  0  0  0  0  0
    7.4630  -11.4320    1.0300 C   0  0  0  0  0  0  0  0  0  0  0  0
    6.8060  -10.1710    0.9120 O   0  0  0  0  0  0  0  0  0  0  0  0
    7.7410   -9.0660    0.9640 C   0  0  0  0  0  0  0  0  0  0  0  0
    7.2860   -7.9290    1.9100 C   0  0  0  0  0  0  0  0  0  0  0  0
    7.8270   -6.8050    1.6890 O   0  0  0  0  0  0  0  0  0  0  0  0
    6.4200   -8.2460    2.7750 O   0  0  0  0  0  0  0  0  0  0  0  0
   14.5490  -10.5040   -2.5270 H   0  0  0  0  0  0  0  0  0  0  0  0
   15.1690  -12.1600   -2.4150 H   0  0  0  0  0  0  0  0  0  0  0  0
   11.1086  -13.2148   -4.9286 H   0  0  0  0  0  0  0  0  0  0  0  0
   11.0384  -11.9442    1.4262 H   0  0  0  0  0  0  0  0  0  0  0  0
    8.7142  -13.7215   -1.0426 H   0  0  0  0  0  0  0  0  0  0  0  0
    8.9897  -13.3756    0.7336 H   0  0  0  0  0  0  0  0  0  0  0  0
    8.5207  -10.9433   -0.7701 H   0  0  0  0  0  0  0  0  0  0  0  0
    7.1632  -12.1551   -0.9466 H   0  0  0  0  0  0  0  0  0  0  0  0
    6.7458  -12.1936    1.3699 H   0  0  0  0  0  0  0  0  0  0  0  0
    8.2816  -11.3634    1.7616 H   0  0  0  0  0  0  0  0  0  0  0  0
    8.7121   -9.4455    1.3147 H   0  0  0  0  0  0  0  0  0  0  0  0
    7.8053   -8.6431   -0.0494 H   0  0  0  0  0  0  0  0  0  0  0  0
  1  2  1  0
  2  3  2  0
  3  4  1  0
  4  5  2  0
  5  6  1  0
  6  7  2  0
  7  8  1  0
  8  9  2  0
  9 10  1  0
 10 11  1  0
 11 12  1  0
 12 13  1  0
 13 14  1  0
 14 15  1  0
 15 16  1  0
 16 17  2  0
 16 18  1  0
  7  2  1  0
 10  6  1  0
  1 19  1  0
  1 20  1  0
  4 21  1  0
  9 22  1  0
 11 23  1  0
 11 24  1  0
 12 25  1  0
 12 26  1  0
 13 27  1  0
 13 28  1  0
 15 29  1  0
 15 30  1  0
M  CHG  1  18  -1
M  END
>  <meeko>  (2) 
{"is_sidechain": [false], "free_energy": -5.477, "intermolecular_energy": -7.69, "internal_energy": -0.35}

$$$$
LIB_FKQCJYCSHIYYNP__M_PUB_ALL__e8__s20260927
     RDKit          3D

 30 31  0  0  0  0  0  0  0  0999 V2000
   13.9250  -10.5670   -0.0030 N   0  0  0  0  0  0  0  0  0  0  0  0
   12.9790  -11.3470   -0.6310 C   0  0  0  0  0  0  0  0  0  0  0  0
   11.8500  -11.6590    0.0460 N   0  0  0  0  0  0  0  0  0  0  0  0
   10.9250  -12.4220   -0.5800 C   0  0  0  0  0  0  0  0  0  0  0  0
   10.9620  -12.9430   -1.8210 N   0  0  0  0  0  0  0  0  0  0  0  0
   12.1000  -12.5990   -2.4480 C   0  0  0  0  0  0  0  0  0  0  0  0
   13.1350  -11.8280   -1.9430 C   0  0  0  0  0  0  0  0  0  0  0  0
   14.1490  -11.6910   -2.8700 N   0  0  0  0  0  0  0  0  0  0  0  0
   13.7270  -12.3590   -3.9260 C   0  0  0  0  0  0  0  0  0  0  0  0
   12.4980  -12.9260   -3.7140 N   0  0  0  0  0  0  0  0  0  0  0  0
   11.7810  -13.7710   -4.6430 C   0  0  0  0  0  0  0  0  0  0  0  0
   12.1850  -15.2430   -4.5820 C   0  0  0  0  0  0  0  0  0  0  0  0
   12.4680  -15.8580   -5.9500 C   0  0  0  0  0  0  0  0  0  0  0  0
   13.8530  -16.1910   -6.0190 O   0  0  0  0  0  0  0  0  0  0  0  0
   14.6200  -15.1770   -6.7130 C   0  0  0  0  0  0  0  0  0  0  0  0
   15.3130  -15.7090   -7.9910 C   0  0  0  0  0  0  0  0  0  0  0  0
   16.1700  -14.9240   -8.4970 O   0  0  0  0  0  0  0  0  0  0  0  0
   14.9600  -16.8630   -8.3690 O   0  0  0  0  0  0  0  0  0  0  0  0
   14.2800  -10.8710    0.8930 H   0  0  0  0  0  0  0  0  0  0  0  0
   14.2790   -9.7600   -0.4870 H   0  0  0  0  0  0  0  0  0  0  0  0
   10.0203  -12.6473    0.0037 H   0  0  0  0  0  0  0  0  0  0  0  0
   14.2938  -12.4500   -4.8643 H   0  0  0  0  0  0  0  0  0  0  0  0
   10.7065  -13.6975   -4.4192 H   0  0  0  0  0  0  0  0  0  0  0  0
   12.0281  -13.4145   -5.6539 H   0  0  0  0  0  0  0  0  0  0  0  0
   13.0936  -15.3287   -3.9679 H   0  0  0  0  0  0  0  0  0  0  0  0
   11.3347  -15.7925   -4.1518 H   0  0  0  0  0  0  0  0  0  0  0  0
   11.8611  -16.7660   -6.0813 H   0  0  0  0  0  0  0  0  0  0  0  0
   12.2126  -15.1420   -6.7451 H   0  0  0  0  0  0  0  0  0  0  0  0
   13.9422  -14.3585   -6.9971 H   0  0  0  0  0  0  0  0  0  0  0  0
   15.4109  -14.8375   -6.0279 H   0  0  0  0  0  0  0  0  0  0  0  0
  1  2  1  0
  2  3  2  0
  3  4  1  0
  4  5  2  0
  5  6  1  0
  6  7  2  0
  7  8  1  0
  8  9  2  0
  9 10  1  0
 10 11  1  0
 11 12  1  0
 12 13  1  0
 13 14  1  0
 14 15  1  0
 15 16  1  0
 16 17  2  0
 16 18  1  0
  7  2  1  0
 10  6  1  0
  1 19  1  0
  1 20  1  0
  4 21  1  0
  9 22  1  0
 11 23  1  0
 11 24  1  0
 12 25  1  0
 12 26  1  0
 13 27  1  0
 13 28  1  0
 15 29  1  0
 15 30  1  0
M  CHG  1  18  -1
M  END
>  <meeko>  (3) 
{"is_sidechain": [false], "free_energy": -5.238, "intermolecular_energy": -7.339, "internal_energy": -0.372}

$$$$
LIB_FKQCJYCSHIYYNP__M_PUB_ALL__e8__s20260927
     RDKit          3D

 30 31  0  0  0  0  0  0  0  0999 V2000
   15.0400  -11.5720   -2.9100 N   0  0  0  0  0  0  0  0  0  0  0  0
   13.7480  -12.0320   -3.0380 C   0  0  0  0  0  0  0  0  0  0  0  0
   13.3500  -12.5030   -4.2430 N   0  0  0  0  0  0  0  0  0  0  0  0
   12.0810  -12.9560   -4.3600 C   0  0  0  0  0  0  0  0  0  0  0  0
   11.1150  -13.0070   -3.4220 N   0  0  0  0  0  0  0  0  0  0  0  0
   11.5650  -12.5320   -2.2480 C   0  0  0  0  0  0  0  0  0  0  0  0
   12.8300  -12.0370   -1.9740 C   0  0  0  0  0  0  0  0  0  0  0  0
   12.9280  -11.6290   -0.6590 N   0  0  0  0  0  0  0  0  0  0  0  0
   11.7430  -11.8870   -0.1410 C   0  0  0  0  0  0  0  0  0  0  0  0
   10.8880  -12.4280   -1.0650 N   0  0  0  0  0  0  0  0  0  0  0  0
    9.5010  -12.7690   -0.8420 C   0  0  0  0  0  0  0  0  0  0  0  0
    9.2070  -14.2650   -0.9350 C   0  0  0  0  0  0  0  0  0  0  0  0
    7.7490  -14.6220   -0.6590 C   0  0  0  0  0  0  0  0  0  0  0  0
    7.4070  -14.1570    0.6450 O   0  0  0  0  0  0  0  0  0  0  0  0
    6.1790  -13.3890    0.6420 C   0  0  0  0  0  0  0  0  0  0  0  0
    5.9660  -12.5790    1.9440 C   0  0  0  0  0  0  0  0  0  0  0  0
    6.1120  -11.3260    1.8200 O   0  0  0  0  0  0  0  0  0  0  0  0
    5.6560  -13.2530    2.9680 O   0  0  0  0  0  0  0  0  0  0  0  0
   15.6380  -12.0040   -2.2190 H   0  0  0  0  0  0  0  0  0  0  0  0
   15.3650  -10.8720   -3.5540 H   0  0  0  0  0  0  0  0  0  0  0  0
   11.7998  -13.3334   -5.3542 H   0  0  0  0  0  0  0  0  0  0  0  0
   11.4733  -11.6913    0.9073 H   0  0  0  0  0  0  0  0  0  0  0  0
    9.2166  -12.4223    0.1624 H   0  0  0  0  0  0  0  0  0  0  0  0
    8.9208  -12.2802   -1.6385 H   0  0  0  0  0  0  0  0  0  0  0  0
    9.4623  -14.6067   -1.9489 H   0  0  0  0  0  0  0  0  0  0  0  0
    9.8113  -14.7601   -0.1607 H   0  0  0  0  0  0  0  0  0  0  0  0
    7.1014  -14.1401   -1.4062 H   0  0  0  0  0  0  0  0  0  0  0  0
    7.6106  -15.7117   -0.7183 H   0  0  0  0  0  0  0  0  0  0  0  0
    6.2063  -12.6884   -0.2056 H   0  0  0  0  0  0  0  0  0  0  0  0
    5.3460  -14.1027    0.5598 H   0  0  0  0  0  0  0  0  0  0  0  0
  1  2  1  0
  2  3  2  0
  3  4  1  0
  4  5  2  0
  5  6  1  0
  6  7  2  0
  7  8  1  0
  8  9  2  0
  9 10  1  0
 10 11  1  0
 11 12  1  0
 12 13  1  0
 13 14  1  0
 14 15  1  0
 15 16  1  0
 16 17  2  0
 16 18  1  0
  7  2  1  0
 10  6  1  0
  1 19  1  0
  1 20  1  0
  4 21  1  0
  9 22  1  0
 11 23  1  0
 11 24  1  0
 12 25  1  0
 12 26  1  0
 13 27  1  0
 13 28  1  0
 15 29  1  0
 15 30  1  0
M  CHG  1  18  -1
M  END
>  <meeko>  (4) 
{"is_sidechain": [false], "free_energy": -5.232, "intermolecular_energy": -7.514, "internal_energy": -0.189}

$$$$
LIB_FKQCJYCSHIYYNP__M_PUB_ALL__e8__s20260927
     RDKit          3D

 30 31  0  0  0  0  0  0  0  0999 V2000
   13.7370  -11.6990   -1.8790 N   0  0  0  0  0  0  0  0  0  0  0  0
   12.5680  -12.0200   -1.2250 C   0  0  0  0  0  0  0  0  0  0  0  0
   12.6140  -12.2220    0.1120 N   0  0  0  0  0  0  0  0  0  0  0  0
   11.4620  -12.5330    0.7480 C   0  0  0  0  0  0  0  0  0  0  0  0
   10.2280  -12.6840    0.2310 N   0  0  0  0  0  0  0  0  0  0  0  0
   10.2390  -12.4690   -1.0960 C   0  0  0  0  0  0  0  0  0  0  0  0
   11.3320  -12.1440   -1.8830 C   0  0  0  0  0  0  0  0  0  0  0  0
   10.9660  -12.0090   -3.2080 N   0  0  0  0  0  0  0  0  0  0  0  0
    9.6670  -12.2350   -3.2190 C   0  0  0  0  0  0  0  0  0  0  0  0
    9.1870  -12.5210   -1.9680 N   0  0  0  0  0  0  0  0  0  0  0  0
    7.8240  -12.8750   -1.6410 C   0  0  0  0  0  0  0  0  0  0  0  0
    6.8990  -11.6750   -1.4510 C   0  0  0  0  0  0  0  0  0  0  0  0
    5.9000  -11.4840   -2.5880 C   0  0  0  0  0  0  0  0  0  0  0  0
    4.5930  -11.7780   -2.0980 O   0  0  0  0  0  0  0  0  0  0  0  0
    3.6750  -12.1110   -3.1680 C   0  0  0  0  0  0  0  0  0  0  0  0
    3.3660  -10.9120   -4.0960 C   0  0  0  0  0  0  0  0  0  0  0  0
    3.6950  -11.0790   -5.3080 O   0  0  0  0  0  0  0  0  0  0  0  0
    2.8070   -9.9190   -3.5470 O   0  0  0  0  0  0  0  0  0  0  0  0
   13.7260  -11.6610   -2.8890 H   0  0  0  0  0  0  0  0  0  0  0  0
   14.5400  -11.4480   -1.3290 H   0  0  0  0  0  0  0  0  0  0  0  0
   11.5441  -12.6829    1.8346 H   0  0  0  0  0  0  0  0  0  0  0  0
    9.0433  -12.1983   -4.1243 H   0  0  0  0  0  0  0  0  0  0  0  0
    7.4228  -13.4954   -2.4560 H   0  0  0  0  0  0  0  0  0  0  0  0
    7.8556  -13.4078   -0.6792 H   0  0  0  0  0  0  0  0  0  0  0  0
    6.3376  -11.8141   -0.5153 H   0  0  0  0  0  0  0  0  0  0  0  0
    7.5361  -10.7786   -1.4292 H   0  0  0  0  0  0  0  0  0  0  0  0
    5.9374  -10.4437   -2.9436 H   0  0  0  0  0  0  0  0  0  0  0  0
    6.1483  -12.1547   -3.4237 H   0  0  0  0  0  0  0  0  0  0  0  0
    4.1183  -12.9164   -3.7720 H   0  0  0  0  0  0  0  0  0  0  0  0
    2.7270  -12.4198   -2.7034 H   0  0  0  0  0  0  0  0  0  0  0  0
  1  2  1  0
  2  3  2  0
  3  4  1  0
  4  5  2  0
  5  6  1  0
  6  7  2  0
  7  8  1  0
  8  9  2  0
  9 10  1  0
 10 11  1  0
 11 12  1  0
 12 13  1  0
 13 14  1  0
 14 15  1  0
 15 16  1  0
 16 17  2  0
 16 18  1  0
  7  2  1  0
 10  6  1  0
  1 19  1  0
  1 20  1  0
  4 21  1  0
  9 22  1  0
 11 23  1  0
 11 24  1  0
 12 25  1  0
 12 26  1  0
 13 27  1  0
 13 28  1  0
 15 29  1  0
 15 30  1  0
M  CHG  1  18  -1
M  END
>  <meeko>  (5) 
{"is_sidechain": [false], "free_energy": -5.132, "intermolecular_energy": -7.238, "internal_energy": -0.327}

$$$$
LIB_FKQCJYCSHIYYNP__M_PUB_ALL__e8__s20260927
     RDKit          3D

 30 31  0  0  0  0  0  0  0  0999 V2000
   10.6830  -12.2840    1.6480 N   0  0  0  0  0  0  0  0  0  0  0  0
   11.4280  -12.0320    0.5170 C   0  0  0  0  0  0  0  0  0  0  0  0
   12.2840  -10.9830    0.5320 N   0  0  0  0  0  0  0  0  0  0  0  0
   13.0150  -10.7440   -0.5800 C   0  0  0  0  0  0  0  0  0  0  0  0
   13.0160  -11.4160   -1.7480 N   0  0  0  0  0  0  0  0  0  0  0  0
   12.1540  -12.4460   -1.7060 C   0  0  0  0  0  0  0  0  0  0  0  0
   11.3410  -12.8160   -0.6460 C   0  0  0  0  0  0  0  0  0  0  0  0
   10.5790  -13.9210   -0.9680 N   0  0  0  0  0  0  0  0  0  0  0  0
   10.9360  -14.2240   -2.2010 C   0  0  0  0  0  0  0  0  0  0  0  0
   11.8800  -13.3580   -2.6870 N   0  0  0  0  0  0  0  0  0  0  0  0
   12.4390  -13.3700   -4.0210 C   0  0  0  0  0  0  0  0  0  0  0  0
   13.5320  -14.4180   -4.2250 C   0  0  0  0  0  0  0  0  0  0  0  0
   13.2730  -15.3510   -5.4050 C   0  0  0  0  0  0  0  0  0  0  0  0
   13.4480  -16.6970   -4.9660 O   0  0  0  0  0  0  0  0  0  0  0  0
   13.3710  -16.8100   -3.5240 C   0  0  0  0  0  0  0  0  0  0  0  0
   13.2820  -18.2760   -3.0350 C   0  0  0  0  0  0  0  0  0  0  0  0
   12.3400  -18.5080   -2.2200 O   0  0  0  0  0  0  0  0  0  0  0  0
   14.1400  -19.0700   -3.5150 O   0  0  0  0  0  0  0  0  0  0  0  0
   11.1610  -12.6150    2.4740 H   0  0  0  0  0  0  0  0  0  0  0  0
    9.7020  -12.0650    1.6330 H   0  0  0  0  0  0  0  0  0  0  0  0
   13.7009   -9.8859   -0.5237 H   0  0  0  0  0  0  0  0  0  0  0  0
   10.5251  -15.0705   -2.7708 H   0  0  0  0  0  0  0  0  0  0  0  0
   11.6271  -13.5729   -4.7349 H   0  0  0  0  0  0  0  0  0  0  0  0
   12.9057  -12.3868   -4.1804 H   0  0  0  0  0  0  0  0  0  0  0  0
   14.4854  -13.8969   -4.3967 H   0  0  0  0  0  0  0  0  0  0  0  0
   13.5528  -15.0421   -3.3194 H   0  0  0  0  0  0  0  0  0  0  0  0
   12.2449  -15.2107   -5.7700 H   0  0  0  0  0  0  0  0  0  0  0  0
   13.9742  -15.1275   -6.2226 H   0  0  0  0  0  0  0  0  0  0  0  0
   14.2697  -16.3492   -3.0880 H   0  0  0  0  0  0  0  0  0  0  0  0
   12.4506  -16.3002   -3.2032 H   0  0  0  0  0  0  0  0  0  0  0  0
  1  2  1  0
  2  3  2  0
  3  4  1  0
  4  5  2  0
  5  6  1  0
  6  7  2  0
  7  8  1  0
  8  9  2  0
  9 10  1  0
 10 11  1  0
 11 12  1  0
 12 13  1  0
 13 14  1  0
 14 15  1  0
 15 16  1  0
 16 17  2  0
 16 18  1  0
  7  2  1  0
 10  6  1  0
  1 19  1  0
  1 20  1  0
  4 21  1  0
  9 22  1  0
 11 23  1  0
 11 24  1  0
 12 25  1  0
 12 26  1  0
 13 27  1  0
 13 28  1  0
 15 29  1  0
 15 30  1  0
M  CHG  1  18  -1
M  END
>  <meeko>  (6) 
{"is_sidechain": [false], "free_energy": -5.045, "intermolecular_energy": -7.055, "internal_energy": -0.391}

$$$$
LIB_FKQCJYCSHIYYNP__M_PUB_ALL__e8__s20260927
     RDKit          3D

 30 31  0  0  0  0  0  0  0  0999 V2000
   10.6640  -12.2540    1.6500 N   0  0  0  0  0  0  0  0  0  0  0  0
   11.4530  -12.0290    0.5430 C   0  0  0  0  0  0  0  0  0  0  0  0
   12.2490  -10.9350    0.5330 N   0  0  0  0  0  0  0  0  0  0  0  0
   13.0240  -10.7230   -0.5550 C   0  0  0  0  0  0  0  0  0  0  0  0
   13.1230  -11.4640   -1.6760 N   0  0  0  0  0  0  0  0  0  0  0  0
   12.3160  -12.5370   -1.6100 C   0  0  0  0  0  0  0  0  0  0  0  0
   11.4700  -12.8870   -0.5700 C   0  0  0  0  0  0  0  0  0  0  0  0
   10.7870  -14.0520   -0.8580 N   0  0  0  0  0  0  0  0  0  0  0  0
   11.2240  -14.4080   -2.0500 C   0  0  0  0  0  0  0  0  0  0  0  0
   12.1450  -13.5210   -2.5430 N   0  0  0  0  0  0  0  0  0  0  0  0
   12.7730  -13.5840   -3.8440 C   0  0  0  0  0  0  0  0  0  0  0  0
   12.3630  -14.8000   -4.6730 C   0  0  0  0  0  0  0  0  0  0  0  0
   13.5420  -15.5520   -5.2820 C   0  0  0  0  0  0  0  0  0  0  0  0
   14.0390  -14.7990   -6.3870 O   0  0  0  0  0  0  0  0  0  0  0  0
   15.3200  -15.2930   -6.8470 C   0  0  0  0  0  0  0  0  0  0  0  0
   15.3040  -15.7330   -8.3310 C   0  0  0  0  0  0  0  0  0  0  0  0
   14.9930  -16.9470   -8.5220 O   0  0  0  0  0  0  0  0  0  0  0  0
   15.5810  -14.8340   -9.1750 O   0  0  0  0  0  0  0  0  0  0  0  0
    9.9860  -13.0030    1.6120 H   0  0  0  0  0  0  0  0  0  0  0  0
   10.8360  -11.7120    2.4780 H   0  0  0  0  0  0  0  0  0  0  0  0
   13.6586   -9.8252   -0.5200 H   0  0  0  0  0  0  0  0  0  0  0  0
   10.8893  -15.3091   -2.5847 H   0  0  0  0  0  0  0  0  0  0  0  0
   12.5019  -12.6765   -4.4034 H   0  0  0  0  0  0  0  0  0  0  0  0
   13.8562  -13.6669   -3.6712 H   0  0  0  0  0  0  0  0  0  0  0  0
   11.8077  -15.4923   -4.0231 H   0  0  0  0  0  0  0  0  0  0  0  0
   11.7521  -14.4283   -5.5089 H   0  0  0  0  0  0  0  0  0  0  0  0
   14.3344  -15.6718   -4.5286 H   0  0  0  0  0  0  0  0  0  0  0  0
   13.2190  -16.5477   -5.6201 H   0  0  0  0  0  0  0  0  0  0  0  0
   16.0668  -14.4944   -6.7267 H   0  0  0  0  0  0  0  0  0  0  0  0
   15.5649  -16.1802   -6.2446 H   0  0  0  0  0  0  0  0  0  0  0  0
  1  2  1  0
  2  3  2  0
  3  4  1  0
  4  5  2  0
  5  6  1  0
  6  7  2  0
  7  8  1  0
  8  9  2  0
  9 10  1  0
 10 11  1  0
 11 12  1  0
 12 13  1  0
 13 14  1  0
 14 15  1  0
 15 16  1  0
 16 17  2  0
 16 18  1  0
  7  2  1  0
 10  6  1  0
  1 19  1  0
  1 20  1  0
  4 21  1  0
  9 22  1  0
 11 23  1  0
 11 24  1  0
 12 25  1  0
 12 26  1  0
 13 27  1  0
 13 28  1  0
 15 29  1  0
 15 30  1  0
M  CHG  1  18  -1
M  END
>  <meeko>  (7) 
{"is_sidechain": [false], "free_energy": -4.953, "intermolecular_energy": -7.074, "internal_energy": -0.244}

$$$$
LIB_FKQCJYCSHIYYNP__M_PUB_ALL__e8__s20260927
     RDKit          3D

 30 31  0  0  0  0  0  0  0  0999 V2000
   12.7750  -15.2320   -1.6550 N   0  0  0  0  0  0  0  0  0  0  0  0
   12.0000  -14.1680   -2.0620 C   0  0  0  0  0  0  0  0  0  0  0  0
   12.5080  -13.3160   -2.9810 N   0  0  0  0  0  0  0  0  0  0  0  0
   11.7400  -12.2760   -3.3780 C   0  0  0  0  0  0  0  0  0  0  0  0
   10.4980  -11.9440   -2.9750 N   0  0  0  0  0  0  0  0  0  0  0  0
   10.0410  -12.8240   -2.0670 C   0  0  0  0  0  0  0  0  0  0  0  0
   10.7060  -13.9320   -1.5660 C   0  0  0  0  0  0  0  0  0  0  0  0
    9.9280  -14.5990   -0.6400 N   0  0  0  0  0  0  0  0  0  0  0  0
    8.8040  -13.9120   -0.5930 C   0  0  0  0  0  0  0  0  0  0  0  0
    8.8300  -12.8310   -1.4340 N   0  0  0  0  0  0  0  0  0  0  0  0
    7.7860  -11.8400   -1.5780 C   0  0  0  0  0  0  0  0  0  0  0  0
    6.8750  -11.7170   -0.3580 C   0  0  0  0  0  0  0  0  0  0  0  0
    7.5310  -11.0130    0.8270 C   0  0  0  0  0  0  0  0  0  0  0  0
    6.7910   -9.8290    1.1180 O   0  0  0  0  0  0  0  0  0  0  0  0
    7.5680   -8.6310    0.8770 C   0  0  0  0  0  0  0  0  0  0  0  0
    7.1470   -7.4440    1.7750 C   0  0  0  0  0  0  0  0  0  0  0  0
    8.0440   -6.5670    1.9520 O   0  0  0  0  0  0  0  0  0  0  0  0
    5.9600   -7.4760    2.2100 O   0  0  0  0  0  0  0  0  0  0  0  0
   13.7720  -15.0920   -1.5640 H   0  0  0  0  0  0  0  0  0  0  0  0
   12.3150  -16.0880   -1.3980 H   0  0  0  0  0  0  0  0  0  0  0  0
   12.1897  -11.6121   -4.1310 H   0  0  0  0  0  0  0  0  0  0  0  0
    7.9476  -14.1753    0.0452 H   0  0  0  0  0  0  0  0  0  0  0  0
    8.2586  -10.8629   -1.7570 H   0  0  0  0  0  0  0  0  0  0  0  0
    7.1528  -12.1637   -2.4172 H   0  0  0  0  0  0  0  0  0  0  0  0
    5.9799  -11.1475   -0.6486 H   0  0  0  0  0  0  0  0  0  0  0  0
    6.6333  -12.7394   -0.0319 H   0  0  0  0  0  0  0  0  0  0  0  0
    7.5255  -11.6783    1.7029 H   0  0  0  0  0  0  0  0  0  0  0  0
    8.5721  -10.7555    0.5824 H   0  0  0  0  0  0  0  0  0  0  0  0
    8.6275   -8.8564    1.0686 H   0  0  0  0  0  0  0  0  0  0  0  0
    7.3930   -8.3309   -0.1667 H   0  0  0  0  0  0  0  0  0  0  0  0
  1  2  1  0
  2  3  2  0
  3  4  1  0
  4  5  2  0
  5  6  1  0
  6  7  2  0
  7  8  1  0
  8  9  2  0
  9 10  1  0
 10 11  1  0
 11 12  1  0
 12 13  1  0
 13 14  1  0
 14 15  1  0
 15 16  1  0
 16 17  2  0
 16 18  1  0
  7  2  1  0
 10  6  1  0
  1 19  1  0
  1 20  1  0
  4 21  1  0
  9 22  1  0
 11 23  1  0
 11 24  1  0
 12 25  1  0
 12 26  1  0
 13 27  1  0
 13 28  1  0
 15 29  1  0
 15 30  1  0
M  CHG  1  18  -1
M  END
>  <meeko>  (8) 
{"is_sidechain": [false], "free_energy": -4.886, "intermolecular_energy": -7.018, "internal_energy": -0.208}

$$$$
LIB_FKQCJYCSHIYYNP__M_PUB_ALL__e8__s20260927
     RDKit          3D

 30 31  0  0  0  0  0  0  0  0999 V2000
   14.1120  -10.4060    0.1600 N   0  0  0  0  0  0  0  0  0  0  0  0
   13.3560  -11.0790   -0.7740 C   0  0  0  0  0  0  0  0  0  0  0  0
   13.8240  -11.1630   -2.0410 N   0  0  0  0  0  0  0  0  0  0  0  0
   13.0780  -11.8290   -2.9510 C   0  0  0  0  0  0  0  0  0  0  0  0
   11.8890  -12.4410   -2.7820 N   0  0  0  0  0  0  0  0  0  0  0  0
   11.4740  -12.3300   -1.5090 C   0  0  0  0  0  0  0  0  0  0  0  0
   12.1240  -11.6830   -0.4690 C   0  0  0  0  0  0  0  0  0  0  0  0
   11.3930  -11.7670    0.7000 N   0  0  0  0  0  0  0  0  0  0  0  0
   10.3230  -12.4650    0.3740 C   0  0  0  0  0  0  0  0  0  0  0  0
   10.3280  -12.8220   -0.9490 N   0  0  0  0  0  0  0  0  0  0  0  0
    9.2790  -13.5370   -1.6410 C   0  0  0  0  0  0  0  0  0  0  0  0
    7.8800  -12.9720   -1.3990 C   0  0  0  0  0  0  0  0  0  0  0  0
    6.9370  -13.9500   -0.7050 C   0  0  0  0  0  0  0  0  0  0  0  0
    6.1330  -13.2240    0.2230 O   0  0  0  0  0  0  0  0  0  0  0  0
    6.9350  -12.5310    1.2100 C   0  0  0  0  0  0  0  0  0  0  0  0
    6.5780  -11.0310    1.3380 C   0  0  0  0  0  0  0  0  0  0  0  0
    5.4780  -10.7950    1.9210 O   0  0  0  0  0  0  0  0  0  0  0  0
    7.4270  -10.2210    0.8680 O   0  0  0  0  0  0  0  0  0  0  0  0
   14.9020   -9.8650   -0.1620 H   0  0  0  0  0  0  0  0  0  0  0  0
   13.8110  -10.4200    1.1190 H   0  0  0  0  0  0  0  0  0  0  0  0
   13.4982  -11.8780   -3.9664 H   0  0  0  0  0  0  0  0  0  0  0  0
    9.5218  -12.7293    1.0799 H   0  0  0  0  0  0  0  0  0  0  0  0
    9.4866  -13.4970   -2.7205 H   0  0  0  0  0  0  0  0  0  0  0  0
    9.2805  -14.5645   -1.2482 H   0  0  0  0  0  0  0  0  0  0  0  0
    7.9719  -12.0732   -0.7716 H   0  0  0  0  0  0  0  0  0  0  0  0
    7.4465  -12.7516   -2.3856 H   0  0  0  0  0  0  0  0  0  0  0  0
    6.2929  -14.4373   -1.4518 H   0  0  0  0  0  0  0  0  0  0  0  0
    7.5167  -14.7218   -0.1775 H   0  0  0  0  0  0  0  0  0  0  0  0
    6.7805  -13.0122    2.1870 H   0  0  0  0  0  0  0  0  0  0  0  0
    7.9832  -12.5917    0.8820 H   0  0  0  0  0  0  0  0  0  0  0  0
  1  2  1  0
  2  3  2  0
  3  4  1  0
  4  5  2  0
  5  6  1  0
  6  7  2  0
  7  8  1  0
  8  9  2  0
  9 10  1  0
 10 11  1  0
 11 12  1  0
 12 13  1  0
 13 14  1  0
 14 15  1  0
 15 16  1  0
 16 17  2  0
 16 18  1  0
  7  2  1  0
 10  6  1  0
  1 19  1  0
  1 20  1  0
  4 21  1  0
  9 22  1  0
 11 23  1  0
 11 24  1  0
 12 25  1  0
 12 26  1  0
 13 27  1  0
 13 28  1  0
 15 29  1  0
 15 30  1  0
M  CHG  1  18  -1
M  END
>  <meeko>  (9) 
{"is_sidechain": [false], "free_energy": -4.751, "intermolecular_energy": -6.637, "internal_energy": -0.403}

$$$$
