LIB_CXKIPYCVARNYCW__M_PUB_ALL__e8__s20260927
     RDKit          3D

 53 56  0  0  0  0  0  0  0  0999 V2000
   18.3970  -20.8080    7.4450 C   0  0  0  0  0  0  0  0  0  0  0  0
   18.6420  -19.4210    7.6450 O   0  0  0  0  0  0  0  0  0  0  0  0
   18.3200  -18.9240    8.8800 C   0  0  0  0  0  0  0  0  0  0  0  0
   19.0630  -17.9970    9.6100 C   0  0  0  0  0  0  0  0  0  0  0  0
   18.6180  -17.5720   10.8660 C   0  0  0  0  0  0  0  0  0  0  0  0
   17.4180  -18.0540   11.4080 C   0  0  0  0  0  0  0  0  0  0  0  0
   16.9550  -17.6110   12.7820 C   0  0  0  0  0  0  0  0  0  0  0  0
   15.4800  -17.4880   12.9280 C   0  0  0  0  0  0  0  0  0  0  0  0
   14.4760  -18.3910   12.6270 C   0  0  0  0  0  0  0  0  0  0  0  0
   13.2890  -17.8300   12.9400 N   0  0  0  0  0  0  0  0  0  0  0  0
   13.5530  -16.5910   13.4080 C   0  0  0  0  0  0  0  0  0  0  0  0
   12.5330  -15.6100   13.8450 C   0  0  0  0  0  0  0  0  0  0  0  0
   11.9910  -14.7970   12.6680 C   0  0  0  0  0  0  0  0  0  0  0  0
   12.6960  -13.4650   12.5210 C   0  0  0  0  0  0  0  0  0  0  0  0
   12.3530  -12.3900   13.3470 C   0  0  0  0  0  0  0  0  0  0  0  0
   12.9760  -11.1470   13.1900 C   0  0  0  0  0  0  0  0  0  0  0  0
   13.9550  -10.9370   12.2020 C   0  0  0  0  0  0  0  0  0  0  0  0
   14.5100   -9.5870   11.9720 C   0  0  0  0  0  0  0  0  0  0  0  0
   13.7220   -8.6640   11.2470 C   0  0  0  0  0  0  0  0  0  0  0  0
   14.1560   -7.3600   10.9910 C   0  0  0  0  0  0  0  0  0  0  0  0
   15.3950   -6.9420   11.4570 C   0  0  0  0  0  0  0  0  0  0  0  0
   16.1940   -7.8320   12.1700 C   0  0  0  0  0  0  0  0  0  0  0  0
   15.7720   -9.1540   12.4290 C   0  0  0  0  0  0  0  0  0  0  0  0
   16.7140  -10.0270   13.2060 C   0  0  0  0  0  0  0  0  0  0  0  0
   16.6520   -9.9370   14.4730 O   0  0  0  0  0  0  0  0  0  0  0  0
   17.5580  -10.6970   12.5340 O   0  0  0  0  0  0  0  0  0  0  0  0
   14.3090  -12.0290   11.3980 C   0  0  0  0  0  0  0  0  0  0  0  0
   13.6870  -13.2760   11.5500 C   0  0  0  0  0  0  0  0  0  0  0  0
   14.8880  -16.3740   13.4280 N   0  0  0  0  0  0  0  0  0  0  0  0
   16.6840  -18.9960   10.6760 C   0  0  0  0  0  0  0  0  0  0  0  0
   17.1340  -19.4240    9.4230 C   0  0  0  0  0  0  0  0  0  0  0  0
   18.3085  -21.3091    8.4202 H   0  0  0  0  0  0  0  0  0  0  0  0
   17.4621  -20.9375    6.8801 H   0  0  0  0  0  0  0  0  0  0  0  0
   19.2310  -21.2499    6.8801 H   0  0  0  0  0  0  0  0  0  0  0  0
   20.0016  -17.5989    9.1970 H   0  0  0  0  0  0  0  0  0  0  0  0
   19.2185  -16.8487   11.4372 H   0  0  0  0  0  0  0  0  0  0  0  0
   17.3126  -18.3460   13.5181 H   0  0  0  0  0  0  0  0  0  0  0  0
   17.3692  -16.6045   12.9413 H   0  0  0  0  0  0  0  0  0  0  0  0
   14.6207  -19.3961   12.2041 H   0  0  0  0  0  0  0  0  0  0  0  0
   11.7000  -16.1491   14.3199 H   0  0  0  0  0  0  0  0  0  0  0  0
   13.0066  -14.9146   14.5536 H   0  0  0  0  0  0  0  0  0  0  0  0
   12.1308  -15.3759   11.7432 H   0  0  0  0  0  0  0  0  0  0  0  0
   10.9261  -14.5967   12.8574 H   0  0  0  0  0  0  0  0  0  0  0  0
   11.5877  -12.5226   14.1260 H   0  0  0  0  0  0  0  0  0  0  0  0
   12.6941  -10.3161   13.8535 H   0  0  0  0  0  0  0  0  0  0  0  0
   12.7375   -8.9815   10.8730 H   0  0  0  0  0  0  0  0  0  0  0  0
   13.5179   -6.6676   10.4223 H   0  0  0  0  0  0  0  0  0  0  0  0
   15.7427   -5.9163   11.2646 H   0  0  0  0  0  0  0  0  0  0  0  0
   17.1748   -7.4979   12.5393 H   0  0  0  0  0  0  0  0  0  0  0  0
   15.0898  -11.9052   10.6331 H   0  0  0  0  0  0  0  0  0  0  0  0
   13.9802  -14.1139   10.9004 H   0  0  0  0  0  0  0  0  0  0  0  0
   15.7485  -19.4013   11.0890 H   0  0  0  0  0  0  0  0  0  0  0  0
   16.5470  -20.1632    8.8582 H   0  0  0  0  0  0  0  0  0  0  0  0
  1  2  1  0
  2  3  1  0
  3  4  2  0
  4  5  1  0
  5  6  2  0
  6  7  1  0
  7  8  1  0
  8  9  2  0
  9 10  1  0
 10 11  1  0
 11 12  1  0
 12 13  1  0
 13 14  1  0
 14 15  2  0
 15 16  1  0
 16 17  2  0
 17 18  1  0
 18 19  2  0
 19 20  1  0
 20 21  2  0
 21 22  1  0
 22 23  2  0
 23 24  1  0
 24 25  2  0
 24 26  1  0
 17 27  1  0
 27 28  2  0
 11 29  2  0
  6 30  1  0
 30 31  2  0
 31  3  1  0
 29  8  1  0
 28 14  1  0
 23 18  1  0
  1 32  1  0
  1 33  1  0
  1 34  1  0
  4 35  1  0
  5 36  1  0
  7 37  1  0
  7 38  1  0
  9 39  1  0
 12 40  1  0
 12 41  1  0
 13 42  1  0
 13 43  1  0
 15 44  1  0
 16 45  1  0
 19 46  1  0
 20 47  1  0
 21 48  1  0
 22 49  1  0
 27 50  1  0
 28 51  1  0
 30 52  1  0
 31 53  1  0
M  CHG  2  10  -1  26  -1
M  END
>  <meeko>  (1) 
{"is_sidechain": [false], "free_energy": -8.605, "intermolecular_energy": -12.63, "internal_energy": -0.752}

$$$$
LIB_CXKIPYCVARNYCW__M_PUB_ALL__e8__s20260927
     RDKit          3D

 53 56  0  0  0  0  0  0  0  0999 V2000
   17.5930  -19.7790    8.0760 C   0  0  0  0  0  0  0  0  0  0  0  0
   18.4450  -18.9200    8.8230 O   0  0  0  0  0  0  0  0  0  0  0  0
   17.9680  -18.5060   10.0390 C   0  0  0  0  0  0  0  0  0  0  0  0
   18.5010  -17.4840   10.8230 C   0  0  0  0  0  0  0  0  0  0  0  0
   17.9140  -17.1620   12.0510 C   0  0  0  0  0  0  0  0  0  0  0  0
   16.7790  -17.8450   12.5100 C   0  0  0  0  0  0  0  0  0  0  0  0
   16.1640  -17.5100   13.8550 C   0  0  0  0  0  0  0  0  0  0  0  0
   14.7380  -17.0940   13.7960 C   0  0  0  0  0  0  0  0  0  0  0  0
   13.6870  -17.3880   14.6480 C   0  0  0  0  0  0  0  0  0  0  0  0
   12.5770  -16.7750   14.1850 N   0  0  0  0  0  0  0  0  0  0  0  0
   12.9300  -16.1300   13.0520 C   0  0  0  0  0  0  0  0  0  0  0  0
   12.0090  -15.3460   12.1970 C   0  0  0  0  0  0  0  0  0  0  0  0
   11.5080  -14.0900   12.9120 C   0  0  0  0  0  0  0  0  0  0  0  0
   12.4550  -12.9200   12.7440 C   0  0  0  0  0  0  0  0  0  0  0  0
   13.3270  -12.8710   11.6500 C   0  0  0  0  0  0  0  0  0  0  0  0
   14.2300  -11.8110   11.5110 C   0  0  0  0  0  0  0  0  0  0  0  0
   14.2940  -10.7730   12.4580 C   0  0  0  0  0  0  0  0  0  0  0  0
   15.3370   -9.7310   12.3570 C   0  0  0  0  0  0  0  0  0  0  0  0
   16.6740  -10.1060   12.6250 C   0  0  0  0  0  0  0  0  0  0  0  0
   17.7300   -9.1940   12.5430 C   0  0  0  0  0  0  0  0  0  0  0  0
   17.4770   -7.8760   12.1880 C   0  0  0  0  0  0  0  0  0  0  0  0
   16.1690   -7.4780   11.9230 C   0  0  0  0  0  0  0  0  0  0  0  0
   15.0910   -8.3870   12.0100 C   0  0  0  0  0  0  0  0  0  0  0  0
   13.7240   -7.8480   11.7040 C   0  0  0  0  0  0  0  0  0  0  0  0
   12.9780   -7.6000   12.7030 O   0  0  0  0  0  0  0  0  0  0  0  0
   13.3960   -7.7850   10.4780 O   0  0  0  0  0  0  0  0  0  0  0  0
   13.3980  -10.8200   13.5350 C   0  0  0  0  0  0  0  0  0  0  0  0
   12.4930  -11.8810   13.6800 C   0  0  0  0  0  0  0  0  0  0  0  0
   14.2510  -16.2960   12.8120 N   0  0  0  0  0  0  0  0  0  0  0  0
   16.2580  -18.8800   11.7230 C   0  0  0  0  0  0  0  0  0  0  0  0
   16.8490  -19.2040   10.4990 C   0  0  0  0  0  0  0  0  0  0  0  0
   16.9896  -20.3873    8.7658 H   0  0  0  0  0  0  0  0  0  0  0  0
   16.9275  -19.1746    7.4421 H   0  0  0  0  0  0  0  0  0  0  0  0
   18.2028  -20.4396    7.4421 H   0  0  0  0  0  0  0  0  0  0  0  0
   19.3851  -16.9296   10.4751 H   0  0  0  0  0  0  0  0  0  0  0  0
   18.3495  -16.3607   12.6660 H   0  0  0  0  0  0  0  0  0  0  0  0
   16.2355  -18.4007   14.4966 H   0  0  0  0  0  0  0  0  0  0  0  0
   16.7243  -16.6492   14.2488 H   0  0  0  0  0  0  0  0  0  0  0  0
   13.7465  -18.0151   15.5498 H   0  0  0  0  0  0  0  0  0  0  0  0
   12.5397  -15.0474   11.2809 H   0  0  0  0  0  0  0  0  0  0  0  0
   11.1394  -15.9766   11.9598 H   0  0  0  0  0  0  0  0  0  0  0  0
   10.5270  -13.8141   12.4978 H   0  0  0  0  0  0  0  0  0  0  0  0
   11.4394  -14.3175   13.9860 H   0  0  0  0  0  0  0  0  0  0  0  0
   13.3023  -13.6706   10.8950 H   0  0  0  0  0  0  0  0  0  0  0  0
   14.9044  -11.7891   10.6423 H   0  0  0  0  0  0  0  0  0  0  0  0
   16.8895  -11.1473   12.9066 H   0  0  0  0  0  0  0  0  0  0  0  0
   18.7583   -9.5196   12.7591 H   0  0  0  0  0  0  0  0  0  0  0  0
   18.3024   -7.1524   12.1166 H   0  0  0  0  0  0  0  0  0  0  0  0
   15.9710   -6.4337   11.6399 H   0  0  0  0  0  0  0  0  0  0  0  0
   13.4050  -10.0102   14.2795 H   0  0  0  0  0  0  0  0  0  0  0  0
   11.8057  -11.8966   14.5387 H   0  0  0  0  0  0  0  0  0  0  0  0
   15.3781  -19.4412   12.0707 H   0  0  0  0  0  0  0  0  0  0  0  0
   16.4282  -20.0181    9.8907 H   0  0  0  0  0  0  0  0  0  0  0  0
  1  2  1  0
  2  3  1  0
  3  4  2  0
  4  5  1  0
  5  6  2  0
  6  7  1  0
  7  8  1  0
  8  9  2  0
  9 10  1  0
 10 11  1  0
 11 12  1  0
 12 13  1  0
 13 14  1  0
 14 15  2  0
 15 16  1  0
 16 17  2  0
 17 18  1  0
 18 19  2  0
 19 20  1  0
 20 21  2  0
 21 22  1  0
 22 23  2  0
 23 24  1  0
 24 25  2  0
 24 26  1  0
 17 27  1  0
 27 28  2  0
 11 29  2  0
  6 30  1  0
 30 31  2  0
 31  3  1  0
 29  8  1  0
 28 14  1  0
 23 18  1  0
  1 32  1  0
  1 33  1  0
  1 34  1  0
  4 35  1  0
  5 36  1  0
  7 37  1  0
  7 38  1  0
  9 39  1  0
 12 40  1  0
 12 41  1  0
 13 42  1  0
 13 43  1  0
 15 44  1  0
 16 45  1  0
 19 46  1  0
 20 47  1  0
 21 48  1  0
 22 49  1  0
 27 50  1  0
 28 51  1  0
 30 52  1  0
 31 53  1  0
M  CHG  2  10  -1  26  -1
M  END
>  <meeko>  (2) 
{"is_sidechain": [false], "free_energy": -8.444, "intermolecular_energy": -11.998, "internal_energy": -1.147}

$$$$
LIB_CXKIPYCVARNYCW__M_PUB_ALL__e8__s20260927
     RDKit          3D

 53 56  0  0  0  0  0  0  0  0999 V2000
    0.8330  -14.4990   -5.2610 C   0  0  0  0  0  0  0  0  0  0  0  0
    2.0080  -13.7480   -4.9780 O   0  0  0  0  0  0  0  0  0  0  0  0
    2.0520  -13.1340   -3.7540 C   0  0  0  0  0  0  0  0  0  0  0  0
    2.3000  -11.7830   -3.5240 C   0  0  0  0  0  0  0  0  0  0  0  0
    2.3180  -11.2840   -2.2170 C   0  0  0  0  0  0  0  0  0  0  0  0
    2.0750  -12.1230   -1.1210 C   0  0  0  0  0  0  0  0  0  0  0  0
    2.1240  -11.5820    0.2940 C   0  0  0  0  0  0  0  0  0  0  0  0
    0.8230  -11.6150    1.0140 C   0  0  0  0  0  0  0  0  0  0  0  0
   -0.0960  -10.6060    1.2430 C   0  0  0  0  0  0  0  0  0  0  0  0
   -1.1320  -11.1210    1.9380 N   0  0  0  0  0  0  0  0  0  0  0  0
   -0.8480  -12.4240    2.1560 C   0  0  0  0  0  0  0  0  0  0  0  0
   -1.7060  -13.3680    2.9090 C   0  0  0  0  0  0  0  0  0  0  0  0
   -2.9790  -13.7130    2.1350 C   0  0  0  0  0  0  0  0  0  0  0  0
   -4.1120  -14.1220    3.0530 C   0  0  0  0  0  0  0  0  0  0  0  0
   -4.0280  -15.3060    3.7930 C   0  0  0  0  0  0  0  0  0  0  0  0
   -5.0880  -15.7070    4.6140 C   0  0  0  0  0  0  0  0  0  0  0  0
   -6.2640  -14.9430    4.7180 C   0  0  0  0  0  0  0  0  0  0  0  0
   -7.4180  -15.4460    5.4920 C   0  0  0  0  0  0  0  0  0  0  0  0
   -8.4770  -16.0550    4.7800 C   0  0  0  0  0  0  0  0  0  0  0  0
   -9.6030  -16.5720    5.4250 C   0  0  0  0  0  0  0  0  0  0  0  0
   -9.7010  -16.4960    6.8090 C   0  0  0  0  0  0  0  0  0  0  0  0
   -8.6750  -15.8970    7.5350 C   0  0  0  0  0  0  0  0  0  0  0  0
   -7.5350  -15.3630    6.8950 C   0  0  0  0  0  0  0  0  0  0  0  0
   -6.4920  -14.7410    7.7770 C   0  0  0  0  0  0  0  0  0  0  0  0
   -5.7160  -15.5420    8.3870 O   0  0  0  0  0  0  0  0  0  0  0  0
   -6.5420  -13.4790    7.9180 O   0  0  0  0  0  0  0  0  0  0  0  0
   -6.3270  -13.7460    3.9920 C   0  0  0  0  0  0  0  0  0  0  0  0
   -5.2680  -13.3410    3.1670 C   0  0  0  0  0  0  0  0  0  0  0  0
    0.3310  -12.7480    1.5780 N   0  0  0  0  0  0  0  0  0  0  0  0
    1.8410  -13.4830   -1.3590 C   0  0  0  0  0  0  0  0  0  0  0  0
    1.8290  -13.9810   -2.6650 C   0  0  0  0  0  0  0  0  0  0  0  0
    0.3564  -14.8036   -4.3176 H   0  0  0  0  0  0  0  0  0  0  0  0
    0.1334  -13.8802   -5.8421 H   0  0  0  0  0  0  0  0  0  0  0  0
    1.1008  -15.3938   -5.8421 H   0  0  0  0  0  0  0  0  0  0  0  0
    2.4822  -11.1065   -4.3721 H   0  0  0  0  0  0  0  0  0  0  0  0
    2.5260  -10.2173   -2.0471 H   0  0  0  0  0  0  0  0  0  0  0  0
    2.8480  -12.1812    0.8657 H   0  0  0  0  0  0  0  0  0  0  0  0
    2.4094  -10.5227    0.2135 H   0  0  0  0  0  0  0  0  0  0  0  0
    0.0014   -9.5608    0.9141 H   0  0  0  0  0  0  0  0  0  0  0  0
   -1.1405  -14.2928    3.0960 H   0  0  0  0  0  0  0  0  0  0  0  0
   -1.9981  -12.8876    3.8545 H   0  0  0  0  0  0  0  0  0  0  0  0
   -3.2921  -12.8313    1.5566 H   0  0  0  0  0  0  0  0  0  0  0  0
   -2.7538  -14.5642    1.4757 H   0  0  0  0  0  0  0  0  0  0  0  0
   -3.1220  -15.9265    3.7291 H   0  0  0  0  0  0  0  0  0  0  0  0
   -4.9994  -16.6398    5.1903 H   0  0  0  0  0  0  0  0  0  0  0  0
   -8.4121  -16.1238    3.6841 H   0  0  0  0  0  0  0  0  0  0  0  0
  -10.4093  -17.0377    4.8394 H   0  0  0  0  0  0  0  0  0  0  0  0
  -10.5812  -16.9054    7.3264 H   0  0  0  0  0  0  0  0  0  0  0  0
   -8.7541  -15.8384    8.6306 H   0  0  0  0  0  0  0  0  0  0  0  0
   -7.2231  -13.1129    4.0707 H   0  0  0  0  0  0  0  0  0  0  0  0
   -5.3465  -12.3996    2.6034 H   0  0  0  0  0  0  0  0  0  0  0  0
    1.6655  -14.1637   -0.5129 H   0  0  0  0  0  0  0  0  0  0  0  0
    1.6420  -15.0512   -2.8375 H   0  0  0  0  0  0  0  0  0  0  0  0
  1  2  1  0
  2  3  1  0
  3  4  2  0
  4  5  1  0
  5  6  2  0
  6  7  1  0
  7  8  1  0
  8  9  2  0
  9 10  1  0
 10 11  1  0
 11 12  1  0
 12 13  1  0
 13 14  1  0
 14 15  2  0
 15 16  1  0
 16 17  2  0
 17 18  1  0
 18 19  2  0
 19 20  1  0
 20 21  2  0
 21 22  1  0
 22 23  2  0
 23 24  1  0
 24 25  2  0
 24 26  1  0
 17 27  1  0
 27 28  2  0
 11 29  2  0
  6 30  1  0
 30 31  2  0
 31  3  1  0
 29  8  1  0
 28 14  1  0
 23 18  1  0
  1 32  1  0
  1 33  1  0
  1 34  1  0
  4 35  1  0
  5 36  1  0
  7 37  1  0
  7 38  1  0
  9 39  1  0
 12 40  1  0
 12 41  1  0
 13 42  1  0
 13 43  1  0
 15 44  1  0
 16 45  1  0
 19 46  1  0
 20 47  1  0
 21 48  1  0
 22 49  1  0
 27 50  1  0
 28 51  1  0
 30 52  1  0
 31 53  1  0
M  CHG  2  10  -1  26  -1
M  END
>  <meeko>  (3) 
{"is_sidechain": [false], "free_energy": -8.062, "intermolecular_energy": -11.632, "internal_energy": -0.952}

$$$$
LIB_CXKIPYCVARNYCW__M_PUB_ALL__e8__s20260927
     RDKit          3D

 53 56  0  0  0  0  0  0  0  0999 V2000
   17.9040  -18.2330   10.7510 C   0  0  0  0  0  0  0  0  0  0  0  0
   17.2600  -18.9410   11.8030 O   0  0  0  0  0  0  0  0  0  0  0  0
   16.1590  -18.3370   12.3510 C   0  0  0  0  0  0  0  0  0  0  0  0
   16.1570  -17.4710   13.4430 C   0  0  0  0  0  0  0  0  0  0  0  0
   14.9560  -16.9230   13.9040 C   0  0  0  0  0  0  0  0  0  0  0  0
   13.7390  -17.2190   13.2740 C   0  0  0  0  0  0  0  0  0  0  0  0
   12.4360  -16.6440   13.7950 C   0  0  0  0  0  0  0  0  0  0  0  0
   12.0390  -15.3520   13.1740 C   0  0  0  0  0  0  0  0  0  0  0  0
   10.9550  -15.0460   12.3690 C   0  0  0  0  0  0  0  0  0  0  0  0
   11.0140  -13.7350   12.0550 N   0  0  0  0  0  0  0  0  0  0  0  0
   12.1270  -13.2410   12.6390 C   0  0  0  0  0  0  0  0  0  0  0  0
   12.5950  -11.8400   12.5330 C   0  0  0  0  0  0  0  0  0  0  0  0
   13.8840  -11.7360   11.7150 C   0  0  0  0  0  0  0  0  0  0  0  0
   14.5130  -10.3620   11.8120 C   0  0  0  0  0  0  0  0  0  0  0  0
   15.7200  -10.1860   12.4970 C   0  0  0  0  0  0  0  0  0  0  0  0
   16.2860   -8.9120   12.6220 C   0  0  0  0  0  0  0  0  0  0  0  0
   15.6640   -7.7770   12.0720 C   0  0  0  0  0  0  0  0  0  0  0  0
   16.2130   -6.4280   12.3210 C   0  0  0  0  0  0  0  0  0  0  0  0
   15.4250   -5.5200   13.0660 C   0  0  0  0  0  0  0  0  0  0  0  0
   15.8640   -4.2270   13.3640 C   0  0  0  0  0  0  0  0  0  0  0  0
   17.1120   -3.8050   12.9230 C   0  0  0  0  0  0  0  0  0  0  0  0
   17.9070   -4.6760   12.1830 C   0  0  0  0  0  0  0  0  0  0  0  0
   17.4720   -5.9820   11.8690 C   0  0  0  0  0  0  0  0  0  0  0  0
   18.4120   -6.8350   11.0660 C   0  0  0  0  0  0  0  0  0  0  0  0
   19.2100   -7.5720   11.7250 O   0  0  0  0  0  0  0  0  0  0  0  0
   18.3980   -6.6680    9.8070 O   0  0  0  0  0  0  0  0  0  0  0  0
   14.4680   -7.9690   11.3670 C   0  0  0  0  0  0  0  0  0  0  0  0
   13.8960   -9.2430   11.2400 C   0  0  0  0  0  0  0  0  0  0  0  0
   12.7530  -14.2110   13.3450 N   0  0  0  0  0  0  0  0  0  0  0  0
   13.7460  -18.1020   12.1860 C   0  0  0  0  0  0  0  0  0  0  0  0
   14.9480  -18.6530   11.7310 C   0  0  0  0  0  0  0  0  0  0  0  0
   18.5862  -17.4830   11.1777 H   0  0  0  0  0  0  0  0  0  0  0  0
   18.4763  -18.9386   10.1308 H   0  0  0  0  0  0  0  0  0  0  0  0
   17.1475  -17.7299   10.1308 H   0  0  0  0  0  0  0  0  0  0  0  0
   17.1031  -17.2178   13.9438 H   0  0  0  0  0  0  0  0  0  0  0  0
   14.9662  -16.2497   14.7738 H   0  0  0  0  0  0  0  0  0  0  0  0
   11.6373  -17.3761   13.6050 H   0  0  0  0  0  0  0  0  0  0  0  0
   12.5894  -16.4421   14.8654 H   0  0  0  0  0  0  0  0  0  0  0  0
   10.1776  -15.7518   12.0410 H   0  0  0  0  0  0  0  0  0  0  0  0
   11.8135  -11.2387   12.0454 H   0  0  0  0  0  0  0  0  0  0  0  0
   12.8011  -11.4689   13.5478 H   0  0  0  0  0  0  0  0  0  0  0  0
   14.6017  -12.4814   12.0882 H   0  0  0  0  0  0  0  0  0  0  0  0
   13.6305  -11.9179   10.6602 H   0  0  0  0  0  0  0  0  0  0  0  0
   16.2279  -11.0551   12.9406 H   0  0  0  0  0  0  0  0  0  0  0  0
   17.2374   -8.7961   13.1618 H   0  0  0  0  0  0  0  0  0  0  0  0
   14.4352   -5.8417   13.4222 H   0  0  0  0  0  0  0  0  0  0  0  0
   15.2242   -3.5465   13.9451 H   0  0  0  0  0  0  0  0  0  0  0  0
   17.4690   -2.7911   13.1566 H   0  0  0  0  0  0  0  0  0  0  0  0
   18.8950   -4.3396   11.8356 H   0  0  0  0  0  0  0  0  0  0  0  0
   13.9689   -7.1045   10.9049 H   0  0  0  0  0  0  0  0  0  0  0  0
   12.9536   -9.3643   10.6857 H   0  0  0  0  0  0  0  0  0  0  0  0
   12.8010  -18.3631   11.6872 H   0  0  0  0  0  0  0  0  0  0  0  0
   14.9397  -19.3434   10.8747 H   0  0  0  0  0  0  0  0  0  0  0  0
  1  2  1  0
  2  3  1  0
  3  4  2  0
  4  5  1  0
  5  6  2  0
  6  7  1  0
  7  8  1  0
  8  9  2  0
  9 10  1  0
 10 11  1  0
 11 12  1  0
 12 13  1  0
 13 14  1  0
 14 15  2  0
 15 16  1  0
 16 17  2  0
 17 18  1  0
 18 19  2  0
 19 20  1  0
 20 21  2  0
 21 22  1  0
 22 23  2  0
 23 24  1  0
 24 25  2  0
 24 26  1  0
 17 27  1  0
 27 28  2  0
 11 29  2  0
  6 30  1  0
 30 31  2  0
 31  3  1  0
 29  8  1  0
 28 14  1  0
 23 18  1  0
  1 32  1  0
  1 33  1  0
  1 34  1  0
  4 35  1  0
  5 36  1  0
  7 37  1  0
  7 38  1  0
  9 39  1  0
 12 40  1  0
 12 41  1  0
 13 42  1  0
 13 43  1  0
 15 44  1  0
 16 45  1  0
 19 46  1  0
 20 47  1  0
 21 48  1  0
 22 49  1  0
 27 50  1  0
 28 51  1  0
 30 52  1  0
 31 53  1  0
M  CHG  2  10  -1  26  -1
M  END
>  <meeko>  (4) 
{"is_sidechain": [false], "free_energy": -8.056, "intermolecular_energy": -11.735, "internal_energy": -0.84}

$$$$
LIB_CXKIPYCVARNYCW__M_PUB_ALL__e8__s20260927
     RDKit          3D

 53 56  0  0  0  0  0  0  0  0999 V2000
    3.7910  -11.0790   -5.5470 C   0  0  0  0  0  0  0  0  0  0  0  0
    2.6690  -10.8670   -4.7000 O   0  0  0  0  0  0  0  0  0  0  0  0
    2.3890  -11.8680   -3.8080 C   0  0  0  0  0  0  0  0  0  0  0  0
    2.3910  -11.7530   -2.4190 C   0  0  0  0  0  0  0  0  0  0  0  0
    2.0860  -12.8600   -1.6210 C   0  0  0  0  0  0  0  0  0  0  0  0
    1.7600  -14.0970   -2.1960 C   0  0  0  0  0  0  0  0  0  0  0  0
    1.4580  -15.3010   -1.3260 C   0  0  0  0  0  0  0  0  0  0  0  0
    0.0540  -15.3770   -0.8420 C   0  0  0  0  0  0  0  0  0  0  0  0
   -1.1360  -15.1990   -1.5260 C   0  0  0  0  0  0  0  0  0  0  0  0
   -2.1560  -15.3770   -0.6610 N   0  0  0  0  0  0  0  0  0  0  0  0
   -1.6070  -15.6390    0.5450 C   0  0  0  0  0  0  0  0  0  0  0  0
   -2.3670  -15.8740    1.7940 C   0  0  0  0  0  0  0  0  0  0  0  0
   -2.8680  -14.5640    2.4040 C   0  0  0  0  0  0  0  0  0  0  0  0
   -4.0480  -14.7790    3.3290 C   0  0  0  0  0  0  0  0  0  0  0  0
   -4.1200  -15.9280    4.1240 C   0  0  0  0  0  0  0  0  0  0  0  0
   -5.2270  -16.1500    4.9520 C   0  0  0  0  0  0  0  0  0  0  0  0
   -6.2940  -15.2360    5.0090 C   0  0  0  0  0  0  0  0  0  0  0  0
   -7.5060  -15.5480    5.7940 C   0  0  0  0  0  0  0  0  0  0  0  0
   -8.6050  -16.1230    5.1140 C   0  0  0  0  0  0  0  0  0  0  0  0
   -9.7880  -16.4660    5.7730 C   0  0  0  0  0  0  0  0  0  0  0  0
   -9.9060  -16.2420    7.1390 C   0  0  0  0  0  0  0  0  0  0  0  0
   -8.8420  -15.6730    7.8330 C   0  0  0  0  0  0  0  0  0  0  0  0
   -7.6430  -15.3150    7.1780 C   0  0  0  0  0  0  0  0  0  0  0  0
   -6.5620  -14.7080    8.0260 C   0  0  0  0  0  0  0  0  0  0  0  0
   -6.5190  -13.4380    8.0610 O   0  0  0  0  0  0  0  0  0  0  0  0
   -5.7270  -15.5100    8.5470 O   0  0  0  0  0  0  0  0  0  0  0  0
   -6.1990  -14.0760    4.2280 C   0  0  0  0  0  0  0  0  0  0  0  0
   -5.0930  -13.8510    3.3950 C   0  0  0  0  0  0  0  0  0  0  0  0
   -0.2580  -15.6650    0.4470 N   0  0  0  0  0  0  0  0  0  0  0  0
    1.7750  -14.2090   -3.5920 C   0  0  0  0  0  0  0  0  0  0  0  0
    2.0860  -13.1020   -4.3880 C   0  0  0  0  0  0  0  0  0  0  0  0
    4.6875  -11.2484   -4.9325 H   0  0  0  0  0  0  0  0  0  0  0  0
    3.6101  -11.9588   -6.1819 H   0  0  0  0  0  0  0  0  0  0  0  0
    3.9436  -10.1938   -6.1819 H   0  0  0  0  0  0  0  0  0  0  0  0
    2.6333  -10.7884   -1.9490 H   0  0  0  0  0  0  0  0  0  0  0  0
    2.1020  -12.7591   -0.5258 H   0  0  0  0  0  0  0  0  0  0  0  0
    1.6693  -16.2086   -1.9105 H   0  0  0  0  0  0  0  0  0  0  0  0
    2.0919  -15.2071   -0.4319 H   0  0  0  0  0  0  0  0  0  0  0  0
   -1.2336  -14.9539   -2.5939 H   0  0  0  0  0  0  0  0  0  0  0  0
   -3.2311  -16.5169    1.5703 H   0  0  0  0  0  0  0  0  0  0  0  0
   -1.6954  -16.3563    2.5195 H   0  0  0  0  0  0  0  0  0  0  0  0
   -2.0489  -14.1032    2.9756 H   0  0  0  0  0  0  0  0  0  0  0  0
   -3.1976  -13.9123    1.5814 H   0  0  0  0  0  0  0  0  0  0  0  0
   -3.3012  -16.6621    4.0984 H   0  0  0  0  0  0  0  0  0  0  0  0
   -5.2628  -17.0586    5.5710 H   0  0  0  0  0  0  0  0  0  0  0  0
   -8.5256  -16.3058    4.0322 H   0  0  0  0  0  0  0  0  0  0  0  0
  -10.6229  -16.9118    5.2125 H   0  0  0  0  0  0  0  0  0  0  0  0
  -10.8322  -16.5119    7.6675 H   0  0  0  0  0  0  0  0  0  0  0  0
   -8.9370  -15.4984    8.9149 H   0  0  0  0  0  0  0  0  0  0  0  0
   -7.0056  -13.3292    4.2690 H   0  0  0  0  0  0  0  0  0  0  0  0
   -5.0468  -12.9353    2.7873 H   0  0  0  0  0  0  0  0  0  0  0  0
    1.5407  -15.1739   -4.0654 H   0  0  0  0  0  0  0  0  0  0  0  0
    2.0921  -13.2042   -5.4832 H   0  0  0  0  0  0  0  0  0  0  0  0
  1  2  1  0
  2  3  1  0
  3  4  2  0
  4  5  1  0
  5  6  2  0
  6  7  1  0
  7  8  1  0
  8  9  2  0
  9 10  1  0
 10 11  1  0
 11 12  1  0
 12 13  1  0
 13 14  1  0
 14 15  2  0
 15 16  1  0
 16 17  2  0
 17 18  1  0
 18 19  2  0
 19 20  1  0
 20 21  2  0
 21 22  1  0
 22 23  2  0
 23 24  1  0
 24 25  2  0
 24 26  1  0
 17 27  1  0
 27 28  2  0
 11 29  2  0
  6 30  1  0
 30 31  2  0
 31  3  1  0
 29  8  1  0
 28 14  1  0
 23 18  1  0
  1 32  1  0
  1 33  1  0
  1 34  1  0
  4 35  1  0
  5 36  1  0
  7 37  1  0
  7 38  1  0
  9 39  1  0
 12 40  1  0
 12 41  1  0
 13 42  1  0
 13 43  1  0
 15 44  1  0
 16 45  1  0
 19 46  1  0
 20 47  1  0
 21 48  1  0
 22 49  1  0
 27 50  1  0
 28 51  1  0
 30 52  1  0
 31 53  1  0
M  CHG  2  10  -1  26  -1
M  END
>  <meeko>  (5) 
{"is_sidechain": [false], "free_energy": -8.044, "intermolecular_energy": -11.503, "internal_energy": -1.055}

$$$$
LIB_CXKIPYCVARNYCW__M_PUB_ALL__e8__s20260927
     RDKit          3D

 53 56  0  0  0  0  0  0  0  0999 V2000
   17.5640  -18.5340   11.9480 C   0  0  0  0  0  0  0  0  0  0  0  0
   16.4100  -19.0310   12.6170 O   0  0  0  0  0  0  0  0  0  0  0  0
   15.2800  -18.2630   12.5210 C   0  0  0  0  0  0  0  0  0  0  0  0
   14.1700  -18.5350   11.7230 C   0  0  0  0  0  0  0  0  0  0  0  0
   13.0770  -17.6620   11.7180 C   0  0  0  0  0  0  0  0  0  0  0  0
   13.0680  -16.5120   12.5190 C   0  0  0  0  0  0  0  0  0  0  0  0
   11.8930  -15.5550   12.4880 C   0  0  0  0  0  0  0  0  0  0  0  0
   12.2540  -14.1250   12.6830 C   0  0  0  0  0  0  0  0  0  0  0  0
   11.8830  -13.2390   13.6790 C   0  0  0  0  0  0  0  0  0  0  0  0
   12.4710  -12.0500   13.4330 N   0  0  0  0  0  0  0  0  0  0  0  0
   13.1770  -12.1900   12.2900 C   0  0  0  0  0  0  0  0  0  0  0  0
   13.9610  -11.1180   11.6360 C   0  0  0  0  0  0  0  0  0  0  0  0
   13.8210   -9.7860   12.3750 C   0  0  0  0  0  0  0  0  0  0  0  0
   14.9970   -8.8650   12.1200 C   0  0  0  0  0  0  0  0  0  0  0  0
   14.8010   -7.6280   11.4960 C   0  0  0  0  0  0  0  0  0  0  0  0
   15.8890   -6.7900   11.2240 C   0  0  0  0  0  0  0  0  0  0  0  0
   17.2020   -7.1620   11.5630 C   0  0  0  0  0  0  0  0  0  0  0  0
   18.3460   -6.3200   11.1570 C   0  0  0  0  0  0  0  0  0  0  0  0
   19.0170   -6.6500    9.9560 C   0  0  0  0  0  0  0  0  0  0  0  0
   20.1010   -5.9060    9.4840 C   0  0  0  0  0  0  0  0  0  0  0  0
   20.5460   -4.8030   10.2030 C   0  0  0  0  0  0  0  0  0  0  0  0
   19.9070   -4.4580   11.3910 C   0  0  0  0  0  0  0  0  0  0  0  0
   18.8150   -5.2060   11.8830 C   0  0  0  0  0  0  0  0  0  0  0  0
   18.2040   -4.7430   13.1740 C   0  0  0  0  0  0  0  0  0  0  0  0
   17.1750   -4.0030   13.0790 O   0  0  0  0  0  0  0  0  0  0  0  0
   18.8260   -5.0440   14.2400 O   0  0  0  0  0  0  0  0  0  0  0  0
   17.3830   -8.3920   12.2110 C   0  0  0  0  0  0  0  0  0  0  0  0
   16.2960   -9.2350   12.4830 C   0  0  0  0  0  0  0  0  0  0  0  0
   13.0740  -13.4590   11.8310 N   0  0  0  0  0  0  0  0  0  0  0  0
   14.1930  -16.2370   13.3070 C   0  0  0  0  0  0  0  0  0  0  0  0
   15.2870  -17.1080   13.3060 C   0  0  0  0  0  0  0  0  0  0  0  0
   18.3089  -18.2132   12.6911 H   0  0  0  0  0  0  0  0  0  0  0  0
   17.9927  -19.3273   11.3180 H   0  0  0  0  0  0  0  0  0  0  0  0
   17.2822  -17.6775   11.3180 H   0  0  0  0  0  0  0  0  0  0  0  0
   14.1535  -19.4384   11.0956 H   0  0  0  0  0  0  0  0  0  0  0  0
   12.2114  -17.8815   11.0756 H   0  0  0  0  0  0  0  0  0  0  0  0
   11.3960  -15.6534   11.5116 H   0  0  0  0  0  0  0  0  0  0  0  0
   11.2439  -15.8307   13.3322 H   0  0  0  0  0  0  0  0  0  0  0  0
   11.2208  -13.4657   14.5276 H   0  0  0  0  0  0  0  0  0  0  0  0
   15.0217  -11.4090   11.6229 H   0  0  0  0  0  0  0  0  0  0  0  0
   13.5767  -10.9860   10.6138 H   0  0  0  0  0  0  0  0  0  0  0  0
   12.9006   -9.2878   12.0364 H   0  0  0  0  0  0  0  0  0  0  0  0
   13.7863   -9.9996   13.4535 H   0  0  0  0  0  0  0  0  0  0  0  0
   13.7850   -7.3118   11.2172 H   0  0  0  0  0  0  0  0  0  0  0  0
   15.7131   -5.8205   10.7350 H   0  0  0  0  0  0  0  0  0  0  0  0
   18.6745   -7.5195    9.3758 H   0  0  0  0  0  0  0  0  0  0  0  0
   20.6006   -6.1921    8.5467 H   0  0  0  0  0  0  0  0  0  0  0  0
   21.3955   -4.2078    9.8368 H   0  0  0  0  0  0  0  0  0  0  0  0
   20.2603   -3.5843   11.9583 H   0  0  0  0  0  0  0  0  0  0  0  0
   18.3951   -8.7011   12.5112 H   0  0  0  0  0  0  0  0  0  0  0  0
   16.4668  -10.1976   12.9873 H   0  0  0  0  0  0  0  0  0  0  0  0
   14.2160  -15.3308   13.9301 H   0  0  0  0  0  0  0  0  0  0  0  0
   16.1633  -16.8807   13.9308 H   0  0  0  0  0  0  0  0  0  0  0  0
  1  2  1  0
  2  3  1  0
  3  4  2  0
  4  5  1  0
  5  6  2  0
  6  7  1  0
  7  8  1  0
  8  9  2  0
  9 10  1  0
 10 11  1  0
 11 12  1  0
 12 13  1  0
 13 14  1  0
 14 15  2  0
 15 16  1  0
 16 17  2  0
 17 18  1  0
 18 19  2  0
 19 20  1  0
 20 21  2  0
 21 22  1  0
 22 23  2  0
 23 24  1  0
 24 25  2  0
 24 26  1  0
 17 27  1  0
 27 28  2  0
 11 29  2  0
  6 30  1  0
 30 31  2  0
 31  3  1  0
 29  8  1  0
 28 14  1  0
 23 18  1  0
  1 32  1  0
  1 33  1  0
  1 34  1  0
  4 35  1  0
  5 36  1  0
  7 37  1  0
  7 38  1  0
  9 39  1  0
 12 40  1  0
 12 41  1  0
 13 42  1  0
 13 43  1  0
 15 44  1  0
 16 45  1  0
 19 46  1  0
 20 47  1  0
 21 48  1  0
 22 49  1  0
 27 50  1  0
 28 51  1  0
 30 52  1  0
 31 53  1  0
M  CHG  2  10  -1  26  -1
M  END
>  <meeko>  (6) 
{"is_sidechain": [false], "free_energy": -7.998, "intermolecular_energy": -11.505, "internal_energy": -0.985}

$$$$
LIB_CXKIPYCVARNYCW__M_PUB_ALL__e8__s20260927
     RDKit          3D

 53 56  0  0  0  0  0  0  0  0999 V2000
    1.9250  -17.8320   -0.5820 C   0  0  0  0  0  0  0  0  0  0  0  0
    0.9780  -18.1390    0.4330 O   0  0  0  0  0  0  0  0  0  0  0  0
   -0.1000  -17.2980    0.5280 C   0  0  0  0  0  0  0  0  0  0  0  0
   -1.1990  -17.4670    1.3680 C   0  0  0  0  0  0  0  0  0  0  0  0
   -2.2360  -16.5290    1.3640 C   0  0  0  0  0  0  0  0  0  0  0  0
   -2.1870  -15.4010    0.5330 C   0  0  0  0  0  0  0  0  0  0  0  0
   -3.3280  -14.4030    0.5130 C   0  0  0  0  0  0  0  0  0  0  0  0
   -2.9940  -13.0710    1.0850 C   0  0  0  0  0  0  0  0  0  0  0  0
   -3.2200  -12.5620    2.3520 C   0  0  0  0  0  0  0  0  0  0  0  0
   -2.7300  -11.3050    2.4010 N   0  0  0  0  0  0  0  0  0  0  0  0
   -2.2280  -11.0320    1.1770 C   0  0  0  0  0  0  0  0  0  0  0  0
   -1.6120   -9.7460    0.7760 C   0  0  0  0  0  0  0  0  0  0  0  0
   -0.1090   -9.7280    1.0590 C   0  0  0  0  0  0  0  0  0  0  0  0
    0.6900  -10.3720   -0.0550 C   0  0  0  0  0  0  0  0  0  0  0  0
    1.4400  -11.5270    0.1920 C   0  0  0  0  0  0  0  0  0  0  0  0
    2.2090  -12.1030   -0.8250 C   0  0  0  0  0  0  0  0  0  0  0  0
    2.2580  -11.5440   -2.1140 C   0  0  0  0  0  0  0  0  0  0  0  0
    3.1710  -12.0960   -3.1360 C   0  0  0  0  0  0  0  0  0  0  0  0
    4.4310  -11.4750   -3.3020 C   0  0  0  0  0  0  0  0  0  0  0  0
    5.3670  -11.9340   -4.2330 C   0  0  0  0  0  0  0  0  0  0  0  0
    5.0670  -13.0330   -5.0270 C   0  0  0  0  0  0  0  0  0  0  0  0
    3.8320  -13.6610   -4.8890 C   0  0  0  0  0  0  0  0  0  0  0  0
    2.8750  -13.2040   -3.9570 C   0  0  0  0  0  0  0  0  0  0  0  0
    1.5770  -13.9570   -3.8940 C   0  0  0  0  0  0  0  0  0  0  0  0
    0.7210  -13.6830   -4.7930 O   0  0  0  0  0  0  0  0  0  0  0  0
    1.4090  -14.7210   -2.8940 O   0  0  0  0  0  0  0  0  0  0  0  0
    1.4820  -10.4020   -2.3560 C   0  0  0  0  0  0  0  0  0  0  0  0
    0.7110   -9.8190   -1.3410 C   0  0  0  0  0  0  0  0  0  0  0  0
   -2.3610  -12.1080    0.3670 N   0  0  0  0  0  0  0  0  0  0  0  0
   -1.0860  -15.2460   -0.3190 C   0  0  0  0  0  0  0  0  0  0  0  0
   -0.0530  -16.1880   -0.3180 C   0  0  0  0  0  0  0  0  0  0  0  0
    2.8736  -17.5245   -0.1176 H   0  0  0  0  0  0  0  0  0  0  0  0
    2.0940  -18.7214   -1.2069 H   0  0  0  0  0  0  0  0  0  0  0  0
    1.5401  -17.0126   -1.2069 H   0  0  0  0  0  0  0  0  0  0  0  0
   -1.2508  -18.3399    2.0354 H   0  0  0  0  0  0  0  0  0  0  0  0
   -3.1038  -16.6785    2.0232 H   0  0  0  0  0  0  0  0  0  0  0  0
   -3.6403  -14.2594   -0.5319 H   0  0  0  0  0  0  0  0  0  0  0  0
   -4.1227  -14.8244    1.1461 H   0  0  0  0  0  0  0  0  0  0  0  0
   -3.7151  -13.0919    3.1791 H   0  0  0  0  0  0  0  0  0  0  0  0
   -1.7741   -9.5933   -0.3012 H   0  0  0  0  0  0  0  0  0  0  0  0
   -2.0817   -8.9424    1.3622 H   0  0  0  0  0  0  0  0  0  0  0  0
    0.2179   -8.6838    1.1716 H   0  0  0  0  0  0  0  0  0  0  0  0
    0.0686  -10.3042    1.9790 H   0  0  0  0  0  0  0  0  0  0  0  0
    1.4250  -11.9850    1.1920 H   0  0  0  0  0  0  0  0  0  0  0  0
    2.7881  -13.0135   -0.6113 H   0  0  0  0  0  0  0  0  0  0  0  0
    4.6820  -10.6038   -2.6791 H   0  0  0  0  0  0  0  0  0  0  0  0
    6.3375  -11.4266   -4.3363 H   0  0  0  0  0  0  0  0  0  0  0  0
    5.7991  -13.4045   -5.7591 H   0  0  0  0  0  0  0  0  0  0  0  0
    3.5970  -14.5314   -5.5193 H   0  0  0  0  0  0  0  0  0  0  0  0
    1.4781   -9.9551   -3.3611 H   0  0  0  0  0  0  0  0  0  0  0  0
    0.1170   -8.9187   -1.5568 H   0  0  0  0  0  0  0  0  0  0  0  0
   -1.0339  -14.3781   -0.9928 H   0  0  0  0  0  0  0  0  0  0  0  0
    0.8065  -16.0533   -0.9912 H   0  0  0  0  0  0  0  0  0  0  0  0
  1  2  1  0
  2  3  1  0
  3  4  2  0
  4  5  1  0
  5  6  2  0
  6  7  1  0
  7  8  1  0
  8  9  2  0
  9 10  1  0
 10 11  1  0
 11 12  1  0
 12 13  1  0
 13 14  1  0
 14 15  2  0
 15 16  1  0
 16 17  2  0
 17 18  1  0
 18 19  2  0
 19 20  1  0
 20 21  2  0
 21 22  1  0
 22 23  2  0
 23 24  1  0
 24 25  2  0
 24 26  1  0
 17 27  1  0
 27 28  2  0
 11 29  2  0
  6 30  1  0
 30 31  2  0
 31  3  1  0
 29  8  1  0
 28 14  1  0
 23 18  1  0
  1 32  1  0
  1 33  1  0
  1 34  1  0
  4 35  1  0
  5 36  1  0
  7 37  1  0
  7 38  1  0
  9 39  1  0
 12 40  1  0
 12 41  1  0
 13 42  1  0
 13 43  1  0
 15 44  1  0
 16 45  1  0
 19 46  1  0
 20 47  1  0
 21 48  1  0
 22 49  1  0
 27 50  1  0
 28 51  1  0
 30 52  1  0
 31 53  1  0
M  CHG  2  10  -1  26  -1
M  END
>  <meeko>  (7) 
{"is_sidechain": [false], "free_energy": -7.924, "intermolecular_energy": -10.739, "internal_energy": -1.643}

$$$$
LIB_CXKIPYCVARNYCW__M_PUB_ALL__e8__s20260927
     RDKit          3D

 53 56  0  0  0  0  0  0  0  0999 V2000
   18.1140  -18.5800    9.8460 C   0  0  0  0  0  0  0  0  0  0  0  0
   17.1130  -19.3330    9.1710 O   0  0  0  0  0  0  0  0  0  0  0  0
   15.8800  -19.3680    9.7670 C   0  0  0  0  0  0  0  0  0  0  0  0
   14.6620  -19.5690    9.1200 C   0  0  0  0  0  0  0  0  0  0  0  0
   13.4700  -19.5810    9.8520 C   0  0  0  0  0  0  0  0  0  0  0  0
   13.4760  -19.4060   11.2430 C   0  0  0  0  0  0  0  0  0  0  0  0
   12.1780  -19.3920   12.0270 C   0  0  0  0  0  0  0  0  0  0  0  0
   12.1000  -18.3390   13.0740 C   0  0  0  0  0  0  0  0  0  0  0  0
   12.1600  -18.4440   14.4520 C   0  0  0  0  0  0  0  0  0  0  0  0
   12.0520  -17.2070   14.9810 N   0  0  0  0  0  0  0  0  0  0  0  0
   11.9050  -16.3510   13.9460 C   0  0  0  0  0  0  0  0  0  0  0  0
   11.7240  -14.8860   14.0720 C   0  0  0  0  0  0  0  0  0  0  0  0
   11.5260  -14.2230   12.7080 C   0  0  0  0  0  0  0  0  0  0  0  0
   12.3680  -12.9730   12.5530 C   0  0  0  0  0  0  0  0  0  0  0  0
   12.1390  -11.8630   13.3720 C   0  0  0  0  0  0  0  0  0  0  0  0
   12.8890  -10.6930   13.2070 C   0  0  0  0  0  0  0  0  0  0  0  0
   13.8850  -10.5940   12.2190 C   0  0  0  0  0  0  0  0  0  0  0  0
   14.5790   -9.3120   11.9810 C   0  0  0  0  0  0  0  0  0  0  0  0
   13.8910   -8.3120   11.2550 C   0  0  0  0  0  0  0  0  0  0  0  0
   14.4590   -7.0630   10.9910 C   0  0  0  0  0  0  0  0  0  0  0  0
   15.7380   -6.7770   11.4490 C   0  0  0  0  0  0  0  0  0  0  0  0
   16.4420   -7.7450   12.1620 C   0  0  0  0  0  0  0  0  0  0  0  0
   15.8820   -9.0130   12.4300 C   0  0  0  0  0  0  0  0  0  0  0  0
   16.7310   -9.9780   13.2060 C   0  0  0  0  0  0  0  0  0  0  0  0
   16.6450   -9.9140   14.4730 O   0  0  0  0  0  0  0  0  0  0  0  0
   17.5340  -10.6990   12.5370 O   0  0  0  0  0  0  0  0  0  0  0  0
   14.1230  -11.7220   11.4220 C   0  0  0  0  0  0  0  0  0  0  0  0
   13.3730  -12.8960   11.5820 C   0  0  0  0  0  0  0  0  0  0  0  0
   11.9550  -17.0230   12.7730 N   0  0  0  0  0  0  0  0  0  0  0  0
   14.7020  -19.1900   11.8850 C   0  0  0  0  0  0  0  0  0  0  0  0
   15.8910  -19.1730   11.1510 C   0  0  0  0  0  0  0  0  0  0  0  0
   17.9788  -18.6817   10.9329 H   0  0  0  0  0  0  0  0  0  0  0  0
   19.1084  -18.9558    9.5635 H   0  0  0  0  0  0  0  0  0  0  0  0
   18.0286  -17.5203    9.5635 H   0  0  0  0  0  0  0  0  0  0  0  0
   14.6380  -19.7186    8.0305 H   0  0  0  0  0  0  0  0  0  0  0  0
   12.5140  -19.7299    9.3286 H   0  0  0  0  0  0  0  0  0  0  0  0
   11.3510  -19.2342   11.3191 H   0  0  0  0  0  0  0  0  0  0  0  0
   12.1188  -20.3577   12.5503 H   0  0  0  0  0  0  0  0  0  0  0  0
   12.2762  -19.3783   15.0208 H   0  0  0  0  0  0  0  0  0  0  0  0
   10.8404  -14.6880   14.6966 H   0  0  0  0  0  0  0  0  0  0  0  0
   12.6315  -14.4657   14.5300 H   0  0  0  0  0  0  0  0  0  0  0  0
   11.8066  -14.9392   11.9217 H   0  0  0  0  0  0  0  0  0  0  0  0
   10.4687  -13.9312   12.6241 H   0  0  0  0  0  0  0  0  0  0  0  0
   11.3641  -11.9097   14.1513 H   0  0  0  0  0  0  0  0  0  0  0  0
   12.6953   -9.8324   13.8641 H   0  0  0  0  0  0  0  0  0  0  0  0
   12.8765   -8.5243   10.8865 H   0  0  0  0  0  0  0  0  0  0  0  0
   13.8948   -6.3091   10.4224 H   0  0  0  0  0  0  0  0  0  0  0  0
   16.1916   -5.7947   11.2507 H   0  0  0  0  0  0  0  0  0  0  0  0
   17.4554   -7.5166   12.5237 H   0  0  0  0  0  0  0  0  0  0  0  0
   14.9126  -11.6857   10.6570 H   0  0  0  0  0  0  0  0  0  0  0  0
   13.5765  -13.7645   10.9383 H   0  0  0  0  0  0  0  0  0  0  0  0
   14.7290  -19.0328   12.9734 H   0  0  0  0  0  0  0  0  0  0  0  0
   16.8469  -19.0042   11.6685 H   0  0  0  0  0  0  0  0  0  0  0  0
  1  2  1  0
  2  3  1  0
  3  4  2  0
  4  5  1  0
  5  6  2  0
  6  7  1  0
  7  8  1  0
  8  9  2  0
  9 10  1  0
 10 11  1  0
 11 12  1  0
 12 13  1  0
 13 14  1  0
 14 15  2  0
 15 16  1  0
 16 17  2  0
 17 18  1  0
 18 19  2  0
 19 20  1  0
 20 21  2  0
 21 22  1  0
 22 23  2  0
 23 24  1  0
 24 25  2  0
 24 26  1  0
 17 27  1  0
 27 28  2  0
 11 29  2  0
  6 30  1  0
 30 31  2  0
 31  3  1  0
 29  8  1  0
 28 14  1  0
 23 18  1  0
  1 32  1  0
  1 33  1  0
  1 34  1  0
  4 35  1  0
  5 36  1  0
  7 37  1  0
  7 38  1  0
  9 39  1  0
 12 40  1  0
 12 41  1  0
 13 42  1  0
 13 43  1  0
 15 44  1  0
 16 45  1  0
 19 46  1  0
 20 47  1  0
 21 48  1  0
 22 49  1  0
 27 50  1  0
 28 51  1  0
 30 52  1  0
 31 53  1  0
M  CHG  2  10  -1  26  -1
M  END
>  <meeko>  (8) 
{"is_sidechain": [false], "free_energy": -7.747, "intermolecular_energy": -10.917, "internal_energy": -1.206}

$$$$
LIB_CXKIPYCVARNYCW__M_PUB_ALL__e8__s20260927
     RDKit          3D

 53 56  0  0  0  0  0  0  0  0999 V2000
   -9.6920  -16.5410    5.5570 C   0  0  0  0  0  0  0  0  0  0  0  0
   -9.5570  -16.1810    6.9270 O   0  0  0  0  0  0  0  0  0  0  0  0
   -8.2830  -16.1960    7.4310 C   0  0  0  0  0  0  0  0  0  0  0  0
   -7.7600  -17.1450    8.3080 C   0  0  0  0  0  0  0  0  0  0  0  0
   -6.4370  -17.0410    8.7490 C   0  0  0  0  0  0  0  0  0  0  0  0
   -5.6100  -15.9970    8.3110 C   0  0  0  0  0  0  0  0  0  0  0  0
   -4.1850  -15.8740    8.8140 C   0  0  0  0  0  0  0  0  0  0  0  0
   -3.1670  -16.5360    7.9550 C   0  0  0  0  0  0  0  0  0  0  0  0
   -1.8820  -16.9520    8.2540 C   0  0  0  0  0  0  0  0  0  0  0  0
   -1.3440  -17.5080    7.1480 N   0  0  0  0  0  0  0  0  0  0  0  0
   -2.2740  -17.4170    6.1720 C   0  0  0  0  0  0  0  0  0  0  0  0
   -2.0940  -17.8830    4.7780 C   0  0  0  0  0  0  0  0  0  0  0  0
   -3.3740  -17.7150    3.9570 C   0  0  0  0  0  0  0  0  0  0  0  0
   -3.3950  -16.4070    3.1930 C   0  0  0  0  0  0  0  0  0  0  0  0
   -2.6790  -16.2780    1.9980 C   0  0  0  0  0  0  0  0  0  0  0  0
   -2.6650  -15.0610    1.3080 C   0  0  0  0  0  0  0  0  0  0  0  0
   -3.3600  -13.9370    1.7890 C   0  0  0  0  0  0  0  0  0  0  0  0
   -3.2320  -12.6300    1.1120 C   0  0  0  0  0  0  0  0  0  0  0  0
   -4.1930  -12.2970    0.1300 C   0  0  0  0  0  0  0  0  0  0  0  0
   -4.1630  -11.0800   -0.5550 C   0  0  0  0  0  0  0  0  0  0  0  0
   -3.1640  -10.1550   -0.2740 C   0  0  0  0  0  0  0  0  0  0  0  0
   -2.2020  -10.4590    0.6850 C   0  0  0  0  0  0  0  0  0  0  0  0
   -2.2160  -11.6890    1.3790 C   0  0  0  0  0  0  0  0  0  0  0  0
   -1.1290  -11.9090    2.3910 C   0  0  0  0  0  0  0  0  0  0  0  0
   -0.1150  -12.5670    1.9960 O   0  0  0  0  0  0  0  0  0  0  0  0
   -1.3610  -11.5120    3.5740 O   0  0  0  0  0  0  0  0  0  0  0  0
   -4.0950  -14.0860    2.9730 C   0  0  0  0  0  0  0  0  0  0  0  0
   -4.1110  -15.3030    3.6690 C   0  0  0  0  0  0  0  0  0  0  0  0
   -3.4020  -16.8470    6.6550 N   0  0  0  0  0  0  0  0  0  0  0  0
   -6.1470  -15.0390    7.4410 C   0  0  0  0  0  0  0  0  0  0  0  0
   -7.4710  -15.1420    7.0070 C   0  0  0  0  0  0  0  0  0  0  0  0
  -10.0774  -17.5687    5.4842 H   0  0  0  0  0  0  0  0  0  0  0  0
  -10.3924  -15.8509    5.0639 H   0  0  0  0  0  0  0  0  0  0  0  0
   -8.7105  -16.4817    5.0639 H   0  0  0  0  0  0  0  0  0  0  0  0
   -8.3897  -17.9779    8.6541 H   0  0  0  0  0  0  0  0  0  0  0  0
   -6.0392  -17.7895    9.4501 H   0  0  0  0  0  0  0  0  0  0  0  0
   -3.9354  -14.8047    8.8802 H   0  0  0  0  0  0  0  0  0  0  0  0
   -4.1523  -16.3852    9.7875 H   0  0  0  0  0  0  0  0  0  0  0  0
   -1.3829  -16.8473    9.2286 H   0  0  0  0  0  0  0  0  0  0  0  0
   -1.2893  -17.2989    4.3077 H   0  0  0  0  0  0  0  0  0  0  0  0
   -1.8402  -18.9530    4.8035 H   0  0  0  0  0  0  0  0  0  0  0  0
   -3.4465  -18.5457    3.2396 H   0  0  0  0  0  0  0  0  0  0  0  0
   -4.2250  -17.7132    4.6540 H   0  0  0  0  0  0  0  0  0  0  0  0
   -2.1234  -17.1391    1.5983 H   0  0  0  0  0  0  0  0  0  0  0  0
   -2.0980  -14.9816    0.3687 H   0  0  0  0  0  0  0  0  0  0  0  0
   -4.9896  -13.0192   -0.1020 H   0  0  0  0  0  0  0  0  0  0  0  0
   -4.9268  -10.8545   -1.3138 H   0  0  0  0  0  0  0  0  0  0  0  0
   -3.1340   -9.1919   -0.8045 H   0  0  0  0  0  0  0  0  0  0  0  0
   -1.4134   -9.7250    0.9073 H   0  0  0  0  0  0  0  0  0  0  0  0
   -4.6695  -13.2330    3.3632 H   0  0  0  0  0  0  0  0  0  0  0  0
   -4.6923  -15.3908    4.5987 H   0  0  0  0  0  0  0  0  0  0  0  0
   -5.5226  -14.2010    7.0977 H   0  0  0  0  0  0  0  0  0  0  0  0
   -7.8789  -14.3834    6.3228 H   0  0  0  0  0  0  0  0  0  0  0  0
  1  2  1  0
  2  3  1  0
  3  4  2  0
  4  5  1  0
  5  6  2  0
  6  7  1  0
  7  8  1  0
  8  9  2  0
  9 10  1  0
 10 11  1  0
 11 12  1  0
 12 13  1  0
 13 14  1  0
 14 15  2  0
 15 16  1  0
 16 17  2  0
 17 18  1  0
 18 19  2  0
 19 20  1  0
 20 21  2  0
 21 22  1  0
 22 23  2  0
 23 24  1  0
 24 25  2  0
 24 26  1  0
 17 27  1  0
 27 28  2  0
 11 29  2  0
  6 30  1  0
 30 31  2  0
 31  3  1  0
 29  8  1  0
 28 14  1  0
 23 18  1  0
  1 32  1  0
  1 33  1  0
  1 34  1  0
  4 35  1  0
  5 36  1  0
  7 37  1  0
  7 38  1  0
  9 39  1  0
 12 40  1  0
 12 41  1  0
 13 42  1  0
 13 43  1  0
 15 44  1  0
 16 45  1  0
 19 46  1  0
 20 47  1  0
 21 48  1  0
 22 49  1  0
 27 50  1  0
 28 51  1  0
 30 52  1  0
 31 53  1  0
M  CHG  2  10  -1  26  -1
M  END
>  <meeko>  (9) 
{"is_sidechain": [false], "free_energy": -7.711, "intermolecular_energy": -10.663, "internal_energy": -1.406}

$$$$
