LIB_WKMQGQZPDSFACZ__M_PUB_ALL__e8__s20260927
     RDKit          3D

 28 29  0  0  0  0  0  0  0  0999 V2000
    0.3790   -9.1900    1.0680 O   0  0  0  0  0  0  0  0  0  0  0  0
   -0.1030   -9.9530    0.2210 C   0  0  0  0  0  0  0  0  0  0  0  0
    0.6760  -10.1840   -1.0360 C   0  0  0  0  0  0  0  0  0  0  0  0
    1.4320  -11.2570   -1.3110 C   0  0  0  0  0  0  0  0  0  0  0  0
    2.2040  -11.4220   -2.5580 C   0  0  0  0  0  0  0  0  0  0  0  0
    2.5490  -10.2750   -3.2710 C   0  0  0  0  0  0  0  0  0  0  0  0
    3.2490  -10.3880   -4.4670 C   0  0  0  0  0  0  0  0  0  0  0  0
    3.5970  -11.6520   -4.9620 C   0  0  0  0  0  0  0  0  0  0  0  0
    3.2730  -12.8550   -4.3070 C   0  0  0  0  0  0  0  0  0  0  0  0
    3.5920  -13.9990   -4.7800 O   0  0  0  0  0  0  0  0  0  0  0  0
    2.5630  -12.6820   -3.0910 C   0  0  0  0  0  0  0  0  0  0  0  0
   -1.3350  -10.7370    0.5290 C   0  0  0  0  0  0  0  0  0  0  0  0
   -2.4580  -10.3810   -0.2380 C   0  0  0  0  0  0  0  0  0  0  0  0
   -3.6810  -11.0380   -0.0730 C   0  0  0  0  0  0  0  0  0  0  0  0
   -3.8590  -12.0800    0.8420 C   0  0  0  0  0  0  0  0  0  0  0  0
   -4.9810  -12.6810    0.9880 O   0  0  0  0  0  0  0  0  0  0  0  0
   -2.6740  -12.4030    1.5780 C   0  0  0  0  0  0  0  0  0  0  0  0
   -1.3780  -11.7900    1.4770 C   0  0  0  0  0  0  0  0  0  0  0  0
   -0.3800  -12.1940    2.1760 O   0  0  0  0  0  0  0  0  0  0  0  0
    0.6235   -9.4004   -1.8062 H   0  0  0  0  0  0  0  0  0  0  0  0
    1.4795  -12.0619   -0.5628 H   0  0  0  0  0  0  0  0  0  0  0  0
    2.2681   -9.2827   -2.8883 H   0  0  0  0  0  0  0  0  0  0  0  0
    3.5303   -9.4833   -5.0259 H   0  0  0  0  0  0  0  0  0  0  0  0
    4.1514  -11.7068   -5.9105 H   0  0  0  0  0  0  0  0  0  0  0  0
    2.2742  -13.5822   -2.5287 H   0  0  0  0  0  0  0  0  0  0  0  0
   -2.3732   -9.5729   -0.9795 H   0  0  0  0  0  0  0  0  0  0  0  0
   -4.5371  -10.7226   -0.6874 H   0  0  0  0  0  0  0  0  0  0  0  0
   -2.7668  -13.2193    2.3094 H   0  0  0  0  0  0  0  0  0  0  0  0
  1  2  2  0
  2  3  1  0
  3  4  2  0
  4  5  1  0
  5  6  2  0
  6  7  1  0
  7  8  2  0
  8  9  1  0
  9 10  1  0
  9 11  2  0
  2 12  1  0
 12 13  2  0
 13 14  1  0
 14 15  2  0
 15 16  1  0
 15 17  1  0
 17 18  2  0
 18 19  1  0
 11  5  1  0
 18 12  1  0
  3 20  1  0
  4 21  1  0
  6 22  1  0
  7 23  1  0
  8 24  1  0
 11 25  1  0
 13 26  1  0
 14 27  1  0
 17 28  1  0
M  CHG  3  10  -1  16  -1  19  -1
M  END
>  <meeko>  (1) 
{"is_sidechain": [false], "free_energy": -6.79, "intermolecular_energy": -7.981, "internal_energy": -0.531}

$$$$
LIB_WKMQGQZPDSFACZ__M_PUB_ALL__e8__s20260927
     RDKit          3D

 28 29  0  0  0  0  0  0  0  0999 V2000
   13.8670   -9.1510   10.8750 O   0  0  0  0  0  0  0  0  0  0  0  0
   14.3420   -9.8810   11.7540 C   0  0  0  0  0  0  0  0  0  0  0  0
   15.5410   -9.3870   12.5010 C   0  0  0  0  0  0  0  0  0  0  0  0
   16.6020  -10.1200   12.8690 C   0  0  0  0  0  0  0  0  0  0  0  0
   17.7470   -9.5860   13.6300 C   0  0  0  0  0  0  0  0  0  0  0  0
   18.2790  -10.3730   14.6510 C   0  0  0  0  0  0  0  0  0  0  0  0
   19.3390   -9.8940   15.4120 C   0  0  0  0  0  0  0  0  0  0  0  0
   19.8650   -8.6190   15.1640 C   0  0  0  0  0  0  0  0  0  0  0  0
   19.3730   -7.7620   14.1620 C   0  0  0  0  0  0  0  0  0  0  0  0
   19.8610   -6.5980   13.9570 O   0  0  0  0  0  0  0  0  0  0  0  0
   18.2960   -8.3010   13.4130 C   0  0  0  0  0  0  0  0  0  0  0  0
   13.6320  -11.1290   12.1610 C   0  0  0  0  0  0  0  0  0  0  0  0
   14.0250  -12.2780   11.4520 C   0  0  0  0  0  0  0  0  0  0  0  0
   13.4590  -13.5260   11.7310 C   0  0  0  0  0  0  0  0  0  0  0  0
   12.4900  -13.7080   12.7230 C   0  0  0  0  0  0  0  0  0  0  0  0
   11.9760  -14.8550   12.9770 O   0  0  0  0  0  0  0  0  0  0  0  0
   12.1480  -12.5030   13.4160 C   0  0  0  0  0  0  0  0  0  0  0  0
   12.6740  -11.1830   13.2030 C   0  0  0  0  0  0  0  0  0  0  0  0
   12.3040  -10.1820   13.9180 O   0  0  0  0  0  0  0  0  0  0  0  0
   15.5532   -8.3215   12.7741 H   0  0  0  0  0  0  0  0  0  0  0  0
   16.6194  -11.1829   12.5864 H   0  0  0  0  0  0  0  0  0  0  0  0
   17.8609  -11.3701   14.8536 H   0  0  0  0  0  0  0  0  0  0  0  0
   19.7662  -10.5176   16.2112 H   0  0  0  0  0  0  0  0  0  0  0  0
   20.7045   -8.2706   15.7836 H   0  0  0  0  0  0  0  0  0  0  0  0
   17.8612   -7.6817   12.6146 H   0  0  0  0  0  0  0  0  0  0  0  0
   14.7896  -12.1939   10.6656 H   0  0  0  0  0  0  0  0  0  0  0  0
   13.7887  -14.3983   11.1476 H   0  0  0  0  0  0  0  0  0  0  0  0
   11.3905  -12.5993   14.2078 H   0  0  0  0  0  0  0  0  0  0  0  0
  1  2  2  0
  2  3  1  0
  3  4  2  0
  4  5  1  0
  5  6  2  0
  6  7  1  0
  7  8  2  0
  8  9  1  0
  9 10  1  0
  9 11  2  0
  2 12  1  0
 12 13  2  0
 13 14  1  0
 14 15  2  0
 15 16  1  0
 15 17  1  0
 17 18  2  0
 18 19  1  0
 11  5  1  0
 18 12  1  0
  3 20  1  0
  4 21  1  0
  6 22  1  0
  7 23  1  0
  8 24  1  0
 11 25  1  0
 13 26  1  0
 14 27  1  0
 17 28  1  0
M  CHG  3  10  -1  16  -1  19  -1
M  END
>  <meeko>  (2) 
{"is_sidechain": [false], "free_energy": -6.671, "intermolecular_energy": -7.827, "internal_energy": -0.544}

$$$$
LIB_WKMQGQZPDSFACZ__M_PUB_ALL__e8__s20260927
     RDKit          3D

 28 29  0  0  0  0  0  0  0  0999 V2000
   -0.0010   -8.7970    1.3640 O   0  0  0  0  0  0  0  0  0  0  0  0
   -0.2990   -9.7770    0.6700 C   0  0  0  0  0  0  0  0  0  0  0  0
    0.5160  -10.0400   -0.5570 C   0  0  0  0  0  0  0  0  0  0  0  0
    1.1000  -11.2020   -0.8850 C   0  0  0  0  0  0  0  0  0  0  0  0
    1.9180  -11.3980   -2.0970 C   0  0  0  0  0  0  0  0  0  0  0  0
    2.1970  -10.2840   -2.8860 C   0  0  0  0  0  0  0  0  0  0  0  0
    2.9390  -10.4300   -4.0530 C   0  0  0  0  0  0  0  0  0  0  0  0
    3.3950  -11.6970   -4.4420 C   0  0  0  0  0  0  0  0  0  0  0  0
    3.1430  -12.8700   -3.7060 C   0  0  0  0  0  0  0  0  0  0  0  0
    3.5600  -14.0170   -4.0830 O   0  0  0  0  0  0  0  0  0  0  0  0
    2.3860  -12.6630   -2.5240 C   0  0  0  0  0  0  0  0  0  0  0  0
   -1.3280  -10.7500    1.1460 C   0  0  0  0  0  0  0  0  0  0  0  0
   -0.9670  -11.4550    2.3080 C   0  0  0  0  0  0  0  0  0  0  0  0
   -1.8340  -12.3900    2.8810 C   0  0  0  0  0  0  0  0  0  0  0  0
   -3.0970  -12.6700    2.3500 C   0  0  0  0  0  0  0  0  0  0  0  0
   -3.8900  -13.5260    2.8810 O   0  0  0  0  0  0  0  0  0  0  0  0
   -3.4070  -11.9070    1.1790 C   0  0  0  0  0  0  0  0  0  0  0  0
   -2.5870  -10.9270    0.5220 C   0  0  0  0  0  0  0  0  0  0  0  0
   -2.9960  -10.2850   -0.5130 O   0  0  0  0  0  0  0  0  0  0  0  0
    0.6487   -9.2011   -1.2560 H   0  0  0  0  0  0  0  0  0  0  0  0
    0.9608  -12.0596   -0.2104 H   0  0  0  0  0  0  0  0  0  0  0  0
    1.8310   -9.2909   -2.5863 H   0  0  0  0  0  0  0  0  0  0  0  0
    3.1684   -9.5499   -4.6717 H   0  0  0  0  0  0  0  0  0  0  0  0
    3.9798  -11.7788   -5.3701 H   0  0  0  0  0  0  0  0  0  0  0  0
    2.1487  -13.5388   -1.9022 H   0  0  0  0  0  0  0  0  0  0  0  0
    0.0122  -11.2679    2.7730 H   0  0  0  0  0  0  0  0  0  0  0  0
   -1.5100  -12.9265    3.7850 H   0  0  0  0  0  0  0  0  0  0  0  0
   -4.3925  -12.0936    0.7275 H   0  0  0  0  0  0  0  0  0  0  0  0
  1  2  2  0
  2  3  1  0
  3  4  2  0
  4  5  1  0
  5  6  2  0
  6  7  1  0
  7  8  2  0
  8  9  1  0
  9 10  1  0
  9 11  2  0
  2 12  1  0
 12 13  2  0
 13 14  1  0
 14 15  2  0
 15 16  1  0
 15 17  1  0
 17 18  2  0
 18 19  1  0
 11  5  1  0
 18 12  1  0
  3 20  1  0
  4 21  1  0
  6 22  1  0
  7 23  1  0
  8 24  1  0
 11 25  1  0
 13 26  1  0
 14 27  1  0
 17 28  1  0
M  CHG  3  10  -1  16  -1  19  -1
M  END
>  <meeko>  (3) 
{"is_sidechain": [false], "free_energy": -6.647, "intermolecular_energy": -7.78, "internal_energy": -0.564}

$$$$
LIB_WKMQGQZPDSFACZ__M_PUB_ALL__e8__s20260927
     RDKit          3D

 28 29  0  0  0  0  0  0  0  0999 V2000
   11.1420  -13.5100   12.0350 O   0  0  0  0  0  0  0  0  0  0  0  0
   12.2260  -13.4260   12.6260 C   0  0  0  0  0  0  0  0  0  0  0  0
   12.9050  -12.0930   12.6550 C   0  0  0  0  0  0  0  0  0  0  0  0
   13.8270  -11.6550   11.7850 C   0  0  0  0  0  0  0  0  0  0  0  0
   14.4860  -10.3390   11.8780 C   0  0  0  0  0  0  0  0  0  0  0  0
   13.8550   -9.2470   11.2840 C   0  0  0  0  0  0  0  0  0  0  0  0
   14.4570   -7.9940   11.3220 C   0  0  0  0  0  0  0  0  0  0  0  0
   15.7020   -7.8310   11.9450 C   0  0  0  0  0  0  0  0  0  0  0  0
   16.4070   -8.8860   12.5530 C   0  0  0  0  0  0  0  0  0  0  0  0
   17.5460   -8.7180   13.1080 O   0  0  0  0  0  0  0  0  0  0  0  0
   15.7460  -10.1390   12.4900 C   0  0  0  0  0  0  0  0  0  0  0  0
   12.7420  -14.5810   13.4200 C   0  0  0  0  0  0  0  0  0  0  0  0
   13.7510  -15.3210   12.7800 C   0  0  0  0  0  0  0  0  0  0  0  0
   14.3430  -16.4230   13.4060 C   0  0  0  0  0  0  0  0  0  0  0  0
   13.9810  -16.8440   14.6900 C   0  0  0  0  0  0  0  0  0  0  0  0
   14.5280  -17.8530   15.2600 O   0  0  0  0  0  0  0  0  0  0  0  0
   12.9620  -16.0380   15.2890 C   0  0  0  0  0  0  0  0  0  0  0  0
   12.3000  -14.8920   14.7300 C   0  0  0  0  0  0  0  0  0  0  0  0
   11.4160  -14.2310   15.3870 O   0  0  0  0  0  0  0  0  0  0  0  0
   12.6211  -11.4072   13.4668 H   0  0  0  0  0  0  0  0  0  0  0  0
   14.1084  -12.3167   10.9526 H   0  0  0  0  0  0  0  0  0  0  0  0
   12.8827   -9.3763   10.7861 H   0  0  0  0  0  0  0  0  0  0  0  0
   13.9554   -7.1295   10.8625 H   0  0  0  0  0  0  0  0  0  0  0  0
   16.1509   -6.8269   11.9593 H   0  0  0  0  0  0  0  0  0  0  0  0
   16.2431  -11.0086   12.9447 H   0  0  0  0  0  0  0  0  0  0  0  0
   14.0801  -15.0292   11.7718 H   0  0  0  0  0  0  0  0  0  0  0  0
   15.1237  -16.9803   12.8676 H   0  0  0  0  0  0  0  0  0  0  0  0
   12.6469  -16.3316   16.3012 H   0  0  0  0  0  0  0  0  0  0  0  0
  1  2  2  0
  2  3  1  0
  3  4  2  0
  4  5  1  0
  5  6  2  0
  6  7  1  0
  7  8  2  0
  8  9  1  0
  9 10  1  0
  9 11  2  0
  2 12  1  0
 12 13  2  0
 13 14  1  0
 14 15  2  0
 15 16  1  0
 15 17  1  0
 17 18  2  0
 18 19  1  0
 11  5  1  0
 18 12  1  0
  3 20  1  0
  4 21  1  0
  6 22  1  0
  7 23  1  0
  8 24  1  0
 11 25  1  0
 13 26  1  0
 14 27  1  0
 17 28  1  0
M  CHG  3  10  -1  16  -1  19  -1
M  END
>  <meeko>  (4) 
{"is_sidechain": [false], "free_energy": -6.607, "intermolecular_energy": -7.798, "internal_energy": -0.498}

$$$$
LIB_WKMQGQZPDSFACZ__M_PUB_ALL__e8__s20260927
     RDKit          3D

 28 29  0  0  0  0  0  0  0  0999 V2000
   15.8680   -7.5970   14.8180 O   0  0  0  0  0  0  0  0  0  0  0  0
   15.9710   -8.2220   13.7550 C   0  0  0  0  0  0  0  0  0  0  0  0
   15.1820   -9.4840   13.6070 C   0  0  0  0  0  0  0  0  0  0  0  0
   14.5670   -9.9070   12.4930 C   0  0  0  0  0  0  0  0  0  0  0  0
   13.7760  -11.1500   12.4100 C   0  0  0  0  0  0  0  0  0  0  0  0
   14.2180  -12.1500   11.5450 C   0  0  0  0  0  0  0  0  0  0  0  0
   13.4850  -13.3240   11.4140 C   0  0  0  0  0  0  0  0  0  0  0  0
   12.2980  -13.4980   12.1400 C   0  0  0  0  0  0  0  0  0  0  0  0
   11.7820  -12.5300   13.0200 C   0  0  0  0  0  0  0  0  0  0  0  0
   10.6930  -12.7040   13.6670 O   0  0  0  0  0  0  0  0  0  0  0  0
   12.5700  -11.3550   13.1200 C   0  0  0  0  0  0  0  0  0  0  0  0
   16.7270   -7.6360   12.6080 C   0  0  0  0  0  0  0  0  0  0  0  0
   18.0270   -8.1470   12.4480 C   0  0  0  0  0  0  0  0  0  0  0  0
   18.8510   -7.7050   11.4080 C   0  0  0  0  0  0  0  0  0  0  0  0
   18.4370   -6.7530   10.4720 C   0  0  0  0  0  0  0  0  0  0  0  0
   19.1950   -6.3530    9.5180 O   0  0  0  0  0  0  0  0  0  0  0  0
   17.0990   -6.2880   10.6830 C   0  0  0  0  0  0  0  0  0  0  0  0
   16.1810   -6.6820   11.7150 C   0  0  0  0  0  0  0  0  0  0  0  0
   14.9880   -6.2090   11.7780 O   0  0  0  0  0  0  0  0  0  0  0  0
   15.0983  -10.1260   14.4963 H   0  0  0  0  0  0  0  0  0  0  0  0
   14.6576   -9.2904   11.5866 H   0  0  0  0  0  0  0  0  0  0  0  0
   15.1440  -12.0105   10.9679 H   0  0  0  0  0  0  0  0  0  0  0  0
   13.8370  -14.1183   10.7393 H   0  0  0  0  0  0  0  0  0  0  0  0
   11.7425  -14.4391   12.0149 H   0  0  0  0  0  0  0  0  0  0  0  0
   12.2223  -10.5549   13.7901 H   0  0  0  0  0  0  0  0  0  0  0  0
   18.4015   -8.9056   13.1511 H   0  0  0  0  0  0  0  0  0  0  0  0
   19.8649   -8.1230   11.3233 H   0  0  0  0  0  0  0  0  0  0  0  0
   16.7295   -5.5382    9.9680 H   0  0  0  0  0  0  0  0  0  0  0  0
  1  2  2  0
  2  3  1  0
  3  4  2  0
  4  5  1  0
  5  6  2  0
  6  7  1  0
  7  8  2  0
  8  9  1  0
  9 10  1  0
  9 11  2  0
  2 12  1  0
 12 13  2  0
 13 14  1  0
 14 15  2  0
 15 16  1  0
 15 17  1  0
 17 18  2  0
 18 19  1  0
 11  5  1  0
 18 12  1  0
  3 20  1  0
  4 21  1  0
  6 22  1  0
  7 23  1  0
  8 24  1  0
 11 25  1  0
 13 26  1  0
 14 27  1  0
 17 28  1  0
M  CHG  3  10  -1  16  -1  19  -1
M  END
>  <meeko>  (5) 
{"is_sidechain": [false], "free_energy": -6.586, "intermolecular_energy": -7.679, "internal_energy": -0.594}

$$$$
LIB_WKMQGQZPDSFACZ__M_PUB_ALL__e8__s20260927
     RDKit          3D

 28 29  0  0  0  0  0  0  0  0999 V2000
   17.9660   -9.5140   12.4490 O   0  0  0  0  0  0  0  0  0  0  0  0
   16.7770   -9.1790   12.5330 C   0  0  0  0  0  0  0  0  0  0  0  0
   15.7540  -10.2610   12.6760 C   0  0  0  0  0  0  0  0  0  0  0  0
   14.6590  -10.4190   11.9180 C   0  0  0  0  0  0  0  0  0  0  0  0
   13.6660  -11.4910   12.1210 C   0  0  0  0  0  0  0  0  0  0  0  0
   13.8330  -12.6820   11.4160 C   0  0  0  0  0  0  0  0  0  0  0  0
   12.9030  -13.7050   11.5540 C   0  0  0  0  0  0  0  0  0  0  0  0
   11.7920  -13.5380   12.3930 C   0  0  0  0  0  0  0  0  0  0  0  0
   11.5480  -12.3630   13.1270 C   0  0  0  0  0  0  0  0  0  0  0  0
   10.5240  -12.2260   13.8800 O   0  0  0  0  0  0  0  0  0  0  0  0
   12.5290  -11.3530   12.9520 C   0  0  0  0  0  0  0  0  0  0  0  0
   16.4090   -7.7370   12.6570 C   0  0  0  0  0  0  0  0  0  0  0  0
   16.2750   -7.0650   11.4300 C   0  0  0  0  0  0  0  0  0  0  0  0
   15.9190   -5.7130   11.3840 C   0  0  0  0  0  0  0  0  0  0  0  0
   15.6680   -4.9620   12.5370 C   0  0  0  0  0  0  0  0  0  0  0  0
   15.3390   -3.7230   12.4900 O   0  0  0  0  0  0  0  0  0  0  0  0
   15.8060   -5.7100   13.7490 C   0  0  0  0  0  0  0  0  0  0  0  0
   16.1630   -7.0950   13.8950 C   0  0  0  0  0  0  0  0  0  0  0  0
   16.2240   -7.6610   15.0460 O   0  0  0  0  0  0  0  0  0  0  0  0
   15.9150  -10.9961   13.4783 H   0  0  0  0  0  0  0  0  0  0  0  0
   14.4913   -9.7072   11.0963 H   0  0  0  0  0  0  0  0  0  0  0  0
   14.6999  -12.8117   10.7514 H   0  0  0  0  0  0  0  0  0  0  0  0
   13.0386  -14.6479   11.0039 H   0  0  0  0  0  0  0  0  0  0  0  0
   11.0751  -14.3676   12.4817 H   0  0  0  0  0  0  0  0  0  0  0  0
   12.3978  -10.4055   13.4951 H   0  0  0  0  0  0  0  0  0  0  0  0
   16.4528   -7.6105   10.4915 H   0  0  0  0  0  0  0  0  0  0  0  0
   15.8332   -5.2217   10.4036 H   0  0  0  0  0  0  0  0  0  0  0  0
   15.6160   -5.1587   14.6817 H   0  0  0  0  0  0  0  0  0  0  0  0
  1  2  2  0
  2  3  1  0
  3  4  2  0
  4  5  1  0
  5  6  2  0
  6  7  1  0
  7  8  2  0
  8  9  1  0
  9 10  1  0
  9 11  2  0
  2 12  1  0
 12 13  2  0
 13 14  1  0
 14 15  2  0
 15 16  1  0
 15 17  1  0
 17 18  2  0
 18 19  1  0
 11  5  1  0
 18 12  1  0
  3 20  1  0
  4 21  1  0
  6 22  1  0
  7 23  1  0
  8 24  1  0
 11 25  1  0
 13 26  1  0
 14 27  1  0
 17 28  1  0
M  CHG  3  10  -1  16  -1  19  -1
M  END
>  <meeko>  (6) 
{"is_sidechain": [false], "free_energy": -6.498, "intermolecular_energy": -7.631, "internal_energy": -0.538}

$$$$
LIB_WKMQGQZPDSFACZ__M_PUB_ALL__e8__s20260927
     RDKit          3D

 28 29  0  0  0  0  0  0  0  0999 V2000
   -5.7160  -12.7110    1.3170 O   0  0  0  0  0  0  0  0  0  0  0  0
   -4.9920  -12.9330    2.2960 C   0  0  0  0  0  0  0  0  0  0  0  0
   -5.6560  -13.2810    3.5910 C   0  0  0  0  0  0  0  0  0  0  0  0
   -6.0310  -14.5070    3.9830 C   0  0  0  0  0  0  0  0  0  0  0  0
   -6.7090  -14.7910    5.2630 C   0  0  0  0  0  0  0  0  0  0  0  0
   -6.3540  -14.0290    6.3750 C   0  0  0  0  0  0  0  0  0  0  0  0
   -6.9470  -14.2850    7.6060 C   0  0  0  0  0  0  0  0  0  0  0  0
   -7.8900  -15.3130    7.7330 C   0  0  0  0  0  0  0  0  0  0  0  0
   -8.2900  -16.1330    6.6610 C   0  0  0  0  0  0  0  0  0  0  0  0
   -9.1460  -17.0720    6.8000 O   0  0  0  0  0  0  0  0  0  0  0  0
   -7.6580  -15.8260    5.4290 C   0  0  0  0  0  0  0  0  0  0  0  0
   -3.5100  -13.0140    2.1340 C   0  0  0  0  0  0  0  0  0  0  0  0
   -2.8220  -11.8400    2.4910 C   0  0  0  0  0  0  0  0  0  0  0  0
   -1.4280  -11.7690    2.4060 C   0  0  0  0  0  0  0  0  0  0  0  0
   -0.6440  -12.8450    1.9790 C   0  0  0  0  0  0  0  0  0  0  0  0
    0.6340  -12.7760    1.9070 O   0  0  0  0  0  0  0  0  0  0  0  0
   -1.4050  -14.0110    1.6480 C   0  0  0  0  0  0  0  0  0  0  0  0
   -2.8310  -14.1800    1.7050 C   0  0  0  0  0  0  0  0  0  0  0  0
   -3.3940  -15.2950    1.4070 O   0  0  0  0  0  0  0  0  0  0  0  0
   -5.8552  -12.4528    4.2870 H   0  0  0  0  0  0  0  0  0  0  0  0
   -5.8209  -15.3518    3.3105 H   0  0  0  0  0  0  0  0  0  0  0  0
   -5.6068  -13.2275    6.2787 H   0  0  0  0  0  0  0  0  0  0  0  0
   -6.6750  -13.6787    8.4826 H   0  0  0  0  0  0  0  0  0  0  0  0
   -8.3410  -15.4885    8.7208 H   0  0  0  0  0  0  0  0  0  0  0  0
   -7.9223  -16.4301    4.5486 H   0  0  0  0  0  0  0  0  0  0  0  0
   -3.3888  -10.9651    2.8421 H   0  0  0  0  0  0  0  0  0  0  0  0
   -0.9287  -10.8297    2.6861 H   0  0  0  0  0  0  0  0  0  0  0  0
   -0.8282  -14.8840    1.3087 H   0  0  0  0  0  0  0  0  0  0  0  0
  1  2  2  0
  2  3  1  0
  3  4  2  0
  4  5  1  0
  5  6  2  0
  6  7  1  0
  7  8  2  0
  8  9  1  0
  9 10  1  0
  9 11  2  0
  2 12  1  0
 12 13  2  0
 13 14  1  0
 14 15  2  0
 15 16  1  0
 15 17  1  0
 17 18  2  0
 18 19  1  0
 11  5  1  0
 18 12  1  0
  3 20  1  0
  4 21  1  0
  6 22  1  0
  7 23  1  0
  8 24  1  0
 11 25  1  0
 13 26  1  0
 14 27  1  0
 17 28  1  0
M  CHG  3  10  -1  16  -1  19  -1
M  END
>  <meeko>  (7) 
{"is_sidechain": [false], "free_energy": -6.295, "intermolecular_energy": -7.397, "internal_energy": -0.534}

$$$$
LIB_WKMQGQZPDSFACZ__M_PUB_ALL__e8__s20260927
     RDKit          3D

 28 29  0  0  0  0  0  0  0  0999 V2000
    2.5960   -9.7380   -3.7110 O   0  0  0  0  0  0  0  0  0  0  0  0
    2.6670  -10.8530   -3.1780 C   0  0  0  0  0  0  0  0  0  0  0  0
    1.9170  -11.0660   -1.9010 C   0  0  0  0  0  0  0  0  0  0  0  0
    1.0660  -10.2010   -1.3300 C   0  0  0  0  0  0  0  0  0  0  0  0
    0.3730  -10.4510   -0.0510 C   0  0  0  0  0  0  0  0  0  0  0  0
    0.2760  -11.7690    0.3950 C   0  0  0  0  0  0  0  0  0  0  0  0
   -0.3960  -12.0510    1.5790 C   0  0  0  0  0  0  0  0  0  0  0  0
   -0.9850  -11.0160    2.3180 C   0  0  0  0  0  0  0  0  0  0  0  0
   -0.9420   -9.6650    1.9260 C   0  0  0  0  0  0  0  0  0  0  0  0
   -1.4930   -8.7360    2.6100 O   0  0  0  0  0  0  0  0  0  0  0  0
   -0.2410   -9.4330    0.7150 C   0  0  0  0  0  0  0  0  0  0  0  0
    3.3400  -11.9830   -3.8840 C   0  0  0  0  0  0  0  0  0  0  0  0
    4.7410  -11.8840   -3.9340 C   0  0  0  0  0  0  0  0  0  0  0  0
    5.5120  -12.8750   -4.5500 C   0  0  0  0  0  0  0  0  0  0  0  0
    4.9470  -14.0130   -5.1350 C   0  0  0  0  0  0  0  0  0  0  0  0
    5.6580  -14.9210   -5.6960 O   0  0  0  0  0  0  0  0  0  0  0  0
    3.5200  -14.0590   -5.0340 C   0  0  0  0  0  0  0  0  0  0  0  0
    2.6470  -13.0960   -4.4220 C   0  0  0  0  0  0  0  0  0  0  0  0
    1.3750  -13.2690   -4.3700 O   0  0  0  0  0  0  0  0  0  0  0  0
    2.0789  -12.0221   -1.3816 H   0  0  0  0  0  0  0  0  0  0  0  0
    0.8730   -9.2486   -1.8454 H   0  0  0  0  0  0  0  0  0  0  0  0
    0.7301  -12.5834   -0.1886 H   0  0  0  0  0  0  0  0  0  0  0  0
   -0.4656  -13.0889    1.9366 H   0  0  0  0  0  0  0  0  0  0  0  0
   -1.5072  -11.2726    3.2515 H   0  0  0  0  0  0  0  0  0  0  0  0
   -0.1706   -8.3980    0.3492 H   0  0  0  0  0  0  0  0  0  0  0  0
    5.2388  -11.0136   -3.4817 H   0  0  0  0  0  0  0  0  0  0  0  0
    6.6051  -12.7548   -4.5754 H   0  0  0  0  0  0  0  0  0  0  0  0
    3.0324  -14.9388   -5.4792 H   0  0  0  0  0  0  0  0  0  0  0  0
  1  2  2  0
  2  3  1  0
  3  4  2  0
  4  5  1  0
  5  6  2  0
  6  7  1  0
  7  8  2  0
  8  9  1  0
  9 10  1  0
  9 11  2  0
  2 12  1  0
 12 13  2  0
 13 14  1  0
 14 15  2  0
 15 16  1  0
 15 17  1  0
 17 18  2  0
 18 19  1  0
 11  5  1  0
 18 12  1  0
  3 20  1  0
  4 21  1  0
  6 22  1  0
  7 23  1  0
  8 24  1  0
 11 25  1  0
 13 26  1  0
 14 27  1  0
 17 28  1  0
M  CHG  3  10  -1  16  -1  19  -1
M  END
>  <meeko>  (8) 
{"is_sidechain": [false], "free_energy": -6.229, "intermolecular_energy": -7.48, "internal_energy": -0.372}

$$$$
LIB_WKMQGQZPDSFACZ__M_PUB_ALL__e8__s20260927
     RDKit          3D

 28 29  0  0  0  0  0  0  0  0999 V2000
   10.7040   -7.5620   15.5660 O   0  0  0  0  0  0  0  0  0  0  0  0
   10.1500   -8.0770   14.5870 C   0  0  0  0  0  0  0  0  0  0  0  0
   10.9540   -9.0140   13.7410 C   0  0  0  0  0  0  0  0  0  0  0  0
   11.5170  -10.1610   14.1470 C   0  0  0  0  0  0  0  0  0  0  0  0
   12.3260  -11.0340   13.2750 C   0  0  0  0  0  0  0  0  0  0  0  0
   13.4720  -10.4970   12.6910 C   0  0  0  0  0  0  0  0  0  0  0  0
   14.2450  -11.2770   11.8380 C   0  0  0  0  0  0  0  0  0  0  0  0
   13.8660  -12.5970   11.5560 C   0  0  0  0  0  0  0  0  0  0  0  0
   12.7170  -13.2040   12.0950 C   0  0  0  0  0  0  0  0  0  0  0  0
   12.3850  -14.4070   11.8170 O   0  0  0  0  0  0  0  0  0  0  0  0
   11.9690  -12.3660   12.9610 C   0  0  0  0  0  0  0  0  0  0  0  0
    8.6840   -7.8950   14.3710 C   0  0  0  0  0  0  0  0  0  0  0  0
    8.3480   -6.7780   13.5860 C   0  0  0  0  0  0  0  0  0  0  0  0
    7.0140   -6.4840   13.2830 C   0  0  0  0  0  0  0  0  0  0  0  0
    5.9500   -7.2760   13.7270 C   0  0  0  0  0  0  0  0  0  0  0  0
    4.7300   -7.0050   13.4450 O   0  0  0  0  0  0  0  0  0  0  0  0
    6.3630   -8.4050   14.5050 C   0  0  0  0  0  0  0  0  0  0  0  0
    7.7010   -8.7870   14.8640 C   0  0  0  0  0  0  0  0  0  0  0  0
    7.9430   -9.8480   15.5470 O   0  0  0  0  0  0  0  0  0  0  0  0
   11.0964   -8.7352   12.6865 H   0  0  0  0  0  0  0  0  0  0  0  0
   11.3669  -10.4695   15.1921 H   0  0  0  0  0  0  0  0  0  0  0  0
   13.7643   -9.4583   12.9045 H   0  0  0  0  0  0  0  0  0  0  0  0
   15.1550  -10.8578   11.3839 H   0  0  0  0  0  0  0  0  0  0  0  0
   14.4995  -13.1884   10.8786 H   0  0  0  0  0  0  0  0  0  0  0  0
   11.0558  -12.7770   13.4160 H   0  0  0  0  0  0  0  0  0  0  0  0
    9.1465   -6.1249   13.2040 H   0  0  0  0  0  0  0  0  0  0  0  0
    6.7936   -5.5961   12.6723 H   0  0  0  0  0  0  0  0  0  0  0  0
    5.5586   -9.0592   14.8724 H   0  0  0  0  0  0  0  0  0  0  0  0
  1  2  2  0
  2  3  1  0
  3  4  2  0
  4  5  1  0
  5  6  2  0
  6  7  1  0
  7  8  2  0
  8  9  1  0
  9 10  1  0
  9 11  2  0
  2 12  1  0
 12 13  2  0
 13 14  1  0
 14 15  2  0
 15 16  1  0
 15 17  1  0
 17 18  2  0
 18 19  1  0
 11  5  1  0
 18 12  1  0
  3 20  1  0
  4 21  1  0
  6 22  1  0
  7 23  1  0
  8 24  1  0
 11 25  1  0
 13 26  1  0
 14 27  1  0
 17 28  1  0
M  CHG  3  10  -1  16  -1  19  -1
M  END
>  <meeko>  (9) 
{"is_sidechain": [false], "free_energy": -6.027, "intermolecular_energy": -7.114, "internal_energy": -0.501}

$$$$
