LIB_NNIHOVDDAZGURH__M_PUB_ALL__e8__s20260927
     RDKit          3D

 86 90  0  0  0  0  0  0  0  0999 V2000
    8.4630  -12.1970    0.5800 C   0  0  0  0  0  0  0  0  0  0  0  0
    9.8890  -12.4450    0.1960 C   0  0  0  0  0  0  0  0  0  0  0  0
   10.8120  -12.5720    0.9890 O   0  0  0  0  0  0  0  0  0  0  0  0
    9.9990  -12.5510   -1.1560 O   0  0  0  0  0  0  0  0  0  0  0  0
   10.4370  -13.8380   -1.6500 C   0  0  1  0  0  0  0  0  0  0  0  0
    9.6950  -14.1460   -2.9740 C   0  0  2  0  0  0  0  0  0  0  0  0
    8.2650  -14.1590   -2.7230 O   0  0  0  0  0  0  0  0  0  0  0  0
    7.6020  -12.9890   -2.9060 C   0  0  0  0  0  0  0  0  0  0  0  0
    7.9980  -12.0240   -3.5400 O   0  0  0  0  0  0  0  0  0  0  0  0
    6.2750  -13.0300   -2.2380 C   0  0  0  0  0  0  0  0  0  0  0  0
    5.7500  -14.2840   -1.8890 C   0  0  0  0  0  0  0  0  0  0  0  0
    4.5100  -14.3780   -1.2570 C   0  0  0  0  0  0  0  0  0  0  0  0
    3.7860  -13.2210   -0.9690 C   0  0  0  0  0  0  0  0  0  0  0  0
    4.2990  -11.9710   -1.3110 C   0  0  0  0  0  0  0  0  0  0  0  0
    5.5410  -11.8730   -1.9450 C   0  0  0  0  0  0  0  0  0  0  0  0
   10.0990  -15.5410   -3.5740 C   0  0  1  0  0  0  0  0  0  0  0  0
    9.5470  -16.6800   -2.6620 C   0  0  0  0  0  0  0  0  0  0  0  0
    9.3930  -15.7830   -4.9670 C   0  0  1  0  0  0  0  0  0  0  0  0
    9.1030  -14.5280   -5.6110 O   0  0  0  0  0  0  0  0  0  0  0  0
    8.0960  -14.5220   -6.5190 C   0  0  0  0  0  0  0  0  0  0  0  0
    8.2190  -14.6550   -7.7280 O   0  0  0  0  0  0  0  0  0  0  0  0
    6.7810  -14.3050   -5.8860 C   0  0  0  0  0  0  0  0  0  0  0  0
    5.9690  -13.2740   -6.1650 C   0  0  0  0  0  0  0  0  0  0  0  0
    4.6560  -13.0690   -5.5390 C   0  0  0  0  0  0  0  0  0  0  0  0
    4.1890  -11.7580   -5.3690 C   0  0  0  0  0  0  0  0  0  0  0  0
    2.9570  -11.5140   -4.7590 C   0  0  0  0  0  0  0  0  0  0  0  0
    2.1830  -12.5770   -4.3010 C   0  0  0  0  0  0  0  0  0  0  0  0
    2.6420  -13.8840   -4.4470 C   0  0  0  0  0  0  0  0  0  0  0  0
    3.8760  -14.1280   -5.0590 C   0  0  0  0  0  0  0  0  0  0  0  0
   10.1880  -16.7110   -5.9330 C   0  0  0  0  0  0  0  0  0  0  0  0
   11.7360  -16.6300   -5.8400 C   0  0  2  0  0  0  0  0  0  0  0  0
   12.0970  -16.9160   -4.3890 C   0  0  1  0  0  0  0  0  0  0  0  0
   13.4820  -17.2140   -4.2350 O   0  0  0  0  0  0  0  0  0  0  0  0
   11.6710  -15.5730   -3.7430 C   0  0  1  0  0  0  0  0  0  0  0  0
   11.9700  -14.5610   -4.7880 O   0  0  0  0  0  0  0  0  0  0  0  0
   12.3020  -15.2120   -6.0300 C   0  0  0  0  0  0  0  0  0  0  0  0
   11.7420  -14.4430   -7.2340 C   0  0  0  0  0  0  0  0  0  0  0  0
   13.8340  -15.1580   -6.2180 C   0  0  0  0  0  0  0  0  0  0  0  0
   12.4740  -15.1710   -2.4430 C   0  0  1  0  0  0  0  0  0  0  0  0
   12.5000  -16.2390   -1.3320 C   0  0  0  0  0  0  0  0  0  0  0  0
   13.8740  -14.9970   -2.7720 O   0  0  0  0  0  0  0  0  0  0  0  0
   11.9660  -13.8220   -1.8610 C   0  0  1  0  0  0  0  0  0  0  0  0
   12.2900  -12.7560   -2.7940 O   0  0  0  0  0  0  0  0  0  0  0  0
   13.1100  -11.7650   -2.3670 C   0  0  0  0  0  0  0  0  0  0  0  0
   14.3330  -11.7180   -3.2310 C   0  0  0  0  0  0  0  0  0  0  0  0
   12.8960  -11.0020   -1.4360 O   0  0  0  0  0  0  0  0  0  0  0  0
    8.3758  -12.1818    1.6764 H   0  0  0  0  0  0  0  0  0  0  0  0
    8.1367  -11.2286    0.1728 H   0  0  0  0  0  0  0  0  0  0  0  0
    7.8289  -12.9984    0.1728 H   0  0  0  0  0  0  0  0  0  0  0  0
   10.2025  -14.6261   -0.9193 H   0  0  0  0  0  0  0  0  0  0  0  0
    9.9733  -13.3650   -3.6969 H   0  0  0  0  0  0  0  0  0  0  0  0
    6.3194  -15.1976   -2.1151 H   0  0  0  0  0  0  0  0  0  0  0  0
    4.1035  -15.3636   -0.9860 H   0  0  0  0  0  0  0  0  0  0  0  0
    2.8081  -13.2953   -0.4709 H   0  0  0  0  0  0  0  0  0  0  0  0
    3.7259  -11.0605   -1.0818 H   0  0  0  0  0  0  0  0  0  0  0  0
    5.9430  -10.8852   -2.2145 H   0  0  0  0  0  0  0  0  0  0  0  0
    9.6817  -16.4021   -1.6062 H   0  0  0  0  0  0  0  0  0  0  0  0
    8.4768  -16.8288   -2.8684 H   0  0  0  0  0  0  0  0  0  0  0  0
   10.0933  -17.6122   -2.8684 H   0  0  0  0  0  0  0  0  0  0  0  0
    8.4575  -16.3139   -4.7369 H   0  0  0  0  0  0  0  0  0  0  0  0
    6.4444  -15.0363   -5.1364 H   0  0  0  0  0  0  0  0  0  0  0  0
    6.3073  -12.5369   -6.9082 H   0  0  0  0  0  0  0  0  0  0  0  0
    4.7995  -10.9129   -5.7198 H   0  0  0  0  0  0  0  0  0  0  0  0
    2.5976  -10.4812   -4.6401 H   0  0  0  0  0  0  0  0  0  0  0  0
    1.2103  -12.3849   -3.8245 H   0  0  0  0  0  0  0  0  0  0  0  0
    2.0340  -14.7244   -4.0810 H   0  0  0  0  0  0  0  0  0  0  0  0
    4.2370  -15.1617   -5.1641 H   0  0  0  0  0  0  0  0  0  0  0  0
    9.8926  -17.7491   -5.7205 H   0  0  0  0  0  0  0  0  0  0  0  0
    9.9350  -16.3676   -6.9469 H   0  0  0  0  0  0  0  0  0  0  0  0
   12.1277  -17.3114   -6.6096 H   0  0  0  0  0  0  0  0  0  0  0  0
   11.6167  -17.7987   -3.9417 H   0  0  0  0  0  0  0  0  0  0  0  0
   13.5950  -18.1730   -4.3690 H   0  0  0  0  0  0  0  0  0  0  0  0
   11.1292  -13.6014   -6.8788 H   0  0  0  0  0  0  0  0  0  0  0  0
   12.5737  -14.0594   -7.8432 H   0  0  0  0  0  0  0  0  0  0  0  0
   11.1217  -15.1169   -7.8432 H   0  0  0  0  0  0  0  0  0  0  0  0
   14.3239  -15.1407   -5.2333 H   0  0  0  0  0  0  0  0  0  0  0  0
   14.1663  -16.0450   -6.7773 H   0  0  0  0  0  0  0  0  0  0  0  0
   14.1030  -14.2498   -6.7773 H   0  0  0  0  0  0  0  0  0  0  0  0
   12.4880  -15.7457   -0.3489 H   0  0  0  0  0  0  0  0  0  0  0  0
   11.6174  -16.8886   -1.4271 H   0  0  0  0  0  0  0  0  0  0  0  0
   13.4132  -16.8449   -1.4271 H   0  0  0  0  0  0  0  0  0  0  0  0
   13.9240  -14.1830   -3.3160 H   0  0  0  0  0  0  0  0  0  0  0  0
   12.4536  -13.6621   -0.8880 H   0  0  0  0  0  0  0  0  0  0  0  0
   15.2300  -11.6835   -2.5952 H   0  0  0  0  0  0  0  0  0  0  0  0
   14.3680  -12.6155   -3.8661 H   0  0  0  0  0  0  0  0  0  0  0  0
   14.2990  -10.8205   -3.8661 H   0  0  0  0  0  0  0  0  0  0  0  0
  1  2  1  0
  2  3  2  0
  2  4  1  0
  4  5  1  0
  5  6  1  0
  6  7  1  0
  7  8  1  0
  8  9  2  0
  8 10  1  0
 10 11  2  0
 11 12  1  0
 12 13  2  0
 13 14  1  0
 14 15  2  0
  6 16  1  0
 16 17  1  1
 16 18  1  0
 18 19  1  0
 19 20  1  0
 20 21  2  0
 20 22  1  0
 22 23  2  0
 23 24  1  0
 24 25  2  0
 25 26  1  0
 26 27  2  0
 27 28  1  0
 28 29  2  0
 18 30  1  0
 30 31  1  0
 31 32  1  0
 32 33  1  0
 32 34  1  0
 34 35  1  6
 35 36  1  0
 36 37  1  0
 36 38  1  0
 34 39  1  0
 39 40  1  0
 39 41  1  6
 39 42  1  0
 42 43  1  0
 43 44  1  0
 44 45  1  0
 44 46  2  0
 42  5  1  0
 15 10  1  0
 34 16  1  0
 29 24  1  0
 36 31  1  0
  1 47  1  0
  1 48  1  0
  1 49  1  0
  5 50  1  1
  6 51  1  6
 11 52  1  0
 12 53  1  0
 13 54  1  0
 14 55  1  0
 15 56  1  0
 17 57  1  0
 17 58  1  0
 17 59  1  0
 18 60  1  1
 22 61  1  0
 23 62  1  0
 25 63  1  0
 26 64  1  0
 27 65  1  0
 28 66  1  0
 29 67  1  0
 30 68  1  0
 30 69  1  0
 31 70  1  6
 32 71  1  1
 33 72  1  0
 37 73  1  0
 37 74  1  0
 37 75  1  0
 38 76  1  0
 38 77  1  0
 38 78  1  0
 40 79  1  0
 40 80  1  0
 40 81  1  0
 41 82  1  0
 42 83  1  1
 45 84  1  0
 45 85  1  0
 45 86  1  0
M  END
>  <meeko>  (1) 
{"is_sidechain": [false], "free_energy": -7.946, "intermolecular_energy": -13.521, "internal_energy": -4.885}

$$$$
LIB_NNIHOVDDAZGURH__M_PUB_ALL__e8__s20260927
     RDKit          3D

 86 90  0  0  0  0  0  0  0  0999 V2000
   12.9220  -11.3130    0.0130 C   0  0  0  0  0  0  0  0  0  0  0  0
   12.0540  -12.5310   -0.0440 C   0  0  0  0  0  0  0  0  0  0  0  0
   11.8850  -13.3120    0.8830 O   0  0  0  0  0  0  0  0  0  0  0  0
   11.4490  -12.6200   -1.2600 O   0  0  0  0  0  0  0  0  0  0  0  0
   11.4620  -13.9300   -1.8720 C   0  0  1  0  0  0  0  0  0  0  0  0
   10.1470  -14.1270   -2.6660 C   0  0  2  0  0  0  0  0  0  0  0  0
    9.0220  -14.0030   -1.7570 O   0  0  0  0  0  0  0  0  0  0  0  0
    8.4290  -12.7860   -1.6800 C   0  0  0  0  0  0  0  0  0  0  0  0
    8.5550  -11.8680   -2.4760 O   0  0  0  0  0  0  0  0  0  0  0  0
    7.5550  -12.7040   -0.4810 C   0  0  0  0  0  0  0  0  0  0  0  0
    7.1150  -11.4380   -0.0690 C   0  0  0  0  0  0  0  0  0  0  0  0
    6.2900  -11.3060    1.0490 C   0  0  0  0  0  0  0  0  0  0  0  0
    5.8990  -12.4390    1.7620 C   0  0  0  0  0  0  0  0  0  0  0  0
    6.3300  -13.7020    1.3600 C   0  0  0  0  0  0  0  0  0  0  0  0
    7.1570  -13.8380    0.2420 C   0  0  0  0  0  0  0  0  0  0  0  0
   10.0690  -15.5380   -3.3520 C   0  0  1  0  0  0  0  0  0  0  0  0
    9.9150  -16.6410   -2.2590 C   0  0  0  0  0  0  0  0  0  0  0  0
    8.7600  -15.6710   -4.2260 C   0  0  1  0  0  0  0  0  0  0  0  0
    8.3230  -14.3760   -4.6810 O   0  0  0  0  0  0  0  0  0  0  0  0
    7.0130  -14.2500   -5.0080 C   0  0  0  0  0  0  0  0  0  0  0  0
    6.5660  -14.1110   -6.1380 O   0  0  0  0  0  0  0  0  0  0  0  0
    6.1400  -14.2720   -3.8180 C   0  0  0  0  0  0  0  0  0  0  0  0
    5.3240  -13.2680   -3.4610 C   0  0  0  0  0  0  0  0  0  0  0  0
    4.4490  -13.3000   -2.2820 C   0  0  0  0  0  0  0  0  0  0  0  0
    4.1360  -14.5400   -1.7100 C   0  0  0  0  0  0  0  0  0  0  0  0
    3.2900  -14.6210   -0.6020 C   0  0  0  0  0  0  0  0  0  0  0  0
    2.7380  -13.4620   -0.0600 C   0  0  0  0  0  0  0  0  0  0  0  0
    3.0260  -12.2240   -0.6300 C   0  0  0  0  0  0  0  0  0  0  0  0
    3.8740  -12.1440   -1.7390 C   0  0  0  0  0  0  0  0  0  0  0  0
    8.8920  -16.6470   -5.4320 C   0  0  0  0  0  0  0  0  0  0  0  0
   10.2930  -16.7230   -6.0990 C   0  0  2  0  0  0  0  0  0  0  0  0
   11.2770  -17.0830   -4.9960 C   0  0  1  0  0  0  0  0  0  0  0  0
   12.5270  -17.5220   -5.5210 O   0  0  0  0  0  0  0  0  0  0  0  0
   11.3520  -15.7230   -4.2580 C   0  0  1  0  0  0  0  0  0  0  0  0
   11.2120  -14.7180   -5.3410 O   0  0  0  0  0  0  0  0  0  0  0  0
   10.8360  -15.3640   -6.5730 C   0  0  0  0  0  0  0  0  0  0  0  0
    9.8460  -14.5100   -7.3760 C   0  0  0  0  0  0  0  0  0  0  0  0
   12.0840  -15.4580   -7.4780 C   0  0  0  0  0  0  0  0  0  0  0  0
   12.7190  -15.4380   -3.5160 C   0  0  1  0  0  0  0  0  0  0  0  0
   13.1700  -16.5330   -2.5300 C   0  0  0  0  0  0  0  0  0  0  0  0
   13.7970  -15.3960   -4.4830 O   0  0  0  0  0  0  0  0  0  0  0  0
   12.6930  -14.0610   -2.7940 C   0  0  1  0  0  0  0  0  0  0  0  0
   12.6330  -13.0080   -3.7930 O   0  0  0  0  0  0  0  0  0  0  0  0
   13.4350  -11.9290   -3.6300 C   0  0  0  0  0  0  0  0  0  0  0  0
   14.8690  -12.3640   -3.6270 C   0  0  0  0  0  0  0  0  0  0  0  0
   13.0680  -10.7670   -3.5190 O   0  0  0  0  0  0  0  0  0  0  0  0
   13.1117  -11.0468    1.0633 H   0  0  0  0  0  0  0  0  0  0  0  0
   13.8775  -11.5198   -0.4912 H   0  0  0  0  0  0  0  0  0  0  0  0
   12.4147  -10.4773   -0.4912 H   0  0  0  0  0  0  0  0  0  0  0  0
   11.5301  -14.7103   -1.0997 H   0  0  0  0  0  0  0  0  0  0  0  0
   10.1196  -13.3588   -3.4528 H   0  0  0  0  0  0  0  0  0  0  0  0
    7.4220  -10.5433   -0.6304 H   0  0  0  0  0  0  0  0  0  0  0  0
    5.9487  -10.3099    1.3673 H   0  0  0  0  0  0  0  0  0  0  0  0
    5.2491  -12.3356    2.6435 H   0  0  0  0  0  0  0  0  0  0  0  0
    6.0185  -14.5935    1.9240 H   0  0  0  0  0  0  0  0  0  0  0  0
    7.4965  -14.8362   -0.0716 H   0  0  0  0  0  0  0  0  0  0  0  0
    9.9793  -16.1807   -1.2620 H   0  0  0  0  0  0  0  0  0  0  0  0
    8.9391  -17.1357   -2.3723 H   0  0  0  0  0  0  0  0  0  0  0  0
   10.7181  -17.3841   -2.3723 H   0  0  0  0  0  0  0  0  0  0  0  0
    8.0038  -16.1127   -3.5603 H   0  0  0  0  0  0  0  0  0  0  0  0
    6.1595  -15.1696   -3.1825 H   0  0  0  0  0  0  0  0  0  0  0  0
    5.3097  -12.3658   -4.0901 H   0  0  0  0  0  0  0  0  0  0  0  0
    4.5612  -15.4596   -2.1383 H   0  0  0  0  0  0  0  0  0  0  0  0
    3.0592  -15.6001   -0.1569 H   0  0  0  0  0  0  0  0  0  0  0  0
    2.0761  -13.5246    0.8163 H   0  0  0  0  0  0  0  0  0  0  0  0
    2.5860  -11.3087   -0.2074 H   0  0  0  0  0  0  0  0  0  0  0  0
    4.0915  -11.1642   -2.1891 H   0  0  0  0  0  0  0  0  0  0  0  0
    8.6331  -17.6558   -5.0780 H   0  0  0  0  0  0  0  0  0  0  0  0
    8.2169  -16.2534   -6.2062 H   0  0  0  0  0  0  0  0  0  0  0  0
   10.1950  -17.4188   -6.9453 H   0  0  0  0  0  0  0  0  0  0  0  0
   10.9858  -17.9255   -4.3514 H   0  0  0  0  0  0  0  0  0  0  0  0
   12.3410  -18.1060   -6.2800 H   0  0  0  0  0  0  0  0  0  0  0  0
    9.1984  -13.9514   -6.6842 H   0  0  0  0  0  0  0  0  0  0  0  0
   10.4016  -13.8031   -8.0098 H   0  0  0  0  0  0  0  0  0  0  0  0
    9.2283  -15.1633   -8.0098 H   0  0  0  0  0  0  0  0  0  0  0  0
   12.9863  -15.5260   -6.8525 H   0  0  0  0  0  0  0  0  0  0  0  0
   12.0098  -16.3531   -8.1131 H   0  0  0  0  0  0  0  0  0  0  0  0
   12.1448  -14.5619   -8.1131 H   0  0  0  0  0  0  0  0  0  0  0  0
   13.0246  -16.1800   -1.4984 H   0  0  0  0  0  0  0  0  0  0  0  0
   12.5732  -17.4424   -2.6939 H   0  0  0  0  0  0  0  0  0  0  0  0
   14.2341  -16.7583   -2.6939 H   0  0  0  0  0  0  0  0  0  0  0  0
   13.3700  -15.4510   -5.3640 H   0  0  0  0  0  0  0  0  0  0  0  0
   13.6022  -13.9772   -2.1806 H   0  0  0  0  0  0  0  0  0  0  0  0
   15.2179  -12.4698   -2.5892 H   0  0  0  0  0  0  0  0  0  0  0  0
   14.9602  -13.3302   -4.1448 H   0  0  0  0  0  0  0  0  0  0  0  0
   15.4816  -11.6113   -4.1448 H   0  0  0  0  0  0  0  0  0  0  0  0
  1  2  1  0
  2  3  2  0
  2  4  1  0
  4  5  1  0
  5  6  1  0
  6  7  1  0
  7  8  1  0
  8  9  2  0
  8 10  1  0
 10 11  2  0
 11 12  1  0
 12 13  2  0
 13 14  1  0
 14 15  2  0
  6 16  1  0
 16 17  1  1
 16 18  1  0
 18 19  1  0
 19 20  1  0
 20 21  2  0
 20 22  1  0
 22 23  2  0
 23 24  1  0
 24 25  2  0
 25 26  1  0
 26 27  2  0
 27 28  1  0
 28 29  2  0
 18 30  1  0
 30 31  1  0
 31 32  1  0
 32 33  1  0
 32 34  1  0
 34 35  1  6
 35 36  1  0
 36 37  1  0
 36 38  1  0
 34 39  1  0
 39 40  1  0
 39 41  1  6
 39 42  1  0
 42 43  1  0
 43 44  1  0
 44 45  1  0
 44 46  2  0
 42  5  1  0
 15 10  1  0
 34 16  1  0
 29 24  1  0
 36 31  1  0
  1 47  1  0
  1 48  1  0
  1 49  1  0
  5 50  1  1
  6 51  1  6
 11 52  1  0
 12 53  1  0
 13 54  1  0
 14 55  1  0
 15 56  1  0
 17 57  1  0
 17 58  1  0
 17 59  1  0
 18 60  1  1
 22 61  1  0
 23 62  1  0
 25 63  1  0
 26 64  1  0
 27 65  1  0
 28 66  1  0
 29 67  1  0
 30 68  1  0
 30 69  1  0
 31 70  1  6
 32 71  1  1
 33 72  1  0
 37 73  1  0
 37 74  1  0
 37 75  1  0
 38 76  1  0
 38 77  1  0
 38 78  1  0
 40 79  1  0
 40 80  1  0
 40 81  1  0
 41 82  1  0
 42 83  1  1
 45 84  1  0
 45 85  1  0
 45 86  1  0
M  END
>  <meeko>  (2) 
{"is_sidechain": [false], "free_energy": -7.338, "intermolecular_energy": -12.475, "internal_energy": -4.897}

$$$$
LIB_NNIHOVDDAZGURH__M_PUB_ALL__e8__s20260927
     RDKit          3D

 86 90  0  0  0  0  0  0  0  0999 V2000
    1.0450  -10.7060    0.6730 C   0  0  0  0  0  0  0  0  0  0  0  0
    1.0610  -10.7140   -0.8240 C   0  0  0  0  0  0  0  0  0  0  0  0
    0.6680   -9.7950   -1.5310 O   0  0  0  0  0  0  0  0  0  0  0  0
    1.6120  -11.8710   -1.2810 O   0  0  0  0  0  0  0  0  0  0  0  0
    2.7430  -12.3670   -0.5280 C   0  0  1  0  0  0  0  0  0  0  0  0
    2.6130  -13.9020   -0.3770 C   0  0  2  0  0  0  0  0  0  0  0  0
    1.3720  -14.2060    0.3130 O   0  0  0  0  0  0  0  0  0  0  0  0
    0.2820  -14.4360   -0.4620 C   0  0  0  0  0  0  0  0  0  0  0  0
    0.2870  -14.7840   -1.6320 O   0  0  0  0  0  0  0  0  0  0  0  0
   -0.9670  -14.2300    0.3170 C   0  0  0  0  0  0  0  0  0  0  0  0
   -0.8530  -13.7460    1.6290 C   0  0  0  0  0  0  0  0  0  0  0  0
   -1.9950  -13.5320    2.4020 C   0  0  0  0  0  0  0  0  0  0  0  0
   -3.2560  -13.8000    1.8710 C   0  0  0  0  0  0  0  0  0  0  0  0
   -3.3780  -14.2800    0.5680 C   0  0  0  0  0  0  0  0  0  0  0  0
   -2.2380  -14.4970   -0.2100 C   0  0  0  0  0  0  0  0  0  0  0  0
    3.7960  -14.5240    0.4470 C   0  0  1  0  0  0  0  0  0  0  0  0
    3.6840  -14.0770    1.9380 C   0  0  0  0  0  0  0  0  0  0  0  0
    3.6800  -16.0990    0.5050 C   0  0  1  0  0  0  0  0  0  0  0  0
    2.9700  -16.5950   -0.6460 O   0  0  0  0  0  0  0  0  0  0  0  0
    2.3300  -17.7820   -0.5080 C   0  0  0  0  0  0  0  0  0  0  0  0
    2.7060  -18.8560   -0.9540 O   0  0  0  0  0  0  0  0  0  0  0  0
    1.0670  -17.6470    0.2440 C   0  0  0  0  0  0  0  0  0  0  0  0
    0.9940  -17.4870    1.5740 C   0  0  0  0  0  0  0  0  0  0  0  0
   -0.2650  -17.3420    2.3170 C   0  0  0  0  0  0  0  0  0  0  0  0
   -1.4690  -17.6330    1.6620 C   0  0  0  0  0  0  0  0  0  0  0  0
   -2.6920  -17.4870    2.3210 C   0  0  0  0  0  0  0  0  0  0  0  0
   -2.7250  -17.0390    3.6390 C   0  0  0  0  0  0  0  0  0  0  0  0
   -1.5360  -16.7280    4.2960 C   0  0  0  0  0  0  0  0  0  0  0  0
   -0.3120  -16.8750    3.6370 C   0  0  0  0  0  0  0  0  0  0  0  0
    5.0440  -16.8360    0.6530 C   0  0  0  0  0  0  0  0  0  0  0  0
    6.2630  -16.1620   -0.0350 C   0  0  2  0  0  0  0  0  0  0  0  0
    6.3440  -14.7470    0.5190 C   0  0  1  0  0  0  0  0  0  0  0  0
    7.6030  -14.1400    0.2410 O   0  0  0  0  0  0  0  0  0  0  0  0
    5.1570  -14.1000   -0.2370 C   0  0  1  0  0  0  0  0  0  0  0  0
    5.1570  -14.7820   -1.5570 O   0  0  0  0  0  0  0  0  0  0  0  0
    6.0670  -15.8990   -1.5380 C   0  0  0  0  0  0  0  0  0  0  0  0
    5.5170  -17.0850   -2.3420 C   0  0  0  0  0  0  0  0  0  0  0  0
    7.3560  -15.4940   -2.2860 C   0  0  0  0  0  0  0  0  0  0  0  0
    5.2980  -12.5480   -0.5010 C   0  0  1  0  0  0  0  0  0  0  0  0
    5.5790  -11.6930    0.7500 C   0  0  0  0  0  0  0  0  0  0  0  0
    6.4520  -12.3010   -1.3410 O   0  0  0  0  0  0  0  0  0  0  0  0
    4.0550  -11.9890   -1.2500 C   0  0  1  0  0  0  0  0  0  0  0  0
    4.0210  -12.5510   -2.5890 O   0  0  0  0  0  0  0  0  0  0  0  0
    4.4240  -11.7670   -3.6180 C   0  0  0  0  0  0  0  0  0  0  0  0
    3.3190  -10.8280   -3.9980 C   0  0  0  0  0  0  0  0  0  0  0  0
    5.5220  -11.7910   -4.1570 O   0  0  0  0  0  0  0  0  0  0  0  0
    1.9686  -11.1678    1.0520 H   0  0  0  0  0  0  0  0  0  0  0  0
    0.9789   -9.6688    1.0334 H   0  0  0  0  0  0  0  0  0  0  0  0
    0.1757  -11.2755    1.0334 H   0  0  0  0  0  0  0  0  0  0  0  0
    2.7615  -11.9126    0.4736 H   0  0  0  0  0  0  0  0  0  0  0  0
    2.6323  -14.3347   -1.3881 H   0  0  0  0  0  0  0  0  0  0  0  0
    0.1409  -13.5343    2.0501 H   0  0  0  0  0  0  0  0  0  0  0  0
   -1.9003  -13.1520    3.4299 H   0  0  0  0  0  0  0  0  0  0  0  0
   -4.1558  -13.6324    2.4811 H   0  0  0  0  0  0  0  0  0  0  0  0
   -4.3744  -14.4885    0.1512 H   0  0  0  0  0  0  0  0  0  0  0  0
   -2.3381  -14.8778   -1.2371 H   0  0  0  0  0  0  0  0  0  0  0  0
    3.8985  -14.9331    2.5946 H   0  0  0  0  0  0  0  0  0  0  0  0
    4.4085  -13.2731    2.1352 H   0  0  0  0  0  0  0  0  0  0  0  0
    2.6661  -13.7097    2.1352 H   0  0  0  0  0  0  0  0  0  0  0  0
    3.1149  -16.3208    1.4223 H   0  0  0  0  0  0  0  0  0  0  0  0
    0.1248  -17.6797   -0.3227 H   0  0  0  0  0  0  0  0  0  0  0  0
    1.9349  -17.4629    2.1433 H   0  0  0  0  0  0  0  0  0  0  0  0
   -1.4510  -17.9799    0.6183 H   0  0  0  0  0  0  0  0  0  0  0  0
   -3.6298  -17.7262    1.7983 H   0  0  0  0  0  0  0  0  0  0  0  0
   -3.6875  -16.9308    4.1605 H   0  0  0  0  0  0  0  0  0  0  0  0
   -1.5607  -16.3664    5.3346 H   0  0  0  0  0  0  0  0  0  0  0  0
    0.6224  -16.6218    4.1594 H   0  0  0  0  0  0  0  0  0  0  0  0
    5.2670  -16.9178    1.7270 H   0  0  0  0  0  0  0  0  0  0  0  0
    4.9145  -17.8025    0.1440 H   0  0  0  0  0  0  0  0  0  0  0  0
    7.1213  -16.8286    0.1350 H   0  0  0  0  0  0  0  0  0  0  0  0
    6.2772  -14.6569    1.6133 H   0  0  0  0  0  0  0  0  0  0  0  0
    8.2400  -14.8530    0.0480 H   0  0  0  0  0  0  0  0  0  0  0  0
    5.1570  -17.8612   -1.6507 H   0  0  0  0  0  0  0  0  0  0  0  0
    4.6851  -16.7441   -2.9758 H   0  0  0  0  0  0  0  0  0  0  0  0
    6.3147  -17.4998   -2.9758 H   0  0  0  0  0  0  0  0  0  0  0  0
    8.1412  -15.2473   -1.5563 H   0  0  0  0  0  0  0  0  0  0  0  0
    7.6917  -16.3300   -2.9173 H   0  0  0  0  0  0  0  0  0  0  0  0
    7.1532  -14.6163   -2.9173 H   0  0  0  0  0  0  0  0  0  0  0  0
    5.3830  -12.2894    1.6533 H   0  0  0  0  0  0  0  0  0  0  0  0
    6.6305  -11.3701    0.7448 H   0  0  0  0  0  0  0  0  0  0  0  0
    4.9240  -10.8093    0.7448 H   0  0  0  0  0  0  0  0  0  0  0  0
    6.7370  -11.3840   -1.1440 H   0  0  0  0  0  0  0  0  0  0  0  0
    4.1364  -10.8924   -1.2802 H   0  0  0  0  0  0  0  0  0  0  0  0
    2.8484  -10.4281   -3.0877 H   0  0  0  0  0  0  0  0  0  0  0  0
    3.7305   -9.9990   -4.5926 H   0  0  0  0  0  0  0  0  0  0  0  0
    2.5673  -11.3678   -4.5926 H   0  0  0  0  0  0  0  0  0  0  0  0
  1  2  1  0
  2  3  2  0
  2  4  1  0
  4  5  1  0
  5  6  1  0
  6  7  1  0
  7  8  1  0
  8  9  2  0
  8 10  1  0
 10 11  2  0
 11 12  1  0
 12 13  2  0
 13 14  1  0
 14 15  2  0
  6 16  1  0
 16 17  1  1
 16 18  1  0
 18 19  1  0
 19 20  1  0
 20 21  2  0
 20 22  1  0
 22 23  2  0
 23 24  1  0
 24 25  2  0
 25 26  1  0
 26 27  2  0
 27 28  1  0
 28 29  2  0
 18 30  1  0
 30 31  1  0
 31 32  1  0
 32 33  1  0
 32 34  1  0
 34 35  1  6
 35 36  1  0
 36 37  1  0
 36 38  1  0
 34 39  1  0
 39 40  1  0
 39 41  1  6
 39 42  1  0
 42 43  1  0
 43 44  1  0
 44 45  1  0
 44 46  2  0
 42  5  1  0
 15 10  1  0
 34 16  1  0
 29 24  1  0
 36 31  1  0
  1 47  1  0
  1 48  1  0
  1 49  1  0
  5 50  1  1
  6 51  1  6
 11 52  1  0
 12 53  1  0
 13 54  1  0
 14 55  1  0
 15 56  1  0
 17 57  1  0
 17 58  1  0
 17 59  1  0
 18 60  1  1
 22 61  1  0
 23 62  1  0
 25 63  1  0
 26 64  1  0
 27 65  1  0
 28 66  1  0
 29 67  1  0
 30 68  1  0
 30 69  1  0
 31 70  1  6
 32 71  1  1
 33 72  1  0
 37 73  1  0
 37 74  1  0
 37 75  1  0
 38 76  1  0
 38 77  1  0
 38 78  1  0
 40 79  1  0
 40 80  1  0
 40 81  1  0
 41 82  1  0
 42 83  1  6
 45 84  1  0
 45 85  1  0
 45 86  1  0
M  END
>  <meeko>  (3) 
{"is_sidechain": [false], "free_energy": -7.299, "intermolecular_energy": -12.203, "internal_energy": -5.101}

$$$$
LIB_NNIHOVDDAZGURH__M_PUB_ALL__e8__s20260927
     RDKit          3D

 86 90  0  0  0  0  0  0  0  0999 V2000
    8.0060  -16.2030   -4.6920 C   0  0  0  0  0  0  0  0  0  0  0  0
    7.3160  -15.0030   -5.2630 C   0  0  0  0  0  0  0  0  0  0  0  0
    7.1280  -14.8090   -6.4560 O   0  0  0  0  0  0  0  0  0  0  0  0
    6.8920  -14.1850   -4.2620 O   0  0  0  0  0  0  0  0  0  0  0  0
    6.2980  -14.8460   -3.1210 C   0  0  1  0  0  0  0  0  0  0  0  0
    6.5050  -13.9650   -1.8650 C   0  0  2  0  0  0  0  0  0  0  0  0
    7.9280  -13.7700   -1.6540 O   0  0  0  0  0  0  0  0  0  0  0  0
    8.5180  -12.7640   -2.3490 C   0  0  0  0  0  0  0  0  0  0  0  0
    8.0110  -11.6930   -2.6410 O   0  0  0  0  0  0  0  0  0  0  0  0
    9.9150  -13.1240   -2.7060 C   0  0  0  0  0  0  0  0  0  0  0  0
   10.3120  -14.4610   -2.5520 C   0  0  0  0  0  0  0  0  0  0  0  0
   11.6120  -14.8530   -2.8760 C   0  0  0  0  0  0  0  0  0  0  0  0
   12.5230  -13.9120   -3.3560 C   0  0  0  0  0  0  0  0  0  0  0  0
   12.1370  -12.5820   -3.5120 C   0  0  0  0  0  0  0  0  0  0  0  0
   10.8370  -12.1850   -3.1880 C   0  0  0  0  0  0  0  0  0  0  0  0
    5.9030  -14.6190   -0.5700 C   0  0  1  0  0  0  0  0  0  0  0  0
    6.7430  -15.8760   -0.1820 C   0  0  0  0  0  0  0  0  0  0  0  0
    6.0520  -13.6550    0.6730 C   0  0  1  0  0  0  0  0  0  0  0  0
    6.0940  -12.2800    0.2430 O   0  0  0  0  0  0  0  0  0  0  0  0
    6.7270  -11.4010    1.0590 C   0  0  0  0  0  0  0  0  0  0  0  0
    6.2130  -10.7700    1.9710 O   0  0  0  0  0  0  0  0  0  0  0  0
    8.1540  -11.2520    0.7130 C   0  0  0  0  0  0  0  0  0  0  0  0
    9.1430  -11.9810    1.2520 C   0  0  0  0  0  0  0  0  0  0  0  0
   10.5600  -11.8360    0.8970 C   0  0  0  0  0  0  0  0  0  0  0  0
   11.1170  -10.5500    0.8630 C   0  0  0  0  0  0  0  0  0  0  0  0
   12.4540  -10.3610    0.5080 C   0  0  0  0  0  0  0  0  0  0  0  0
   13.2470  -11.4560    0.1710 C   0  0  0  0  0  0  0  0  0  0  0  0
   12.7020  -12.7380    0.1820 C   0  0  0  0  0  0  0  0  0  0  0  0
   11.3630  -12.9260    0.5380 C   0  0  0  0  0  0  0  0  0  0  0  0
    4.9550  -13.8430    1.7630 C   0  0  0  0  0  0  0  0  0  0  0  0
    3.5480  -14.2550    1.2520 C   0  0  2  0  0  0  0  0  0  0  0  0
    3.7380  -15.5300    0.4440 C   0  0  1  0  0  0  0  0  0  0  0  0
    2.5020  -16.2020    0.2120 O   0  0  0  0  0  0  0  0  0  0  0  0
    4.3770  -14.9370   -0.8360 C   0  0  1  0  0  0  0  0  0  0  0  0
    3.7240  -13.6120   -0.9840 O   0  0  0  0  0  0  0  0  0  0  0  0
    2.9590  -13.3010    0.1980 C   0  0  0  0  0  0  0  0  0  0  0  0
    3.0470  -11.8100    0.5470 C   0  0  0  0  0  0  0  0  0  0  0  0
    1.4640  -13.5370   -0.1090 C   0  0  0  0  0  0  0  0  0  0  0  0
    4.1050  -15.7550   -2.1620 C   0  0  1  0  0  0  0  0  0  0  0  0
    4.4790  -17.2480   -2.0990 C   0  0  0  0  0  0  0  0  0  0  0  0
    2.6820  -15.7780   -2.4330 O   0  0  0  0  0  0  0  0  0  0  0  0
    4.7970  -15.0910   -3.3860 C   0  0  1  0  0  0  0  0  0  0  0  0
    4.1610  -13.8120   -3.6490 O   0  0  0  0  0  0  0  0  0  0  0  0
    3.3740  -13.7070   -4.7470 C   0  0  0  0  0  0  0  0  0  0  0  0
    4.1300  -13.0230   -5.8440 C   0  0  0  0  0  0  0  0  0  0  0  0
    2.2260  -14.1170   -4.8540 O   0  0  0  0  0  0  0  0  0  0  0  0
    7.9778  -16.1540   -3.5935 H   0  0  0  0  0  0  0  0  0  0  0  0
    7.4949  -17.1160   -5.0315 H   0  0  0  0  0  0  0  0  0  0  0  0
    9.0521  -16.2206   -5.0315 H   0  0  0  0  0  0  0  0  0  0  0  0
    6.7789  -15.8210   -2.9532 H   0  0  0  0  0  0  0  0  0  0  0  0
    5.9860  -13.0115   -2.0425 H   0  0  0  0  0  0  0  0  0  0  0  0
    9.5948  -15.2044   -2.1738 H   0  0  0  0  0  0  0  0  0  0  0  0
   11.9176  -15.9025   -2.7530 H   0  0  0  0  0  0  0  0  0  0  0  0
   13.5475  -14.2202   -3.6117 H   0  0  0  0  0  0  0  0  0  0  0  0
   12.8578  -11.8426   -3.8913 H   0  0  0  0  0  0  0  0  0  0  0  0
   10.5369  -11.1340   -3.3114 H   0  0  0  0  0  0  0  0  0  0  0  0
    6.7971  -15.9569    0.9137 H   0  0  0  0  0  0  0  0  0  0  0  0
    6.2652  -16.7775   -0.5931 H   0  0  0  0  0  0  0  0  0  0  0  0
    7.7587  -15.7794   -0.5931 H   0  0  0  0  0  0  0  0  0  0  0  0
    7.0040  -13.9312    1.1498 H   0  0  0  0  0  0  0  0  0  0  0  0
    8.4245  -10.4933   -0.0361 H   0  0  0  0  0  0  0  0  0  0  0  0
    8.8753  -12.7346    2.0073 H   0  0  0  0  0  0  0  0  0  0  0  0
   10.4939   -9.6803    1.1188 H   0  0  0  0  0  0  0  0  0  0  0  0
   12.8814   -9.3475    0.4944 H   0  0  0  0  0  0  0  0  0  0  0  0
   14.3020  -11.3084   -0.1034 H   0  0  0  0  0  0  0  0  0  0  0  0
   13.3253  -13.6027   -0.0895 H   0  0  0  0  0  0  0  0  0  0  0  0
   10.9361  -13.9398    0.5361 H   0  0  0  0  0  0  0  0  0  0  0  0
    5.3017  -14.6221    2.4578 H   0  0  0  0  0  0  0  0  0  0  0  0
    4.8237  -12.8529    2.2240 H   0  0  0  0  0  0  0  0  0  0  0  0
    2.8994  -14.3023    2.1392 H   0  0  0  0  0  0  0  0  0  0  0  0
    4.3434  -16.3137    0.9229 H   0  0  0  0  0  0  0  0  0  0  0  0
    2.1850  -15.9420   -0.6720 H   0  0  0  0  0  0  0  0  0  0  0  0
    3.0541  -11.6891    1.6403 H   0  0  0  0  0  0  0  0  0  0  0  0
    3.9716  -11.3887    0.1255 H   0  0  0  0  0  0  0  0  0  0  0  0
    2.1784  -11.2829    0.1255 H   0  0  0  0  0  0  0  0  0  0  0  0
    0.9054  -13.6252    0.8345 H   0  0  0  0  0  0  0  0  0  0  0  0
    1.0708  -12.6898   -0.6901 H   0  0  0  0  0  0  0  0  0  0  0  0
    1.3509  -14.4641   -0.6901 H   0  0  0  0  0  0  0  0  0  0  0  0
    4.5577  -17.5622   -1.0478 H   0  0  0  0  0  0  0  0  0  0  0  0
    3.7020  -17.8422   -2.6021 H   0  0  0  0  0  0  0  0  0  0  0  0
    5.4444  -17.4057   -2.6021 H   0  0  0  0  0  0  0  0  0  0  0  0
    2.4370  -14.8580   -2.6660 H   0  0  0  0  0  0  0  0  0  0  0  0
    4.6981  -15.7687   -4.2468 H   0  0  0  0  0  0  0  0  0  0  0  0
    4.8784  -12.3459   -5.4066 H   0  0  0  0  0  0  0  0  0  0  0  0
    4.6360  -13.7764   -6.4656 H   0  0  0  0  0  0  0  0  0  0  0  0
    3.4309  -12.4444   -6.4656 H   0  0  0  0  0  0  0  0  0  0  0  0
  1  2  1  0
  2  3  2  0
  2  4  1  0
  4  5  1  0
  5  6  1  0
  6  7  1  0
  7  8  1  0
  8  9  2  0
  8 10  1  0
 10 11  2  0
 11 12  1  0
 12 13  2  0
 13 14  1  0
 14 15  2  0
  6 16  1  0
 16 17  1  1
 16 18  1  0
 18 19  1  0
 19 20  1  0
 20 21  2  0
 20 22  1  0
 22 23  2  0
 23 24  1  0
 24 25  2  0
 25 26  1  0
 26 27  2  0
 27 28  1  0
 28 29  2  0
 18 30  1  0
 30 31  1  0
 31 32  1  0
 32 33  1  0
 32 34  1  0
 34 35  1  6
 35 36  1  0
 36 37  1  0
 36 38  1  0
 34 39  1  0
 39 40  1  0
 39 41  1  6
 39 42  1  0
 42 43  1  0
 43 44  1  0
 44 45  1  0
 44 46  2  0
 42  5  1  0
 15 10  1  0
 34 16  1  0
 29 24  1  0
 36 31  1  0
  1 47  1  0
  1 48  1  0
  1 49  1  0
  5 50  1  1
  6 51  1  6
 11 52  1  0
 12 53  1  0
 13 54  1  0
 14 55  1  0
 15 56  1  0
 17 57  1  0
 17 58  1  0
 17 59  1  0
 18 60  1  1
 22 61  1  0
 23 62  1  0
 25 63  1  0
 26 64  1  0
 27 65  1  0
 28 66  1  0
 29 67  1  0
 30 68  1  0
 30 69  1  0
 31 70  1  1
 32 71  1  1
 33 72  1  0
 37 73  1  0
 37 74  1  0
 37 75  1  0
 38 76  1  0
 38 77  1  0
 38 78  1  0
 40 79  1  0
 40 80  1  0
 40 81  1  0
 41 82  1  0
 42 83  1  6
 45 84  1  0
 45 85  1  0
 45 86  1  0
M  END
>  <meeko>  (4) 
{"is_sidechain": [false], "free_energy": -7.11, "intermolecular_energy": -12.388, "internal_energy": -4.596}

$$$$
LIB_NNIHOVDDAZGURH__M_PUB_ALL__e8__s20260927
     RDKit          3D

 86 90  0  0  0  0  0  0  0  0999 V2000
    0.5650   -9.9780   -1.2070 C   0  0  0  0  0  0  0  0  0  0  0  0
    0.6050  -10.0260    0.2890 C   0  0  0  0  0  0  0  0  0  0  0  0
    0.1480   -9.1630    1.0270 O   0  0  0  0  0  0  0  0  0  0  0  0
    1.1840  -11.1850    0.7070 O   0  0  0  0  0  0  0  0  0  0  0  0
    0.6060  -12.4010    0.1780 C   0  0  1  0  0  0  0  0  0  0  0  0
    1.7360  -13.4290   -0.0680 C   0  0  2  0  0  0  0  0  0  0  0  0
    2.6880  -12.8700   -1.0100 O   0  0  0  0  0  0  0  0  0  0  0  0
    3.8670  -12.4300   -0.5010 C   0  0  0  0  0  0  0  0  0  0  0  0
    4.1250  -12.2610    0.6800 O   0  0  0  0  0  0  0  0  0  0  0  0
    4.8510  -12.1930   -1.5890 C   0  0  0  0  0  0  0  0  0  0  0  0
    6.2050  -12.0840   -1.2410 C   0  0  0  0  0  0  0  0  0  0  0  0
    7.1700  -11.8640   -2.2250 C   0  0  0  0  0  0  0  0  0  0  0  0
    6.7890  -11.7530   -3.5610 C   0  0  0  0  0  0  0  0  0  0  0  0
    5.4450  -11.8610   -3.9160 C   0  0  0  0  0  0  0  0  0  0  0  0
    4.4750  -12.0790   -2.9340 C   0  0  0  0  0  0  0  0  0  0  0  0
    1.1960  -14.7800   -0.6620 C   0  0  1  0  0  0  0  0  0  0  0  0
    0.6960  -14.5440   -2.1220 C   0  0  0  0  0  0  0  0  0  0  0  0
    2.3600  -15.8360   -0.8160 C   0  0  1  0  0  0  0  0  0  0  0  0
    3.4050  -15.5790    0.1410 O   0  0  0  0  0  0  0  0  0  0  0  0
    4.6480  -16.0200   -0.1730 C   0  0  0  0  0  0  0  0  0  0  0  0
    5.4150  -16.6030    0.5810 O   0  0  0  0  0  0  0  0  0  0  0  0
    5.0160  -15.6960   -1.5650 C   0  0  0  0  0  0  0  0  0  0  0  0
    6.2700  -15.7240   -2.0410 C   0  0  0  0  0  0  0  0  0  0  0  0
    6.6300  -15.4100   -3.4300 C   0  0  0  0  0  0  0  0  0  0  0  0
    5.6210  -15.4090   -4.4020 C   0  0  0  0  0  0  0  0  0  0  0  0
    5.9200  -15.1390   -5.7400 C   0  0  0  0  0  0  0  0  0  0  0  0
    7.2340  -14.8780   -6.1210 C   0  0  0  0  0  0  0  0  0  0  0  0
    8.2500  -14.8940   -5.1680 C   0  0  0  0  0  0  0  0  0  0  0  0
    7.9500  -15.1640   -3.8300 C   0  0  0  0  0  0  0  0  0  0  0  0
    1.8950  -17.3200   -0.7170 C   0  0  0  0  0  0  0  0  0  0  0  0
    0.7010  -17.5990    0.2360 C   0  0  2  0  0  0  0  0  0  0  0  0
   -0.4380  -16.7000   -0.2220 C   0  0  1  0  0  0  0  0  0  0  0  0
   -1.6870  -17.0990    0.3350 O   0  0  0  0  0  0  0  0  0  0  0  0
    0.0760  -15.3360    0.3050 C   0  0  1  0  0  0  0  0  0  0  0  0
    0.7850  -15.6820    1.5630 O   0  0  0  0  0  0  0  0  0  0  0  0
    0.9240  -17.1120    1.6790 C   0  0  0  0  0  0  0  0  0  0  0  0
    2.2740  -17.4970    2.2960 C   0  0  0  0  0  0  0  0  0  0  0  0
   -0.1230  -17.6250    2.6920 C   0  0  0  0  0  0  0  0  0  0  0  0
   -1.0540  -14.2900    0.6650 C   0  0  1  0  0  0  0  0  0  0  0  0
   -2.0670  -14.0060   -0.4610 C   0  0  0  0  0  0  0  0  0  0  0  0
   -1.8790  -14.8140    1.7330 O   0  0  0  0  0  0  0  0  0  0  0  0
   -0.4420  -12.9520    1.1690 C   0  0  1  0  0  0  0  0  0  0  0  0
    0.2120  -13.1860    2.4450 O   0  0  0  0  0  0  0  0  0  0  0  0
   -0.5080  -12.9830    3.5760 C   0  0  0  0  0  0  0  0  0  0  0  0
   -1.1920  -11.6520    3.5040 C   0  0  0  0  0  0  0  0  0  0  0  0
   -0.6130  -13.7610    4.5130 O   0  0  0  0  0  0  0  0  0  0  0  0
   -0.1081   -9.1702   -1.5301 H   0  0  0  0  0  0  0  0  0  0  0  0
    1.5769   -9.7893   -1.5950 H   0  0  0  0  0  0  0  0  0  0  0  0
    0.1969  -10.9392   -1.5950 H   0  0  0  0  0  0  0  0  0  0  0  0
    0.0985  -12.1978   -0.7766 H   0  0  0  0  0  0  0  0  0  0  0  0
    2.2042  -13.6417    0.9044 H   0  0  0  0  0  0  0  0  0  0  0  0
    6.5081  -12.1723   -0.1873 H   0  0  0  0  0  0  0  0  0  0  0  0
    8.2306  -11.7783   -1.9462 H   0  0  0  0  0  0  0  0  0  0  0  0
    7.5497  -11.5799   -4.3365 H   0  0  0  0  0  0  0  0  0  0  0  0
    5.1476  -11.7744   -4.9715 H   0  0  0  0  0  0  0  0  0  0  0  0
    3.4152  -12.1612   -3.2171 H   0  0  0  0  0  0  0  0  0  0  0  0
   -0.2985  -14.0746   -2.0976 H   0  0  0  0  0  0  0  0  0  0  0  0
    1.4005  -13.8833   -2.6485 H   0  0  0  0  0  0  0  0  0  0  0  0
    0.6337  -15.5078   -2.6485 H   0  0  0  0  0  0  0  0  0  0  0  0
    2.7438  -15.7058   -1.8386 H   0  0  0  0  0  0  0  0  0  0  0  0
    4.2095  -15.4131   -2.2574 H   0  0  0  0  0  0  0  0  0  0  0  0
    7.0788  -15.9992   -1.3481 H   0  0  0  0  0  0  0  0  0  0  0  0
    4.5826  -15.6230   -4.1088 H   0  0  0  0  0  0  0  0  0  0  0  0
    5.1176  -15.1326   -6.4924 H   0  0  0  0  0  0  0  0  0  0  0  0
    7.4692  -14.6595   -7.1731 H   0  0  0  0  0  0  0  0  0  0  0  0
    9.2890  -14.6940   -5.4688 H   0  0  0  0  0  0  0  0  0  0  0  0
    8.7580  -15.1836   -3.0838 H   0  0  0  0  0  0  0  0  0  0  0  0
    1.6043  -17.6492   -1.7255 H   0  0  0  0  0  0  0  0  0  0  0  0
    2.7477  -17.8694   -0.2914 H   0  0  0  0  0  0  0  0  0  0  0  0
    0.5358  -18.6863    0.2132 H   0  0  0  0  0  0  0  0  0  0  0  0
   -0.6507  -16.7095   -1.3012 H   0  0  0  0  0  0  0  0  0  0  0  0
   -1.5270  -17.8860    0.8870 H   0  0  0  0  0  0  0  0  0  0  0  0
    2.1955  -17.4746    3.3930 H   0  0  0  0  0  0  0  0  0  0  0  0
    2.5511  -18.5100    1.9688 H   0  0  0  0  0  0  0  0  0  0  0  0
    3.0438  -16.7826    1.9688 H   0  0  0  0  0  0  0  0  0  0  0  0
    0.2393  -17.4475    3.7154 H   0  0  0  0  0  0  0  0  0  0  0  0
   -1.0721  -17.0899    2.5410 H   0  0  0  0  0  0  0  0  0  0  0  0
   -0.2818  -18.7030    2.5410 H   0  0  0  0  0  0  0  0  0  0  0  0
   -3.0377  -13.7339   -0.0209 H   0  0  0  0  0  0  0  0  0  0  0  0
   -1.7008  -13.1759   -1.0829 H   0  0  0  0  0  0  0  0  0  0  0  0
   -2.1857  -14.9055   -1.0829 H   0  0  0  0  0  0  0  0  0  0  0  0
   -1.3490  -15.5170    2.1630 H   0  0  0  0  0  0  0  0  0  0  0  0
   -1.2550  -12.2174    1.2658 H   0  0  0  0  0  0  0  0  0  0  0  0
   -1.3822  -11.2819    4.5223 H   0  0  0  0  0  0  0  0  0  0  0  0
   -0.5492  -10.9379    2.9684 H   0  0  0  0  0  0  0  0  0  0  0  0
   -2.1468  -11.7589    2.9684 H   0  0  0  0  0  0  0  0  0  0  0  0
  1  2  1  0
  2  3  2  0
  2  4  1  0
  4  5  1  0
  5  6  1  0
  6  7  1  0
  7  8  1  0
  8  9  2  0
  8 10  1  0
 10 11  2  0
 11 12  1  0
 12 13  2  0
 13 14  1  0
 14 15  2  0
  6 16  1  0
 16 17  1  6
 16 18  1  0
 18 19  1  0
 19 20  1  0
 20 21  2  0
 20 22  1  0
 22 23  2  0
 23 24  1  0
 24 25  2  0
 25 26  1  0
 26 27  2  0
 27 28  1  0
 28 29  2  0
 18 30  1  0
 30 31  1  0
 31 32  1  0
 32 33  1  0
 32 34  1  0
 34 35  1  1
 35 36  1  0
 36 37  1  0
 36 38  1  0
 34 39  1  0
 39 40  1  0
 39 41  1  1
 39 42  1  0
 42 43  1  0
 43 44  1  0
 44 45  1  0
 44 46  2  0
 42  5  1  0
 15 10  1  0
 34 16  1  0
 29 24  1  0
 36 31  1  0
  1 47  1  0
  1 48  1  0
  1 49  1  0
  5 50  1  6
  6 51  1  1
 11 52  1  0
 12 53  1  0
 13 54  1  0
 14 55  1  0
 15 56  1  0
 17 57  1  0
 17 58  1  0
 17 59  1  0
 18 60  1  6
 22 61  1  0
 23 62  1  0
 25 63  1  0
 26 64  1  0
 27 65  1  0
 28 66  1  0
 29 67  1  0
 30 68  1  0
 30 69  1  0
 31 70  1  1
 32 71  1  6
 33 72  1  0
 37 73  1  0
 37 74  1  0
 37 75  1  0
 38 76  1  0
 38 77  1  0
 38 78  1  0
 40 79  1  0
 40 80  1  0
 40 81  1  0
 41 82  1  0
 42 83  1  1
 45 84  1  0
 45 85  1  0
 45 86  1  0
M  END
>  <meeko>  (5) 
{"is_sidechain": [false], "free_energy": -6.942, "intermolecular_energy": -11.873, "internal_energy": -4.825}

$$$$
LIB_NNIHOVDDAZGURH__M_PUB_ALL__e8__s20260927
     RDKit          3D

 86 90  0  0  0  0  0  0  0  0999 V2000
    8.8090  -16.0180   -1.3210 C   0  0  0  0  0  0  0  0  0  0  0  0
    9.6440  -14.7870   -1.4940 C   0  0  0  0  0  0  0  0  0  0  0  0
   10.2440  -14.2190   -0.5910 O   0  0  0  0  0  0  0  0  0  0  0  0
    9.6700  -14.4180   -2.8030 O   0  0  0  0  0  0  0  0  0  0  0  0
    9.4640  -15.4840   -3.7590 C   0  0  1  0  0  0  0  0  0  0  0  0
    8.4740  -15.0000   -4.8460 C   0  0  2  0  0  0  0  0  0  0  0  0
    7.2180  -14.6370   -4.2140 O   0  0  0  0  0  0  0  0  0  0  0  0
    7.1240  -13.3770   -3.7190 C   0  0  0  0  0  0  0  0  0  0  0  0
    7.7110  -12.3910   -4.1350 O   0  0  0  0  0  0  0  0  0  0  0  0
    6.1670  -13.3310   -2.5830 C   0  0  0  0  0  0  0  0  0  0  0  0
    5.5040  -14.5160   -2.2300 C   0  0  0  0  0  0  0  0  0  0  0  0
    4.5980  -14.5280   -1.1680 C   0  0  0  0  0  0  0  0  0  0  0  0
    4.3500  -13.3570   -0.4520 C   0  0  0  0  0  0  0  0  0  0  0  0
    5.0040  -12.1750   -0.7950 C   0  0  0  0  0  0  0  0  0  0  0  0
    5.9110  -12.1590   -1.8580 C   0  0  0  0  0  0  0  0  0  0  0  0
    8.1780  -16.1070   -5.9200 C   0  0  1  0  0  0  0  0  0  0  0  0
    7.3520  -17.2590   -5.2690 C   0  0  0  0  0  0  0  0  0  0  0  0
    7.2370  -15.5520   -7.0610 C   0  0  1  0  0  0  0  0  0  0  0  0
    7.3920  -14.1260   -7.1950 O   0  0  0  0  0  0  0  0  0  0  0  0
    6.3580  -13.4440   -7.7450 C   0  0  0  0  0  0  0  0  0  0  0  0
    6.1130  -13.3520   -8.9400 O   0  0  0  0  0  0  0  0  0  0  0  0
    5.5300  -12.7730   -6.7240 C   0  0  0  0  0  0  0  0  0  0  0  0
    4.4890  -13.3450   -6.1010 C   0  0  0  0  0  0  0  0  0  0  0  0
    3.6740  -12.6760   -5.0770 C   0  0  0  0  0  0  0  0  0  0  0  0
    3.8620  -11.3050   -4.8590 C   0  0  0  0  0  0  0  0  0  0  0  0
    3.1270  -10.6310   -3.8810 C   0  0  0  0  0  0  0  0  0  0  0  0
    2.2040  -11.3250   -3.1020 C   0  0  0  0  0  0  0  0  0  0  0  0
    2.0200  -12.6920   -3.2960 C   0  0  0  0  0  0  0  0  0  0  0  0
    2.7560  -13.3650   -4.2750 C   0  0  0  0  0  0  0  0  0  0  0  0
    7.4290  -16.2450   -8.4430 C   0  0  0  0  0  0  0  0  0  0  0  0
    8.8700  -16.7180   -8.7750 C   0  0  2  0  0  0  0  0  0  0  0  0
    9.2950  -17.6390   -7.6390 C   0  0  1  0  0  0  0  0  0  0  0  0
   10.4430  -18.4100   -7.9820 O   0  0  0  0  0  0  0  0  0  0  0  0
    9.5550  -16.5870   -6.5320 C   0  0  1  0  0  0  0  0  0  0  0  0
   10.0830  -15.4120   -7.2700 O   0  0  0  0  0  0  0  0  0  0  0  0
    9.9310  -15.6070   -8.6900 C   0  0  0  0  0  0  0  0  0  0  0  0
    9.5620  -14.2980   -9.4010 C   0  0  0  0  0  0  0  0  0  0  0  0
   11.3050  -15.9910   -9.2820 C   0  0  0  0  0  0  0  0  0  0  0  0
   10.6370  -17.0010   -5.4560 C   0  0  1  0  0  0  0  0  0  0  0  0
   10.3890  -18.3570   -4.7670 C   0  0  0  0  0  0  0  0  0  0  0  0
   11.9200  -17.1850   -6.1030 O   0  0  0  0  0  0  0  0  0  0  0  0
   10.8170  -15.8910   -4.3820 C   0  0  1  0  0  0  0  0  0  0  0  0
   11.4050  -14.7210   -5.0100 O   0  0  0  0  0  0  0  0  0  0  0  0
   12.6610  -14.3670   -4.6440 C   0  0  0  0  0  0  0  0  0  0  0  0
   12.6530  -12.9680   -4.1090 C   0  0  0  0  0  0  0  0  0  0  0  0
   13.6590  -15.0710   -4.7130 O   0  0  0  0  0  0  0  0  0  0  0  0
    8.6718  -16.2203   -0.2485 H   0  0  0  0  0  0  0  0  0  0  0  0
    7.8276  -15.8648   -1.7937 H   0  0  0  0  0  0  0  0  0  0  0  0
    9.3142  -16.8732   -1.7937 H   0  0  0  0  0  0  0  0  0  0  0  0
    9.0383  -16.3667   -3.2594 H   0  0  0  0  0  0  0  0  0  0  0  0
    8.9371  -14.1410   -5.3536 H   0  0  0  0  0  0  0  0  0  0  0  0
    5.6991  -15.4406   -2.7931 H   0  0  0  0  0  0  0  0  0  0  0  0
    4.0804  -15.4598   -0.8962 H   0  0  0  0  0  0  0  0  0  0  0  0
    3.6366  -13.3664    0.3853 H   0  0  0  0  0  0  0  0  0  0  0  0
    4.8059  -11.2533   -0.2281 H   0  0  0  0  0  0  0  0  0  0  0  0
    6.4253  -11.2244   -2.1264 H   0  0  0  0  0  0  0  0  0  0  0  0
    7.4100  -17.1780   -4.1735 H   0  0  0  0  0  0  0  0  0  0  0  0
    6.3018  -17.1823   -5.5872 H   0  0  0  0  0  0  0  0  0  0  0  0
    7.7616  -18.2290   -5.5872 H   0  0  0  0  0  0  0  0  0  0  0  0
    6.2122  -15.7921   -6.7414 H   0  0  0  0  0  0  0  0  0  0  0  0
    5.7831  -11.7364   -6.4566 H   0  0  0  0  0  0  0  0  0  0  0  0
    4.2291  -14.3786   -6.3732 H   0  0  0  0  0  0  0  0  0  0  0  0
    4.5963  -10.7534   -5.4645 H   0  0  0  0  0  0  0  0  0  0  0  0
    3.2770   -9.5524   -3.7260 H   0  0  0  0  0  0  0  0  0  0  0  0
    1.6213  -10.7942   -2.3347 H   0  0  0  0  0  0  0  0  0  0  0  0
    1.2949  -13.2422   -2.6782 H   0  0  0  0  0  0  0  0  0  0  0  0
    2.6128  -14.4464   -4.4169 H   0  0  0  0  0  0  0  0  0  0  0  0
    6.7710  -17.1260   -8.4716 H   0  0  0  0  0  0  0  0  0  0  0  0
    7.1891  -15.4781   -9.1942 H   0  0  0  0  0  0  0  0  0  0  0  0
    8.8295  -17.1400   -9.7900 H   0  0  0  0  0  0  0  0  0  0  0  0
    8.5692  -18.4151   -7.3547 H   0  0  0  0  0  0  0  0  0  0  0  0
   11.1760  -17.7910   -8.1520 H   0  0  0  0  0  0  0  0  0  0  0  0
    9.3435  -13.5228   -8.6518 H   0  0  0  0  0  0  0  0  0  0  0  0
   10.4035  -13.9728  -10.0304 H   0  0  0  0  0  0  0  0  0  0  0  0
    8.6746  -14.4602  -10.0304 H   0  0  0  0  0  0  0  0  0  0  0  0
   12.0140  -16.1891   -8.4646 H   0  0  0  0  0  0  0  0  0  0  0  0
   11.1980  -16.8937   -9.9015 H   0  0  0  0  0  0  0  0  0  0  0  0
   11.6815  -15.1637   -9.9015 H   0  0  0  0  0  0  0  0  0  0  0  0
   10.4134  -18.2235   -3.6754 H   0  0  0  0  0  0  0  0  0  0  0  0
    9.4048  -18.7461   -5.0669 H   0  0  0  0  0  0  0  0  0  0  0  0
   11.1718  -19.0693   -5.0669 H   0  0  0  0  0  0  0  0  0  0  0  0
   12.1330  -18.1370   -6.0120 H   0  0  0  0  0  0  0  0  0  0  0  0
   11.4664  -16.2841   -3.5859 H   0  0  0  0  0  0  0  0  0  0  0  0
   12.6532  -12.9960   -3.0094 H   0  0  0  0  0  0  0  0  0  0  0  0
   13.5481  -12.4352   -4.4624 H   0  0  0  0  0  0  0  0  0  0  0  0
   11.7519  -12.4454   -4.4624 H   0  0  0  0  0  0  0  0  0  0  0  0
  1  2  1  0
  2  3  2  0
  2  4  1  0
  4  5  1  0
  5  6  1  0
  6  7  1  0
  7  8  1  0
  8  9  2  0
  8 10  1  0
 10 11  2  0
 11 12  1  0
 12 13  2  0
 13 14  1  0
 14 15  2  0
  6 16  1  0
 16 17  1  1
 16 18  1  0
 18 19  1  0
 19 20  1  0
 20 21  2  0
 20 22  1  0
 22 23  2  0
 23 24  1  0
 24 25  2  0
 25 26  1  0
 26 27  2  0
 27 28  1  0
 28 29  2  0
 18 30  1  0
 30 31  1  0
 31 32  1  0
 32 33  1  0
 32 34  1  0
 34 35  1  6
 35 36  1  0
 36 37  1  0
 36 38  1  0
 34 39  1  0
 39 40  1  0
 39 41  1  6
 39 42  1  0
 42 43  1  0
 43 44  1  0
 44 45  1  0
 44 46  2  0
 42  5  1  0
 15 10  1  0
 34 16  1  0
 29 24  1  0
 36 31  1  0
  1 47  1  0
  1 48  1  0
  1 49  1  0
  5 50  1  1
  6 51  1  6
 11 52  1  0
 12 53  1  0
 13 54  1  0
 14 55  1  0
 15 56  1  0
 17 57  1  0
 17 58  1  0
 17 59  1  0
 18 60  1  1
 22 61  1  0
 23 62  1  0
 25 63  1  0
 26 64  1  0
 27 65  1  0
 28 66  1  0
 29 67  1  0
 30 68  1  0
 30 69  1  0
 31 70  1  6
 32 71  1  1
 33 72  1  0
 37 73  1  0
 37 74  1  0
 37 75  1  0
 38 76  1  0
 38 77  1  0
 38 78  1  0
 40 79  1  0
 40 80  1  0
 40 81  1  0
 41 82  1  0
 42 83  1  1
 45 84  1  0
 45 85  1  0
 45 86  1  0
M  END
>  <meeko>  (6) 
{"is_sidechain": [false], "free_energy": -6.874, "intermolecular_energy": -11.533, "internal_energy": -5.049}

$$$$
LIB_NNIHOVDDAZGURH__M_PUB_ALL__e8__s20260927
     RDKit          3D

 86 90  0  0  0  0  0  0  0  0999 V2000
   12.3130  -13.0450    0.3500 C   0  0  0  0  0  0  0  0  0  0  0  0
   10.9850  -12.4380    0.6820 C   0  0  0  0  0  0  0  0  0  0  0  0
   10.8310  -11.3700    1.2580 O   0  0  0  0  0  0  0  0  0  0  0  0
    9.9790  -13.2260    0.2160 O   0  0  0  0  0  0  0  0  0  0  0  0
    9.0110  -12.5690   -0.6340 C   0  0  1  0  0  0  0  0  0  0  0  0
    8.8580  -13.3810   -1.9430 C   0  0  2  0  0  0  0  0  0  0  0  0
   10.1470  -13.4560   -2.6070 O   0  0  0  0  0  0  0  0  0  0  0  0
   10.7830  -14.6540   -2.5740 C   0  0  0  0  0  0  0  0  0  0  0  0
   10.4880  -15.6100   -1.8760 O   0  0  0  0  0  0  0  0  0  0  0  0
   11.9110  -14.6730   -3.5430 C   0  0  0  0  0  0  0  0  0  0  0  0
   12.2580  -13.4710   -4.1760 C   0  0  0  0  0  0  0  0  0  0  0  0
   13.3110  -13.4350   -5.0910 C   0  0  0  0  0  0  0  0  0  0  0  0
   14.0240  -14.5980   -5.3790 C   0  0  0  0  0  0  0  0  0  0  0  0
   13.6850  -15.7980   -4.7550 C   0  0  0  0  0  0  0  0  0  0  0  0
   12.6310  -15.8390   -3.8380 C   0  0  0  0  0  0  0  0  0  0  0  0
    7.8330  -12.7250   -2.9370 C   0  0  1  0  0  0  0  0  0  0  0  0
    8.4250  -11.3920   -3.4910 C   0  0  0  0  0  0  0  0  0  0  0  0
    7.6340  -13.6240   -4.2210 C   0  0  1  0  0  0  0  0  0  0  0  0
    7.8960  -15.0070   -3.9140 O   0  0  0  0  0  0  0  0  0  0  0  0
    8.1710  -15.8270   -4.9590 C   0  0  0  0  0  0  0  0  0  0  0  0
    7.6460  -16.9090   -5.1790 O   0  0  0  0  0  0  0  0  0  0  0  0
    9.2270  -15.2780   -5.8310 C   0  0  0  0  0  0  0  0  0  0  0  0
   10.0350  -16.0240   -6.6000 C   0  0  0  0  0  0  0  0  0  0  0  0
   11.0780  -15.4710   -7.4750 C   0  0  0  0  0  0  0  0  0  0  0  0
   11.0180  -14.1140   -7.8180 C   0  0  0  0  0  0  0  0  0  0  0  0
   11.9750  -13.5510   -8.6660 C   0  0  0  0  0  0  0  0  0  0  0  0
   12.9960  -14.3410   -9.1880 C   0  0  0  0  0  0  0  0  0  0  0  0
   13.0560  -15.6960   -8.8700 C   0  0  0  0  0  0  0  0  0  0  0  0
   12.0990  -16.2600   -8.0210 C   0  0  0  0  0  0  0  0  0  0  0  0
    6.2360  -13.4800   -4.8930 C   0  0  0  0  0  0  0  0  0  0  0  0
    5.0450  -13.2000   -3.9370 C   0  0  2  0  0  0  0  0  0  0  0  0
    5.4050  -11.9460   -3.1530 C   0  0  1  0  0  0  0  0  0  0  0  0
    4.2700  -11.3830   -2.5000 O   0  0  0  0  0  0  0  0  0  0  0  0
    6.4570  -12.5380   -2.1810 C   0  0  1  0  0  0  0  0  0  0  0  0
    5.9670  -13.9150   -1.9170 O   0  0  0  0  0  0  0  0  0  0  0  0
    4.8850  -14.2380   -2.8130 C   0  0  0  0  0  0  0  0  0  0  0  0
    4.9470  -15.7030   -3.2640 C   0  0  0  0  0  0  0  0  0  0  0  0
    3.5560  -14.1320   -2.0330 C   0  0  0  0  0  0  0  0  0  0  0  0
    6.5740  -11.7970   -0.7890 C   0  0  1  0  0  0  0  0  0  0  0  0
    6.8150  -10.2780   -0.8740 C   0  0  0  0  0  0  0  0  0  0  0  0
    5.3150  -11.8960   -0.0800 O   0  0  0  0  0  0  0  0  0  0  0  0
    7.6620  -12.4530    0.1080 C   0  0  1  0  0  0  0  0  0  0  0  0
    7.2240  -13.7870    0.4790 O   0  0  0  0  0  0  0  0  0  0  0  0
    6.4100  -13.9140    1.5550 C   0  0  0  0  0  0  0  0  0  0  0  0
    5.5730  -15.1480    1.4090 C   0  0  0  0  0  0  0  0  0  0  0  0
    6.3640  -13.1610    2.5170 O   0  0  0  0  0  0  0  0  0  0  0  0
   12.8473  -13.2892    1.2800 H   0  0  0  0  0  0  0  0  0  0  0  0
   12.1603  -13.9627   -0.2369 H   0  0  0  0  0  0  0  0  0  0  0  0
   12.9070  -12.3290   -0.2369 H   0  0  0  0  0  0  0  0  0  0  0  0
    9.3517  -11.5535   -0.8843 H   0  0  0  0  0  0  0  0  0  0  0  0
    8.4835  -14.3784   -1.6693 H   0  0  0  0  0  0  0  0  0  0  0  0
   11.6974  -12.5519   -3.9502 H   0  0  0  0  0  0  0  0  0  0  0  0
   13.5785  -12.4892   -5.5850 H   0  0  0  0  0  0  0  0  0  0  0  0
   14.8549  -14.5689   -6.0993 H   0  0  0  0  0  0  0  0  0  0  0  0
   14.2483  -16.7144   -4.9849 H   0  0  0  0  0  0  0  0  0  0  0  0
   12.3662  -16.7872   -3.3473 H   0  0  0  0  0  0  0  0  0  0  0  0
    8.7136  -10.7422   -2.6517 H   0  0  0  0  0  0  0  0  0  0  0  0
    9.3102  -11.6115   -4.1060 H   0  0  0  0  0  0  0  0  0  0  0  0
    7.6686  -10.8825   -4.1060 H   0  0  0  0  0  0  0  0  0  0  0  0
    8.3637  -13.2545   -4.9566 H   0  0  0  0  0  0  0  0  0  0  0  0
    9.3606  -14.1864   -5.8521 H   0  0  0  0  0  0  0  0  0  0  0  0
    9.9088  -17.1164   -6.5738 H   0  0  0  0  0  0  0  0  0  0  0  0
   10.2096  -13.4857   -7.4158 H   0  0  0  0  0  0  0  0  0  0  0  0
   11.9219  -12.4824   -8.9216 H   0  0  0  0  0  0  0  0  0  0  0  0
   13.7535  -13.8961   -9.8500 H   0  0  0  0  0  0  0  0  0  0  0  0
   13.8575  -16.3231   -9.2875 H   0  0  0  0  0  0  0  0  0  0  0  0
   12.1481  -17.3321   -7.7797 H   0  0  0  0  0  0  0  0  0  0  0  0
    6.2925  -12.6494   -5.6120 H   0  0  0  0  0  0  0  0  0  0  0  0
    6.0251  -14.4583   -5.3496 H   0  0  0  0  0  0  0  0  0  0  0  0
    4.1444  -13.1687   -4.5678 H   0  0  0  0  0  0  0  0  0  0  0  0
    5.7750  -11.0986   -3.7489 H   0  0  0  0  0  0  0  0  0  0  0  0
    4.3950  -10.4170   -2.4690 H   0  0  0  0  0  0  0  0  0  0  0  0
    4.9747  -16.3578   -2.3805 H   0  0  0  0  0  0  0  0  0  0  0  0
    4.0580  -15.9388   -3.8674 H   0  0  0  0  0  0  0  0  0  0  0  0
    5.8527  -15.8629   -3.8674 H   0  0  0  0  0  0  0  0  0  0  0  0
    3.7626  -14.1485   -0.9527 H   0  0  0  0  0  0  0  0  0  0  0  0
    3.0509  -13.1907   -2.2954 H   0  0  0  0  0  0  0  0  0  0  0  0
    2.9081  -14.9813   -2.2954 H   0  0  0  0  0  0  0  0  0  0  0  0
    6.8813   -9.8599    0.1413 H   0  0  0  0  0  0  0  0  0  0  0  0
    7.7549  -10.0854   -1.4120 H   0  0  0  0  0  0  0  0  0  0  0  0
    5.9808   -9.8039   -1.4120 H   0  0  0  0  0  0  0  0  0  0  0  0
    5.4490  -11.4310    0.7730 H   0  0  0  0  0  0  0  0  0  0  0  0
    7.8032  -11.8196    0.9962 H   0  0  0  0  0  0  0  0  0  0  0  0
    5.3114  -15.5336    2.4054 H   0  0  0  0  0  0  0  0  0  0  0  0
    4.6532  -14.9040    0.8572 H   0  0  0  0  0  0  0  0  0  0  0  0
    6.1398  -15.9123    0.8572 H   0  0  0  0  0  0  0  0  0  0  0  0
  1  2  1  0
  2  3  2  0
  2  4  1  0
  4  5  1  0
  5  6  1  0
  6  7  1  0
  7  8  1  0
  8  9  2  0
  8 10  1  0
 10 11  2  0
 11 12  1  0
 12 13  2  0
 13 14  1  0
 14 15  2  0
  6 16  1  0
 16 17  1  6
 16 18  1  0
 18 19  1  0
 19 20  1  0
 20 21  2  0
 20 22  1  0
 22 23  2  0
 23 24  1  0
 24 25  2  0
 25 26  1  0
 26 27  2  0
 27 28  1  0
 28 29  2  0
 18 30  1  0
 30 31  1  0
 31 32  1  0
 32 33  1  0
 32 34  1  0
 34 35  1  1
 35 36  1  0
 36 37  1  0
 36 38  1  0
 34 39  1  0
 39 40  1  0
 39 41  1  1
 39 42  1  0
 42 43  1  0
 43 44  1  0
 44 45  1  0
 44 46  2  0
 42  5  1  0
 15 10  1  0
 34 16  1  0
 29 24  1  0
 36 31  1  0
  1 47  1  0
  1 48  1  0
  1 49  1  0
  5 50  1  6
  6 51  1  1
 11 52  1  0
 12 53  1  0
 13 54  1  0
 14 55  1  0
 15 56  1  0
 17 57  1  0
 17 58  1  0
 17 59  1  0
 18 60  1  6
 22 61  1  0
 23 62  1  0
 25 63  1  0
 26 64  1  0
 27 65  1  0
 28 66  1  0
 29 67  1  0
 30 68  1  0
 30 69  1  0
 31 70  1  6
 32 71  1  6
 33 72  1  0
 37 73  1  0
 37 74  1  0
 37 75  1  0
 38 76  1  0
 38 77  1  0
 38 78  1  0
 40 79  1  0
 40 80  1  0
 40 81  1  0
 41 82  1  0
 42 83  1  1
 45 84  1  0
 45 85  1  0
 45 86  1  0
M  END
>  <meeko>  (7) 
{"is_sidechain": [false], "free_energy": -6.757, "intermolecular_energy": -11.621, "internal_energy": -4.761}

$$$$
LIB_NNIHOVDDAZGURH__M_PUB_ALL__e8__s20260927
     RDKit          3D

 86 90  0  0  0  0  0  0  0  0999 V2000
   11.3830  -15.7960   -4.4670 C   0  0  0  0  0  0  0  0  0  0  0  0
   10.5680  -16.9030   -3.8720 C   0  0  0  0  0  0  0  0  0  0  0  0
   11.0230  -17.9670   -3.4740 O   0  0  0  0  0  0  0  0  0  0  0  0
    9.2600  -16.5370   -3.8020 O   0  0  0  0  0  0  0  0  0  0  0  0
    9.0010  -15.2480   -3.2000 C   0  0  1  0  0  0  0  0  0  0  0  0
    7.8510  -14.5550   -3.9710 C   0  0  2  0  0  0  0  0  0  0  0  0
    8.2410  -14.3960   -5.3600 O   0  0  0  0  0  0  0  0  0  0  0  0
    7.8900  -15.3920   -6.2120 C   0  0  0  0  0  0  0  0  0  0  0  0
    6.9760  -16.1870   -6.0570 O   0  0  0  0  0  0  0  0  0  0  0  0
    8.7660  -15.3870   -7.4120 C   0  0  0  0  0  0  0  0  0  0  0  0
    9.5760  -14.2630   -7.6340 C   0  0  0  0  0  0  0  0  0  0  0  0
   10.4190  -14.2100   -8.7440 C   0  0  0  0  0  0  0  0  0  0  0  0
   10.4600  -15.2780   -9.6400 C   0  0  0  0  0  0  0  0  0  0  0  0
    9.6590  -16.3990   -9.4270 C   0  0  0  0  0  0  0  0  0  0  0  0
    8.8120  -16.4560   -8.3170 C   0  0  0  0  0  0  0  0  0  0  0  0
    7.5150  -13.1340   -3.3910 C   0  0  1  0  0  0  0  0  0  0  0  0
    8.6940  -12.1560   -3.6910 C   0  0  0  0  0  0  0  0  0  0  0  0
    6.2800  -12.4940   -4.1420 C   0  0  1  0  0  0  0  0  0  0  0  0
    5.4220  -13.5230   -4.6710 O   0  0  0  0  0  0  0  0  0  0  0  0
    4.5800  -13.1660   -5.6710 C   0  0  0  0  0  0  0  0  0  0  0  0
    3.4440  -12.7340   -5.5330 O   0  0  0  0  0  0  0  0  0  0  0  0
    5.1780  -13.3790   -7.0030 C   0  0  0  0  0  0  0  0  0  0  0  0
    5.8770  -12.4510   -7.6750 C   0  0  0  0  0  0  0  0  0  0  0  0
    6.4790  -12.6720   -8.9960 C   0  0  0  0  0  0  0  0  0  0  0  0
    6.4170  -13.9550   -9.5570 C   0  0  0  0  0  0  0  0  0  0  0  0
    6.9970  -14.2180  -10.8010 C   0  0  0  0  0  0  0  0  0  0  0  0
    7.6530  -13.2020  -11.4920 C   0  0  0  0  0  0  0  0  0  0  0  0
    7.7380  -11.9270  -10.9380 C   0  0  0  0  0  0  0  0  0  0  0  0
    7.1580  -11.6650   -9.6930 C   0  0  0  0  0  0  0  0  0  0  0  0
    5.4520  -11.4980   -3.2760 C   0  0  0  0  0  0  0  0  0  0  0  0
    5.3710  -11.8160   -1.7590 C   0  0  2  0  0  0  0  0  0  0  0  0
    6.8050  -11.9090   -1.2590 C   0  0  1  0  0  0  0  0  0  0  0  0
    6.8780  -11.8510    0.1630 O   0  0  0  0  0  0  0  0  0  0  0  0
    7.1990  -13.2870   -1.8490 C   0  0  1  0  0  0  0  0  0  0  0  0
    5.9430  -14.0770   -1.7860 O   0  0  0  0  0  0  0  0  0  0  0  0
    4.8350  -13.2220   -1.4400 C   0  0  0  0  0  0  0  0  0  0  0  0
    3.5610  -13.6220   -2.1960 C   0  0  0  0  0  0  0  0  0  0  0  0
    4.4870  -13.4490    0.0470 C   0  0  0  0  0  0  0  0  0  0  0  0
    8.3010  -14.0740   -1.0340 C   0  0  1  0  0  0  0  0  0  0  0  0
    9.6000  -13.2910   -0.7630 C   0  0  0  0  0  0  0  0  0  0  0  0
    7.8040  -14.3680    0.2950 O   0  0  0  0  0  0  0  0  0  0  0  0
    8.6390  -15.4330   -1.7110 C   0  0  1  0  0  0  0  0  0  0  0  0
    7.4780  -16.3020   -1.6240 O   0  0  0  0  0  0  0  0  0  0  0  0
    7.6150  -17.4850   -0.9760 C   0  0  0  0  0  0  0  0  0  0  0  0
    6.3580  -17.7930   -0.2220 C   0  0  0  0  0  0  0  0  0  0  0  0
    8.5970  -18.2130   -1.0040 O   0  0  0  0  0  0  0  0  0  0  0  0
   11.8267  -15.1933   -3.6609 H   0  0  0  0  0  0  0  0  0  0  0  0
   12.1837  -16.2234   -5.0885 H   0  0  0  0  0  0  0  0  0  0  0  0
   10.7371  -15.1584   -5.0885 H   0  0  0  0  0  0  0  0  0  0  0  0
    9.8983  -14.6143   -3.2567 H   0  0  0  0  0  0  0  0  0  0  0  0
    6.9579  -15.1892   -3.8704 H   0  0  0  0  0  0  0  0  0  0  0  0
    9.5460  -13.4192   -6.9290 H   0  0  0  0  0  0  0  0  0  0  0  0
   11.0514  -13.3259   -8.9127 H   0  0  0  0  0  0  0  0  0  0  0  0
   11.1248  -15.2358  -10.5154 H   0  0  0  0  0  0  0  0  0  0  0  0
    9.6938  -17.2406  -10.1344 H   0  0  0  0  0  0  0  0  0  0  0  0
    8.1803  -17.3415   -8.1533 H   0  0  0  0  0  0  0  0  0  0  0  0
    9.1244  -11.7990   -2.7437 H   0  0  0  0  0  0  0  0  0  0  0  0
    9.4677  -12.6812   -4.2703 H   0  0  0  0  0  0  0  0  0  0  0  0
    8.3208  -11.2986   -4.2703 H   0  0  0  0  0  0  0  0  0  0  0  0
    6.7079  -11.9001   -4.9631 H   0  0  0  0  0  0  0  0  0  0  0  0
    5.0420  -14.3627   -7.4762 H   0  0  0  0  0  0  0  0  0  0  0  0
    6.0070  -11.4639   -7.2073 H   0  0  0  0  0  0  0  0  0  0  0  0
    5.9066  -14.7631   -9.0125 H   0  0  0  0  0  0  0  0  0  0  0  0
    6.9355  -15.2272  -11.2343 H   0  0  0  0  0  0  0  0  0  0  0  0
    8.1036  -13.4065  -12.4744 H   0  0  0  0  0  0  0  0  0  0  0  0
    8.2616  -11.1258  -11.4801 H   0  0  0  0  0  0  0  0  0  0  0  0
    7.2358  -10.6582   -9.2569 H   0  0  0  0  0  0  0  0  0  0  0  0
    5.9032  -10.5009   -3.3867 H   0  0  0  0  0  0  0  0  0  0  0  0
    4.4195  -11.5703   -3.6485 H   0  0  0  0  0  0  0  0  0  0  0  0
    4.7237  -11.0443   -1.3168 H   0  0  0  0  0  0  0  0  0  0  0  0
    7.4705  -11.0866   -1.5604 H   0  0  0  0  0  0  0  0  0  0  0  0
    6.0640  -12.2540    0.5180 H   0  0  0  0  0  0  0  0  0  0  0  0
    2.7691  -13.8706   -1.4742 H   0  0  0  0  0  0  0  0  0  0  0  0
    3.2313  -12.7842   -2.8279 H   0  0  0  0  0  0  0  0  0  0  0  0
    3.7694  -14.4980   -2.8279 H   0  0  0  0  0  0  0  0  0  0  0  0
    5.2409  -12.9572    0.6792 H   0  0  0  0  0  0  0  0  0  0  0  0
    3.4954  -13.0235    0.2606 H   0  0  0  0  0  0  0  0  0  0  0  0
    4.4768  -14.5280    0.2606 H   0  0  0  0  0  0  0  0  0  0  0  0
    9.7529  -13.1988    0.3224 H   0  0  0  0  0  0  0  0  0  0  0  0
   10.4509  -13.8268   -1.2090 H   0  0  0  0  0  0  0  0  0  0  0  0
    9.5236  -12.2884   -1.2090 H   0  0  0  0  0  0  0  0  0  0  0  0
    8.0110  -15.3120    0.4570 H   0  0  0  0  0  0  0  0  0  0  0  0
    9.5042  -15.8705   -1.1914 H   0  0  0  0  0  0  0  0  0  0  0  0
    6.5574  -17.7442    0.8587 H   0  0  0  0  0  0  0  0  0  0  0  0
    5.5830  -17.0582   -0.4855 H   0  0  0  0  0  0  0  0  0  0  0  0
    6.0105  -18.8029   -0.4855 H   0  0  0  0  0  0  0  0  0  0  0  0
  1  2  1  0
  2  3  2  0
  2  4  1  0
  4  5  1  0
  5  6  1  0
  6  7  1  0
  7  8  1  0
  8  9  2  0
  8 10  1  0
 10 11  2  0
 11 12  1  0
 12 13  2  0
 13 14  1  0
 14 15  2  0
  6 16  1  0
 16 17  1  1
 16 18  1  0
 18 19  1  0
 19 20  1  0
 20 21  2  0
 20 22  1  0
 22 23  2  0
 23 24  1  0
 24 25  2  0
 25 26  1  0
 26 27  2  0
 27 28  1  0
 28 29  2  0
 18 30  1  0
 30 31  1  0
 31 32  1  0
 32 33  1  0
 32 34  1  0
 34 35  1  6
 35 36  1  0
 36 37  1  0
 36 38  1  0
 34 39  1  0
 39 40  1  0
 39 41  1  1
 39 42  1  0
 42 43  1  0
 43 44  1  0
 44 45  1  0
 44 46  2  0
 42  5  1  0
 15 10  1  0
 34 16  1  0
 29 24  1  0
 36 31  1  0
  1 47  1  0
  1 48  1  0
  1 49  1  0
  5 50  1  1
  6 51  1  6
 11 52  1  0
 12 53  1  0
 13 54  1  0
 14 55  1  0
 15 56  1  0
 17 57  1  0
 17 58  1  0
 17 59  1  0
 18 60  1  6
 22 61  1  0
 23 62  1  0
 25 63  1  0
 26 64  1  0
 27 65  1  0
 28 66  1  0
 29 67  1  0
 30 68  1  0
 30 69  1  0
 31 70  1  1
 32 71  1  6
 33 72  1  0
 37 73  1  0
 37 74  1  0
 37 75  1  0
 38 76  1  0
 38 77  1  0
 38 78  1  0
 40 79  1  0
 40 80  1  0
 40 81  1  0
 41 82  1  0
 42 83  1  1
 45 84  1  0
 45 85  1  0
 45 86  1  0
M  END
>  <meeko>  (8) 
{"is_sidechain": [false], "free_energy": -6.441, "intermolecular_energy": -11.011, "internal_energy": -4.834}

$$$$
LIB_NNIHOVDDAZGURH__M_PUB_ALL__e8__s20260927
     RDKit          3D

 86 90  0  0  0  0  0  0  0  0999 V2000
   11.8280  -13.0740   -0.4620 C   0  0  0  0  0  0  0  0  0  0  0  0
   11.9700  -12.3320   -1.7550 C   0  0  0  0  0  0  0  0  0  0  0  0
   12.7180  -11.3810   -1.9340 O   0  0  0  0  0  0  0  0  0  0  0  0
   11.1790  -12.8950   -2.7080 O   0  0  0  0  0  0  0  0  0  0  0  0
   11.1070  -14.3390   -2.6910 C   0  0  1  0  0  0  0  0  0  0  0  0
    9.6760  -14.7760   -3.0890 C   0  0  2  0  0  0  0  0  0  0  0  0
    8.7290  -14.2100   -2.1450 O   0  0  0  0  0  0  0  0  0  0  0  0
    8.2390  -12.9790   -2.4340 C   0  0  0  0  0  0  0  0  0  0  0  0
    8.1100  -12.4950   -3.5480 O   0  0  0  0  0  0  0  0  0  0  0  0
    7.8400  -12.2690   -1.1910 C   0  0  0  0  0  0  0  0  0  0  0  0
    7.0870  -11.0920   -1.3150 C   0  0  0  0  0  0  0  0  0  0  0  0
    6.6840  -10.3900   -0.1790 C   0  0  0  0  0  0  0  0  0  0  0  0
    7.0290  -10.8580    1.0880 C   0  0  0  0  0  0  0  0  0  0  0  0
    7.7770  -12.0270    1.2210 C   0  0  0  0  0  0  0  0  0  0  0  0
    8.1840  -12.7330    0.0860 C   0  0  0  0  0  0  0  0  0  0  0  0
    9.5040  -16.3380   -3.0780 C   0  0  1  0  0  0  0  0  0  0  0  0
    9.5670  -16.8600   -1.6090 C   0  0  0  0  0  0  0  0  0  0  0  0
    8.0620  -16.7520   -3.5750 C   0  0  1  0  0  0  0  0  0  0  0  0
    7.5270  -15.7500   -4.4610 O   0  0  0  0  0  0  0  0  0  0  0  0
    6.1770  -15.6860   -4.5730 C   0  0  0  0  0  0  0  0  0  0  0  0
    5.4990  -16.2630   -5.4110 O   0  0  0  0  0  0  0  0  0  0  0  0
    5.5780  -14.7980   -3.5580 C   0  0  0  0  0  0  0  0  0  0  0  0
    5.3440  -15.1550   -2.2860 C   0  0  0  0  0  0  0  0  0  0  0  0
    4.7570  -14.2630   -1.2770 C   0  0  0  0  0  0  0  0  0  0  0  0
    4.0320  -13.1440   -1.7080 C   0  0  0  0  0  0  0  0  0  0  0  0
    3.4760  -12.2560   -0.7850 C   0  0  0  0  0  0  0  0  0  0  0  0
    3.6480  -12.4710    0.5800 C   0  0  0  0  0  0  0  0  0  0  0  0
    4.3820  -13.5690    1.0230 C   0  0  0  0  0  0  0  0  0  0  0  0
    4.9380  -14.4590    0.0990 C   0  0  0  0  0  0  0  0  0  0  0  0
    7.9970  -18.1540   -4.2490 C   0  0  0  0  0  0  0  0  0  0  0  0
    9.2570  -18.5900   -5.0440 C   0  0  2  0  0  0  0  0  0  0  0  0
   10.4290  -18.5040   -4.0770 C   0  0  1  0  0  0  0  0  0  0  0  0
   11.5730  -19.2000   -4.5660 O   0  0  0  0  0  0  0  0  0  0  0  0
   10.6090  -16.9670   -4.0190 C   0  0  1  0  0  0  0  0  0  0  0  0
   10.2580  -16.5120   -5.3880 O   0  0  0  0  0  0  0  0  0  0  0  0
    9.6810  -17.5980   -6.1400 C   0  0  0  0  0  0  0  0  0  0  0  0
    8.5480  -17.1100   -7.0520 C   0  0  0  0  0  0  0  0  0  0  0  0
   10.7500  -18.1420   -7.1130 C   0  0  0  0  0  0  0  0  0  0  0  0
   12.0800  -16.4760   -3.7130 C   0  0  1  0  0  0  0  0  0  0  0  0
   12.7200  -17.0710   -2.4450 C   0  0  0  0  0  0  0  0  0  0  0  0
   12.9670  -16.9140   -4.7720 O   0  0  0  0  0  0  0  0  0  0  0  0
   12.1570  -14.9230   -3.6610 C   0  0  1  0  0  0  0  0  0  0  0  0
   11.9000  -14.3950   -4.9890 O   0  0  0  0  0  0  0  0  0  0  0  0
   12.8560  -13.6260   -5.5640 C   0  0  0  0  0  0  0  0  0  0  0  0
   13.0540  -14.0510   -6.9870 C   0  0  0  0  0  0  0  0  0  0  0  0
   13.4630  -12.7090   -5.0290 O   0  0  0  0  0  0  0  0  0  0  0  0
   11.9615  -12.3762    0.3778 H   0  0  0  0  0  0  0  0  0  0  0  0
   10.8269  -13.5266   -0.4070 H   0  0  0  0  0  0  0  0  0  0  0  0
   12.5912  -13.8642   -0.4070 H   0  0  0  0  0  0  0  0  0  0  0  0
   11.3257  -14.7194   -1.6823 H   0  0  0  0  0  0  0  0  0  0  0  0
    9.4940  -14.4157   -4.1123 H   0  0  0  0  0  0  0  0  0  0  0  0
    6.8128  -10.7206   -2.3135 H   0  0  0  0  0  0  0  0  0  0  0  0
    6.0941   -9.4674   -0.2829 H   0  0  0  0  0  0  0  0  0  0  0  0
    6.7108  -10.3044    1.9837 H   0  0  0  0  0  0  0  0  0  0  0  0
    8.0474  -12.3944    2.2219 H   0  0  0  0  0  0  0  0  0  0  0  0
    8.7752  -13.6542    0.1948 H   0  0  0  0  0  0  0  0  0  0  0  0
    9.4648  -16.0133   -0.9143 H   0  0  0  0  0  0  0  0  0  0  0  0
    8.7486  -17.5750   -1.4385 H   0  0  0  0  0  0  0  0  0  0  0  0
   10.5320  -17.3598   -1.4385 H   0  0  0  0  0  0  0  0  0  0  0  0
    7.4443  -16.8226   -2.6676 H   0  0  0  0  0  0  0  0  0  0  0  0
    5.3057  -13.7771   -3.8641 H   0  0  0  0  0  0  0  0  0  0  0  0
    5.6078  -16.1781   -1.9799 H   0  0  0  0  0  0  0  0  0  0  0  0
    3.8995  -12.9632   -2.7849 H   0  0  0  0  0  0  0  0  0  0  0  0
    2.9018  -11.3861   -1.1364 H   0  0  0  0  0  0  0  0  0  0  0  0
    3.2049  -11.7749    1.3074 H   0  0  0  0  0  0  0  0  0  0  0  0
    4.5243  -13.7360    2.1009 H   0  0  0  0  0  0  0  0  0  0  0  0
    5.5224  -15.3203    0.4550 H   0  0  0  0  0  0  0  0  0  0  0  0
    7.8243  -18.8990   -3.4584 H   0  0  0  0  0  0  0  0  0  0  0  0
    7.1883  -18.0870   -4.9916 H   0  0  0  0  0  0  0  0  0  0  0  0
    9.0228  -19.5728   -5.4790 H   0  0  0  0  0  0  0  0  0  0  0  0
   10.2737  -18.9719   -3.0937 H   0  0  0  0  0  0  0  0  0  0  0  0
   11.2580  -19.9770   -5.0620 H   0  0  0  0  0  0  0  0  0  0  0  0
    7.7110  -16.7495   -6.4360 H   0  0  0  0  0  0  0  0  0  0  0  0
    8.9156  -16.2904   -7.6869 H   0  0  0  0  0  0  0  0  0  0  0  0
    8.2050  -17.9402   -7.6869 H   0  0  0  0  0  0  0  0  0  0  0  0
   11.5861  -18.5675   -6.5386 H   0  0  0  0  0  0  0  0  0  0  0  0
   10.3053  -18.9234   -7.7467 H   0  0  0  0  0  0  0  0  0  0  0  0
   11.1200  -17.3225   -7.7467 H   0  0  0  0  0  0  0  0  0  0  0  0
   12.2470  -16.6312   -1.5546 H   0  0  0  0  0  0  0  0  0  0  0  0
   12.5736  -18.1612   -2.4373 H   0  0  0  0  0  0  0  0  0  0  0  0
   13.7966  -16.8456   -2.4373 H   0  0  0  0  0  0  0  0  0  0  0  0
   13.4110  -16.1050   -5.1030 H   0  0  0  0  0  0  0  0  0  0  0  0
   13.1593  -14.6395   -3.3074 H   0  0  0  0  0  0  0  0  0  0  0  0
   13.5184  -15.0479   -7.0107 H   0  0  0  0  0  0  0  0  0  0  0  0
   12.0803  -14.0879   -7.4975 H   0  0  0  0  0  0  0  0  0  0  0  0
   13.7086  -13.3293   -7.4975 H   0  0  0  0  0  0  0  0  0  0  0  0
  1  2  1  0
  2  3  2  0
  2  4  1  0
  4  5  1  0
  5  6  1  0
  6  7  1  0
  7  8  1  0
  8  9  2  0
  8 10  1  0
 10 11  2  0
 11 12  1  0
 12 13  2  0
 13 14  1  0
 14 15  2  0
  6 16  1  0
 16 17  1  1
 16 18  1  0
 18 19  1  0
 19 20  1  0
 20 21  2  0
 20 22  1  0
 22 23  2  0
 23 24  1  0
 24 25  2  0
 25 26  1  0
 26 27  2  0
 27 28  1  0
 28 29  2  0
 18 30  1  0
 30 31  1  0
 31 32  1  0
 32 33  1  0
 32 34  1  0
 34 35  1  6
 35 36  1  0
 36 37  1  0
 36 38  1  0
 34 39  1  0
 39 40  1  0
 39 41  1  6
 39 42  1  0
 42 43  1  0
 43 44  1  0
 44 45  1  0
 44 46  2  0
 42  5  1  0
 15 10  1  0
 34 16  1  0
 29 24  1  0
 36 31  1  0
  1 47  1  0
  1 48  1  0
  1 49  1  0
  5 50  1  1
  6 51  1  6
 11 52  1  0
 12 53  1  0
 13 54  1  0
 14 55  1  0
 15 56  1  0
 17 57  1  0
 17 58  1  0
 17 59  1  0
 18 60  1  1
 22 61  1  0
 23 62  1  0
 25 63  1  0
 26 64  1  0
 27 65  1  0
 28 66  1  0
 29 67  1  0
 30 68  1  0
 30 69  1  0
 31 70  1  6
 32 71  1  1
 33 72  1  0
 37 73  1  0
 37 74  1  0
 37 75  1  0
 38 76  1  0
 38 77  1  0
 38 78  1  0
 40 79  1  0
 40 80  1  0
 40 81  1  0
 41 82  1  0
 42 83  1  1
 45 84  1  0
 45 85  1  0
 45 86  1  0
M  END
>  <meeko>  (9) 
{"is_sidechain": [false], "free_energy": -6.284, "intermolecular_energy": -10.496, "internal_energy": -5.082}

$$$$
