LIB_RERPSPPBSSELBR__M_PUB_ALL__e8__s20260927
     RDKit          3D

 27 28  0  0  0  0  0  0  0  0999 V2000
    9.3060  -11.5240    0.5930 N   0  0  0  0  0  0  0  0  0  0  0  0
   10.9220  -11.4870    0.9500 S   0  0  0  0  0  0  0  0  0  0  0  0
   11.2420  -12.7420    1.5650 O   0  0  0  0  0  0  0  0  0  0  0  0
   11.2380  -10.1990    1.4940 O   0  0  0  0  0  0  0  0  0  0  0  0
   11.6690  -11.5570   -0.5230 N   0  0  0  0  0  0  0  0  0  0  0  0
   13.1190  -11.2510   -0.4350 C   0  0  0  0  0  0  0  0  0  0  0  0
   13.6830  -11.1100   -1.8490 C   0  0  0  0  0  0  0  0  0  0  0  0
   13.2670  -12.2410   -2.7580 C   0  0  0  0  0  0  0  0  0  0  0  0
   13.9510  -12.4410   -3.9640 C   0  0  0  0  0  0  0  0  0  0  0  0
   13.5670  -13.4630   -4.8300 C   0  0  0  0  0  0  0  0  0  0  0  0
   12.4970  -14.2900   -4.5030 C   0  0  0  0  0  0  0  0  0  0  0  0
   11.8010  -14.0950   -3.3120 C   0  0  0  0  0  0  0  0  0  0  0  0
   12.1700  -13.0640   -2.4350 C   0  0  0  0  0  0  0  0  0  0  0  0
   11.4170  -12.8850   -1.1380 C   0  0  0  0  0  0  0  0  0  0  0  0
    8.7980  -10.8730    1.2040 H   0  0  0  0  0  0  0  0  0  0  0  0
    8.9350  -12.4700    0.7470 H   0  0  0  0  0  0  0  0  0  0  0  0
   11.1750  -10.8510   -1.0620 H   0  0  0  0  0  0  0  0  0  0  0  0
   13.2649  -10.3102    0.1161 H   0  0  0  0  0  0  0  0  0  0  0  0
   13.6394  -12.0629    0.0942 H   0  0  0  0  0  0  0  0  0  0  0  0
   13.3236  -10.1632   -2.2783 H   0  0  0  0  0  0  0  0  0  0  0  0
   14.7801  -11.1318   -1.7726 H   0  0  0  0  0  0  0  0  0  0  0  0
   14.7956  -11.7879   -4.2288 H   0  0  0  0  0  0  0  0  0  0  0  0
   14.1108  -13.6162   -5.7738 H   0  0  0  0  0  0  0  0  0  0  0  0
   12.2000  -15.0994   -5.1862 H   0  0  0  0  0  0  0  0  0  0  0  0
   10.9572  -14.7533   -3.0578 H   0  0  0  0  0  0  0  0  0  0  0  0
   10.3397  -12.9848   -1.3369 H   0  0  0  0  0  0  0  0  0  0  0  0
   11.7668  -13.6552   -0.4348 H   0  0  0  0  0  0  0  0  0  0  0  0
  1  2  1  0
  2  3  2  0
  2  4  2  0
  2  5  1  0
  5  6  1  0
  6  7  1  0
  7  8  1  0
  8  9  2  0
  9 10  1  0
 10 11  2  0
 11 12  1  0
 12 13  2  0
 13 14  1  0
 14  5  1  0
 13  8  1  0
  1 15  1  0
  1 16  1  0
  5 17  1  0
  6 18  1  0
  6 19  1  0
  7 20  1  0
  7 21  1  0
  9 22  1  0
 10 23  1  0
 11 24  1  0
 12 25  1  0
 14 26  1  0
 14 27  1  0
M  CHG  1   5   1
M  END
>  <meeko>  (1) 
{"is_sidechain": [false], "free_energy": -5.931, "intermolecular_energy": -6.451, "internal_energy": -0.099}

$$$$
LIB_RERPSPPBSSELBR__M_PUB_ALL__e8__s20260927
     RDKit          3D

 27 28  0  0  0  0  0  0  0  0999 V2000
  -10.7540  -13.5540   -9.2100 N   0  0  0  0  0  0  0  0  0  0  0  0
  -10.8320  -15.2020   -9.0910 S   0  0  0  0  0  0  0  0  0  0  0  0
   -9.8270  -15.6010   -8.1490 O   0  0  0  0  0  0  0  0  0  0  0  0
  -10.9870  -15.7460  -10.4080 O   0  0  0  0  0  0  0  0  0  0  0  0
  -12.2580  -15.4910   -8.3060 N   0  0  0  0  0  0  0  0  0  0  0  0
  -13.1740  -16.3500   -9.0980 C   0  0  0  0  0  0  0  0  0  0  0  0
  -14.5410  -16.3770   -8.4150 C   0  0  0  0  0  0  0  0  0  0  0  0
  -14.4470  -16.6450   -6.9320 C   0  0  0  0  0  0  0  0  0  0  0  0
  -15.5970  -17.0270   -6.2290 C   0  0  0  0  0  0  0  0  0  0  0  0
  -15.5380  -17.2550   -4.8550 C   0  0  0  0  0  0  0  0  0  0  0  0
  -14.3350  -17.0980   -4.1710 C   0  0  0  0  0  0  0  0  0  0  0  0
  -13.1870  -16.7070   -4.8580 C   0  0  0  0  0  0  0  0  0  0  0  0
  -13.2340  -16.4660   -6.2390 C   0  0  0  0  0  0  0  0  0  0  0  0
  -11.9720  -16.0670   -6.9670 C   0  0  0  0  0  0  0  0  0  0  0  0
  -10.1780  -13.1760   -8.4480 H   0  0  0  0  0  0  0  0  0  0  0  0
  -11.6970  -13.1520   -9.1340 H   0  0  0  0  0  0  0  0  0  0  0  0
  -12.6410  -14.5570   -8.1830 H   0  0  0  0  0  0  0  0  0  0  0  0
  -13.2769  -15.9417  -10.1142 H   0  0  0  0  0  0  0  0  0  0  0  0
  -12.7679  -17.3704   -9.1599 H   0  0  0  0  0  0  0  0  0  0  0  0
  -15.0291  -15.4029   -8.5662 H   0  0  0  0  0  0  0  0  0  0  0  0
  -15.1205  -17.1969   -8.8644 H   0  0  0  0  0  0  0  0  0  0  0  0
  -16.5508  -17.1476   -6.7636 H   0  0  0  0  0  0  0  0  0  0  0  0
  -16.4436  -17.5596   -4.3099 H   0  0  0  0  0  0  0  0  0  0  0  0
  -14.2908  -17.2828   -3.0875 H   0  0  0  0  0  0  0  0  0  0  0  0
  -12.2386  -16.5867   -4.3140 H   0  0  0  0  0  0  0  0  0  0  0  0
  -11.4372  -15.3174   -6.3652 H   0  0  0  0  0  0  0  0  0  0  0  0
  -11.3631  -16.9718   -7.1104 H   0  0  0  0  0  0  0  0  0  0  0  0
  1  2  1  0
  2  3  2  0
  2  4  2  0
  2  5  1  0
  5  6  1  0
  6  7  1  0
  7  8  1  0
  8  9  2  0
  9 10  1  0
 10 11  2  0
 11 12  1  0
 12 13  2  0
 13 14  1  0
 14  5  1  0
 13  8  1  0
  1 15  1  0
  1 16  1  0
  5 17  1  0
  6 18  1  0
  6 19  1  0
  7 20  1  0
  7 21  1  0
  9 22  1  0
 10 23  1  0
 11 24  1  0
 12 25  1  0
 14 26  1  0
 14 27  1  0
M  CHG  1   5   1
M  END
>  <meeko>  (2) 
{"is_sidechain": [false], "free_energy": -5.694, "intermolecular_energy": -6.186, "internal_energy": -0.106}

$$$$
LIB_RERPSPPBSSELBR__M_PUB_ALL__e8__s20260927
     RDKit          3D

 27 28  0  0  0  0  0  0  0  0999 V2000
   -5.3590  -13.9100   10.3120 N   0  0  0  0  0  0  0  0  0  0  0  0
   -4.8400  -15.2460    9.4850 S   0  0  0  0  0  0  0  0  0  0  0  0
   -5.3030  -16.3920   10.2110 O   0  0  0  0  0  0  0  0  0  0  0  0
   -3.4860  -15.0270    9.0700 O   0  0  0  0  0  0  0  0  0  0  0  0
   -5.7470  -15.2510    8.1030 N   0  0  0  0  0  0  0  0  0  0  0  0
   -5.0630  -15.9440    6.9810 C   0  0  0  0  0  0  0  0  0  0  0  0
   -5.8540  -15.7050    5.6950 C   0  0  0  0  0  0  0  0  0  0  0  0
   -7.3330  -15.9550    5.8660 C   0  0  0  0  0  0  0  0  0  0  0  0
   -8.1390  -16.1050    4.7300 C   0  0  0  0  0  0  0  0  0  0  0  0
   -9.5110  -16.3100    4.8640 C   0  0  0  0  0  0  0  0  0  0  0  0
  -10.0900  -16.3630    6.1290 C   0  0  0  0  0  0  0  0  0  0  0  0
   -9.3000  -16.2040    7.2660 C   0  0  0  0  0  0  0  0  0  0  0  0
   -7.9200  -15.9870    7.1460 C   0  0  0  0  0  0  0  0  0  0  0  0
   -7.0780  -15.8420    8.3920 C   0  0  0  0  0  0  0  0  0  0  0  0
   -6.0850  -14.1770   10.9870 H   0  0  0  0  0  0  0  0  0  0  0  0
   -5.7600  -13.2260    9.6570 H   0  0  0  0  0  0  0  0  0  0  0  0
   -5.8670  -14.2610    7.9070 H   0  0  0  0  0  0  0  0  0  0  0  0
   -4.0441  -15.5454    6.8672 H   0  0  0  0  0  0  0  0  0  0  0  0
   -5.0065  -17.0228    7.1885 H   0  0  0  0  0  0  0  0  0  0  0  0
   -5.7075  -14.6611    5.3806 H   0  0  0  0  0  0  0  0  0  0  0  0
   -5.4824  -16.4132    4.9398 H   0  0  0  0  0  0  0  0  0  0  0  0
   -7.6871  -16.0608    3.7281 H   0  0  0  0  0  0  0  0  0  0  0  0
  -10.1379  -16.4302    3.9682 H   0  0  0  0  0  0  0  0  0  0  0  0
  -11.1723  -16.5306    6.2312 H   0  0  0  0  0  0  0  0  0  0  0  0
   -9.7618  -16.2490    8.2634 H   0  0  0  0  0  0  0  0  0  0  0  0
   -7.6075  -15.1917    9.1038 H   0  0  0  0  0  0  0  0  0  0  0  0
   -6.9181  -16.8466    8.8106 H   0  0  0  0  0  0  0  0  0  0  0  0
  1  2  1  0
  2  3  2  0
  2  4  2  0
  2  5  1  0
  5  6  1  0
  6  7  1  0
  7  8  1  0
  8  9  2  0
  9 10  1  0
 10 11  2  0
 11 12  1  0
 12 13  2  0
 13 14  1  0
 14  5  1  0
 13  8  1  0
  1 15  1  0
  1 16  1  0
  5 17  1  0
  6 18  1  0
  6 19  1  0
  7 20  1  0
  7 21  1  0
  9 22  1  0
 10 23  1  0
 11 24  1  0
 12 25  1  0
 14 26  1  0
 14 27  1  0
M  CHG  1   5   1
M  END
>  <meeko>  (3) 
{"is_sidechain": [false], "free_energy": -5.643, "intermolecular_energy": -6.135, "internal_energy": -0.102}

$$$$
LIB_RERPSPPBSSELBR__M_PUB_ALL__e8__s20260927
     RDKit          3D

 27 28  0  0  0  0  0  0  0  0999 V2000
    8.6860  -14.2010   -0.3130 N   0  0  0  0  0  0  0  0  0  0  0  0
    8.7360  -12.5640   -0.0750 S   0  0  0  0  0  0  0  0  0  0  0  0
    8.9720  -12.3530    1.3240 O   0  0  0  0  0  0  0  0  0  0  0  0
    7.6790  -11.9610   -0.8310 O   0  0  0  0  0  0  0  0  0  0  0  0
   10.1450  -12.0880   -0.7970 N   0  0  0  0  0  0  0  0  0  0  0  0
   11.2890  -12.0750    0.1490 C   0  0  0  0  0  0  0  0  0  0  0  0
   12.4860  -11.4100   -0.5280 C   0  0  0  0  0  0  0  0  0  0  0  0
   12.7410  -11.9440   -1.9170 C   0  0  0  0  0  0  0  0  0  0  0  0
   13.9720  -11.6900   -2.5360 C   0  0  0  0  0  0  0  0  0  0  0  0
   14.2180  -12.1520   -3.8270 C   0  0  0  0  0  0  0  0  0  0  0  0
   13.2400  -12.8660   -4.5130 C   0  0  0  0  0  0  0  0  0  0  0  0
   12.0070  -13.1160   -3.9130 C   0  0  0  0  0  0  0  0  0  0  0  0
   11.7410  -12.6480   -2.6170 C   0  0  0  0  0  0  0  0  0  0  0  0
   10.4080  -12.9510   -1.9760 C   0  0  0  0  0  0  0  0  0  0  0  0
    9.5020  -14.6430    0.1270 H   0  0  0  0  0  0  0  0  0  0  0  0
    8.7060  -14.4100   -1.3190 H   0  0  0  0  0  0  0  0  0  0  0  0
    9.9250  -11.1500   -1.1240 H   0  0  0  0  0  0  0  0  0  0  0  0
   11.0147  -11.5095    1.0518 H   0  0  0  0  0  0  0  0  0  0  0  0
   11.5479  -13.1055    0.4335 H   0  0  0  0  0  0  0  0  0  0  0  0
   12.2958  -10.3287   -0.5962 H   0  0  0  0  0  0  0  0  0  0  0  0
   13.3757  -11.6291    0.0806 H   0  0  0  0  0  0  0  0  0  0  0  0
   14.7477  -11.1232   -2.0002 H   0  0  0  0  0  0  0  0  0  0  0  0
   15.1880  -11.9519   -4.3056 H   0  0  0  0  0  0  0  0  0  0  0  0
   13.4404  -13.2336   -5.5302 H   0  0  0  0  0  0  0  0  0  0  0  0
   11.2383  -13.6832   -4.4583 H   0  0  0  0  0  0  0  0  0  0  0  0
    9.6127  -12.7889   -2.7184 H   0  0  0  0  0  0  0  0  0  0  0  0
   10.4275  -13.9959   -1.6327 H   0  0  0  0  0  0  0  0  0  0  0  0
  1  2  1  0
  2  3  2  0
  2  4  2  0
  2  5  1  0
  5  6  1  0
  6  7  1  0
  7  8  1  0
  8  9  2  0
  9 10  1  0
 10 11  2  0
 11 12  1  0
 12 13  2  0
 13 14  1  0
 14  5  1  0
 13  8  1  0
  1 15  1  0
  1 16  1  0
  5 17  1  0
  6 18  1  0
  6 19  1  0
  7 20  1  0
  7 21  1  0
  9 22  1  0
 10 23  1  0
 11 24  1  0
 12 25  1  0
 14 26  1  0
 14 27  1  0
M  CHG  1   5   1
M  END
>  <meeko>  (4) 
{"is_sidechain": [false], "free_energy": -5.618, "intermolecular_energy": -6.102, "internal_energy": -0.107}

$$$$
LIB_RERPSPPBSSELBR__M_PUB_ALL__e8__s20260927
     RDKit          3D

 27 28  0  0  0  0  0  0  0  0999 V2000
   18.4760   -5.2580   13.3680 N   0  0  0  0  0  0  0  0  0  0  0  0
   19.4400   -6.5800   13.1190 S   0  0  0  0  0  0  0  0  0  0  0  0
   19.9260   -6.9890   14.4040 O   0  0  0  0  0  0  0  0  0  0  0  0
   20.2590   -6.3350   11.9690 O   0  0  0  0  0  0  0  0  0  0  0  0
   18.3880   -7.7790   12.6850 N   0  0  0  0  0  0  0  0  0  0  0  0
   18.3200   -8.8640   13.6960 C   0  0  0  0  0  0  0  0  0  0  0  0
   17.5150  -10.0290   13.1200 C   0  0  0  0  0  0  0  0  0  0  0  0
   16.2170   -9.5850   12.4910 C   0  0  0  0  0  0  0  0  0  0  0  0
   15.2240  -10.5360   12.2190 C   0  0  0  0  0  0  0  0  0  0  0  0
   14.0280  -10.1520   11.6150 C   0  0  0  0  0  0  0  0  0  0  0  0
   13.8140   -8.8200   11.2720 C   0  0  0  0  0  0  0  0  0  0  0  0
   14.7980   -7.8660   11.5260 C   0  0  0  0  0  0  0  0  0  0  0  0
   16.0110   -8.2400   12.1250 C   0  0  0  0  0  0  0  0  0  0  0  0
   17.0530   -7.1860   12.4140 C   0  0  0  0  0  0  0  0  0  0  0  0
   18.9930   -4.5420   13.8930 H   0  0  0  0  0  0  0  0  0  0  0  0
   17.6470   -5.5260   13.9140 H   0  0  0  0  0  0  0  0  0  0  0  0
   18.7780   -8.1150   11.8070 H   0  0  0  0  0  0  0  0  0  0  0  0
   19.3369   -9.2038   13.9417 H   0  0  0  0  0  0  0  0  0  0  0  0
   17.8341   -8.4915   14.6098 H   0  0  0  0  0  0  0  0  0  0  0  0
   18.1232  -10.5324   12.3540 H   0  0  0  0  0  0  0  0  0  0  0  0
   17.2672  -10.7051   13.9516 H   0  0  0  0  0  0  0  0  0  0  0  0
   15.3894  -11.5908   12.4836 H   0  0  0  0  0  0  0  0  0  0  0  0
   13.2514  -10.9033   11.4089 H   0  0  0  0  0  0  0  0  0  0  0  0
   12.8669   -8.5198   10.7998 H   0  0  0  0  0  0  0  0  0  0  0  0
   14.6229   -6.8142   11.2555 H   0  0  0  0  0  0  0  0  0  0  0  0
   17.1319   -6.5174   11.5441 H   0  0  0  0  0  0  0  0  0  0  0  0
   16.7380   -6.6360   13.3130 H   0  0  0  0  0  0  0  0  0  0  0  0
  1  2  1  0
  2  3  2  0
  2  4  2  0
  2  5  1  0
  5  6  1  0
  6  7  1  0
  7  8  1  0
  8  9  2  0
  9 10  1  0
 10 11  2  0
 11 12  1  0
 12 13  2  0
 13 14  1  0
 14  5  1  0
 13  8  1  0
  1 15  1  0
  1 16  1  0
  5 17  1  0
  6 18  1  0
  6 19  1  0
  7 20  1  0
  7 21  1  0
  9 22  1  0
 10 23  1  0
 11 24  1  0
 12 25  1  0
 14 26  1  0
 14 27  1  0
M  CHG  1   5   1
M  END
>  <meeko>  (5) 
{"is_sidechain": [false], "free_energy": -5.558, "intermolecular_energy": -6.035, "internal_energy": -0.11}

$$$$
LIB_RERPSPPBSSELBR__M_PUB_ALL__e8__s20260927
     RDKit          3D

 27 28  0  0  0  0  0  0  0  0999 V2000
   14.2380  -14.4300   -5.7910 N   0  0  0  0  0  0  0  0  0  0  0  0
   13.2720  -14.9900   -4.5700 S   0  0  0  0  0  0  0  0  0  0  0  0
   13.9110  -16.1550   -4.0330 O   0  0  0  0  0  0  0  0  0  0  0  0
   11.9070  -14.9260   -5.0040 O   0  0  0  0  0  0  0  0  0  0  0  0
   13.4250  -13.8590   -3.3740 N   0  0  0  0  0  0  0  0  0  0  0  0
   13.6260  -12.4910   -3.9120 C   0  0  0  0  0  0  0  0  0  0  0  0
   13.9870  -11.5520   -2.7610 C   0  0  0  0  0  0  0  0  0  0  0  0
   13.0630  -11.7020   -1.5760 C   0  0  0  0  0  0  0  0  0  0  0  0
   13.0450  -10.7080   -0.5890 C   0  0  0  0  0  0  0  0  0  0  0  0
   12.2190  -10.8390    0.5260 C   0  0  0  0  0  0  0  0  0  0  0  0
   11.4090  -11.9620    0.6680 C   0  0  0  0  0  0  0  0  0  0  0  0
   11.4270  -12.9630   -0.3010 C   0  0  0  0  0  0  0  0  0  0  0  0
   12.2600  -12.8500   -1.4240 C   0  0  0  0  0  0  0  0  0  0  0  0
   12.2450  -13.9350   -2.4740 C   0  0  0  0  0  0  0  0  0  0  0  0
   14.9510  -15.1320   -6.0220 H   0  0  0  0  0  0  0  0  0  0  0  0
   14.7160  -13.5690   -5.4930 H   0  0  0  0  0  0  0  0  0  0  0  0
   14.2430  -14.1800   -2.8630 H   0  0  0  0  0  0  0  0  0  0  0  0
   14.4419  -12.5009   -4.6497 H   0  0  0  0  0  0  0  0  0  0  0  0
   12.7030  -12.1439   -4.3995 H   0  0  0  0  0  0  0  0  0  0  0  0
   15.0147  -11.7720   -2.4362 H   0  0  0  0  0  0  0  0  0  0  0  0
   13.8896  -10.5204   -3.1303 H   0  0  0  0  0  0  0  0  0  0  0  0
   13.6857   -9.8201   -0.6945 H   0  0  0  0  0  0  0  0  0  0  0  0
   12.2072  -10.0531    1.2955 H   0  0  0  0  0  0  0  0  0  0  0  0
   10.7539  -12.0593    1.5463 H   0  0  0  0  0  0  0  0  0  0  0  0
   10.7838  -13.8477   -0.1846 H   0  0  0  0  0  0  0  0  0  0  0  0
   12.2441  -14.9139   -1.9723 H   0  0  0  0  0  0  0  0  0  0  0  0
   11.3421  -13.7998   -3.0875 H   0  0  0  0  0  0  0  0  0  0  0  0
  1  2  1  0
  2  3  2  0
  2  4  2  0
  2  5  1  0
  5  6  1  0
  6  7  1  0
  7  8  1  0
  8  9  2  0
  9 10  1  0
 10 11  2  0
 11 12  1  0
 12 13  2  0
 13 14  1  0
 14  5  1  0
 13  8  1  0
  1 15  1  0
  1 16  1  0
  5 17  1  0
  6 18  1  0
  6 19  1  0
  7 20  1  0
  7 21  1  0
  9 22  1  0
 10 23  1  0
 11 24  1  0
 12 25  1  0
 14 26  1  0
 14 27  1  0
M  CHG  1   5   1
M  END
>  <meeko>  (6) 
{"is_sidechain": [false], "free_energy": -5.531, "intermolecular_energy": -6.014, "internal_energy": -0.101}

$$$$
LIB_RERPSPPBSSELBR__M_PUB_ALL__e8__s20260927
     RDKit          3D

 27 28  0  0  0  0  0  0  0  0999 V2000
   10.3330  -11.9120   -0.5200 N   0  0  0  0  0  0  0  0  0  0  0  0
   11.8190  -12.2350    0.1310 S   0  0  0  0  0  0  0  0  0  0  0  0
   11.5960  -13.0040    1.3200 O   0  0  0  0  0  0  0  0  0  0  0  0
   12.6160  -11.0450    0.0570 O   0  0  0  0  0  0  0  0  0  0  0  0
   12.5040  -13.3100   -0.9220 N   0  0  0  0  0  0  0  0  0  0  0  0
   11.9470  -14.6780   -0.7740 C   0  0  0  0  0  0  0  0  0  0  0  0
   12.7840  -15.6470   -1.6080 C   0  0  0  0  0  0  0  0  0  0  0  0
   13.0300  -15.1470   -3.0110 C   0  0  0  0  0  0  0  0  0  0  0  0
   13.4830  -16.0400   -3.9890 C   0  0  0  0  0  0  0  0  0  0  0  0
   13.7410  -15.5940   -5.2840 C   0  0  0  0  0  0  0  0  0  0  0  0
   13.5530  -14.2550   -5.6130 C   0  0  0  0  0  0  0  0  0  0  0  0
   13.1130  -13.3530   -4.6450 C   0  0  0  0  0  0  0  0  0  0  0  0
   12.8590  -13.7860   -3.3350 C   0  0  0  0  0  0  0  0  0  0  0  0
   12.3600  -12.7970   -2.3090 C   0  0  0  0  0  0  0  0  0  0  0  0
    9.5950  -12.1930    0.1370 H   0  0  0  0  0  0  0  0  0  0  0  0
   10.2100  -12.4420   -1.3930 H   0  0  0  0  0  0  0  0  0  0  0  0
   13.4880  -13.2810   -0.6660 H   0  0  0  0  0  0  0  0  0  0  0  0
   11.9803  -14.9776    0.2839 H   0  0  0  0  0  0  0  0  0  0  0  0
   10.9031  -14.6945   -1.1203 H   0  0  0  0  0  0  0  0  0  0  0  0
   13.7545  -15.7913   -1.1108 H   0  0  0  0  0  0  0  0  0  0  0  0
   12.2219  -16.5894   -1.6853 H   0  0  0  0  0  0  0  0  0  0  0  0
   13.6361  -17.0991   -3.7343 H   0  0  0  0  0  0  0  0  0  0  0  0
   14.0941  -16.3023   -6.0480 H   0  0  0  0  0  0  0  0  0  0  0  0
   13.7517  -13.9078   -6.6377 H   0  0  0  0  0  0  0  0  0  0  0  0
   12.9642  -12.2958   -4.9100 H   0  0  0  0  0  0  0  0  0  0  0  0
   12.9371  -11.8654   -2.4043 H   0  0  0  0  0  0  0  0  0  0  0  0
   11.2900  -12.6246   -2.4970 H   0  0  0  0  0  0  0  0  0  0  0  0
  1  2  1  0
  2  3  2  0
  2  4  2  0
  2  5  1  0
  5  6  1  0
  6  7  1  0
  7  8  1  0
  8  9  2  0
  9 10  1  0
 10 11  2  0
 11 12  1  0
 12 13  2  0
 13 14  1  0
 14  5  1  0
 13  8  1  0
  1 15  1  0
  1 16  1  0
  5 17  1  0
  6 18  1  0
  6 19  1  0
  7 20  1  0
  7 21  1  0
  9 22  1  0
 10 23  1  0
 11 24  1  0
 12 25  1  0
 14 26  1  0
 14 27  1  0
M  CHG  1   5   1
M  END
>  <meeko>  (7) 
{"is_sidechain": [false], "free_energy": -5.515, "intermolecular_energy": -5.994, "internal_energy": -0.103}

$$$$
LIB_RERPSPPBSSELBR__M_PUB_ALL__e8__s20260927
     RDKit          3D

 27 28  0  0  0  0  0  0  0  0999 V2000
   -8.5890  -22.7590    6.8390 N   0  0  0  0  0  0  0  0  0  0  0  0
  -10.2250  -23.0010    6.9040 S   0  0  0  0  0  0  0  0  0  0  0  0
  -10.5030  -24.1820    6.1410 O   0  0  0  0  0  0  0  0  0  0  0  0
  -10.8790  -21.7370    6.7310 O   0  0  0  0  0  0  0  0  0  0  0  0
  -10.5120  -23.4540    8.4670 N   0  0  0  0  0  0  0  0  0  0  0  0
  -10.8160  -22.2960    9.3440 C   0  0  0  0  0  0  0  0  0  0  0  0
  -10.8390  -22.7670   10.7980 C   0  0  0  0  0  0  0  0  0  0  0  0
  -11.6610  -24.0170   10.9920 C   0  0  0  0  0  0  0  0  0  0  0  0
  -12.0550  -24.3870   12.2850 C   0  0  0  0  0  0  0  0  0  0  0  0
  -12.7920  -25.5520   12.4900 C   0  0  0  0  0  0  0  0  0  0  0  0
  -13.1390  -26.3590   11.4100 C   0  0  0  0  0  0  0  0  0  0  0  0
  -12.7430  -26.0090   10.1200 C   0  0  0  0  0  0  0  0  0  0  0  0
  -11.9930  -24.8440    9.9000 C   0  0  0  0  0  0  0  0  0  0  0  0
  -11.5960  -24.4700    8.4920 C   0  0  0  0  0  0  0  0  0  0  0  0
   -8.3730  -21.7750    7.0340 H   0  0  0  0  0  0  0  0  0  0  0  0
   -8.2380  -22.9890    5.9010 H   0  0  0  0  0  0  0  0  0  0  0  0
   -9.6410  -23.9030    8.7360 H   0  0  0  0  0  0  0  0  0  0  0  0
  -10.0420  -21.5246    9.2182 H   0  0  0  0  0  0  0  0  0  0  0  0
  -11.7946  -21.8720    9.0746 H   0  0  0  0  0  0  0  0  0  0  0  0
   -9.8066  -22.9715   11.1181 H   0  0  0  0  0  0  0  0  0  0  0  0
  -11.3006  -21.9692   11.3985 H   0  0  0  0  0  0  0  0  0  0  0  0
  -11.7812  -23.7547   13.1425 H   0  0  0  0  0  0  0  0  0  0  0  0
  -13.1002  -25.8345   13.5075 H   0  0  0  0  0  0  0  0  0  0  0  0
  -13.7266  -27.2742   11.5748 H   0  0  0  0  0  0  0  0  0  0  0  0
  -13.0201  -26.6498    9.2700 H   0  0  0  0  0  0  0  0  0  0  0  0
  -11.2473  -25.3734    7.9702 H   0  0  0  0  0  0  0  0  0  0  0  0
  -12.4771  -24.0369    7.9958 H   0  0  0  0  0  0  0  0  0  0  0  0
  1  2  1  0
  2  3  2  0
  2  4  2  0
  2  5  1  0
  5  6  1  0
  6  7  1  0
  7  8  1  0
  8  9  2  0
  9 10  1  0
 10 11  2  0
 11 12  1  0
 12 13  2  0
 13 14  1  0
 14  5  1  0
 13  8  1  0
  1 15  1  0
  1 16  1  0
  5 17  1  0
  6 18  1  0
  6 19  1  0
  7 20  1  0
  7 21  1  0
  9 22  1  0
 10 23  1  0
 11 24  1  0
 12 25  1  0
 14 26  1  0
 14 27  1  0
M  CHG  1   5   1
M  END
>  <meeko>  (8) 
{"is_sidechain": [false], "free_energy": -5.511, "intermolecular_energy": -5.994, "internal_energy": -0.099}

$$$$
LIB_RERPSPPBSSELBR__M_PUB_ALL__e8__s20260927
     RDKit          3D

 27 28  0  0  0  0  0  0  0  0999 V2000
  -10.0600  -15.5720  -10.0730 N   0  0  0  0  0  0  0  0  0  0  0  0
  -11.6960  -15.3240  -10.0430 S   0  0  0  0  0  0  0  0  0  0  0  0
  -12.2650  -16.1760  -11.0460 O   0  0  0  0  0  0  0  0  0  0  0  0
  -11.9410  -13.9170   -9.9230 O   0  0  0  0  0  0  0  0  0  0  0  0
  -12.1880  -15.9970   -8.6160 N   0  0  0  0  0  0  0  0  0  0  0  0
  -11.4860  -15.4140   -7.4450 C   0  0  0  0  0  0  0  0  0  0  0  0
  -11.8220  -16.2390   -6.2030 C   0  0  0  0  0  0  0  0  0  0  0  0
  -13.3010  -16.5060   -6.0630 C   0  0  0  0  0  0  0  0  0  0  0  0
  -13.8060  -16.9500   -4.8340 C   0  0  0  0  0  0  0  0  0  0  0  0
  -15.1640  -17.2270   -4.6900 C   0  0  0  0  0  0  0  0  0  0  0  0
  -16.0290  -17.0680   -5.7690 C   0  0  0  0  0  0  0  0  0  0  0  0
  -15.5370  -16.6370   -7.0000 C   0  0  0  0  0  0  0  0  0  0  0  0
  -14.1710  -16.3640   -7.1630 C   0  0  0  0  0  0  0  0  0  0  0  0
  -13.6630  -15.8740   -8.4980 C   0  0  0  0  0  0  0  0  0  0  0  0
   -9.6220  -15.1080   -9.2690 H   0  0  0  0  0  0  0  0  0  0  0  0
   -9.6610  -15.1760  -10.9340 H   0  0  0  0  0  0  0  0  0  0  0  0
  -11.9530  -16.9790   -8.7360 H   0  0  0  0  0  0  0  0  0  0  0  0
  -10.3999  -15.4339   -7.6184 H   0  0  0  0  0  0  0  0  0  0  0  0
  -11.8088  -14.3727   -7.2984 H   0  0  0  0  0  0  0  0  0  0  0  0
  -11.2951  -17.2025   -6.2675 H   0  0  0  0  0  0  0  0  0  0  0  0
  -11.5045  -15.6595   -5.3236 H   0  0  0  0  0  0  0  0  0  0  0  0
  -13.1271  -17.0806   -3.9784 H   0  0  0  0  0  0  0  0  0  0  0  0
  -15.5536  -17.5723   -3.7210 H   0  0  0  0  0  0  0  0  0  0  0  0
  -17.1013  -17.2826   -5.6502 H   0  0  0  0  0  0  0  0  0  0  0  0
  -16.2247  -16.5102   -7.8491 H   0  0  0  0  0  0  0  0  0  0  0  0
  -14.1330  -16.4680   -9.2956 H   0  0  0  0  0  0  0  0  0  0  0  0
  -13.9214  -14.8085   -8.5874 H   0  0  0  0  0  0  0  0  0  0  0  0
  1  2  1  0
  2  3  2  0
  2  4  2  0
  2  5  1  0
  5  6  1  0
  6  7  1  0
  7  8  1  0
  8  9  2  0
  9 10  1  0
 10 11  2  0
 11 12  1  0
 12 13  2  0
 13 14  1  0
 14  5  1  0
 13  8  1  0
  1 15  1  0
  1 16  1  0
  5 17  1  0
  6 18  1  0
  6 19  1  0
  7 20  1  0
  7 21  1  0
  9 22  1  0
 10 23  1  0
 11 24  1  0
 12 25  1  0
 14 26  1  0
 14 27  1  0
M  CHG  1   5   1
M  END
>  <meeko>  (9) 
{"is_sidechain": [false], "free_energy": -5.501, "intermolecular_energy": -5.987, "internal_energy": -0.095}

$$$$
