LIB_KFIUIAQYOYNCIK__M_PUB_ALL__e8__s20260927
     RDKit          3D

 49 51  0  0  0  0  0  0  0  0999 V2000
   -5.9770  -13.0690    2.2870 C   0  0  0  0  0  0  0  0  0  0  0  0
   -5.2760  -12.7430    0.9780 C   0  0  0  0  0  0  0  0  0  0  0  0
   -3.9130  -13.4110    0.8170 C   0  0  0  0  0  0  0  0  0  0  0  0
   -2.7850  -12.6080    1.3870 N   0  0  0  0  0  0  0  0  0  0  0  0
   -2.9670  -11.0860    1.3310 C   0  0  0  0  0  0  0  0  0  0  0  0
   -1.8610  -10.3400    2.1280 C   0  0  0  0  0  0  0  0  0  0  0  0
   -0.7170  -11.2300    2.3860 N   0  0  0  0  0  0  0  0  0  0  0  0
    0.0710  -11.4910    1.2570 C   0  0  0  0  0  0  0  0  0  0  0  0
    0.0510  -12.7690    0.7960 N   0  0  0  0  0  0  0  0  0  0  0  0
    0.6860  -13.0610   -0.3760 C   0  0  0  0  0  0  0  0  0  0  0  0
    1.2950  -12.0510   -1.1320 C   0  0  0  0  0  0  0  0  0  0  0  0
    1.3280  -10.7420   -0.6520 C   0  0  0  0  0  0  0  0  0  0  0  0
    0.7120  -10.4650    0.5530 C   0  0  0  0  0  0  0  0  0  0  0  0
    0.6830   -9.2030    1.0040 F   0  0  0  0  0  0  0  0  0  0  0  0
    1.8710  -12.3620   -2.4600 C   0  0  0  0  0  0  0  0  0  0  0  0
    2.4760  -11.4840   -3.0610 O   0  0  0  0  0  0  0  0  0  0  0  0
    1.6720  -13.7300   -2.9560 C   0  0  0  0  0  0  0  0  0  0  0  0
    2.0040  -14.1520   -4.3670 C   0  0  0  0  0  0  0  0  0  0  0  0
    3.2390  -14.2440   -4.6150 O   0  0  0  0  0  0  0  0  0  0  0  0
    1.0120  -14.2300   -5.1470 O   0  0  0  0  0  0  0  0  0  0  0  0
    1.1250  -14.6340   -2.1370 C   0  0  0  0  0  0  0  0  0  0  0  0
    0.6630  -14.3810   -0.8590 N   0  0  0  0  0  0  0  0  0  0  0  0
    0.2420  -15.4510    0.0430 C   0  0  0  0  0  0  0  0  0  0  0  0
   -1.1130  -16.0110   -0.3670 C   0  0  0  0  0  0  0  0  0  0  0  0
   -1.0440  -12.3910    3.2300 C   0  0  0  0  0  0  0  0  0  0  0  0
   -2.3610  -13.0770    2.7780 C   0  0  0  0  0  0  0  0  0  0  0  0
   -5.3364  -12.7711    3.1301 H   0  0  0  0  0  0  0  0  0  0  0  0
   -6.9297  -12.5215    2.3390 H   0  0  0  0  0  0  0  0  0  0  0  0
   -6.1722  -14.1503    2.3390 H   0  0  0  0  0  0  0  0  0  0  0  0
   -5.9213  -13.0710    0.1497 H   0  0  0  0  0  0  0  0  0  0  0  0
   -5.0992  -11.6573    0.9750 H   0  0  0  0  0  0  0  0  0  0  0  0
   -3.9399  -14.3852    1.3272 H   0  0  0  0  0  0  0  0  0  0  0  0
   -3.7265  -13.5113   -0.2624 H   0  0  0  0  0  0  0  0  0  0  0  0
   -1.9300  -12.7960    0.8250 H   0  0  0  0  0  0  0  0  0  0  0  0
   -2.9284  -10.7617    0.2806 H   0  0  0  0  0  0  0  0  0  0  0  0
   -3.9383  -10.8420    1.7861 H   0  0  0  0  0  0  0  0  0  0  0  0
   -1.5191   -9.4718    1.5454 H   0  0  0  0  0  0  0  0  0  0  0  0
   -2.2788  -10.0120    3.0913 H   0  0  0  0  0  0  0  0  0  0  0  0
    1.8335   -9.9475   -1.2205 H   0  0  0  0  0  0  0  0  0  0  0  0
    1.0351  -15.6645   -2.5111 H   0  0  0  0  0  0  0  0  0  0  0  0
    0.9881  -16.2588    0.0152 H   0  0  0  0  0  0  0  0  0  0  0  0
    0.1570  -15.0385    1.0592 H   0  0  0  0  0  0  0  0  0  0  0  0
   -1.6975  -16.2526    0.5330 H   0  0  0  0  0  0  0  0  0  0  0  0
   -1.6533  -15.2625   -0.9651 H   0  0  0  0  0  0  0  0  0  0  0  0
   -0.9672  -16.9226   -0.9651 H   0  0  0  0  0  0  0  0  0  0  0  0
   -0.2226  -13.1200    3.1671 H   0  0  0  0  0  0  0  0  0  0  0  0
   -1.1789  -12.0369    4.2627 H   0  0  0  0  0  0  0  0  0  0  0  0
   -2.2084  -14.1662    2.7574 H   0  0  0  0  0  0  0  0  0  0  0  0
   -3.1541  -12.8074    3.4909 H   0  0  0  0  0  0  0  0  0  0  0  0
  1  2  1  0
  2  3  1  0
  3  4  1  0
  4  5  1  0
  5  6  1  0
  6  7  1  0
  7  8  1  0
  8  9  2  0
  9 10  1  0
 10 11  2  0
 11 12  1  0
 12 13  2  0
 13 14  1  0
 11 15  1  0
 15 16  2  0
 15 17  1  0
 17 18  1  0
 18 19  2  0
 18 20  1  0
 17 21  2  0
 21 22  1  0
 22 23  1  0
 23 24  1  0
  7 25  1  0
 25 26  1  0
 26  4  1  0
 13  8  1  0
 22 10  1  0
  1 27  1  0
  1 28  1  0
  1 29  1  0
  2 30  1  0
  2 31  1  0
  3 32  1  0
  3 33  1  0
  4 34  1  0
  5 35  1  0
  5 36  1  0
  6 37  1  0
  6 38  1  0
 12 39  1  0
 21 40  1  0
 23 41  1  0
 23 42  1  0
 24 43  1  0
 24 44  1  0
 24 45  1  0
 25 46  1  0
 25 47  1  0
 26 48  1  0
 26 49  1  0
M  CHG  2   4   1  20  -1
M  END
>  <meeko>  (1) 
{"is_sidechain": [false], "free_energy": -6.508, "intermolecular_energy": -8.41, "internal_energy": -0.693}

$$$$
LIB_KFIUIAQYOYNCIK__M_PUB_ALL__e8__s20260927
     RDKit          3D

 49 51  0  0  0  0  0  0  0  0999 V2000
    3.3390  -10.4190   -4.8130 C   0  0  0  0  0  0  0  0  0  0  0  0
    2.7220  -11.6150   -4.1080 C   0  0  0  0  0  0  0  0  0  0  0  0
    2.5460  -11.4310   -2.6030 C   0  0  0  0  0  0  0  0  0  0  0  0
    2.5630  -12.7200   -1.8400 N   0  0  0  0  0  0  0  0  0  0  0  0
    2.6350  -13.9900   -2.6970 C   0  0  0  0  0  0  0  0  0  0  0  0
    2.8630  -15.2610   -1.8300 C   0  0  0  0  0  0  0  0  0  0  0  0
    2.5500  -14.9890   -0.4180 N   0  0  0  0  0  0  0  0  0  0  0  0
    1.1800  -14.8740   -0.1460 C   0  0  0  0  0  0  0  0  0  0  0  0
    0.7490  -13.6450    0.2420 N   0  0  0  0  0  0  0  0  0  0  0  0
   -0.5900  -13.4290    0.3900 C   0  0  0  0  0  0  0  0  0  0  0  0
   -1.5170  -14.4350    0.0850 C   0  0  0  0  0  0  0  0  0  0  0  0
   -1.0730  -15.7010   -0.2990 C   0  0  0  0  0  0  0  0  0  0  0  0
    0.2870  -15.9170   -0.4120 C   0  0  0  0  0  0  0  0  0  0  0  0
    0.7310  -17.1090   -0.8350 F   0  0  0  0  0  0  0  0  0  0  0  0
   -2.9680  -14.1470    0.1320 C   0  0  0  0  0  0  0  0  0  0  0  0
   -3.7580  -15.0650   -0.0510 O   0  0  0  0  0  0  0  0  0  0  0  0
   -3.3510  -12.7570    0.4070 C   0  0  0  0  0  0  0  0  0  0  0  0
   -4.7680  -12.2510    0.2790 C   0  0  0  0  0  0  0  0  0  0  0  0
   -4.9380  -11.3730   -0.6130 O   0  0  0  0  0  0  0  0  0  0  0  0
   -5.5660  -12.6730    1.1640 O   0  0  0  0  0  0  0  0  0  0  0  0
   -2.3940  -11.8820    0.7370 C   0  0  0  0  0  0  0  0  0  0  0  0
   -1.0410  -12.1580    0.7860 N   0  0  0  0  0  0  0  0  0  0  0  0
   -0.0720  -11.2070    1.3250 C   0  0  0  0  0  0  0  0  0  0  0  0
    0.2510  -10.1190    0.3110 C   0  0  0  0  0  0  0  0  0  0  0  0
    3.4210  -13.9750    0.2000 C   0  0  0  0  0  0  0  0  0  0  0  0
    3.5980  -12.7350   -0.7170 C   0  0  0  0  0  0  0  0  0  0  0  0
    3.7086   -9.7027   -4.0645 H   0  0  0  0  0  0  0  0  0  0  0  0
    4.1758  -10.7560   -5.4425 H   0  0  0  0  0  0  0  0  0  0  0  0
    2.5794   -9.9324   -5.4425 H   0  0  0  0  0  0  0  0  0  0  0  0
    1.7328  -11.8040   -4.5506 H   0  0  0  0  0  0  0  0  0  0  0  0
    3.4174  -12.4562   -4.2447 H   0  0  0  0  0  0  0  0  0  0  0  0
    3.3631  -10.7952   -2.2316 H   0  0  0  0  0  0  0  0  0  0  0  0
    1.5583  -10.9732   -2.4452 H   0  0  0  0  0  0  0  0  0  0  0  0
    1.6700  -12.8020   -1.3130 H   0  0  0  0  0  0  0  0  0  0  0  0
    1.6901  -14.1007   -3.2492 H   0  0  0  0  0  0  0  0  0  0  0  0
    3.4867  -13.8893   -3.3858 H   0  0  0  0  0  0  0  0  0  0  0  0
    2.2121  -16.0690   -2.1952 H   0  0  0  0  0  0  0  0  0  0  0  0
    3.9193  -15.5580   -1.9078 H   0  0  0  0  0  0  0  0  0  0  0  0
   -1.7898  -16.5090   -0.5071 H   0  0  0  0  0  0  0  0  0  0  0  0
   -2.7103  -10.8593    0.9900 H   0  0  0  0  0  0  0  0  0  0  0  0
   -0.4903  -10.7419    2.2298 H   0  0  0  0  0  0  0  0  0  0  0  0
    0.8550  -11.7496    1.5621 H   0  0  0  0  0  0  0  0  0  0  0  0
    0.5255   -9.1945    0.8401 H   0  0  0  0  0  0  0  0  0  0  0  0
    1.0915  -10.4437   -0.3200 H   0  0  0  0  0  0  0  0  0  0  0  0
   -0.6305   -9.9325   -0.3200 H   0  0  0  0  0  0  0  0  0  0  0  0
    2.9739  -13.6534    1.1522 H   0  0  0  0  0  0  0  0  0  0  0  0
    4.4111  -14.4260    0.3621 H   0  0  0  0  0  0  0  0  0  0  0  0
    3.4831  -11.8234   -0.1123 H   0  0  0  0  0  0  0  0  0  0  0  0
    4.5995  -12.7795   -1.1698 H   0  0  0  0  0  0  0  0  0  0  0  0
  1  2  1  0
  2  3  1  0
  3  4  1  0
  4  5  1  0
  5  6  1  0
  6  7  1  0
  7  8  1  0
  8  9  2  0
  9 10  1  0
 10 11  2  0
 11 12  1  0
 12 13  2  0
 13 14  1  0
 11 15  1  0
 15 16  2  0
 15 17  1  0
 17 18  1  0
 18 19  2  0
 18 20  1  0
 17 21  2  0
 21 22  1  0
 22 23  1  0
 23 24  1  0
  7 25  1  0
 25 26  1  0
 26  4  1  0
 13  8  1  0
 22 10  1  0
  1 27  1  0
  1 28  1  0
  1 29  1  0
  2 30  1  0
  2 31  1  0
  3 32  1  0
  3 33  1  0
  4 34  1  0
  5 35  1  0
  5 36  1  0
  6 37  1  0
  6 38  1  0
 12 39  1  0
 21 40  1  0
 23 41  1  0
 23 42  1  0
 24 43  1  0
 24 44  1  0
 24 45  1  0
 25 46  1  0
 25 47  1  0
 26 48  1  0
 26 49  1  0
M  CHG  2   4   1  20  -1
M  END
>  <meeko>  (2) 
{"is_sidechain": [false], "free_energy": -6.451, "intermolecular_energy": -8.371, "internal_energy": -0.659}

$$$$
LIB_KFIUIAQYOYNCIK__M_PUB_ALL__e8__s20260927
     RDKit          3D

 49 51  0  0  0  0  0  0  0  0999 V2000
   -1.1130  -15.0480   -1.1250 C   0  0  0  0  0  0  0  0  0  0  0  0
   -1.4790  -15.7910    0.1490 C   0  0  0  0  0  0  0  0  0  0  0  0
   -2.5220  -15.0810    1.0080 C   0  0  0  0  0  0  0  0  0  0  0  0
   -2.0190  -13.8140    1.6290 N   0  0  0  0  0  0  0  0  0  0  0  0
   -2.9980  -12.6340    1.5980 C   0  0  0  0  0  0  0  0  0  0  0  0
   -2.4860  -11.4340    2.4440 C   0  0  0  0  0  0  0  0  0  0  0  0
   -1.0460  -11.5690    2.7180 N   0  0  0  0  0  0  0  0  0  0  0  0
   -0.2270  -11.3230    1.6080 C   0  0  0  0  0  0  0  0  0  0  0  0
    0.5210  -12.3710    1.1720 N   0  0  0  0  0  0  0  0  0  0  0  0
    1.2360  -12.2400    0.0180 C   0  0  0  0  0  0  0  0  0  0  0  0
    1.1540  -11.0690   -0.7470 C   0  0  0  0  0  0  0  0  0  0  0  0
    0.3980   -9.9880   -0.2930 C   0  0  0  0  0  0  0  0  0  0  0  0
   -0.2930  -10.1200    0.8960 C   0  0  0  0  0  0  0  0  0  0  0  0
   -1.0710   -9.1140    1.3210 F   0  0  0  0  0  0  0  0  0  0  0  0
    1.8370  -10.9890   -2.0580 C   0  0  0  0  0  0  0  0  0  0  0  0
    1.8260   -9.9260   -2.6660 O   0  0  0  0  0  0  0  0  0  0  0  0
    2.4930  -12.2140   -2.5300 C   0  0  0  0  0  0  0  0  0  0  0  0
    3.0460  -12.3690   -3.9260 C   0  0  0  0  0  0  0  0  0  0  0  0
    2.3610  -13.1080   -4.6890 O   0  0  0  0  0  0  0  0  0  0  0  0
    4.1840  -11.8480   -4.1100 O   0  0  0  0  0  0  0  0  0  0  0  0
    2.5610  -13.2630   -1.7040 C   0  0  0  0  0  0  0  0  0  0  0  0
    2.0060  -13.3230   -0.4400 N   0  0  0  0  0  0  0  0  0  0  0  0
    2.2710  -14.4310    0.4750 C   0  0  0  0  0  0  0  0  0  0  0  0
    2.5720  -15.7130   -0.2880 C   0  0  0  0  0  0  0  0  0  0  0  0
   -0.7030  -12.7500    3.5280 C   0  0  0  0  0  0  0  0  0  0  0  0
   -1.4300  -14.0250    3.0220 C   0  0  0  0  0  0  0  0  0  0  0  0
   -0.6405  -14.0887   -0.8671 H   0  0  0  0  0  0  0  0  0  0  0  0
   -0.4111  -15.6556   -1.7151 H   0  0  0  0  0  0  0  0  0  0  0  0
   -2.0225  -14.8618   -1.7151 H   0  0  0  0  0  0  0  0  0  0  0  0
   -1.8752  -16.7788   -0.1291 H   0  0  0  0  0  0  0  0  0  0  0  0
   -0.5618  -15.8551    0.7529 H   0  0  0  0  0  0  0  0  0  0  0  0
   -3.3886  -14.8390    0.3752 H   0  0  0  0  0  0  0  0  0  0  0  0
   -2.7847  -15.7633    1.8298 H   0  0  0  0  0  0  0  0  0  0  0  0
   -1.1910  -13.4900    1.0900 H   0  0  0  0  0  0  0  0  0  0  0  0
   -3.1263  -12.3056    0.5560 H   0  0  0  0  0  0  0  0  0  0  0  0
   -3.9527  -12.9715    2.0276 H   0  0  0  0  0  0  0  0  0  0  0  0
   -2.6624  -10.5001    1.8902 H   0  0  0  0  0  0  0  0  0  0  0  0
   -3.0286  -11.4180    3.4007 H   0  0  0  0  0  0  0  0  0  0  0  0
    0.3531   -9.0517   -0.8687 H   0  0  0  0  0  0  0  0  0  0  0  0
    3.1034  -14.1514   -2.0599 H   0  0  0  0  0  0  0  0  0  0  0  0
    3.1358  -14.1770    1.1056 H   0  0  0  0  0  0  0  0  0  0  0  0
    1.3760  -14.5948    1.0931 H   0  0  0  0  0  0  0  0  0  0  0  0
    2.7634  -16.5280    0.4255 H   0  0  0  0  0  0  0  0  0  0  0  0
    1.7107  -15.9741   -0.9205 H   0  0  0  0  0  0  0  0  0  0  0  0
    3.4595  -15.5635   -0.9205 H   0  0  0  0  0  0  0  0  0  0  0  0
    0.3833  -12.9147    3.4757 H   0  0  0  0  0  0  0  0  0  0  0  0
   -1.0239  -12.5606    4.5630 H   0  0  0  0  0  0  0  0  0  0  0  0
   -0.7105  -14.8562    2.9843 H   0  0  0  0  0  0  0  0  0  0  0  0
   -2.2531  -14.2527    3.7153 H   0  0  0  0  0  0  0  0  0  0  0  0
  1  2  1  0
  2  3  1  0
  3  4  1  0
  4  5  1  0
  5  6  1  0
  6  7  1  0
  7  8  1  0
  8  9  2  0
  9 10  1  0
 10 11  2  0
 11 12  1  0
 12 13  2  0
 13 14  1  0
 11 15  1  0
 15 16  2  0
 15 17  1  0
 17 18  1  0
 18 19  2  0
 18 20  1  0
 17 21  2  0
 21 22  1  0
 22 23  1  0
 23 24  1  0
  7 25  1  0
 25 26  1  0
 26  4  1  0
 13  8  1  0
 22 10  1  0
  1 27  1  0
  1 28  1  0
  1 29  1  0
  2 30  1  0
  2 31  1  0
  3 32  1  0
  3 33  1  0
  4 34  1  0
  5 35  1  0
  5 36  1  0
  6 37  1  0
  6 38  1  0
 12 39  1  0
 21 40  1  0
 23 41  1  0
 23 42  1  0
 24 43  1  0
 24 44  1  0
 24 45  1  0
 25 46  1  0
 25 47  1  0
 26 48  1  0
 26 49  1  0
M  CHG  2   4   1  20  -1
M  END
>  <meeko>  (3) 
{"is_sidechain": [false], "free_energy": -6.414, "intermolecular_energy": -7.94, "internal_energy": -1.042}

$$$$
LIB_KFIUIAQYOYNCIK__M_PUB_ALL__e8__s20260927
     RDKit          3D

 49 51  0  0  0  0  0  0  0  0999 V2000
    3.3000  -10.7430   -4.7360 C   0  0  0  0  0  0  0  0  0  0  0  0
    3.7870  -12.1660   -4.5220 C   0  0  0  0  0  0  0  0  0  0  0  0
    5.2680  -12.2730   -4.1680 C   0  0  0  0  0  0  0  0  0  0  0  0
    5.5130  -12.6790   -2.7470 N   0  0  0  0  0  0  0  0  0  0  0  0
    5.1400  -11.6310   -1.6910 C   0  0  0  0  0  0  0  0  0  0  0  0
    5.2240  -12.2060   -0.2490 C   0  0  0  0  0  0  0  0  0  0  0  0
    6.0120  -13.4500   -0.2310 N   0  0  0  0  0  0  0  0  0  0  0  0
    7.3910  -13.2560   -0.3890 C   0  0  0  0  0  0  0  0  0  0  0  0
    7.9340  -13.7310   -1.5410 N   0  0  0  0  0  0  0  0  0  0  0  0
    9.2400  -13.4560   -1.8190 C   0  0  0  0  0  0  0  0  0  0  0  0
   10.0000  -12.6430   -0.9680 C   0  0  0  0  0  0  0  0  0  0  0  0
    9.4480  -12.1680    0.2210 C   0  0  0  0  0  0  0  0  0  0  0  0
    8.1330  -12.4820    0.5100 C   0  0  0  0  0  0  0  0  0  0  0  0
    7.5660  -11.9870    1.6200 F   0  0  0  0  0  0  0  0  0  0  0  0
   11.3770  -12.2540   -1.3460 C   0  0  0  0  0  0  0  0  0  0  0  0
   12.0520  -11.6180   -0.5450 O   0  0  0  0  0  0  0  0  0  0  0  0
   11.8360  -12.6770   -2.6750 C   0  0  0  0  0  0  0  0  0  0  0  0
   13.1200  -12.1870   -3.2990 C   0  0  0  0  0  0  0  0  0  0  0  0
   13.1280  -10.9600   -3.6010 O   0  0  0  0  0  0  0  0  0  0  0  0
   13.9670  -13.0910   -3.5570 O   0  0  0  0  0  0  0  0  0  0  0  0
   11.0570  -13.4950   -3.3910 C   0  0  0  0  0  0  0  0  0  0  0  0
    9.8050  -13.9410   -3.0130 N   0  0  0  0  0  0  0  0  0  0  0  0
    9.0870  -14.9720   -3.7600 C   0  0  0  0  0  0  0  0  0  0  0  0
    8.4960  -14.4070   -5.0440 C   0  0  0  0  0  0  0  0  0  0  0  0
    5.4170  -14.5430   -1.0180 C   0  0  0  0  0  0  0  0  0  0  0  0
    4.9360  -14.0530   -2.4100 C   0  0  0  0  0  0  0  0  0  0  0  0
    3.1352  -10.2613   -3.7609 H   0  0  0  0  0  0  0  0  0  0  0  0
    4.0559  -10.1778   -5.3010 H   0  0  0  0  0  0  0  0  0  0  0  0
    2.3564  -10.7595   -5.3010 H   0  0  0  0  0  0  0  0  0  0  0  0
    3.2033  -12.6110   -3.7027 H   0  0  0  0  0  0  0  0  0  0  0  0
    3.6510  -12.6941   -5.4773 H   0  0  0  0  0  0  0  0  0  0  0  0
    5.7312  -13.0205   -4.8289 H   0  0  0  0  0  0  0  0  0  0  0  0
    5.7061  -11.2726   -4.2997 H   0  0  0  0  0  0  0  0  0  0  0  0
    6.5330  -12.8350   -2.6210 H   0  0  0  0  0  0  0  0  0  0  0  0
    5.8313  -10.7795   -1.7752 H   0  0  0  0  0  0  0  0  0  0  0  0
    4.1014  -11.3179   -1.8733 H   0  0  0  0  0  0  0  0  0  0  0  0
    5.7032  -11.4652    0.4080 H   0  0  0  0  0  0  0  0  0  0  0  0
    4.2059  -12.4265    0.1042 H   0  0  0  0  0  0  0  0  0  0  0  0
   10.0455  -11.5570    0.9137 H   0  0  0  0  0  0  0  0  0  0  0  0
   11.4448  -13.8412   -4.3604 H   0  0  0  0  0  0  0  0  0  0  0  0
    9.7846  -15.7842   -4.0125 H   0  0  0  0  0  0  0  0  0  0  0  0
    8.2652  -15.3490   -3.1334 H   0  0  0  0  0  0  0  0  0  0  0  0
    7.7213  -13.6664   -4.7962 H   0  0  0  0  0  0  0  0  0  0  0  0
    9.2904  -13.9240   -5.6318 H   0  0  0  0  0  0  0  0  0  0  0  0
    8.0492  -15.2224   -5.6318 H   0  0  0  0  0  0  0  0  0  0  0  0
    6.1705  -15.3320   -1.1587 H   0  0  0  0  0  0  0  0  0  0  0  0
    4.5439  -14.9249   -0.4686 H   0  0  0  0  0  0  0  0  0  0  0  0
    5.2594  -14.7744   -3.1748 H   0  0  0  0  0  0  0  0  0  0  0  0
    3.8392  -13.9723   -2.3887 H   0  0  0  0  0  0  0  0  0  0  0  0
  1  2  1  0
  2  3  1  0
  3  4  1  0
  4  5  1  0
  5  6  1  0
  6  7  1  0
  7  8  1  0
  8  9  2  0
  9 10  1  0
 10 11  2  0
 11 12  1  0
 12 13  2  0
 13 14  1  0
 11 15  1  0
 15 16  2  0
 15 17  1  0
 17 18  1  0
 18 19  2  0
 18 20  1  0
 17 21  2  0
 21 22  1  0
 22 23  1  0
 23 24  1  0
  7 25  1  0
 25 26  1  0
 26  4  1  0
 13  8  1  0
 22 10  1  0
  1 27  1  0
  1 28  1  0
  1 29  1  0
  2 30  1  0
  2 31  1  0
  3 32  1  0
  3 33  1  0
  4 34  1  0
  5 35  1  0
  5 36  1  0
  6 37  1  0
  6 38  1  0
 12 39  1  0
 21 40  1  0
 23 41  1  0
 23 42  1  0
 24 43  1  0
 24 44  1  0
 24 45  1  0
 25 46  1  0
 25 47  1  0
 26 48  1  0
 26 49  1  0
M  CHG  2   4   1  20  -1
M  END
>  <meeko>  (4) 
{"is_sidechain": [false], "free_energy": -6.202, "intermolecular_energy": -8.025, "internal_energy": -0.682}

$$$$
LIB_KFIUIAQYOYNCIK__M_PUB_ALL__e8__s20260927
     RDKit          3D

 49 51  0  0  0  0  0  0  0  0999 V2000
    6.0970  -13.3510    2.1300 C   0  0  0  0  0  0  0  0  0  0  0  0
    6.1930  -12.2240    1.1160 C   0  0  0  0  0  0  0  0  0  0  0  0
    7.1630  -12.4950   -0.0310 C   0  0  0  0  0  0  0  0  0  0  0  0
    6.4900  -12.6130   -1.3640 N   0  0  0  0  0  0  0  0  0  0  0  0
    6.9540  -11.6070   -2.4240 C   0  0  0  0  0  0  0  0  0  0  0  0
    6.3670  -11.9320   -3.8270 C   0  0  0  0  0  0  0  0  0  0  0  0
    5.2220  -12.8490   -3.7110 N   0  0  0  0  0  0  0  0  0  0  0  0
    4.0600  -12.2530   -3.2030 C   0  0  0  0  0  0  0  0  0  0  0  0
    3.6680  -12.6620   -1.9680 N   0  0  0  0  0  0  0  0  0  0  0  0
    2.6260  -12.0260   -1.3590 C   0  0  0  0  0  0  0  0  0  0  0  0
    2.0060  -10.9250   -1.9640 C   0  0  0  0  0  0  0  0  0  0  0  0
    2.3980  -10.5140   -3.2380 C   0  0  0  0  0  0  0  0  0  0  0  0
    3.4320  -11.1880   -3.8590 C   0  0  0  0  0  0  0  0  0  0  0  0
    3.8620  -10.7730   -5.0590 F   0  0  0  0  0  0  0  0  0  0  0  0
    0.9600  -10.1690   -1.2370 C   0  0  0  0  0  0  0  0  0  0  0  0
    0.3710   -9.2680   -1.8200 O   0  0  0  0  0  0  0  0  0  0  0  0
    0.7030  -10.5760    0.1500 C   0  0  0  0  0  0  0  0  0  0  0  0
   -0.1680   -9.7840    1.0940 C   0  0  0  0  0  0  0  0  0  0  0  0
    0.2480   -8.6180    1.3460 O   0  0  0  0  0  0  0  0  0  0  0  0
   -1.1240  -10.4310    1.6080 O   0  0  0  0  0  0  0  0  0  0  0  0
    1.3090  -11.6730    0.6180 C   0  0  0  0  0  0  0  0  0  0  0  0
    2.2210  -12.4430   -0.0780 N   0  0  0  0  0  0  0  0  0  0  0  0
    2.7060  -13.7240    0.4280 C   0  0  0  0  0  0  0  0  0  0  0  0
    1.6540  -14.8120    0.2670 C   0  0  0  0  0  0  0  0  0  0  0  0
    5.5700  -14.1680   -3.1550 C   0  0  0  0  0  0  0  0  0  0  0  0
    6.4800  -14.0410   -1.9040 C   0  0  0  0  0  0  0  0  0  0  0  0
    6.1326  -12.9332    3.1470 H   0  0  0  0  0  0  0  0  0  0  0  0
    5.1495  -13.8917    1.9887 H   0  0  0  0  0  0  0  0  0  0  0  0
    6.9394  -14.0442    1.9887 H   0  0  0  0  0  0  0  0  0  0  0  0
    5.1927  -12.0574    0.6897 H   0  0  0  0  0  0  0  0  0  0  0  0
    6.5784  -11.3459    1.6550 H   0  0  0  0  0  0  0  0  0  0  0  0
    7.8871  -11.6683   -0.0780 H   0  0  0  0  0  0  0  0  0  0  0  0
    7.6475  -13.4609    0.1748 H   0  0  0  0  0  0  0  0  0  0  0  0
    5.4760  -12.4210   -1.2380 H   0  0  0  0  0  0  0  0  0  0  0  0
    6.6269  -10.5999   -2.1260 H   0  0  0  0  0  0  0  0  0  0  0  0
    8.0505  -11.6636   -2.4914 H   0  0  0  0  0  0  0  0  0  0  0  0
    6.0352  -10.9984   -4.3049 H   0  0  0  0  0  0  0  0  0  0  0  0
    7.1471  -12.4146   -4.4341 H   0  0  0  0  0  0  0  0  0  0  0  0
    1.8953   -9.6724   -3.7370 H   0  0  0  0  0  0  0  0  0  0  0  0
    1.0605  -11.9882    1.6422 H   0  0  0  0  0  0  0  0  0  0  0  0
    3.6088  -14.0121   -0.1306 H   0  0  0  0  0  0  0  0  0  0  0  0
    2.9320  -13.6131    1.4988 H   0  0  0  0  0  0  0  0  0  0  0  0
    1.3243  -15.1530    1.2595 H   0  0  0  0  0  0  0  0  0  0  0  0
    0.7930  -14.4104   -0.2874 H   0  0  0  0  0  0  0  0  0  0  0  0
    2.0844  -15.6590   -0.2874 H   0  0  0  0  0  0  0  0  0  0  0  0
    4.6447  -14.6908   -2.8713 H   0  0  0  0  0  0  0  0  0  0  0  0
    6.1201  -14.7302   -3.9239 H   0  0  0  0  0  0  0  0  0  0  0  0
    6.1074  -14.7172   -1.1204 H   0  0  0  0  0  0  0  0  0  0  0  0
    7.5067  -14.3080   -2.1947 H   0  0  0  0  0  0  0  0  0  0  0  0
  1  2  1  0
  2  3  1  0
  3  4  1  0
  4  5  1  0
  5  6  1  0
  6  7  1  0
  7  8  1  0
  8  9  2  0
  9 10  1  0
 10 11  2  0
 11 12  1  0
 12 13  2  0
 13 14  1  0
 11 15  1  0
 15 16  2  0
 15 17  1  0
 17 18  1  0
 18 19  2  0
 18 20  1  0
 17 21  2  0
 21 22  1  0
 22 23  1  0
 23 24  1  0
  7 25  1  0
 25 26  1  0
 26  4  1  0
 13  8  1  0
 22 10  1  0
  1 27  1  0
  1 28  1  0
  1 29  1  0
  2 30  1  0
  2 31  1  0
  3 32  1  0
  3 33  1  0
  4 34  1  0
  5 35  1  0
  5 36  1  0
  6 37  1  0
  6 38  1  0
 12 39  1  0
 21 40  1  0
 23 41  1  0
 23 42  1  0
 24 43  1  0
 24 44  1  0
 24 45  1  0
 25 46  1  0
 25 47  1  0
 26 48  1  0
 26 49  1  0
M  CHG  2   4   1  20  -1
M  END
>  <meeko>  (5) 
{"is_sidechain": [false], "free_energy": -6.178, "intermolecular_energy": -7.905, "internal_energy": -0.771}

$$$$
LIB_KFIUIAQYOYNCIK__M_PUB_ALL__e8__s20260927
     RDKit          3D

 49 51  0  0  0  0  0  0  0  0999 V2000
  -15.3500  -20.4680  -10.6500 C   0  0  0  0  0  0  0  0  0  0  0  0
  -14.3260  -19.3680  -10.8730 C   0  0  0  0  0  0  0  0  0  0  0  0
  -14.8330  -17.9660  -10.5450 C   0  0  0  0  0  0  0  0  0  0  0  0
  -14.1580  -16.8880  -11.3360 N   0  0  0  0  0  0  0  0  0  0  0  0
  -13.5870  -17.3270  -12.6900 C   0  0  0  0  0  0  0  0  0  0  0  0
  -13.0980  -16.1150  -13.5330 C   0  0  0  0  0  0  0  0  0  0  0  0
  -12.9290  -14.9260  -12.6820 N   0  0  0  0  0  0  0  0  0  0  0  0
  -11.8100  -14.9770  -11.8420 C   0  0  0  0  0  0  0  0  0  0  0  0
  -12.0640  -15.1330  -10.5160 N   0  0  0  0  0  0  0  0  0  0  0  0
  -11.0200  -15.3270   -9.6600 C   0  0  0  0  0  0  0  0  0  0  0  0
   -9.7080  -15.4310  -10.1400 C   0  0  0  0  0  0  0  0  0  0  0  0
   -9.4450  -15.2560  -11.4990 C   0  0  0  0  0  0  0  0  0  0  0  0
  -10.5080  -15.0250  -12.3510 C   0  0  0  0  0  0  0  0  0  0  0  0
  -10.2830  -14.9120  -13.6680 F   0  0  0  0  0  0  0  0  0  0  0  0
   -8.6020  -15.7640   -9.2140 C   0  0  0  0  0  0  0  0  0  0  0  0
   -7.4540  -15.7610   -9.6410 O   0  0  0  0  0  0  0  0  0  0  0  0
   -8.9780  -16.0720   -7.8290 C   0  0  0  0  0  0  0  0  0  0  0  0
   -8.0090  -16.6340   -6.8170 C   0  0  0  0  0  0  0  0  0  0  0  0
   -7.2240  -17.5150   -7.2680 O   0  0  0  0  0  0  0  0  0  0  0  0
   -8.1970  -16.2490   -5.6270 O   0  0  0  0  0  0  0  0  0  0  0  0
  -10.2500  -15.8930   -7.4560 C   0  0  0  0  0  0  0  0  0  0  0  0
  -11.2790  -15.4950   -8.2870 N   0  0  0  0  0  0  0  0  0  0  0  0
  -12.6030  -15.1490   -7.7770 C   0  0  0  0  0  0  0  0  0  0  0  0
  -13.2250  -16.3190   -7.0270 C   0  0  0  0  0  0  0  0  0  0  0  0
  -14.1810  -14.4520  -12.0680 C   0  0  0  0  0  0  0  0  0  0  0  0
  -15.0010  -15.6210  -11.4610 C   0  0  0  0  0  0  0  0  0  0  0  0
  -15.4934  -20.6221   -9.5703 H   0  0  0  0  0  0  0  0  0  0  0  0
  -16.3064  -20.1772  -11.1091 H   0  0  0  0  0  0  0  0  0  0  0  0
  -14.9916  -21.4012  -11.1091 H   0  0  0  0  0  0  0  0  0  0  0  0
  -13.4521  -19.5762  -10.2382 H   0  0  0  0  0  0  0  0  0  0  0  0
  -14.0840  -19.3739  -11.9460 H   0  0  0  0  0  0  0  0  0  0  0  0
  -15.9122  -17.9279  -10.7542 H   0  0  0  0  0  0  0  0  0  0  0  0
  -14.6076  -17.7795   -9.4846 H   0  0  0  0  0  0  0  0  0  0  0  0
  -13.3360  -16.5500  -10.7960 H   0  0  0  0  0  0  0  0  0  0  0  0
  -12.7381  -18.0044  -12.5153 H   0  0  0  0  0  0  0  0  0  0  0  0
  -14.3878  -17.8315  -13.2505 H   0  0  0  0  0  0  0  0  0  0  0  0
  -12.1340  -16.3651  -14.0002 H   0  0  0  0  0  0  0  0  0  0  0  0
  -13.8495  -15.8942  -14.3053 H   0  0  0  0  0  0  0  0  0  0  0  0
   -8.4153  -15.3009  -11.8833 H   0  0  0  0  0  0  0  0  0  0  0  0
  -10.4970  -16.0781   -6.4002 H   0  0  0  0  0  0  0  0  0  0  0  0
  -12.5119  -14.2919   -7.0936 H   0  0  0  0  0  0  0  0  0  0  0  0
  -13.2507  -14.8968   -8.6296 H   0  0  0  0  0  0  0  0  0  0  0  0
  -13.1350  -16.1497   -5.9438 H   0  0  0  0  0  0  0  0  0  0  0  0
  -14.2877  -16.4047   -7.2977 H   0  0  0  0  0  0  0  0  0  0  0  0
  -12.7016  -17.2479   -7.2977 H   0  0  0  0  0  0  0  0  0  0  0  0
  -13.9376  -13.7352  -11.2699 H   0  0  0  0  0  0  0  0  0  0  0  0
  -14.7892  -13.9774  -12.8521 H   0  0  0  0  0  0  0  0  0  0  0  0
  -15.3565  -15.3278  -10.4622 H   0  0  0  0  0  0  0  0  0  0  0  0
  -15.8477  -15.8336  -12.1303 H   0  0  0  0  0  0  0  0  0  0  0  0
  1  2  1  0
  2  3  1  0
  3  4  1  0
  4  5  1  0
  5  6  1  0
  6  7  1  0
  7  8  1  0
  8  9  2  0
  9 10  1  0
 10 11  2  0
 11 12  1  0
 12 13  2  0
 13 14  1  0
 11 15  1  0
 15 16  2  0
 15 17  1  0
 17 18  1  0
 18 19  2  0
 18 20  1  0
 17 21  2  0
 21 22  1  0
 22 23  1  0
 23 24  1  0
  7 25  1  0
 25 26  1  0
 26  4  1  0
 13  8  1  0
 22 10  1  0
  1 27  1  0
  1 28  1  0
  1 29  1  0
  2 30  1  0
  2 31  1  0
  3 32  1  0
  3 33  1  0
  4 34  1  0
  5 35  1  0
  5 36  1  0
  6 37  1  0
  6 38  1  0
 12 39  1  0
 21 40  1  0
 23 41  1  0
 23 42  1  0
 24 43  1  0
 24 44  1  0
 24 45  1  0
 25 46  1  0
 25 47  1  0
 26 48  1  0
 26 49  1  0
M  CHG  2   4   1  20  -1
M  END
>  <meeko>  (6) 
{"is_sidechain": [false], "free_energy": -6.076, "intermolecular_energy": -8.09, "internal_energy": -0.455}

$$$$
LIB_KFIUIAQYOYNCIK__M_PUB_ALL__e8__s20260927
     RDKit          3D

 49 51  0  0  0  0  0  0  0  0999 V2000
   -1.5550   -8.8680    3.5810 C   0  0  0  0  0  0  0  0  0  0  0  0
   -1.5220   -9.9000    2.4670 C   0  0  0  0  0  0  0  0  0  0  0  0
   -2.4690  -11.0790    2.6790 C   0  0  0  0  0  0  0  0  0  0  0  0
   -2.1970  -12.2330    1.7640 N   0  0  0  0  0  0  0  0  0  0  0  0
   -3.3770  -12.6630    0.8830 C   0  0  0  0  0  0  0  0  0  0  0  0
   -2.9520  -13.7170   -0.1800 C   0  0  0  0  0  0  0  0  0  0  0  0
   -1.6610  -14.3250    0.1810 N   0  0  0  0  0  0  0  0  0  0  0  0
   -1.7300  -15.2230    1.2540 C   0  0  0  0  0  0  0  0  0  0  0  0
   -1.1510  -14.8160    2.4130 N   0  0  0  0  0  0  0  0  0  0  0  0
   -1.3000  -15.5810    3.5330 C   0  0  0  0  0  0  0  0  0  0  0  0
   -2.0920  -16.7360    3.5120 C   0  0  0  0  0  0  0  0  0  0  0  0
   -2.6760  -17.1620    2.3190 C   0  0  0  0  0  0  0  0  0  0  0  0
   -2.4880  -16.3970    1.1830 C   0  0  0  0  0  0  0  0  0  0  0  0
   -3.0870  -16.7590    0.0390 F   0  0  0  0  0  0  0  0  0  0  0  0
   -2.3450  -17.4860    4.7630 C   0  0  0  0  0  0  0  0  0  0  0  0
   -2.9650  -18.5410    4.7030 O   0  0  0  0  0  0  0  0  0  0  0  0
   -1.8140  -16.8970    5.9980 C   0  0  0  0  0  0  0  0  0  0  0  0
   -2.1610  -17.4140    7.3740 C   0  0  0  0  0  0  0  0  0  0  0  0
   -3.2970  -17.0620    7.8000 O   0  0  0  0  0  0  0  0  0  0  0  0
   -1.2230  -18.0180    7.9690 O   0  0  0  0  0  0  0  0  0  0  0  0
   -1.0260  -15.8210    5.9070 C   0  0  0  0  0  0  0  0  0  0  0  0
   -0.7060  -15.1600    4.7360 N   0  0  0  0  0  0  0  0  0  0  0  0
    0.3010  -14.1020    4.6890 C   0  0  0  0  0  0  0  0  0  0  0  0
    1.7010  -14.6840    4.5510 C   0  0  0  0  0  0  0  0  0  0  0  0
   -0.5390  -13.3710    0.2060 C   0  0  0  0  0  0  0  0  0  0  0  0
   -0.9150  -12.0630    0.9520 C   0  0  0  0  0  0  0  0  0  0  0  0
   -1.5387   -9.3791    4.5549 H   0  0  0  0  0  0  0  0  0  0  0  0
   -0.6774   -8.2101    3.4974 H   0  0  0  0  0  0  0  0  0  0  0  0
   -2.4728   -8.2675    3.4974 H   0  0  0  0  0  0  0  0  0  0  0  0
   -1.7972   -9.4011    1.5261 H   0  0  0  0  0  0  0  0  0  0  0  0
   -0.5024  -10.3125    2.4477 H   0  0  0  0  0  0  0  0  0  0  0  0
   -2.3664  -11.4261    3.7178 H   0  0  0  0  0  0  0  0  0  0  0  0
   -3.4858  -10.7223    2.4580 H   0  0  0  0  0  0  0  0  0  0  0  0
   -1.9780  -13.0680    2.3440 H   0  0  0  0  0  0  0  0  0  0  0  0
   -4.1588  -13.0982    1.5229 H   0  0  0  0  0  0  0  0  0  0  0  0
   -3.7489  -11.7740    0.3526 H   0  0  0  0  0  0  0  0  0  0  0  0
   -3.7190  -14.5035   -0.2361 H   0  0  0  0  0  0  0  0  0  0  0  0
   -2.8484  -13.2166   -1.1541 H   0  0  0  0  0  0  0  0  0  0  0  0
   -3.2725  -18.0855    2.2830 H   0  0  0  0  0  0  0  0  0  0  0  0
   -0.5969  -15.4293    6.8410 H   0  0  0  0  0  0  0  0  0  0  0  0
    0.0966  -13.4494    3.8274 H   0  0  0  0  0  0  0  0  0  0  0  0
    0.2512  -13.5301    5.6273 H   0  0  0  0  0  0  0  0  0  0  0  0
    2.1250  -14.8603    5.5506 H   0  0  0  0  0  0  0  0  0  0  0  0
    1.6500  -15.6355    4.0014 H   0  0  0  0  0  0  0  0  0  0  0  0
    2.3395  -13.9768    4.0014 H   0  0  0  0  0  0  0  0  0  0  0  0
    0.3159  -13.8392    0.7159 H   0  0  0  0  0  0  0  0  0  0  0  0
   -0.2849  -13.1128   -0.8326 H   0  0  0  0  0  0  0  0  0  0  0  0
   -0.0944  -11.7903    1.6318 H   0  0  0  0  0  0  0  0  0  0  0  0
   -1.0813  -11.2737    0.2041 H   0  0  0  0  0  0  0  0  0  0  0  0
  1  2  1  0
  2  3  1  0
  3  4  1  0
  4  5  1  0
  5  6  1  0
  6  7  1  0
  7  8  1  0
  8  9  2  0
  9 10  1  0
 10 11  2  0
 11 12  1  0
 12 13  2  0
 13 14  1  0
 11 15  1  0
 15 16  2  0
 15 17  1  0
 17 18  1  0
 18 19  2  0
 18 20  1  0
 17 21  2  0
 21 22  1  0
 22 23  1  0
 23 24  1  0
  7 25  1  0
 25 26  1  0
 26  4  1  0
 13  8  1  0
 22 10  1  0
  1 27  1  0
  1 28  1  0
  1 29  1  0
  2 30  1  0
  2 31  1  0
  3 32  1  0
  3 33  1  0
  4 34  1  0
  5 35  1  0
  5 36  1  0
  6 37  1  0
  6 38  1  0
 12 39  1  0
 21 40  1  0
 23 41  1  0
 23 42  1  0
 24 43  1  0
 24 44  1  0
 24 45  1  0
 25 46  1  0
 25 47  1  0
 26 48  1  0
 26 49  1  0
M  CHG  2   4   1  20  -1
M  END
>  <meeko>  (7) 
{"is_sidechain": [false], "free_energy": -5.985, "intermolecular_energy": -7.801, "internal_energy": -0.627}

$$$$
LIB_KFIUIAQYOYNCIK__M_PUB_ALL__e8__s20260927
     RDKit          3D

 49 51  0  0  0  0  0  0  0  0999 V2000
   -2.0340  -17.5020    1.9850 C   0  0  0  0  0  0  0  0  0  0  0  0
   -0.9830  -16.5640    2.5560 C   0  0  0  0  0  0  0  0  0  0  0  0
    0.4370  -17.1220    2.5210 C   0  0  0  0  0  0  0  0  0  0  0  0
    1.2850  -16.5250    1.4410 N   0  0  0  0  0  0  0  0  0  0  0  0
    2.7470  -16.2620    1.8230 C   0  0  0  0  0  0  0  0  0  0  0  0
    3.6020  -15.8440    0.5930 C   0  0  0  0  0  0  0  0  0  0  0  0
    2.7370  -15.4190   -0.5190 N   0  0  0  0  0  0  0  0  0  0  0  0
    2.1360  -14.1670   -0.3310 C   0  0  0  0  0  0  0  0  0  0  0  0
    0.7910  -14.1720   -0.1400 N   0  0  0  0  0  0  0  0  0  0  0  0
    0.1640  -13.0050    0.1840 C   0  0  0  0  0  0  0  0  0  0  0  0
    0.8970  -11.8270    0.3830 C   0  0  0  0  0  0  0  0  0  0  0  0
    2.2760  -11.8190    0.1730 C   0  0  0  0  0  0  0  0  0  0  0  0
    2.8950  -13.0000   -0.1890 C   0  0  0  0  0  0  0  0  0  0  0  0
    4.2270  -13.0260   -0.3400 F   0  0  0  0  0  0  0  0  0  0  0  0
    0.2170  -10.6000    0.8550 C   0  0  0  0  0  0  0  0  0  0  0  0
    0.8630   -9.5620    0.9350 O   0  0  0  0  0  0  0  0  0  0  0  0
   -1.2070  -10.7270    1.1890 C   0  0  0  0  0  0  0  0  0  0  0  0
   -1.9920   -9.6380    1.8800 C   0  0  0  0  0  0  0  0  0  0  0  0
   -1.8630   -9.6090    3.1360 O   0  0  0  0  0  0  0  0  0  0  0  0
   -2.7740   -8.9860    1.1300 O   0  0  0  0  0  0  0  0  0  0  0  0
   -1.8290  -11.8780    0.9140 C   0  0  0  0  0  0  0  0  0  0  0  0
   -1.2280  -13.0060    0.3890 N   0  0  0  0  0  0  0  0  0  0  0  0
   -2.0000  -14.1660   -0.0520 C   0  0  0  0  0  0  0  0  0  0  0  0
   -3.3710  -14.1960    0.6090 C   0  0  0  0  0  0  0  0  0  0  0  0
    1.8640  -16.4860   -1.0370 C   0  0  0  0  0  0  0  0  0  0  0  0
    1.1720  -17.2690    0.1110 C   0  0  0  0  0  0  0  0  0  0  0  0
   -2.5782  -17.9877    2.8084 H   0  0  0  0  0  0  0  0  0  0  0  0
   -2.7402  -16.9285    1.3667 H   0  0  0  0  0  0  0  0  0  0  0  0
   -1.5442  -18.2686    1.3667 H   0  0  0  0  0  0  0  0  0  0  0  0
   -1.0014  -15.6302    1.9748 H   0  0  0  0  0  0  0  0  0  0  0  0
   -1.2371  -16.4110    3.6153 H   0  0  0  0  0  0  0  0  0  0  0  0
    0.9148  -16.9200    3.4910 H   0  0  0  0  0  0  0  0  0  0  0  0
    0.3572  -18.1991    2.3126 H   0  0  0  0  0  0  0  0  0  0  0  0
    0.8990  -15.5890    1.1990 H   0  0  0  0  0  0  0  0  0  0  0  0
    2.7797  -15.4548    2.5696 H   0  0  0  0  0  0  0  0  0  0  0  0
    3.1663  -17.1947    2.2284 H   0  0  0  0  0  0  0  0  0  0  0  0
    4.2610  -15.0104    0.8773 H   0  0  0  0  0  0  0  0  0  0  0  0
    4.2000  -16.7077    0.2669 H   0  0  0  0  0  0  0  0  0  0  0  0
    2.8577  -10.8931    0.2929 H   0  0  0  0  0  0  0  0  0  0  0  0
   -2.9077  -11.9314    1.1228 H   0  0  0  0  0  0  0  0  0  0  0  0
   -2.1284  -14.1181   -1.1434 H   0  0  0  0  0  0  0  0  0  0  0  0
   -1.4546  -15.0775    0.2337 H   0  0  0  0  0  0  0  0  0  0  0  0
   -3.2510  -14.1934    1.7024 H   0  0  0  0  0  0  0  0  0  0  0  0
   -3.9460  -13.3102    0.3011 H   0  0  0  0  0  0  0  0  0  0  0  0
   -3.9067  -15.1061    0.3011 H   0  0  0  0  0  0  0  0  0  0  0  0
    1.0915  -16.0352   -1.6774 H   0  0  0  0  0  0  0  0  0  0  0  0
    2.4860  -17.1916   -1.6073 H   0  0  0  0  0  0  0  0  0  0  0  0
    0.1082  -17.4006   -0.1361 H   0  0  0  0  0  0  0  0  0  0  0  0
    1.6720  -18.2432    0.2159 H   0  0  0  0  0  0  0  0  0  0  0  0
  1  2  1  0
  2  3  1  0
  3  4  1  0
  4  5  1  0
  5  6  1  0
  6  7  1  0
  7  8  1  0
  8  9  2  0
  9 10  1  0
 10 11  2  0
 11 12  1  0
 12 13  2  0
 13 14  1  0
 11 15  1  0
 15 16  2  0
 15 17  1  0
 17 18  1  0
 18 19  2  0
 18 20  1  0
 17 21  2  0
 21 22  1  0
 22 23  1  0
 23 24  1  0
  7 25  1  0
 25 26  1  0
 26  4  1  0
 13  8  1  0
 22 10  1  0
  1 27  1  0
  1 28  1  0
  1 29  1  0
  2 30  1  0
  2 31  1  0
  3 32  1  0
  3 33  1  0
  4 34  1  0
  5 35  1  0
  5 36  1  0
  6 37  1  0
  6 38  1  0
 12 39  1  0
 21 40  1  0
 23 41  1  0
 23 42  1  0
 24 43  1  0
 24 44  1  0
 24 45  1  0
 25 46  1  0
 25 47  1  0
 26 48  1  0
 26 49  1  0
M  CHG  2   4   1  20  -1
M  END
>  <meeko>  (8) 
{"is_sidechain": [false], "free_energy": -5.923, "intermolecular_energy": -7.471, "internal_energy": -0.876}

$$$$
LIB_KFIUIAQYOYNCIK__M_PUB_ALL__e8__s20260927
     RDKit          3D

 49 51  0  0  0  0  0  0  0  0999 V2000
    5.5700  -12.9470   -7.5700 C   0  0  0  0  0  0  0  0  0  0  0  0
    4.7110  -13.1670   -6.3350 C   0  0  0  0  0  0  0  0  0  0  0  0
    4.7460  -12.0130   -5.3370 C   0  0  0  0  0  0  0  0  0  0  0  0
    4.1760  -12.3670   -3.9980 N   0  0  0  0  0  0  0  0  0  0  0  0
    3.4830  -11.2180   -3.2540 C   0  0  0  0  0  0  0  0  0  0  0  0
    2.7400  -11.7170   -1.9820 C   0  0  0  0  0  0  0  0  0  0  0  0
    3.2150  -13.0550   -1.5940 N   0  0  0  0  0  0  0  0  0  0  0  0
    4.4950  -13.0650   -1.0260 C   0  0  0  0  0  0  0  0  0  0  0  0
    5.4690  -13.6700   -1.7560 N   0  0  0  0  0  0  0  0  0  0  0  0
    6.7610  -13.5970   -1.3260 C   0  0  0  0  0  0  0  0  0  0  0  0
    7.0970  -12.8560   -0.1840 C   0  0  0  0  0  0  0  0  0  0  0  0
    6.0960  -12.2480    0.5730 C   0  0  0  0  0  0  0  0  0  0  0  0
    4.7870  -12.3580    0.1460 C   0  0  0  0  0  0  0  0  0  0  0  0
    3.8170  -11.7330    0.8290 F   0  0  0  0  0  0  0  0  0  0  0  0
    8.5160  -12.6840    0.1990 C   0  0  0  0  0  0  0  0  0  0  0  0
    8.7790  -12.1090    1.2480 O   0  0  0  0  0  0  0  0  0  0  0  0
    9.5160  -13.2340   -0.7260 C   0  0  0  0  0  0  0  0  0  0  0  0
   10.9950  -12.9630   -0.5980 C   0  0  0  0  0  0  0  0  0  0  0  0
   11.5560  -13.5360    0.3780 O   0  0  0  0  0  0  0  0  0  0  0  0
   11.4500  -12.0990   -1.4010 O   0  0  0  0  0  0  0  0  0  0  0  0
    9.0940  -13.9700   -1.7600 C   0  0  0  0  0  0  0  0  0  0  0  0
    7.7730  -14.2160   -2.0810 N   0  0  0  0  0  0  0  0  0  0  0  0
    7.3890  -15.1720   -3.1170 C   0  0  0  0  0  0  0  0  0  0  0  0
    7.6980  -14.6300   -4.5050 C   0  0  0  0  0  0  0  0  0  0  0  0
    2.9430  -14.0970   -2.5980 C   0  0  0  0  0  0  0  0  0  0  0  0
    3.3100  -13.6250   -4.0300 C   0  0  0  0  0  0  0  0  0  0  0  0
    6.5933  -12.6849   -7.2630 H   0  0  0  0  0  0  0  0  0  0  0  0
    5.5920  -13.8685   -8.1703 H   0  0  0  0  0  0  0  0  0  0  0  0
    5.1463  -12.1284   -8.1703 H   0  0  0  0  0  0  0  0  0  0  0  0
    3.6700  -13.3112   -6.6597 H   0  0  0  0  0  0  0  0  0  0  0  0
    5.1206  -14.0466   -5.8168 H   0  0  0  0  0  0  0  0  0  0  0  0
    5.7923  -11.7025   -5.1995 H   0  0  0  0  0  0  0  0  0  0  0  0
    4.1239  -11.2061   -5.7517 H   0  0  0  0  0  0  0  0  0  0  0  0
    4.9570  -12.6570   -3.3740 H   0  0  0  0  0  0  0  0  0  0  0  0
    4.2409  -10.4785   -2.9563 H   0  0  0  0  0  0  0  0  0  0  0  0
    2.7394  -10.7722   -3.9310 H   0  0  0  0  0  0  0  0  0  0  0  0
    2.9256  -11.0143   -1.1563 H   0  0  0  0  0  0  0  0  0  0  0  0
    1.6633  -11.7732   -2.2002 H   0  0  0  0  0  0  0  0  0  0  0  0
    6.3434  -11.6930    1.4900 H   0  0  0  0  0  0  0  0  0  0  0  0
    9.8623  -14.4164   -2.4084 H   0  0  0  0  0  0  0  0  0  0  0  0
    7.9452  -16.1088   -2.9652 H   0  0  0  0  0  0  0  0  0  0  0  0
    6.3058  -15.3491   -3.0445 H   0  0  0  0  0  0  0  0  0  0  0  0
    8.2409  -13.6776   -4.4142 H   0  0  0  0  0  0  0  0  0  0  0  0
    8.3185  -15.3551   -5.0520 H   0  0  0  0  0  0  0  0  0  0  0  0
    6.7580  -14.4655   -5.0520 H   0  0  0  0  0  0  0  0  0  0  0  0
    3.5366  -14.9904   -2.3542 H   0  0  0  0  0  0  0  0  0  0  0  0
    1.8662  -14.3208   -2.5765 H   0  0  0  0  0  0  0  0  0  0  0  0
    3.8631  -14.4272   -4.5404 H   0  0  0  0  0  0  0  0  0  0  0  0
    2.3787  -13.3903   -4.5662 H   0  0  0  0  0  0  0  0  0  0  0  0
  1  2  1  0
  2  3  1  0
  3  4  1  0
  4  5  1  0
  5  6  1  0
  6  7  1  0
  7  8  1  0
  8  9  2  0
  9 10  1  0
 10 11  2  0
 11 12  1  0
 12 13  2  0
 13 14  1  0
 11 15  1  0
 15 16  2  0
 15 17  1  0
 17 18  1  0
 18 19  2  0
 18 20  1  0
 17 21  2  0
 21 22  1  0
 22 23  1  0
 23 24  1  0
  7 25  1  0
 25 26  1  0
 26  4  1  0
 13  8  1  0
 22 10  1  0
  1 27  1  0
  1 28  1  0
  1 29  1  0
  2 30  1  0
  2 31  1  0
  3 32  1  0
  3 33  1  0
  4 34  1  0
  5 35  1  0
  5 36  1  0
  6 37  1  0
  6 38  1  0
 12 39  1  0
 21 40  1  0
 23 41  1  0
 23 42  1  0
 24 43  1  0
 24 44  1  0
 24 45  1  0
 25 46  1  0
 25 47  1  0
 26 48  1  0
 26 49  1  0
M  CHG  2   4   1  20  -1
M  END
>  <meeko>  (9) 
{"is_sidechain": [false], "free_energy": -5.861, "intermolecular_energy": -7.471, "internal_energy": -0.796}

$$$$
