LIB_GPYCQVDLOJBZMI__M_PUB_ALL__e8__s20260927
     RDKit          3D

 57 58  0  0  0  0  0  0  0  0999 V2000
   -6.6610  -14.4850    6.8550 C   0  0  0  0  0  0  0  0  0  0  0  0
   -7.1330  -14.7730    5.4380 C   0  0  0  0  0  0  0  0  0  0  0  0
   -6.0320  -14.6080    4.3870 C   0  0  0  0  0  0  0  0  0  0  0  0
   -4.8030  -15.4800    4.6620 C   0  0  0  0  0  0  0  0  0  0  0  0
   -3.8060  -15.4000    3.5290 C   0  0  0  0  0  0  0  0  0  0  0  0
   -3.8450  -14.2410    2.8210 N   0  0  0  0  0  0  0  0  0  0  0  0
   -3.0320  -14.0980    1.7400 C   0  0  0  0  0  0  0  0  0  0  0  0
   -3.1510  -12.7880    1.0710 C   0  0  0  0  0  0  0  0  0  0  0  0
   -2.3040  -11.7270    1.4370 C   0  0  0  0  0  0  0  0  0  0  0  0
   -2.4080  -10.4770    0.8220 C   0  0  0  0  0  0  0  0  0  0  0  0
   -3.3530  -10.2680   -0.1770 C   0  0  0  0  0  0  0  0  0  0  0  0
   -4.1920  -11.3100   -0.5670 C   0  0  0  0  0  0  0  0  0  0  0  0
   -4.0870  -12.5610    0.0480 C   0  0  0  0  0  0  0  0  0  0  0  0
   -2.1860  -15.1290    1.3210 C   0  0  0  0  0  0  0  0  0  0  0  0
   -1.3990  -14.9500    0.0930 C   0  0  0  0  0  0  0  0  0  0  0  0
   -1.8120  -15.1880   -1.0270 O   0  0  0  0  0  0  0  0  0  0  0  0
   -0.1880  -14.4560    0.4420 O   0  0  0  0  0  0  0  0  0  0  0  0
    0.5340  -13.8650   -0.6430 C   0  0  0  0  0  0  0  0  0  0  0  0
    0.8760  -12.4380   -0.2610 C   0  0  0  0  0  0  0  0  0  0  0  0
   -2.1220  -16.3380    2.0460 C   0  0  0  0  0  0  0  0  0  0  0  0
   -1.2160  -17.4680    1.6020 C   0  0  0  0  0  0  0  0  0  0  0  0
    0.1450  -17.4370    2.2820 C   0  0  0  0  0  0  0  0  0  0  0  0
   -2.9460  -16.4510    3.1860 C   0  0  0  0  0  0  0  0  0  0  0  0
   -2.9740  -17.6940    3.9760 C   0  0  0  0  0  0  0  0  0  0  0  0
   -3.6190  -18.6600    3.5980 O   0  0  0  0  0  0  0  0  0  0  0  0
   -2.0230  -17.6780    5.4510 S   0  0  0  0  0  0  0  0  0  0  0  0
   -1.4520  -19.4020    5.4460 C   0  0  0  0  0  0  0  0  0  0  0  0
    0.0200  -19.4620    5.8180 C   0  0  0  0  0  0  0  0  0  0  0  0
   -7.3720  -14.9188    7.5736 H   0  0  0  0  0  0  0  0  0  0  0  0
   -5.6670  -14.9307    7.0081 H   0  0  0  0  0  0  0  0  0  0  0  0
   -6.6027  -13.3973    7.0081 H   0  0  0  0  0  0  0  0  0  0  0  0
   -7.5025  -15.8083    5.3968 H   0  0  0  0  0  0  0  0  0  0  0  0
   -7.9203  -14.0419    5.2022 H   0  0  0  0  0  0  0  0  0  0  0  0
   -6.4426  -14.8818    3.4039 H   0  0  0  0  0  0  0  0  0  0  0  0
   -5.7033  -13.5587    4.4184 H   0  0  0  0  0  0  0  0  0  0  0  0
   -4.3202  -15.1361    5.5886 H   0  0  0  0  0  0  0  0  0  0  0  0
   -5.1341  -16.5245    4.7590 H   0  0  0  0  0  0  0  0  0  0  0  0
   -1.5475  -11.8837    2.2200 H   0  0  0  0  0  0  0  0  0  0  0  0
   -1.7417   -9.6570    1.1282 H   0  0  0  0  0  0  0  0  0  0  0  0
   -3.4378   -9.2824   -0.6581 H   0  0  0  0  0  0  0  0  0  0  0  0
   -4.9375  -11.1480   -1.3594 H   0  0  0  0  0  0  0  0  0  0  0  0
   -4.7471  -13.3800   -0.2738 H   0  0  0  0  0  0  0  0  0  0  0  0
    1.4577  -14.4326   -0.8289 H   0  0  0  0  0  0  0  0  0  0  0  0
   -0.0762  -13.8782   -1.5582 H   0  0  0  0  0  0  0  0  0  0  0  0
    0.8978  -12.3470    0.8350 H   0  0  0  0  0  0  0  0  0  0  0  0
    1.8626  -12.1752   -0.6704 H   0  0  0  0  0  0  0  0  0  0  0  0
    0.1157  -11.7566   -0.6704 H   0  0  0  0  0  0  0  0  0  0  0  0
   -1.7053  -18.4242    1.8392 H   0  0  0  0  0  0  0  0  0  0  0  0
   -1.0480  -17.3515    0.5212 H   0  0  0  0  0  0  0  0  0  0  0  0
    0.0096  -17.4401    3.3736 H   0  0  0  0  0  0  0  0  0  0  0  0
    0.7250  -18.3222    1.9820 H   0  0  0  0  0  0  0  0  0  0  0  0
    0.6841  -16.5263    1.9820 H   0  0  0  0  0  0  0  0  0  0  0  0
   -2.0363  -19.9815    6.1759 H   0  0  0  0  0  0  0  0  0  0  0  0
   -1.5881  -19.8249    4.4397 H   0  0  0  0  0  0  0  0  0  0  0  0
    0.1215  -19.4661    6.9133 H   0  0  0  0  0  0  0  0  0  0  0  0
    0.4655  -20.3790    5.4050 H   0  0  0  0  0  0  0  0  0  0  0  0
    0.5386  -18.5842    5.4050 H   0  0  0  0  0  0  0  0  0  0  0  0
  1  2  1  0
  2  3  1  0
  3  4  1  0
  4  5  1  0
  5  6  2  0
  6  7  1  0
  7  8  1  0
  8  9  2  0
  9 10  1  0
 10 11  2  0
 11 12  1  0
 12 13  2  0
  7 14  2  0
 14 15  1  0
 15 16  2  0
 15 17  1  0
 17 18  1  0
 18 19  1  0
 14 20  1  0
 20 21  1  0
 21 22  1  0
 20 23  2  0
 23 24  1  0
 24 25  2  0
 24 26  1  0
 26 27  1  0
 27 28  1  0
 23  5  1  0
 13  8  1  0
  1 29  1  0
  1 30  1  0
  1 31  1  0
  2 32  1  0
  2 33  1  0
  3 34  1  0
  3 35  1  0
  4 36  1  0
  4 37  1  0
  9 38  1  0
 10 39  1  0
 11 40  1  0
 12 41  1  0
 13 42  1  0
 18 43  1  0
 18 44  1  0
 19 45  1  0
 19 46  1  0
 19 47  1  0
 21 48  1  0
 21 49  1  0
 22 50  1  0
 22 51  1  0
 22 52  1  0
 27 53  1  0
 27 54  1  0
 28 55  1  0
 28 56  1  0
 28 57  1  0
M  END
>  <meeko>  (1) 
{"is_sidechain": [false], "free_energy": -6.005, "intermolecular_energy": -9.866, "internal_energy": -1.59}

$$$$
LIB_GPYCQVDLOJBZMI__M_PUB_ALL__e8__s20260927
     RDKit          3D

 57 58  0  0  0  0  0  0  0  0999 V2000
   -1.6450   -9.2130    3.4920 C   0  0  0  0  0  0  0  0  0  0  0  0
   -2.0520   -9.0810    2.0330 C   0  0  0  0  0  0  0  0  0  0  0  0
   -1.7280  -10.3230    1.1990 C   0  0  0  0  0  0  0  0  0  0  0  0
   -0.9000  -11.3610    1.9620 C   0  0  0  0  0  0  0  0  0  0  0  0
   -0.3600  -12.4250    1.0350 C   0  0  0  0  0  0  0  0  0  0  0  0
    0.6910  -12.0300    0.2700 N   0  0  0  0  0  0  0  0  0  0  0  0
    1.2060  -12.8950   -0.6450 C   0  0  0  0  0  0  0  0  0  0  0  0
    2.3570  -12.3570   -1.3940 C   0  0  0  0  0  0  0  0  0  0  0  0
    2.1520  -11.4830   -2.4760 C   0  0  0  0  0  0  0  0  0  0  0  0
    3.2290  -10.9700   -3.2040 C   0  0  0  0  0  0  0  0  0  0  0  0
    4.5310  -11.3150   -2.8560 C   0  0  0  0  0  0  0  0  0  0  0  0
    4.7590  -12.1670   -1.7780 C   0  0  0  0  0  0  0  0  0  0  0  0
    3.6820  -12.6780   -1.0500 C   0  0  0  0  0  0  0  0  0  0  0  0
    0.6560  -14.1650   -0.8400 C   0  0  0  0  0  0  0  0  0  0  0  0
    1.1970  -15.0200   -1.9050 C   0  0  0  0  0  0  0  0  0  0  0  0
    2.1050  -15.8160   -1.7500 O   0  0  0  0  0  0  0  0  0  0  0  0
    0.4900  -14.7780   -3.0330 O   0  0  0  0  0  0  0  0  0  0  0  0
    1.2980  -14.4360   -4.1640 C   0  0  0  0  0  0  0  0  0  0  0  0
    0.3800  -14.2020   -5.3470 C   0  0  0  0  0  0  0  0  0  0  0  0
   -0.4300  -14.6010   -0.0500 C   0  0  0  0  0  0  0  0  0  0  0  0
   -1.0430  -15.9710   -0.2540 C   0  0  0  0  0  0  0  0  0  0  0  0
   -0.3940  -17.0430    0.6090 C   0  0  0  0  0  0  0  0  0  0  0  0
   -0.9250  -13.7020    0.9180 C   0  0  0  0  0  0  0  0  0  0  0  0
   -2.0840  -14.0580    1.7550 C   0  0  0  0  0  0  0  0  0  0  0  0
   -1.9280  -14.5800    2.8480 O   0  0  0  0  0  0  0  0  0  0  0  0
   -3.6570  -13.6700    1.0790 S   0  0  0  0  0  0  0  0  0  0  0  0
   -4.3000  -12.6280    2.4190 C   0  0  0  0  0  0  0  0  0  0  0  0
   -5.4630  -13.3230    3.1050 C   0  0  0  0  0  0  0  0  0  0  0  0
   -2.4935   -8.9378    4.1357 H   0  0  0  0  0  0  0  0  0  0  0  0
   -1.3506  -10.2527    3.6979 H   0  0  0  0  0  0  0  0  0  0  0  0
   -0.7964   -8.5440    3.6979 H   0  0  0  0  0  0  0  0  0  0  0  0
   -3.1366   -8.9034    1.9878 H   0  0  0  0  0  0  0  0  0  0  0  0
   -1.4769   -8.2447    1.6088 H   0  0  0  0  0  0  0  0  0  0  0  0
   -2.6732  -10.7907    0.8862 H   0  0  0  0  0  0  0  0  0  0  0  0
   -1.1270   -9.9924    0.3391 H   0  0  0  0  0  0  0  0  0  0  0  0
   -0.0571  -10.8544    2.4549 H   0  0  0  0  0  0  0  0  0  0  0  0
   -1.5515  -11.8462    2.7037 H   0  0  0  0  0  0  0  0  0  0  0  0
    1.1266  -11.1982   -2.7542 H   0  0  0  0  0  0  0  0  0  0  0  0
    3.0472  -10.2935   -4.0521 H   0  0  0  0  0  0  0  0  0  0  0  0
    5.3792  -10.9155   -3.4313 H   0  0  0  0  0  0  0  0  0  0  0  0
    5.7882  -12.4377   -1.4997 H   0  0  0  0  0  0  0  0  0  0  0  0
    3.8734  -13.3420   -0.1941 H   0  0  0  0  0  0  0  0  0  0  0  0
    1.8704  -13.5214   -3.9500 H   0  0  0  0  0  0  0  0  0  0  0  0
    2.0051  -15.2488   -4.3861 H   0  0  0  0  0  0  0  0  0  0  0  0
   -0.6265  -13.9454   -4.9849 H   0  0  0  0  0  0  0  0  0  0  0  0
    0.7720  -13.3750   -5.9573 H   0  0  0  0  0  0  0  0  0  0  0  0
    0.3283  -15.1157   -5.9573 H   0  0  0  0  0  0  0  0  0  0  0  0
   -2.1127  -15.9181   -0.0031 H   0  0  0  0  0  0  0  0  0  0  0  0
   -0.8833  -16.2515   -1.3056 H   0  0  0  0  0  0  0  0  0  0  0  0
   -0.5422  -16.7981    1.6711 H   0  0  0  0  0  0  0  0  0  0  0  0
   -0.8536  -18.0181    0.3899 H   0  0  0  0  0  0  0  0  0  0  0  0
    0.6830  -17.0878    0.3899 H   0  0  0  0  0  0  0  0  0  0  0  0
   -3.5014  -12.4442    3.1528 H   0  0  0  0  0  0  0  0  0  0  0  0
   -4.6474  -11.6727    1.9986 H   0  0  0  0  0  0  0  0  0  0  0  0
   -5.3417  -13.2505    4.1959 H   0  0  0  0  0  0  0  0  0  0  0  0
   -6.4056  -12.8400    2.8080 H   0  0  0  0  0  0  0  0  0  0  0  0
   -5.4842  -14.3819    2.8080 H   0  0  0  0  0  0  0  0  0  0  0  0
  1  2  1  0
  2  3  1  0
  3  4  1  0
  4  5  1  0
  5  6  2  0
  6  7  1  0
  7  8  1  0
  8  9  2  0
  9 10  1  0
 10 11  2  0
 11 12  1  0
 12 13  2  0
  7 14  2  0
 14 15  1  0
 15 16  2  0
 15 17  1  0
 17 18  1  0
 18 19  1  0
 14 20  1  0
 20 21  1  0
 21 22  1  0
 20 23  2  0
 23 24  1  0
 24 25  2  0
 24 26  1  0
 26 27  1  0
 27 28  1  0
 23  5  1  0
 13  8  1  0
  1 29  1  0
  1 30  1  0
  1 31  1  0
  2 32  1  0
  2 33  1  0
  3 34  1  0
  3 35  1  0
  4 36  1  0
  4 37  1  0
  9 38  1  0
 10 39  1  0
 11 40  1  0
 12 41  1  0
 13 42  1  0
 18 43  1  0
 18 44  1  0
 19 45  1  0
 19 46  1  0
 19 47  1  0
 21 48  1  0
 21 49  1  0
 22 50  1  0
 22 51  1  0
 22 52  1  0
 27 53  1  0
 27 54  1  0
 28 55  1  0
 28 56  1  0
 28 57  1  0
M  END
>  <meeko>  (2) 
{"is_sidechain": [false], "free_energy": -5.985, "intermolecular_energy": -9.919, "internal_energy": -1.504}

$$$$
LIB_GPYCQVDLOJBZMI__M_PUB_ALL__e8__s20260927
     RDKit          3D

 57 58  0  0  0  0  0  0  0  0999 V2000
    3.7200  -14.3960    1.7730 C   0  0  0  0  0  0  0  0  0  0  0  0
    4.4760  -13.8350    0.5790 C   0  0  0  0  0  0  0  0  0  0  0  0
    4.0430  -12.4180    0.1970 C   0  0  0  0  0  0  0  0  0  0  0  0
    3.1590  -12.3750   -1.0520 C   0  0  0  0  0  0  0  0  0  0  0  0
    1.7410  -12.7950   -0.7400 C   0  0  0  0  0  0  0  0  0  0  0  0
    1.0860  -11.9800    0.1280 N   0  0  0  0  0  0  0  0  0  0  0  0
   -0.1730  -12.3090    0.5240 C   0  0  0  0  0  0  0  0  0  0  0  0
   -0.7830  -11.3340    1.4470 C   0  0  0  0  0  0  0  0  0  0  0  0
   -1.2810  -10.1120    0.9590 C   0  0  0  0  0  0  0  0  0  0  0  0
   -1.8540   -9.1720    1.8180 C   0  0  0  0  0  0  0  0  0  0  0  0
   -1.9490   -9.4400    3.1800 C   0  0  0  0  0  0  0  0  0  0  0  0
   -1.4770  -10.6490    3.6840 C   0  0  0  0  0  0  0  0  0  0  0  0
   -0.9050  -11.5910    2.8230 C   0  0  0  0  0  0  0  0  0  0  0  0
   -0.7910  -13.4840    0.0870 C   0  0  0  0  0  0  0  0  0  0  0  0
   -2.1150  -13.8320    0.6210 C   0  0  0  0  0  0  0  0  0  0  0  0
   -2.2980  -14.4240    1.6690 O   0  0  0  0  0  0  0  0  0  0  0  0
   -3.0490  -13.3510   -0.2320 O   0  0  0  0  0  0  0  0  0  0  0  0
   -4.0530  -12.5480    0.3960 C   0  0  0  0  0  0  0  0  0  0  0  0
   -4.3650  -11.3800   -0.5200 C   0  0  0  0  0  0  0  0  0  0  0  0
   -0.1350  -14.3410   -0.8210 C   0  0  0  0  0  0  0  0  0  0  0  0
   -0.7890  -15.6210   -1.2980 C   0  0  0  0  0  0  0  0  0  0  0  0
   -0.5000  -16.8080   -0.3890 C   0  0  0  0  0  0  0  0  0  0  0  0
    1.1550  -13.9620   -1.2480 C   0  0  0  0  0  0  0  0  0  0  0  0
    1.9300  -14.8200   -2.1610 C   0  0  0  0  0  0  0  0  0  0  0  0
    2.6060  -15.7410   -1.7300 O   0  0  0  0  0  0  0  0  0  0  0  0
    1.7950  -14.4290   -3.8670 S   0  0  0  0  0  0  0  0  0  0  0  0
    3.5590  -14.2920   -4.2740 C   0  0  0  0  0  0  0  0  0  0  0  0
    3.7650  -13.2390   -5.3480 C   0  0  0  0  0  0  0  0  0  0  0  0
    4.1917  -14.0460    2.7030 H   0  0  0  0  0  0  0  0  0  0  0  0
    2.6755  -14.0527    1.7399 H   0  0  0  0  0  0  0  0  0  0  0  0
    3.7459  -15.4952    1.7399 H   0  0  0  0  0  0  0  0  0  0  0  0
    5.5487  -13.8183    0.8220 H   0  0  0  0  0  0  0  0  0  0  0  0
    4.2545  -14.4851   -0.2803 H   0  0  0  0  0  0  0  0  0  0  0  0
    3.4816  -11.9851    1.0380 H   0  0  0  0  0  0  0  0  0  0  0  0
    4.9554  -11.8462   -0.0278 H   0  0  0  0  0  0  0  0  0  0  0  0
    3.1492  -11.3488   -1.4481 H   0  0  0  0  0  0  0  0  0  0  0  0
    3.5722  -13.0758   -1.7923 H   0  0  0  0  0  0  0  0  0  0  0  0
   -1.2179   -9.8934   -0.1172 H   0  0  0  0  0  0  0  0  0  0  0  0
   -2.2305   -8.2191    1.4177 H   0  0  0  0  0  0  0  0  0  0  0  0
   -2.3963   -8.6978    3.8576 H   0  0  0  0  0  0  0  0  0  0  0  0
   -1.5540  -10.8634    4.7601 H   0  0  0  0  0  0  0  0  0  0  0  0
   -0.5451  -12.5478    3.2292 H   0  0  0  0  0  0  0  0  0  0  0  0
   -4.9612  -13.1469    0.5588 H   0  0  0  0  0  0  0  0  0  0  0  0
   -3.6943  -12.1828    1.3697 H   0  0  0  0  0  0  0  0  0  0  0  0
   -4.6021  -10.4926    0.0852 H   0  0  0  0  0  0  0  0  0  0  0  0
   -3.4919  -11.1684   -1.1547 H   0  0  0  0  0  0  0  0  0  0  0  0
   -5.2273  -11.6320   -1.1547 H   0  0  0  0  0  0  0  0  0  0  0  0
   -1.8773  -15.4657   -1.3373 H   0  0  0  0  0  0  0  0  0  0  0  0
   -0.3731  -15.8550   -2.2891 H   0  0  0  0  0  0  0  0  0  0  0  0
   -0.5769  -16.4923    0.6619 H   0  0  0  0  0  0  0  0  0  0  0  0
   -1.2298  -17.6070   -0.5861 H   0  0  0  0  0  0  0  0  0  0  0  0
    0.5155  -17.1821   -0.5861 H   0  0  0  0  0  0  0  0  0  0  0  0
    4.1197  -14.0063   -3.3718 H   0  0  0  0  0  0  0  0  0  0  0  0
    3.9195  -15.2622   -4.6464 H   0  0  0  0  0  0  0  0  0  0  0  0
    3.9556  -12.2646   -4.8744 H   0  0  0  0  0  0  0  0  0  0  0  0
    4.6258  -13.5171   -5.9739 H   0  0  0  0  0  0  0  0  0  0  0  0
    2.8629  -13.1723   -5.9739 H   0  0  0  0  0  0  0  0  0  0  0  0
  1  2  1  0
  2  3  1  0
  3  4  1  0
  4  5  1  0
  5  6  2  0
  6  7  1  0
  7  8  1  0
  8  9  2  0
  9 10  1  0
 10 11  2  0
 11 12  1  0
 12 13  2  0
  7 14  2  0
 14 15  1  0
 15 16  2  0
 15 17  1  0
 17 18  1  0
 18 19  1  0
 14 20  1  0
 20 21  1  0
 21 22  1  0
 20 23  2  0
 23 24  1  0
 24 25  2  0
 24 26  1  0
 26 27  1  0
 27 28  1  0
 23  5  1  0
 13  8  1  0
  1 29  1  0
  1 30  1  0
  1 31  1  0
  2 32  1  0
  2 33  1  0
  3 34  1  0
  3 35  1  0
  4 36  1  0
  4 37  1  0
  9 38  1  0
 10 39  1  0
 11 40  1  0
 12 41  1  0
 13 42  1  0
 18 43  1  0
 18 44  1  0
 19 45  1  0
 19 46  1  0
 19 47  1  0
 21 48  1  0
 21 49  1  0
 22 50  1  0
 22 51  1  0
 22 52  1  0
 27 53  1  0
 27 54  1  0
 28 55  1  0
 28 56  1  0
 28 57  1  0
M  END
>  <meeko>  (3) 
{"is_sidechain": [false], "free_energy": -5.873, "intermolecular_energy": -9.398, "internal_energy": -1.841}

$$$$
LIB_GPYCQVDLOJBZMI__M_PUB_ALL__e8__s20260927
     RDKit          3D

 57 58  0  0  0  0  0  0  0  0999 V2000
    3.4470  -11.6180   -4.9870 C   0  0  0  0  0  0  0  0  0  0  0  0
    3.2790  -10.3530   -4.1590 C   0  0  0  0  0  0  0  0  0  0  0  0
    2.4050  -10.5520   -2.9190 C   0  0  0  0  0  0  0  0  0  0  0  0
    2.8640  -11.7190   -2.0400 C   0  0  0  0  0  0  0  0  0  0  0  0
    1.6880  -12.4540   -1.4410 C   0  0  0  0  0  0  0  0  0  0  0  0
    0.9720  -11.7370   -0.5360 N   0  0  0  0  0  0  0  0  0  0  0  0
   -0.0670  -12.3320    0.1090 C   0  0  0  0  0  0  0  0  0  0  0  0
   -0.7780  -11.4430    1.0470 C   0  0  0  0  0  0  0  0  0  0  0  0
   -0.7080  -11.6730    2.4330 C   0  0  0  0  0  0  0  0  0  0  0  0
   -1.3810  -10.8470    3.3360 C   0  0  0  0  0  0  0  0  0  0  0  0
   -2.1300   -9.7700    2.8700 C   0  0  0  0  0  0  0  0  0  0  0  0
   -2.2000   -9.5140    1.5030 C   0  0  0  0  0  0  0  0  0  0  0  0
   -1.5250  -10.3400    0.6000 C   0  0  0  0  0  0  0  0  0  0  0  0
   -0.3890  -13.6750   -0.1110 C   0  0  0  0  0  0  0  0  0  0  0  0
   -1.4630  -14.2880    0.6830 C   0  0  0  0  0  0  0  0  0  0  0  0
   -1.2920  -14.8500    1.7490 O   0  0  0  0  0  0  0  0  0  0  0  0
   -2.6320  -14.0800    0.0330 O   0  0  0  0  0  0  0  0  0  0  0  0
   -3.7720  -14.0090    0.8950 C   0  0  0  0  0  0  0  0  0  0  0  0
   -4.3600  -12.6150    0.7850 C   0  0  0  0  0  0  0  0  0  0  0  0
    0.3340  -14.4370   -1.0520 C   0  0  0  0  0  0  0  0  0  0  0  0
    0.0020  -15.8950   -1.2970 C   0  0  0  0  0  0  0  0  0  0  0  0
    0.7380  -16.8360   -0.3550 C   0  0  0  0  0  0  0  0  0  0  0  0
    1.3830  -13.7890   -1.7380 C   0  0  0  0  0  0  0  0  0  0  0  0
    2.2180  -14.5220   -2.7050 C   0  0  0  0  0  0  0  0  0  0  0  0
    1.9120  -14.5660   -3.8870 O   0  0  0  0  0  0  0  0  0  0  0  0
    3.6500  -15.2900   -2.0440 S   0  0  0  0  0  0  0  0  0  0  0  0
    4.7870  -15.0320   -3.4360 C   0  0  0  0  0  0  0  0  0  0  0  0
    5.7200  -13.8720   -3.1360 C   0  0  0  0  0  0  0  0  0  0  0  0
    3.5618  -12.4825   -4.3166 H   0  0  0  0  0  0  0  0  0  0  0  0
    2.5600  -11.7614   -5.6216 H   0  0  0  0  0  0  0  0  0  0  0  0
    4.3407  -11.5249   -5.6216 H   0  0  0  0  0  0  0  0  0  0  0  0
    4.2737  -10.0139   -3.8341 H   0  0  0  0  0  0  0  0  0  0  0  0
    2.7755   -9.6113   -4.7964 H   0  0  0  0  0  0  0  0  0  0  0  0
    2.4333   -9.6302   -2.3194 H   0  0  0  0  0  0  0  0  0  0  0  0
    1.3886  -10.7855   -3.2688 H   0  0  0  0  0  0  0  0  0  0  0  0
    3.4496  -12.4200   -2.6530 H   0  0  0  0  0  0  0  0  0  0  0  0
    3.4741  -11.3147   -1.2188 H   0  0  0  0  0  0  0  0  0  0  0  0
   -0.1134  -12.5173    2.8119 H   0  0  0  0  0  0  0  0  0  0  0  0
   -1.3192  -11.0475    4.4158 H   0  0  0  0  0  0  0  0  0  0  0  0
   -2.6654   -9.1226    3.5801 H   0  0  0  0  0  0  0  0  0  0  0  0
   -2.7873   -8.6605    1.1334 H   0  0  0  0  0  0  0  0  0  0  0  0
   -1.5793  -10.1233   -0.4771 H   0  0  0  0  0  0  0  0  0  0  0  0
   -4.5197  -14.7545    0.5865 H   0  0  0  0  0  0  0  0  0  0  0  0
   -3.4776  -14.2175    1.9342 H   0  0  0  0  0  0  0  0  0  0  0  0
   -4.5314  -12.2088    1.7928 H   0  0  0  0  0  0  0  0  0  0  0  0
   -3.6600  -11.9636    0.2412 H   0  0  0  0  0  0  0  0  0  0  0  0
   -5.3151  -12.6618    0.2412 H   0  0  0  0  0  0  0  0  0  0  0  0
   -1.0802  -16.0365   -1.1597 H   0  0  0  0  0  0  0  0  0  0  0  0
    0.3198  -16.1383   -2.3216 H   0  0  0  0  0  0  0  0  0  0  0  0
    0.5198  -16.5570    0.6864 H   0  0  0  0  0  0  0  0  0  0  0  0
    0.4057  -17.8690   -0.5352 H   0  0  0  0  0  0  0  0  0  0  0  0
    1.8206  -16.7624   -0.5352 H   0  0  0  0  0  0  0  0  0  0  0  0
    5.3800  -15.9445   -3.5960 H   0  0  0  0  0  0  0  0  0  0  0  0
    4.2045  -14.8024   -4.3404 H   0  0  0  0  0  0  0  0  0  0  0  0
    5.8169  -13.7516   -2.0469 H   0  0  0  0  0  0  0  0  0  0  0  0
    6.7093  -14.0750   -3.5719 H   0  0  0  0  0  0  0  0  0  0  0  0
    5.3096  -12.9492   -3.5719 H   0  0  0  0  0  0  0  0  0  0  0  0
  1  2  1  0
  2  3  1  0
  3  4  1  0
  4  5  1  0
  5  6  2  0
  6  7  1  0
  7  8  1  0
  8  9  2  0
  9 10  1  0
 10 11  2  0
 11 12  1  0
 12 13  2  0
  7 14  2  0
 14 15  1  0
 15 16  2  0
 15 17  1  0
 17 18  1  0
 18 19  1  0
 14 20  1  0
 20 21  1  0
 21 22  1  0
 20 23  2  0
 23 24  1  0
 24 25  2  0
 24 26  1  0
 26 27  1  0
 27 28  1  0
 23  5  1  0
 13  8  1  0
  1 29  1  0
  1 30  1  0
  1 31  1  0
  2 32  1  0
  2 33  1  0
  3 34  1  0
  3 35  1  0
  4 36  1  0
  4 37  1  0
  9 38  1  0
 10 39  1  0
 11 40  1  0
 12 41  1  0
 13 42  1  0
 18 43  1  0
 18 44  1  0
 19 45  1  0
 19 46  1  0
 19 47  1  0
 21 48  1  0
 21 49  1  0
 22 50  1  0
 22 51  1  0
 22 52  1  0
 27 53  1  0
 27 54  1  0
 28 55  1  0
 28 56  1  0
 28 57  1  0
M  END
>  <meeko>  (4) 
{"is_sidechain": [false], "free_energy": -5.836, "intermolecular_energy": -9.433, "internal_energy": -1.746}

$$$$
LIB_GPYCQVDLOJBZMI__M_PUB_ALL__e8__s20260927
     RDKit          3D

 57 58  0  0  0  0  0  0  0  0999 V2000
    5.4460  -15.3470    0.9530 C   0  0  0  0  0  0  0  0  0  0  0  0
    4.2750  -14.5560    0.3900 C   0  0  0  0  0  0  0  0  0  0  0  0
    3.3140  -14.0480    1.4670 C   0  0  0  0  0  0  0  0  0  0  0  0
    2.4510  -15.1570    2.0750 C   0  0  0  0  0  0  0  0  0  0  0  0
    0.9780  -14.8820    1.8760 C   0  0  0  0  0  0  0  0  0  0  0  0
    0.6090  -13.5910    2.0890 N   0  0  0  0  0  0  0  0  0  0  0  0
   -0.7060  -13.2550    2.0010 C   0  0  0  0  0  0  0  0  0  0  0  0
   -0.9730  -11.8230    2.2300 C   0  0  0  0  0  0  0  0  0  0  0  0
   -1.3280  -11.3640    3.5110 C   0  0  0  0  0  0  0  0  0  0  0  0
   -1.5950  -10.0140    3.7460 C   0  0  0  0  0  0  0  0  0  0  0  0
   -1.5010   -9.0940    2.7060 C   0  0  0  0  0  0  0  0  0  0  0  0
   -1.1360   -9.5230    1.4320 C   0  0  0  0  0  0  0  0  0  0  0  0
   -0.8690  -10.8750    1.1980 C   0  0  0  0  0  0  0  0  0  0  0  0
   -1.6880  -14.2130    1.7320 C   0  0  0  0  0  0  0  0  0  0  0  0
   -3.1000  -13.8070    1.7400 C   0  0  0  0  0  0  0  0  0  0  0  0
   -3.8240  -13.8610    2.7170 O   0  0  0  0  0  0  0  0  0  0  0  0
   -3.4080  -13.3480    0.5040 O   0  0  0  0  0  0  0  0  0  0  0  0
   -4.4960  -12.4190    0.4830 C   0  0  0  0  0  0  0  0  0  0  0  0
   -4.1980  -11.3670   -0.5680 C   0  0  0  0  0  0  0  0  0  0  0  0
   -1.3280  -15.5570    1.4980 C   0  0  0  0  0  0  0  0  0  0  0  0
   -2.3800  -16.6090    1.2130 C   0  0  0  0  0  0  0  0  0  0  0  0
   -2.8890  -17.2950    2.4730 C   0  0  0  0  0  0  0  0  0  0  0  0
    0.0450  -15.8770    1.5580 C   0  0  0  0  0  0  0  0  0  0  0  0
    0.5050  -17.2640    1.3690 C   0  0  0  0  0  0  0  0  0  0  0  0
    0.5390  -18.0440    2.3080 O   0  0  0  0  0  0  0  0  0  0  0  0
    0.9740  -17.6920   -0.2670 S   0  0  0  0  0  0  0  0  0  0  0  0
    2.6510  -18.3060    0.0630 C   0  0  0  0  0  0  0  0  0  0  0  0
    3.5720  -17.9490   -1.0910 C   0  0  0  0  0  0  0  0  0  0  0  0
    5.4102  -15.3228    2.0522 H   0  0  0  0  0  0  0  0  0  0  0  0
    5.3846  -16.3894    0.6070 H   0  0  0  0  0  0  0  0  0  0  0  0
    6.3900  -14.9008    0.6070 H   0  0  0  0  0  0  0  0  0  0  0  0
    4.6712  -13.6902   -0.1609 H   0  0  0  0  0  0  0  0  0  0  0  0
    3.7053  -15.2359   -0.2605 H   0  0  0  0  0  0  0  0  0  0  0  0
    3.9036  -13.5830    2.2709 H   0  0  0  0  0  0  0  0  0  0  0  0
    2.6335  -13.3298    0.9863 H   0  0  0  0  0  0  0  0  0  0  0  0
    2.7049  -16.1127    1.5931 H   0  0  0  0  0  0  0  0  0  0  0  0
    2.6522  -15.1988    3.1556 H   0  0  0  0  0  0  0  0  0  0  0  0
   -1.3965  -12.0811    4.3423 H   0  0  0  0  0  0  0  0  0  0  0  0
   -1.8798   -9.6773    4.7537 H   0  0  0  0  0  0  0  0  0  0  0  0
   -1.7144   -8.0306    2.8896 H   0  0  0  0  0  0  0  0  0  0  0  0
   -1.0578   -8.7971    0.6092 H   0  0  0  0  0  0  0  0  0  0  0  0
   -0.5729  -11.2019    0.1903 H   0  0  0  0  0  0  0  0  0  0  0  0
   -5.4293  -12.9437    0.2310 H   0  0  0  0  0  0  0  0  0  0  0  0
   -4.6139  -11.9483    1.4702 H   0  0  0  0  0  0  0  0  0  0  0  0
   -3.9301  -10.4212   -0.0744 H   0  0  0  0  0  0  0  0  0  0  0  0
   -3.3597  -11.7032   -1.1959 H   0  0  0  0  0  0  0  0  0  0  0  0
   -5.0880  -11.2136   -1.1959 H   0  0  0  0  0  0  0  0  0  0  0  0
   -3.2302  -16.1273    0.7079 H   0  0  0  0  0  0  0  0  0  0  0  0
   -1.9129  -17.3804    0.5831 H   0  0  0  0  0  0  0  0  0  0  0  0
   -2.5001  -16.7709    3.3585 H   0  0  0  0  0  0  0  0  0  0  0  0
   -3.9886  -17.2697    2.4855 H   0  0  0  0  0  0  0  0  0  0  0  0
   -2.5461  -18.3401    2.4855 H   0  0  0  0  0  0  0  0  0  0  0  0
    3.0313  -17.8475    0.9877 H   0  0  0  0  0  0  0  0  0  0  0  0
    2.6194  -19.3999    0.1743 H   0  0  0  0  0  0  0  0  0  0  0  0
    4.5289  -17.5781   -0.6952 H   0  0  0  0  0  0  0  0  0  0  0  0
    3.7516  -18.8426   -1.7068 H   0  0  0  0  0  0  0  0  0  0  0  0
    3.1024  -17.1678   -1.7068 H   0  0  0  0  0  0  0  0  0  0  0  0
  1  2  1  0
  2  3  1  0
  3  4  1  0
  4  5  1  0
  5  6  2  0
  6  7  1  0
  7  8  1  0
  8  9  2  0
  9 10  1  0
 10 11  2  0
 11 12  1  0
 12 13  2  0
  7 14  2  0
 14 15  1  0
 15 16  2  0
 15 17  1  0
 17 18  1  0
 18 19  1  0
 14 20  1  0
 20 21  1  0
 21 22  1  0
 20 23  2  0
 23 24  1  0
 24 25  2  0
 24 26  1  0
 26 27  1  0
 27 28  1  0
 23  5  1  0
 13  8  1  0
  1 29  1  0
  1 30  1  0
  1 31  1  0
  2 32  1  0
  2 33  1  0
  3 34  1  0
  3 35  1  0
  4 36  1  0
  4 37  1  0
  9 38  1  0
 10 39  1  0
 11 40  1  0
 12 41  1  0
 13 42  1  0
 18 43  1  0
 18 44  1  0
 19 45  1  0
 19 46  1  0
 19 47  1  0
 21 48  1  0
 21 49  1  0
 22 50  1  0
 22 51  1  0
 22 52  1  0
 27 53  1  0
 27 54  1  0
 28 55  1  0
 28 56  1  0
 28 57  1  0
M  END
>  <meeko>  (5) 
{"is_sidechain": [false], "free_energy": -5.774, "intermolecular_energy": -9.281, "internal_energy": -1.796}

$$$$
LIB_GPYCQVDLOJBZMI__M_PUB_ALL__e8__s20260927
     RDKit          3D

 57 58  0  0  0  0  0  0  0  0999 V2000
   12.4590  -14.4570   11.2680 C   0  0  0  0  0  0  0  0  0  0  0  0
   13.4360  -13.8900   12.2870 C   0  0  0  0  0  0  0  0  0  0  0  0
   14.2150  -12.6780   11.7700 C   0  0  0  0  0  0  0  0  0  0  0  0
   13.3750  -11.4000   11.7180 C   0  0  0  0  0  0  0  0  0  0  0  0
   13.9630  -10.3170   12.5930 C   0  0  0  0  0  0  0  0  0  0  0  0
   15.0050   -9.6430   12.0370 N   0  0  0  0  0  0  0  0  0  0  0  0
   15.6460   -8.6940   12.7700 C   0  0  0  0  0  0  0  0  0  0  0  0
   16.7410   -8.0190   12.0480 C   0  0  0  0  0  0  0  0  0  0  0  0
   16.4780   -6.8800   11.2660 C   0  0  0  0  0  0  0  0  0  0  0  0
   17.4990   -6.2330   10.5670 C   0  0  0  0  0  0  0  0  0  0  0  0
   18.8050   -6.7070   10.6460 C   0  0  0  0  0  0  0  0  0  0  0  0
   19.0920   -7.8240   11.4270 C   0  0  0  0  0  0  0  0  0  0  0  0
   18.0700   -8.4700   12.1270 C   0  0  0  0  0  0  0  0  0  0  0  0
   15.2810   -8.4230   14.0930 C   0  0  0  0  0  0  0  0  0  0  0  0
   16.0700   -7.4520   14.8630 C   0  0  0  0  0  0  0  0  0  0  0  0
   17.0410   -7.7400   15.5400 O   0  0  0  0  0  0  0  0  0  0  0  0
   15.5430   -6.2240   14.6510 O   0  0  0  0  0  0  0  0  0  0  0  0
   16.5170   -5.1800   14.5610 C   0  0  0  0  0  0  0  0  0  0  0  0
   16.0040   -4.1380   13.5860 C   0  0  0  0  0  0  0  0  0  0  0  0
   14.1980   -9.1030   14.6870 C   0  0  0  0  0  0  0  0  0  0  0  0
   13.7950   -8.8270   16.1210 C   0  0  0  0  0  0  0  0  0  0  0  0
   12.7720   -7.7060   16.2430 C   0  0  0  0  0  0  0  0  0  0  0  0
   13.5230  -10.0570   13.8970 C   0  0  0  0  0  0  0  0  0  0  0  0
   12.4080  -10.8440   14.4520 C   0  0  0  0  0  0  0  0  0  0  0  0
   12.6200  -11.8760   15.0710 O   0  0  0  0  0  0  0  0  0  0  0  0
   10.8040  -10.1910   14.1720 S   0  0  0  0  0  0  0  0  0  0  0  0
    9.8500  -11.7360   14.2120 C   0  0  0  0  0  0  0  0  0  0  0  0
    9.8830  -12.4020   12.8480 C   0  0  0  0  0  0  0  0  0  0  0  0
   11.6227  -14.9423   11.7925 H   0  0  0  0  0  0  0  0  0  0  0  0
   12.0731  -13.6425   10.6374 H   0  0  0  0  0  0  0  0  0  0  0  0
   12.9747  -15.1961   10.6374 H   0  0  0  0  0  0  0  0  0  0  0  0
   12.8712  -13.5866   13.1809 H   0  0  0  0  0  0  0  0  0  0  0  0
   14.1701  -14.6788   12.5083 H   0  0  0  0  0  0  0  0  0  0  0  0
   15.0742  -12.5050   12.4347 H   0  0  0  0  0  0  0  0  0  0  0  0
   14.5288  -12.9055   10.7405 H   0  0  0  0  0  0  0  0  0  0  0  0
   13.3363  -11.0393   10.6795 H   0  0  0  0  0  0  0  0  0  0  0  0
   12.3659  -11.6340   12.0881 H   0  0  0  0  0  0  0  0  0  0  0  0
   15.4505   -6.4923   11.2040 H   0  0  0  0  0  0  0  0  0  0  0  0
   17.2710   -5.3486    9.9539 H   0  0  0  0  0  0  0  0  0  0  0  0
   19.6094   -6.2004   10.0926 H   0  0  0  0  0  0  0  0  0  0  0  0
   20.1244   -8.1979   11.4927 H   0  0  0  0  0  0  0  0  0  0  0  0
   18.3090   -9.3449   12.7495 H   0  0  0  0  0  0  0  0  0  0  0  0
   16.6660   -4.7231   15.5505 H   0  0  0  0  0  0  0  0  0  0  0  0
   17.4786   -5.5856   14.2134 H   0  0  0  0  0  0  0  0  0  0  0  0
   15.5854   -3.2878   14.1446 H   0  0  0  0  0  0  0  0  0  0  0  0
   16.8330   -3.7885   12.9531 H   0  0  0  0  0  0  0  0  0  0  0  0
   15.2214   -4.5819   12.9531 H   0  0  0  0  0  0  0  0  0  0  0  0
   13.3630   -9.7445   16.5471 H   0  0  0  0  0  0  0  0  0  0  0  0
   14.6983   -8.5103   16.6629 H   0  0  0  0  0  0  0  0  0  0  0  0
   12.5817   -7.4974   17.3061 H   0  0  0  0  0  0  0  0  0  0  0  0
   13.1610   -6.7999   15.7555 H   0  0  0  0  0  0  0  0  0  0  0  0
   11.8342   -8.0108   15.7555 H   0  0  0  0  0  0  0  0  0  0  0  0
   10.2868  -12.4146   14.9594 H   0  0  0  0  0  0  0  0  0  0  0  0
    8.8070  -11.5096   14.4782 H   0  0  0  0  0  0  0  0  0  0  0  0
    9.9371  -13.4934   12.9741 H   0  0  0  0  0  0  0  0  0  0  0  0
    8.9709  -12.1420   12.2908 H   0  0  0  0  0  0  0  0  0  0  0  0
   10.7650  -12.0531   12.2908 H   0  0  0  0  0  0  0  0  0  0  0  0
  1  2  1  0
  2  3  1  0
  3  4  1  0
  4  5  1  0
  5  6  2  0
  6  7  1  0
  7  8  1  0
  8  9  2  0
  9 10  1  0
 10 11  2  0
 11 12  1  0
 12 13  2  0
  7 14  2  0
 14 15  1  0
 15 16  2  0
 15 17  1  0
 17 18  1  0
 18 19  1  0
 14 20  1  0
 20 21  1  0
 21 22  1  0
 20 23  2  0
 23 24  1  0
 24 25  2  0
 24 26  1  0
 26 27  1  0
 27 28  1  0
 23  5  1  0
 13  8  1  0
  1 29  1  0
  1 30  1  0
  1 31  1  0
  2 32  1  0
  2 33  1  0
  3 34  1  0
  3 35  1  0
  4 36  1  0
  4 37  1  0
  9 38  1  0
 10 39  1  0
 11 40  1  0
 12 41  1  0
 13 42  1  0
 18 43  1  0
 18 44  1  0
 19 45  1  0
 19 46  1  0
 19 47  1  0
 21 48  1  0
 21 49  1  0
 22 50  1  0
 22 51  1  0
 22 52  1  0
 27 53  1  0
 27 54  1  0
 28 55  1  0
 28 56  1  0
 28 57  1  0
M  END
>  <meeko>  (6) 
{"is_sidechain": [false], "free_energy": -5.551, "intermolecular_energy": -8.788, "internal_energy": -1.923}

$$$$
LIB_GPYCQVDLOJBZMI__M_PUB_ALL__e8__s20260927
     RDKit          3D

 57 58  0  0  0  0  0  0  0  0999 V2000
    4.8260  -12.8230   -6.6720 C   0  0  0  0  0  0  0  0  0  0  0  0
    4.9750  -13.8740   -5.5840 C   0  0  0  0  0  0  0  0  0  0  0  0
    6.4300  -14.1330   -5.1860 C   0  0  0  0  0  0  0  0  0  0  0  0
    6.5680  -14.8350   -3.8320 C   0  0  0  0  0  0  0  0  0  0  0  0
    7.6080  -14.1620   -2.9660 C   0  0  0  0  0  0  0  0  0  0  0  0
    8.8810  -14.5880   -3.1750 N   0  0  0  0  0  0  0  0  0  0  0  0
    9.8810  -14.0920   -2.3980 C   0  0  0  0  0  0  0  0  0  0  0  0
   11.2180  -14.6140   -2.7390 C   0  0  0  0  0  0  0  0  0  0  0  0
   12.0050  -13.9680   -3.7100 C   0  0  0  0  0  0  0  0  0  0  0  0
   13.2690  -14.4530   -4.0530 C   0  0  0  0  0  0  0  0  0  0  0  0
   13.7740  -15.5870   -3.4240 C   0  0  0  0  0  0  0  0  0  0  0  0
   13.0190  -16.2340   -2.4480 C   0  0  0  0  0  0  0  0  0  0  0  0
   11.7550  -15.7480   -2.1050 C   0  0  0  0  0  0  0  0  0  0  0  0
    9.6230  -13.1820   -1.3680 C   0  0  0  0  0  0  0  0  0  0  0  0
   10.7310  -12.7520   -0.5050 C   0  0  0  0  0  0  0  0  0  0  0  0
   11.0350  -13.2940    0.5420 O   0  0  0  0  0  0  0  0  0  0  0  0
   11.3390  -11.6990   -1.1000 O   0  0  0  0  0  0  0  0  0  0  0  0
   12.7350  -11.5920   -0.8070 C   0  0  0  0  0  0  0  0  0  0  0  0
   12.9420  -10.3670    0.0630 C   0  0  0  0  0  0  0  0  0  0  0  0
    8.3100  -12.7190   -1.1390 C   0  0  0  0  0  0  0  0  0  0  0  0
    8.0130  -11.7390   -0.0230 C   0  0  0  0  0  0  0  0  0  0  0  0
    7.5770  -12.4230    1.2650 C   0  0  0  0  0  0  0  0  0  0  0  0
    7.2940  -13.2180   -1.9800 C   0  0  0  0  0  0  0  0  0  0  0  0
    5.8890  -12.8200   -1.7820 C   0  0  0  0  0  0  0  0  0  0  0  0
    5.1520  -13.4710   -1.0570 O   0  0  0  0  0  0  0  0  0  0  0  0
    5.3820  -11.3740   -2.6370 S   0  0  0  0  0  0  0  0  0  0  0  0
    3.6130  -11.7460   -2.8140 C   0  0  0  0  0  0  0  0  0  0  0  0
    2.9780  -10.7900   -3.8080 C   0  0  0  0  0  0  0  0  0  0  0  0
    4.6859  -11.8345   -6.2102 H   0  0  0  0  0  0  0  0  0  0  0  0
    5.7314  -12.8109   -7.2966 H   0  0  0  0  0  0  0  0  0  0  0  0
    3.9529  -13.0630   -7.2966 H   0  0  0  0  0  0  0  0  0  0  0  0
    4.4248  -13.5351   -4.6938 H   0  0  0  0  0  0  0  0  0  0  0  0
    4.5748  -14.8167   -5.9854 H   0  0  0  0  0  0  0  0  0  0  0  0
    6.8964  -14.7644   -5.9566 H   0  0  0  0  0  0  0  0  0  0  0  0
    6.9249  -13.1544   -5.0994 H   0  0  0  0  0  0  0  0  0  0  0  0
    5.5981  -14.8071   -3.3138 H   0  0  0  0  0  0  0  0  0  0  0  0
    6.8850  -15.8731   -4.0107 H   0  0  0  0  0  0  0  0  0  0  0  0
   11.6184  -13.0661   -4.2072 H   0  0  0  0  0  0  0  0  0  0  0  0
   13.8656  -13.9384   -4.8206 H   0  0  0  0  0  0  0  0  0  0  0  0
   14.7676  -15.9719   -3.6969 H   0  0  0  0  0  0  0  0  0  0  0  0
   13.4185  -17.1282   -1.9471 H   0  0  0  0  0  0  0  0  0  0  0  0
   11.1708  -16.2607   -1.3266 H   0  0  0  0  0  0  0  0  0  0  0  0
   13.0734  -12.4912   -0.2713 H   0  0  0  0  0  0  0  0  0  0  0  0
   13.3136  -11.5000   -1.7380 H   0  0  0  0  0  0  0  0  0  0  0  0
   12.8929  -10.6574    1.1228 H   0  0  0  0  0  0  0  0  0  0  0  0
   13.9272   -9.9272   -0.1514 H   0  0  0  0  0  0  0  0  0  0  0  0
   12.1560   -9.6279   -0.1514 H   0  0  0  0  0  0  0  0  0  0  0  0
    8.9214  -11.1532    0.1808 H   0  0  0  0  0  0  0  0  0  0  0  0
    7.1810  -11.1012   -0.3562 H   0  0  0  0  0  0  0  0  0  0  0  0
    7.9437  -11.8478    2.1279 H   0  0  0  0  0  0  0  0  0  0  0  0
    6.4788  -12.4750    1.2989 H   0  0  0  0  0  0  0  0  0  0  0  0
    7.9935  -13.4405    1.2989 H   0  0  0  0  0  0  0  0  0  0  0  0
    3.4921  -12.7785   -3.1735 H   0  0  0  0  0  0  0  0  0  0  0  0
    3.1204  -11.6309   -1.8372 H   0  0  0  0  0  0  0  0  0  0  0  0
    2.4490   -9.9936   -3.2641 H   0  0  0  0  0  0  0  0  0  0  0  0
    3.7606  -10.3450   -4.4400 H   0  0  0  0  0  0  0  0  0  0  0  0
    2.2643  -11.3388   -4.4400 H   0  0  0  0  0  0  0  0  0  0  0  0
  1  2  1  0
  2  3  1  0
  3  4  1  0
  4  5  1  0
  5  6  2  0
  6  7  1  0
  7  8  1  0
  8  9  2  0
  9 10  1  0
 10 11  2  0
 11 12  1  0
 12 13  2  0
  7 14  2  0
 14 15  1  0
 15 16  2  0
 15 17  1  0
 17 18  1  0
 18 19  1  0
 14 20  1  0
 20 21  1  0
 21 22  1  0
 20 23  2  0
 23 24  1  0
 24 25  2  0
 24 26  1  0
 26 27  1  0
 27 28  1  0
 23  5  1  0
 13  8  1  0
  1 29  1  0
  1 30  1  0
  1 31  1  0
  2 32  1  0
  2 33  1  0
  3 34  1  0
  3 35  1  0
  4 36  1  0
  4 37  1  0
  9 38  1  0
 10 39  1  0
 11 40  1  0
 12 41  1  0
 13 42  1  0
 18 43  1  0
 18 44  1  0
 19 45  1  0
 19 46  1  0
 19 47  1  0
 21 48  1  0
 21 49  1  0
 22 50  1  0
 22 51  1  0
 22 52  1  0
 27 53  1  0
 27 54  1  0
 28 55  1  0
 28 56  1  0
 28 57  1  0
M  END
>  <meeko>  (7) 
{"is_sidechain": [false], "free_energy": -5.511, "intermolecular_energy": -9.049, "internal_energy": -1.596}

$$$$
LIB_GPYCQVDLOJBZMI__M_PUB_ALL__e8__s20260927
     RDKit          3D

 57 58  0  0  0  0  0  0  0  0999 V2000
    1.0990  -14.0530   -4.6960 C   0  0  0  0  0  0  0  0  0  0  0  0
    2.3950  -13.3300   -4.3640 C   0  0  0  0  0  0  0  0  0  0  0  0
    2.2090  -12.1710   -3.3820 C   0  0  0  0  0  0  0  0  0  0  0  0
    2.8700  -12.4210   -2.0240 C   0  0  0  0  0  0  0  0  0  0  0  0
    1.8730  -12.9400   -1.0130 C   0  0  0  0  0  0  0  0  0  0  0  0
    1.0100  -12.0050   -0.5360 N   0  0  0  0  0  0  0  0  0  0  0  0
    0.1170  -12.3580    0.4270 C   0  0  0  0  0  0  0  0  0  0  0  0
   -0.7780  -11.2620    0.8430 C   0  0  0  0  0  0  0  0  0  0  0  0
   -1.9320  -10.9680    0.0960 C   0  0  0  0  0  0  0  0  0  0  0  0
   -2.7870   -9.9280    0.4680 C   0  0  0  0  0  0  0  0  0  0  0  0
   -2.5090   -9.1690    1.6010 C   0  0  0  0  0  0  0  0  0  0  0  0
   -1.3800   -9.4530    2.3660 C   0  0  0  0  0  0  0  0  0  0  0  0
   -0.5250  -10.4940    1.9930 C   0  0  0  0  0  0  0  0  0  0  0  0
    0.0940  -13.6500    0.9630 C   0  0  0  0  0  0  0  0  0  0  0  0
   -0.8310  -13.9460    2.0650 C   0  0  0  0  0  0  0  0  0  0  0  0
   -0.5430  -13.8560    3.2450 O   0  0  0  0  0  0  0  0  0  0  0  0
   -2.0250  -14.2890    1.5280 O   0  0  0  0  0  0  0  0  0  0  0  0
   -3.0970  -14.3380    2.4740 C   0  0  0  0  0  0  0  0  0  0  0  0
   -3.8190  -13.0050    2.4380 C   0  0  0  0  0  0  0  0  0  0  0  0
    0.9740  -14.6390    0.4770 C   0  0  0  0  0  0  0  0  0  0  0  0
    0.9660  -16.0410    1.0510 C   0  0  0  0  0  0  0  0  0  0  0  0
    0.0400  -16.9850    0.2950 C   0  0  0  0  0  0  0  0  0  0  0  0
    1.8660  -14.2620   -0.5490 C   0  0  0  0  0  0  0  0  0  0  0  0
    2.8480  -15.2200   -1.0840 C   0  0  0  0  0  0  0  0  0  0  0  0
    2.5780  -15.9190   -2.0490 O   0  0  0  0  0  0  0  0  0  0  0  0
    4.3950  -15.2650   -0.2550 S   0  0  0  0  0  0  0  0  0  0  0  0
    4.7350  -17.0450   -0.3710 C   0  0  0  0  0  0  0  0  0  0  0  0
    5.0520  -17.6030    1.0050 C   0  0  0  0  0  0  0  0  0  0  0  0
    0.5888  -14.3376   -3.7640 H   0  0  0  0  0  0  0  0  0  0  0  0
    0.4478  -13.3878   -5.2821 H   0  0  0  0  0  0  0  0  0  0  0  0
    1.3229  -14.9565   -5.2821 H   0  0  0  0  0  0  0  0  0  0  0  0
    3.0946  -14.0539   -3.9208 H   0  0  0  0  0  0  0  0  0  0  0  0
    2.7785  -12.9028   -5.3023 H   0  0  0  0  0  0  0  0  0  0  0  0
    2.6486  -11.2644   -3.8235 H   0  0  0  0  0  0  0  0  0  0  0  0
    1.1288  -12.0617   -3.2053 H   0  0  0  0  0  0  0  0  0  0  0  0
    3.6732  -13.1624   -2.1479 H   0  0  0  0  0  0  0  0  0  0  0  0
    3.2735  -11.4668   -1.6542 H   0  0  0  0  0  0  0  0  0  0  0  0
   -2.1656  -11.5671   -0.7965 H   0  0  0  0  0  0  0  0  0  0  0  0
   -3.6806   -9.7087   -0.1349 H   0  0  0  0  0  0  0  0  0  0  0  0
   -3.1793   -8.3467    1.8917 H   0  0  0  0  0  0  0  0  0  0  0  0
   -1.1611   -8.8574    3.2645 H   0  0  0  0  0  0  0  0  0  0  0  0
    0.3592  -10.7157    2.6086 H   0  0  0  0  0  0  0  0  0  0  0  0
   -3.7934  -15.1465    2.2067 H   0  0  0  0  0  0  0  0  0  0  0  0
   -2.7056  -14.5320    3.4835 H   0  0  0  0  0  0  0  0  0  0  0  0
   -4.0053  -12.6610    3.4661 H   0  0  0  0  0  0  0  0  0  0  0  0
   -3.1980  -12.2658    1.9109 H   0  0  0  0  0  0  0  0  0  0  0  0
   -4.7775  -13.1213    1.9109 H   0  0  0  0  0  0  0  0  0  0  0  0
    1.9888  -16.4437    1.0085 H   0  0  0  0  0  0  0  0  0  0  0  0
    0.5960  -15.9727    2.0846 H   0  0  0  0  0  0  0  0  0  0  0  0
   -0.5434  -17.5797    1.0134 H   0  0  0  0  0  0  0  0  0  0  0  0
   -0.6439  -16.3996   -0.3372 H   0  0  0  0  0  0  0  0  0  0  0  0
    0.6385  -17.6575   -0.3372 H   0  0  0  0  0  0  0  0  0  0  0  0
    3.8517  -17.5590   -0.7781 H   0  0  0  0  0  0  0  0  0  0  0  0
    5.5981  -17.2057   -1.0338 H   0  0  0  0  0  0  0  0  0  0  0  0
    4.6643  -16.9205    1.7757 H   0  0  0  0  0  0  0  0  0  0  0  0
    4.5798  -18.5900    1.1181 H   0  0  0  0  0  0  0  0  0  0  0  0
    6.1416  -17.7027    1.1181 H   0  0  0  0  0  0  0  0  0  0  0  0
  1  2  1  0
  2  3  1  0
  3  4  1  0
  4  5  1  0
  5  6  2  0
  6  7  1  0
  7  8  1  0
  8  9  2  0
  9 10  1  0
 10 11  2  0
 11 12  1  0
 12 13  2  0
  7 14  2  0
 14 15  1  0
 15 16  2  0
 15 17  1  0
 17 18  1  0
 18 19  1  0
 14 20  1  0
 20 21  1  0
 21 22  1  0
 20 23  2  0
 23 24  1  0
 24 25  2  0
 24 26  1  0
 26 27  1  0
 27 28  1  0
 23  5  1  0
 13  8  1  0
  1 29  1  0
  1 30  1  0
  1 31  1  0
  2 32  1  0
  2 33  1  0
  3 34  1  0
  3 35  1  0
  4 36  1  0
  4 37  1  0
  9 38  1  0
 10 39  1  0
 11 40  1  0
 12 41  1  0
 13 42  1  0
 18 43  1  0
 18 44  1  0
 19 45  1  0
 19 46  1  0
 19 47  1  0
 21 48  1  0
 21 49  1  0
 22 50  1  0
 22 51  1  0
 22 52  1  0
 27 53  1  0
 27 54  1  0
 28 55  1  0
 28 56  1  0
 28 57  1  0
M  END
>  <meeko>  (8) 
{"is_sidechain": [false], "free_energy": -5.487, "intermolecular_energy": -8.62, "internal_energy": -1.985}

$$$$
LIB_GPYCQVDLOJBZMI__M_PUB_ALL__e8__s20260927
     RDKit          3D

 57 58  0  0  0  0  0  0  0  0999 V2000
   13.6080  -10.7360   -0.2850 C   0  0  0  0  0  0  0  0  0  0  0  0
   12.3910  -10.2400    0.4800 C   0  0  0  0  0  0  0  0  0  0  0  0
   11.5150  -11.3710    1.0240 C   0  0  0  0  0  0  0  0  0  0  0  0
   11.6070  -12.6550    0.1960 C   0  0  0  0  0  0  0  0  0  0  0  0
   10.3690  -12.8570   -0.6480 C   0  0  0  0  0  0  0  0  0  0  0  0
    9.2170  -12.9970    0.0590 N   0  0  0  0  0  0  0  0  0  0  0  0
    8.0580  -13.2490   -0.6060 C   0  0  0  0  0  0  0  0  0  0  0  0
    6.8770  -13.3570    0.2710 C   0  0  0  0  0  0  0  0  0  0  0  0
    6.3740  -14.6200    0.6310 C   0  0  0  0  0  0  0  0  0  0  0  0
    5.2510  -14.7420    1.4530 C   0  0  0  0  0  0  0  0  0  0  0  0
    4.6160  -13.6020    1.9380 C   0  0  0  0  0  0  0  0  0  0  0  0
    5.1050  -12.3410    1.6070 C   0  0  0  0  0  0  0  0  0  0  0  0
    6.2300  -12.2200    0.7860 C   0  0  0  0  0  0  0  0  0  0  0  0
    8.0320  -13.4040   -1.9950 C   0  0  0  0  0  0  0  0  0  0  0  0
    6.7670  -13.7670   -2.6470 C   0  0  0  0  0  0  0  0  0  0  0  0
    6.4040  -14.9110   -2.8520 O   0  0  0  0  0  0  0  0  0  0  0  0
    6.1010  -12.6230   -2.9300 O   0  0  0  0  0  0  0  0  0  0  0  0
    4.7050  -12.8090   -3.1810 C   0  0  0  0  0  0  0  0  0  0  0  0
    3.9330  -12.2230   -2.0140 C   0  0  0  0  0  0  0  0  0  0  0  0
    9.2140  -13.2540   -2.7510 C   0  0  0  0  0  0  0  0  0  0  0  0
    9.2050  -13.4260   -4.2560 C   0  0  0  0  0  0  0  0  0  0  0  0
    9.4130  -14.8700   -4.6890 C   0  0  0  0  0  0  0  0  0  0  0  0
   10.3980  -12.9550   -2.0450 C   0  0  0  0  0  0  0  0  0  0  0  0
   11.6850  -12.8250   -2.7510 C   0  0  0  0  0  0  0  0  0  0  0  0
   12.0510  -11.7440   -3.1880 O   0  0  0  0  0  0  0  0  0  0  0  0
   12.6240  -14.3000   -2.8960 S   0  0  0  0  0  0  0  0  0  0  0  0
   13.6860  -13.8320   -4.2930 C   0  0  0  0  0  0  0  0  0  0  0  0
   13.0320  -14.2410   -5.6020 C   0  0  0  0  0  0  0  0  0  0  0  0
   14.3846  -11.0525    0.4268 H   0  0  0  0  0  0  0  0  0  0  0  0
   13.3209  -11.5889   -0.9176 H   0  0  0  0  0  0  0  0  0  0  0  0
   13.9989   -9.9254   -0.9176 H   0  0  0  0  0  0  0  0  0  0  0  0
   12.7363   -9.6280    1.3263 H   0  0  0  0  0  0  0  0  0  0  0  0
   11.7759   -9.6624   -0.2258 H   0  0  0  0  0  0  0  0  0  0  0  0
   11.8321  -11.5950    2.0532 H   0  0  0  0  0  0  0  0  0  0  0  0
   10.4712  -11.0269    0.9795 H   0  0  0  0  0  0  0  0  0  0  0  0
   12.4843  -12.5927   -0.4646 H   0  0  0  0  0  0  0  0  0  0  0  0
   11.6980  -13.5064    0.8865 H   0  0  0  0  0  0  0  0  0  0  0  0
    6.8731  -15.5270    0.2591 H   0  0  0  0  0  0  0  0  0  0  0  0
    4.8685  -15.7390    1.7170 H   0  0  0  0  0  0  0  0  0  0  0  0
    3.7292  -13.6973    2.5818 H   0  0  0  0  0  0  0  0  0  0  0  0
    4.6058  -11.4395    1.9918 H   0  0  0  0  0  0  0  0  0  0  0  0
    6.6150  -11.2196    0.5391 H   0  0  0  0  0  0  0  0  0  0  0  0
    4.4218  -12.2945   -4.1111 H   0  0  0  0  0  0  0  0  0  0  0  0
    4.4770  -13.8797   -3.2889 H   0  0  0  0  0  0  0  0  0  0  0  0
    4.3819  -12.5637   -1.0693 H   0  0  0  0  0  0  0  0  0  0  0  0
    3.9717  -11.1248   -2.0632 H   0  0  0  0  0  0  0  0  0  0  0  0
    2.8856  -12.5556   -2.0632 H   0  0  0  0  0  0  0  0  0  0  0  0
    8.2352  -13.0799   -4.6429 H   0  0  0  0  0  0  0  0  0  0  0  0
   10.0413  -12.8368   -4.6603 H   0  0  0  0  0  0  0  0  0  0  0  0
    9.5052  -15.5100   -3.7991 H   0  0  0  0  0  0  0  0  0  0  0  0
    8.5531  -15.1999   -5.2904 H   0  0  0  0  0  0  0  0  0  0  0  0
   10.3311  -14.9438   -5.2904 H   0  0  0  0  0  0  0  0  0  0  0  0
   13.8378  -12.7425   -4.2863 H   0  0  0  0  0  0  0  0  0  0  0  0
   14.6549  -14.3440   -4.1977 H   0  0  0  0  0  0  0  0  0  0  0  0
   12.1166  -14.8135   -5.3914 H   0  0  0  0  0  0  0  0  0  0  0  0
   12.7767  -13.3413   -6.1812 H   0  0  0  0  0  0  0  0  0  0  0  0
   13.7292  -14.8643   -6.1812 H   0  0  0  0  0  0  0  0  0  0  0  0
  1  2  1  0
  2  3  1  0
  3  4  1  0
  4  5  1  0
  5  6  2  0
  6  7  1  0
  7  8  1  0
  8  9  2  0
  9 10  1  0
 10 11  2  0
 11 12  1  0
 12 13  2  0
  7 14  2  0
 14 15  1  0
 15 16  2  0
 15 17  1  0
 17 18  1  0
 18 19  1  0
 14 20  1  0
 20 21  1  0
 21 22  1  0
 20 23  2  0
 23 24  1  0
 24 25  2  0
 24 26  1  0
 26 27  1  0
 27 28  1  0
 23  5  1  0
 13  8  1  0
  1 29  1  0
  1 30  1  0
  1 31  1  0
  2 32  1  0
  2 33  1  0
  3 34  1  0
  3 35  1  0
  4 36  1  0
  4 37  1  0
  9 38  1  0
 10 39  1  0
 11 40  1  0
 12 41  1  0
 13 42  1  0
 18 43  1  0
 18 44  1  0
 19 45  1  0
 19 46  1  0
 19 47  1  0
 21 48  1  0
 21 49  1  0
 22 50  1  0
 22 51  1  0
 22 52  1  0
 27 53  1  0
 27 54  1  0
 28 55  1  0
 28 56  1  0
 28 57  1  0
M  END
>  <meeko>  (9) 
{"is_sidechain": [false], "free_energy": -5.467, "intermolecular_energy": -8.667, "internal_energy": -1.905}

$$$$
