LIB_HNFAIDZLGLIFJG__M_PUB_ALL__e8__s20260927
     RDKit          3D

 28 30  0  0  0  0  0  0  0  0999 V2000
   12.5690  -14.9620   -2.4990 O   0  0  0  0  0  0  0  0  0  0  0  0
   12.0890  -13.8680   -2.8020 C   0  0  0  0  0  0  0  0  0  0  0  0
   12.6540  -12.6730   -2.5730 N   0  0  0  0  0  0  0  0  0  0  0  0
   12.3060  -12.0720   -1.4080 C   0  0  0  0  0  0  0  0  0  0  0  0
   13.2060  -11.1150   -0.8900 C   0  0  0  0  0  0  0  0  0  0  0  0
   12.9720  -10.4610    0.3200 C   0  0  0  0  0  0  0  0  0  0  0  0
   14.1090   -9.3070    0.9150 Cl  0  0  0  0  0  0  0  0  0  0  0  0
   11.8280  -10.7340    1.0560 C   0  0  0  0  0  0  0  0  0  0  0  0
   10.9120  -11.6610    0.5630 C   0  0  0  0  0  0  0  0  0  0  0  0
   11.1280  -12.3240   -0.6650 C   0  0  0  0  0  0  0  0  0  0  0  0
   10.0320  -13.2490   -1.0970 C   0  0  0  0  0  0  0  0  0  0  0  0
    9.2810  -13.7250   -0.2350 O   0  0  0  0  0  0  0  0  0  0  0  0
    9.7500  -13.4570   -2.5830 C   0  0  0  0  0  0  0  0  0  0  0  0
    8.3150  -13.3930   -2.9650 C   0  0  0  0  0  0  0  0  0  0  0  0
    7.7420  -12.2090   -3.4340 C   0  0  0  0  0  0  0  0  0  0  0  0
    6.4040  -12.1960   -3.8210 C   0  0  0  0  0  0  0  0  0  0  0  0
    5.6670  -13.3680   -3.7440 C   0  0  0  0  0  0  0  0  0  0  0  0
    6.3050  -14.5080   -3.2840 C   0  0  0  0  0  0  0  0  0  0  0  0
    7.5960  -14.5550   -2.9040 N   0  0  0  0  0  0  0  0  0  0  0  0
   10.7200  -13.7660   -3.4890 C   0  0  0  0  0  0  0  0  0  0  0  0
   10.6800  -14.0340   -4.7360 O   0  0  0  0  0  0  0  0  0  0  0  0
   14.1183  -10.8782   -1.4571 H   0  0  0  0  0  0  0  0  0  0  0  0
   11.6468  -10.2260    2.0147 H   0  0  0  0  0  0  0  0  0  0  0  0
   10.0027  -11.8807    1.1417 H   0  0  0  0  0  0  0  0  0  0  0  0
    8.3445  -11.2909   -3.4975 H   0  0  0  0  0  0  0  0  0  0  0  0
    5.9379  -11.2677   -4.1831 H   0  0  0  0  0  0  0  0  0  0  0  0
    4.6076  -13.3916   -4.0393 H   0  0  0  0  0  0  0  0  0  0  0  0
    5.7182  -15.4366   -3.2252 H   0  0  0  0  0  0  0  0  0  0  0  0
  1  2  2  0
  2  3  1  0
  3  4  1  0
  4  5  2  0
  5  6  1  0
  6  7  1  0
  6  8  2  0
  8  9  1  0
  9 10  2  0
 10 11  1  0
 11 12  2  0
 11 13  1  0
 13 14  1  0
 14 15  2  0
 15 16  1  0
 16 17  2  0
 17 18  1  0
 18 19  2  0
 13 20  2  0
 20 21  1  0
 20  2  1  0
 10  4  1  0
 19 14  1  0
  5 22  1  0
  8 23  1  0
  9 24  1  0
 15 25  1  0
 16 26  1  0
 17 27  1  0
 18 28  1  0
M  CHG  2   3  -1  21  -1
M  END
>  <meeko>  (1) 
{"is_sidechain": [false], "free_energy": -5.207, "intermolecular_energy": -6.729, "internal_energy": 0.899}

$$$$
LIB_HNFAIDZLGLIFJG__M_PUB_ALL__e8__s20260927
     RDKit          3D

 28 30  0  0  0  0  0  0  0  0999 V2000
    8.4720  -11.9540    0.6520 O   0  0  0  0  0  0  0  0  0  0  0  0
    8.9660  -12.9330    0.0880 C   0  0  0  0  0  0  0  0  0  0  0  0
    8.3310  -14.0820   -0.1870 N   0  0  0  0  0  0  0  0  0  0  0  0
    7.7600  -14.1570   -1.4160 C   0  0  0  0  0  0  0  0  0  0  0  0
    6.6340  -14.9990   -1.5460 C   0  0  0  0  0  0  0  0  0  0  0  0
    5.9880  -15.1840   -2.7680 C   0  0  0  0  0  0  0  0  0  0  0  0
    4.6220  -16.2340   -2.8760 Cl  0  0  0  0  0  0  0  0  0  0  0  0
    6.4380  -14.5310   -3.9060 C   0  0  0  0  0  0  0  0  0  0  0  0
    7.5370  -13.6790   -3.8070 C   0  0  0  0  0  0  0  0  0  0  0  0
    8.1950  -13.4720   -2.5750 C   0  0  0  0  0  0  0  0  0  0  0  0
    9.3230  -12.4870   -2.6080 C   0  0  0  0  0  0  0  0  0  0  0  0
    9.1910  -11.4530   -3.2770 O   0  0  0  0  0  0  0  0  0  0  0  0
   10.5310  -12.7200   -1.6980 C   0  0  0  0  0  0  0  0  0  0  0  0
   11.8360  -12.7680   -2.4060 C   0  0  0  0  0  0  0  0  0  0  0  0
   12.3210  -13.9580   -2.9530 C   0  0  0  0  0  0  0  0  0  0  0  0
   13.5300  -13.9580   -3.6440 C   0  0  0  0  0  0  0  0  0  0  0  0
   14.2270  -12.7670   -3.7880 C   0  0  0  0  0  0  0  0  0  0  0  0
   13.6790  -11.6230   -3.2320 C   0  0  0  0  0  0  0  0  0  0  0  0
   12.5120  -11.5890   -2.5600 N   0  0  0  0  0  0  0  0  0  0  0  0
   10.4340  -12.9330   -0.3560 C   0  0  0  0  0  0  0  0  0  0  0  0
   11.3080  -13.1830    0.5410 O   0  0  0  0  0  0  0  0  0  0  0  0
    6.2551  -15.5246   -0.6571 H   0  0  0  0  0  0  0  0  0  0  0  0
    5.9351  -14.6832   -4.8724 H   0  0  0  0  0  0  0  0  0  0  0  0
    7.8984  -13.1580   -4.7059 H   0  0  0  0  0  0  0  0  0  0  0  0
   11.7503  -14.8914   -2.8385 H   0  0  0  0  0  0  0  0  0  0  0  0
   13.9275  -14.8908   -4.0704 H   0  0  0  0  0  0  0  0  0  0  0  0
   15.1852  -12.7324   -4.3271 H   0  0  0  0  0  0  0  0  0  0  0  0
   14.2333  -10.6798   -3.3467 H   0  0  0  0  0  0  0  0  0  0  0  0
  1  2  2  0
  2  3  1  0
  3  4  1  0
  4  5  2  0
  5  6  1  0
  6  7  1  0
  6  8  2  0
  8  9  1  0
  9 10  2  0
 10 11  1  0
 11 12  2  0
 11 13  1  0
 13 14  1  0
 14 15  2  0
 15 16  1  0
 16 17  2  0
 17 18  1  0
 18 19  2  0
 13 20  2  0
 20 21  1  0
 20  2  1  0
 10  4  1  0
 19 14  1  0
  5 22  1  0
  8 23  1  0
  9 24  1  0
 15 25  1  0
 16 26  1  0
 17 27  1  0
 18 28  1  0
M  CHG  2   3  -1  21  -1
M  END
>  <meeko>  (2) 
{"is_sidechain": [false], "free_energy": -5.175, "intermolecular_energy": -6.611, "internal_energy": 0.822}

$$$$
LIB_HNFAIDZLGLIFJG__M_PUB_ALL__e8__s20260927
     RDKit          3D

 28 30  0  0  0  0  0  0  0  0999 V2000
   11.1250  -10.6540    0.7920 O   0  0  0  0  0  0  0  0  0  0  0  0
   10.7280  -11.8210    0.7530 C   0  0  0  0  0  0  0  0  0  0  0  0
    9.5790  -12.2770    1.2740 N   0  0  0  0  0  0  0  0  0  0  0  0
    8.5240  -12.3180    0.4220 C   0  0  0  0  0  0  0  0  0  0  0  0
    7.2390  -12.1940    0.9920 C   0  0  0  0  0  0  0  0  0  0  0  0
    6.0790  -12.2600    0.2200 C   0  0  0  0  0  0  0  0  0  0  0  0
    4.5300  -12.1140    0.9680 Cl  0  0  0  0  0  0  0  0  0  0  0  0
    6.1590  -12.4460   -1.1520 C   0  0  0  0  0  0  0  0  0  0  0  0
    7.4140  -12.5540   -1.7480 C   0  0  0  0  0  0  0  0  0  0  0  0
    8.5980  -12.4790   -0.9820 C   0  0  0  0  0  0  0  0  0  0  0  0
    9.8740  -12.5530   -1.7630 C   0  0  0  0  0  0  0  0  0  0  0  0
    9.9460  -11.9520   -2.8440 O   0  0  0  0  0  0  0  0  0  0  0  0
   11.0650  -13.2280   -1.1430 C   0  0  0  0  0  0  0  0  0  0  0  0
   11.6300  -14.3290   -1.9650 C   0  0  0  0  0  0  0  0  0  0  0  0
   12.7200  -14.1150   -2.8120 C   0  0  0  0  0  0  0  0  0  0  0  0
   13.2490  -15.1790   -3.5380 C   0  0  0  0  0  0  0  0  0  0  0  0
   12.6890  -16.4400   -3.3950 C   0  0  0  0  0  0  0  0  0  0  0  0
   11.6200  -16.5810   -2.5260 C   0  0  0  0  0  0  0  0  0  0  0  0
   11.0860  -15.5740   -1.8090 N   0  0  0  0  0  0  0  0  0  0  0  0
   11.5670  -12.9200    0.0860 C   0  0  0  0  0  0  0  0  0  0  0  0
   12.5290  -13.4060    0.7700 O   0  0  0  0  0  0  0  0  0  0  0  0
    7.1494  -12.0407    2.0776 H   0  0  0  0  0  0  0  0  0  0  0  0
    5.2450  -12.5074   -1.7610 H   0  0  0  0  0  0  0  0  0  0  0  0
    7.4837  -12.7005   -2.8360 H   0  0  0  0  0  0  0  0  0  0  0  0
   13.1585  -13.1105   -2.9051 H   0  0  0  0  0  0  0  0  0  0  0  0
   14.1004  -15.0215   -4.2165 H   0  0  0  0  0  0  0  0  0  0  0  0
   13.0820  -17.3016   -3.9547 H   0  0  0  0  0  0  0  0  0  0  0  0
   11.1778  -17.5820   -2.4140 H   0  0  0  0  0  0  0  0  0  0  0  0
  1  2  2  0
  2  3  1  0
  3  4  1  0
  4  5  2  0
  5  6  1  0
  6  7  1  0
  6  8  2  0
  8  9  1  0
  9 10  2  0
 10 11  1  0
 11 12  2  0
 11 13  1  0
 13 14  1  0
 14 15  2  0
 15 16  1  0
 16 17  2  0
 17 18  1  0
 18 19  2  0
 13 20  2  0
 20 21  1  0
 20  2  1  0
 10  4  1  0
 19 14  1  0
  5 22  1  0
  8 23  1  0
  9 24  1  0
 15 25  1  0
 16 26  1  0
 17 27  1  0
 18 28  1  0
M  CHG  2   3  -1  21  -1
M  END
>  <meeko>  (3) 
{"is_sidechain": [false], "free_energy": -5.12, "intermolecular_energy": -6.559, "internal_energy": 0.842}

$$$$
LIB_HNFAIDZLGLIFJG__M_PUB_ALL__e8__s20260927
     RDKit          3D

 28 30  0  0  0  0  0  0  0  0999 V2000
   12.5030  -13.3330    0.7580 O   0  0  0  0  0  0  0  0  0  0  0  0
   11.8160  -12.6180    0.0240 C   0  0  0  0  0  0  0  0  0  0  0  0
   12.1530  -12.2030   -1.2060 N   0  0  0  0  0  0  0  0  0  0  0  0
   11.7170  -12.9810   -2.2280 C   0  0  0  0  0  0  0  0  0  0  0  0
   12.4850  -12.9670   -3.4130 C   0  0  0  0  0  0  0  0  0  0  0  0
   12.1140  -13.6970   -4.5420 C   0  0  0  0  0  0  0  0  0  0  0  0
   13.0810  -13.6360   -5.9700 Cl  0  0  0  0  0  0  0  0  0  0  0  0
   10.9640  -14.4740   -4.5290 C   0  0  0  0  0  0  0  0  0  0  0  0
   10.1940  -14.5230   -3.3680 C   0  0  0  0  0  0  0  0  0  0  0  0
   10.5620  -13.7990   -2.2130 C   0  0  0  0  0  0  0  0  0  0  0  0
    9.6730  -13.9920   -1.0240 C   0  0  0  0  0  0  0  0  0  0  0  0
    9.2600  -15.1320   -0.7680 O   0  0  0  0  0  0  0  0  0  0  0  0
    9.4420  -12.8140   -0.0910 C   0  0  0  0  0  0  0  0  0  0  0  0
    8.0140  -12.4560    0.1080 C   0  0  0  0  0  0  0  0  0  0  0  0
    7.2760  -11.8330   -0.9000 C   0  0  0  0  0  0  0  0  0  0  0  0
    5.9280  -11.5480   -0.6940 C   0  0  0  0  0  0  0  0  0  0  0  0
    5.3400  -11.9010    0.5110 C   0  0  0  0  0  0  0  0  0  0  0  0
    6.1290  -12.5300    1.4600 C   0  0  0  0  0  0  0  0  0  0  0  0
    7.4330  -12.8210    1.2910 N   0  0  0  0  0  0  0  0  0  0  0  0
   10.4480  -12.0970    0.4840 C   0  0  0  0  0  0  0  0  0  0  0  0
   10.4490  -11.0770    1.2520 O   0  0  0  0  0  0  0  0  0  0  0  0
   13.4033  -12.3623   -3.4466 H   0  0  0  0  0  0  0  0  0  0  0  0
   10.6646  -15.0428   -5.4217 H   0  0  0  0  0  0  0  0  0  0  0  0
    9.2819  -15.1377   -3.3513 H   0  0  0  0  0  0  0  0  0  0  0  0
    7.7570  -11.5682   -1.8532 H   0  0  0  0  0  0  0  0  0  0  0  0
    5.3379  -11.0495   -1.4771 H   0  0  0  0  0  0  0  0  0  0  0  0
    4.2789  -11.6880    0.7075 H   0  0  0  0  0  0  0  0  0  0  0  0
    5.6595  -12.8103    2.4145 H   0  0  0  0  0  0  0  0  0  0  0  0
  1  2  2  0
  2  3  1  0
  3  4  1  0
  4  5  2  0
  5  6  1  0
  6  7  1  0
  6  8  2  0
  8  9  1  0
  9 10  2  0
 10 11  1  0
 11 12  2  0
 11 13  1  0
 13 14  1  0
 14 15  2  0
 15 16  1  0
 16 17  2  0
 17 18  1  0
 18 19  2  0
 13 20  2  0
 20 21  1  0
 20  2  1  0
 10  4  1  0
 19 14  1  0
  5 22  1  0
  8 23  1  0
  9 24  1  0
 15 25  1  0
 16 26  1  0
 17 27  1  0
 18 28  1  0
M  CHG  2   3  -1  21  -1
M  END
>  <meeko>  (4) 
{"is_sidechain": [false], "free_energy": -5.104, "intermolecular_energy": -6.557, "internal_energy": 0.861}

$$$$
LIB_HNFAIDZLGLIFJG__M_PUB_ALL__e8__s20260927
     RDKit          3D

 28 30  0  0  0  0  0  0  0  0999 V2000
   12.7050  -11.2500   -2.0550 O   0  0  0  0  0  0  0  0  0  0  0  0
   12.3100  -12.3720   -1.7290 C   0  0  0  0  0  0  0  0  0  0  0  0
   12.6860  -13.5300   -2.2920 N   0  0  0  0  0  0  0  0  0  0  0  0
   11.9060  -13.9660   -3.3140 C   0  0  0  0  0  0  0  0  0  0  0  0
   12.5050  -14.8450   -4.2420 C   0  0  0  0  0  0  0  0  0  0  0  0
   11.8140  -15.3290   -5.3530 C   0  0  0  0  0  0  0  0  0  0  0  0
   12.5950  -16.3930   -6.4650 Cl  0  0  0  0  0  0  0  0  0  0  0  0
   10.4950  -14.9570   -5.5750 C   0  0  0  0  0  0  0  0  0  0  0  0
    9.8710  -14.1050   -4.6670 C   0  0  0  0  0  0  0  0  0  0  0  0
   10.5530  -13.6150   -3.5320 C   0  0  0  0  0  0  0  0  0  0  0  0
    9.7390  -12.7560   -2.6140 C   0  0  0  0  0  0  0  0  0  0  0  0
    8.7560  -12.1580   -3.0740 O   0  0  0  0  0  0  0  0  0  0  0  0
   10.0330  -12.7270   -1.1140 C   0  0  0  0  0  0  0  0  0  0  0  0
    8.8370  -12.8290   -0.2390 C   0  0  0  0  0  0  0  0  0  0  0  0
    8.3910  -11.7370    0.5090 C   0  0  0  0  0  0  0  0  0  0  0  0
    7.2430  -11.8570    1.2880 C   0  0  0  0  0  0  0  0  0  0  0  0
    6.5550  -13.0610    1.2970 C   0  0  0  0  0  0  0  0  0  0  0  0
    7.0470  -14.0970    0.5200 C   0  0  0  0  0  0  0  0  0  0  0  0
    8.1520  -14.0120   -0.2450 N   0  0  0  0  0  0  0  0  0  0  0  0
   11.2850  -12.5540   -0.6020 C   0  0  0  0  0  0  0  0  0  0  0  0
   11.7200  -12.4590    0.5940 O   0  0  0  0  0  0  0  0  0  0  0  0
   13.5478  -15.1577   -4.0844 H   0  0  0  0  0  0  0  0  0  0  0  0
    9.9507  -15.3297   -6.4552 H   0  0  0  0  0  0  0  0  0  0  0  0
    8.8257  -13.8078   -4.8376 H   0  0  0  0  0  0  0  0  0  0  0  0
    8.9441  -10.7865    0.4829 H   0  0  0  0  0  0  0  0  0  0  0  0
    6.8864  -11.0073    1.8887 H   0  0  0  0  0  0  0  0  0  0  0  0
    5.6459  -13.1895    1.9029 H   0  0  0  0  0  0  0  0  0  0  0  0
    6.4995  -15.0510    0.5285 H   0  0  0  0  0  0  0  0  0  0  0  0
  1  2  2  0
  2  3  1  0
  3  4  1  0
  4  5  2  0
  5  6  1  0
  6  7  1  0
  6  8  2  0
  8  9  1  0
  9 10  2  0
 10 11  1  0
 11 12  2  0
 11 13  1  0
 13 14  1  0
 14 15  2  0
 15 16  1  0
 16 17  2  0
 17 18  1  0
 18 19  2  0
 13 20  2  0
 20 21  1  0
 20  2  1  0
 10  4  1  0
 19 14  1  0
  5 22  1  0
  8 23  1  0
  9 24  1  0
 15 25  1  0
 16 26  1  0
 17 27  1  0
 18 28  1  0
M  CHG  2   3  -1  21  -1
M  END
>  <meeko>  (5) 
{"is_sidechain": [false], "free_energy": -4.928, "intermolecular_energy": -6.434, "internal_energy": 0.965}

$$$$
LIB_HNFAIDZLGLIFJG__M_PUB_ALL__e8__s20260927
     RDKit          3D

 28 30  0  0  0  0  0  0  0  0999 V2000
    0.9120  -16.0950    0.5040 O   0  0  0  0  0  0  0  0  0  0  0  0
    0.2590  -15.2970   -0.1720 C   0  0  0  0  0  0  0  0  0  0  0  0
    0.3240  -15.1610   -1.5050 N   0  0  0  0  0  0  0  0  0  0  0  0
    1.2050  -14.2330   -1.9580 C   0  0  0  0  0  0  0  0  0  0  0  0
    1.6760  -14.3940   -3.2790 C   0  0  0  0  0  0  0  0  0  0  0  0
    2.6120  -13.5250   -3.8400 C   0  0  0  0  0  0  0  0  0  0  0  0
    3.1650  -13.7720   -5.4560 Cl  0  0  0  0  0  0  0  0  0  0  0  0
    3.1090  -12.4590   -3.1040 C   0  0  0  0  0  0  0  0  0  0  0  0
    2.6500  -12.2630   -1.8030 C   0  0  0  0  0  0  0  0  0  0  0  0
    1.6950  -13.1270   -1.2240 C   0  0  0  0  0  0  0  0  0  0  0  0
    1.2530  -12.7610    0.1590 C   0  0  0  0  0  0  0  0  0  0  0  0
    2.0080  -12.0790    0.8650 O   0  0  0  0  0  0  0  0  0  0  0  0
   -0.1550  -13.0910    0.6360 C   0  0  0  0  0  0  0  0  0  0  0  0
   -0.8570  -11.9840    1.3350 C   0  0  0  0  0  0  0  0  0  0  0  0
   -1.5290  -10.9880    0.6230 C   0  0  0  0  0  0  0  0  0  0  0  0
   -2.2100   -9.9870    1.3120 C   0  0  0  0  0  0  0  0  0  0  0  0
   -2.2180  -10.0060    2.6990 C   0  0  0  0  0  0  0  0  0  0  0  0
   -1.5420  -11.0330    3.3380 C   0  0  0  0  0  0  0  0  0  0  0  0
   -0.8760  -12.0160    2.7020 N   0  0  0  0  0  0  0  0  0  0  0  0
   -0.7240  -14.3210    0.4870 C   0  0  0  0  0  0  0  0  0  0  0  0
   -1.8560  -14.7940    0.8410 O   0  0  0  0  0  0  0  0  0  0  0  0
    1.2936  -15.2294   -3.8839 H   0  0  0  0  0  0  0  0  0  0  0  0
    3.8545  -11.7785   -3.5412 H   0  0  0  0  0  0  0  0  0  0  0  0
    3.0393  -11.4185   -1.2154 H   0  0  0  0  0  0  0  0  0  0  0  0
   -1.5206  -10.9940   -0.4770 H   0  0  0  0  0  0  0  0  0  0  0  0
   -2.7349   -9.1913    0.7630 H   0  0  0  0  0  0  0  0  0  0  0  0
   -2.7446   -9.2299    3.2737 H   0  0  0  0  0  0  0  0  0  0  0  0
   -1.5498  -11.0464    4.4379 H   0  0  0  0  0  0  0  0  0  0  0  0
  1  2  2  0
  2  3  1  0
  3  4  1  0
  4  5  2  0
  5  6  1  0
  6  7  1  0
  6  8  2  0
  8  9  1  0
  9 10  2  0
 10 11  1  0
 11 12  2  0
 11 13  1  0
 13 14  1  0
 14 15  2  0
 15 16  1  0
 16 17  2  0
 17 18  1  0
 18 19  2  0
 13 20  2  0
 20 21  1  0
 20  2  1  0
 10  4  1  0
 19 14  1  0
  5 22  1  0
  8 23  1  0
  9 24  1  0
 15 25  1  0
 16 26  1  0
 17 27  1  0
 18 28  1  0
M  CHG  2   3  -1  21  -1
M  END
>  <meeko>  (6) 
{"is_sidechain": [false], "free_energy": -4.787, "intermolecular_energy": -6.13, "internal_energy": 0.843}

$$$$
LIB_HNFAIDZLGLIFJG__M_PUB_ALL__e8__s20260927
     RDKit          3D

 28 30  0  0  0  0  0  0  0  0999 V2000
   -5.5760  -17.1060    4.9530 O   0  0  0  0  0  0  0  0  0  0  0  0
   -4.4760  -16.5490    4.9790 C   0  0  0  0  0  0  0  0  0  0  0  0
   -4.1660  -15.3960    4.3680 N   0  0  0  0  0  0  0  0  0  0  0  0
   -3.6010  -15.5150    3.1400 C   0  0  0  0  0  0  0  0  0  0  0  0
   -3.6650  -14.3850    2.2960 C   0  0  0  0  0  0  0  0  0  0  0  0
   -3.1520  -14.4030    0.9990 C   0  0  0  0  0  0  0  0  0  0  0  0
   -3.2660  -12.9980    0.0040 Cl  0  0  0  0  0  0  0  0  0  0  0  0
   -2.5510  -15.5480    0.4980 C   0  0  0  0  0  0  0  0  0  0  0  0
   -2.4570  -16.6750    1.3120 C   0  0  0  0  0  0  0  0  0  0  0  0
   -2.9610  -16.6700    2.6310 C   0  0  0  0  0  0  0  0  0  0  0  0
   -2.7380  -17.9310    3.4090 C   0  0  0  0  0  0  0  0  0  0  0  0
   -2.6460  -19.0020    2.7920 O   0  0  0  0  0  0  0  0  0  0  0  0
   -2.4820  -17.8530    4.8860 C   0  0  0  0  0  0  0  0  0  0  0  0
   -1.3140  -18.6310    5.3750 C   0  0  0  0  0  0  0  0  0  0  0  0
   -0.0270  -18.0890    5.3640 C   0  0  0  0  0  0  0  0  0  0  0  0
    1.0390  -18.8310    5.8680 C   0  0  0  0  0  0  0  0  0  0  0  0
    0.7980  -20.0950    6.3830 C   0  0  0  0  0  0  0  0  0  0  0  0
   -0.5060  -20.5630    6.3750 C   0  0  0  0  0  0  0  0  0  0  0  0
   -1.5580  -19.8700    5.8980 N   0  0  0  0  0  0  0  0  0  0  0  0
   -3.2950  -17.1670    5.7380 C   0  0  0  0  0  0  0  0  0  0  0  0
   -3.2770  -17.0090    7.0050 O   0  0  0  0  0  0  0  0  0  0  0  0
   -4.1331  -13.4634    2.6722 H   0  0  0  0  0  0  0  0  0  0  0  0
   -2.1540  -15.5663   -0.5277 H   0  0  0  0  0  0  0  0  0  0  0  0
   -1.9812  -17.5858    0.9196 H   0  0  0  0  0  0  0  0  0  0  0  0
    0.1443  -17.0807    4.9592 H   0  0  0  0  0  0  0  0  0  0  0  0
    2.0589  -18.4190    5.8573 H   0  0  0  0  0  0  0  0  0  0  0  0
    1.6175  -20.7082    6.7860 H   0  0  0  0  0  0  0  0  0  0  0  0
   -0.6946  -21.5662    6.7850 H   0  0  0  0  0  0  0  0  0  0  0  0
  1  2  2  0
  2  3  1  0
  3  4  1  0
  4  5  2  0
  5  6  1  0
  6  7  1  0
  6  8  2  0
  8  9  1  0
  9 10  2  0
 10 11  1  0
 11 12  2  0
 11 13  1  0
 13 14  1  0
 14 15  2  0
 15 16  1  0
 16 17  2  0
 17 18  1  0
 18 19  2  0
 13 20  2  0
 20 21  1  0
 20  2  1  0
 10  4  1  0
 19 14  1  0
  5 22  1  0
  8 23  1  0
  9 24  1  0
 15 25  1  0
 16 26  1  0
 17 27  1  0
 18 28  1  0
M  CHG  2   3  -1  21  -1
M  END
>  <meeko>  (7) 
{"is_sidechain": [false], "free_energy": -4.71, "intermolecular_energy": -6.106, "internal_energy": 0.919}

$$$$
LIB_HNFAIDZLGLIFJG__M_PUB_ALL__e8__s20260927
     RDKit          3D

 28 30  0  0  0  0  0  0  0  0999 V2000
   12.2660  -13.2140    0.8270 O   0  0  0  0  0  0  0  0  0  0  0  0
   11.6440  -12.7250   -0.1190 C   0  0  0  0  0  0  0  0  0  0  0  0
   10.4570  -12.1050   -0.0400 N   0  0  0  0  0  0  0  0  0  0  0  0
    9.3700  -12.8870   -0.2590 C   0  0  0  0  0  0  0  0  0  0  0  0
    8.1380  -12.4230    0.2510 C   0  0  0  0  0  0  0  0  0  0  0  0
    6.9610  -13.1600    0.1200 C   0  0  0  0  0  0  0  0  0  0  0  0
    5.4820  -12.5530    0.7710 Cl  0  0  0  0  0  0  0  0  0  0  0  0
    6.9690  -14.3850   -0.5300 C   0  0  0  0  0  0  0  0  0  0  0  0
    8.1660  -14.8630   -1.0600 C   0  0  0  0  0  0  0  0  0  0  0  0
    9.3640  -14.1240   -0.9450 C   0  0  0  0  0  0  0  0  0  0  0  0
   10.5600  -14.7330   -1.6120 C   0  0  0  0  0  0  0  0  0  0  0  0
   10.6080  -15.9640   -1.7390 O   0  0  0  0  0  0  0  0  0  0  0  0
   11.6160  -13.8370   -2.2290 C   0  0  0  0  0  0  0  0  0  0  0  0
   12.0370  -14.1970   -3.6070 C   0  0  0  0  0  0  0  0  0  0  0  0
   13.1710  -14.9800   -3.8370 C   0  0  0  0  0  0  0  0  0  0  0  0
   13.5130  -15.3320   -5.1400 C   0  0  0  0  0  0  0  0  0  0  0  0
   12.7110  -14.9070   -6.1880 C   0  0  0  0  0  0  0  0  0  0  0  0
   11.5940  -14.1460   -5.8850 C   0  0  0  0  0  0  0  0  0  0  0  0
   11.2340  -13.7910   -4.6360 N   0  0  0  0  0  0  0  0  0  0  0  0
   12.1900  -12.8030   -1.5500 C   0  0  0  0  0  0  0  0  0  0  0  0
   13.1040  -11.9690   -1.8650 O   0  0  0  0  0  0  0  0  0  0  0  0
    8.1053  -11.4519    0.7667 H   0  0  0  0  0  0  0  0  0  0  0  0
    6.0432  -14.9713   -0.6259 H   0  0  0  0  0  0  0  0  0  0  0  0
    8.1779  -15.8337   -1.5774 H   0  0  0  0  0  0  0  0  0  0  0  0
   13.7906  -15.3168   -2.9928 H   0  0  0  0  0  0  0  0  0  0  0  0
   14.4087  -15.9399   -5.3355 H   0  0  0  0  0  0  0  0  0  0  0  0
   12.9544  -15.1664   -7.2289 H   0  0  0  0  0  0  0  0  0  0  0  0
   10.9595  -13.8096   -6.7182 H   0  0  0  0  0  0  0  0  0  0  0  0
  1  2  2  0
  2  3  1  0
  3  4  1  0
  4  5  2  0
  5  6  1  0
  6  7  1  0
  6  8  2  0
  8  9  1  0
  9 10  2  0
 10 11  1  0
 11 12  2  0
 11 13  1  0
 13 14  1  0
 14 15  2  0
 15 16  1  0
 16 17  2  0
 17 18  1  0
 18 19  2  0
 13 20  2  0
 20 21  1  0
 20  2  1  0
 10  4  1  0
 19 14  1  0
  5 22  1  0
  8 23  1  0
  9 24  1  0
 15 25  1  0
 16 26  1  0
 17 27  1  0
 18 28  1  0
M  CHG  2   3  -1  21  -1
M  END
>  <meeko>  (8) 
{"is_sidechain": [false], "free_energy": -4.692, "intermolecular_energy": -6.117, "internal_energy": 0.952}

$$$$
LIB_HNFAIDZLGLIFJG__M_PUB_ALL__e8__s20260927
     RDKit          3D

 28 30  0  0  0  0  0  0  0  0999 V2000
    9.3300  -14.4100   -6.0140 O   0  0  0  0  0  0  0  0  0  0  0  0
    9.0630  -14.6260   -4.8300 C   0  0  0  0  0  0  0  0  0  0  0  0
    7.8800  -15.0460   -4.3570 N   0  0  0  0  0  0  0  0  0  0  0  0
    7.0380  -14.0710   -3.9320 C   0  0  0  0  0  0  0  0  0  0  0  0
    5.6670  -14.4000   -3.8570 C   0  0  0  0  0  0  0  0  0  0  0  0
    4.7040  -13.4680   -3.4700 C   0  0  0  0  0  0  0  0  0  0  0  0
    3.0390  -13.9180   -3.4050 Cl  0  0  0  0  0  0  0  0  0  0  0  0
    5.0740  -12.1730   -3.1380 C   0  0  0  0  0  0  0  0  0  0  0  0
    6.4220  -11.8220   -3.1850 C   0  0  0  0  0  0  0  0  0  0  0  0
    7.4100  -12.7560   -3.5640 C   0  0  0  0  0  0  0  0  0  0  0  0
    8.8210  -12.2550   -3.5140 C   0  0  0  0  0  0  0  0  0  0  0  0
    9.0290  -11.0450   -3.6810 O   0  0  0  0  0  0  0  0  0  0  0  0
    9.9290  -13.1910   -3.1330 C   0  0  0  0  0  0  0  0  0  0  0  0
   10.8660  -12.6820   -2.0990 C   0  0  0  0  0  0  0  0  0  0  0  0
   10.6330  -12.9000   -0.7390 C   0  0  0  0  0  0  0  0  0  0  0  0
   11.5530  -12.4440    0.2010 C   0  0  0  0  0  0  0  0  0  0  0  0
   12.6950  -11.7880   -0.2330 C   0  0  0  0  0  0  0  0  0  0  0  0
   12.8680  -11.6200   -1.5970 C   0  0  0  0  0  0  0  0  0  0  0  0
   11.9990  -12.0510   -2.5320 N   0  0  0  0  0  0  0  0  0  0  0  0
   10.1080  -14.4040   -3.7290 C   0  0  0  0  0  0  0  0  0  0  0  0
   10.9900  -15.3150   -3.5790 O   0  0  0  0  0  0  0  0  0  0  0  0
    5.3488  -15.4218   -4.1113 H   0  0  0  0  0  0  0  0  0  0  0  0
    4.3148  -11.4341   -2.8420 H   0  0  0  0  0  0  0  0  0  0  0  0
    6.7218  -10.7970   -2.9216 H   0  0  0  0  0  0  0  0  0  0  0  0
    9.7261  -13.4299   -0.4121 H   0  0  0  0  0  0  0  0  0  0  0  0
   11.3762  -12.6022    1.2751 H   0  0  0  0  0  0  0  0  0  0  0  0
   13.4404  -11.4127    0.4837 H   0  0  0  0  0  0  0  0  0  0  0  0
   13.7750  -11.1003   -1.9395 H   0  0  0  0  0  0  0  0  0  0  0  0
  1  2  2  0
  2  3  1  0
  3  4  1  0
  4  5  2  0
  5  6  1  0
  6  7  1  0
  6  8  2  0
  8  9  1  0
  9 10  2  0
 10 11  1  0
 11 12  2  0
 11 13  1  0
 13 14  1  0
 14 15  2  0
 15 16  1  0
 16 17  2  0
 17 18  1  0
 18 19  2  0
 13 20  2  0
 20 21  1  0
 20  2  1  0
 10  4  1  0
 19 14  1  0
  5 22  1  0
  8 23  1  0
  9 24  1  0
 15 25  1  0
 16 26  1  0
 17 27  1  0
 18 28  1  0
M  CHG  2   3  -1  21  -1
M  END
>  <meeko>  (9) 
{"is_sidechain": [false], "free_energy": -4.623, "intermolecular_energy": -6.004, "internal_energy": 0.929}

$$$$
