LIB_DNDVGFIEWOHGAH__H_AF__e8__s20260927
     RDKit          3D

 68 73  0  0  0  0  0  0  0  0999 V2000
   12.0990  -18.5080   -6.6330 C   0  0  0  0  0  0  0  0  0  0  0  0
   12.1920  -18.3050   -5.1520 N   0  0  0  0  0  0  0  0  0  0  0  0
   12.2340  -16.8130   -4.7890 C   0  0  0  0  0  0  0  0  0  0  0  0
   12.3350  -16.6380   -3.2570 C   0  0  0  0  0  0  0  0  0  0  0  0
   11.2850  -17.3920   -2.5570 N   0  0  0  0  0  0  0  0  0  0  0  0
   10.0580  -16.7410   -2.4390 C   0  0  0  0  0  0  0  0  0  0  0  0
    8.8940  -17.4690   -2.2190 C   0  0  0  0  0  0  0  0  0  0  0  0
    7.6690  -16.8050   -2.1090 C   0  0  0  0  0  0  0  0  0  0  0  0
    7.6170  -15.4150   -2.2170 C   0  0  0  0  0  0  0  0  0  0  0  0
    6.3530  -14.7030   -2.1060 C   0  0  0  0  0  0  0  0  0  0  0  0
    5.4250  -14.3550   -3.1080 C   0  0  0  0  0  0  0  0  0  0  0  0
    4.3600  -13.7110   -2.6430 N   0  0  0  0  0  0  0  0  0  0  0  0
    4.5510  -13.6470   -1.2970 N   0  0  0  0  0  0  0  0  0  0  0  0
    3.6990  -13.0990   -0.3170 C   0  0  0  0  0  0  0  0  0  0  0  0
    2.3960  -12.4820   -0.6540 C   0  0  0  0  0  0  0  0  0  0  0  0
    2.3130  -11.4570   -1.6040 C   0  0  0  0  0  0  0  0  0  0  0  0
    1.0820  -10.8780   -1.9120 C   0  0  0  0  0  0  0  0  0  0  0  0
   -0.0770  -11.3140   -1.2680 C   0  0  0  0  0  0  0  0  0  0  0  0
   -0.0190  -12.3310   -0.3100 C   0  0  0  0  0  0  0  0  0  0  0  0
   -1.2320  -12.7150    0.3020 N   0  0  0  0  0  0  0  0  0  0  0  0
   -1.7690  -12.2180    1.4750 C   0  0  0  0  0  0  0  0  0  0  0  0
   -1.3390  -11.2820    2.1400 O   0  0  0  0  0  0  0  0  0  0  0  0
   -3.0290  -12.8770    1.9220 C   0  0  0  0  0  0  0  0  0  0  0  0
   -3.0210  -13.9620    2.8060 C   0  0  0  0  0  0  0  0  0  0  0  0
   -4.2240  -14.5490    3.2000 C   0  0  0  0  0  0  0  0  0  0  0  0
   -5.4380  -14.0500    2.7230 C   0  0  0  0  0  0  0  0  0  0  0  0
   -5.4660  -12.9450    1.8580 C   0  0  0  0  0  0  0  0  0  0  0  0
   -6.7740  -12.4050    1.3320 C   0  0  0  0  0  0  0  0  0  0  0  0
   -7.1720  -11.2620    1.9550 F   0  0  0  0  0  0  0  0  0  0  0  0
   -7.7950  -13.2920    1.4880 F   0  0  0  0  0  0  0  0  0  0  0  0
   -6.7320  -12.1100    0.0040 F   0  0  0  0  0  0  0  0  0  0  0  0
   -4.2500  -12.3650    1.4600 C   0  0  0  0  0  0  0  0  0  0  0  0
    1.2170  -12.9160   -0.0190 C   0  0  0  0  0  0  0  0  0  0  0  0
    4.0850  -13.1310    0.9730 C   0  0  0  0  0  0  0  0  0  0  0  0
    5.3980  -13.7600    1.2480 C   0  0  0  0  0  0  0  0  0  0  0  0
    6.2060  -14.2710    0.3690 N   0  0  0  0  0  0  0  0  0  0  0  0
    5.7850  -14.2280   -0.9350 C   0  0  0  0  0  0  0  0  0  0  0  0
    8.8290  -14.7720   -2.4420 C   0  0  0  0  0  0  0  0  0  0  0  0
   10.0320  -15.4010   -2.5640 N   0  0  0  0  0  0  0  0  0  0  0  0
   11.2120  -18.8220   -2.8790 C   0  0  0  0  0  0  0  0  0  0  0  0
   11.0600  -19.0200   -4.4050 C   0  0  0  0  0  0  0  0  0  0  0  0
   11.6491  -19.4900   -6.8410 H   0  0  0  0  0  0  0  0  0  0  0  0
   11.4733  -17.7175   -7.0729 H   0  0  0  0  0  0  0  0  0  0  0  0
   13.1063  -18.4656   -7.0729 H   0  0  0  0  0  0  0  0  0  0  0  0
   13.0770  -18.7140   -4.8300 H   0  0  0  0  0  0  0  0  0  0  0  0
   13.1091  -16.3477   -5.2661 H   0  0  0  0  0  0  0  0  0  0  0  0
   11.3112  -16.3314   -5.1447 H   0  0  0  0  0  0  0  0  0  0  0  0
   13.3183  -16.9983   -2.9204 H   0  0  0  0  0  0  0  0  0  0  0  0
   12.2072  -15.5708   -3.0229 H   0  0  0  0  0  0  0  0  0  0  0  0
    8.9371  -18.5647   -2.1317 H   0  0  0  0  0  0  0  0  0  0  0  0
    6.7460  -17.3783   -1.9373 H   0  0  0  0  0  0  0  0  0  0  0  0
    5.5686  -14.5935   -4.1722 H   0  0  0  0  0  0  0  0  0  0  0  0
    3.2242  -11.1061   -2.1106 H   0  0  0  0  0  0  0  0  0  0  0  0
    1.0245  -10.0767   -2.6634 H   0  0  0  0  0  0  0  0  0  0  0  0
   -1.0446  -10.8535   -1.5163 H   0  0  0  0  0  0  0  0  0  0  0  0
   -1.7850  -13.3890   -0.2110 H   0  0  0  0  0  0  0  0  0  0  0  0
   -2.0668  -14.3518    3.1900 H   0  0  0  0  0  0  0  0  0  0  0  0
   -4.2161  -15.4071    3.8882 H   0  0  0  0  0  0  0  0  0  0  0  0
   -6.3809  -14.5273    3.0280 H   0  0  0  0  0  0  0  0  0  0  0  0
   -4.2557  -11.5009    0.7794 H   0  0  0  0  0  0  0  0  0  0  0  0
    1.2691  -13.7298    0.7192 H   0  0  0  0  0  0  0  0  0  0  0  0
    3.4608  -12.7138    1.7769 H   0  0  0  0  0  0  0  0  0  0  0  0
    5.7198  -13.7979    2.2992 H   0  0  0  0  0  0  0  0  0  0  0  0
    8.8161  -13.6754   -2.5278 H   0  0  0  0  0  0  0  0  0  0  0  0
   12.1326  -19.3184   -2.5384 H   0  0  0  0  0  0  0  0  0  0  0  0
   10.3392  -19.2594   -2.3722 H   0  0  0  0  0  0  0  0  0  0  0  0
   11.0953  -20.0948   -4.6363 H   0  0  0  0  0  0  0  0  0  0  0  0
   10.0971  -18.5958   -4.7257 H   0  0  0  0  0  0  0  0  0  0  0  0
  1  2  1  0
  2  3  1  0
  3  4  1  0
  4  5  1  0
  5  6  1  0
  6  7  2  0
  7  8  1  0
  8  9  2  0
  9 10  1  0
 10 11  1  0
 11 12  2  0
 12 13  1  0
 13 14  1  0
 14 15  1  0
 15 16  2  0
 16 17  1  0
 17 18  2  0
 18 19  1  0
 19 20  1  0
 20 21  1  0
 21 22  2  0
 21 23  1  0
 23 24  2  0
 24 25  1  0
 25 26  2  0
 26 27  1  0
 27 28  1  0
 28 29  1  0
 28 30  1  0
 28 31  1  0
 27 32  2  0
 19 33  2  0
 14 34  2  0
 34 35  1  0
 35 36  2  0
 36 37  1  0
  9 38  1  0
 38 39  2  0
  5 40  1  0
 40 41  1  0
 41  2  1  0
 39  6  1  0
 37 10  2  0
 37 13  1  0
 33 15  1  0
 32 23  1  0
  1 42  1  0
  1 43  1  0
  1 44  1  0
  2 45  1  0
  3 46  1  0
  3 47  1  0
  4 48  1  0
  4 49  1  0
  7 50  1  0
  8 51  1  0
 11 52  1  0
 16 53  1  0
 17 54  1  0
 18 55  1  0
 20 56  1  0
 24 57  1  0
 25 58  1  0
 26 59  1  0
 32 60  1  0
 33 61  1  0
 34 62  1  0
 35 63  1  0
 38 64  1  0
 40 65  1  0
 40 66  1  0
 41 67  1  0
 41 68  1  0
M  CHG  1   2   1
M  END
>  <meeko>  (1) 
{"is_sidechain": [false], "free_energy": -11.102, "intermolecular_energy": -14.996, "internal_energy": -0.965}

$$$$
LIB_DNDVGFIEWOHGAH__H_AF__e8__s20260927
     RDKit          3D

 68 73  0  0  0  0  0  0  0  0999 V2000
   -2.0080  -15.1270    5.4640 C   0  0  0  0  0  0  0  0  0  0  0  0
   -2.4930  -14.2050    4.3880 N   0  0  0  0  0  0  0  0  0  0  0  0
   -1.5680  -12.9880    4.2290 C   0  0  0  0  0  0  0  0  0  0  0  0
   -2.0980  -12.0550    3.1180 C   0  0  0  0  0  0  0  0  0  0  0  0
   -2.3380  -12.7880    1.8660 N   0  0  0  0  0  0  0  0  0  0  0  0
   -1.2240  -12.9510    1.0450 C   0  0  0  0  0  0  0  0  0  0  0  0
   -0.6280  -11.8490    0.4400 C   0  0  0  0  0  0  0  0  0  0  0  0
    0.4860  -12.0270   -0.3850 C   0  0  0  0  0  0  0  0  0  0  0  0
    0.9990  -13.3060   -0.5990 C   0  0  0  0  0  0  0  0  0  0  0  0
    2.1560  -13.5150   -1.4550 C   0  0  0  0  0  0  0  0  0  0  0  0
    2.5360  -12.8450   -2.6350 C   0  0  0  0  0  0  0  0  0  0  0  0
    3.6740  -13.2920   -3.1550 N   0  0  0  0  0  0  0  0  0  0  0  0
    4.0920  -14.2630   -2.2980 N   0  0  0  0  0  0  0  0  0  0  0  0
    5.2690  -15.0370   -2.3590 C   0  0  0  0  0  0  0  0  0  0  0  0
    6.2670  -14.8780   -3.4400 C   0  0  0  0  0  0  0  0  0  0  0  0
    6.0760  -15.4820   -4.6870 C   0  0  0  0  0  0  0  0  0  0  0  0
    7.0250  -15.3310   -5.6980 C   0  0  0  0  0  0  0  0  0  0  0  0
    8.1780  -14.5790   -5.4690 C   0  0  0  0  0  0  0  0  0  0  0  0
    8.3960  -13.9710   -4.2280 C   0  0  0  0  0  0  0  0  0  0  0  0
    9.5870  -13.2300   -4.0700 N   0  0  0  0  0  0  0  0  0  0  0  0
   10.7020  -13.5900   -3.3350 C   0  0  0  0  0  0  0  0  0  0  0  0
   10.8960  -14.6620   -2.7750 O   0  0  0  0  0  0  0  0  0  0  0  0
   11.7820  -12.5630   -3.2840 C   0  0  0  0  0  0  0  0  0  0  0  0
   12.7820  -12.4960   -4.2620 C   0  0  0  0  0  0  0  0  0  0  0  0
   13.7750  -11.5190   -4.1770 C   0  0  0  0  0  0  0  0  0  0  0  0
   13.7660  -10.5990   -3.1270 C   0  0  0  0  0  0  0  0  0  0  0  0
   12.7560  -10.6340   -2.1540 C   0  0  0  0  0  0  0  0  0  0  0  0
   12.7450   -9.6490   -1.0110 C   0  0  0  0  0  0  0  0  0  0  0  0
   13.6960   -9.9070   -0.0710 F   0  0  0  0  0  0  0  0  0  0  0  0
   11.5560   -9.6450   -0.3480 F   0  0  0  0  0  0  0  0  0  0  0  0
   12.9560   -8.3660   -1.4120 F   0  0  0  0  0  0  0  0  0  0  0  0
   11.7650  -11.6260   -2.2420 C   0  0  0  0  0  0  0  0  0  0  0  0
    7.4320  -14.1160   -3.2260 C   0  0  0  0  0  0  0  0  0  0  0  0
    5.4900  -15.9600   -1.4030 C   0  0  0  0  0  0  0  0  0  0  0  0
    4.4550  -16.0730   -0.3490 C   0  0  0  0  0  0  0  0  0  0  0  0
    3.3610  -15.3790   -0.2670 N   0  0  0  0  0  0  0  0  0  0  0  0
    3.1640  -14.4430   -1.2510 C   0  0  0  0  0  0  0  0  0  0  0  0
    0.3350  -14.3470    0.0410 C   0  0  0  0  0  0  0  0  0  0  0  0
   -0.7580  -14.1980    0.8410 N   0  0  0  0  0  0  0  0  0  0  0  0
   -3.2160  -13.9600    1.9770 C   0  0  0  0  0  0  0  0  0  0  0  0
   -2.6770  -14.9330    3.0520 C   0  0  0  0  0  0  0  0  0  0  0  0
   -2.2361  -14.6933    6.4488 H   0  0  0  0  0  0  0  0  0  0  0  0
   -2.5107  -16.1006    5.3667 H   0  0  0  0  0  0  0  0  0  0  0  0
   -0.9209  -15.2643    5.3667 H   0  0  0  0  0  0  0  0  0  0  0  0
   -3.4130  -13.8450    4.6690 H   0  0  0  0  0  0  0  0  0  0  0  0
   -1.5286  -12.4352    5.1792 H   0  0  0  0  0  0  0  0  0  0  0  0
   -0.5614  -13.3364    3.9544 H   0  0  0  0  0  0  0  0  0  0  0  0
   -3.0424  -11.6013    3.4530 H   0  0  0  0  0  0  0  0  0  0  0  0
   -1.3386  -11.2829    2.9251 H   0  0  0  0  0  0  0  0  0  0  0  0
   -1.0325  -10.8404    0.6105 H   0  0  0  0  0  0  0  0  0  0  0  0
    0.9584  -11.1577   -0.8658 H   0  0  0  0  0  0  0  0  0  0  0  0
    1.9473  -12.0306   -3.0824 H   0  0  0  0  0  0  0  0  0  0  0  0
    5.1714  -16.0800   -4.8716 H   0  0  0  0  0  0  0  0  0  0  0  0
    6.8643  -15.8054   -6.6773 H   0  0  0  0  0  0  0  0  0  0  0  0
    8.9218  -14.4633   -6.2711 H   0  0  0  0  0  0  0  0  0  0  0  0
    9.6400  -12.3690   -4.5990 H   0  0  0  0  0  0  0  0  0  0  0  0
   12.7849  -13.2127   -5.0964 H   0  0  0  0  0  0  0  0  0  0  0  0
   14.5668  -11.4737   -4.9393 H   0  0  0  0  0  0  0  0  0  0  0  0
   14.5587   -9.8391   -3.0620 H   0  0  0  0  0  0  0  0  0  0  0  0
   10.9677  -11.6676   -1.4853 H   0  0  0  0  0  0  0  0  0  0  0  0
    7.5861  -13.6263   -2.2532 H   0  0  0  0  0  0  0  0  0  0  0  0
    6.3887  -16.5943   -1.4048 H   0  0  0  0  0  0  0  0  0  0  0  0
    4.6307  -16.8177    0.4413 H   0  0  0  0  0  0  0  0  0  0  0  0
    0.7207  -15.3661   -0.1098 H   0  0  0  0  0  0  0  0  0  0  0  0
   -4.2270  -13.6309    2.2592 H   0  0  0  0  0  0  0  0  0  0  0  0
   -3.2461  -14.4783    1.0073 H   0  0  0  0  0  0  0  0  0  0  0  0
   -3.3918  -15.7586    3.1846 H   0  0  0  0  0  0  0  0  0  0  0  0
   -1.7035  -15.3249    2.7224 H   0  0  0  0  0  0  0  0  0  0  0  0
  1  2  1  0
  2  3  1  0
  3  4  1  0
  4  5  1  0
  5  6  1  0
  6  7  2  0
  7  8  1  0
  8  9  2  0
  9 10  1  0
 10 11  1  0
 11 12  2  0
 12 13  1  0
 13 14  1  0
 14 15  1  0
 15 16  2  0
 16 17  1  0
 17 18  2  0
 18 19  1  0
 19 20  1  0
 20 21  1  0
 21 22  2  0
 21 23  1  0
 23 24  2  0
 24 25  1  0
 25 26  2  0
 26 27  1  0
 27 28  1  0
 28 29  1  0
 28 30  1  0
 28 31  1  0
 27 32  2  0
 19 33  2  0
 14 34  2  0
 34 35  1  0
 35 36  2  0
 36 37  1  0
  9 38  1  0
 38 39  2  0
  5 40  1  0
 40 41  1  0
 41  2  1  0
 39  6  1  0
 37 10  2  0
 37 13  1  0
 33 15  1  0
 32 23  1  0
  1 42  1  0
  1 43  1  0
  1 44  1  0
  2 45  1  0
  3 46  1  0
  3 47  1  0
  4 48  1  0
  4 49  1  0
  7 50  1  0
  8 51  1  0
 11 52  1  0
 16 53  1  0
 17 54  1  0
 18 55  1  0
 20 56  1  0
 24 57  1  0
 25 58  1  0
 26 59  1  0
 32 60  1  0
 33 61  1  0
 34 62  1  0
 35 63  1  0
 38 64  1  0
 40 65  1  0
 40 66  1  0
 41 67  1  0
 41 68  1  0
M  CHG  1   2   1
M  END
>  <meeko>  (2) 
{"is_sidechain": [false], "free_energy": -10.929, "intermolecular_energy": -14.967, "internal_energy": -0.761}

$$$$
LIB_DNDVGFIEWOHGAH__H_AF__e8__s20260927
     RDKit          3D

 68 73  0  0  0  0  0  0  0  0999 V2000
   11.6500  -20.2820   -2.5240 C   0  0  0  0  0  0  0  0  0  0  0  0
   11.6150  -19.2600   -3.6180 N   0  0  0  0  0  0  0  0  0  0  0  0
   10.3520  -19.4030   -4.4830 C   0  0  0  0  0  0  0  0  0  0  0  0
   10.3480  -18.3410   -5.6030 C   0  0  0  0  0  0  0  0  0  0  0  0
   10.5510  -16.9870   -5.0650 N   0  0  0  0  0  0  0  0  0  0  0  0
    9.4010  -16.3470   -4.6060 C   0  0  0  0  0  0  0  0  0  0  0  0
    8.1430  -16.8160   -4.9690 C   0  0  0  0  0  0  0  0  0  0  0  0
    6.9970  -16.1620   -4.5060 C   0  0  0  0  0  0  0  0  0  0  0  0
    7.1180  -15.0440   -3.6800 C   0  0  0  0  0  0  0  0  0  0  0  0
    5.9400  -14.3480   -3.1870 C   0  0  0  0  0  0  0  0  0  0  0  0
    5.3430  -13.1550   -3.6420 C   0  0  0  0  0  0  0  0  0  0  0  0
    4.2570  -12.8120   -2.9590 N   0  0  0  0  0  0  0  0  0  0  0  0
    4.0920  -13.8050   -2.0430 N   0  0  0  0  0  0  0  0  0  0  0  0
    3.0650  -13.9540   -1.0890 C   0  0  0  0  0  0  0  0  0  0  0  0
    1.9590  -12.9800   -0.9550 C   0  0  0  0  0  0  0  0  0  0  0  0
    2.0900  -11.6750   -1.4440 C   0  0  0  0  0  0  0  0  0  0  0  0
    1.0440  -10.7620   -1.3090 C   0  0  0  0  0  0  0  0  0  0  0  0
   -0.1410  -11.1430   -0.6770 C   0  0  0  0  0  0  0  0  0  0  0  0
   -0.2920  -12.4390   -0.1730 C   0  0  0  0  0  0  0  0  0  0  0  0
   -1.5180  -12.7500    0.4560 N   0  0  0  0  0  0  0  0  0  0  0  0
   -1.7010  -13.1810    1.7570 C   0  0  0  0  0  0  0  0  0  0  0  0
   -0.8430  -13.2700    2.6280 O   0  0  0  0  0  0  0  0  0  0  0  0
   -3.1090  -13.5120    2.1200 C   0  0  0  0  0  0  0  0  0  0  0  0
   -3.4130  -14.4470    3.1170 C   0  0  0  0  0  0  0  0  0  0  0  0
   -4.7450  -14.7270    3.4260 C   0  0  0  0  0  0  0  0  0  0  0  0
   -5.7750  -14.0680    2.7530 C   0  0  0  0  0  0  0  0  0  0  0  0
   -5.4880  -13.1080    1.7710 C   0  0  0  0  0  0  0  0  0  0  0  0
   -6.5970  -12.3980    1.0330 C   0  0  0  0  0  0  0  0  0  0  0  0
   -7.8170  -12.9720    1.2170 F   0  0  0  0  0  0  0  0  0  0  0  0
   -6.3890  -12.3810   -0.3130 F   0  0  0  0  0  0  0  0  0  0  0  0
   -6.7370  -11.0970    1.4070 F   0  0  0  0  0  0  0  0  0  0  0  0
   -4.1450  -12.8370    1.4600 C   0  0  0  0  0  0  0  0  0  0  0  0
    0.7550  -13.3520   -0.3270 C   0  0  0  0  0  0  0  0  0  0  0  0
    3.0950  -15.0180   -0.2630 C   0  0  0  0  0  0  0  0  0  0  0  0
    4.2270  -15.9570   -0.4440 C   0  0  0  0  0  0  0  0  0  0  0  0
    5.1870  -15.8470   -1.3100 N   0  0  0  0  0  0  0  0  0  0  0  0
    5.1290  -14.7560   -2.1410 C   0  0  0  0  0  0  0  0  0  0  0  0
    8.4140  -14.6450   -3.3750 C   0  0  0  0  0  0  0  0  0  0  0  0
    9.5440  -15.2610   -3.8240 N   0  0  0  0  0  0  0  0  0  0  0  0
   11.7470  -16.8100   -4.2320 C   0  0  0  0  0  0  0  0  0  0  0  0
   11.7470  -17.8340   -3.0730 C   0  0  0  0  0  0  0  0  0  0  0  0
   11.6326  -19.7750   -1.5479 H   0  0  0  0  0  0  0  0  0  0  0  0
   10.7739  -20.9416   -2.6102 H   0  0  0  0  0  0  0  0  0  0  0  0
   12.5692  -20.8801   -2.6102 H   0  0  0  0  0  0  0  0  0  0  0  0
   12.4180  -19.4270   -4.2360 H   0  0  0  0  0  0  0  0  0  0  0  0
   10.3324  -20.4062   -4.9338 H   0  0  0  0  0  0  0  0  0  0  0  0
    9.4651  -19.2581   -3.8487 H   0  0  0  0  0  0  0  0  0  0  0  0
   11.1567  -18.5680   -6.3133 H   0  0  0  0  0  0  0  0  0  0  0  0
    9.3680  -18.3701   -6.1017 H   0  0  0  0  0  0  0  0  0  0  0  0
    8.0498  -17.6989   -5.6185 H   0  0  0  0  0  0  0  0  0  0  0  0
    6.0004  -16.5288   -4.7929 H   0  0  0  0  0  0  0  0  0  0  0  0
    5.7385  -12.5649   -4.4819 H   0  0  0  0  0  0  0  0  0  0  0  0
    3.0236  -11.3675   -1.9378 H   0  0  0  0  0  0  0  0  0  0  0  0
    1.1531   -9.7401   -1.7012 H   0  0  0  0  0  0  0  0  0  0  0  0
   -0.9623  -10.4184   -0.5746 H   0  0  0  0  0  0  0  0  0  0  0  0
   -2.3480  -12.5850   -0.0980 H   0  0  0  0  0  0  0  0  0  0  0  0
   -2.6030  -14.9602    3.6560 H   0  0  0  0  0  0  0  0  0  0  0  0
   -4.9837  -15.4691    4.2021 H   0  0  0  0  0  0  0  0  0  0  0  0
   -6.8219  -14.3036    2.9949 H   0  0  0  0  0  0  0  0  0  0  0  0
   -3.9043  -12.0880    0.6912 H   0  0  0  0  0  0  0  0  0  0  0  0
    0.6363  -14.3789    0.0489 H   0  0  0  0  0  0  0  0  0  0  0  0
    2.3224  -15.1806    0.5029 H   0  0  0  0  0  0  0  0  0  0  0  0
    4.2563  -16.8329    0.2208 H   0  0  0  0  0  0  0  0  0  0  0  0
    8.5368  -13.7674   -2.7232 H   0  0  0  0  0  0  0  0  0  0  0  0
   12.6451  -16.9598   -4.8492 H   0  0  0  0  0  0  0  0  0  0  0  0
   11.7449  -15.7931   -3.8125 H   0  0  0  0  0  0  0  0  0  0  0  0
   12.6893  -17.7464   -2.5123 H   0  0  0  0  0  0  0  0  0  0  0  0
   10.8925  -17.6246   -2.4127 H   0  0  0  0  0  0  0  0  0  0  0  0
  1  2  1  0
  2  3  1  0
  3  4  1  0
  4  5  1  0
  5  6  1  0
  6  7  2  0
  7  8  1  0
  8  9  2  0
  9 10  1  0
 10 11  1  0
 11 12  2  0
 12 13  1  0
 13 14  1  0
 14 15  1  0
 15 16  2  0
 16 17  1  0
 17 18  2  0
 18 19  1  0
 19 20  1  0
 20 21  1  0
 21 22  2  0
 21 23  1  0
 23 24  2  0
 24 25  1  0
 25 26  2  0
 26 27  1  0
 27 28  1  0
 28 29  1  0
 28 30  1  0
 28 31  1  0
 27 32  2  0
 19 33  2  0
 14 34  2  0
 34 35  1  0
 35 36  2  0
 36 37  1  0
  9 38  1  0
 38 39  2  0
  5 40  1  0
 40 41  1  0
 41  2  1  0
 39  6  1  0
 37 10  2  0
 37 13  1  0
 33 15  1  0
 32 23  1  0
  1 42  1  0
  1 43  1  0
  1 44  1  0
  2 45  1  0
  3 46  1  0
  3 47  1  0
  4 48  1  0
  4 49  1  0
  7 50  1  0
  8 51  1  0
 11 52  1  0
 16 53  1  0
 17 54  1  0
 18 55  1  0
 20 56  1  0
 24 57  1  0
 25 58  1  0
 26 59  1  0
 32 60  1  0
 33 61  1  0
 34 62  1  0
 35 63  1  0
 38 64  1  0
 40 65  1  0
 40 66  1  0
 41 67  1  0
 41 68  1  0
M  CHG  1   2   1
M  END
>  <meeko>  (3) 
{"is_sidechain": [false], "free_energy": -10.847, "intermolecular_energy": -14.99, "internal_energy": -0.627}

$$$$
LIB_DNDVGFIEWOHGAH__H_AF__e8__s20260927
     RDKit          3D

 68 73  0  0  0  0  0  0  0  0999 V2000
   13.0070  -13.7580   -9.9900 C   0  0  0  0  0  0  0  0  0  0  0  0
   12.5750  -14.9830   -9.2470 N   0  0  0  0  0  0  0  0  0  0  0  0
   12.6170  -14.7650   -7.7260 C   0  0  0  0  0  0  0  0  0  0  0  0
   12.1710  -16.0470   -6.9890 C   0  0  0  0  0  0  0  0  0  0  0  0
   10.8750  -16.5330   -7.4850 N   0  0  0  0  0  0  0  0  0  0  0  0
    9.7530  -15.9420   -6.9060 C   0  0  0  0  0  0  0  0  0  0  0  0
    8.5300  -15.9540   -7.5700 C   0  0  0  0  0  0  0  0  0  0  0  0
    7.4140  -15.3530   -6.9800 C   0  0  0  0  0  0  0  0  0  0  0  0
    7.5270  -14.7460   -5.7300 C   0  0  0  0  0  0  0  0  0  0  0  0
    6.3800  -14.1140   -5.0980 C   0  0  0  0  0  0  0  0  0  0  0  0
    5.5060  -13.1280   -5.5990 C   0  0  0  0  0  0  0  0  0  0  0  0
    4.5470  -12.7870   -4.7450 N   0  0  0  0  0  0  0  0  0  0  0  0
    4.7510  -13.5780   -3.6560 N   0  0  0  0  0  0  0  0  0  0  0  0
    3.9910  -13.6500   -2.4710 C   0  0  0  0  0  0  0  0  0  0  0  0
    2.7890  -12.8150   -2.2490 C   0  0  0  0  0  0  0  0  0  0  0  0
    2.6100  -11.6150   -2.9460 C   0  0  0  0  0  0  0  0  0  0  0  0
    1.4770  -10.8320   -2.7250 C   0  0  0  0  0  0  0  0  0  0  0  0
    0.5140  -11.2400   -1.8010 C   0  0  0  0  0  0  0  0  0  0  0  0
    0.6730  -12.4320   -1.0870 C   0  0  0  0  0  0  0  0  0  0  0  0
   -0.3410  -12.7760   -0.1670 N   0  0  0  0  0  0  0  0  0  0  0  0
   -1.3440  -13.7130   -0.3430 C   0  0  0  0  0  0  0  0  0  0  0  0
   -1.4690  -14.4850   -1.2870 O   0  0  0  0  0  0  0  0  0  0  0  0
   -2.3260  -13.8030    0.7750 C   0  0  0  0  0  0  0  0  0  0  0  0
   -1.9900  -14.3760    2.0070 C   0  0  0  0  0  0  0  0  0  0  0  0
   -2.9400  -14.4400    3.0280 C   0  0  0  0  0  0  0  0  0  0  0  0
   -4.2210  -13.9220    2.8280 C   0  0  0  0  0  0  0  0  0  0  0  0
   -4.5660  -13.3180    1.6090 C   0  0  0  0  0  0  0  0  0  0  0  0
   -5.9510  -12.7630    1.3830 C   0  0  0  0  0  0  0  0  0  0  0  0
   -6.9070  -13.3900    2.1230 F   0  0  0  0  0  0  0  0  0  0  0  0
   -6.3450  -12.8810    0.0850 F   0  0  0  0  0  0  0  0  0  0  0  0
   -6.0510  -11.4410    1.6880 F   0  0  0  0  0  0  0  0  0  0  0  0
   -3.6070  -13.2650    0.5840 C   0  0  0  0  0  0  0  0  0  0  0  0
    1.8050  -13.2170   -1.3260 C   0  0  0  0  0  0  0  0  0  0  0  0
    4.3740  -14.5040   -1.5030 C   0  0  0  0  0  0  0  0  0  0  0  0
    5.5850  -15.3110   -1.7840 C   0  0  0  0  0  0  0  0  0  0  0  0
    6.3080  -15.2660   -2.8610 N   0  0  0  0  0  0  0  0  0  0  0  0
    5.8900  -14.3910   -3.8320 C   0  0  0  0  0  0  0  0  0  0  0  0
    8.7880  -14.7790   -5.1450 C   0  0  0  0  0  0  0  0  0  0  0  0
    9.8920  -15.3490   -5.7060 N   0  0  0  0  0  0  0  0  0  0  0  0
   10.7950  -16.7530   -8.9340 C   0  0  0  0  0  0  0  0  0  0  0  0
   11.1900  -15.4650   -9.6940 C   0  0  0  0  0  0  0  0  0  0  0  0
   13.2841  -12.9722   -9.2718 H   0  0  0  0  0  0  0  0  0  0  0  0
   13.8742  -13.9994  -10.6222 H   0  0  0  0  0  0  0  0  0  0  0  0
   12.1802  -13.4019  -10.6222 H   0  0  0  0  0  0  0  0  0  0  0  0
   13.2420  -15.7360   -9.4570 H   0  0  0  0  0  0  0  0  0  0  0  0
   13.6438  -14.5112   -7.4239 H   0  0  0  0  0  0  0  0  0  0  0  0
   11.9334  -13.9444   -7.4628 H   0  0  0  0  0  0  0  0  0  0  0  0
   12.9286  -16.8295   -7.1434 H   0  0  0  0  0  0  0  0  0  0  0  0
   12.0635  -15.8099   -5.9203 H   0  0  0  0  0  0  0  0  0  0  0  0
    8.4417  -16.4346   -8.5555 H   0  0  0  0  0  0  0  0  0  0  0  0
    6.4460  -15.3591   -7.5025 H   0  0  0  0  0  0  0  0  0  0  0  0
    5.6081  -12.6839   -6.6002 H   0  0  0  0  0  0  0  0  0  0  0  0
    3.3676  -11.2870   -3.6729 H   0  0  0  0  0  0  0  0  0  0  0  0
    1.3424   -9.8917   -3.2797 H   0  0  0  0  0  0  0  0  0  0  0  0
   -0.3779  -10.6186   -1.6328 H   0  0  0  0  0  0  0  0  0  0  0  0
   -0.2870  -12.3210    0.7340 H   0  0  0  0  0  0  0  0  0  0  0  0
   -0.9783  -14.7756    2.1706 H   0  0  0  0  0  0  0  0  0  0  0  0
   -2.6786  -14.8997    3.9925 H   0  0  0  0  0  0  0  0  0  0  0  0
   -4.9671  -13.9879    3.6336 H   0  0  0  0  0  0  0  0  0  0  0  0
   -3.8633  -12.7969   -0.3779 H   0  0  0  0  0  0  0  0  0  0  0  0
    1.9289  -14.1656   -0.7831 H   0  0  0  0  0  0  0  0  0  0  0  0
    3.8197  -14.5974   -0.5575 H   0  0  0  0  0  0  0  0  0  0  0  0
    5.9023  -16.0176   -1.0029 H   0  0  0  0  0  0  0  0  0  0  0  0
    8.9033  -14.3105   -4.1564 H   0  0  0  0  0  0  0  0  0  0  0  0
   11.4804  -17.5658   -9.2162 H   0  0  0  0  0  0  0  0  0  0  0  0
    9.7620  -17.0228   -9.1989 H   0  0  0  0  0  0  0  0  0  0  0  0
   11.2100  -15.6733  -10.7739 H   0  0  0  0  0  0  0  0  0  0  0  0
   10.4513  -14.6804   -9.4735 H   0  0  0  0  0  0  0  0  0  0  0  0
  1  2  1  0
  2  3  1  0
  3  4  1  0
  4  5  1  0
  5  6  1  0
  6  7  2  0
  7  8  1  0
  8  9  2  0
  9 10  1  0
 10 11  1  0
 11 12  2  0
 12 13  1  0
 13 14  1  0
 14 15  1  0
 15 16  2  0
 16 17  1  0
 17 18  2  0
 18 19  1  0
 19 20  1  0
 20 21  1  0
 21 22  2  0
 21 23  1  0
 23 24  2  0
 24 25  1  0
 25 26  2  0
 26 27  1  0
 27 28  1  0
 28 29  1  0
 28 30  1  0
 28 31  1  0
 27 32  2  0
 19 33  2  0
 14 34  2  0
 34 35  1  0
 35 36  2  0
 36 37  1  0
  9 38  1  0
 38 39  2  0
  5 40  1  0
 40 41  1  0
 41  2  1  0
 39  6  1  0
 37 10  2  0
 37 13  1  0
 33 15  1  0
 32 23  1  0
  1 42  1  0
  1 43  1  0
  1 44  1  0
  2 45  1  0
  3 46  1  0
  3 47  1  0
  4 48  1  0
  4 49  1  0
  7 50  1  0
  8 51  1  0
 11 52  1  0
 16 53  1  0
 17 54  1  0
 18 55  1  0
 20 56  1  0
 24 57  1  0
 25 58  1  0
 26 59  1  0
 32 60  1  0
 33 61  1  0
 34 62  1  0
 35 63  1  0
 38 64  1  0
 40 65  1  0
 40 66  1  0
 41 67  1  0
 41 68  1  0
M  CHG  1   2   1
M  END
>  <meeko>  (4) 
{"is_sidechain": [false], "free_energy": -10.778, "intermolecular_energy": -14.999, "internal_energy": -0.525}

$$$$
LIB_DNDVGFIEWOHGAH__H_AF__e8__s20260927
     RDKit          3D

 68 73  0  0  0  0  0  0  0  0999 V2000
   13.0470  -20.1250   -7.4030 C   0  0  0  0  0  0  0  0  0  0  0  0
   13.2320  -19.7060   -5.9780 N   0  0  0  0  0  0  0  0  0  0  0  0
   13.3840  -18.1820   -5.8520 C   0  0  0  0  0  0  0  0  0  0  0  0
   13.5790  -17.7830   -4.3730 C   0  0  0  0  0  0  0  0  0  0  0  0
   12.5260  -18.3490   -3.5170 N   0  0  0  0  0  0  0  0  0  0  0  0
   11.3490  -17.6060   -3.4480 C   0  0  0  0  0  0  0  0  0  0  0  0
   11.2970  -16.3190   -3.9730 C   0  0  0  0  0  0  0  0  0  0  0  0
   10.1110  -15.5830   -3.8920 C   0  0  0  0  0  0  0  0  0  0  0  0
    8.9840  -16.1380   -3.2870 C   0  0  0  0  0  0  0  0  0  0  0  0
    7.7410  -15.3900   -3.1900 C   0  0  0  0  0  0  0  0  0  0  0  0
    6.5310  -15.5580   -3.8930 C   0  0  0  0  0  0  0  0  0  0  0  0
    5.5870  -14.6940   -3.5370 N   0  0  0  0  0  0  0  0  0  0  0  0
    6.1530  -13.9440   -2.5520 N   0  0  0  0  0  0  0  0  0  0  0  0
    5.5700  -12.9060   -1.7980 C   0  0  0  0  0  0  0  0  0  0  0  0
    4.1700  -12.4700   -1.9980 C   0  0  0  0  0  0  0  0  0  0  0  0
    3.7700  -11.8690   -3.1960 C   0  0  0  0  0  0  0  0  0  0  0  0
    2.4480  -11.4570   -3.3730 C   0  0  0  0  0  0  0  0  0  0  0  0
    1.5160  -11.6380   -2.3510 C   0  0  0  0  0  0  0  0  0  0  0  0
    1.8930  -12.2300   -1.1410 C   0  0  0  0  0  0  0  0  0  0  0  0
    0.8960  -12.3760   -0.1530 N   0  0  0  0  0  0  0  0  0  0  0  0
    0.2630  -13.5460    0.2270 C   0  0  0  0  0  0  0  0  0  0  0  0
    0.5290  -14.6800   -0.1530 O   0  0  0  0  0  0  0  0  0  0  0  0
   -0.8130  -13.3790    1.2460 C   0  0  0  0  0  0  0  0  0  0  0  0
   -2.0130  -12.7220    0.9490 C   0  0  0  0  0  0  0  0  0  0  0  0
   -2.9960  -12.5880    1.9320 C   0  0  0  0  0  0  0  0  0  0  0  0
   -2.7890  -13.1190    3.2070 C   0  0  0  0  0  0  0  0  0  0  0  0
   -1.6030  -13.8040    3.5130 C   0  0  0  0  0  0  0  0  0  0  0  0
   -1.3700  -14.3720    4.8920 C   0  0  0  0  0  0  0  0  0  0  0  0
   -0.0530  -14.5710    5.1740 F   0  0  0  0  0  0  0  0  0  0  0  0
   -1.9750  -15.5810    5.0580 F   0  0  0  0  0  0  0  0  0  0  0  0
   -1.8470  -13.5730    5.8850 F   0  0  0  0  0  0  0  0  0  0  0  0
   -0.6170  -13.9270    2.5210 C   0  0  0  0  0  0  0  0  0  0  0  0
    3.2160  -12.6530   -0.9790 C   0  0  0  0  0  0  0  0  0  0  0  0
    6.3160  -12.2800   -0.8670 C   0  0  0  0  0  0  0  0  0  0  0  0
    7.7100  -12.7590   -0.7150 C   0  0  0  0  0  0  0  0  0  0  0  0
    8.2760  -13.7100   -1.3930 N   0  0  0  0  0  0  0  0  0  0  0  0
    7.4910  -14.3310   -2.3310 C   0  0  0  0  0  0  0  0  0  0  0  0
    9.1310  -17.4270   -2.7850 C   0  0  0  0  0  0  0  0  0  0  0  0
   10.2800  -18.1580   -2.8440 N   0  0  0  0  0  0  0  0  0  0  0  0
   12.3490  -19.8030   -3.6100 C   0  0  0  0  0  0  0  0  0  0  0  0
   12.1030  -20.2210   -5.0780 C   0  0  0  0  0  0  0  0  0  0  0  0
   12.6029  -21.1309   -7.4347 H   0  0  0  0  0  0  0  0  0  0  0  0
   12.3795  -19.4133   -7.9108 H   0  0  0  0  0  0  0  0  0  0  0  0
   14.0227  -20.1388   -7.9108 H   0  0  0  0  0  0  0  0  0  0  0  0
   14.1080  -20.1210   -5.6350 H   0  0  0  0  0  0  0  0  0  0  0  0
   14.2582  -17.8552   -6.4342 H   0  0  0  0  0  0  0  0  0  0  0  0
   12.4734  -17.6988   -6.2358 H   0  0  0  0  0  0  0  0  0  0  0  0
   14.5561  -18.1531   -4.0291 H   0  0  0  0  0  0  0  0  0  0  0  0
   13.5277  -16.6865   -4.3025 H   0  0  0  0  0  0  0  0  0  0  0  0
   12.1862  -15.8816   -4.4504 H   0  0  0  0  0  0  0  0  0  0  0  0
   10.0670  -14.5649   -4.3061 H   0  0  0  0  0  0  0  0  0  0  0  0
    6.3827  -16.3302   -4.6623 H   0  0  0  0  0  0  0  0  0  0  0  0
    4.5017  -11.7201   -4.0037 H   0  0  0  0  0  0  0  0  0  0  0  0
    2.1408  -10.9889   -4.3198 H   0  0  0  0  0  0  0  0  0  0  0  0
    0.4756  -11.3124   -2.4979 H   0  0  0  0  0  0  0  0  0  0  0  0
    0.6660  -11.5370    0.3630 H   0  0  0  0  0  0  0  0  0  0  0  0
   -2.1815  -12.3117   -0.0576 H   0  0  0  0  0  0  0  0  0  0  0  0
   -3.9349  -12.0633    1.7016 H   0  0  0  0  0  0  0  0  0  0  0  0
   -3.5633  -12.9991    3.9791 H   0  0  0  0  0  0  0  0  0  0  0  0
    0.3190  -14.4589    2.7468 H   0  0  0  0  0  0  0  0  0  0  0  0
    3.5167  -13.1375   -0.0383 H   0  0  0  0  0  0  0  0  0  0  0  0
    5.9132  -11.4599   -0.2545 H   0  0  0  0  0  0  0  0  0  0  0  0
    8.3257  -12.2594    0.0475 H   0  0  0  0  0  0  0  0  0  0  0  0
    8.2561  -17.8902   -2.3054 H   0  0  0  0  0  0  0  0  0  0  0  0
   13.2549  -20.3034   -3.2372 H   0  0  0  0  0  0  0  0  0  0  0  0
   11.4794  -20.0970   -3.0038 H   0  0  0  0  0  0  0  0  0  0  0  0
   12.0623  -21.3185   -5.1401 H   0  0  0  0  0  0  0  0  0  0  0  0
   11.1509  -19.7870   -5.4172 H   0  0  0  0  0  0  0  0  0  0  0  0
  1  2  1  0
  2  3  1  0
  3  4  1  0
  4  5  1  0
  5  6  1  0
  6  7  2  0
  7  8  1  0
  8  9  2  0
  9 10  1  0
 10 11  1  0
 11 12  2  0
 12 13  1  0
 13 14  1  0
 14 15  1  0
 15 16  2  0
 16 17  1  0
 17 18  2  0
 18 19  1  0
 19 20  1  0
 20 21  1  0
 21 22  2  0
 21 23  1  0
 23 24  2  0
 24 25  1  0
 25 26  2  0
 26 27  1  0
 27 28  1  0
 28 29  1  0
 28 30  1  0
 28 31  1  0
 27 32  2  0
 19 33  2  0
 14 34  2  0
 34 35  1  0
 35 36  2  0
 36 37  1  0
  9 38  1  0
 38 39  2  0
  5 40  1  0
 40 41  1  0
 41  2  1  0
 39  6  1  0
 37 10  2  0
 37 13  1  0
 33 15  1  0
 32 23  1  0
  1 42  1  0
  1 43  1  0
  1 44  1  0
  2 45  1  0
  3 46  1  0
  3 47  1  0
  4 48  1  0
  4 49  1  0
  7 50  1  0
  8 51  1  0
 11 52  1  0
 16 53  1  0
 17 54  1  0
 18 55  1  0
 20 56  1  0
 24 57  1  0
 25 58  1  0
 26 59  1  0
 32 60  1  0
 33 61  1  0
 34 62  1  0
 35 63  1  0
 38 64  1  0
 40 65  1  0
 40 66  1  0
 41 67  1  0
 41 68  1  0
M  CHG  1   2   1
M  END
>  <meeko>  (5) 
{"is_sidechain": [false], "free_energy": -10.495, "intermolecular_energy": -14.095, "internal_energy": -1.045}

$$$$
LIB_DNDVGFIEWOHGAH__H_AF__e8__s20260927
     RDKit          3D

 68 73  0  0  0  0  0  0  0  0999 V2000
   12.9030  -20.1740   -7.3190 C   0  0  0  0  0  0  0  0  0  0  0  0
   13.1320  -19.7440   -5.9030 N   0  0  0  0  0  0  0  0  0  0  0  0
   13.2350  -18.2150   -5.7880 C   0  0  0  0  0  0  0  0  0  0  0  0
   13.4770  -17.8040   -4.3180 C   0  0  0  0  0  0  0  0  0  0  0  0
   12.4790  -18.4030   -3.4190 N   0  0  0  0  0  0  0  0  0  0  0  0
   11.2810  -17.7010   -3.3030 C   0  0  0  0  0  0  0  0  0  0  0  0
   10.2350  -18.2150   -2.5420 C   0  0  0  0  0  0  0  0  0  0  0  0
    9.0370  -17.5030   -2.4380 C   0  0  0  0  0  0  0  0  0  0  0  0
    8.8910  -16.2810   -3.0950 C   0  0  0  0  0  0  0  0  0  0  0  0
    7.6530  -15.5250   -3.0020 C   0  0  0  0  0  0  0  0  0  0  0  0
    6.4180  -15.7340   -3.6490 C   0  0  0  0  0  0  0  0  0  0  0  0
    5.4880  -14.8470   -3.3150 N   0  0  0  0  0  0  0  0  0  0  0  0
    6.0890  -14.0370   -2.4010 N   0  0  0  0  0  0  0  0  0  0  0  0
    5.5340  -12.9510   -1.6950 C   0  0  0  0  0  0  0  0  0  0  0  0
    4.1270  -12.5250   -1.8720 C   0  0  0  0  0  0  0  0  0  0  0  0
    3.7200  -11.8610   -3.0350 C   0  0  0  0  0  0  0  0  0  0  0  0
    2.3930  -11.4590   -3.1910 C   0  0  0  0  0  0  0  0  0  0  0  0
    1.4620  -11.7130   -2.1830 C   0  0  0  0  0  0  0  0  0  0  0  0
    1.8460  -12.3680   -1.0090 C   0  0  0  0  0  0  0  0  0  0  0  0
    0.8500  -12.5860   -0.0330 N   0  0  0  0  0  0  0  0  0  0  0  0
    0.1020  -13.7350    0.1550 C   0  0  0  0  0  0  0  0  0  0  0  0
    0.2430  -14.8050   -0.4270 O   0  0  0  0  0  0  0  0  0  0  0  0
   -0.9390  -13.6440    1.2170 C   0  0  0  0  0  0  0  0  0  0  0  0
   -0.6200  -13.7640    2.5750 C   0  0  0  0  0  0  0  0  0  0  0  0
   -1.6250  -13.6720    3.5390 C   0  0  0  0  0  0  0  0  0  0  0  0
   -2.9480  -13.4470    3.1530 C   0  0  0  0  0  0  0  0  0  0  0  0
   -3.2820  -13.2960    1.7980 C   0  0  0  0  0  0  0  0  0  0  0  0
   -4.7110  -13.0610    1.3730 C   0  0  0  0  0  0  0  0  0  0  0  0
   -5.5620  -14.0400    1.7890 F   0  0  0  0  0  0  0  0  0  0  0  0
   -4.8410  -13.0030    0.0190 F   0  0  0  0  0  0  0  0  0  0  0  0
   -5.2240  -11.8950    1.8510 F   0  0  0  0  0  0  0  0  0  0  0  0
   -2.2650  -13.3980    0.8340 C   0  0  0  0  0  0  0  0  0  0  0  0
    3.1740  -12.7800   -0.8680 C   0  0  0  0  0  0  0  0  0  0  0  0
    6.3120  -12.2690   -0.8330 C   0  0  0  0  0  0  0  0  0  0  0  0
    7.7110  -12.7410   -0.7000 C   0  0  0  0  0  0  0  0  0  0  0  0
    8.2520  -13.7350   -1.3360 N   0  0  0  0  0  0  0  0  0  0  0  0
    7.4340  -14.4130   -2.2040 C   0  0  0  0  0  0  0  0  0  0  0  0
    9.9860  -15.8500   -3.8360 C   0  0  0  0  0  0  0  0  0  0  0  0
   11.1590  -16.5330   -3.9600 N   0  0  0  0  0  0  0  0  0  0  0  0
   12.3490  -19.8630   -3.5010 C   0  0  0  0  0  0  0  0  0  0  0  0
   12.0580  -20.2940   -4.9580 C   0  0  0  0  0  0  0  0  0  0  0  0
   12.3860  -21.1449   -7.3283 H   0  0  0  0  0  0  0  0  0  0  0  0
   12.2847  -19.4243   -7.8344 H   0  0  0  0  0  0  0  0  0  0  0  0
   13.8701  -20.2687   -7.8344 H   0  0  0  0  0  0  0  0  0  0  0  0
   14.0340  -20.1270   -5.5960 H   0  0  0  0  0  0  0  0  0  0  0  0
   14.0722  -17.8599   -6.4068 H   0  0  0  0  0  0  0  0  0  0  0  0
   12.2932  -17.7653   -6.1354 H   0  0  0  0  0  0  0  0  0  0  0  0
   14.4793  -18.1396   -4.0135 H   0  0  0  0  0  0  0  0  0  0  0  0
   13.3920  -16.7096   -4.2474 H   0  0  0  0  0  0  0  0  0  0  0  0
   10.3510  -19.1785   -2.0241 H   0  0  0  0  0  0  0  0  0  0  0  0
    8.2084  -17.9065   -1.8375 H   0  0  0  0  0  0  0  0  0  0  0  0
    6.2418  -16.5530   -4.3619 H   0  0  0  0  0  0  0  0  0  0  0  0
    4.4508  -11.6548   -3.8309 H   0  0  0  0  0  0  0  0  0  0  0  0
    2.0803  -10.9412   -4.1097 H   0  0  0  0  0  0  0  0  0  0  0  0
    0.4170  -11.3951   -2.3132 H   0  0  0  0  0  0  0  0  0  0  0  0
    0.7140  -11.8330    0.6290 H   0  0  0  0  0  0  0  0  0  0  0  0
    0.4230  -13.9308    2.8822 H   0  0  0  0  0  0  0  0  0  0  0  0
   -1.3745  -13.7769    4.6049 H   0  0  0  0  0  0  0  0  0  0  0  0
   -3.7360  -13.3875    3.9181 H   0  0  0  0  0  0  0  0  0  0  0  0
   -2.5116  -13.2837   -0.2319 H   0  0  0  0  0  0  0  0  0  0  0  0
    3.4800  -13.3132    0.0441 H   0  0  0  0  0  0  0  0  0  0  0  0
    5.9311  -11.4106   -0.2602 H   0  0  0  0  0  0  0  0  0  0  0  0
    8.3536  -12.1956    0.0068 H   0  0  0  0  0  0  0  0  0  0  0  0
    9.8991  -14.8871   -4.3606 H   0  0  0  0  0  0  0  0  0  0  0  0
   13.2861  -20.3304   -3.1644 H   0  0  0  0  0  0  0  0  0  0  0  0
   11.5160  -20.1852   -2.8589 H   0  0  0  0  0  0  0  0  0  0  0  0
   12.0518  -21.3924   -5.0166 H   0  0  0  0  0  0  0  0  0  0  0  0
   11.0788  -19.8937   -5.2595 H   0  0  0  0  0  0  0  0  0  0  0  0
  1  2  1  0
  2  3  1  0
  3  4  1  0
  4  5  1  0
  5  6  1  0
  6  7  2  0
  7  8  1  0
  8  9  2  0
  9 10  1  0
 10 11  1  0
 11 12  2  0
 12 13  1  0
 13 14  1  0
 14 15  1  0
 15 16  2  0
 16 17  1  0
 17 18  2  0
 18 19  1  0
 19 20  1  0
 20 21  1  0
 21 22  2  0
 21 23  1  0
 23 24  2  0
 24 25  1  0
 25 26  2  0
 26 27  1  0
 27 28  1  0
 28 29  1  0
 28 30  1  0
 28 31  1  0
 27 32  2  0
 19 33  2  0
 14 34  2  0
 34 35  1  0
 35 36  2  0
 36 37  1  0
  9 38  1  0
 38 39  2  0
  5 40  1  0
 40 41  1  0
 41  2  1  0
 39  6  1  0
 37 10  2  0
 37 13  1  0
 33 15  1  0
 32 23  1  0
  1 42  1  0
  1 43  1  0
  1 44  1  0
  2 45  1  0
  3 46  1  0
  3 47  1  0
  4 48  1  0
  4 49  1  0
  7 50  1  0
  8 51  1  0
 11 52  1  0
 16 53  1  0
 17 54  1  0
 18 55  1  0
 20 56  1  0
 24 57  1  0
 25 58  1  0
 26 59  1  0
 32 60  1  0
 33 61  1  0
 34 62  1  0
 35 63  1  0
 38 64  1  0
 40 65  1  0
 40 66  1  0
 41 67  1  0
 41 68  1  0
M  CHG  1   2   1
M  END
>  <meeko>  (6) 
{"is_sidechain": [false], "free_energy": -10.47, "intermolecular_energy": -13.976, "internal_energy": -1.131}

$$$$
LIB_DNDVGFIEWOHGAH__H_AF__e8__s20260927
     RDKit          3D

 68 73  0  0  0  0  0  0  0  0999 V2000
   12.8370  -18.5990   -9.6660 C   0  0  0  0  0  0  0  0  0  0  0  0
   12.6870  -17.1100   -9.6660 N   0  0  0  0  0  0  0  0  0  0  0  0
   11.2530  -16.6870  -10.0190 C   0  0  0  0  0  0  0  0  0  0  0  0
   11.1330  -15.1470  -10.0170 C   0  0  0  0  0  0  0  0  0  0  0  0
   11.6310  -14.5680   -8.7600 N   0  0  0  0  0  0  0  0  0  0  0  0
   10.7130  -14.5320   -7.7130 C   0  0  0  0  0  0  0  0  0  0  0  0
    9.3480  -14.5970   -7.9710 C   0  0  0  0  0  0  0  0  0  0  0  0
    8.4370  -14.5540   -6.9120 C   0  0  0  0  0  0  0  0  0  0  0  0
    8.8970  -14.4470   -5.6000 C   0  0  0  0  0  0  0  0  0  0  0  0
    7.9680  -14.3990   -4.4820 C   0  0  0  0  0  0  0  0  0  0  0  0
    7.4780  -15.4440   -3.6730 C   0  0  0  0  0  0  0  0  0  0  0  0
    6.6440  -15.0320   -2.7240 N   0  0  0  0  0  0  0  0  0  0  0  0
    6.5900  -13.6790   -2.8690 N   0  0  0  0  0  0  0  0  0  0  0  0
    5.8790  -12.7430   -2.0910 C   0  0  0  0  0  0  0  0  0  0  0  0
    5.0440  -13.1430   -0.9360 C   0  0  0  0  0  0  0  0  0  0  0  0
    5.6260  -13.4310    0.3040 C   0  0  0  0  0  0  0  0  0  0  0  0
    4.8320  -13.8110    1.3860 C   0  0  0  0  0  0  0  0  0  0  0  0
    3.4490  -13.9150    1.2360 C   0  0  0  0  0  0  0  0  0  0  0  0
    2.8440  -13.6390    0.0050 C   0  0  0  0  0  0  0  0  0  0  0  0
    1.4400  -13.7690   -0.0700 N   0  0  0  0  0  0  0  0  0  0  0  0
    0.5150  -12.7510   -0.2140 C   0  0  0  0  0  0  0  0  0  0  0  0
    0.7550  -11.5640   -0.4050 O   0  0  0  0  0  0  0  0  0  0  0  0
   -0.9110  -13.1840   -0.1810 C   0  0  0  0  0  0  0  0  0  0  0  0
   -1.4410  -14.0500   -1.1450 C   0  0  0  0  0  0  0  0  0  0  0  0
   -2.7820  -14.4320   -1.0760 C   0  0  0  0  0  0  0  0  0  0  0  0
   -3.5930  -13.9640   -0.0410 C   0  0  0  0  0  0  0  0  0  0  0  0
   -3.0710  -13.1180    0.9500 C   0  0  0  0  0  0  0  0  0  0  0  0
   -3.9440  -12.6000    2.0670 C   0  0  0  0  0  0  0  0  0  0  0  0
   -4.5050  -13.5920    2.8120 F   0  0  0  0  0  0  0  0  0  0  0  0
   -4.9800  -11.8490    1.6020 F   0  0  0  0  0  0  0  0  0  0  0  0
   -3.2700  -11.8090    2.9450 F   0  0  0  0  0  0  0  0  0  0  0  0
   -1.7230  -12.7310    0.8690 C   0  0  0  0  0  0  0  0  0  0  0  0
    3.6470  -13.2440   -1.0690 C   0  0  0  0  0  0  0  0  0  0  0  0
    5.9550  -11.4380   -2.4130 C   0  0  0  0  0  0  0  0  0  0  0  0
    6.8050  -11.1000   -3.5800 C   0  0  0  0  0  0  0  0  0  0  0  0
    7.4690  -11.9370   -4.3170 N   0  0  0  0  0  0  0  0  0  0  0  0
    7.3760  -13.2590   -3.9620 C   0  0  0  0  0  0  0  0  0  0  0  0
   10.2770  -14.3820   -5.4380 C   0  0  0  0  0  0  0  0  0  0  0  0
   11.1810  -14.4110   -6.4570 N   0  0  0  0  0  0  0  0  0  0  0  0
   12.9990  -14.9500   -8.3870 C   0  0  0  0  0  0  0  0  0  0  0  0
   13.1300  -16.4900   -8.3350 C   0  0  0  0  0  0  0  0  0  0  0  0
   12.8738  -18.9638   -8.6289 H   0  0  0  0  0  0  0  0  0  0  0  0
   11.9801  -19.0538  -10.1845 H   0  0  0  0  0  0  0  0  0  0  0  0
   13.7674  -18.8738  -10.1845 H   0  0  0  0  0  0  0  0  0  0  0  0
   13.2980  -16.7280  -10.3980 H   0  0  0  0  0  0  0  0  0  0  0  0
   10.9972  -17.0697  -11.0181 H   0  0  0  0  0  0  0  0  0  0  0  0
   10.5628  -17.1009   -9.2691 H   0  0  0  0  0  0  0  0  0  0  0  0
   11.7203  -14.7419  -10.8543 H   0  0  0  0  0  0  0  0  0  0  0  0
   10.0699  -14.8841  -10.1202 H   0  0  0  0  0  0  0  0  0  0  0  0
    8.9861  -14.6821   -9.0063 H   0  0  0  0  0  0  0  0  0  0  0  0
    7.3568  -14.6046   -7.1135 H   0  0  0  0  0  0  0  0  0  0  0  0
    7.7587  -16.4983   -3.8135 H   0  0  0  0  0  0  0  0  0  0  0  0
    6.7167  -13.3572    0.4260 H   0  0  0  0  0  0  0  0  0  0  0  0
    5.2970  -14.0289    2.3588 H   0  0  0  0  0  0  0  0  0  0  0  0
    2.8288  -14.2166    2.0929 H   0  0  0  0  0  0  0  0  0  0  0  0
    1.0880  -14.7170   -0.0730 H   0  0  0  0  0  0  0  0  0  0  0  0
   -0.8015  -14.4290   -1.9558 H   0  0  0  0  0  0  0  0  0  0  0  0
   -3.2007  -15.1039   -1.8397 H   0  0  0  0  0  0  0  0  0  0  0  0
   -4.6514  -14.2610   -0.0015 H   0  0  0  0  0  0  0  0  0  0  0  0
   -1.3002  -12.0662    1.6366 H   0  0  0  0  0  0  0  0  0  0  0  0
    3.1781  -13.0079   -2.0356 H   0  0  0  0  0  0  0  0  0  0  0  0
    5.4171  -10.6663   -1.8428 H   0  0  0  0  0  0  0  0  0  0  0  0
    6.8802  -10.0356   -3.8473 H   0  0  0  0  0  0  0  0  0  0  0  0
   10.6669  -14.3013   -4.4126 H   0  0  0  0  0  0  0  0  0  0  0  0
   13.7033  -14.5507   -9.1317 H   0  0  0  0  0  0  0  0  0  0  0  0
   13.2278  -14.5373   -7.3933 H   0  0  0  0  0  0  0  0  0  0  0  0
   14.1792  -16.7581   -8.1418 H   0  0  0  0  0  0  0  0  0  0  0  0
   12.4867  -16.8756   -7.5303 H   0  0  0  0  0  0  0  0  0  0  0  0
  1  2  1  0
  2  3  1  0
  3  4  1  0
  4  5  1  0
  5  6  1  0
  6  7  2  0
  7  8  1  0
  8  9  2  0
  9 10  1  0
 10 11  1  0
 11 12  2  0
 12 13  1  0
 13 14  1  0
 14 15  1  0
 15 16  2  0
 16 17  1  0
 17 18  2  0
 18 19  1  0
 19 20  1  0
 20 21  1  0
 21 22  2  0
 21 23  1  0
 23 24  2  0
 24 25  1  0
 25 26  2  0
 26 27  1  0
 27 28  1  0
 28 29  1  0
 28 30  1  0
 28 31  1  0
 27 32  2  0
 19 33  2  0
 14 34  2  0
 34 35  1  0
 35 36  2  0
 36 37  1  0
  9 38  1  0
 38 39  2  0
  5 40  1  0
 40 41  1  0
 41  2  1  0
 39  6  1  0
 37 10  2  0
 37 13  1  0
 33 15  1  0
 32 23  1  0
  1 42  1  0
  1 43  1  0
  1 44  1  0
  2 45  1  0
  3 46  1  0
  3 47  1  0
  4 48  1  0
  4 49  1  0
  7 50  1  0
  8 51  1  0
 11 52  1  0
 16 53  1  0
 17 54  1  0
 18 55  1  0
 20 56  1  0
 24 57  1  0
 25 58  1  0
 26 59  1  0
 32 60  1  0
 33 61  1  0
 34 62  1  0
 35 63  1  0
 38 64  1  0
 40 65  1  0
 40 66  1  0
 41 67  1  0
 41 68  1  0
M  CHG  1   2   1
M  END
>  <meeko>  (7) 
{"is_sidechain": [false], "free_energy": -10.466, "intermolecular_energy": -13.961, "internal_energy": -1.142}

$$$$
LIB_DNDVGFIEWOHGAH__H_AF__e8__s20260927
     RDKit          3D

 68 73  0  0  0  0  0  0  0  0999 V2000
   13.7000  -17.6400   -9.8620 C   0  0  0  0  0  0  0  0  0  0  0  0
   13.1110  -16.2660   -9.9420 N   0  0  0  0  0  0  0  0  0  0  0  0
   11.6350  -16.3080  -10.3650 C   0  0  0  0  0  0  0  0  0  0  0  0
   11.0590  -14.8770  -10.4440 C   0  0  0  0  0  0  0  0  0  0  0  0
   11.3010  -14.1290   -9.2010 N   0  0  0  0  0  0  0  0  0  0  0  0
   10.3650  -14.3310   -8.1890 C   0  0  0  0  0  0  0  0  0  0  0  0
    9.0580  -14.6920   -8.5010 C   0  0  0  0  0  0  0  0  0  0  0  0
    8.1280  -14.8860   -7.4760 C   0  0  0  0  0  0  0  0  0  0  0  0
    8.5110  -14.7210   -6.1450 C   0  0  0  0  0  0  0  0  0  0  0  0
    7.5590  -14.9170   -5.0630 C   0  0  0  0  0  0  0  0  0  0  0  0
    7.2540  -16.0820   -4.3320 C   0  0  0  0  0  0  0  0  0  0  0  0
    6.3320  -15.8930   -3.3940 N   0  0  0  0  0  0  0  0  0  0  0  0
    6.0270  -14.5680   -3.4660 N   0  0  0  0  0  0  0  0  0  0  0  0
    5.1310  -13.8320   -2.6650 C   0  0  0  0  0  0  0  0  0  0  0  0
    4.3560  -14.4510   -1.5660 C   0  0  0  0  0  0  0  0  0  0  0  0
    4.8520  -15.5650   -0.8780 C   0  0  0  0  0  0  0  0  0  0  0  0
    4.1120  -16.1450    0.1520 C   0  0  0  0  0  0  0  0  0  0  0  0
    2.8660  -15.6210    0.5000 C   0  0  0  0  0  0  0  0  0  0  0  0
    2.3460  -14.5140   -0.1770 C   0  0  0  0  0  0  0  0  0  0  0  0
    1.0780  -14.0430    0.2290 N   0  0  0  0  0  0  0  0  0  0  0  0
    0.5340  -14.1020    1.4990 C   0  0  0  0  0  0  0  0  0  0  0  0
    1.0960  -14.4800    2.5200 O   0  0  0  0  0  0  0  0  0  0  0  0
   -0.8640  -13.5960    1.6100 C   0  0  0  0  0  0  0  0  0  0  0  0
   -1.2830  -12.8200    2.6970 C   0  0  0  0  0  0  0  0  0  0  0  0
   -2.6010  -12.3660    2.7620 C   0  0  0  0  0  0  0  0  0  0  0  0
   -3.5010  -12.6730    1.7400 C   0  0  0  0  0  0  0  0  0  0  0  0
   -3.0900  -13.4270    0.6290 C   0  0  0  0  0  0  0  0  0  0  0  0
   -4.0590  -13.7710   -0.4760 C   0  0  0  0  0  0  0  0  0  0  0  0
   -3.9690  -12.9360   -1.5480 F   0  0  0  0  0  0  0  0  0  0  0  0
   -5.3540  -13.7080   -0.0600 F   0  0  0  0  0  0  0  0  0  0  0  0
   -3.8820  -15.0280   -0.9670 F   0  0  0  0  0  0  0  0  0  0  0  0
   -1.7640  -13.8870    0.5750 C   0  0  0  0  0  0  0  0  0  0  0  0
    3.1010  -13.9300   -1.1980 C   0  0  0  0  0  0  0  0  0  0  0  0
    4.9680  -12.5180   -2.9110 C   0  0  0  0  0  0  0  0  0  0  0  0
    5.7690  -11.9560   -4.0230 C   0  0  0  0  0  0  0  0  0  0  0  0
    6.5990  -12.6060   -4.7800 N   0  0  0  0  0  0  0  0  0  0  0  0
    6.7480  -13.9420   -4.5030 C   0  0  0  0  0  0  0  0  0  0  0  0
    9.8340  -14.3540   -5.9300 C   0  0  0  0  0  0  0  0  0  0  0  0
   10.7550  -14.1480   -6.9130 N   0  0  0  0  0  0  0  0  0  0  0  0
   12.7010  -14.0660   -8.7630 C   0  0  0  0  0  0  0  0  0  0  0  0
   13.2840  -15.4930   -8.6300 C   0  0  0  0  0  0  0  0  0  0  0  0
   13.8224  -17.9256   -8.8068 H   0  0  0  0  0  0  0  0  0  0  0  0
   13.0297  -18.3559  -10.3602 H   0  0  0  0  0  0  0  0  0  0  0  0
   14.6807  -17.6481  -10.3602 H   0  0  0  0  0  0  0  0  0  0  0  0
   13.6140  -15.7460  -10.6710 H   0  0  0  0  0  0  0  0  0  0  0  0
   11.5539  -16.7868  -11.3520 H   0  0  0  0  0  0  0  0  0  0  0  0
   11.0654  -16.8823   -9.6196 H   0  0  0  0  0  0  0  0  0  0  0  0
   11.5367  -14.3451  -11.2800 H   0  0  0  0  0  0  0  0  0  0  0  0
    9.9721  -14.9505  -10.5965 H   0  0  0  0  0  0  0  0  0  0  0  0
    8.7577  -14.8243   -9.5509 H   0  0  0  0  0  0  0  0  0  0  0  0
    7.0932  -15.1690   -7.7191 H   0  0  0  0  0  0  0  0  0  0  0  0
    7.7329  -17.0543   -4.5196 H   0  0  0  0  0  0  0  0  0  0  0  0
    5.8311  -15.9852   -1.1515 H   0  0  0  0  0  0  0  0  0  0  0  0
    4.5110  -17.0169    0.6911 H   0  0  0  0  0  0  0  0  0  0  0  0
    2.2882  -16.0831    1.3140 H   0  0  0  0  0  0  0  0  0  0  0  0
    0.5420  -13.5640   -0.4830 H   0  0  0  0  0  0  0  0  0  0  0  0
   -0.5739  -12.5682    3.4994 H   0  0  0  0  0  0  0  0  0  0  0  0
   -2.9318  -11.7643    3.6214 H   0  0  0  0  0  0  0  0  0  0  0  0
   -4.5412  -12.3212    1.8056 H   0  0  0  0  0  0  0  0  0  0  0  0
   -1.4284  -14.4813   -0.2876 H   0  0  0  0  0  0  0  0  0  0  0  0
    2.7075  -13.0474   -1.7235 H   0  0  0  0  0  0  0  0  0  0  0  0
    4.2790  -11.8972   -2.3196 H   0  0  0  0  0  0  0  0  0  0  0  0
    5.6485  -10.8819   -4.2274 H   0  0  0  0  0  0  0  0  0  0  0  0
   10.1622  -14.2198   -4.8887 H   0  0  0  0  0  0  0  0  0  0  0  0
   13.2879  -13.5012   -9.5022 H   0  0  0  0  0  0  0  0  0  0  0  0
   12.7487  -13.5661   -7.7843 H   0  0  0  0  0  0  0  0  0  0  0  0
   14.3548  -15.4258   -8.3876 H   0  0  0  0  0  0  0  0  0  0  0  0
   12.7476  -16.0241   -7.8299 H   0  0  0  0  0  0  0  0  0  0  0  0
  1  2  1  0
  2  3  1  0
  3  4  1  0
  4  5  1  0
  5  6  1  0
  6  7  2  0
  7  8  1  0
  8  9  2  0
  9 10  1  0
 10 11  1  0
 11 12  2  0
 12 13  1  0
 13 14  1  0
 14 15  1  0
 15 16  2  0
 16 17  1  0
 17 18  2  0
 18 19  1  0
 19 20  1  0
 20 21  1  0
 21 22  2  0
 21 23  1  0
 23 24  2  0
 24 25  1  0
 25 26  2  0
 26 27  1  0
 27 28  1  0
 28 29  1  0
 28 30  1  0
 28 31  1  0
 27 32  2  0
 19 33  2  0
 14 34  2  0
 34 35  1  0
 35 36  2  0
 36 37  1  0
  9 38  1  0
 38 39  2  0
  5 40  1  0
 40 41  1  0
 41  2  1  0
 39  6  1  0
 37 10  2  0
 37 13  1  0
 33 15  1  0
 32 23  1  0
  1 42  1  0
  1 43  1  0
  1 44  1  0
  2 45  1  0
  3 46  1  0
  3 47  1  0
  4 48  1  0
  4 49  1  0
  7 50  1  0
  8 51  1  0
 11 52  1  0
 16 53  1  0
 17 54  1  0
 18 55  1  0
 20 56  1  0
 24 57  1  0
 25 58  1  0
 26 59  1  0
 32 60  1  0
 33 61  1  0
 34 62  1  0
 35 63  1  0
 38 64  1  0
 40 65  1  0
 40 66  1  0
 41 67  1  0
 41 68  1  0
M  CHG  1   2   1
M  END
>  <meeko>  (8) 
{"is_sidechain": [false], "free_energy": -10.449, "intermolecular_energy": -14.777, "internal_energy": -0.302}

$$$$
LIB_DNDVGFIEWOHGAH__H_AF__e8__s20260927
     RDKit          3D

 68 73  0  0  0  0  0  0  0  0999 V2000
   12.3650  -12.1300  -12.1800 C   0  0  0  0  0  0  0  0  0  0  0  0
   12.4120  -13.3930  -11.3780 N   0  0  0  0  0  0  0  0  0  0  0  0
   13.0210  -13.1570   -9.9870 C   0  0  0  0  0  0  0  0  0  0  0  0
   13.0610  -14.4780   -9.1880 C   0  0  0  0  0  0  0  0  0  0  0  0
   11.7440  -15.1310   -9.1580 N   0  0  0  0  0  0  0  0  0  0  0  0
   10.8770  -14.6840   -8.1630 C   0  0  0  0  0  0  0  0  0  0  0  0
    9.4990  -14.7900   -8.3300 C   0  0  0  0  0  0  0  0  0  0  0  0
    8.6410  -14.3320   -7.3260 C   0  0  0  0  0  0  0  0  0  0  0  0
    9.1650  -13.7730   -6.1600 C   0  0  0  0  0  0  0  0  0  0  0  0
    8.2900  -13.2900   -5.1040 C   0  0  0  0  0  0  0  0  0  0  0  0
    7.4640  -12.1480   -5.0710 C   0  0  0  0  0  0  0  0  0  0  0  0
    6.7830  -12.0200   -3.9370 N   0  0  0  0  0  0  0  0  0  0  0  0
    7.1280  -13.1090   -3.1970 N   0  0  0  0  0  0  0  0  0  0  0  0
    6.6610  -13.4840   -1.9210 C   0  0  0  0  0  0  0  0  0  0  0  0
    5.6660  -12.6830   -1.1740 C   0  0  0  0  0  0  0  0  0  0  0  0
    6.0250  -11.4690   -0.5770 C   0  0  0  0  0  0  0  0  0  0  0  0
    5.0820  -10.7230    0.1300 C   0  0  0  0  0  0  0  0  0  0  0  0
    3.7710  -11.1870    0.2520 C   0  0  0  0  0  0  0  0  0  0  0  0
    3.3900  -12.4010   -0.3290 C   0  0  0  0  0  0  0  0  0  0  0  0
    2.0480  -12.8060   -0.1600 N   0  0  0  0  0  0  0  0  0  0  0  0
    0.9320  -12.2800   -0.7850 C   0  0  0  0  0  0  0  0  0  0  0  0
    0.9200  -11.4370   -1.6750 O   0  0  0  0  0  0  0  0  0  0  0  0
   -0.3690  -12.8580   -0.3450 C   0  0  0  0  0  0  0  0  0  0  0  0
   -1.0180  -13.8580   -1.0780 C   0  0  0  0  0  0  0  0  0  0  0  0
   -2.2360  -14.3730   -0.6300 C   0  0  0  0  0  0  0  0  0  0  0  0
   -2.8030  -13.9020    0.5560 C   0  0  0  0  0  0  0  0  0  0  0  0
   -2.1520  -12.9190    1.3190 C   0  0  0  0  0  0  0  0  0  0  0  0
   -2.7630  -12.3990    2.5970 C   0  0  0  0  0  0  0  0  0  0  0  0
   -3.0110  -13.3780    3.5100 F   0  0  0  0  0  0  0  0  0  0  0  0
   -3.9550  -11.7780    2.3800 F   0  0  0  0  0  0  0  0  0  0  0  0
   -1.9740  -11.4890    3.2320 F   0  0  0  0  0  0  0  0  0  0  0  0
   -0.9310  -12.4010    0.8560 C   0  0  0  0  0  0  0  0  0  0  0  0
    4.3380  -13.1340   -1.0480 C   0  0  0  0  0  0  0  0  0  0  0  0
    7.1420  -14.6090   -1.3570 C   0  0  0  0  0  0  0  0  0  0  0  0
    8.1350  -15.3670   -2.1530 C   0  0  0  0  0  0  0  0  0  0  0  0
    8.5870  -15.0480   -3.3270 N   0  0  0  0  0  0  0  0  0  0  0  0
    8.0760  -13.9010   -3.8790 C   0  0  0  0  0  0  0  0  0  0  0  0
   10.5510  -13.7030   -6.0840 C   0  0  0  0  0  0  0  0  0  0  0  0
   11.4060  -14.1330   -7.0550 N   0  0  0  0  0  0  0  0  0  0  0  0
   11.1280  -15.3740  -10.4680 C   0  0  0  0  0  0  0  0  0  0  0  0
   11.0330  -14.0530  -11.2680 C   0  0  0  0  0  0  0  0  0  0  0  0
   12.3328  -11.2653  -11.5008 H   0  0  0  0  0  0  0  0  0  0  0  0
   13.2613  -12.0649  -12.8143 H   0  0  0  0  0  0  0  0  0  0  0  0
   11.4663  -12.1317  -12.8143 H   0  0  0  0  0  0  0  0  0  0  0  0
   13.0290  -14.0560  -11.8630 H   0  0  0  0  0  0  0  0  0  0  0  0
   14.0445  -12.7701  -10.0999 H   0  0  0  0  0  0  0  0  0  0  0  0
   12.4006  -12.4290   -9.4437 H   0  0  0  0  0  0  0  0  0  0  0  0
   13.7863  -15.1582   -9.6584 H   0  0  0  0  0  0  0  0  0  0  0  0
   13.3544  -14.2463   -8.1535 H   0  0  0  0  0  0  0  0  0  0  0  0
    9.0868  -15.2326   -9.2488 H   0  0  0  0  0  0  0  0  0  0  0  0
    7.5516  -14.4124   -7.4553 H   0  0  0  0  0  0  0  0  0  0  0  0
    7.3903  -11.4324   -5.9031 H   0  0  0  0  0  0  0  0  0  0  0  0
    7.0577  -11.1008   -0.6660 H   0  0  0  0  0  0  0  0  0  0  0  0
    5.3717   -9.7677    0.5921 H   0  0  0  0  0  0  0  0  0  0  0  0
    3.0317  -10.5932    0.8095 H   0  0  0  0  0  0  0  0  0  0  0  0
    1.9060  -13.6040    0.4460 H   0  0  0  0  0  0  0  0  0  0  0  0
   -0.5685  -14.2383   -2.0072 H   0  0  0  0  0  0  0  0  0  0  0  0
   -2.7501  -15.1516   -1.2127 H   0  0  0  0  0  0  0  0  0  0  0  0
   -3.7686  -14.3047    0.8958 H   0  0  0  0  0  0  0  0  0  0  0  0
   -0.4103  -11.6289    1.4415 H   0  0  0  0  0  0  0  0  0  0  0  0
    4.0415  -14.0803   -1.5241 H   0  0  0  0  0  0  0  0  0  0  0  0
    6.8158  -14.9456   -0.3618 H   0  0  0  0  0  0  0  0  0  0  0  0
    8.5281  -16.2915   -1.7048 H   0  0  0  0  0  0  0  0  0  0  0  0
   10.9903  -13.2689   -5.1738 H   0  0  0  0  0  0  0  0  0  0  0  0
   11.7404  -16.0952  -11.0291 H   0  0  0  0  0  0  0  0  0  0  0  0
   10.1152  -15.7765  -10.3189 H   0  0  0  0  0  0  0  0  0  0  0  0
   10.6526  -14.2675  -12.2776 H   0  0  0  0  0  0  0  0  0  0  0  0
   10.3507  -13.3675  -10.7440 H   0  0  0  0  0  0  0  0  0  0  0  0
  1  2  1  0
  2  3  1  0
  3  4  1  0
  4  5  1  0
  5  6  1  0
  6  7  2  0
  7  8  1  0
  8  9  2  0
  9 10  1  0
 10 11  1  0
 11 12  2  0
 12 13  1  0
 13 14  1  0
 14 15  1  0
 15 16  2  0
 16 17  1  0
 17 18  2  0
 18 19  1  0
 19 20  1  0
 20 21  1  0
 21 22  2  0
 21 23  1  0
 23 24  2  0
 24 25  1  0
 25 26  2  0
 26 27  1  0
 27 28  1  0
 28 29  1  0
 28 30  1  0
 28 31  1  0
 27 32  2  0
 19 33  2  0
 14 34  2  0
 34 35  1  0
 35 36  2  0
 36 37  1  0
  9 38  1  0
 38 39  2  0
  5 40  1  0
 40 41  1  0
 41  2  1  0
 39  6  1  0
 37 10  2  0
 37 13  1  0
 33 15  1  0
 32 23  1  0
  1 42  1  0
  1 43  1  0
  1 44  1  0
  2 45  1  0
  3 46  1  0
  3 47  1  0
  4 48  1  0
  4 49  1  0
  7 50  1  0
  8 51  1  0
 11 52  1  0
 16 53  1  0
 17 54  1  0
 18 55  1  0
 20 56  1  0
 24 57  1  0
 25 58  1  0
 26 59  1  0
 32 60  1  0
 33 61  1  0
 34 62  1  0
 35 63  1  0
 38 64  1  0
 40 65  1  0
 40 66  1  0
 41 67  1  0
 41 68  1  0
M  CHG  1   2   1
M  END
>  <meeko>  (9) 
{"is_sidechain": [false], "free_energy": -10.368, "intermolecular_energy": -13.865, "internal_energy": -1.105}

$$$$
