REF_ZINC24739924__Ngeom2__M_PUB_ALL__e8__s20260927
     RDKit          3D

 42 44  0  0  0  0  0  0  0  0999 V2000
   17.0100   -6.3710   16.0650 C   0  0  0  0  0  0  0  0  0  0  0  0
   16.8710   -7.2590   14.8680 N   0  0  2  0  0  0  0  0  0  0  0  0
   15.6360   -8.1220   14.9030 C   0  0  0  0  0  0  0  0  0  0  0  0
   15.0410   -8.3710   13.5400 C   0  0  0  0  0  0  0  0  0  0  0  0
   14.7740   -9.6980   13.1490 C   0  0  0  0  0  0  0  0  0  0  0  0
   14.2360   -9.9710   11.8960 C   0  0  0  0  0  0  0  0  0  0  0  0
   13.9590   -8.9280   11.0200 C   0  0  0  0  0  0  0  0  0  0  0  0
   14.2200   -7.6070   11.3900 C   0  0  0  0  0  0  0  0  0  0  0  0
   14.7600   -7.3160   12.6470 C   0  0  0  0  0  0  0  0  0  0  0  0
   15.0690   -6.0610   13.0970 O   0  0  0  0  0  0  0  0  0  0  0  0
   15.8760   -5.2260   12.2710 C   0  0  0  0  0  0  0  0  0  0  0  0
   15.1280   -4.2980   11.6450 F   0  0  0  0  0  0  0  0  0  0  0  0
   16.7680   -4.5980   13.0650 F   0  0  0  0  0  0  0  0  0  0  0  0
   16.5540   -5.9650   11.3720 F   0  0  0  0  0  0  0  0  0  0  0  0
   18.1050   -8.0650   14.5930 C   0  0  0  0  0  0  0  0  0  0  0  0
   18.6760   -7.7030   13.3190 N   0  0  0  0  0  0  0  0  0  0  0  0
   18.3880   -8.5110   12.2640 N   0  0  0  0  0  0  0  0  0  0  0  0
   18.7820   -8.2350   11.1100 N   0  0  0  0  0  0  0  0  0  0  0  0
   19.4870   -7.0470   10.8690 C   0  0  0  0  0  0  0  0  0  0  0  0
   19.8820   -6.7430    9.5630 C   0  0  0  0  0  0  0  0  0  0  0  0
   20.5890   -5.5680    9.2870 C   0  0  0  0  0  0  0  0  0  0  0  0
   20.9100   -4.6860   10.3190 C   0  0  0  0  0  0  0  0  0  0  0  0
   20.5250   -4.9760   11.6250 C   0  0  0  0  0  0  0  0  0  0  0  0
   19.8170   -6.1550   11.8790 C   0  0  0  0  0  0  0  0  0  0  0  0
   19.3860   -6.5260   13.2200 C   0  0  0  0  0  0  0  0  0  0  0  0
   19.6760   -5.8620   14.2140 O   0  0  0  0  0  0  0  0  0  0  0  0
   16.9158   -6.9728   16.9809 H   0  0  0  0  0  0  0  0  0  0  0  0
   17.9955   -5.8827   16.0468 H   0  0  0  0  0  0  0  0  0  0  0  0
   16.2208   -5.6049   16.0468 H   0  0  0  0  0  0  0  0  0  0  0  0
   16.7770   -6.6560   14.0340 H   0  0  0  0  0  0  0  0  0  0  0  0
   15.9005   -9.0914   15.3504 H   0  0  0  0  0  0  0  0  0  0  0  0
   14.8803   -7.5839   15.4940 H   0  0  0  0  0  0  0  0  0  0  0  0
   14.9929  -10.5249   13.8406 H   0  0  0  0  0  0  0  0  0  0  0  0
   14.0302  -11.0099   11.5989 H   0  0  0  0  0  0  0  0  0  0  0  0
   13.5318   -9.1444   10.0297 H   0  0  0  0  0  0  0  0  0  0  0  0
   13.9993   -6.7895   10.6879 H   0  0  0  0  0  0  0  0  0  0  0  0
   18.8435   -7.8771   15.3863 H   0  0  0  0  0  0  0  0  0  0  0  0
   17.8337   -9.1308   14.5693 H   0  0  0  0  0  0  0  0  0  0  0  0
   19.6344   -7.4346    8.7442 H   0  0  0  0  0  0  0  0  0  0  0  0
   20.8923   -5.3392    8.2547 H   0  0  0  0  0  0  0  0  0  0  0  0
   21.4666   -3.7626   10.1011 H   0  0  0  0  0  0  0  0  0  0  0  0
   20.7742   -4.2874   12.4458 H   0  0  0  0  0  0  0  0  0  0  0  0
  1  2  1  0
  2  3  1  0
  3  4  1  0
  4  5  2  0
  5  6  1  0
  6  7  2  0
  7  8  1  0
  8  9  2  0
  9 10  1  0
 10 11  1  0
 11 12  1  0
 11 13  1  0
 11 14  1  0
  2 15  1  0
 15 16  1  0
 16 17  1  0
 17 18  2  0
 18 19  1  0
 19 20  2  0
 20 21  1  0
 21 22  2  0
 22 23  1  0
 23 24  2  0
 24 25  1  0
 25 26  2  0
  9  4  1  0
 25 16  1  0
 24 19  1  0
  1 27  1  0
  1 28  1  0
  1 29  1  0
  2 30  1  6
  3 31  1  0
  3 32  1  0
  5 33  1  0
  6 34  1  0
  7 35  1  0
  8 36  1  0
 15 37  1  0
 15 38  1  0
 20 39  1  0
 21 40  1  0
 22 41  1  0
 23 42  1  0
M  CHG  1   2   1
M  END
>  <meeko>  (1) 
{"is_sidechain": [false], "free_energy": -6.468, "intermolecular_energy": -8.736, "internal_energy": -2.082}

$$$$
REF_ZINC24739924__Ngeom2__M_PUB_ALL__e8__s20260927
     RDKit          3D

 42 44  0  0  0  0  0  0  0  0999 V2000
    9.4190  -11.8550   -3.4890 C   0  0  0  0  0  0  0  0  0  0  0  0
    9.7490  -12.2080   -2.0720 N   0  0  2  0  0  0  0  0  0  0  0  0
   10.7540  -13.3250   -1.9520 C   0  0  0  0  0  0  0  0  0  0  0  0
   12.0790  -13.0110   -2.5990 C   0  0  0  0  0  0  0  0  0  0  0  0
   12.5820  -13.8920   -3.5760 C   0  0  0  0  0  0  0  0  0  0  0  0
   13.8070  -13.6430   -4.1880 C   0  0  0  0  0  0  0  0  0  0  0  0
   14.5420  -12.5180   -3.8330 C   0  0  0  0  0  0  0  0  0  0  0  0
   14.0590  -11.6360   -2.8650 C   0  0  0  0  0  0  0  0  0  0  0  0
   12.8300  -11.8710   -2.2410 C   0  0  0  0  0  0  0  0  0  0  0  0
   12.2790  -11.0800   -1.2700 O   0  0  0  0  0  0  0  0  0  0  0  0
   12.8650  -11.0970    0.0300 C   0  0  0  0  0  0  0  0  0  0  0  0
   13.9960  -10.3690    0.0600 F   0  0  0  0  0  0  0  0  0  0  0  0
   11.9780  -10.5530    0.8890 F   0  0  0  0  0  0  0  0  0  0  0  0
   13.1120  -12.3630    0.4190 F   0  0  0  0  0  0  0  0  0  0  0  0
    8.5310  -12.4630   -1.2340 C   0  0  0  0  0  0  0  0  0  0  0  0
    7.3730  -12.6660   -2.0680 N   0  0  0  0  0  0  0  0  0  0  0  0
    7.2390  -13.8890   -2.6490 N   0  0  0  0  0  0  0  0  0  0  0  0
    6.2320  -14.1760   -3.3300 N   0  0  0  0  0  0  0  0  0  0  0  0
    5.1830  -13.2550   -3.4640 C   0  0  0  0  0  0  0  0  0  0  0  0
    4.0500  -13.6170   -4.1990 C   0  0  0  0  0  0  0  0  0  0  0  0
    2.9870  -12.7210   -4.3550 C   0  0  0  0  0  0  0  0  0  0  0  0
    3.0490  -11.4530   -3.7790 C   0  0  0  0  0  0  0  0  0  0  0  0
    4.1720  -11.0780   -3.0450 C   0  0  0  0  0  0  0  0  0  0  0  0
    5.2230  -11.9890   -2.9000 C   0  0  0  0  0  0  0  0  0  0  0  0
    6.4300  -11.6650   -2.1510 C   0  0  0  0  0  0  0  0  0  0  0  0
    6.6250  -10.5530   -1.6620 O   0  0  0  0  0  0  0  0  0  0  0  0
    8.6678  -11.0515   -3.5013 H   0  0  0  0  0  0  0  0  0  0  0  0
   10.3294  -11.5137   -4.0034 H   0  0  0  0  0  0  0  0  0  0  0  0
    9.0172  -12.7404   -4.0034 H   0  0  0  0  0  0  0  0  0  0  0  0
   10.1850  -11.3810   -1.6310 H   0  0  0  0  0  0  0  0  0  0  0  0
   10.9263  -13.5257   -0.8843 H   0  0  0  0  0  0  0  0  0  0  0  0
   10.3350  -14.1963   -2.4767 H   0  0  0  0  0  0  0  0  0  0  0  0
   12.0024  -14.7835   -3.8575 H   0  0  0  0  0  0  0  0  0  0  0  0
   14.1927  -14.3351   -4.9511 H   0  0  0  0  0  0  0  0  0  0  0  0
   15.5098  -12.3216   -4.3176 H   0  0  0  0  0  0  0  0  0  0  0  0
   14.6496  -10.7494   -2.5910 H   0  0  0  0  0  0  0  0  0  0  0  0
    8.6962  -13.3609   -0.6205 H   0  0  0  0  0  0  0  0  0  0  0  0
    8.3548  -11.5886   -0.5904 H   0  0  0  0  0  0  0  0  0  0  0  0
    3.9940  -14.6149   -4.6585 H   0  0  0  0  0  0  0  0  0  0  0  0
    2.0999  -13.0178   -4.9337 H   0  0  0  0  0  0  0  0  0  0  0  0
    2.2125  -10.7497   -3.9039 H   0  0  0  0  0  0  0  0  0  0  0  0
    4.2312  -10.0800   -2.5862 H   0  0  0  0  0  0  0  0  0  0  0  0
  1  2  1  0
  2  3  1  0
  3  4  1  0
  4  5  2  0
  5  6  1  0
  6  7  2  0
  7  8  1  0
  8  9  2  0
  9 10  1  0
 10 11  1  0
 11 12  1  0
 11 13  1  0
 11 14  1  0
  2 15  1  0
 15 16  1  0
 16 17  1  0
 17 18  2  0
 18 19  1  0
 19 20  2  0
 20 21  1  0
 21 22  2  0
 22 23  1  0
 23 24  2  0
 24 25  1  0
 25 26  2  0
  9  4  1  0
 25 16  1  0
 24 19  1  0
  1 27  1  0
  1 28  1  0
  1 29  1  0
  2 30  1  1
  3 31  1  0
  3 32  1  0
  5 33  1  0
  6 34  1  0
  7 35  1  0
  8 36  1  0
 15 37  1  0
 15 38  1  0
 20 39  1  0
 21 40  1  0
 22 41  1  0
 23 42  1  0
M  CHG  1   2   1
M  END
>  <meeko>  (2) 
{"is_sidechain": [false], "free_energy": -6.421, "intermolecular_energy": -9.989, "internal_energy": -0.765}

$$$$
REF_ZINC24739924__Ngeom2__M_PUB_ALL__e8__s20260927
     RDKit          3D

 42 44  0  0  0  0  0  0  0  0999 V2000
   14.5140   -7.4250   15.2490 C   0  0  0  0  0  0  0  0  0  0  0  0
   14.7890   -7.5000   13.7800 N   0  0  2  0  0  0  0  0  0  0  0  0
   15.5990   -6.3400   13.2630 C   0  0  0  0  0  0  0  0  0  0  0  0
   16.7660   -6.7580   12.4030 C   0  0  0  0  0  0  0  0  0  0  0  0
   16.9050   -6.1870   11.1240 C   0  0  0  0  0  0  0  0  0  0  0  0
   17.9610   -6.5550   10.2960 C   0  0  0  0  0  0  0  0  0  0  0  0
   18.8870   -7.4950   10.7330 C   0  0  0  0  0  0  0  0  0  0  0  0
   18.7620   -8.0730   11.9980 C   0  0  0  0  0  0  0  0  0  0  0  0
   17.7070   -7.7140   12.8420 C   0  0  0  0  0  0  0  0  0  0  0  0
   17.4860   -8.2340   14.0880 O   0  0  0  0  0  0  0  0  0  0  0  0
   17.6290   -9.6410   14.2690 C   0  0  0  0  0  0  0  0  0  0  0  0
   18.8400   -9.9440   14.7720 F   0  0  0  0  0  0  0  0  0  0  0  0
   16.6840  -10.0420   15.1450 F   0  0  0  0  0  0  0  0  0  0  0  0
   17.4290  -10.2880   13.1040 F   0  0  0  0  0  0  0  0  0  0  0  0
   13.5510   -7.7220   12.9630 C   0  0  0  0  0  0  0  0  0  0  0  0
   13.1590   -9.1080   12.9980 N   0  0  0  0  0  0  0  0  0  0  0  0
   12.0090   -9.4060   13.6620 N   0  0  0  0  0  0  0  0  0  0  0  0
   11.5570  -10.5710   13.6840 N   0  0  0  0  0  0  0  0  0  0  0  0
   12.2010  -11.5930   12.9710 C   0  0  0  0  0  0  0  0  0  0  0  0
   11.6520  -12.8790   12.9800 C   0  0  0  0  0  0  0  0  0  0  0  0
   12.2700  -13.9220   12.2820 C   0  0  0  0  0  0  0  0  0  0  0  0
   13.4460  -13.6880   11.5700 C   0  0  0  0  0  0  0  0  0  0  0  0
   14.0050  -12.4130   11.5530 C   0  0  0  0  0  0  0  0  0  0  0  0
   13.3710  -11.3830   12.2560 C   0  0  0  0  0  0  0  0  0  0  0  0
   13.9000  -10.0270   12.2870 C   0  0  0  0  0  0  0  0  0  0  0  0
   14.9670   -9.7220   11.7560 O   0  0  0  0  0  0  0  0  0  0  0  0
   15.4288   -7.6745   15.8065 H   0  0  0  0  0  0  0  0  0  0  0  0
   14.1918   -6.4062   15.5102 H   0  0  0  0  0  0  0  0  0  0  0  0
   13.7192   -8.1392   15.5102 H   0  0  0  0  0  0  0  0  0  0  0  0
   15.3570   -8.3470   13.6050 H   0  0  0  0  0  0  0  0  0  0  0  0
   14.9396   -5.6936   12.6652 H   0  0  0  0  0  0  0  0  0  0  0  0
   16.0123   -5.8177   14.1384 H   0  0  0  0  0  0  0  0  0  0  0  0
   16.1727   -5.4436   10.7761 H   0  0  0  0  0  0  0  0  0  0  0  0
   18.0627   -6.1032    9.2982 H   0  0  0  0  0  0  0  0  0  0  0  0
   19.7226   -7.7851   10.0790 H   0  0  0  0  0  0  0  0  0  0  0  0
   19.4997   -8.8169   12.3331 H   0  0  0  0  0  0  0  0  0  0  0  0
   12.7352   -7.1057   13.3689 H   0  0  0  0  0  0  0  0  0  0  0  0
   13.7602   -7.4400   11.9205 H   0  0  0  0  0  0  0  0  0  0  0  0
   10.7258  -13.0723   13.5410 H   0  0  0  0  0  0  0  0  0  0  0  0
   11.8273  -14.9289   12.2948 H   0  0  0  0  0  0  0  0  0  0  0  0
   13.9312  -14.5095   11.0226 H   0  0  0  0  0  0  0  0  0  0  0  0
   14.9324  -12.2182   10.9945 H   0  0  0  0  0  0  0  0  0  0  0  0
  1  2  1  0
  2  3  1  0
  3  4  1  0
  4  5  2  0
  5  6  1  0
  6  7  2  0
  7  8  1  0
  8  9  2  0
  9 10  1  0
 10 11  1  0
 11 12  1  0
 11 13  1  0
 11 14  1  0
  2 15  1  0
 15 16  1  0
 16 17  1  0
 17 18  2  0
 18 19  1  0
 19 20  2  0
 20 21  1  0
 21 22  2  0
 22 23  1  0
 23 24  2  0
 24 25  1  0
 25 26  2  0
  9  4  1  0
 25 16  1  0
 24 19  1  0
  1 27  1  0
  1 28  1  0
  1 29  1  0
  2 30  1  1
  3 31  1  0
  3 32  1  0
  5 33  1  0
  6 34  1  0
  7 35  1  0
  8 36  1  0
 15 37  1  0
 15 38  1  0
 20 39  1  0
 21 40  1  0
 22 41  1  0
 23 42  1  0
M  CHG  1   2   1
M  END
>  <meeko>  (3) 
{"is_sidechain": [false], "free_energy": -6.397, "intermolecular_energy": -9.177, "internal_energy": -1.544}

$$$$
REF_ZINC24739924__Ngeom2__M_PUB_ALL__e8__s20260927
     RDKit          3D

 42 44  0  0  0  0  0  0  0  0999 V2000
    5.1560  -11.8980   -0.0670 C   0  0  0  0  0  0  0  0  0  0  0  0
    5.7350  -12.8790   -1.0370 N   0  0  2  0  0  0  0  0  0  0  0  0
    4.6920  -13.6090   -1.8440 C   0  0  0  0  0  0  0  0  0  0  0  0
    4.9420  -13.5600   -3.3310 C   0  0  0  0  0  0  0  0  0  0  0  0
    5.4190  -14.7170   -3.9770 C   0  0  0  0  0  0  0  0  0  0  0  0
    5.6720  -14.7090   -5.3450 C   0  0  0  0  0  0  0  0  0  0  0  0
    5.4550  -13.5510   -6.0820 C   0  0  0  0  0  0  0  0  0  0  0  0
    4.9840  -12.3940   -5.4570 C   0  0  0  0  0  0  0  0  0  0  0  0
    4.7240  -12.3860   -4.0830 C   0  0  0  0  0  0  0  0  0  0  0  0
    4.2800  -11.3030   -3.3740 O   0  0  0  0  0  0  0  0  0  0  0  0
    2.9330  -10.8770   -3.5630 C   0  0  0  0  0  0  0  0  0  0  0  0
    2.3340  -10.6300   -2.3830 F   0  0  0  0  0  0  0  0  0  0  0  0
    2.9590   -9.7360   -4.2820 F   0  0  0  0  0  0  0  0  0  0  0  0
    2.2390  -11.8000   -4.2570 F   0  0  0  0  0  0  0  0  0  0  0  0
    6.7090  -13.8260   -0.4010 C   0  0  0  0  0  0  0  0  0  0  0  0
    8.0030  -13.2060   -0.2600 N   0  0  0  0  0  0  0  0  0  0  0  0
    8.3490  -12.7790    0.9850 N   0  0  0  0  0  0  0  0  0  0  0  0
    9.4770  -12.2940    1.2130 N   0  0  0  0  0  0  0  0  0  0  0  0
   10.4390  -12.2320    0.1950 C   0  0  0  0  0  0  0  0  0  0  0  0
   11.7080  -11.7210    0.4870 C   0  0  0  0  0  0  0  0  0  0  0  0
   12.6900  -11.6420   -0.5060 C   0  0  0  0  0  0  0  0  0  0  0  0
   12.4100  -12.0710   -1.8040 C   0  0  0  0  0  0  0  0  0  0  0  0
   11.1510  -12.5800   -2.1090 C   0  0  0  0  0  0  0  0  0  0  0  0
   10.1840  -12.6530   -1.1020 C   0  0  0  0  0  0  0  0  0  0  0  0
    8.8450  -13.1690   -1.3510 C   0  0  0  0  0  0  0  0  0  0  0  0
    8.4650  -13.5080   -2.4700 O   0  0  0  0  0  0  0  0  0  0  0  0
    5.3559  -12.2366    0.9603 H   0  0  0  0  0  0  0  0  0  0  0  0
    5.6167  -10.9115   -0.2241 H   0  0  0  0  0  0  0  0  0  0  0  0
    4.0698  -11.8246   -0.2241 H   0  0  0  0  0  0  0  0  0  0  0  0
    6.3080  -12.3540   -1.7190 H   0  0  0  0  0  0  0  0  0  0  0  0
    4.6801  -14.6623   -1.5270 H   0  0  0  0  0  0  0  0  0  0  0  0
    3.7300  -13.1083   -1.6599 H   0  0  0  0  0  0  0  0  0  0  0  0
    5.5929  -15.6343   -3.3953 H   0  0  0  0  0  0  0  0  0  0  0  0
    6.0430  -15.6174   -5.8422 H   0  0  0  0  0  0  0  0  0  0  0  0
    5.6553  -13.5455   -7.1636 H   0  0  0  0  0  0  0  0  0  0  0  0
    4.8164  -11.4827   -6.0498 H   0  0  0  0  0  0  0  0  0  0  0  0
    6.3362  -14.1141    0.5930 H   0  0  0  0  0  0  0  0  0  0  0  0
    6.8098  -14.7140   -1.0424 H   0  0  0  0  0  0  0  0  0  0  0  0
   11.9358  -11.3781    1.5071 H   0  0  0  0  0  0  0  0  0  0  0  0
   13.6851  -11.2409   -0.2632 H   0  0  0  0  0  0  0  0  0  0  0  0
   13.1826  -12.0070   -2.5844 H   0  0  0  0  0  0  0  0  0  0  0  0
   10.9198  -12.9204   -3.1291 H   0  0  0  0  0  0  0  0  0  0  0  0
  1  2  1  0
  2  3  1  0
  3  4  1  0
  4  5  2  0
  5  6  1  0
  6  7  2  0
  7  8  1  0
  8  9  2  0
  9 10  1  0
 10 11  1  0
 11 12  1  0
 11 13  1  0
 11 14  1  0
  2 15  1  0
 15 16  1  0
 16 17  1  0
 17 18  2  0
 18 19  1  0
 19 20  2  0
 20 21  1  0
 21 22  2  0
 22 23  1  0
 23 24  2  0
 24 25  1  0
 25 26  2  0
  9  4  1  0
 25 16  1  0
 24 19  1  0
  1 27  1  0
  1 28  1  0
  1 29  1  0
  2 30  1  6
  3 31  1  0
  3 32  1  0
  5 33  1  0
  6 34  1  0
  7 35  1  0
  8 36  1  0
 15 37  1  0
 15 38  1  0
 20 39  1  0
 21 40  1  0
 22 41  1  0
 23 42  1  0
M  CHG  1   2   1
M  END
>  <meeko>  (4) 
{"is_sidechain": [false], "free_energy": -6.378, "intermolecular_energy": -9.185, "internal_energy": -1.513}

$$$$
REF_ZINC24739924__Ngeom2__M_PUB_ALL__e8__s20260927
     RDKit          3D

 42 44  0  0  0  0  0  0  0  0999 V2000
    0.8270  -14.9510   -1.5280 C   0  0  0  0  0  0  0  0  0  0  0  0
    0.0160  -14.7560   -0.2860 N   0  0  2  0  0  0  0  0  0  0  0  0
    0.8300  -14.2870    0.8930 C   0  0  0  0  0  0  0  0  0  0  0  0
    0.1190  -13.2640    1.7430 C   0  0  0  0  0  0  0  0  0  0  0  0
   -0.1190  -13.5570    3.1000 C   0  0  0  0  0  0  0  0  0  0  0  0
   -0.7810  -12.6440    3.9140 C   0  0  0  0  0  0  0  0  0  0  0  0
   -1.2150  -11.4330    3.3870 C   0  0  0  0  0  0  0  0  0  0  0  0
   -0.9900  -11.1280    2.0430 C   0  0  0  0  0  0  0  0  0  0  0  0
   -0.3250  -12.0340    1.2110 C   0  0  0  0  0  0  0  0  0  0  0  0
   -0.0730  -11.8390   -0.1190 O   0  0  0  0  0  0  0  0  0  0  0  0
    0.9170  -10.8820   -0.4870 C   0  0  0  0  0  0  0  0  0  0  0  0
    1.5490  -11.2490   -1.6170 F   0  0  0  0  0  0  0  0  0  0  0  0
    0.2930   -9.7060   -0.7040 F   0  0  0  0  0  0  0  0  0  0  0  0
    1.8040  -10.7130    0.5120 F   0  0  0  0  0  0  0  0  0  0  0  0
   -0.8220  -15.9510    0.0580 C   0  0  0  0  0  0  0  0  0  0  0  0
   -1.9220  -15.5730    0.9100 N   0  0  0  0  0  0  0  0  0  0  0  0
   -1.9660  -16.1400    2.1460 N   0  0  0  0  0  0  0  0  0  0  0  0
   -2.8440  -15.8180    2.9760 N   0  0  0  0  0  0  0  0  0  0  0  0
   -3.7750  -14.8160    2.6670 C   0  0  0  0  0  0  0  0  0  0  0  0
   -4.7220  -14.4470    3.6270 C   0  0  0  0  0  0  0  0  0  0  0  0
   -5.6670  -13.4530    3.3510 C   0  0  0  0  0  0  0  0  0  0  0  0
   -5.6750  -12.8200    2.1080 C   0  0  0  0  0  0  0  0  0  0  0  0
   -4.7390  -13.1780    1.1410 C   0  0  0  0  0  0  0  0  0  0  0  0
   -3.8020  -14.1730    1.4370 C   0  0  0  0  0  0  0  0  0  0  0  0
   -2.7980  -14.6020    0.4740 C   0  0  0  0  0  0  0  0  0  0  0  0
   -2.7560  -14.1660   -0.6760 O   0  0  0  0  0  0  0  0  0  0  0  0
    1.8629  -15.2001   -1.2542 H   0  0  0  0  0  0  0  0  0  0  0  0
    0.3972  -15.7714   -2.1215 H   0  0  0  0  0  0  0  0  0  0  0  0
    0.8172  -14.0249   -2.1215 H   0  0  0  0  0  0  0  0  0  0  0  0
   -0.6770  -14.0120   -0.4700 H   0  0  0  0  0  0  0  0  0  0  0  0
    1.0674  -15.1581    1.5214 H   0  0  0  0  0  0  0  0  0  0  0  0
    1.7337  -13.8046    0.4923 H   0  0  0  0  0  0  0  0  0  0  0  0
    0.2213  -14.5153    3.5192 H   0  0  0  0  0  0  0  0  0  0  0  0
   -0.9609  -12.8798    4.9733 H   0  0  0  0  0  0  0  0  0  0  0  0
   -1.7382  -10.7116    4.0318 H   0  0  0  0  0  0  0  0  0  0  0  0
   -1.3386  -10.1675    1.6356 H   0  0  0  0  0  0  0  0  0  0  0  0
   -1.2178  -16.3933   -0.8681 H   0  0  0  0  0  0  0  0  0  0  0  0
   -0.1955  -16.6809    0.5917 H   0  0  0  0  0  0  0  0  0  0  0  0
   -4.7241  -14.9430    4.6088 H   0  0  0  0  0  0  0  0  0  0  0  0
   -6.4053  -13.1700    4.1158 H   0  0  0  0  0  0  0  0  0  0  0  0
   -6.4193  -12.0394    1.8920 H   0  0  0  0  0  0  0  0  0  0  0  0
   -4.7367  -12.6848    0.1577 H   0  0  0  0  0  0  0  0  0  0  0  0
  1  2  1  0
  2  3  1  0
  3  4  1  0
  4  5  2  0
  5  6  1  0
  6  7  2  0
  7  8  1  0
  8  9  2  0
  9 10  1  0
 10 11  1  0
 11 12  1  0
 11 13  1  0
 11 14  1  0
  2 15  1  0
 15 16  1  0
 16 17  1  0
 17 18  2  0
 18 19  1  0
 19 20  2  0
 20 21  1  0
 21 22  2  0
 22 23  1  0
 23 24  2  0
 24 25  1  0
 25 26  2  0
  9  4  1  0
 25 16  1  0
 24 19  1  0
  1 27  1  0
  1 28  1  0
  1 29  1  0
  2 30  1  6
  3 31  1  0
  3 32  1  0
  5 33  1  0
  6 34  1  0
  7 35  1  0
  8 36  1  0
 15 37  1  0
 15 38  1  0
 20 39  1  0
 21 40  1  0
 22 41  1  0
 23 42  1  0
M  CHG  1   2   1
M  END
>  <meeko>  (5) 
{"is_sidechain": [false], "free_energy": -6.3, "intermolecular_energy": -8.386, "internal_energy": -2.205}

$$$$
REF_ZINC24739924__Ngeom2__M_PUB_ALL__e8__s20260927
     RDKit          3D

 42 44  0  0  0  0  0  0  0  0999 V2000
   -0.1030  -13.7160    3.4730 C   0  0  0  0  0  0  0  0  0  0  0  0
   -0.8170  -13.4130    2.1930 N   0  0  2  0  0  0  0  0  0  0  0  0
   -2.2890  -13.1460    2.3780 C   0  0  0  0  0  0  0  0  0  0  0  0
   -2.8790  -12.2700    1.3020 C   0  0  0  0  0  0  0  0  0  0  0  0
   -3.9880  -12.7440    0.5740 C   0  0  0  0  0  0  0  0  0  0  0  0
   -4.5540  -11.9700   -0.4340 C   0  0  0  0  0  0  0  0  0  0  0  0
   -4.0230  -10.7210   -0.7290 C   0  0  0  0  0  0  0  0  0  0  0  0
   -2.9220  -10.2370   -0.0190 C   0  0  0  0  0  0  0  0  0  0  0  0
   -2.3410  -11.0010    0.9980 C   0  0  0  0  0  0  0  0  0  0  0  0
   -1.2530  -10.6270    1.7370 O   0  0  0  0  0  0  0  0  0  0  0  0
   -1.3710   -9.4890    2.5870 C   0  0  0  0  0  0  0  0  0  0  0  0
   -0.3420   -8.6400    2.4050 F   0  0  0  0  0  0  0  0  0  0  0  0
   -2.5170   -8.8530    2.2670 F   0  0  0  0  0  0  0  0  0  0  0  0
   -1.4420   -9.8690    3.8770 F   0  0  0  0  0  0  0  0  0  0  0  0
   -0.5670  -14.4370    1.1270 C   0  0  0  0  0  0  0  0  0  0  0  0
    0.1490  -13.8550    0.0190 N   0  0  0  0  0  0  0  0  0  0  0  0
    0.8230  -12.6980    0.2620 N   0  0  0  0  0  0  0  0  0  0  0  0
    1.5270  -12.1610   -0.6200 N   0  0  0  0  0  0  0  0  0  0  0  0
    1.6830  -12.7750   -1.8710 C   0  0  0  0  0  0  0  0  0  0  0  0
    2.5070  -12.1740   -2.8260 C   0  0  0  0  0  0  0  0  0  0  0  0
    2.6830  -12.7580   -4.0850 C   0  0  0  0  0  0  0  0  0  0  0  0
    2.0310  -13.9500   -4.4010 C   0  0  0  0  0  0  0  0  0  0  0  0
    1.2060  -14.5600   -3.4600 C   0  0  0  0  0  0  0  0  0  0  0  0
    1.0450  -13.9610   -2.2070 C   0  0  0  0  0  0  0  0  0  0  0  0
    0.1940  -14.5390   -1.1760 C   0  0  0  0  0  0  0  0  0  0  0  0
   -0.4840  -15.5470   -1.3680 O   0  0  0  0  0  0  0  0  0  0  0  0
   -0.7446  -13.4437    4.3240 H   0  0  0  0  0  0  0  0  0  0  0  0
    0.1293  -14.7903    3.5179 H   0  0  0  0  0  0  0  0  0  0  0  0
    0.8310  -13.1367    3.5179 H   0  0  0  0  0  0  0  0  0  0  0  0
   -0.4150  -12.5440    1.8020 H   0  0  0  0  0  0  0  0  0  0  0  0
   -2.8211  -14.1088    2.3744 H   0  0  0  0  0  0  0  0  0  0  0  0
   -2.4043  -12.6105    3.3319 H   0  0  0  0  0  0  0  0  0  0  0  0
   -4.4096  -13.7336    0.8043 H   0  0  0  0  0  0  0  0  0  0  0  0
   -5.4209  -12.3467   -0.9966 H   0  0  0  0  0  0  0  0  0  0  0  0
   -4.4719  -10.1099   -1.5259 H   0  0  0  0  0  0  0  0  0  0  0  0
   -2.5086   -9.2470   -0.2617 H   0  0  0  0  0  0  0  0  0  0  0  0
    0.0283  -15.2599    1.5493 H   0  0  0  0  0  0  0  0  0  0  0  0
   -1.5349  -14.8132    0.7641 H   0  0  0  0  0  0  0  0  0  0  0  0
    3.0224  -11.2324   -2.5856 H   0  0  0  0  0  0  0  0  0  0  0  0
    3.3367  -12.2764   -4.8271 H   0  0  0  0  0  0  0  0  0  0  0  0
    2.1685  -14.4072   -5.3920 H   0  0  0  0  0  0  0  0  0  0  0  0
    0.6879  -15.5004   -3.6991 H   0  0  0  0  0  0  0  0  0  0  0  0
  1  2  1  0
  2  3  1  0
  3  4  1  0
  4  5  2  0
  5  6  1  0
  6  7  2  0
  7  8  1  0
  8  9  2  0
  9 10  1  0
 10 11  1  0
 11 12  1  0
 11 13  1  0
 11 14  1  0
  2 15  1  0
 15 16  1  0
 16 17  1  0
 17 18  2  0
 18 19  1  0
 19 20  2  0
 20 21  1  0
 21 22  2  0
 22 23  1  0
 23 24  2  0
 24 25  1  0
 25 26  2  0
  9  4  1  0
 25 16  1  0
 24 19  1  0
  1 27  1  0
  1 28  1  0
  1 29  1  0
  2 30  1  6
  3 31  1  0
  3 32  1  0
  5 33  1  0
  6 34  1  0
  7 35  1  0
  8 36  1  0
 15 37  1  0
 15 38  1  0
 20 39  1  0
 21 40  1  0
 22 41  1  0
 23 42  1  0
M  CHG  1   2   1
M  END
>  <meeko>  (6) 
{"is_sidechain": [false], "free_energy": -6.295, "intermolecular_energy": -9.383, "internal_energy": -1.202}

$$$$
REF_ZINC24739924__Ngeom2__M_PUB_ALL__e8__s20260927
     RDKit          3D

 42 44  0  0  0  0  0  0  0  0999 V2000
    0.3650  -13.9860    4.4130 C   0  0  0  0  0  0  0  0  0  0  0  0
    0.1880  -13.6100    2.9760 N   0  0  2  0  0  0  0  0  0  0  0  0
   -1.2470  -13.3540    2.5960 C   0  0  0  0  0  0  0  0  0  0  0  0
   -1.5540  -11.8970    2.3550 C   0  0  0  0  0  0  0  0  0  0  0  0
   -1.3460  -10.9790    3.4030 C   0  0  0  0  0  0  0  0  0  0  0  0
   -1.6270   -9.6280    3.2250 C   0  0  0  0  0  0  0  0  0  0  0  0
   -2.1180   -9.1790    2.0050 C   0  0  0  0  0  0  0  0  0  0  0  0
   -2.3330  -10.0770    0.9560 C   0  0  0  0  0  0  0  0  0  0  0  0
   -2.0550  -11.4370    1.1190 C   0  0  0  0  0  0  0  0  0  0  0  0
   -2.2480  -12.3980    0.1640 O   0  0  0  0  0  0  0  0  0  0  0  0
   -3.5750  -12.8620   -0.0700 C   0  0  0  0  0  0  0  0  0  0  0  0
   -4.3960  -12.5080    0.9360 F   0  0  0  0  0  0  0  0  0  0  0  0
   -4.0160  -12.2900   -1.2100 F   0  0  0  0  0  0  0  0  0  0  0  0
   -3.5840  -14.1990   -0.2350 F   0  0  0  0  0  0  0  0  0  0  0  0
    0.8500  -14.5710    2.0340 C   0  0  0  0  0  0  0  0  0  0  0  0
    1.1000  -13.9450    0.7600 N   0  0  0  0  0  0  0  0  0  0  0  0
    1.6600  -12.7050    0.7830 N   0  0  0  0  0  0  0  0  0  0  0  0
    1.9750  -12.1170   -0.2740 N   0  0  0  0  0  0  0  0  0  0  0  0
    1.8100  -12.7520   -1.5130 C   0  0  0  0  0  0  0  0  0  0  0  0
    2.2080  -12.0870   -2.6770 C   0  0  0  0  0  0  0  0  0  0  0  0
    2.0550  -12.6910   -3.9290 C   0  0  0  0  0  0  0  0  0  0  0  0
    1.4990  -13.9660   -4.0290 C   0  0  0  0  0  0  0  0  0  0  0  0
    1.0970  -14.6400   -2.8790 C   0  0  0  0  0  0  0  0  0  0  0  0
    1.2600  -14.0200   -1.6360 C   0  0  0  0  0  0  0  0  0  0  0  0
    0.8580  -14.6620   -0.3920 C   0  0  0  0  0  0  0  0  0  0  0  0
    0.2920  -15.7540   -0.3650 O   0  0  0  0  0  0  0  0  0  0  0  0
   -0.0159  -13.1768    5.0533 H   0  0  0  0  0  0  0  0  0  0  0  0
   -0.1921  -14.9114    4.6212 H   0  0  0  0  0  0  0  0  0  0  0  0
    1.4332  -14.1463    4.6212 H   0  0  0  0  0  0  0  0  0  0  0  0
    0.6900  -12.7200    2.8150 H   0  0  0  0  0  0  0  0  0  0  0  0
   -1.4687  -13.9136    1.6753 H   0  0  0  0  0  0  0  0  0  0  0  0
   -1.8694  -13.6805    3.4422 H   0  0  0  0  0  0  0  0  0  0  0  0
   -0.9584  -11.3330    4.3697 H   0  0  0  0  0  0  0  0  0  0  0  0
   -1.4609   -8.9172    4.0479 H   0  0  0  0  0  0  0  0  0  0  0  0
   -2.3387   -8.1106    1.8642 H   0  0  0  0  0  0  0  0  0  0  0  0
   -2.7238   -9.7109   -0.0048 H   0  0  0  0  0  0  0  0  0  0  0  0
    1.8054  -14.9014    2.4676 H   0  0  0  0  0  0  0  0  0  0  0  0
    0.1827  -15.4318    1.8802 H   0  0  0  0  0  0  0  0  0  0  0  0
    2.6452  -11.0800   -2.6072 H   0  0  0  0  0  0  0  0  0  0  0  0
    2.3741  -12.1590   -4.8374 H   0  0  0  0  0  0  0  0  0  0  0  0
    1.3782  -14.4385   -5.0150 H   0  0  0  0  0  0  0  0  0  0  0  0
    0.6574  -15.6460   -2.9471 H   0  0  0  0  0  0  0  0  0  0  0  0
  1  2  1  0
  2  3  1  0
  3  4  1  0
  4  5  2  0
  5  6  1  0
  6  7  2  0
  7  8  1  0
  8  9  2  0
  9 10  1  0
 10 11  1  0
 11 12  1  0
 11 13  1  0
 11 14  1  0
  2 15  1  0
 15 16  1  0
 16 17  1  0
 17 18  2  0
 18 19  1  0
 19 20  2  0
 20 21  1  0
 21 22  2  0
 22 23  1  0
 23 24  2  0
 24 25  1  0
 25 26  2  0
  9  4  1  0
 25 16  1  0
 24 19  1  0
  1 27  1  0
  1 28  1  0
  1 29  1  0
  2 30  1  1
  3 31  1  0
  3 32  1  0
  5 33  1  0
  6 34  1  0
  7 35  1  0
  8 36  1  0
 15 37  1  0
 15 38  1  0
 20 39  1  0
 21 40  1  0
 22 41  1  0
 23 42  1  0
M  CHG  1   2   1
M  END
>  <meeko>  (7) 
{"is_sidechain": [false], "free_energy": -6.286, "intermolecular_energy": -9.238, "internal_energy": -1.335}

$$$$
REF_ZINC24739924__Ngeom2__M_PUB_ALL__e8__s20260927
     RDKit          3D

 42 44  0  0  0  0  0  0  0  0999 V2000
    6.2280  -11.6860   -0.2630 C   0  0  0  0  0  0  0  0  0  0  0  0
    6.4780  -12.6780   -1.3560 N   0  0  2  0  0  0  0  0  0  0  0  0
    5.2180  -13.3120   -1.8880 C   0  0  0  0  0  0  0  0  0  0  0  0
    4.3000  -12.3340   -2.5760 C   0  0  0  0  0  0  0  0  0  0  0  0
    3.0940  -11.9750   -1.9430 C   0  0  0  0  0  0  0  0  0  0  0  0
    2.2140  -11.0840   -2.5510 C   0  0  0  0  0  0  0  0  0  0  0  0
    2.5250  -10.5440   -3.7930 C   0  0  0  0  0  0  0  0  0  0  0  0
    3.7160  -10.8910   -4.4360 C   0  0  0  0  0  0  0  0  0  0  0  0
    4.6100  -11.7840   -3.8380 C   0  0  0  0  0  0  0  0  0  0  0  0
    5.7900  -12.2020   -4.3920 O   0  0  0  0  0  0  0  0  0  0  0  0
    5.7370  -13.0130   -5.5630 C   0  0  0  0  0  0  0  0  0  0  0  0
    4.6100  -13.7470   -5.5930 F   0  0  0  0  0  0  0  0  0  0  0  0
    5.7480  -12.1920   -6.6340 F   0  0  0  0  0  0  0  0  0  0  0  0
    6.8190  -13.8130   -5.6310 F   0  0  0  0  0  0  0  0  0  0  0  0
    7.5050  -13.7070   -0.9880 C   0  0  0  0  0  0  0  0  0  0  0  0
    8.8280  -13.1340   -1.0050 N   0  0  0  0  0  0  0  0  0  0  0  0
    9.4160  -12.9090    0.2010 N   0  0  0  0  0  0  0  0  0  0  0  0
   10.5870  -12.4800    0.2810 N   0  0  0  0  0  0  0  0  0  0  0  0
   11.3450  -12.2750   -0.8800 C   0  0  0  0  0  0  0  0  0  0  0  0
   12.6670  -11.8330   -0.7620 C   0  0  0  0  0  0  0  0  0  0  0  0
   13.4500  -11.6150   -1.9000 C   0  0  0  0  0  0  0  0  0  0  0  0
   12.9170  -11.8350   -3.1700 C   0  0  0  0  0  0  0  0  0  0  0  0
   11.6030  -12.2740   -3.3030 C   0  0  0  0  0  0  0  0  0  0  0  0
   10.8370  -12.4880   -2.1540 C   0  0  0  0  0  0  0  0  0  0  0  0
    9.4540  -12.9410   -2.2170 C   0  0  0  0  0  0  0  0  0  0  0  0
    8.8590  -13.0990   -3.2820 O   0  0  0  0  0  0  0  0  0  0  0  0
    6.3518  -12.1773    0.7134 H   0  0  0  0  0  0  0  0  0  0  0  0
    6.9452  -10.8564   -0.3496 H   0  0  0  0  0  0  0  0  0  0  0  0
    5.2033  -11.2954   -0.3496 H   0  0  0  0  0  0  0  0  0  0  0  0
    6.9040  -12.1750   -2.1520 H   0  0  0  0  0  0  0  0  0  0  0  0
    5.4987  -14.0935   -2.6094 H   0  0  0  0  0  0  0  0  0  0  0  0
    4.6705  -13.7197   -1.0254 H   0  0  0  0  0  0  0  0  0  0  0  0
    2.8455  -12.4022   -0.9603 H   0  0  0  0  0  0  0  0  0  0  0  0
    1.2747  -10.8081   -2.0494 H   0  0  0  0  0  0  0  0  0  0  0  0
    1.8297   -9.8394   -4.2727 H   0  0  0  0  0  0  0  0  0  0  0  0
    3.9518  -10.4585   -5.4195 H   0  0  0  0  0  0  0  0  0  0  0  0
    7.2892  -14.0880    0.0211 H   0  0  0  0  0  0  0  0  0  0  0  0
    7.4643  -14.5259   -1.7213 H   0  0  0  0  0  0  0  0  0  0  0  0
   13.0948  -11.6552    0.2357 H   0  0  0  0  0  0  0  0  0  0  0  0
   14.4888  -11.2692   -1.7933 H   0  0  0  0  0  0  0  0  0  0  0  0
   13.5337  -11.6620   -4.0643 H   0  0  0  0  0  0  0  0  0  0  0  0
   11.1729  -12.4503   -4.3000 H   0  0  0  0  0  0  0  0  0  0  0  0
  1  2  1  0
  2  3  1  0
  3  4  1  0
  4  5  2  0
  5  6  1  0
  6  7  2  0
  7  8  1  0
  8  9  2  0
  9 10  1  0
 10 11  1  0
 11 12  1  0
 11 13  1  0
 11 14  1  0
  2 15  1  0
 15 16  1  0
 16 17  1  0
 17 18  2  0
 18 19  1  0
 19 20  2  0
 20 21  1  0
 21 22  2  0
 22 23  1  0
 23 24  2  0
 24 25  1  0
 25 26  2  0
  9  4  1  0
 25 16  1  0
 24 19  1  0
  1 27  1  0
  1 28  1  0
  1 29  1  0
  2 30  1  6
  3 31  1  0
  3 32  1  0
  5 33  1  0
  6 34  1  0
  7 35  1  0
  8 36  1  0
 15 37  1  0
 15 38  1  0
 20 39  1  0
 21 40  1  0
 22 41  1  0
 23 42  1  0
M  CHG  1   2   1
M  END
>  <meeko>  (8) 
{"is_sidechain": [false], "free_energy": -6.264, "intermolecular_energy": -9.02, "internal_energy": -1.524}

$$$$
REF_ZINC24739924__Ngeom2__M_PUB_ALL__e8__s20260927
     RDKit          3D

 42 44  0  0  0  0  0  0  0  0999 V2000
   11.9430  -16.0690   -1.5510 C   0  0  0  0  0  0  0  0  0  0  0  0
   11.7340  -15.1240   -2.6930 N   0  0  2  0  0  0  0  0  0  0  0  0
   10.8300  -13.9670   -2.3530 C   0  0  0  0  0  0  0  0  0  0  0  0
   11.4870  -12.9290   -1.4790 C   0  0  0  0  0  0  0  0  0  0  0  0
   11.1030  -12.8390   -0.1270 C   0  0  0  0  0  0  0  0  0  0  0  0
   11.6780  -11.8880    0.7100 C   0  0  0  0  0  0  0  0  0  0  0  0
   12.6380  -11.0160    0.2100 C   0  0  0  0  0  0  0  0  0  0  0  0
   13.0290  -11.0900   -1.1290 C   0  0  0  0  0  0  0  0  0  0  0  0
   12.4610  -12.0410   -1.9830 C   0  0  0  0  0  0  0  0  0  0  0  0
   12.7610  -12.1820   -3.3100 O   0  0  0  0  0  0  0  0  0  0  0  0
   14.0830  -12.5790   -3.6670 C   0  0  0  0  0  0  0  0  0  0  0  0
   14.3660  -13.8050   -3.1890 F   0  0  0  0  0  0  0  0  0  0  0  0
   14.1530  -12.6130   -5.0140 F   0  0  0  0  0  0  0  0  0  0  0  0
   14.9810  -11.6810   -3.2180 F   0  0  0  0  0  0  0  0  0  0  0  0
   11.3040  -15.8140   -3.9520 C   0  0  0  0  0  0  0  0  0  0  0  0
   12.2200  -15.5290   -5.0280 N   0  0  0  0  0  0  0  0  0  0  0  0
   13.4170  -16.1740   -5.0040 N   0  0  0  0  0  0  0  0  0  0  0  0
   14.2440  -16.0400   -5.9310 N   0  0  0  0  0  0  0  0  0  0  0  0
   13.9290  -15.2600   -7.0530 C   0  0  0  0  0  0  0  0  0  0  0  0
   14.8560  -15.1600   -8.0950 C   0  0  0  0  0  0  0  0  0  0  0  0
   14.5740  -14.3880   -9.2270 C   0  0  0  0  0  0  0  0  0  0  0  0
   13.3610  -13.7060   -9.3260 C   0  0  0  0  0  0  0  0  0  0  0  0
   12.4290  -13.7960   -8.2950 C   0  0  0  0  0  0  0  0  0  0  0  0
   12.7290  -14.5740   -7.1730 C   0  0  0  0  0  0  0  0  0  0  0  0
   11.8040  -14.7100   -6.0560 C   0  0  0  0  0  0  0  0  0  0  0  0
   10.7390  -14.0980   -6.0020 O   0  0  0  0  0  0  0  0  0  0  0  0
   11.8233  -15.5280   -0.6008 H   0  0  0  0  0  0  0  0  0  0  0  0
   11.2027  -16.8807   -1.6065 H   0  0  0  0  0  0  0  0  0  0  0  0
   12.9566  -16.4928   -1.6065 H   0  0  0  0  0  0  0  0  0  0  0  0
   12.6490  -14.7100   -2.9360 H   0  0  0  0  0  0  0  0  0  0  0  0
   10.5143  -13.4845   -3.2898 H   0  0  0  0  0  0  0  0  0  0  0  0
    9.9794  -14.3755   -1.7877 H   0  0  0  0  0  0  0  0  0  0  0  0
   10.3419  -13.5265    0.2706 H   0  0  0  0  0  0  0  0  0  0  0  0
   11.3735  -11.8263    1.7652 H   0  0  0  0  0  0  0  0  0  0  0  0
   13.0921  -10.2639    0.8720 H   0  0  0  0  0  0  0  0  0  0  0  0
   13.7894  -10.3950   -1.5147 H   0  0  0  0  0  0  0  0  0  0  0  0
   11.2782  -16.8998   -3.7779 H   0  0  0  0  0  0  0  0  0  0  0  0
   10.3050  -15.4484   -4.2320 H   0  0  0  0  0  0  0  0  0  0  0  0
   15.8156  -15.6931   -8.0240 H   0  0  0  0  0  0  0  0  0  0  0  0
   15.3105  -14.3185  -10.0411 H   0  0  0  0  0  0  0  0  0  0  0  0
   13.1412  -13.0986  -10.2163 H   0  0  0  0  0  0  0  0  0  0  0  0
   11.4697  -13.2620   -8.3627 H   0  0  0  0  0  0  0  0  0  0  0  0
  1  2  1  0
  2  3  1  0
  3  4  1  0
  4  5  2  0
  5  6  1  0
  6  7  2  0
  7  8  1  0
  8  9  2  0
  9 10  1  0
 10 11  1  0
 11 12  1  0
 11 13  1  0
 11 14  1  0
  2 15  1  0
 15 16  1  0
 16 17  1  0
 17 18  2  0
 18 19  1  0
 19 20  2  0
 20 21  1  0
 21 22  2  0
 22 23  1  0
 23 24  2  0
 24 25  1  0
 25 26  2  0
  9  4  1  0
 25 16  1  0
 24 19  1  0
  1 27  1  0
  1 28  1  0
  1 29  1  0
  2 30  1  6
  3 31  1  0
  3 32  1  0
  5 33  1  0
  6 34  1  0
  7 35  1  0
  8 36  1  0
 15 37  1  0
 15 38  1  0
 20 39  1  0
 21 40  1  0
 22 41  1  0
 23 42  1  0
M  CHG  1   2   1
M  END
>  <meeko>  (9) 
{"is_sidechain": [false], "free_energy": -6.166, "intermolecular_energy": -8.628, "internal_energy": -1.783}

$$$$
