REF_ZINC12986242__Ngeom1__M_PUB_ALL__e8__s20260927
     RDKit          3D

 49 52  0  0  0  0  0  0  0  0999 V2000
   -1.5900  -10.9620    2.8850 C   0  0  0  0  0  0  0  0  0  0  0  0
   -0.6000  -11.8380    2.3500 O   0  0  0  0  0  0  0  0  0  0  0  0
    0.0010  -11.4780    1.1750 C   0  0  0  0  0  0  0  0  0  0  0  0
   -0.1130  -10.2260    0.5680 C   0  0  0  0  0  0  0  0  0  0  0  0
    0.5540   -9.9650   -0.6320 C   0  0  0  0  0  0  0  0  0  0  0  0
    1.3360  -10.9540   -1.2220 C   0  0  0  0  0  0  0  0  0  0  0  0
    2.1550  -10.6310   -2.7000 Cl  0  0  0  0  0  0  0  0  0  0  0  0
    1.4590  -12.2080   -0.6260 C   0  0  0  0  0  0  0  0  0  0  0  0
    0.7900  -12.4830    0.5770 C   0  0  0  0  0  0  0  0  0  0  0  0
    0.9090  -13.8430    1.2230 C   0  0  0  0  0  0  0  0  0  0  0  0
   -0.2040  -14.7690    0.8690 N   0  0  1  0  0  0  0  0  0  0  0  0
   -0.0880  -15.4490   -0.4500 C   0  0  0  0  0  0  0  0  0  0  0  0
   -0.5890  -15.7250    1.9770 C   0  0  0  0  0  0  0  0  0  0  0  0
   -1.9800  -15.3650    2.4680 C   0  0  0  0  0  0  0  0  0  0  0  0
   -2.6210  -14.3770    1.9260 N   0  0  0  0  0  0  0  0  0  0  0  0
   -3.8290  -14.1560    2.4960 C   0  0  0  0  0  0  0  0  0  0  0  0
   -4.8990  -12.9670    1.9220 S   0  0  0  0  0  0  0  0  0  0  0  0
   -6.0480  -13.3480    3.1290 C   0  0  0  0  0  0  0  0  0  0  0  0
   -5.6290  -14.3710    3.9640 C   0  0  0  0  0  0  0  0  0  0  0  0
   -6.4890  -14.8130    5.0570 C   0  0  0  0  0  0  0  0  0  0  0  0
   -6.3420  -14.2690    6.3370 C   0  0  0  0  0  0  0  0  0  0  0  0
   -7.1850  -14.6710    7.3770 C   0  0  0  0  0  0  0  0  0  0  0  0
   -8.1810  -15.6170    7.1440 C   0  0  0  0  0  0  0  0  0  0  0  0
   -8.3330  -16.1680    5.8720 C   0  0  0  0  0  0  0  0  0  0  0  0
   -7.4900  -15.7680    4.8320 C   0  0  0  0  0  0  0  0  0  0  0  0
   -4.3230  -14.8380    3.5860 C   0  0  0  0  0  0  0  0  0  0  0  0
   -3.4760  -15.8840    4.1540 C   0  0  0  0  0  0  0  0  0  0  0  0
   -3.7730  -16.4710    5.1890 O   0  0  0  0  0  0  0  0  0  0  0  0
   -2.3490  -16.1550    3.4840 N   0  0  0  0  0  0  0  0  0  0  0  0
   -1.5532  -10.9946    3.9839 H   0  0  0  0  0  0  0  0  0  0  0  0
   -1.3951   -9.9352    2.5419 H   0  0  0  0  0  0  0  0  0  0  0  0
   -2.5854  -11.2805    2.5419 H   0  0  0  0  0  0  0  0  0  0  0  0
   -0.7290   -9.4435    1.0351 H   0  0  0  0  0  0  0  0  0  0  0  0
    0.4611   -8.9787   -1.1100 H   0  0  0  0  0  0  0  0  0  0  0  0
    2.0807  -12.9826   -1.0987 H   0  0  0  0  0  0  0  0  0  0  0  0
    1.8570  -14.2993    0.9018 H   0  0  0  0  0  0  0  0  0  0  0  0
    0.8678  -13.6889    2.3114 H   0  0  0  0  0  0  0  0  0  0  0  0
   -1.0620  -14.1820    0.8250 H   0  0  0  0  0  0  0  0  0  0  0  0
    0.0951  -16.5224   -0.2943 H   0  0  0  0  0  0  0  0  0  0  0  0
   -1.0220  -15.3146   -1.0152 H   0  0  0  0  0  0  0  0  0  0  0  0
    0.7487  -15.0125   -1.0152 H   0  0  0  0  0  0  0  0  0  0  0  0
   -0.5869  -16.7561    1.5938 H   0  0  0  0  0  0  0  0  0  0  0  0
    0.1319  -15.6501    2.8044 H   0  0  0  0  0  0  0  0  0  0  0  0
   -7.0161  -12.8359    3.2317 H   0  0  0  0  0  0  0  0  0  0  0  0
   -5.5585  -13.5205    6.5264 H   0  0  0  0  0  0  0  0  0  0  0  0
   -7.0618  -14.2396    8.3814 H   0  0  0  0  0  0  0  0  0  0  0  0
   -8.8466  -15.9288    7.9624 H   0  0  0  0  0  0  0  0  0  0  0  0
   -9.1166  -16.9176    5.6874 H   0  0  0  0  0  0  0  0  0  0  0  0
   -7.6127  -16.2054    3.8302 H   0  0  0  0  0  0  0  0  0  0  0  0
  1  2  1  0
  2  3  1  0
  3  4  2  0
  4  5  1  0
  5  6  2  0
  6  7  1  0
  6  8  1  0
  8  9  2  0
  9 10  1  0
 10 11  1  0
 11 12  1  0
 11 13  1  0
 13 14  1  0
 14 15  2  0
 15 16  1  0
 16 17  1  0
 17 18  1  0
 18 19  2  0
 19 20  1  0
 20 21  2  0
 21 22  1  0
 22 23  2  0
 23 24  1  0
 24 25  2  0
 19 26  1  0
 26 27  1  0
 27 28  2  0
 27 29  1  0
  9  3  1  0
 29 14  1  0
 26 16  2  0
 25 20  1  0
  1 30  1  0
  1 31  1  0
  1 32  1  0
  4 33  1  0
  5 34  1  0
  8 35  1  0
 10 36  1  0
 10 37  1  0
 11 38  1  6
 12 39  1  0
 12 40  1  0
 12 41  1  0
 13 42  1  0
 13 43  1  0
 18 44  1  0
 21 45  1  0
 22 46  1  0
 23 47  1  0
 24 48  1  0
 25 49  1  0
M  CHG  2  11   1  29  -1
M  END
>  <meeko>  (1) 
{"is_sidechain": [false], "free_energy": -7.535, "intermolecular_energy": -10.178, "internal_energy": -1.285}

$$$$
REF_ZINC12986242__Ngeom1__M_PUB_ALL__e8__s20260927
     RDKit          3D

 49 52  0  0  0  0  0  0  0  0999 V2000
    2.0470  -11.9060   -1.9750 C   0  0  0  0  0  0  0  0  0  0  0  0
    1.9120  -12.2750   -0.6030 O   0  0  0  0  0  0  0  0  0  0  0  0
    1.0290  -11.5660    0.1640 C   0  0  0  0  0  0  0  0  0  0  0  0
    0.6790  -10.2310   -0.0470 C   0  0  0  0  0  0  0  0  0  0  0  0
   -0.2430   -9.6060    0.7980 C   0  0  0  0  0  0  0  0  0  0  0  0
   -0.8150  -10.3160    1.8500 C   0  0  0  0  0  0  0  0  0  0  0  0
   -1.9480   -9.5450    2.8880 Cl  0  0  0  0  0  0  0  0  0  0  0  0
   -0.4740  -11.6500    2.0700 C   0  0  0  0  0  0  0  0  0  0  0  0
    0.4540  -12.2860    1.2310 C   0  0  0  0  0  0  0  0  0  0  0  0
    0.8380  -13.7270    1.4720 C   0  0  0  0  0  0  0  0  0  0  0  0
   -0.1660  -14.7040    0.9640 N   0  0  1  0  0  0  0  0  0  0  0  0
    0.1400  -15.3220   -0.3560 C   0  0  0  0  0  0  0  0  0  0  0  0
   -0.6090  -15.7250    1.9880 C   0  0  0  0  0  0  0  0  0  0  0  0
   -2.0030  -15.3580    2.4690 C   0  0  0  0  0  0  0  0  0  0  0  0
   -2.6330  -14.3640    1.9250 N   0  0  0  0  0  0  0  0  0  0  0  0
   -3.8440  -14.1390    2.4860 C   0  0  0  0  0  0  0  0  0  0  0  0
   -4.9020  -12.9410    1.9070 S   0  0  0  0  0  0  0  0  0  0  0  0
   -6.0640  -13.3200    3.1030 C   0  0  0  0  0  0  0  0  0  0  0  0
   -5.6590  -14.3500    3.9370 C   0  0  0  0  0  0  0  0  0  0  0  0
   -6.5300  -14.7910    5.0200 C   0  0  0  0  0  0  0  0  0  0  0  0
   -7.5380  -15.7310    4.7810 C   0  0  0  0  0  0  0  0  0  0  0  0
   -8.3530  -16.1760    5.8250 C   0  0  0  0  0  0  0  0  0  0  0  0
   -8.1650  -15.6860    7.1160 C   0  0  0  0  0  0  0  0  0  0  0  0
   -7.1650  -14.7470    7.3650 C   0  0  0  0  0  0  0  0  0  0  0  0
   -6.3500  -14.3000    6.3210 C   0  0  0  0  0  0  0  0  0  0  0  0
   -4.3520  -14.8230    3.5680 C   0  0  0  0  0  0  0  0  0  0  0  0
   -3.5160  -15.8760    4.1390 C   0  0  0  0  0  0  0  0  0  0  0  0
   -3.8260  -16.4660    5.1680 O   0  0  0  0  0  0  0  0  0  0  0  0
   -2.3850  -16.1510    3.4780 N   0  0  0  0  0  0  0  0  0  0  0  0
    2.4242  -10.8749   -2.0420 H   0  0  0  0  0  0  0  0  0  0  0  0
    2.7539  -12.5879   -2.4703 H   0  0  0  0  0  0  0  0  0  0  0  0
    1.0669  -11.9708   -2.4703 H   0  0  0  0  0  0  0  0  0  0  0  0
    1.1293   -9.6701   -0.8793 H   0  0  0  0  0  0  0  0  0  0  0  0
   -0.5163   -8.5536    0.6316 H   0  0  0  0  0  0  0  0  0  0  0  0
   -0.9328  -12.2044    2.9020 H   0  0  0  0  0  0  0  0  0  0  0  0
    1.7970  -13.9203    0.9690 H   0  0  0  0  0  0  0  0  0  0  0  0
    0.9019  -13.8664    2.5613 H   0  0  0  0  0  0  0  0  0  0  0  0
   -1.0500  -14.1680    0.8420 H   0  0  0  0  0  0  0  0  0  0  0  0
    0.6232  -16.2979   -0.2008 H   0  0  0  0  0  0  0  0  0  0  0  0
   -0.7935  -15.4608   -0.9211 H   0  0  0  0  0  0  0  0  0  0  0  0
    0.8163  -14.6637   -0.9211 H   0  0  0  0  0  0  0  0  0  0  0  0
   -0.6265  -16.7251    1.5302 H   0  0  0  0  0  0  0  0  0  0  0  0
    0.0907  -15.7331    2.8367 H   0  0  0  0  0  0  0  0  0  0  0  0
   -7.0294  -12.8018    3.1999 H   0  0  0  0  0  0  0  0  0  0  0  0
   -7.6900  -16.1225    3.7643 H   0  0  0  0  0  0  0  0  0  0  0  0
   -9.1442  -16.9142    5.6276 H   0  0  0  0  0  0  0  0  0  0  0  0
   -8.8050  -16.0398    7.9378 H   0  0  0  0  0  0  0  0  0  0  0  0
   -7.0173  -14.3578    8.3832 H   0  0  0  0  0  0  0  0  0  0  0  0
   -5.5626  -13.5585    6.5213 H   0  0  0  0  0  0  0  0  0  0  0  0
  1  2  1  0
  2  3  1  0
  3  4  2  0
  4  5  1  0
  5  6  2  0
  6  7  1  0
  6  8  1  0
  8  9  2  0
  9 10  1  0
 10 11  1  0
 11 12  1  0
 11 13  1  0
 13 14  1  0
 14 15  2  0
 15 16  1  0
 16 17  1  0
 17 18  1  0
 18 19  2  0
 19 20  1  0
 20 21  2  0
 21 22  1  0
 22 23  2  0
 23 24  1  0
 24 25  2  0
 19 26  1  0
 26 27  1  0
 27 28  2  0
 27 29  1  0
  9  3  1  0
 29 14  1  0
 26 16  2  0
 25 20  1  0
  1 30  1  0
  1 31  1  0
  1 32  1  0
  4 33  1  0
  5 34  1  0
  8 35  1  0
 10 36  1  0
 10 37  1  0
 11 38  1  6
 12 39  1  0
 12 40  1  0
 12 41  1  0
 13 42  1  0
 13 43  1  0
 18 44  1  0
 21 45  1  0
 22 46  1  0
 23 47  1  0
 24 48  1  0
 25 49  1  0
M  CHG  2  11   1  29  -1
M  END
>  <meeko>  (2) 
{"is_sidechain": [false], "free_energy": -7.292, "intermolecular_energy": -9.978, "internal_energy": -1.156}

$$$$
REF_ZINC12986242__Ngeom1__M_PUB_ALL__e8__s20260927
     RDKit          3D

 49 52  0  0  0  0  0  0  0  0999 V2000
    6.1830  -16.8990   -4.0120 C   0  0  0  0  0  0  0  0  0  0  0  0
    5.3990  -15.7750   -4.4100 O   0  0  0  0  0  0  0  0  0  0  0  0
    5.7890  -15.0890   -5.5270 C   0  0  0  0  0  0  0  0  0  0  0  0
    6.7520  -15.5260   -6.4390 C   0  0  0  0  0  0  0  0  0  0  0  0
    7.0670  -14.7440   -7.5540 C   0  0  0  0  0  0  0  0  0  0  0  0
    6.4170  -13.5290   -7.7580 C   0  0  0  0  0  0  0  0  0  0  0  0
    6.8080  -12.5690   -9.1300 Cl  0  0  0  0  0  0  0  0  0  0  0  0
    5.4530  -13.0830   -6.8550 C   0  0  0  0  0  0  0  0  0  0  0  0
    5.1320  -13.8580   -5.7290 C   0  0  0  0  0  0  0  0  0  0  0  0
    4.0980  -13.3740   -4.7400 C   0  0  0  0  0  0  0  0  0  0  0  0
    4.3500  -11.9940   -4.2420 N   0  0  1  0  0  0  0  0  0  0  0  0
    3.3090  -10.9830   -4.5760 C   0  0  0  0  0  0  0  0  0  0  0  0
    4.7710  -11.9270   -2.7900 C   0  0  0  0  0  0  0  0  0  0  0  0
    6.2000  -12.4280   -2.6750 C   0  0  0  0  0  0  0  0  0  0  0  0
    6.4630  -13.4700   -1.9510 N   0  0  0  0  0  0  0  0  0  0  0  0
    7.7830  -13.7690   -1.9180 C   0  0  0  0  0  0  0  0  0  0  0  0
    8.3840  -15.1330   -1.1000 S   0  0  0  0  0  0  0  0  0  0  0  0
    9.9920  -14.7460   -1.5340 C   0  0  0  0  0  0  0  0  0  0  0  0
   10.0780  -13.5930   -2.2970 C   0  0  0  0  0  0  0  0  0  0  0  0
   11.3830  -13.1150   -2.7430 C   0  0  0  0  0  0  0  0  0  0  0  0
   11.9030  -13.5230   -3.9750 C   0  0  0  0  0  0  0  0  0  0  0  0
   13.1380  -13.0420   -4.4160 C   0  0  0  0  0  0  0  0  0  0  0  0
   13.8610  -12.1470   -3.6290 C   0  0  0  0  0  0  0  0  0  0  0  0
   13.3520  -11.7350   -2.3980 C   0  0  0  0  0  0  0  0  0  0  0  0
   12.1180  -12.2170   -1.9550 C   0  0  0  0  0  0  0  0  0  0  0  0
    8.7760  -13.0240   -2.5150 C   0  0  0  0  0  0  0  0  0  0  0  0
    8.3600  -11.8300   -3.2450 C   0  0  0  0  0  0  0  0  0  0  0  0
    9.1720  -11.0400   -3.7160 O   0  0  0  0  0  0  0  0  0  0  0  0
    7.0400  -11.6410   -3.3610 N   0  0  0  0  0  0  0  0  0  0  0  0
    6.2190  -16.9506   -2.9138 H   0  0  0  0  0  0  0  0  0  0  0  0
    5.7305  -17.8202   -4.4077 H   0  0  0  0  0  0  0  0  0  0  0  0
    7.2038  -16.7926   -4.4077 H   0  0  0  0  0  0  0  0  0  0  0  0
    7.2633  -16.4868   -6.2798 H   0  0  0  0  0  0  0  0  0  0  0  0
    7.8279  -15.0880   -8.2701 H   0  0  0  0  0  0  0  0  0  0  0  0
    4.9434  -12.1231   -7.0248 H   0  0  0  0  0  0  0  0  0  0  0  0
    3.1131  -13.3927   -5.2294 H   0  0  0  0  0  0  0  0  0  0  0  0
    4.1453  -14.0448   -3.8695 H   0  0  0  0  0  0  0  0  0  0  0  0
    5.2280  -11.6780   -4.7040 H   0  0  0  0  0  0  0  0  0  0  0  0
    2.8858  -10.5720   -3.6476 H   0  0  0  0  0  0  0  0  0  0  0  0
    3.7618  -10.1708   -5.1636 H   0  0  0  0  0  0  0  0  0  0  0  0
    2.5104  -11.4594   -5.1636 H   0  0  0  0  0  0  0  0  0  0  0  0
    4.7133  -10.8874   -2.4353 H   0  0  0  0  0  0  0  0  0  0  0  0
    4.1041  -12.5508   -2.1767 H   0  0  0  0  0  0  0  0  0  0  0  0
   10.8643  -15.3478   -1.2391 H   0  0  0  0  0  0  0  0  0  0  0  0
   11.3358  -14.2274   -4.6011 H   0  0  0  0  0  0  0  0  0  0  0  0
   13.5406  -13.3699   -5.3857 H   0  0  0  0  0  0  0  0  0  0  0  0
   14.8319  -11.7662   -3.9787 H   0  0  0  0  0  0  0  0  0  0  0  0
   13.9225  -11.0301   -1.7754 H   0  0  0  0  0  0  0  0  0  0  0  0
   11.7204  -11.8905   -0.9827 H   0  0  0  0  0  0  0  0  0  0  0  0
  1  2  1  0
  2  3  1  0
  3  4  2  0
  4  5  1  0
  5  6  2  0
  6  7  1  0
  6  8  1  0
  8  9  2  0
  9 10  1  0
 10 11  1  0
 11 12  1  0
 11 13  1  0
 13 14  1  0
 14 15  2  0
 15 16  1  0
 16 17  1  0
 17 18  1  0
 18 19  2  0
 19 20  1  0
 20 21  2  0
 21 22  1  0
 22 23  2  0
 23 24  1  0
 24 25  2  0
 19 26  1  0
 26 27  1  0
 27 28  2  0
 27 29  1  0
  9  3  1  0
 29 14  1  0
 26 16  2  0
 25 20  1  0
  1 30  1  0
  1 31  1  0
  1 32  1  0
  4 33  1  0
  5 34  1  0
  8 35  1  0
 10 36  1  0
 10 37  1  0
 11 38  1  6
 12 39  1  0
 12 40  1  0
 12 41  1  0
 13 42  1  0
 13 43  1  0
 18 44  1  0
 21 45  1  0
 22 46  1  0
 23 47  1  0
 24 48  1  0
 25 49  1  0
M  CHG  2  11   1  29  -1
M  END
>  <meeko>  (3) 
{"is_sidechain": [false], "free_energy": -7.003, "intermolecular_energy": -9.255, "internal_energy": -1.49}

$$$$
REF_ZINC12986242__Ngeom1__M_PUB_ALL__e8__s20260927
     RDKit          3D

 49 52  0  0  0  0  0  0  0  0999 V2000
   -4.0740  -13.6780    0.4760 C   0  0  0  0  0  0  0  0  0  0  0  0
   -3.9560  -13.1510    1.7970 O   0  0  0  0  0  0  0  0  0  0  0  0
   -2.8660  -13.5200    2.5360 C   0  0  0  0  0  0  0  0  0  0  0  0
   -2.5980  -14.8190    2.9740 C   0  0  0  0  0  0  0  0  0  0  0  0
   -1.4450  -15.0840    3.7190 C   0  0  0  0  0  0  0  0  0  0  0  0
   -0.5610  -14.0520    4.0220 C   0  0  0  0  0  0  0  0  0  0  0  0
    0.8560  -14.3800    4.9400 Cl  0  0  0  0  0  0  0  0  0  0  0  0
   -0.8170  -12.7510    3.5900 C   0  0  0  0  0  0  0  0  0  0  0  0
   -1.9740  -12.4730    2.8450 C   0  0  0  0  0  0  0  0  0  0  0  0
   -2.2640  -11.0640    2.3840 C   0  0  0  0  0  0  0  0  0  0  0  0
   -1.8220  -10.7920    0.9870 N   0  0  1  0  0  0  0  0  0  0  0  0
   -2.8440  -10.1850    0.0900 C   0  0  0  0  0  0  0  0  0  0  0  0
   -0.4830  -10.0950    0.8860 C   0  0  0  0  0  0  0  0  0  0  0  0
    0.4500  -10.9560    0.0530 C   0  0  0  0  0  0  0  0  0  0  0  0
    0.8390  -12.1090    0.5000 N   0  0  0  0  0  0  0  0  0  0  0  0
    1.6950  -12.7380   -0.3380 C   0  0  0  0  0  0  0  0  0  0  0  0
    2.2950  -14.2970   -0.0200 S   0  0  0  0  0  0  0  0  0  0  0  0
    3.2220  -14.2870   -1.4560 C   0  0  0  0  0  0  0  0  0  0  0  0
    3.0800  -13.1130   -2.1780 C   0  0  0  0  0  0  0  0  0  0  0  0
    3.8130  -12.9360   -3.4270 C   0  0  0  0  0  0  0  0  0  0  0  0
    5.1190  -12.4350   -3.4170 C   0  0  0  0  0  0  0  0  0  0  0  0
    5.8310  -12.2940   -4.6110 C   0  0  0  0  0  0  0  0  0  0  0  0
    5.2440  -12.6540   -5.8220 C   0  0  0  0  0  0  0  0  0  0  0  0
    3.9420  -13.1510   -5.8430 C   0  0  0  0  0  0  0  0  0  0  0  0
    3.2270  -13.2920   -4.6510 C   0  0  0  0  0  0  0  0  0  0  0  0
    2.1830  -12.2080   -1.5110 C   0  0  0  0  0  0  0  0  0  0  0  0
    1.7260  -10.8690   -1.8740 C   0  0  0  0  0  0  0  0  0  0  0  0
    2.1850  -10.2640   -2.8370 O   0  0  0  0  0  0  0  0  0  0  0  0
    0.7840  -10.3360   -1.0860 N   0  0  0  0  0  0  0  0  0  0  0  0
   -4.3141  -14.7502    0.5291 H   0  0  0  0  0  0  0  0  0  0  0  0
   -4.8759  -13.1488   -0.0596 H   0  0  0  0  0  0  0  0  0  0  0  0
   -3.1230  -13.5413   -0.0596 H   0  0  0  0  0  0  0  0  0  0  0  0
   -3.2952  -15.6348    2.7324 H   0  0  0  0  0  0  0  0  0  0  0  0
   -1.2365  -16.1070    4.0654 H   0  0  0  0  0  0  0  0  0  0  0  0
   -0.1121  -11.9423    3.8331 H   0  0  0  0  0  0  0  0  0  0  0  0
   -3.3491  -10.8943    2.4450 H   0  0  0  0  0  0  0  0  0  0  0  0
   -1.6978  -10.3863    3.0399 H   0  0  0  0  0  0  0  0  0  0  0  0
   -1.5810  -11.7180    0.5770 H   0  0  0  0  0  0  0  0  0  0  0  0
   -3.6328   -9.7165    0.6970 H   0  0  0  0  0  0  0  0  0  0  0  0
   -2.3684   -9.4228   -0.5448 H   0  0  0  0  0  0  0  0  0  0  0  0
   -3.2857  -10.9673   -0.5448 H   0  0  0  0  0  0  0  0  0  0  0  0
   -0.6111   -9.1144    0.4044 H   0  0  0  0  0  0  0  0  0  0  0  0
   -0.0602   -9.9462    1.8905 H   0  0  0  0  0  0  0  0  0  0  0  0
    3.8627  -15.1231   -1.7730 H   0  0  0  0  0  0  0  0  0  0  0  0
    5.5882  -12.1504   -2.4637 H   0  0  0  0  0  0  0  0  0  0  0  0
    6.8571  -11.8979   -4.5947 H   0  0  0  0  0  0  0  0  0  0  0  0
    5.8074  -12.5461   -6.7606 H   0  0  0  0  0  0  0  0  0  0  0  0
    3.4768  -13.4326   -6.7992 H   0  0  0  0  0  0  0  0  0  0  0  0
    2.1995  -13.6841   -4.6723 H   0  0  0  0  0  0  0  0  0  0  0  0
  1  2  1  0
  2  3  1  0
  3  4  2  0
  4  5  1  0
  5  6  2  0
  6  7  1  0
  6  8  1  0
  8  9  2  0
  9 10  1  0
 10 11  1  0
 11 12  1  0
 11 13  1  0
 13 14  1  0
 14 15  2  0
 15 16  1  0
 16 17  1  0
 17 18  1  0
 18 19  2  0
 19 20  1  0
 20 21  2  0
 21 22  1  0
 22 23  2  0
 23 24  1  0
 24 25  2  0
 19 26  1  0
 26 27  1  0
 27 28  2  0
 27 29  1  0
  9  3  1  0
 29 14  1  0
 26 16  2  0
 25 20  1  0
  1 30  1  0
  1 31  1  0
  1 32  1  0
  4 33  1  0
  5 34  1  0
  8 35  1  0
 10 36  1  0
 10 37  1  0
 11 38  1  6
 12 39  1  0
 12 40  1  0
 12 41  1  0
 13 42  1  0
 13 43  1  0
 18 44  1  0
 21 45  1  0
 22 46  1  0
 23 47  1  0
 24 48  1  0
 25 49  1  0
M  CHG  2  11   1  29  -1
M  END
>  <meeko>  (4) 
{"is_sidechain": [false], "free_energy": -6.84, "intermolecular_energy": -9.127, "internal_energy": -1.398}

$$$$
REF_ZINC12986242__Ngeom1__M_PUB_ALL__e8__s20260927
     RDKit          3D

 49 52  0  0  0  0  0  0  0  0999 V2000
    8.7020  -11.7720    0.9250 C   0  0  0  0  0  0  0  0  0  0  0  0
    9.6000  -12.8060    0.5250 O   0  0  0  0  0  0  0  0  0  0  0  0
   10.7130  -12.4450   -0.1830 C   0  0  0  0  0  0  0  0  0  0  0  0
   11.7610  -11.6670    0.3140 C   0  0  0  0  0  0  0  0  0  0  0  0
   12.8570  -11.3650   -0.4990 C   0  0  0  0  0  0  0  0  0  0  0  0
   12.9070  -11.8440   -1.8060 C   0  0  0  0  0  0  0  0  0  0  0  0
   14.2560  -11.4710   -2.8040 Cl  0  0  0  0  0  0  0  0  0  0  0  0
   11.8680  -12.6240   -2.3130 C   0  0  0  0  0  0  0  0  0  0  0  0
   10.7600  -12.9290   -1.5070 C   0  0  0  0  0  0  0  0  0  0  0  0
    9.6250  -13.7620   -2.0540 C   0  0  0  0  0  0  0  0  0  0  0  0
    9.0640  -13.2390   -3.3310 N   0  0  1  0  0  0  0  0  0  0  0  0
    8.1530  -14.1600   -4.0650 C   0  0  0  0  0  0  0  0  0  0  0  0
    8.5060  -11.8360   -3.2330 C   0  0  0  0  0  0  0  0  0  0  0  0
    6.9910  -11.9200   -3.1580 C   0  0  0  0  0  0  0  0  0  0  0  0
    6.2850  -11.8530   -4.2440 N   0  0  0  0  0  0  0  0  0  0  0  0
    4.9530  -11.9040   -4.0100 C   0  0  0  0  0  0  0  0  0  0  0  0
    3.8110  -11.9090   -5.2690 S   0  0  0  0  0  0  0  0  0  0  0  0
    2.5130  -11.9680   -4.1580 C   0  0  0  0  0  0  0  0  0  0  0  0
    2.9370  -11.9860   -2.8390 C   0  0  0  0  0  0  0  0  0  0  0  0
    1.9540  -12.0250   -1.7610 C   0  0  0  0  0  0  0  0  0  0  0  0
    1.5600  -13.2470   -1.2060 C   0  0  0  0  0  0  0  0  0  0  0  0
    0.6410  -13.2820   -0.1540 C   0  0  0  0  0  0  0  0  0  0  0  0
    0.1120  -12.0960    0.3520 C   0  0  0  0  0  0  0  0  0  0  0  0
    0.4960  -10.8730   -0.1960 C   0  0  0  0  0  0  0  0  0  0  0  0
    1.4140  -10.8370   -1.2500 C   0  0  0  0  0  0  0  0  0  0  0  0
    4.3730  -11.9460   -2.7620 C   0  0  0  0  0  0  0  0  0  0  0  0
    5.2720  -11.9460   -1.6110 C   0  0  0  0  0  0  0  0  0  0  0  0
    4.8560  -11.8690   -0.4600 O   0  0  0  0  0  0  0  0  0  0  0  0
    6.5800  -12.0230   -1.8880 N   0  0  0  0  0  0  0  0  0  0  0  0
    8.6619  -11.7258    2.0233 H   0  0  0  0  0  0  0  0  0  0  0  0
    9.0540  -10.8076    0.5301 H   0  0  0  0  0  0  0  0  0  0  0  0
    7.6978  -11.9854    0.5301 H   0  0  0  0  0  0  0  0  0  0  0  0
   11.7237  -11.2913    1.3472 H   0  0  0  0  0  0  0  0  0  0  0  0
   13.6798  -10.7492   -0.1068 H   0  0  0  0  0  0  0  0  0  0  0  0
   11.9168  -13.0005   -3.3454 H   0  0  0  0  0  0  0  0  0  0  0  0
    9.9956  -14.7828   -2.2290 H   0  0  0  0  0  0  0  0  0  0  0  0
    8.8154  -13.7331   -1.3098 H   0  0  0  0  0  0  0  0  0  0  0  0
    9.8800  -13.0700   -3.9540 H   0  0  0  0  0  0  0  0  0  0  0  0
    7.5691  -14.7503   -3.3434 H   0  0  0  0  0  0  0  0  0  0  0  0
    7.4699  -13.5735   -4.6969 H   0  0  0  0  0  0  0  0  0  0  0  0
    8.7470  -14.8367   -4.6969 H   0  0  0  0  0  0  0  0  0  0  0  0
    8.8950  -11.3450   -2.3288 H   0  0  0  0  0  0  0  0  0  0  0  0
    8.8063  -11.2502   -4.1143 H   0  0  0  0  0  0  0  0  0  0  0  0
    1.4549  -11.9894   -4.4580 H   0  0  0  0  0  0  0  0  0  0  0  0
    1.9761  -14.1860   -1.6000 H   0  0  0  0  0  0  0  0  0  0  0  0
    0.3345  -14.2472    0.2755 H   0  0  0  0  0  0  0  0  0  0  0  0
   -0.6080  -12.1249    1.1831 H   0  0  0  0  0  0  0  0  0  0  0  0
    0.0769   -9.9365    0.2007 H   0  0  0  0  0  0  0  0  0  0  0  0
    1.7142   -9.8704   -1.6807 H   0  0  0  0  0  0  0  0  0  0  0  0
  1  2  1  0
  2  3  1  0
  3  4  2  0
  4  5  1  0
  5  6  2  0
  6  7  1  0
  6  8  1  0
  8  9  2  0
  9 10  1  0
 10 11  1  0
 11 12  1  0
 11 13  1  0
 13 14  1  0
 14 15  2  0
 15 16  1  0
 16 17  1  0
 17 18  1  0
 18 19  2  0
 19 20  1  0
 20 21  2  0
 21 22  1  0
 22 23  2  0
 23 24  1  0
 24 25  2  0
 19 26  1  0
 26 27  1  0
 27 28  2  0
 27 29  1  0
  9  3  1  0
 29 14  1  0
 26 16  2  0
 25 20  1  0
  1 30  1  0
  1 31  1  0
  1 32  1  0
  4 33  1  0
  5 34  1  0
  8 35  1  0
 10 36  1  0
 10 37  1  0
 11 38  1  6
 12 39  1  0
 12 40  1  0
 12 41  1  0
 13 42  1  0
 13 43  1  0
 18 44  1  0
 21 45  1  0
 22 46  1  0
 23 47  1  0
 24 48  1  0
 25 49  1  0
M  CHG  2  11   1  29  -1
M  END
>  <meeko>  (5) 
{"is_sidechain": [false], "free_energy": -6.793, "intermolecular_energy": -9.933, "internal_energy": -0.527}

$$$$
REF_ZINC12986242__Ngeom1__M_PUB_ALL__e8__s20260927
     RDKit          3D

 49 52  0  0  0  0  0  0  0  0999 V2000
   14.8480  -12.4950   -3.9640 C   0  0  0  0  0  0  0  0  0  0  0  0
   13.5470  -11.9130   -3.9110 O   0  0  0  0  0  0  0  0  0  0  0  0
   12.9050  -11.8970   -2.7030 C   0  0  0  0  0  0  0  0  0  0  0  0
   13.4110  -11.3250   -1.5340 C   0  0  0  0  0  0  0  0  0  0  0  0
   12.6610  -11.3600   -0.3550 C   0  0  0  0  0  0  0  0  0  0  0  0
   11.4070  -11.9640   -0.3460 C   0  0  0  0  0  0  0  0  0  0  0  0
   10.4870  -12.0070    1.1070 Cl  0  0  0  0  0  0  0  0  0  0  0  0
   10.8900  -12.5380   -1.5070 C   0  0  0  0  0  0  0  0  0  0  0  0
   11.6360  -12.5120   -2.6960 C   0  0  0  0  0  0  0  0  0  0  0  0
   11.0880  -13.1430   -3.9540 C   0  0  0  0  0  0  0  0  0  0  0  0
   11.8640  -14.3290   -4.4120 N   0  0  1  0  0  0  0  0  0  0  0  0
   12.2440  -15.3050   -3.3530 C   0  0  0  0  0  0  0  0  0  0  0  0
   11.2930  -15.0060   -5.6390 C   0  0  0  0  0  0  0  0  0  0  0  0
   12.2830  -14.8550   -6.7810 C   0  0  0  0  0  0  0  0  0  0  0  0
   12.2130  -13.8260   -7.5650 N   0  0  0  0  0  0  0  0  0  0  0  0
   13.1370  -13.8530   -8.5550 C   0  0  0  0  0  0  0  0  0  0  0  0
   13.3060  -12.5840   -9.6730 S   0  0  0  0  0  0  0  0  0  0  0  0
   14.5730  -13.3990  -10.4810 C   0  0  0  0  0  0  0  0  0  0  0  0
   14.8710  -14.6260   -9.9100 C   0  0  0  0  0  0  0  0  0  0  0  0
   15.9230  -15.4580  -10.4860 C   0  0  0  0  0  0  0  0  0  0  0  0
   15.8170  -15.9240  -11.8000 C   0  0  0  0  0  0  0  0  0  0  0  0
   16.8380  -16.6960  -12.3610 C   0  0  0  0  0  0  0  0  0  0  0  0
   17.9720  -17.0040  -11.6130 C   0  0  0  0  0  0  0  0  0  0  0  0
   18.0870  -16.5460  -10.3010 C   0  0  0  0  0  0  0  0  0  0  0  0
   17.0660  -15.7760   -9.7380 C   0  0  0  0  0  0  0  0  0  0  0  0
   14.0210  -14.8850   -8.7800 C   0  0  0  0  0  0  0  0  0  0  0  0
   13.9550  -16.0250   -7.8700 C   0  0  0  0  0  0  0  0  0  0  0  0
   14.6180  -17.0410   -8.0510 O   0  0  0  0  0  0  0  0  0  0  0  0
   13.1180  -15.9020   -6.8320 N   0  0  0  0  0  0  0  0  0  0  0  0
   15.2176  -12.6604   -2.9413 H   0  0  0  0  0  0  0  0  0  0  0  0
   14.7981  -13.4566   -4.4958 H   0  0  0  0  0  0  0  0  0  0  0  0
   15.5316  -11.8169   -4.4958 H   0  0  0  0  0  0  0  0  0  0  0  0
   14.4013  -10.8462   -1.5409 H   0  0  0  0  0  0  0  0  0  0  0  0
   13.0617  -10.9103    0.5655 H   0  0  0  0  0  0  0  0  0  0  0  0
    9.8972  -13.0114   -1.4912 H   0  0  0  0  0  0  0  0  0  0  0  0
   10.0517  -13.4582   -3.7622 H   0  0  0  0  0  0  0  0  0  0  0  0
   11.1543  -12.3867   -4.7500 H   0  0  0  0  0  0  0  0  0  0  0  0
   12.7530  -13.9560   -4.8030 H   0  0  0  0  0  0  0  0  0  0  0  0
   12.0700  -14.8581   -2.3630 H   0  0  0  0  0  0  0  0  0  0  0  0
   11.6344  -16.2147   -3.4569 H   0  0  0  0  0  0  0  0  0  0  0  0
   13.3083  -15.5630   -3.4569 H   0  0  0  0  0  0  0  0  0  0  0  0
   11.1281  -16.0734   -5.4303 H   0  0  0  0  0  0  0  0  0  0  0  0
   10.3327  -14.5434   -5.9107 H   0  0  0  0  0  0  0  0  0  0  0  0
   15.0956  -12.9931  -11.3597 H   0  0  0  0  0  0  0  0  0  0  0  0
   14.9247  -15.6815  -12.3958 H   0  0  0  0  0  0  0  0  0  0  0  0
   16.7460  -17.0609  -13.3946 H   0  0  0  0  0  0  0  0  0  0  0  0
   18.7766  -17.6084  -12.0572 H   0  0  0  0  0  0  0  0  0  0  0  0
   18.9814  -16.7909   -9.7093 H   0  0  0  0  0  0  0  0  0  0  0  0
   17.1592  -15.4172   -8.7023 H   0  0  0  0  0  0  0  0  0  0  0  0
  1  2  1  0
  2  3  1  0
  3  4  2  0
  4  5  1  0
  5  6  2  0
  6  7  1  0
  6  8  1  0
  8  9  2  0
  9 10  1  0
 10 11  1  0
 11 12  1  0
 11 13  1  0
 13 14  1  0
 14 15  2  0
 15 16  1  0
 16 17  1  0
 17 18  1  0
 18 19  2  0
 19 20  1  0
 20 21  2  0
 21 22  1  0
 22 23  2  0
 23 24  1  0
 24 25  2  0
 19 26  1  0
 26 27  1  0
 27 28  2  0
 27 29  1  0
  9  3  1  0
 29 14  1  0
 26 16  2  0
 25 20  1  0
  1 30  1  0
  1 31  1  0
  1 32  1  0
  4 33  1  0
  5 34  1  0
  8 35  1  0
 10 36  1  0
 10 37  1  0
 11 38  1  6
 12 39  1  0
 12 40  1  0
 12 41  1  0
 13 42  1  0
 13 43  1  0
 18 44  1  0
 21 45  1  0
 22 46  1  0
 23 47  1  0
 24 48  1  0
 25 49  1  0
M  CHG  2  11   1  29  -1
M  END
>  <meeko>  (6) 
{"is_sidechain": [false], "free_energy": -6.755, "intermolecular_energy": -9.453, "internal_energy": -0.957}

$$$$
REF_ZINC12986242__Ngeom1__M_PUB_ALL__e8__s20260927
     RDKit          3D

 49 52  0  0  0  0  0  0  0  0999 V2000
   14.7100  -12.4110   -3.8830 C   0  0  0  0  0  0  0  0  0  0  0  0
   13.4170  -11.8280   -3.7300 O   0  0  0  0  0  0  0  0  0  0  0  0
   12.8740  -11.8020   -2.4750 C   0  0  0  0  0  0  0  0  0  0  0  0
   13.4330  -11.1500   -1.3740 C   0  0  0  0  0  0  0  0  0  0  0  0
   12.7850  -11.1830   -0.1360 C   0  0  0  0  0  0  0  0  0  0  0  0
   11.5780  -11.8650   -0.0010 C   0  0  0  0  0  0  0  0  0  0  0  0
   10.7830  -11.9050    1.5240 Cl  0  0  0  0  0  0  0  0  0  0  0  0
   11.0090  -12.5190   -1.0930 C   0  0  0  0  0  0  0  0  0  0  0  0
   11.6540  -12.4960   -2.3400 C   0  0  0  0  0  0  0  0  0  0  0  0
   11.0500  -13.2120   -3.5240 C   0  0  0  0  0  0  0  0  0  0  0  0
   11.1690  -14.6950   -3.4470 N   0  0  1  0  0  0  0  0  0  0  0  0
   12.5200  -15.2210   -3.1090 C   0  0  0  0  0  0  0  0  0  0  0  0
   10.0740  -15.3630   -2.6440 C   0  0  0  0  0  0  0  0  0  0  0  0
    8.7300  -14.8690   -3.1490 C   0  0  0  0  0  0  0  0  0  0  0  0
    8.3580  -15.1330   -4.3620 N   0  0  0  0  0  0  0  0  0  0  0  0
    7.1560  -14.5940   -4.6740 C   0  0  0  0  0  0  0  0  0  0  0  0
    6.4090  -14.8550   -6.1780 S   0  0  0  0  0  0  0  0  0  0  0  0
    5.0740  -13.8800   -5.7390 C   0  0  0  0  0  0  0  0  0  0  0  0
    5.1880  -13.3590   -4.4600 C   0  0  0  0  0  0  0  0  0  0  0  0
    4.1380  -12.4950   -3.9330 C   0  0  0  0  0  0  0  0  0  0  0  0
    3.9620  -11.2040   -4.4410 C   0  0  0  0  0  0  0  0  0  0  0  0
    2.9370  -10.3870   -3.9560 C   0  0  0  0  0  0  0  0  0  0  0  0
    2.0800  -10.8560   -2.9630 C   0  0  0  0  0  0  0  0  0  0  0  0
    2.2490  -12.1400   -2.4470 C   0  0  0  0  0  0  0  0  0  0  0  0
    3.2750  -12.9580   -2.9300 C   0  0  0  0  0  0  0  0  0  0  0  0
    6.4170  -13.7820   -3.8430 C   0  0  0  0  0  0  0  0  0  0  0  0
    6.9750  -13.4980   -2.5240 C   0  0  0  0  0  0  0  0  0  0  0  0
    6.4510  -12.6990   -1.7550 O   0  0  0  0  0  0  0  0  0  0  0  0
    8.1000  -14.1520   -2.2090 N   0  0  0  0  0  0  0  0  0  0  0  0
   15.1437  -12.6066   -2.8912 H   0  0  0  0  0  0  0  0  0  0  0  0
   14.6225  -13.3568   -4.4379 H   0  0  0  0  0  0  0  0  0  0  0  0
   15.3608  -11.7192   -4.4379 H   0  0  0  0  0  0  0  0  0  0  0  0
   14.3850  -10.6095   -1.4812 H   0  0  0  0  0  0  0  0  0  0  0  0
   13.2278  -10.6708    0.7309 H   0  0  0  0  0  0  0  0  0  0  0  0
   10.0544  -13.0532   -0.9776 H   0  0  0  0  0  0  0  0  0  0  0  0
    9.9829  -12.9510   -3.5812 H   0  0  0  0  0  0  0  0  0  0  0  0
   11.6074  -12.8890   -4.4156 H   0  0  0  0  0  0  0  0  0  0  0  0
   10.9420  -15.0510   -4.3990 H   0  0  0  0  0  0  0  0  0  0  0  0
   12.6333  -15.2651   -2.0157 H   0  0  0  0  0  0  0  0  0  0  0  0
   12.6366  -16.2302   -3.5308 H   0  0  0  0  0  0  0  0  0  0  0  0
   13.2883  -14.5563   -3.5308 H   0  0  0  0  0  0  0  0  0  0  0  0
   10.1375  -16.4542   -2.7674 H   0  0  0  0  0  0  0  0  0  0  0  0
   10.1875  -15.1168   -1.5779 H   0  0  0  0  0  0  0  0  0  0  0  0
    4.2169  -13.6872   -6.4009 H   0  0  0  0  0  0  0  0  0  0  0  0
    4.6343  -10.8293   -5.2269 H   0  0  0  0  0  0  0  0  0  0  0  0
    2.8068   -9.3718   -4.3591 H   0  0  0  0  0  0  0  0  0  0  0  0
    1.2704  -10.2136   -2.5863 H   0  0  0  0  0  0  0  0  0  0  0  0
    1.5752  -12.5096   -1.6599 H   0  0  0  0  0  0  0  0  0  0  0  0
    3.4057  -13.9706   -2.5206 H   0  0  0  0  0  0  0  0  0  0  0  0
  1  2  1  0
  2  3  1  0
  3  4  2  0
  4  5  1  0
  5  6  2  0
  6  7  1  0
  6  8  1  0
  8  9  2  0
  9 10  1  0
 10 11  1  0
 11 12  1  0
 11 13  1  0
 13 14  1  0
 14 15  2  0
 15 16  1  0
 16 17  1  0
 17 18  1  0
 18 19  2  0
 19 20  1  0
 20 21  2  0
 21 22  1  0
 22 23  2  0
 23 24  1  0
 24 25  2  0
 19 26  1  0
 26 27  1  0
 27 28  2  0
 27 29  1  0
  9  3  1  0
 29 14  1  0
 26 16  2  0
 25 20  1  0
  1 30  1  0
  1 31  1  0
  1 32  1  0
  4 33  1  0
  5 34  1  0
  8 35  1  0
 10 36  1  0
 10 37  1  0
 11 38  1  6
 12 39  1  0
 12 40  1  0
 12 41  1  0
 13 42  1  0
 13 43  1  0
 18 44  1  0
 21 45  1  0
 22 46  1  0
 23 47  1  0
 24 48  1  0
 25 49  1  0
M  CHG  2  11   1  29  -1
M  END
>  <meeko>  (7) 
{"is_sidechain": [false], "free_energy": -6.729, "intermolecular_energy": -9.635, "internal_energy": -0.739}

$$$$
REF_ZINC12986242__Ngeom1__M_PUB_ALL__e8__s20260927
     RDKit          3D

 49 52  0  0  0  0  0  0  0  0999 V2000
   16.2100  -10.3370   12.5500 C   0  0  0  0  0  0  0  0  0  0  0  0
   14.8420  -10.0820   12.2360 O   0  0  0  0  0  0  0  0  0  0  0  0
   13.9540  -11.1140   12.3700 C   0  0  0  0  0  0  0  0  0  0  0  0
   13.8550  -12.2020   11.5010 C   0  0  0  0  0  0  0  0  0  0  0  0
   12.9120  -13.2070   11.7400 C   0  0  0  0  0  0  0  0  0  0  0  0
   12.0740  -13.1240   12.8490 C   0  0  0  0  0  0  0  0  0  0  0  0
   10.9150  -14.3610   13.1400 Cl  0  0  0  0  0  0  0  0  0  0  0  0
   12.1640  -12.0430   13.7250 C   0  0  0  0  0  0  0  0  0  0  0  0
   13.1040  -11.0260   13.4910 C   0  0  0  0  0  0  0  0  0  0  0  0
   13.1990   -9.8450   14.4290 C   0  0  0  0  0  0  0  0  0  0  0  0
   12.6650   -8.5810   13.8500 N   0  0  1  0  0  0  0  0  0  0  0  0
   11.1860   -8.5180   13.6820 C   0  0  0  0  0  0  0  0  0  0  0  0
   13.2260   -7.3260   14.4820 C   0  0  0  0  0  0  0  0  0  0  0  0
   14.6820   -7.1850   14.0730 C   0  0  0  0  0  0  0  0  0  0  0  0
   15.6200   -7.3610   14.9500 N   0  0  0  0  0  0  0  0  0  0  0  0
   16.8590   -7.1660   14.4430 C   0  0  0  0  0  0  0  0  0  0  0  0
   18.2650   -7.4060   15.3680 S   0  0  0  0  0  0  0  0  0  0  0  0
   19.2640   -6.9540   14.0550 C   0  0  0  0  0  0  0  0  0  0  0  0
   18.5420   -6.6250   12.9200 C   0  0  0  0  0  0  0  0  0  0  0  0
   19.2420   -6.2060   11.7110 C   0  0  0  0  0  0  0  0  0  0  0  0
   19.4320   -7.1040   10.6550 C   0  0  0  0  0  0  0  0  0  0  0  0
   20.0760   -6.6940    9.4850 C   0  0  0  0  0  0  0  0  0  0  0  0
   20.5330   -5.3830    9.3610 C   0  0  0  0  0  0  0  0  0  0  0  0
   20.3510   -4.4810   10.4080 C   0  0  0  0  0  0  0  0  0  0  0  0
   19.7080   -4.8900   11.5800 C   0  0  0  0  0  0  0  0  0  0  0  0
   17.1290   -6.7500   13.1590 C   0  0  0  0  0  0  0  0  0  0  0  0
   15.9840   -6.5150   12.2830 C   0  0  0  0  0  0  0  0  0  0  0  0
   16.1100   -6.0380   11.1600 O   0  0  0  0  0  0  0  0  0  0  0  0
   14.7860   -6.8430   12.7820 N   0  0  0  0  0  0  0  0  0  0  0  0
   16.3372  -10.3607   13.6424 H   0  0  0  0  0  0  0  0  0  0  0  0
   16.5092  -11.3064   12.1249 H   0  0  0  0  0  0  0  0  0  0  0  0
   16.8384   -9.5405   12.1249 H   0  0  0  0  0  0  0  0  0  0  0  0
   14.5196  -12.2691   10.6270 H   0  0  0  0  0  0  0  0  0  0  0  0
   12.8325  -14.0621   11.0526 H   0  0  0  0  0  0  0  0  0  0  0  0
   11.4989  -11.9867   14.5993 H   0  0  0  0  0  0  0  0  0  0  0  0
   12.6294  -10.0780   15.3408 H   0  0  0  0  0  0  0  0  0  0  0  0
   14.2671   -9.6805   14.6344 H   0  0  0  0  0  0  0  0  0  0  0  0
   13.0740   -8.5070   12.8960 H   0  0  0  0  0  0  0  0  0  0  0  0
   10.7052   -8.4975   14.6711 H   0  0  0  0  0  0  0  0  0  0  0  0
   10.9186   -7.6077   13.1254 H   0  0  0  0  0  0  0  0  0  0  0  0
   10.8422   -9.4023   13.1254 H   0  0  0  0  0  0  0  0  0  0  0  0
   12.6574   -6.4506   14.1350 H   0  0  0  0  0  0  0  0  0  0  0  0
   13.1485   -7.3906   15.5774 H   0  0  0  0  0  0  0  0  0  0  0  0
   20.3625   -6.9275   14.1067 H   0  0  0  0  0  0  0  0  0  0  0  0
   19.0720   -8.1394   10.7466 H   0  0  0  0  0  0  0  0  0  0  0  0
   20.2227   -7.4069    8.6603 H   0  0  0  0  0  0  0  0  0  0  0  0
   21.0368   -5.0606    8.4378 H   0  0  0  0  0  0  0  0  0  0  0  0
   20.7135   -3.4469   10.3120 H   0  0  0  0  0  0  0  0  0  0  0  0
   19.5668   -4.1753   12.4042 H   0  0  0  0  0  0  0  0  0  0  0  0
  1  2  1  0
  2  3  1  0
  3  4  2  0
  4  5  1  0
  5  6  2  0
  6  7  1  0
  6  8  1  0
  8  9  2  0
  9 10  1  0
 10 11  1  0
 11 12  1  0
 11 13  1  0
 13 14  1  0
 14 15  2  0
 15 16  1  0
 16 17  1  0
 17 18  1  0
 18 19  2  0
 19 20  1  0
 20 21  2  0
 21 22  1  0
 22 23  2  0
 23 24  1  0
 24 25  2  0
 19 26  1  0
 26 27  1  0
 27 28  2  0
 27 29  1  0
  9  3  1  0
 29 14  1  0
 26 16  2  0
 25 20  1  0
  1 30  1  0
  1 31  1  0
  1 32  1  0
  4 33  1  0
  5 34  1  0
  8 35  1  0
 10 36  1  0
 10 37  1  0
 11 38  1  6
 12 39  1  0
 12 40  1  0
 12 41  1  0
 13 42  1  0
 13 43  1  0
 18 44  1  0
 21 45  1  0
 22 46  1  0
 23 47  1  0
 24 48  1  0
 25 49  1  0
M  CHG  2  11   1  29  -1
M  END
>  <meeko>  (8) 
{"is_sidechain": [false], "free_energy": -6.715, "intermolecular_energy": -8.852, "internal_energy": -1.503}

$$$$
REF_ZINC12986242__Ngeom1__M_PUB_ALL__e8__s20260927
     RDKit          3D

 49 52  0  0  0  0  0  0  0  0999 V2000
    2.5790  -10.4520   -3.2080 C   0  0  0  0  0  0  0  0  0  0  0  0
    3.4730  -11.5380   -2.9730 O   0  0  0  0  0  0  0  0  0  0  0  0
    4.1310  -12.0660   -4.0500 C   0  0  0  0  0  0  0  0  0  0  0  0
    4.0220  -11.6010   -5.3620 C   0  0  0  0  0  0  0  0  0  0  0  0
    4.7490  -12.2140   -6.3870 C   0  0  0  0  0  0  0  0  0  0  0  0
    5.5860  -13.2890   -6.0980 C   0  0  0  0  0  0  0  0  0  0  0  0
    6.4790  -14.0420   -7.3600 Cl  0  0  0  0  0  0  0  0  0  0  0  0
    5.7050  -13.7620   -4.7910 C   0  0  0  0  0  0  0  0  0  0  0  0
    4.9760  -13.1570   -3.7560 C   0  0  0  0  0  0  0  0  0  0  0  0
    5.0890  -13.6720   -2.3410 C   0  0  0  0  0  0  0  0  0  0  0  0
    3.7900  -14.1170   -1.7630 N   0  0  1  0  0  0  0  0  0  0  0  0
    3.3270  -15.4710   -2.1730 C   0  0  0  0  0  0  0  0  0  0  0  0
    3.6680  -13.8950   -0.2710 C   0  0  0  0  0  0  0  0  0  0  0  0
    2.3280  -13.2390    0.0140 C   0  0  0  0  0  0  0  0  0  0  0  0
    2.2570  -11.9540    0.1670 N   0  0  0  0  0  0  0  0  0  0  0  0
    1.0040  -11.5260    0.4520 C   0  0  0  0  0  0  0  0  0  0  0  0
    0.6270   -9.8780    0.6260 S   0  0  0  0  0  0  0  0  0  0  0  0
   -1.0110  -10.2370    0.9610 C   0  0  0  0  0  0  0  0  0  0  0  0
   -1.2760  -11.5970    0.9390 C   0  0  0  0  0  0  0  0  0  0  0  0
   -2.6260  -12.0770    1.2160 C   0  0  0  0  0  0  0  0  0  0  0  0
   -2.9640  -12.5450    2.4890 C   0  0  0  0  0  0  0  0  0  0  0  0
   -4.2650  -12.9770    2.7620 C   0  0  0  0  0  0  0  0  0  0  0  0
   -5.2370  -12.9410    1.7630 C   0  0  0  0  0  0  0  0  0  0  0  0
   -4.9090  -12.4780    0.4900 C   0  0  0  0  0  0  0  0  0  0  0  0
   -3.6080  -12.0480    0.2160 C   0  0  0  0  0  0  0  0  0  0  0  0
   -0.0850  -12.3460    0.6420 C   0  0  0  0  0  0  0  0  0  0  0  0
    0.1370  -13.7840    0.5130 C   0  0  0  0  0  0  0  0  0  0  0  0
   -0.7390  -14.6030    0.7720 O   0  0  0  0  0  0  0  0  0  0  0  0
    1.3560  -14.1560    0.1060 N   0  0  0  0  0  0  0  0  0  0  0  0
    2.2405  -10.0408   -2.2455 H   0  0  0  0  0  0  0  0  0  0  0  0
    3.0969   -9.6679   -3.7799 H   0  0  0  0  0  0  0  0  0  0  0  0
    1.7100  -10.8096   -3.7799 H   0  0  0  0  0  0  0  0  0  0  0  0
    3.3627  -10.7505   -5.5898 H   0  0  0  0  0  0  0  0  0  0  0  0
    4.6600  -11.8477   -7.4204 H   0  0  0  0  0  0  0  0  0  0  0  0
    6.3707  -14.6098   -4.5717 H   0  0  0  0  0  0  0  0  0  0  0  0
    5.7826  -14.5258   -2.3360 H   0  0  0  0  0  0  0  0  0  0  0  0
    5.4487  -12.8372   -1.7215 H   0  0  0  0  0  0  0  0  0  0  0  0
    3.0770  -13.4420   -2.1090 H   0  0  0  0  0  0  0  0  0  0  0  0
    3.1205  -16.0748   -1.2770 H   0  0  0  0  0  0  0  0  0  0  0  0
    2.4093  -15.3788   -2.7725 H   0  0  0  0  0  0  0  0  0  0  0  0
    4.1090  -15.9600   -2.7725 H   0  0  0  0  0  0  0  0  0  0  0  0
    3.7269  -14.8603    0.2532 H   0  0  0  0  0  0  0  0  0  0  0  0
    4.4852  -13.2479    0.0804 H   0  0  0  0  0  0  0  0  0  0  0  0
   -1.7721   -9.4711    1.1712 H   0  0  0  0  0  0  0  0  0  0  0  0
   -2.2012  -12.5735    3.2811 H   0  0  0  0  0  0  0  0  0  0  0  0
   -4.5223  -13.3457    3.7659 H   0  0  0  0  0  0  0  0  0  0  0  0
   -6.2616  -13.2777    1.9793 H   0  0  0  0  0  0  0  0  0  0  0  0
   -5.6746  -12.4511   -0.2994 H   0  0  0  0  0  0  0  0  0  0  0  0
   -3.3529  -11.6846   -0.7904 H   0  0  0  0  0  0  0  0  0  0  0  0
  1  2  1  0
  2  3  1  0
  3  4  2  0
  4  5  1  0
  5  6  2  0
  6  7  1  0
  6  8  1  0
  8  9  2  0
  9 10  1  0
 10 11  1  0
 11 12  1  0
 11 13  1  0
 13 14  1  0
 14 15  2  0
 15 16  1  0
 16 17  1  0
 17 18  1  0
 18 19  2  0
 19 20  1  0
 20 21  2  0
 21 22  1  0
 22 23  2  0
 23 24  1  0
 24 25  2  0
 19 26  1  0
 26 27  1  0
 27 28  2  0
 27 29  1  0
  9  3  1  0
 29 14  1  0
 26 16  2  0
 25 20  1  0
  1 30  1  0
  1 31  1  0
  1 32  1  0
  4 33  1  0
  5 34  1  0
  8 35  1  0
 10 36  1  0
 10 37  1  0
 11 38  1  6
 12 39  1  0
 12 40  1  0
 12 41  1  0
 13 42  1  0
 13 43  1  0
 18 44  1  0
 21 45  1  0
 22 46  1  0
 23 47  1  0
 24 48  1  0
 25 49  1  0
M  CHG  2  11   1  29  -1
M  END
>  <meeko>  (9) 
{"is_sidechain": [false], "free_energy": -6.6, "intermolecular_energy": -9.025, "internal_energy": -1.175}

$$$$
