REF_ZINC24739924__Ngeom1__M_PUB_ALL__e8__s20260927
     RDKit          3D

 42 44  0  0  0  0  0  0  0  0999 V2000
  -16.5420  -16.6680   -9.9740 C   0  0  0  0  0  0  0  0  0  0  0  0
  -15.3470  -16.0980   -9.2770 N   0  0  1  0  0  0  0  0  0  0  0  0
  -14.5670  -17.1260   -8.4970 C   0  0  0  0  0  0  0  0  0  0  0  0
  -14.8300  -17.0760   -7.0120 C   0  0  0  0  0  0  0  0  0  0  0  0
  -16.1640  -17.0260   -6.5630 C   0  0  0  0  0  0  0  0  0  0  0  0
  -16.4510  -16.9900   -5.2010 C   0  0  0  0  0  0  0  0  0  0  0  0
  -15.4140  -17.0040   -4.2750 C   0  0  0  0  0  0  0  0  0  0  0  0
  -14.0850  -17.0560   -4.7050 C   0  0  0  0  0  0  0  0  0  0  0  0
  -13.7810  -17.0920   -6.0700 C   0  0  0  0  0  0  0  0  0  0  0  0
  -12.5180  -17.1620   -6.5900 O   0  0  0  0  0  0  0  0  0  0  0  0
  -11.6840  -16.0080   -6.5000 C   0  0  0  0  0  0  0  0  0  0  0  0
  -10.8900  -16.0850   -5.4140 F   0  0  0  0  0  0  0  0  0  0  0  0
  -10.9010  -15.9790   -7.5980 F   0  0  0  0  0  0  0  0  0  0  0  0
  -12.4190  -14.8820   -6.4650 F   0  0  0  0  0  0  0  0  0  0  0  0
  -14.4890  -15.2940  -10.2080 C   0  0  0  0  0  0  0  0  0  0  0  0
  -13.8110  -14.2300   -9.5110 N   0  0  0  0  0  0  0  0  0  0  0  0
  -12.4560  -14.1810   -9.6400 N   0  0  0  0  0  0  0  0  0  0  0  0
  -11.7880  -13.2540   -9.1340 N   0  0  0  0  0  0  0  0  0  0  0  0
  -12.4320  -12.2000   -8.4710 C   0  0  0  0  0  0  0  0  0  0  0  0
  -11.6650  -11.1530   -7.9500 C   0  0  0  0  0  0  0  0  0  0  0  0
  -12.2760  -10.0880   -7.2800 C   0  0  0  0  0  0  0  0  0  0  0  0
  -13.6610  -10.0600   -7.1220 C   0  0  0  0  0  0  0  0  0  0  0  0
  -14.4380  -11.0970   -7.6340 C   0  0  0  0  0  0  0  0  0  0  0  0
  -13.8080  -12.1510   -8.3020 C   0  0  0  0  0  0  0  0  0  0  0  0
  -14.5560  -13.2720   -8.8570 C   0  0  0  0  0  0  0  0  0  0  0  0
  -15.7710  -13.3900   -8.7060 O   0  0  0  0  0  0  0  0  0  0  0  0
  -17.2709  -17.0157   -9.2271 H   0  0  0  0  0  0  0  0  0  0  0  0
  -17.0035  -15.8930  -10.6037 H   0  0  0  0  0  0  0  0  0  0  0  0
  -16.2302  -17.5143  -10.6037 H   0  0  0  0  0  0  0  0  0  0  0  0
  -15.7010  -15.3990   -8.6010 H   0  0  0  0  0  0  0  0  0  0  0  0
  -14.8404  -18.1254   -8.8663 H   0  0  0  0  0  0  0  0  0  0  0  0
  -13.4995  -16.9061   -8.6459 H   0  0  0  0  0  0  0  0  0  0  0  0
  -16.9857  -17.0153   -7.2942 H   0  0  0  0  0  0  0  0  0  0  0  0
  -17.4956  -16.9506   -4.8585 H   0  0  0  0  0  0  0  0  0  0  0  0
  -15.6405  -16.9740   -3.1990 H   0  0  0  0  0  0  0  0  0  0  0  0
  -13.2719  -17.0687   -3.9643 H   0  0  0  0  0  0  0  0  0  0  0  0
  -13.7397  -15.9563  -10.6661 H   0  0  0  0  0  0  0  0  0  0  0  0
  -15.1366  -14.8470  -10.9767 H   0  0  0  0  0  0  0  0  0  0  0  0
  -10.5715  -11.1672   -8.0682 H   0  0  0  0  0  0  0  0  0  0  0  0
  -11.6617   -9.2697   -6.8763 H   0  0  0  0  0  0  0  0  0  0  0  0
  -14.1390   -9.2214   -6.5945 H   0  0  0  0  0  0  0  0  0  0  0  0
  -15.5314  -11.0865   -7.5143 H   0  0  0  0  0  0  0  0  0  0  0  0
  1  2  1  0
  2  3  1  0
  3  4  1  0
  4  5  2  0
  5  6  1  0
  6  7  2  0
  7  8  1  0
  8  9  2  0
  9 10  1  0
 10 11  1  0
 11 12  1  0
 11 13  1  0
 11 14  1  0
  2 15  1  0
 15 16  1  0
 16 17  1  0
 17 18  2  0
 18 19  1  0
 19 20  2  0
 20 21  1  0
 21 22  2  0
 22 23  1  0
 23 24  2  0
 24 25  1  0
 25 26  2  0
  9  4  1  0
 25 16  1  0
 24 19  1  0
  1 27  1  0
  1 28  1  0
  1 29  1  0
  2 30  1  1
  3 31  1  0
  3 32  1  0
  5 33  1  0
  6 34  1  0
  7 35  1  0
  8 36  1  0
 15 37  1  0
 15 38  1  0
 20 39  1  0
 21 40  1  0
 22 41  1  0
 23 42  1  0
M  CHG  1   2   1
M  END
>  <meeko>  (1) 
{"is_sidechain": [false], "free_energy": -7.028, "intermolecular_energy": -9.494, "internal_energy": -1.802}

$$$$
REF_ZINC24739924__Ngeom1__M_PUB_ALL__e8__s20260927
     RDKit          3D

 42 44  0  0  0  0  0  0  0  0999 V2000
   -1.3960  -15.1340   -0.2520 C   0  0  0  0  0  0  0  0  0  0  0  0
   -1.0570  -13.8050    0.3460 N   0  0  1  0  0  0  0  0  0  0  0  0
   -1.7890  -13.5270    1.6340 C   0  0  0  0  0  0  0  0  0  0  0  0
   -1.8390  -12.0610    1.9900 C   0  0  0  0  0  0  0  0  0  0  0  0
   -1.3990  -11.6590    3.2650 C   0  0  0  0  0  0  0  0  0  0  0  0
   -1.4180  -10.3160    3.6290 C   0  0  0  0  0  0  0  0  0  0  0  0
   -1.8740   -9.3610    2.7260 C   0  0  0  0  0  0  0  0  0  0  0  0
   -2.3120   -9.7440    1.4560 C   0  0  0  0  0  0  0  0  0  0  0  0
   -2.2990  -11.0900    1.0760 C   0  0  0  0  0  0  0  0  0  0  0  0
   -2.6880  -11.5630   -0.1460 O   0  0  0  0  0  0  0  0  0  0  0  0
   -4.0800  -11.5680   -0.4590 C   0  0  0  0  0  0  0  0  0  0  0  0
   -4.4670  -10.3560   -0.9000 F   0  0  0  0  0  0  0  0  0  0  0  0
   -4.2770  -12.4640   -1.4490 F   0  0  0  0  0  0  0  0  0  0  0  0
   -4.8140  -11.9360    0.6070 F   0  0  0  0  0  0  0  0  0  0  0  0
    0.4250  -13.6070    0.4600 C   0  0  0  0  0  0  0  0  0  0  0  0
    0.9340  -12.8120   -0.6290 N   0  0  0  0  0  0  0  0  0  0  0  0
    0.9240  -11.4610   -0.4580 N   0  0  0  0  0  0  0  0  0  0  0  0
    1.4110  -10.6920   -1.3130 N   0  0  0  0  0  0  0  0  0  0  0  0
    2.0430  -11.2140   -2.4510 C   0  0  0  0  0  0  0  0  0  0  0  0
    2.6190  -10.3340   -3.3740 C   0  0  0  0  0  0  0  0  0  0  0  0
    3.2550  -10.8200   -4.5210 C   0  0  0  0  0  0  0  0  0  0  0  0
    3.3200  -12.1930   -4.7580 C   0  0  0  0  0  0  0  0  0  0  0  0
    2.7500  -13.0820   -3.8490 C   0  0  0  0  0  0  0  0  0  0  0  0
    2.1200  -12.5740   -2.7080 C   0  0  0  0  0  0  0  0  0  0  0  0
    1.4970  -13.4430   -1.7180 C   0  0  0  0  0  0  0  0  0  0  0  0
    1.4250  -14.6620   -1.8660 O   0  0  0  0  0  0  0  0  0  0  0  0
   -1.5815  -15.8613    0.5521 H   0  0  0  0  0  0  0  0  0  0  0  0
   -2.2981  -15.0369   -0.8739 H   0  0  0  0  0  0  0  0  0  0  0  0
   -0.5576  -15.4809   -0.8739 H   0  0  0  0  0  0  0  0  0  0  0  0
   -1.3510  -13.0860   -0.3380 H   0  0  0  0  0  0  0  0  0  0  0  0
   -2.8201  -13.8975    1.5362 H   0  0  0  0  0  0  0  0  0  0  0  0
   -1.2384  -14.0380    2.4376 H   0  0  0  0  0  0  0  0  0  0  0  0
   -1.0371  -12.4127    3.9798 H   0  0  0  0  0  0  0  0  0  0  0  0
   -1.0734  -10.0104    4.6279 H   0  0  0  0  0  0  0  0  0  0  0  0
   -1.8897   -8.2993    3.0134 H   0  0  0  0  0  0  0  0  0  0  0  0
   -2.6700   -8.9809    0.7492 H   0  0  0  0  0  0  0  0  0  0  0  0
    0.6461  -13.0972    1.4093 H   0  0  0  0  0  0  0  0  0  0  0  0
    0.9101  -14.5936    0.4250 H   0  0  0  0  0  0  0  0  0  0  0  0
    2.5711   -9.2496   -3.1958 H   0  0  0  0  0  0  0  0  0  0  0  0
    3.7051  -10.1176   -5.2380 H   0  0  0  0  0  0  0  0  0  0  0  0
    3.8203  -12.5733   -5.6608 H   0  0  0  0  0  0  0  0  0  0  0  0
    2.7947  -14.1668   -4.0259 H   0  0  0  0  0  0  0  0  0  0  0  0
  1  2  1  0
  2  3  1  0
  3  4  1  0
  4  5  2  0
  5  6  1  0
  6  7  2  0
  7  8  1  0
  8  9  2  0
  9 10  1  0
 10 11  1  0
 11 12  1  0
 11 13  1  0
 11 14  1  0
  2 15  1  0
 15 16  1  0
 16 17  1  0
 17 18  2  0
 18 19  1  0
 19 20  2  0
 20 21  1  0
 21 22  2  0
 22 23  1  0
 23 24  2  0
 24 25  1  0
 25 26  2  0
  9  4  1  0
 25 16  1  0
 24 19  1  0
  1 27  1  0
  1 28  1  0
  1 29  1  0
  2 30  1  6
  3 31  1  0
  3 32  1  0
  5 33  1  0
  6 34  1  0
  7 35  1  0
  8 36  1  0
 15 37  1  0
 15 38  1  0
 20 39  1  0
 21 40  1  0
 22 41  1  0
 23 42  1  0
M  CHG  1   2   1
M  END
>  <meeko>  (2) 
{"is_sidechain": [false], "free_energy": -6.945, "intermolecular_energy": -9.6, "internal_energy": -1.583}

$$$$
REF_ZINC24739924__Ngeom1__M_PUB_ALL__e8__s20260927
     RDKit          3D

 42 44  0  0  0  0  0  0  0  0999 V2000
   -1.0960  -15.7390    1.3170 C   0  0  0  0  0  0  0  0  0  0  0  0
   -0.7600  -14.3280    0.9520 N   0  0  1  0  0  0  0  0  0  0  0  0
   -1.5170  -13.3070    1.7620 C   0  0  0  0  0  0  0  0  0  0  0  0
   -2.3470  -12.3700    0.9180 C   0  0  0  0  0  0  0  0  0  0  0  0
   -3.3470  -12.9130    0.0890 C   0  0  0  0  0  0  0  0  0  0  0  0
   -4.1420  -12.0830   -0.6960 C   0  0  0  0  0  0  0  0  0  0  0  0
   -3.9480  -10.7070   -0.6640 C   0  0  0  0  0  0  0  0  0  0  0  0
   -2.9610  -10.1520    0.1550 C   0  0  0  0  0  0  0  0  0  0  0  0
   -2.1550  -10.9730    0.9500 C   0  0  0  0  0  0  0  0  0  0  0  0
   -1.1770  -10.5280    1.7970 O   0  0  0  0  0  0  0  0  0  0  0  0
   -1.5680   -9.9860    3.0570 C   0  0  0  0  0  0  0  0  0  0  0  0
   -1.0830   -8.7380    3.2030 F   0  0  0  0  0  0  0  0  0  0  0  0
   -2.9160   -9.9240    3.0790 F   0  0  0  0  0  0  0  0  0  0  0  0
   -1.1560  -10.7710    4.0700 F   0  0  0  0  0  0  0  0  0  0  0  0
    0.7210  -14.0910    0.9470 C   0  0  0  0  0  0  0  0  0  0  0  0
    1.1190  -13.2730   -0.1710 N   0  0  0  0  0  0  0  0  0  0  0  0
    1.3760  -11.9620    0.0910 N   0  0  0  0  0  0  0  0  0  0  0  0
    1.7970  -11.1910   -0.7970 N   0  0  0  0  0  0  0  0  0  0  0  0
    2.0770  -11.6800   -2.0800 C   0  0  0  0  0  0  0  0  0  0  0  0
    2.5880  -10.8060   -3.0460 C   0  0  0  0  0  0  0  0  0  0  0  0
    2.8760  -11.2600   -4.3370 C   0  0  0  0  0  0  0  0  0  0  0  0
    2.6540  -12.5950   -4.6770 C   0  0  0  0  0  0  0  0  0  0  0  0
    2.1440  -13.4770   -3.7260 C   0  0  0  0  0  0  0  0  0  0  0  0
    1.8650  -13.0020   -2.4410 C   0  0  0  0  0  0  0  0  0  0  0  0
    1.3240  -13.8650   -1.3990 C   0  0  0  0  0  0  0  0  0  0  0  0
    1.0150  -15.0370   -1.6110 O   0  0  0  0  0  0  0  0  0  0  0  0
   -1.1197  -15.8387    2.4122 H   0  0  0  0  0  0  0  0  0  0  0  0
   -2.0814  -16.0000    0.9036 H   0  0  0  0  0  0  0  0  0  0  0  0
   -0.3340  -16.4161    0.9036 H   0  0  0  0  0  0  0  0  0  0  0  0
   -1.0340  -14.2030   -0.0380 H   0  0  0  0  0  0  0  0  0  0  0  0
   -2.1863  -13.8379    2.4550 H   0  0  0  0  0  0  0  0  0  0  0  0
   -0.7723  -12.6946    2.2916 H   0  0  0  0  0  0  0  0  0  0  0  0
   -3.5012  -14.0018    0.0615 H   0  0  0  0  0  0  0  0  0  0  0  0
   -4.9220  -12.5149   -1.3402 H   0  0  0  0  0  0  0  0  0  0  0  0
   -4.5746  -10.0515   -1.2866 H   0  0  0  0  0  0  0  0  0  0  0  0
   -2.8171   -9.0616    0.1745 H   0  0  0  0  0  0  0  0  0  0  0  0
    1.0054  -13.5838    1.8807 H   0  0  0  0  0  0  0  0  0  0  0  0
    1.2270  -15.0640    0.8615 H   0  0  0  0  0  0  0  0  0  0  0  0
    2.7649   -9.7516   -2.7874 H   0  0  0  0  0  0  0  0  0  0  0  0
    3.2786  -10.5628   -5.0865 H   0  0  0  0  0  0  0  0  0  0  0  0
    2.8809  -12.9503   -5.6930 H   0  0  0  0  0  0  0  0  0  0  0  0
    1.9636  -14.5313   -3.9826 H   0  0  0  0  0  0  0  0  0  0  0  0
  1  2  1  0
  2  3  1  0
  3  4  1  0
  4  5  2  0
  5  6  1  0
  6  7  2  0
  7  8  1  0
  8  9  2  0
  9 10  1  0
 10 11  1  0
 11 12  1  0
 11 13  1  0
 11 14  1  0
  2 15  1  0
 15 16  1  0
 16 17  1  0
 17 18  2  0
 18 19  1  0
 19 20  2  0
 20 21  1  0
 21 22  2  0
 22 23  1  0
 23 24  2  0
 24 25  1  0
 25 26  2  0
  9  4  1  0
 25 16  1  0
 24 19  1  0
  1 27  1  0
  1 28  1  0
  1 29  1  0
  2 30  1  6
  3 31  1  0
  3 32  1  0
  5 33  1  0
  6 34  1  0
  7 35  1  0
  8 36  1  0
 15 37  1  0
 15 38  1  0
 20 39  1  0
 21 40  1  0
 22 41  1  0
 23 42  1  0
M  CHG  1   2   1
M  END
>  <meeko>  (3) 
{"is_sidechain": [false], "free_energy": -6.834, "intermolecular_energy": -9.625, "internal_energy": -1.408}

$$$$
REF_ZINC24739924__Ngeom1__M_PUB_ALL__e8__s20260927
     RDKit          3D

 42 44  0  0  0  0  0  0  0  0999 V2000
   12.0760   -8.0130   13.3820 C   0  0  0  0  0  0  0  0  0  0  0  0
   11.0750   -8.8850   14.0710 N   0  0  1  0  0  0  0  0  0  0  0  0
   11.6870  -10.1120   14.7000 C   0  0  0  0  0  0  0  0  0  0  0  0
   11.6900  -11.3140   13.7870 C   0  0  0  0  0  0  0  0  0  0  0  0
   10.4950  -12.0400   13.6210 C   0  0  0  0  0  0  0  0  0  0  0  0
   10.4510  -13.1480   12.7800 C   0  0  0  0  0  0  0  0  0  0  0  0
   11.5960  -13.5420   12.0960 C   0  0  0  0  0  0  0  0  0  0  0  0
   12.7890  -12.8300   12.2480 C   0  0  0  0  0  0  0  0  0  0  0  0
   12.8480  -11.7150   13.0900 C   0  0  0  0  0  0  0  0  0  0  0  0
   13.9590  -10.9430   13.2910 O   0  0  0  0  0  0  0  0  0  0  0  0
   14.7020  -10.5150   12.1510 C   0  0  0  0  0  0  0  0  0  0  0  0
   15.2870   -9.3260   12.3910 F   0  0  0  0  0  0  0  0  0  0  0  0
   15.6690  -11.4280   11.9240 F   0  0  0  0  0  0  0  0  0  0  0  0
   13.9150  -10.4400   11.0620 F   0  0  0  0  0  0  0  0  0  0  0  0
   10.2170   -8.1060   15.0230 C   0  0  0  0  0  0  0  0  0  0  0  0
    8.8230   -8.1980   14.6710 N   0  0  0  0  0  0  0  0  0  0  0  0
    8.1700   -9.3320   15.0490 N   0  0  0  0  0  0  0  0  0  0  0  0
    6.9450   -9.4730   14.8550 N   0  0  0  0  0  0  0  0  0  0  0  0
    6.1950   -8.4290   14.2930 C   0  0  0  0  0  0  0  0  0  0  0  0
    4.8160   -8.5960   14.1240 C   0  0  0  0  0  0  0  0  0  0  0  0
    4.0390   -7.5760   13.5650 C   0  0  0  0  0  0  0  0  0  0  0  0
    4.6340   -6.3790   13.1660 C   0  0  0  0  0  0  0  0  0  0  0  0
    6.0060   -6.1990   13.3270 C   0  0  0  0  0  0  0  0  0  0  0  0
    6.7640   -7.2310   13.8900 C   0  0  0  0  0  0  0  0  0  0  0  0
    8.2040   -7.1160   14.0820 C   0  0  0  0  0  0  0  0  0  0  0  0
    8.8430   -6.1390   13.6950 O   0  0  0  0  0  0  0  0  0  0  0  0
   12.6816   -7.4854   14.1336 H   0  0  0  0  0  0  0  0  0  0  0  0
   12.7312   -8.6334   12.7528 H   0  0  0  0  0  0  0  0  0  0  0  0
   11.5513   -7.2789   12.7528 H   0  0  0  0  0  0  0  0  0  0  0  0
   10.4100   -9.2080   13.3470 H   0  0  0  0  0  0  0  0  0  0  0  0
   12.7264   -9.8810   14.9761 H   0  0  0  0  0  0  0  0  0  0  0  0
   11.0725  -10.3698   15.5752 H   0  0  0  0  0  0  0  0  0  0  0  0
    9.5884  -11.7287   14.1607 H   0  0  0  0  0  0  0  0  0  0  0  0
    9.5136  -13.7103   12.6567 H   0  0  0  0  0  0  0  0  0  0  0  0
   11.5625  -14.4184   11.4320 H   0  0  0  0  0  0  0  0  0  0  0  0
   13.6885  -13.1491   11.7011 H   0  0  0  0  0  0  0  0  0  0  0  0
   10.3566   -8.5047   16.0387 H   0  0  0  0  0  0  0  0  0  0  0  0
   10.5172   -7.0489   14.9735 H   0  0  0  0  0  0  0  0  0  0  0  0
    4.3389   -9.5376   14.4334 H   0  0  0  0  0  0  0  0  0  0  0  0
    2.9555   -7.7182   13.4396 H   0  0  0  0  0  0  0  0  0  0  0  0
    4.0211   -5.5790   12.7252 H   0  0  0  0  0  0  0  0  0  0  0  0
    6.4860   -5.2594   13.0160 H   0  0  0  0  0  0  0  0  0  0  0  0
  1  2  1  0
  2  3  1  0
  3  4  1  0
  4  5  2  0
  5  6  1  0
  6  7  2  0
  7  8  1  0
  8  9  2  0
  9 10  1  0
 10 11  1  0
 11 12  1  0
 11 13  1  0
 11 14  1  0
  2 15  1  0
 15 16  1  0
 16 17  1  0
 17 18  2  0
 18 19  1  0
 19 20  2  0
 20 21  1  0
 21 22  2  0
 22 23  1  0
 23 24  2  0
 24 25  1  0
 25 26  2  0
  9  4  1  0
 25 16  1  0
 24 19  1  0
  1 27  1  0
  1 28  1  0
  1 29  1  0
  2 30  1  6
  3 31  1  0
  3 32  1  0
  5 33  1  0
  6 34  1  0
  7 35  1  0
  8 36  1  0
 15 37  1  0
 15 38  1  0
 20 39  1  0
 21 40  1  0
 22 41  1  0
 23 42  1  0
M  CHG  1   2   1
M  END
>  <meeko>  (4) 
{"is_sidechain": [false], "free_energy": -6.77, "intermolecular_energy": -9.961, "internal_energy": -0.986}

$$$$
REF_ZINC24739924__Ngeom1__M_PUB_ALL__e8__s20260927
     RDKit          3D

 42 44  0  0  0  0  0  0  0  0999 V2000
   10.8620   -6.9320   15.5140 C   0  0  0  0  0  0  0  0  0  0  0  0
   11.3350   -7.7780   14.3740 N   0  0  1  0  0  0  0  0  0  0  0  0
   12.6280   -8.4980   14.6640 C   0  0  0  0  0  0  0  0  0  0  0  0
   13.0800   -9.3920   13.5350 C   0  0  0  0  0  0  0  0  0  0  0  0
   12.9490  -10.7860   13.6830 C   0  0  0  0  0  0  0  0  0  0  0  0
   13.3430  -11.6460   12.6610 C   0  0  0  0  0  0  0  0  0  0  0  0
   13.8720  -11.1250   11.4850 C   0  0  0  0  0  0  0  0  0  0  0  0
   14.0060   -9.7440   11.3220 C   0  0  0  0  0  0  0  0  0  0  0  0
   13.6140   -8.8680   12.3400 C   0  0  0  0  0  0  0  0  0  0  0  0
   13.6880   -7.5040   12.2710 O   0  0  0  0  0  0  0  0  0  0  0  0
   14.9780   -6.8970   12.2100 C   0  0  0  0  0  0  0  0  0  0  0  0
   14.9200   -5.6260   12.6510 F   0  0  0  0  0  0  0  0  0  0  0  0
   15.7990   -7.5930   13.0240 F   0  0  0  0  0  0  0  0  0  0  0  0
   15.4730   -6.9390   10.9590 F   0  0  0  0  0  0  0  0  0  0  0  0
   10.2560   -8.6910   13.8730 C   0  0  0  0  0  0  0  0  0  0  0  0
    8.9860   -8.0150   13.8010 N   0  0  0  0  0  0  0  0  0  0  0  0
    8.8910   -6.9840   12.9170 N   0  0  0  0  0  0  0  0  0  0  0  0
    7.8120   -6.3830   12.7300 N   0  0  0  0  0  0  0  0  0  0  0  0
    6.6470   -6.8050   13.3870 C   0  0  0  0  0  0  0  0  0  0  0  0
    5.4420   -6.1440   13.1290 C   0  0  0  0  0  0  0  0  0  0  0  0
    4.2620   -6.5370   13.7700 C   0  0  0  0  0  0  0  0  0  0  0  0
    4.2770   -7.5950   14.6790 C   0  0  0  0  0  0  0  0  0  0  0  0
    5.4700   -8.2630   14.9470 C   0  0  0  0  0  0  0  0  0  0  0  0
    6.6370   -7.8550   14.2940 C   0  0  0  0  0  0  0  0  0  0  0  0
    7.9220   -8.5010   14.5300 C   0  0  0  0  0  0  0  0  0  0  0  0
    8.0660   -9.3900   15.3680 O   0  0  0  0  0  0  0  0  0  0  0  0
   11.1317   -7.4143   16.4651 H   0  0  0  0  0  0  0  0  0  0  0  0
   11.3372   -5.9416   15.4575 H   0  0  0  0  0  0  0  0  0  0  0  0
    9.7694   -6.8182   15.4575 H   0  0  0  0  0  0  0  0  0  0  0  0
   11.5080   -7.1390   13.5790 H   0  0  0  0  0  0  0  0  0  0  0  0
   13.4109   -7.7481   14.8504 H   0  0  0  0  0  0  0  0  0  0  0  0
   12.4534   -9.1414   15.5390 H   0  0  0  0  0  0  0  0  0  0  0  0
   12.5321  -11.1991   14.6133 H   0  0  0  0  0  0  0  0  0  0  0  0
   13.2362  -12.7339   12.7835 H   0  0  0  0  0  0  0  0  0  0  0  0
   14.1866  -11.8040   10.6788 H   0  0  0  0  0  0  0  0  0  0  0  0
   14.4227   -9.3425   10.3865 H   0  0  0  0  0  0  0  0  0  0  0  0
   10.5280   -9.0492   12.8692 H   0  0  0  0  0  0  0  0  0  0  0  0
   10.1608   -9.5321   14.5755 H   0  0  0  0  0  0  0  0  0  0  0  0
    5.4216   -5.3072   12.4154 H   0  0  0  0  0  0  0  0  0  0  0  0
    3.3201   -6.0104   13.5566 H   0  0  0  0  0  0  0  0  0  0  0  0
    3.3487   -7.9014   15.1833 H   0  0  0  0  0  0  0  0  0  0  0  0
    5.4934   -9.0989   15.6617 H   0  0  0  0  0  0  0  0  0  0  0  0
  1  2  1  0
  2  3  1  0
  3  4  1  0
  4  5  2  0
  5  6  1  0
  6  7  2  0
  7  8  1  0
  8  9  2  0
  9 10  1  0
 10 11  1  0
 11 12  1  0
 11 13  1  0
 11 14  1  0
  2 15  1  0
 15 16  1  0
 16 17  1  0
 17 18  2  0
 18 19  1  0
 19 20  2  0
 20 21  1  0
 21 22  2  0
 22 23  1  0
 23 24  2  0
 24 25  1  0
 25 26  2  0
  9  4  1  0
 25 16  1  0
 24 19  1  0
  1 27  1  0
  1 28  1  0
  1 29  1  0
  2 30  1  6
  3 31  1  0
  3 32  1  0
  5 33  1  0
  6 34  1  0
  7 35  1  0
  8 36  1  0
 15 37  1  0
 15 38  1  0
 20 39  1  0
 21 40  1  0
 22 41  1  0
 23 42  1  0
M  CHG  1   2   1
M  END
>  <meeko>  (5) 
{"is_sidechain": [false], "free_energy": -6.766, "intermolecular_energy": -10.071, "internal_energy": -0.87}

$$$$
REF_ZINC24739924__Ngeom1__M_PUB_ALL__e8__s20260927
     RDKit          3D

 42 44  0  0  0  0  0  0  0  0999 V2000
   -9.3280  -14.8210   -8.8690 C   0  0  0  0  0  0  0  0  0  0  0  0
  -10.8060  -14.6240   -8.9950 N   0  0  1  0  0  0  0  0  0  0  0  0
  -11.1800  -13.5300   -9.9630 C   0  0  0  0  0  0  0  0  0  0  0  0
  -11.6960  -12.2840   -9.2870 C   0  0  0  0  0  0  0  0  0  0  0  0
  -12.2240  -12.3900   -7.9860 C   0  0  0  0  0  0  0  0  0  0  0  0
  -12.7000  -11.2630   -7.3220 C   0  0  0  0  0  0  0  0  0  0  0  0
  -12.6540  -10.0210   -7.9470 C   0  0  0  0  0  0  0  0  0  0  0  0
  -12.1310   -9.8990   -9.2360 C   0  0  0  0  0  0  0  0  0  0  0  0
  -11.6490  -11.0230   -9.9160 C   0  0  0  0  0  0  0  0  0  0  0  0
  -11.1030  -11.0060  -11.1700 O   0  0  0  0  0  0  0  0  0  0  0  0
   -9.7970  -10.4540  -11.3310 C   0  0  0  0  0  0  0  0  0  0  0  0
   -9.0610  -10.6550  -10.2210 F   0  0  0  0  0  0  0  0  0  0  0  0
   -9.2020  -11.0950  -12.3590 F   0  0  0  0  0  0  0  0  0  0  0  0
   -9.8600   -9.1410  -11.6200 F   0  0  0  0  0  0  0  0  0  0  0  0
  -11.5190  -15.9150   -9.2660 C   0  0  0  0  0  0  0  0  0  0  0  0
  -12.6510  -16.0840   -8.3900 N   0  0  0  0  0  0  0  0  0  0  0  0
  -13.8810  -16.0880   -8.9750 N   0  0  0  0  0  0  0  0  0  0  0  0
  -14.9170  -16.3010   -8.3100 N   0  0  0  0  0  0  0  0  0  0  0  0
  -14.8280  -16.6060   -6.9440 C   0  0  0  0  0  0  0  0  0  0  0  0
  -15.9990  -16.8830   -6.2300 C   0  0  0  0  0  0  0  0  0  0  0  0
  -15.9460  -17.1880   -4.8660 C   0  0  0  0  0  0  0  0  0  0  0  0
  -14.7210  -17.2180   -4.2010 C   0  0  0  0  0  0  0  0  0  0  0  0
  -13.5460  -16.9440   -4.8980 C   0  0  0  0  0  0  0  0  0  0  0  0
  -13.6210  -16.6420   -6.2620 C   0  0  0  0  0  0  0  0  0  0  0  0
  -12.4360  -16.3390   -7.0530 C   0  0  0  0  0  0  0  0  0  0  0  0
  -11.3150  -16.2580   -6.5520 O   0  0  0  0  0  0  0  0  0  0  0  0
   -9.0524  -14.8577   -7.8047 H   0  0  0  0  0  0  0  0  0  0  0  0
   -9.0412  -15.7653   -9.3548 H   0  0  0  0  0  0  0  0  0  0  0  0
   -8.8039  -13.9848   -9.3548 H   0  0  0  0  0  0  0  0  0  0  0  0
  -11.1510  -14.3420   -8.0610 H   0  0  0  0  0  0  0  0  0  0  0  0
  -10.2889  -13.2645  -10.5507 H   0  0  0  0  0  0  0  0  0  0  0  0
  -11.9931  -13.9181  -10.5941 H   0  0  0  0  0  0  0  0  0  0  0  0
  -12.2606  -13.3713   -7.4904 H   0  0  0  0  0  0  0  0  0  0  0  0
  -13.1114  -11.3542   -6.3059 H   0  0  0  0  0  0  0  0  0  0  0  0
  -13.0315   -9.1305   -7.4231 H   0  0  0  0  0  0  0  0  0  0  0  0
  -12.0977   -8.9120   -9.7205 H   0  0  0  0  0  0  0  0  0  0  0  0
  -11.8696  -15.9183  -10.3086 H   0  0  0  0  0  0  0  0  0  0  0  0
  -10.8166  -16.7426   -9.0880 H   0  0  0  0  0  0  0  0  0  0  0  0
  -16.9701  -16.8607   -6.7461 H   0  0  0  0  0  0  0  0  0  0  0  0
  -16.8737  -17.4049   -4.3162 H   0  0  0  0  0  0  0  0  0  0  0  0
  -14.6822  -17.4575   -3.1281 H   0  0  0  0  0  0  0  0  0  0  0  0
  -12.5740  -16.9648   -4.3835 H   0  0  0  0  0  0  0  0  0  0  0  0
  1  2  1  0
  2  3  1  0
  3  4  1  0
  4  5  2  0
  5  6  1  0
  6  7  2  0
  7  8  1  0
  8  9  2  0
  9 10  1  0
 10 11  1  0
 11 12  1  0
 11 13  1  0
 11 14  1  0
  2 15  1  0
 15 16  1  0
 16 17  1  0
 17 18  2  0
 18 19  1  0
 19 20  2  0
 20 21  1  0
 21 22  2  0
 22 23  1  0
 23 24  2  0
 24 25  1  0
 25 26  2  0
  9  4  1  0
 25 16  1  0
 24 19  1  0
  1 27  1  0
  1 28  1  0
  1 29  1  0
  2 30  1  1
  3 31  1  0
  3 32  1  0
  5 33  1  0
  6 34  1  0
  7 35  1  0
  8 36  1  0
 15 37  1  0
 15 38  1  0
 20 39  1  0
 21 40  1  0
 22 41  1  0
 23 42  1  0
M  CHG  1   2   1
M  END
>  <meeko>  (6) 
{"is_sidechain": [false], "free_energy": -6.743, "intermolecular_energy": -9.502, "internal_energy": -1.408}

$$$$
REF_ZINC24739924__Ngeom1__M_PUB_ALL__e8__s20260927
     RDKit          3D

 42 44  0  0  0  0  0  0  0  0999 V2000
   -2.3820  -15.3440    2.4830 C   0  0  0  0  0  0  0  0  0  0  0  0
   -1.6870  -14.7200    1.3150 N   0  0  1  0  0  0  0  0  0  0  0  0
   -1.3470  -13.2670    1.5300 C   0  0  0  0  0  0  0  0  0  0  0  0
   -2.2520  -12.3230    0.7770 C   0  0  0  0  0  0  0  0  0  0  0  0
   -3.3710  -12.8510    0.1050 C   0  0  0  0  0  0  0  0  0  0  0  0
   -4.2380  -12.0140   -0.5920 C   0  0  0  0  0  0  0  0  0  0  0  0
   -3.9980  -10.6450   -0.6260 C   0  0  0  0  0  0  0  0  0  0  0  0
   -2.8940  -10.1050    0.0370 C   0  0  0  0  0  0  0  0  0  0  0  0
   -2.0140  -10.9330    0.7420 C   0  0  0  0  0  0  0  0  0  0  0  0
   -0.9180  -10.5020    1.4380 O   0  0  0  0  0  0  0  0  0  0  0  0
    0.2320  -10.0880    0.7010 C   0  0  0  0  0  0  0  0  0  0  0  0
   -0.0200  -10.1230   -0.6220 F   0  0  0  0  0  0  0  0  0  0  0  0
    0.5070   -8.8140    1.0490 F   0  0  0  0  0  0  0  0  0  0  0  0
    1.2970  -10.8560    0.9970 F   0  0  0  0  0  0  0  0  0  0  0  0
   -0.5110  -15.5360    0.8650 C   0  0  0  0  0  0  0  0  0  0  0  0
    0.1160  -14.9570   -0.2970 N   0  0  0  0  0  0  0  0  0  0  0  0
    1.3150  -14.3410   -0.1010 N   0  0  0  0  0  0  0  0  0  0  0  0
    1.9710  -13.8740   -1.0560 N   0  0  0  0  0  0  0  0  0  0  0  0
    1.5110  -14.0320   -2.3710 C   0  0  0  0  0  0  0  0  0  0  0  0
    2.2840  -13.5380   -3.4270 C   0  0  0  0  0  0  0  0  0  0  0  0
    1.8530  -13.6770   -4.7510 C   0  0  0  0  0  0  0  0  0  0  0  0
    0.6420  -14.3100   -5.0320 C   0  0  0  0  0  0  0  0  0  0  0  0
   -0.1390  -14.8060   -3.9900 C   0  0  0  0  0  0  0  0  0  0  0  0
    0.3110  -14.6590   -2.6750 C   0  0  0  0  0  0  0  0  0  0  0  0
   -0.4570  -15.1460   -1.5360 C   0  0  0  0  0  0  0  0  0  0  0  0
   -1.5720  -15.6470   -1.6620 O   0  0  0  0  0  0  0  0  0  0  0  0
   -1.9497  -14.9559    3.4171 H   0  0  0  0  0  0  0  0  0  0  0  0
   -3.4538  -15.0992    2.4455 H   0  0  0  0  0  0  0  0  0  0  0  0
   -2.2537  -16.4358    2.4455 H   0  0  0  0  0  0  0  0  0  0  0  0
   -2.3420  -14.7690    0.5160 H   0  0  0  0  0  0  0  0  0  0  0  0
   -1.4277  -13.0451    2.6044 H   0  0  0  0  0  0  0  0  0  0  0  0
   -0.3266  -13.1121    1.1495 H   0  0  0  0  0  0  0  0  0  0  0  0
   -3.5618  -13.9340    0.1310 H   0  0  0  0  0  0  0  0  0  0  0  0
   -5.1101  -12.4344   -1.1141 H   0  0  0  0  0  0  0  0  0  0  0  0
   -4.6816   -9.9835   -1.1783 H   0  0  0  0  0  0  0  0  0  0  0  0
   -2.7149   -9.0202    0.0047 H   0  0  0  0  0  0  0  0  0  0  0  0
    0.2243  -15.5850    1.6816 H   0  0  0  0  0  0  0  0  0  0  0  0
   -0.8680  -16.5424    0.6010 H   0  0  0  0  0  0  0  0  0  0  0  0
    3.2393  -13.0357   -3.2147 H   0  0  0  0  0  0  0  0  0  0  0  0
    2.4709  -13.2860   -5.5727 H   0  0  0  0  0  0  0  0  0  0  0  0
    0.3045  -14.4173   -6.0734 H   0  0  0  0  0  0  0  0  0  0  0  0
   -1.0961  -15.3061   -4.1994 H   0  0  0  0  0  0  0  0  0  0  0  0
  1  2  1  0
  2  3  1  0
  3  4  1  0
  4  5  2  0
  5  6  1  0
  6  7  2  0
  7  8  1  0
  8  9  2  0
  9 10  1  0
 10 11  1  0
 11 12  1  0
 11 13  1  0
 11 14  1  0
  2 15  1  0
 15 16  1  0
 16 17  1  0
 17 18  2  0
 18 19  1  0
 19 20  2  0
 20 21  1  0
 21 22  2  0
 22 23  1  0
 23 24  2  0
 24 25  1  0
 25 26  2  0
  9  4  1  0
 25 16  1  0
 24 19  1  0
  1 27  1  0
  1 28  1  0
  1 29  1  0
  2 30  1  6
  3 31  1  0
  3 32  1  0
  5 33  1  0
  6 34  1  0
  7 35  1  0
  8 36  1  0
 15 37  1  0
 15 38  1  0
 20 39  1  0
 21 40  1  0
 22 41  1  0
 23 42  1  0
M  CHG  1   2   1
M  END
>  <meeko>  (7) 
{"is_sidechain": [false], "free_energy": -6.727, "intermolecular_energy": -9.542, "internal_energy": -1.347}

$$$$
REF_ZINC24739924__Ngeom1__M_PUB_ALL__e8__s20260927
     RDKit          3D

 42 44  0  0  0  0  0  0  0  0999 V2000
   -1.4730  -14.7090   -0.1890 C   0  0  0  0  0  0  0  0  0  0  0  0
   -2.3920  -14.9250    0.9710 N   0  0  1  0  0  0  0  0  0  0  0  0
   -3.6820  -14.1520    0.8600 C   0  0  0  0  0  0  0  0  0  0  0  0
   -3.4770  -12.6710    0.6610 C   0  0  0  0  0  0  0  0  0  0  0  0
   -3.9760  -12.0700   -0.5100 C   0  0  0  0  0  0  0  0  0  0  0  0
   -3.8180  -10.7050   -0.7280 C   0  0  0  0  0  0  0  0  0  0  0  0
   -3.1610   -9.9250    0.2180 C   0  0  0  0  0  0  0  0  0  0  0  0
   -2.6620  -10.5060    1.3860 C   0  0  0  0  0  0  0  0  0  0  0  0
   -2.8130  -11.8770    1.6190 C   0  0  0  0  0  0  0  0  0  0  0  0
   -2.3780  -12.5350    2.7360 O   0  0  0  0  0  0  0  0  0  0  0  0
   -1.0800  -12.2270    3.2410 C   0  0  0  0  0  0  0  0  0  0  0  0
   -1.1340  -11.1540    4.0540 F   0  0  0  0  0  0  0  0  0  0  0  0
   -0.6560  -13.2850    3.9630 F   0  0  0  0  0  0  0  0  0  0  0  0
   -0.2090  -12.0120    2.2380 F   0  0  0  0  0  0  0  0  0  0  0  0
   -2.6050  -16.3830    1.2500 C   0  0  0  0  0  0  0  0  0  0  0  0
   -1.7040  -16.8600    2.2690 N   0  0  0  0  0  0  0  0  0  0  0  0
   -0.7230  -17.7150    1.8670 N   0  0  0  0  0  0  0  0  0  0  0  0
    0.1490  -18.1250    2.6610 N   0  0  0  0  0  0  0  0  0  0  0  0
    0.1750  -17.6580    3.9830 C   0  0  0  0  0  0  0  0  0  0  0  0
    1.1870  -18.0990    4.8420 C   0  0  0  0  0  0  0  0  0  0  0  0
    1.2410  -17.6550    6.1670 C   0  0  0  0  0  0  0  0  0  0  0  0
    0.2800  -16.7660    6.6480 C   0  0  0  0  0  0  0  0  0  0  0  0
   -0.7350  -16.3190    5.8050 C   0  0  0  0  0  0  0  0  0  0  0  0
   -0.7690  -16.7740    4.4830 C   0  0  0  0  0  0  0  0  0  0  0  0
   -1.8050  -16.3540    3.5470 C   0  0  0  0  0  0  0  0  0  0  0  0
   -2.7450  -15.6380    3.8860 O   0  0  0  0  0  0  0  0  0  0  0  0
   -0.4647  -14.4720    0.1812 H   0  0  0  0  0  0  0  0  0  0  0  0
   -1.4337  -15.6224   -0.8007 H   0  0  0  0  0  0  0  0  0  0  0  0
   -1.8447  -13.8737   -0.8007 H   0  0  0  0  0  0  0  0  0  0  0  0
   -1.8970  -14.5820    1.8120 H   0  0  0  0  0  0  0  0  0  0  0  0
   -4.2507  -14.5436    0.0037 H   0  0  0  0  0  0  0  0  0  0  0  0
   -4.2208  -14.2807    1.8103 H   0  0  0  0  0  0  0  0  0  0  0  0
   -4.4955  -12.6851   -1.2595 H   0  0  0  0  0  0  0  0  0  0  0  0
   -4.2115  -10.2439   -1.6459 H   0  0  0  0  0  0  0  0  0  0  0  0
   -3.0339   -8.8461    0.0455 H   0  0  0  0  0  0  0  0  0  0  0  0
   -2.1459   -9.8802    2.1289 H   0  0  0  0  0  0  0  0  0  0  0  0
   -3.6406  -16.5352    1.5880 H   0  0  0  0  0  0  0  0  0  0  0  0
   -2.4102  -16.9449    0.3246 H   0  0  0  0  0  0  0  0  0  0  0  0
    1.9478  -18.8019    4.4717 H   0  0  0  0  0  0  0  0  0  0  0  0
    2.0434  -18.0078    6.8315 H   0  0  0  0  0  0  0  0  0  0  0  0
    0.3234  -16.4185    7.6908 H   0  0  0  0  0  0  0  0  0  0  0  0
   -1.4986  -15.6184    6.1738 H   0  0  0  0  0  0  0  0  0  0  0  0
  1  2  1  0
  2  3  1  0
  3  4  1  0
  4  5  2  0
  5  6  1  0
  6  7  2  0
  7  8  1  0
  8  9  2  0
  9 10  1  0
 10 11  1  0
 11 12  1  0
 11 13  1  0
 11 14  1  0
  2 15  1  0
 15 16  1  0
 16 17  1  0
 17 18  2  0
 18 19  1  0
 19 20  2  0
 20 21  1  0
 21 22  2  0
 22 23  1  0
 23 24  2  0
 24 25  1  0
 25 26  2  0
  9  4  1  0
 25 16  1  0
 24 19  1  0
  1 27  1  0
  1 28  1  0
  1 29  1  0
  2 30  1  1
  3 31  1  0
  3 32  1  0
  5 33  1  0
  6 34  1  0
  7 35  1  0
  8 36  1  0
 15 37  1  0
 15 38  1  0
 20 39  1  0
 21 40  1  0
 22 41  1  0
 23 42  1  0
M  CHG  1   2   1
M  END
>  <meeko>  (8) 
{"is_sidechain": [false], "free_energy": -6.585, "intermolecular_energy": -8.959, "internal_energy": -1.739}

$$$$
REF_ZINC24739924__Ngeom1__M_PUB_ALL__e8__s20260927
     RDKit          3D

 42 44  0  0  0  0  0  0  0  0999 V2000
   11.9020  -15.3590   -1.0930 C   0  0  0  0  0  0  0  0  0  0  0  0
   10.7260  -14.4920   -1.4170 N   0  0  1  0  0  0  0  0  0  0  0  0
   10.8200  -13.8470   -2.7770 C   0  0  0  0  0  0  0  0  0  0  0  0
   12.1490  -13.1800   -3.0320 C   0  0  0  0  0  0  0  0  0  0  0  0
   12.9680  -13.6770   -4.0630 C   0  0  0  0  0  0  0  0  0  0  0  0
   14.1970  -13.0840   -4.3390 C   0  0  0  0  0  0  0  0  0  0  0  0
   14.6210  -11.9920   -3.5910 C   0  0  0  0  0  0  0  0  0  0  0  0
   13.8190  -11.4850   -2.5650 C   0  0  0  0  0  0  0  0  0  0  0  0
   12.5820  -12.0700   -2.2760 C   0  0  0  0  0  0  0  0  0  0  0  0
   11.7170  -11.6390   -1.3080 O   0  0  0  0  0  0  0  0  0  0  0  0
   12.2490  -11.2930   -0.0300 C   0  0  0  0  0  0  0  0  0  0  0  0
   12.9000  -10.1150   -0.0950 F   0  0  0  0  0  0  0  0  0  0  0  0
   11.2140  -11.1610    0.8250 F   0  0  0  0  0  0  0  0  0  0  0  0
   13.0680  -12.2570    0.4290 F   0  0  0  0  0  0  0  0  0  0  0  0
    9.4270  -15.2090   -1.1970 C   0  0  0  0  0  0  0  0  0  0  0  0
    8.4790  -14.3750   -0.5020 N   0  0  0  0  0  0  0  0  0  0  0  0
    8.9900  -13.3490    0.2330 N   0  0  0  0  0  0  0  0  0  0  0  0
    8.2460  -12.5290    0.8110 N   0  0  0  0  0  0  0  0  0  0  0  0
    6.8540  -12.6120    0.6620 C   0  0  0  0  0  0  0  0  0  0  0  0
    6.0440  -11.6560    1.2840 C   0  0  0  0  0  0  0  0  0  0  0  0
    4.6520  -11.7120    1.1580 C   0  0  0  0  0  0  0  0  0  0  0  0
    4.0550  -12.7260    0.4090 C   0  0  0  0  0  0  0  0  0  0  0  0
    4.8490  -13.6850   -0.2160 C   0  0  0  0  0  0  0  0  0  0  0  0
    6.2390  -13.6100   -0.0790 C   0  0  0  0  0  0  0  0  0  0  0  0
    7.1300  -14.5820   -0.6980 C   0  0  0  0  0  0  0  0  0  0  0  0
    6.7100  -15.5610   -1.3130 O   0  0  0  0  0  0  0  0  0  0  0  0
   12.0094  -15.4382   -0.0011 H   0  0  0  0  0  0  0  0  0  0  0  0
   11.7475  -16.3610   -1.5199 H   0  0  0  0  0  0  0  0  0  0  0  0
   12.8135  -14.9151   -1.5199 H   0  0  0  0  0  0  0  0  0  0  0  0
   10.7120  -13.7330   -0.7140 H   0  0  0  0  0  0  0  0  0  0  0  0
   10.6662  -14.6222   -3.5422 H   0  0  0  0  0  0  0  0  0  0  0  0
   10.0493  -13.0632   -2.8192 H   0  0  0  0  0  0  0  0  0  0  0  0
   12.6342  -14.5414   -4.6558 H   0  0  0  0  0  0  0  0  0  0  0  0
   14.8307  -13.4786   -5.1469 H   0  0  0  0  0  0  0  0  0  0  0  0
   15.5928  -11.5244   -3.8077 H   0  0  0  0  0  0  0  0  0  0  0  0
   14.1633  -10.6192   -1.9803 H   0  0  0  0  0  0  0  0  0  0  0  0
    9.0057  -15.4943   -2.1722 H   0  0  0  0  0  0  0  0  0  0  0  0
    9.6222  -16.0996   -0.5815 H   0  0  0  0  0  0  0  0  0  0  0  0
    6.5058  -10.8531    1.8774 H   0  0  0  0  0  0  0  0  0  0  0  0
    4.0260  -10.9538    1.6513 H   0  0  0  0  0  0  0  0  0  0  0  0
    2.9601  -12.7683    0.3121 H   0  0  0  0  0  0  0  0  0  0  0  0
    4.3894  -14.4897   -0.8087 H   0  0  0  0  0  0  0  0  0  0  0  0
  1  2  1  0
  2  3  1  0
  3  4  1  0
  4  5  2  0
  5  6  1  0
  6  7  2  0
  7  8  1  0
  8  9  2  0
  9 10  1  0
 10 11  1  0
 11 12  1  0
 11 13  1  0
 11 14  1  0
  2 15  1  0
 15 16  1  0
 16 17  1  0
 17 18  2  0
 18 19  1  0
 19 20  2  0
 20 21  1  0
 21 22  2  0
 22 23  1  0
 23 24  2  0
 24 25  1  0
 25 26  2  0
  9  4  1  0
 25 16  1  0
 24 19  1  0
  1 27  1  0
  1 28  1  0
  1 29  1  0
  2 30  1  1
  3 31  1  0
  3 32  1  0
  5 33  1  0
  6 34  1  0
  7 35  1  0
  8 36  1  0
 15 37  1  0
 15 38  1  0
 20 39  1  0
 21 40  1  0
 22 41  1  0
 23 42  1  0
M  CHG  1   2   1
M  END
>  <meeko>  (9) 
{"is_sidechain": [false], "free_energy": -6.539, "intermolecular_energy": -9.392, "internal_energy": -1.243}

$$$$
