REF_ZINC58438263__Ngeom2__M_PUB_ALL__e8__s20260927
     RDKit          3D

 62 65  0  0  0  0  0  0  0  0999 V2000
   -5.1520  -13.0550    2.9590 C   0  0  0  0  0  0  0  0  0  0  0  0
   -4.2130  -13.4720    1.8630 C   0  0  0  0  0  0  0  0  0  0  0  0
   -4.0880  -12.6920    0.7080 C   0  0  0  0  0  0  0  0  0  0  0  0
   -3.1820  -13.0490   -0.2890 C   0  0  0  0  0  0  0  0  0  0  0  0
   -2.3870  -14.1830   -0.1320 C   0  0  0  0  0  0  0  0  0  0  0  0
   -2.5040  -14.9720    1.0130 C   0  0  0  0  0  0  0  0  0  0  0  0
   -1.6340  -16.0220    1.0950 O   0  0  0  0  0  0  0  0  0  0  0  0
   -2.0400  -17.0940    1.9510 C   0  0  0  0  0  0  0  0  0  0  0  0
   -0.9950  -17.1870    3.0680 C   0  0  0  0  0  0  0  0  0  0  0  0
    0.3730  -16.7650    2.5760 N   0  0  2  0  0  0  0  0  0  0  0  0
    1.2970  -17.9020    2.3210 C   0  0  0  0  0  0  0  0  0  0  0  0
    1.0000  -15.6550    3.3560 C   0  0  0  0  0  0  0  0  0  0  0  0
    0.7300  -14.4400    2.6230 N   0  0  0  0  0  0  0  0  0  0  0  0
    1.3860  -14.2730    1.4260 N   0  0  0  0  0  0  0  0  0  0  0  0
    1.1750  -13.1880    0.7370 C   0  0  0  0  0  0  0  0  0  0  0  0
    1.8810  -13.0700   -0.5610 C   0  0  0  0  0  0  0  0  0  0  0  0
    1.2580  -13.6040   -1.6960 C   0  0  0  0  0  0  0  0  0  0  0  0
    1.8900  -13.5420   -2.9420 C   0  0  0  0  0  0  0  0  0  0  0  0
    1.2380  -14.1370   -4.1540 C   0  0  0  0  0  0  0  0  0  0  0  0
    3.1630  -12.9690   -3.0260 C   0  0  0  0  0  0  0  0  0  0  0  0
    3.7850  -12.4410   -1.8900 C   0  0  0  0  0  0  0  0  0  0  0  0
    3.1510  -12.4760   -0.6410 C   0  0  0  0  0  0  0  0  0  0  0  0
    3.8480  -11.9100    0.5620 C   0  0  0  0  0  0  0  0  0  0  0  0
    0.2770  -12.1020    1.1910 C   0  0  0  0  0  0  0  0  0  0  0  0
    0.0820  -10.9130    0.4740 C   0  0  0  0  0  0  0  0  0  0  0  0
   -0.7900   -9.9370    0.9640 C   0  0  0  0  0  0  0  0  0  0  0  0
   -1.4630  -10.1350    2.1680 C   0  0  0  0  0  0  0  0  0  0  0  0
   -1.2600  -11.3090    2.8910 C   0  0  0  0  0  0  0  0  0  0  0  0
   -0.3860  -12.2870    2.4010 C   0  0  0  0  0  0  0  0  0  0  0  0
   -0.1590  -13.5240    3.1660 C   0  0  0  0  0  0  0  0  0  0  0  0
   -0.7520  -13.7280    4.2210 O   0  0  0  0  0  0  0  0  0  0  0  0
   -3.4080  -14.6100    2.0140 C   0  0  0  0  0  0  0  0  0  0  0  0
   -4.6897  -13.2603    3.9358 H   0  0  0  0  0  0  0  0  0  0  0  0
   -5.3624  -11.9788    2.8719 H   0  0  0  0  0  0  0  0  0  0  0  0
   -6.0915  -13.6205    2.8719 H   0  0  0  0  0  0  0  0  0  0  0  0
   -4.7084  -11.7919    0.5863 H   0  0  0  0  0  0  0  0  0  0  0  0
   -3.0945  -12.4366   -1.1986 H   0  0  0  0  0  0  0  0  0  0  0  0
   -1.6640  -14.4573   -0.9143 H   0  0  0  0  0  0  0  0  0  0  0  0
   -3.0322  -16.8838    2.3769 H   0  0  0  0  0  0  0  0  0  0  0  0
   -2.1085  -18.0402    1.3941 H   0  0  0  0  0  0  0  0  0  0  0  0
   -1.2965  -16.5296    3.8968 H   0  0  0  0  0  0  0  0  0  0  0  0
   -0.9366  -18.2330    3.4034 H   0  0  0  0  0  0  0  0  0  0  0  0
    0.2310  -16.2780    1.6680 H   0  0  0  0  0  0  0  0  0  0  0  0
    1.6370  -18.3203    3.2799 H   0  0  0  0  0  0  0  0  0  0  0  0
    0.7717  -18.6798    1.7473 H   0  0  0  0  0  0  0  0  0  0  0  0
    2.1658  -17.5469    1.7473 H   0  0  0  0  0  0  0  0  0  0  0  0
    0.5576  -15.5992    4.3616 H   0  0  0  0  0  0  0  0  0  0  0  0
    2.0813  -15.8149    3.4795 H   0  0  0  0  0  0  0  0  0  0  0  0
    0.2675  -14.0741   -1.6070 H   0  0  0  0  0  0  0  0  0  0  0  0
    0.4593  -14.8476   -3.8398 H   0  0  0  0  0  0  0  0  0  0  0  0
    0.7827  -13.3365   -4.7557 H   0  0  0  0  0  0  0  0  0  0  0  0
    1.9936  -14.6634   -4.7557 H   0  0  0  0  0  0  0  0  0  0  0  0
    3.6806  -12.9332   -3.9959 H   0  0  0  0  0  0  0  0  0  0  0  0
    4.7854  -11.9922   -1.9783 H   0  0  0  0  0  0  0  0  0  0  0  0
    3.3731  -12.2957    1.4762 H   0  0  0  0  0  0  0  0  0  0  0  0
    4.9070  -12.2070    0.5457 H   0  0  0  0  0  0  0  0  0  0  0  0
    3.7747  -10.8126    0.5457 H   0  0  0  0  0  0  0  0  0  0  0  0
    0.6152  -10.7484   -0.4739 H   0  0  0  0  0  0  0  0  0  0  0  0
   -0.9459   -9.0078    0.3964 H   0  0  0  0  0  0  0  0  0  0  0  0
   -2.1528   -9.3665    2.5469 H   0  0  0  0  0  0  0  0  0  0  0  0
   -1.7852  -11.4670    3.8445 H   0  0  0  0  0  0  0  0  0  0  0  0
   -3.4889  -15.2206    2.9254 H   0  0  0  0  0  0  0  0  0  0  0  0
  1  2  1  0
  2  3  2  0
  3  4  1  0
  4  5  2  0
  5  6  1  0
  6  7  1  0
  7  8  1  0
  8  9  1  0
  9 10  1  0
 10 11  1  0
 10 12  1  0
 12 13  1  0
 13 14  1  0
 14 15  2  0
 15 16  1  0
 16 17  2  0
 17 18  1  0
 18 19  1  0
 18 20  2  0
 20 21  1  0
 21 22  2  0
 22 23  1  0
 15 24  1  0
 24 25  2  0
 25 26  1  0
 26 27  2  0
 27 28  1  0
 28 29  2  0
 29 30  1  0
 30 31  2  0
  6 32  2  0
 32  2  1  0
 30 13  1  0
 22 16  1  0
 29 24  1  0
  1 33  1  0
  1 34  1  0
  1 35  1  0
  3 36  1  0
  4 37  1  0
  5 38  1  0
  8 39  1  0
  8 40  1  0
  9 41  1  0
  9 42  1  0
 10 43  1  6
 11 44  1  0
 11 45  1  0
 11 46  1  0
 12 47  1  0
 12 48  1  0
 17 49  1  0
 19 50  1  0
 19 51  1  0
 19 52  1  0
 20 53  1  0
 21 54  1  0
 23 55  1  0
 23 56  1  0
 23 57  1  0
 25 58  1  0
 26 59  1  0
 27 60  1  0
 28 61  1  0
 32 62  1  0
M  CHG  1  10   1
M  END
>  <meeko>  (1) 
{"is_sidechain": [false], "free_energy": -6.987, "intermolecular_energy": -9.847, "internal_energy": -3.728}

$$$$
REF_ZINC58438263__Ngeom2__M_PUB_ALL__e8__s20260927
     RDKit          3D

 62 65  0  0  0  0  0  0  0  0999 V2000
    4.0950  -14.4500   -4.7000 C   0  0  0  0  0  0  0  0  0  0  0  0
    4.4670  -14.9660   -3.3400 C   0  0  0  0  0  0  0  0  0  0  0  0
    5.7980  -14.9200   -2.9090 C   0  0  0  0  0  0  0  0  0  0  0  0
    6.1400  -15.3530   -1.6290 C   0  0  0  0  0  0  0  0  0  0  0  0
    5.1510  -15.8250   -0.7670 C   0  0  0  0  0  0  0  0  0  0  0  0
    3.8210  -15.8810   -1.1860 C   0  0  0  0  0  0  0  0  0  0  0  0
    2.9250  -16.2990   -0.2420 O   0  0  0  0  0  0  0  0  0  0  0  0
    2.3850  -17.6080   -0.4420 C   0  0  0  0  0  0  0  0  0  0  0  0
    0.8680  -17.4430   -0.5810 C   0  0  0  0  0  0  0  0  0  0  0  0
    0.3510  -16.3410    0.3190 N   0  0  2  0  0  0  0  0  0  0  0  0
    0.1150  -16.7710    1.7220 C   0  0  0  0  0  0  0  0  0  0  0  0
   -0.7770  -15.5460   -0.2550 C   0  0  0  0  0  0  0  0  0  0  0  0
   -0.4210  -14.1560   -0.0900 N   0  0  0  0  0  0  0  0  0  0  0  0
    0.7510  -13.7370   -0.6750 N   0  0  0  0  0  0  0  0  0  0  0  0
    1.1120  -12.4920   -0.5430 C   0  0  0  0  0  0  0  0  0  0  0  0
    2.3670  -12.0830   -1.2180 C   0  0  0  0  0  0  0  0  0  0  0  0
    2.2750  -11.5850   -2.5250 C   0  0  0  0  0  0  0  0  0  0  0  0
    3.4300  -11.2080   -3.2170 C   0  0  0  0  0  0  0  0  0  0  0  0
    3.3380  -10.7000   -4.6260 C   0  0  0  0  0  0  0  0  0  0  0  0
    4.6730  -11.3660   -2.5960 C   0  0  0  0  0  0  0  0  0  0  0  0
    4.7620  -11.8680   -1.2940 C   0  0  0  0  0  0  0  0  0  0  0  0
    3.6100  -12.2270   -0.5810 C   0  0  0  0  0  0  0  0  0  0  0  0
    3.7370  -12.7730    0.8120 C   0  0  0  0  0  0  0  0  0  0  0  0
    0.3310  -11.5000    0.2300 C   0  0  0  0  0  0  0  0  0  0  0  0
    0.7390  -10.1710    0.4100 C   0  0  0  0  0  0  0  0  0  0  0  0
   -0.0570   -9.2900    1.1470 C   0  0  0  0  0  0  0  0  0  0  0  0
   -1.2530   -9.7280    1.7120 C   0  0  0  0  0  0  0  0  0  0  0  0
   -1.6550  -11.0520    1.5480 C   0  0  0  0  0  0  0  0  0  0  0  0
   -0.8570  -11.9350    0.8100 C   0  0  0  0  0  0  0  0  0  0  0  0
   -1.2690  -13.3380    0.6430 C   0  0  0  0  0  0  0  0  0  0  0  0
   -2.3260  -13.7430    1.1170 O   0  0  0  0  0  0  0  0  0  0  0  0
    3.4780  -15.4410   -2.4660 C   0  0  0  0  0  0  0  0  0  0  0  0
    3.4548  -13.5620   -4.5927 H   0  0  0  0  0  0  0  0  0  0  0  0
    5.0074  -14.1798   -5.2518 H   0  0  0  0  0  0  0  0  0  0  0  0
    3.5503  -15.2302   -5.2518 H   0  0  0  0  0  0  0  0  0  0  0  0
    6.5786  -14.5399   -3.5844 H   0  0  0  0  0  0  0  0  0  0  0  0
    7.1890  -15.3224   -1.2993 H   0  0  0  0  0  0  0  0  0  0  0  0
    5.4201  -16.1546    0.2474 H   0  0  0  0  0  0  0  0  0  0  0  0
    2.8029  -18.0547   -1.3562 H   0  0  0  0  0  0  0  0  0  0  0  0
    2.6350  -18.2715    0.3990 H   0  0  0  0  0  0  0  0  0  0  0  0
    0.6286  -17.1948   -1.6255 H   0  0  0  0  0  0  0  0  0  0  0  0
    0.3871  -18.3873   -0.2859 H   0  0  0  0  0  0  0  0  0  0  0  0
    1.0840  -15.6030    0.3450 H   0  0  0  0  0  0  0  0  0  0  0  0
    0.5278  -16.0189    2.4104 H   0  0  0  0  0  0  0  0  0  0  0  0
   -0.9661  -16.8741    1.8970 H   0  0  0  0  0  0  0  0  0  0  0  0
    0.6086  -17.7383    1.8970 H   0  0  0  0  0  0  0  0  0  0  0  0
   -0.9047  -15.7820   -1.3218 H   0  0  0  0  0  0  0  0  0  0  0  0
   -1.7261  -15.7775    0.2506 H   0  0  0  0  0  0  0  0  0  0  0  0
    1.2911  -11.4905   -3.0078 H   0  0  0  0  0  0  0  0  0  0  0  0
    3.1420   -9.6177   -4.6135 H   0  0  0  0  0  0  0  0  0  0  0  0
    4.2861  -10.8949   -5.1487 H   0  0  0  0  0  0  0  0  0  0  0  0
    2.5185  -11.2150   -5.1487 H   0  0  0  0  0  0  0  0  0  0  0  0
    5.5905  -11.0924   -3.1376 H   0  0  0  0  0  0  0  0  0  0  0  0
    5.7494  -11.9827   -0.8230 H   0  0  0  0  0  0  0  0  0  0  0  0
    3.5500  -11.9692    1.5393 H   0  0  0  0  0  0  0  0  0  0  0  0
    3.0022  -13.5784    0.9586 H   0  0  0  0  0  0  0  0  0  0  0  0
    4.7518  -13.1714    0.9586 H   0  0  0  0  0  0  0  0  0  0  0  0
    1.6853   -9.8217   -0.0287 H   0  0  0  0  0  0  0  0  0  0  0  0
    0.2621   -8.2460    1.2817 H   0  0  0  0  0  0  0  0  0  0  0  0
   -1.8790   -9.0295    2.2867 H   0  0  0  0  0  0  0  0  0  0  0  0
   -2.5961  -11.4025    1.9968 H   0  0  0  0  0  0  0  0  0  0  0  0
    2.4273  -15.4670   -2.7905 H   0  0  0  0  0  0  0  0  0  0  0  0
  1  2  1  0
  2  3  2  0
  3  4  1  0
  4  5  2  0
  5  6  1  0
  6  7  1  0
  7  8  1  0
  8  9  1  0
  9 10  1  0
 10 11  1  0
 10 12  1  0
 12 13  1  0
 13 14  1  0
 14 15  2  0
 15 16  1  0
 16 17  2  0
 17 18  1  0
 18 19  1  0
 18 20  2  0
 20 21  1  0
 21 22  2  0
 22 23  1  0
 15 24  1  0
 24 25  2  0
 25 26  1  0
 26 27  2  0
 27 28  1  0
 28 29  2  0
 29 30  1  0
 30 31  2  0
  6 32  2  0
 32  2  1  0
 30 13  1  0
 22 16  1  0
 29 24  1  0
  1 33  1  0
  1 34  1  0
  1 35  1  0
  3 36  1  0
  4 37  1  0
  5 38  1  0
  8 39  1  0
  8 40  1  0
  9 41  1  0
  9 42  1  0
 10 43  1  1
 11 44  1  0
 11 45  1  0
 11 46  1  0
 12 47  1  0
 12 48  1  0
 17 49  1  0
 19 50  1  0
 19 51  1  0
 19 52  1  0
 20 53  1  0
 21 54  1  0
 23 55  1  0
 23 56  1  0
 23 57  1  0
 25 58  1  0
 26 59  1  0
 27 60  1  0
 28 61  1  0
 32 62  1  0
M  CHG  1  10   1
M  END
>  <meeko>  (2) 
{"is_sidechain": [false], "free_energy": -6.847, "intermolecular_energy": -9.508, "internal_energy": -3.87}

$$$$
REF_ZINC58438263__Ngeom2__M_PUB_ALL__e8__s20260927
     RDKit          3D

 62 65  0  0  0  0  0  0  0  0999 V2000
    5.2400   -9.9910   14.5040 C   0  0  0  0  0  0  0  0  0  0  0  0
    5.4970   -8.5210   14.3320 C   0  0  0  0  0  0  0  0  0  0  0  0
    4.6250   -7.7390   13.5650 C   0  0  0  0  0  0  0  0  0  0  0  0
    4.8320   -6.3670   13.4430 C   0  0  0  0  0  0  0  0  0  0  0  0
    5.9060   -5.7640   14.0960 C   0  0  0  0  0  0  0  0  0  0  0  0
    6.7850   -6.5320   14.8600 C   0  0  0  0  0  0  0  0  0  0  0  0
    7.7640   -5.8340   15.5090 O   0  0  0  0  0  0  0  0  0  0  0  0
    8.9730   -5.6360   14.7710 C   0  0  0  0  0  0  0  0  0  0  0  0
   10.0460   -6.4990   15.4430 C   0  0  0  0  0  0  0  0  0  0  0  0
   10.4940   -7.6250   14.5350 N   0  0  2  0  0  0  0  0  0  0  0  0
    9.6760   -7.7620   13.3010 C   0  0  0  0  0  0  0  0  0  0  0  0
   10.7430   -8.9240   15.2290 C   0  0  0  0  0  0  0  0  0  0  0  0
   11.6190   -9.6850   14.3680 N   0  0  0  0  0  0  0  0  0  0  0  0
   12.7690   -9.0640   13.9410 N   0  0  0  0  0  0  0  0  0  0  0  0
   13.5820   -9.7130   13.1570 C   0  0  0  0  0  0  0  0  0  0  0  0
   14.8240   -9.0110   12.7500 C   0  0  0  0  0  0  0  0  0  0  0  0
   15.9970   -9.2890   13.4650 C   0  0  0  0  0  0  0  0  0  0  0  0
   17.1910   -8.6370   13.1390 C   0  0  0  0  0  0  0  0  0  0  0  0
   18.4420   -8.9110   13.9200 C   0  0  0  0  0  0  0  0  0  0  0  0
   17.1840   -7.6860   12.1150 C   0  0  0  0  0  0  0  0  0  0  0  0
   16.0100   -7.4070   11.4060 C   0  0  0  0  0  0  0  0  0  0  0  0
   14.8140   -8.0720   11.7080 C   0  0  0  0  0  0  0  0  0  0  0  0
   13.5680   -7.7440   10.9360 C   0  0  0  0  0  0  0  0  0  0  0  0
   13.3200  -11.0890   12.6770 C   0  0  0  0  0  0  0  0  0  0  0  0
   14.1710  -11.7730   11.7990 C   0  0  0  0  0  0  0  0  0  0  0  0
   13.8600  -13.0750   11.3970 C   0  0  0  0  0  0  0  0  0  0  0  0
   12.7000  -13.6950   11.8590 C   0  0  0  0  0  0  0  0  0  0  0  0
   11.8440  -13.0120   12.7210 C   0  0  0  0  0  0  0  0  0  0  0  0
   12.1560  -11.7080   13.1240 C   0  0  0  0  0  0  0  0  0  0  0  0
   11.2500  -10.9770   14.0240 C   0  0  0  0  0  0  0  0  0  0  0  0
   10.2320  -11.5070   14.4580 O   0  0  0  0  0  0  0  0  0  0  0  0
    6.5740   -7.9070   14.9880 C   0  0  0  0  0  0  0  0  0  0  0  0
    5.1977  -10.2328   15.5763 H   0  0  0  0  0  0  0  0  0  0  0  0
    4.2823  -10.2536   14.0308 H   0  0  0  0  0  0  0  0  0  0  0  0
    6.0518  -10.5630   14.0308 H   0  0  0  0  0  0  0  0  0  0  0  0
    3.7716   -8.2108   13.0559 H   0  0  0  0  0  0  0  0  0  0  0  0
    4.1484   -5.7596   12.8317 H   0  0  0  0  0  0  0  0  0  0  0  0
    6.0609   -4.6785   14.0085 H   0  0  0  0  0  0  0  0  0  0  0  0
    8.8346   -5.9492   13.7257 H   0  0  0  0  0  0  0  0  0  0  0  0
    9.2643   -4.5753   14.7664 H   0  0  0  0  0  0  0  0  0  0  0  0
   10.9135   -5.8677   15.6859 H   0  0  0  0  0  0  0  0  0  0  0  0
    9.6171   -6.9384   16.3557 H   0  0  0  0  0  0  0  0  0  0  0  0
   11.4650   -7.4020   14.2340 H   0  0  0  0  0  0  0  0  0  0  0  0
    8.6254   -7.9380   13.5752 H   0  0  0  0  0  0  0  0  0  0  0  0
    9.7504   -6.8389   12.7074 H   0  0  0  0  0  0  0  0  0  0  0  0
   10.0471   -8.6105   12.7074 H   0  0  0  0  0  0  0  0  0  0  0  0
   11.2243   -8.7491   16.2025 H   0  0  0  0  0  0  0  0  0  0  0  0
    9.8024   -9.4624   15.4172 H   0  0  0  0  0  0  0  0  0  0  0  0
   15.9787  -10.0220   14.2849 H   0  0  0  0  0  0  0  0  0  0  0  0
   18.2203   -8.8624   14.9963 H   0  0  0  0  0  0  0  0  0  0  0  0
   18.8194   -9.9131   13.6682 H   0  0  0  0  0  0  0  0  0  0  0  0
   19.2037   -8.1584   13.6682 H   0  0  0  0  0  0  0  0  0  0  0  0
   18.1115   -7.1508   11.8634 H   0  0  0  0  0  0  0  0  0  0  0  0
   16.0263   -6.6566   10.6019 H   0  0  0  0  0  0  0  0  0  0  0  0
   12.7484   -7.5282   11.6372 H   0  0  0  0  0  0  0  0  0  0  0  0
   13.7502   -6.8632   10.3027 H   0  0  0  0  0  0  0  0  0  0  0  0
   13.2929   -8.6003   10.3027 H   0  0  0  0  0  0  0  0  0  0  0  0
   15.0838  -11.2854   11.4261 H   0  0  0  0  0  0  0  0  0  0  0  0
   14.5333  -13.6127   10.7133 H   0  0  0  0  0  0  0  0  0  0  0  0
   12.4608  -14.7214   11.5438 H   0  0  0  0  0  0  0  0  0  0  0  0
   10.9254  -13.4963   13.0839 H   0  0  0  0  0  0  0  0  0  0  0  0
    7.2552   -8.5106   15.6057 H   0  0  0  0  0  0  0  0  0  0  0  0
  1  2  1  0
  2  3  2  0
  3  4  1  0
  4  5  2  0
  5  6  1  0
  6  7  1  0
  7  8  1  0
  8  9  1  0
  9 10  1  0
 10 11  1  0
 10 12  1  0
 12 13  1  0
 13 14  1  0
 14 15  2  0
 15 16  1  0
 16 17  2  0
 17 18  1  0
 18 19  1  0
 18 20  2  0
 20 21  1  0
 21 22  2  0
 22 23  1  0
 15 24  1  0
 24 25  2  0
 25 26  1  0
 26 27  2  0
 27 28  1  0
 28 29  2  0
 29 30  1  0
 30 31  2  0
  6 32  2  0
 32  2  1  0
 30 13  1  0
 22 16  1  0
 29 24  1  0
  1 33  1  0
  1 34  1  0
  1 35  1  0
  3 36  1  0
  4 37  1  0
  5 38  1  0
  8 39  1  0
  8 40  1  0
  9 41  1  0
  9 42  1  0
 10 43  1  6
 11 44  1  0
 11 45  1  0
 11 46  1  0
 12 47  1  0
 12 48  1  0
 17 49  1  0
 19 50  1  0
 19 51  1  0
 19 52  1  0
 20 53  1  0
 21 54  1  0
 23 55  1  0
 23 56  1  0
 23 57  1  0
 25 58  1  0
 26 59  1  0
 27 60  1  0
 28 61  1  0
 32 62  1  0
M  CHG  1  10   1
M  END
>  <meeko>  (3) 
{"is_sidechain": [false], "free_energy": -6.747, "intermolecular_energy": -11.983, "internal_energy": -1.253}

$$$$
REF_ZINC58438263__Ngeom2__M_PUB_ALL__e8__s20260927
     RDKit          3D

 62 65  0  0  0  0  0  0  0  0999 V2000
    2.7200  -11.7960   -3.4500 C   0  0  0  0  0  0  0  0  0  0  0  0
    2.0400  -11.7480   -2.1120 C   0  0  0  0  0  0  0  0  0  0  0  0
    1.3820  -10.5850   -1.6970 C   0  0  0  0  0  0  0  0  0  0  0  0
    0.7080  -10.5520   -0.4780 C   0  0  0  0  0  0  0  0  0  0  0  0
    0.6790  -11.6880    0.3310 C   0  0  0  0  0  0  0  0  0  0  0  0
    1.3340  -12.8530   -0.0680 C   0  0  0  0  0  0  0  0  0  0  0  0
    1.1880  -13.9250    0.7660 O   0  0  0  0  0  0  0  0  0  0  0  0
    2.3200  -14.2250    1.5870 C   0  0  0  0  0  0  0  0  0  0  0  0
    2.0310  -15.5700    2.2640 C   0  0  0  0  0  0  0  0  0  0  0  0
    0.8520  -15.4670    3.2080 N   0  0  2  0  0  0  0  0  0  0  0  0
    1.2360  -15.3830    4.6420 C   0  0  0  0  0  0  0  0  0  0  0  0
   -0.2450  -16.4470    2.9440 C   0  0  0  0  0  0  0  0  0  0  0  0
   -1.4830  -15.7100    3.0500 N   0  0  0  0  0  0  0  0  0  0  0  0
   -1.5160  -14.4590    2.4810 N   0  0  0  0  0  0  0  0  0  0  0  0
   -2.6120  -13.7590    2.5610 C   0  0  0  0  0  0  0  0  0  0  0  0
   -2.6060  -12.4290    1.9050 C   0  0  0  0  0  0  0  0  0  0  0  0
   -2.1780  -11.3290    2.6600 C   0  0  0  0  0  0  0  0  0  0  0  0
   -2.1750  -10.0470    2.0990 C   0  0  0  0  0  0  0  0  0  0  0  0
   -1.7430   -8.8640    2.9130 C   0  0  0  0  0  0  0  0  0  0  0  0
   -2.6370   -9.8820    0.7900 C   0  0  0  0  0  0  0  0  0  0  0  0
   -3.0690  -10.9810    0.0400 C   0  0  0  0  0  0  0  0  0  0  0  0
   -3.0520  -12.2730    0.5830 C   0  0  0  0  0  0  0  0  0  0  0  0
   -3.5320  -13.4320   -0.2420 C   0  0  0  0  0  0  0  0  0  0  0  0
   -3.8280  -14.2340    3.2580 C   0  0  0  0  0  0  0  0  0  0  0  0
   -4.9940  -13.4660    3.3830 C   0  0  0  0  0  0  0  0  0  0  0  0
   -6.1060  -13.9870    4.0490 C   0  0  0  0  0  0  0  0  0  0  0  0
   -6.0610  -15.2670    4.5980 C   0  0  0  0  0  0  0  0  0  0  0  0
   -4.8980  -16.0290    4.4890 C   0  0  0  0  0  0  0  0  0  0  0  0
   -3.7830  -15.5060    3.8210 C   0  0  0  0  0  0  0  0  0  0  0  0
   -2.5490  -16.3000    3.7130 C   0  0  0  0  0  0  0  0  0  0  0  0
   -2.4900  -17.4360    4.1740 O   0  0  0  0  0  0  0  0  0  0  0  0
    2.0040  -12.8870   -1.2930 C   0  0  0  0  0  0  0  0  0  0  0  0
    3.8078  -11.8728   -3.3059 H   0  0  0  0  0  0  0  0  0  0  0  0
    2.3619  -12.6711   -4.0121 H   0  0  0  0  0  0  0  0  0  0  0  0
    2.4884  -10.8793   -4.0121 H   0  0  0  0  0  0  0  0  0  0  0  0
    1.3969   -9.6908   -2.3374 H   0  0  0  0  0  0  0  0  0  0  0  0
    0.1997   -9.6318   -0.1542 H   0  0  0  0  0  0  0  0  0  0  0  0
    0.1371  -11.6649    1.2880 H   0  0  0  0  0  0  0  0  0  0  0  0
    3.2271  -14.2990    0.9692 H   0  0  0  0  0  0  0  0  0  0  0  0
    2.4871  -13.4347    2.3337 H   0  0  0  0  0  0  0  0  0  0  0  0
    1.8069  -16.3197    1.4909 H   0  0  0  0  0  0  0  0  0  0  0  0
    2.9173  -15.8643    2.8453 H   0  0  0  0  0  0  0  0  0  0  0  0
    0.3540  -14.5840    2.9740 H   0  0  0  0  0  0  0  0  0  0  0  0
    0.3536  -15.5760    5.2698 H   0  0  0  0  0  0  0  0  0  0  0  0
    2.0112  -16.1328    4.8585 H   0  0  0  0  0  0  0  0  0  0  0  0
    1.6273  -14.3780    4.8585 H   0  0  0  0  0  0  0  0  0  0  0  0
   -0.1406  -16.8726    1.9351 H   0  0  0  0  0  0  0  0  0  0  0  0
   -0.2150  -17.2821    3.6593 H   0  0  0  0  0  0  0  0  0  0  0  0
   -1.8431  -11.4737    3.6977 H   0  0  0  0  0  0  0  0  0  0  0  0
   -1.8305   -9.1035    3.9830 H   0  0  0  0  0  0  0  0  0  0  0  0
   -0.6972   -8.6184    2.6765 H   0  0  0  0  0  0  0  0  0  0  0  0
   -2.3845   -8.0023    2.6765 H   0  0  0  0  0  0  0  0  0  0  0  0
   -2.6611   -8.8765    0.3446 H   0  0  0  0  0  0  0  0  0  0  0  0
   -3.4266  -10.8292   -0.9891 H   0  0  0  0  0  0  0  0  0  0  0  0
   -3.8673  -14.2415    0.4230 H   0  0  0  0  0  0  0  0  0  0  0  0
   -4.3700  -13.1081   -0.8767 H   0  0  0  0  0  0  0  0  0  0  0  0
   -2.7104  -13.7955   -0.8767 H   0  0  0  0  0  0  0  0  0  0  0  0
   -5.0334  -12.4528    2.9565 H   0  0  0  0  0  0  0  0  0  0  0  0
   -7.0214  -13.3840    4.1405 H   0  0  0  0  0  0  0  0  0  0  0  0
   -6.9410  -15.6756    5.1163 H   0  0  0  0  0  0  0  0  0  0  0  0
   -4.8563  -17.0375    4.9262 H   0  0  0  0  0  0  0  0  0  0  0  0
    2.5057  -13.8107   -1.6173 H   0  0  0  0  0  0  0  0  0  0  0  0
  1  2  1  0
  2  3  2  0
  3  4  1  0
  4  5  2  0
  5  6  1  0
  6  7  1  0
  7  8  1  0
  8  9  1  0
  9 10  1  0
 10 11  1  0
 10 12  1  0
 12 13  1  0
 13 14  1  0
 14 15  2  0
 15 16  1  0
 16 17  2  0
 17 18  1  0
 18 19  1  0
 18 20  2  0
 20 21  1  0
 21 22  2  0
 22 23  1  0
 15 24  1  0
 24 25  2  0
 25 26  1  0
 26 27  2  0
 27 28  1  0
 28 29  2  0
 29 30  1  0
 30 31  2  0
  6 32  2  0
 32  2  1  0
 30 13  1  0
 22 16  1  0
 29 24  1  0
  1 33  1  0
  1 34  1  0
  1 35  1  0
  3 36  1  0
  4 37  1  0
  5 38  1  0
  8 39  1  0
  8 40  1  0
  9 41  1  0
  9 42  1  0
 10 43  1  6
 11 44  1  0
 11 45  1  0
 11 46  1  0
 12 47  1  0
 12 48  1  0
 17 49  1  0
 19 50  1  0
 19 51  1  0
 19 52  1  0
 20 53  1  0
 21 54  1  0
 23 55  1  0
 23 56  1  0
 23 57  1  0
 25 58  1  0
 26 59  1  0
 27 60  1  0
 28 61  1  0
 32 62  1  0
M  CHG  1  10   1
M  END
>  <meeko>  (4) 
{"is_sidechain": [false], "free_energy": -6.704, "intermolecular_energy": -10.607, "internal_energy": -2.569}

$$$$
REF_ZINC58438263__Ngeom2__M_PUB_ALL__e8__s20260927
     RDKit          3D

 62 65  0  0  0  0  0  0  0  0999 V2000
    9.3070  -18.1150   -4.8760 C   0  0  0  0  0  0  0  0  0  0  0  0
    9.3390  -16.6160   -4.7830 C   0  0  0  0  0  0  0  0  0  0  0  0
   10.5620  -15.9370   -4.7890 C   0  0  0  0  0  0  0  0  0  0  0  0
   10.5950  -14.5440   -4.7530 C   0  0  0  0  0  0  0  0  0  0  0  0
    9.4030  -13.8210   -4.7220 C   0  0  0  0  0  0  0  0  0  0  0  0
    8.1770  -14.4860   -4.7110 C   0  0  0  0  0  0  0  0  0  0  0  0
    7.0720  -13.6830   -4.7460 O   0  0  0  0  0  0  0  0  0  0  0  0
    7.2360  -12.3850   -4.1670 C   0  0  0  0  0  0  0  0  0  0  0  0
    5.9350  -12.0660   -3.4220 C   0  0  0  0  0  0  0  0  0  0  0  0
    5.6580  -13.0860   -2.3400 N   0  0  2  0  0  0  0  0  0  0  0  0
    4.2210  -13.4460   -2.2060 C   0  0  0  0  0  0  0  0  0  0  0  0
    6.3220  -12.8030   -1.0320 C   0  0  0  0  0  0  0  0  0  0  0  0
    7.5770  -13.5190   -1.0490 N   0  0  0  0  0  0  0  0  0  0  0  0
    8.7270  -12.7650   -1.0270 N   0  0  0  0  0  0  0  0  0  0  0  0
    9.8790  -13.3730   -1.0490 C   0  0  0  0  0  0  0  0  0  0  0  0
   11.0890  -12.5170   -0.9930 C   0  0  0  0  0  0  0  0  0  0  0  0
   11.9250  -12.4920   -2.1170 C   0  0  0  0  0  0  0  0  0  0  0  0
   13.0920  -11.7210   -2.1100 C   0  0  0  0  0  0  0  0  0  0  0  0
   14.0040  -11.7130   -3.3010 C   0  0  0  0  0  0  0  0  0  0  0  0
   13.4220  -11.0060   -0.9540 C   0  0  0  0  0  0  0  0  0  0  0  0
   12.5880  -11.0370    0.1680 C   0  0  0  0  0  0  0  0  0  0  0  0
   11.4040  -11.7870    0.1630 C   0  0  0  0  0  0  0  0  0  0  0  0
   10.5340  -11.8090    1.3870 C   0  0  0  0  0  0  0  0  0  0  0  0
   10.0180  -14.8450   -1.1190 C   0  0  0  0  0  0  0  0  0  0  0  0
   11.2550  -15.5000   -1.1870 C   0  0  0  0  0  0  0  0  0  0  0  0
   11.3060  -16.8950   -1.2430 C   0  0  0  0  0  0  0  0  0  0  0  0
   10.1300  -17.6420   -1.2400 C   0  0  0  0  0  0  0  0  0  0  0  0
    8.8960  -16.9940   -1.1880 C   0  0  0  0  0  0  0  0  0  0  0  0
    8.8460  -15.5960   -1.1320 C   0  0  0  0  0  0  0  0  0  0  0  0
    7.5470  -14.9050   -1.0900 C   0  0  0  0  0  0  0  0  0  0  0  0
    6.4970  -15.5420   -1.0690 O   0  0  0  0  0  0  0  0  0  0  0  0
    8.1440  -15.8820   -4.7540 C   0  0  0  0  0  0  0  0  0  0  0  0
    9.2978  -18.5451   -3.8636 H   0  0  0  0  0  0  0  0  0  0  0  0
    8.4019  -18.4296   -5.4163 H   0  0  0  0  0  0  0  0  0  0  0  0
   10.1978  -18.4680   -5.4163 H   0  0  0  0  0  0  0  0  0  0  0  0
   11.5030  -16.5056   -4.8223 H   0  0  0  0  0  0  0  0  0  0  0  0
   11.5599  -14.0158   -4.7490 H   0  0  0  0  0  0  0  0  0  0  0  0
    9.4297  -12.7214   -4.7062 H   0  0  0  0  0  0  0  0  0  0  0  0
    8.0834  -12.3873   -3.4657 H   0  0  0  0  0  0  0  0  0  0  0  0
    7.4436  -11.6308   -4.9403 H   0  0  0  0  0  0  0  0  0  0  0  0
    6.0199  -11.0701   -2.9626 H   0  0  0  0  0  0  0  0  0  0  0  0
    5.1057  -12.0915   -4.1442 H   0  0  0  0  0  0  0  0  0  0  0  0
    6.1650  -13.9550   -2.6060 H   0  0  0  0  0  0  0  0  0  0  0  0
    3.9574  -13.5120   -1.1401 H   0  0  0  0  0  0  0  0  0  0  0  0
    3.6032  -12.6749   -2.6894 H   0  0  0  0  0  0  0  0  0  0  0  0
    4.0397  -14.4173   -2.6894 H   0  0  0  0  0  0  0  0  0  0  0  0
    6.5013  -11.7233   -0.9220 H   0  0  0  0  0  0  0  0  0  0  0  0
    5.6925  -13.1210   -0.1878 H   0  0  0  0  0  0  0  0  0  0  0  0
   11.6626  -13.0809   -3.0083 H   0  0  0  0  0  0  0  0  0  0  0  0
   15.0503  -11.7038   -2.9616 H   0  0  0  0  0  0  0  0  0  0  0  0
   13.8231  -12.6128   -3.9074 H   0  0  0  0  0  0  0  0  0  0  0  0
   13.8074  -10.8165   -3.9074 H   0  0  0  0  0  0  0  0  0  0  0  0
   14.3479  -10.4127   -0.9272 H   0  0  0  0  0  0  0  0  0  0  0  0
   12.8648  -10.4654    1.0661 H   0  0  0  0  0  0  0  0  0  0  0  0
   11.1666  -11.7930    2.2868 H   0  0  0  0  0  0  0  0  0  0  0  0
    9.8764  -10.9272    1.3854 H   0  0  0  0  0  0  0  0  0  0  0  0
    9.9218  -12.7229    1.3854 H   0  0  0  0  0  0  0  0  0  0  0  0
   12.1867  -14.9152   -1.1963 H   0  0  0  0  0  0  0  0  0  0  0  0
   12.2790  -17.4059   -1.2897 H   0  0  0  0  0  0  0  0  0  0  0  0
   10.1746  -18.7404   -1.2786 H   0  0  0  0  0  0  0  0  0  0  0  0
    7.9648  -17.5796   -1.1910 H   0  0  0  0  0  0  0  0  0  0  0  0
    7.1776  -16.4074   -4.7652 H   0  0  0  0  0  0  0  0  0  0  0  0
  1  2  1  0
  2  3  2  0
  3  4  1  0
  4  5  2  0
  5  6  1  0
  6  7  1  0
  7  8  1  0
  8  9  1  0
  9 10  1  0
 10 11  1  0
 10 12  1  0
 12 13  1  0
 13 14  1  0
 14 15  2  0
 15 16  1  0
 16 17  2  0
 17 18  1  0
 18 19  1  0
 18 20  2  0
 20 21  1  0
 21 22  2  0
 22 23  1  0
 15 24  1  0
 24 25  2  0
 25 26  1  0
 26 27  2  0
 27 28  1  0
 28 29  2  0
 29 30  1  0
 30 31  2  0
  6 32  2  0
 32  2  1  0
 30 13  1  0
 22 16  1  0
 29 24  1  0
  1 33  1  0
  1 34  1  0
  1 35  1  0
  3 36  1  0
  4 37  1  0
  5 38  1  0
  8 39  1  0
  8 40  1  0
  9 41  1  0
  9 42  1  0
 10 43  1  6
 11 44  1  0
 11 45  1  0
 11 46  1  0
 12 47  1  0
 12 48  1  0
 17 49  1  0
 19 50  1  0
 19 51  1  0
 19 52  1  0
 20 53  1  0
 21 54  1  0
 23 55  1  0
 23 56  1  0
 23 57  1  0
 25 58  1  0
 26 59  1  0
 27 60  1  0
 28 61  1  0
 32 62  1  0
M  CHG  1  10   1
M  END
>  <meeko>  (5) 
{"is_sidechain": [false], "free_energy": -6.58, "intermolecular_energy": -9.223, "internal_energy": -3.777}

$$$$
REF_ZINC58438263__Ngeom2__M_PUB_ALL__e8__s20260927
     RDKit          3D

 62 65  0  0  0  0  0  0  0  0999 V2000
   -1.0880  -17.8000    5.0800 C   0  0  0  0  0  0  0  0  0  0  0  0
   -1.4820  -17.2760    3.7290 C   0  0  0  0  0  0  0  0  0  0  0  0
   -2.5310  -16.3570    3.6090 C   0  0  0  0  0  0  0  0  0  0  0  0
   -2.8680  -15.8300    2.3630 C   0  0  0  0  0  0  0  0  0  0  0  0
   -2.1490  -16.2110    1.2310 C   0  0  0  0  0  0  0  0  0  0  0  0
   -1.1040  -17.1290    1.3350 C   0  0  0  0  0  0  0  0  0  0  0  0
   -0.4260  -17.3820    0.1770 O   0  0  0  0  0  0  0  0  0  0  0  0
    0.9280  -17.8140    0.3370 C   0  0  0  0  0  0  0  0  0  0  0  0
    1.6920  -17.3430   -0.9050 C   0  0  0  0  0  0  0  0  0  0  0  0
    1.7080  -15.8330   -1.0000 N   0  0  2  0  0  0  0  0  0  0  0  0
    1.8580  -15.3190   -2.3870 C   0  0  0  0  0  0  0  0  0  0  0  0
    2.6070  -15.1560   -0.0170 C   0  0  0  0  0  0  0  0  0  0  0  0
    1.7540  -14.6440    1.0310 N   0  0  0  0  0  0  0  0  0  0  0  0
    0.8020  -13.7210    0.6650 N   0  0  0  0  0  0  0  0  0  0  0  0
    0.0170  -13.2290    1.5810 C   0  0  0  0  0  0  0  0  0  0  0  0
   -1.0120  -12.2610    1.1320 C   0  0  0  0  0  0  0  0  0  0  0  0
   -2.3200  -12.7310    0.9510 C   0  0  0  0  0  0  0  0  0  0  0  0
   -3.3240  -11.8670    0.5060 C   0  0  0  0  0  0  0  0  0  0  0  0
   -4.7190  -12.3730    0.2860 C   0  0  0  0  0  0  0  0  0  0  0  0
   -2.9930  -10.5400    0.2140 C   0  0  0  0  0  0  0  0  0  0  0  0
   -1.6860  -10.0740    0.3900 C   0  0  0  0  0  0  0  0  0  0  0  0
   -0.6770  -10.9250    0.8600 C   0  0  0  0  0  0  0  0  0  0  0  0
    0.7190  -10.3990    1.0290 C   0  0  0  0  0  0  0  0  0  0  0  0
    0.1100  -13.5970    3.0120 C   0  0  0  0  0  0  0  0  0  0  0  0
   -0.7040  -13.0370    4.0060 C   0  0  0  0  0  0  0  0  0  0  0  0
   -0.5620  -13.4420    5.3360 C   0  0  0  0  0  0  0  0  0  0  0  0
    0.3930  -14.3970    5.6820 C   0  0  0  0  0  0  0  0  0  0  0  0
    1.2140  -14.9450    4.6990 C   0  0  0  0  0  0  0  0  0  0  0  0
    1.0720  -14.5390    3.3660 C   0  0  0  0  0  0  0  0  0  0  0  0
    1.9450  -15.1050    2.3250 C   0  0  0  0  0  0  0  0  0  0  0  0
    2.7820  -15.9590    2.6020 O   0  0  0  0  0  0  0  0  0  0  0  0
   -0.7630  -17.6510    2.5850 C   0  0  0  0  0  0  0  0  0  0  0  0
   -1.5525  -17.1822    5.8626 H   0  0  0  0  0  0  0  0  0  0  0  0
   -1.4293  -18.8406    5.1835 H   0  0  0  0  0  0  0  0  0  0  0  0
    0.0064  -17.7611    5.1835 H   0  0  0  0  0  0  0  0  0  0  0  0
   -3.0928  -16.0488    4.5031 H   0  0  0  0  0  0  0  0  0  0  0  0
   -3.6993  -15.1152    2.2733 H   0  0  0  0  0  0  0  0  0  0  0  0
   -2.4073  -15.7852    0.2502 H   0  0  0  0  0  0  0  0  0  0  0  0
    1.3640  -17.3664    1.2423 H   0  0  0  0  0  0  0  0  0  0  0  0
    0.9837  -18.9074    0.4439 H   0  0  0  0  0  0  0  0  0  0  0  0
    2.7276  -17.7096   -0.8492 H   0  0  0  0  0  0  0  0  0  0  0  0
    1.1857  -17.7419   -1.7964 H   0  0  0  0  0  0  0  0  0  0  0  0
    0.7870  -15.4980   -0.6490 H   0  0  0  0  0  0  0  0  0  0  0  0
    2.1660  -14.2635   -2.3556 H   0  0  0  0  0  0  0  0  0  0  0  0
    2.6217  -15.9082   -2.9158 H   0  0  0  0  0  0  0  0  0  0  0  0
    0.8973  -15.4050   -2.9158 H   0  0  0  0  0  0  0  0  0  0  0  0
    3.3283  -15.8758    0.3973 H   0  0  0  0  0  0  0  0  0  0  0  0
    3.1821  -14.3483   -0.4932 H   0  0  0  0  0  0  0  0  0  0  0  0
   -2.5572  -13.7846    1.1602 H   0  0  0  0  0  0  0  0  0  0  0  0
   -5.2029  -12.5485    1.2581 H   0  0  0  0  0  0  0  0  0  0  0  0
   -5.2947  -11.6264   -0.2807 H   0  0  0  0  0  0  0  0  0  0  0  0
   -4.6822  -13.3151   -0.2807 H   0  0  0  0  0  0  0  0  0  0  0  0
   -3.7691   -9.8551   -0.1582 H   0  0  0  0  0  0  0  0  0  0  0  0
   -1.4472   -9.0259    0.1564 H   0  0  0  0  0  0  0  0  0  0  0  0
    0.9507  -10.3117    2.1008 H   0  0  0  0  0  0  0  0  0  0  0  0
    1.4312  -11.0904    0.5550 H   0  0  0  0  0  0  0  0  0  0  0  0
    0.7979   -9.4095    0.5550 H   0  0  0  0  0  0  0  0  0  0  0  0
   -1.4548  -12.2786    3.7393 H   0  0  0  0  0  0  0  0  0  0  0  0
   -1.2065  -13.0054    6.1132 H   0  0  0  0  0  0  0  0  0  0  0  0
    0.4980  -14.7171    6.7291 H   0  0  0  0  0  0  0  0  0  0  0  0
    1.9721  -15.6949    4.9691 H   0  0  0  0  0  0  0  0  0  0  0  0
    0.0737  -18.3597    2.6724 H   0  0  0  0  0  0  0  0  0  0  0  0
  1  2  1  0
  2  3  2  0
  3  4  1  0
  4  5  2  0
  5  6  1  0
  6  7  1  0
  7  8  1  0
  8  9  1  0
  9 10  1  0
 10 11  1  0
 10 12  1  0
 12 13  1  0
 13 14  1  0
 14 15  2  0
 15 16  1  0
 16 17  2  0
 17 18  1  0
 18 19  1  0
 18 20  2  0
 20 21  1  0
 21 22  2  0
 22 23  1  0
 15 24  1  0
 24 25  2  0
 25 26  1  0
 26 27  2  0
 27 28  1  0
 28 29  2  0
 29 30  1  0
 30 31  2  0
  6 32  2  0
 32  2  1  0
 30 13  1  0
 22 16  1  0
 29 24  1  0
  1 33  1  0
  1 34  1  0
  1 35  1  0
  3 36  1  0
  4 37  1  0
  5 38  1  0
  8 39  1  0
  8 40  1  0
  9 41  1  0
  9 42  1  0
 10 43  1  1
 11 44  1  0
 11 45  1  0
 11 46  1  0
 12 47  1  0
 12 48  1  0
 17 49  1  0
 19 50  1  0
 19 51  1  0
 19 52  1  0
 20 53  1  0
 21 54  1  0
 23 55  1  0
 23 56  1  0
 23 57  1  0
 25 58  1  0
 26 59  1  0
 27 60  1  0
 28 61  1  0
 32 62  1  0
M  CHG  1  10   1
M  END
>  <meeko>  (6) 
{"is_sidechain": [false], "free_energy": -6.513, "intermolecular_energy": -9.097, "internal_energy": -3.809}

$$$$
REF_ZINC58438263__Ngeom2__M_PUB_ALL__e8__s20260927
     RDKit          3D

 62 65  0  0  0  0  0  0  0  0999 V2000
    3.2240  -10.7430   -4.0970 C   0  0  0  0  0  0  0  0  0  0  0  0
    2.5320  -12.0220   -3.7200 C   0  0  0  0  0  0  0  0  0  0  0  0
    2.1050  -12.9110   -4.7140 C   0  0  0  0  0  0  0  0  0  0  0  0
    1.5060  -14.1200   -4.3670 C   0  0  0  0  0  0  0  0  0  0  0  0
    1.3400  -14.4540   -3.0230 C   0  0  0  0  0  0  0  0  0  0  0  0
    1.7570  -13.5750   -2.0230 C   0  0  0  0  0  0  0  0  0  0  0  0
    1.6060  -14.0280   -0.7430 O   0  0  0  0  0  0  0  0  0  0  0  0
    1.2030  -15.3940   -0.6160 C   0  0  0  0  0  0  0  0  0  0  0  0
    1.8610  -15.9330    0.6590 C   0  0  0  0  0  0  0  0  0  0  0  0
    2.6210  -17.2130    0.3850 N   0  0  2  0  0  0  0  0  0  0  0  0
    1.9890  -18.4240    0.9720 C   0  0  0  0  0  0  0  0  0  0  0  0
    4.0910  -17.1300    0.6360 C   0  0  0  0  0  0  0  0  0  0  0  0
    4.6110  -16.1640   -0.3050 N   0  0  0  0  0  0  0  0  0  0  0  0
    5.2220  -15.0490    0.2190 N   0  0  0  0  0  0  0  0  0  0  0  0
    5.6980  -14.1500   -0.5950 C   0  0  0  0  0  0  0  0  0  0  0  0
    6.3740  -12.9820    0.0190 C   0  0  0  0  0  0  0  0  0  0  0  0
    7.7750  -12.9900    0.0720 C   0  0  0  0  0  0  0  0  0  0  0  0
    8.4630  -11.9250    0.6620 C   0  0  0  0  0  0  0  0  0  0  0  0
    9.9610  -11.9430    0.7450 C   0  0  0  0  0  0  0  0  0  0  0  0
    7.7310  -10.8740    1.2220 C   0  0  0  0  0  0  0  0  0  0  0  0
    6.3330  -10.8710    1.1720 C   0  0  0  0  0  0  0  0  0  0  0  0
    5.6330  -11.9210    0.5620 C   0  0  0  0  0  0  0  0  0  0  0  0
    4.1320  -11.8940    0.5320 C   0  0  0  0  0  0  0  0  0  0  0  0
    5.5940  -14.2540   -2.0680 C   0  0  0  0  0  0  0  0  0  0  0  0
    6.0650  -13.2680   -2.9450 C   0  0  0  0  0  0  0  0  0  0  0  0
    5.9390  -13.4420   -4.3250 C   0  0  0  0  0  0  0  0  0  0  0  0
    5.3370  -14.5900   -4.8370 C   0  0  0  0  0  0  0  0  0  0  0  0
    4.8540  -15.5670   -3.9680 C   0  0  0  0  0  0  0  0  0  0  0  0
    4.9810  -15.3920   -2.5840 C   0  0  0  0  0  0  0  0  0  0  0  0
    4.4610  -16.4130   -1.6610 C   0  0  0  0  0  0  0  0  0  0  0  0
    3.9420  -17.4410   -2.0870 O   0  0  0  0  0  0  0  0  0  0  0  0
    2.3630  -12.3660   -2.3710 C   0  0  0  0  0  0  0  0  0  0  0  0
    3.5167  -10.2019   -3.1851 H   0  0  0  0  0  0  0  0  0  0  0  0
    4.1209  -10.9727   -4.6910 H   0  0  0  0  0  0  0  0  0  0  0  0
    2.5410  -10.1179   -4.6910 H   0  0  0  0  0  0  0  0  0  0  0  0
    2.2432  -12.6534   -5.7744 H   0  0  0  0  0  0  0  0  0  0  0  0
    1.1643  -14.8105   -5.1522 H   0  0  0  0  0  0  0  0  0  0  0  0
    0.8784  -15.4145   -2.7503 H   0  0  0  0  0  0  0  0  0  0  0  0
    0.1080  -15.4597   -0.5339 H   0  0  0  0  0  0  0  0  0  0  0  0
    1.5089  -15.9792   -1.4958 H   0  0  0  0  0  0  0  0  0  0  0  0
    2.5593  -15.1778    1.0489 H   0  0  0  0  0  0  0  0  0  0  0  0
    1.0712  -16.1479    1.3939 H   0  0  0  0  0  0  0  0  0  0  0  0
    2.6300  -17.3450   -0.6470 H   0  0  0  0  0  0  0  0  0  0  0  0
    2.0226  -18.3597    2.0696 H   0  0  0  0  0  0  0  0  0  0  0  0
    0.9422  -18.4886    0.6403 H   0  0  0  0  0  0  0  0  0  0  0  0
    2.5347  -19.3197    0.6403 H   0  0  0  0  0  0  0  0  0  0  0  0
    4.2829  -16.7983    1.6671 H   0  0  0  0  0  0  0  0  0  0  0  0
    4.5735  -18.1104    0.5092 H   0  0  0  0  0  0  0  0  0  0  0  0
    8.3348  -13.8367   -0.3519 H   0  0  0  0  0  0  0  0  0  0  0  0
   10.2697  -11.9467    1.8008 H   0  0  0  0  0  0  0  0  0  0  0  0
   10.3450  -12.8458    0.2475 H   0  0  0  0  0  0  0  0  0  0  0  0
   10.3666  -11.0497    0.2475 H   0  0  0  0  0  0  0  0  0  0  0  0
    8.2599  -10.0404    1.7072 H   0  0  0  0  0  0  0  0  0  0  0  0
    5.7757  -10.0336    1.6173 H   0  0  0  0  0  0  0  0  0  0  0  0
    3.7448  -11.8870    1.5616 H   0  0  0  0  0  0  0  0  0  0  0  0
    3.7920  -10.9896    0.0062 H   0  0  0  0  0  0  0  0  0  0  0  0
    3.7597  -12.7856    0.0062 H   0  0  0  0  0  0  0  0  0  0  0  0
    6.5342  -12.3564   -2.5464 H   0  0  0  0  0  0  0  0  0  0  0  0
    6.3166  -12.6694   -5.0110 H   0  0  0  0  0  0  0  0  0  0  0  0
    5.2432  -14.7248   -5.9247 H   0  0  0  0  0  0  0  0  0  0  0  0
    4.3746  -16.4727   -4.3678 H   0  0  0  0  0  0  0  0  0  0  0  0
    2.7093  -11.6805   -1.5835 H   0  0  0  0  0  0  0  0  0  0  0  0
  1  2  1  0
  2  3  2  0
  3  4  1  0
  4  5  2  0
  5  6  1  0
  6  7  1  0
  7  8  1  0
  8  9  1  0
  9 10  1  0
 10 11  1  0
 10 12  1  0
 12 13  1  0
 13 14  1  0
 14 15  2  0
 15 16  1  0
 16 17  2  0
 17 18  1  0
 18 19  1  0
 18 20  2  0
 20 21  1  0
 21 22  2  0
 22 23  1  0
 15 24  1  0
 24 25  2  0
 25 26  1  0
 26 27  2  0
 27 28  1  0
 28 29  2  0
 29 30  1  0
 30 31  2  0
  6 32  2  0
 32  2  1  0
 30 13  1  0
 22 16  1  0
 29 24  1  0
  1 33  1  0
  1 34  1  0
  1 35  1  0
  3 36  1  0
  4 37  1  0
  5 38  1  0
  8 39  1  0
  8 40  1  0
  9 41  1  0
  9 42  1  0
 10 43  1  6
 11 44  1  0
 11 45  1  0
 11 46  1  0
 12 47  1  0
 12 48  1  0
 17 49  1  0
 19 50  1  0
 19 51  1  0
 19 52  1  0
 20 53  1  0
 21 54  1  0
 23 55  1  0
 23 56  1  0
 23 57  1  0
 25 58  1  0
 26 59  1  0
 27 60  1  0
 28 61  1  0
 32 62  1  0
M  CHG  1  10   1
M  END
>  <meeko>  (7) 
{"is_sidechain": [false], "free_energy": -6.483, "intermolecular_energy": -9.061, "internal_energy": -3.803}

$$$$
REF_ZINC58438263__Ngeom2__M_PUB_ALL__e8__s20260927
     RDKit          3D

 62 65  0  0  0  0  0  0  0  0999 V2000
    1.3910  -14.3700   -3.9740 C   0  0  0  0  0  0  0  0  0  0  0  0
    2.2620  -13.1730   -3.7180 C   0  0  0  0  0  0  0  0  0  0  0  0
    2.1960  -12.0600   -4.5650 C   0  0  0  0  0  0  0  0  0  0  0  0
    2.9660  -10.9290   -4.3030 C   0  0  0  0  0  0  0  0  0  0  0  0
    3.7990  -10.8980   -3.1860 C   0  0  0  0  0  0  0  0  0  0  0  0
    3.8780  -12.0020   -2.3360 C   0  0  0  0  0  0  0  0  0  0  0  0
    4.6750  -11.8420   -1.2370 O   0  0  0  0  0  0  0  0  0  0  0  0
    4.1740  -12.4130   -0.0250 C   0  0  0  0  0  0  0  0  0  0  0  0
    5.1800  -12.0630    1.0760 C   0  0  0  0  0  0  0  0  0  0  0  0
    6.3950  -12.9640    1.0180 N   0  0  2  0  0  0  0  0  0  0  0  0
    6.3790  -14.0600    2.0220 C   0  0  0  0  0  0  0  0  0  0  0  0
    7.7020  -12.2440    0.9470 C   0  0  0  0  0  0  0  0  0  0  0  0
    8.3060  -12.6180   -0.3110 N   0  0  0  0  0  0  0  0  0  0  0  0
    7.4610  -13.0640   -1.3010 N   0  0  0  0  0  0  0  0  0  0  0  0
    7.9660  -13.4190   -2.4480 C   0  0  0  0  0  0  0  0  0  0  0  0
    7.0110  -13.8630   -3.4920 C   0  0  0  0  0  0  0  0  0  0  0  0
    6.6710  -12.9490   -4.4990 C   0  0  0  0  0  0  0  0  0  0  0  0
    5.7560  -13.3070   -5.4950 C   0  0  0  0  0  0  0  0  0  0  0  0
    5.3690  -12.3230   -6.5580 C   0  0  0  0  0  0  0  0  0  0  0  0
    5.1680  -14.5740   -5.4480 C   0  0  0  0  0  0  0  0  0  0  0  0
    5.5050  -15.4820   -4.4390 C   0  0  0  0  0  0  0  0  0  0  0  0
    6.4390  -15.1440   -3.4500 C   0  0  0  0  0  0  0  0  0  0  0  0
    6.7740  -16.1350   -2.3740 C   0  0  0  0  0  0  0  0  0  0  0  0
    9.4180  -13.3890   -2.7390 C   0  0  0  0  0  0  0  0  0  0  0  0
    9.9680  -13.8110   -3.9570 C   0  0  0  0  0  0  0  0  0  0  0  0
   11.3490  -13.7450   -4.1600 C   0  0  0  0  0  0  0  0  0  0  0  0
   12.1850  -13.2680   -3.1530 C   0  0  0  0  0  0  0  0  0  0  0  0
   11.6440  -12.8610   -1.9350 C   0  0  0  0  0  0  0  0  0  0  0  0
   10.2590  -12.9280   -1.7310 C   0  0  0  0  0  0  0  0  0  0  0  0
    9.6820  -12.5120   -0.4430 C   0  0  0  0  0  0  0  0  0  0  0  0
   10.3970  -12.0720    0.4530 O   0  0  0  0  0  0  0  0  0  0  0  0
    3.1010  -13.1330   -2.5950 C   0  0  0  0  0  0  0  0  0  0  0  0
    1.0744  -14.8050   -3.0146 H   0  0  0  0  0  0  0  0  0  0  0  0
    0.5042  -14.0623   -4.5474 H   0  0  0  0  0  0  0  0  0  0  0  0
    1.9566  -15.1191   -4.5474 H   0  0  0  0  0  0  0  0  0  0  0  0
    1.5325  -12.0788   -5.4421 H   0  0  0  0  0  0  0  0  0  0  0  0
    2.9166  -10.0612   -4.9771 H   0  0  0  0  0  0  0  0  0  0  0  0
    4.3968   -9.9994   -2.9735 H   0  0  0  0  0  0  0  0  0  0  0  0
    3.1876  -11.9891    0.2142 H   0  0  0  0  0  0  0  0  0  0  0  0
    4.0555  -13.5024   -0.1206 H   0  0  0  0  0  0  0  0  0  0  0  0
    5.5018  -11.0189    0.9485 H   0  0  0  0  0  0  0  0  0  0  0  0
    4.6902  -12.2032    2.0509 H   0  0  0  0  0  0  0  0  0  0  0  0
    6.3940  -13.4120    0.0780 H   0  0  0  0  0  0  0  0  0  0  0  0
    6.3853  -13.6299    3.0344 H   0  0  0  0  0  0  0  0  0  0  0  0
    5.4719  -14.6675    1.8873 H   0  0  0  0  0  0  0  0  0  0  0  0
    7.2680  -14.6937    1.8873 H   0  0  0  0  0  0  0  0  0  0  0  0
    7.5397  -11.1566    0.9827 H   0  0  0  0  0  0  0  0  0  0  0  0
    8.3502  -12.5097    1.7951 H   0  0  0  0  0  0  0  0  0  0  0  0
    7.1251  -11.9471   -4.5061 H   0  0  0  0  0  0  0  0  0  0  0  0
    5.0052  -11.3981   -6.0866 H   0  0  0  0  0  0  0  0  0  0  0  0
    6.2447  -12.0958   -7.1837 H   0  0  0  0  0  0  0  0  0  0  0  0
    4.5731  -12.7532   -7.1837 H   0  0  0  0  0  0  0  0  0  0  0  0
    4.4317  -14.8604   -6.2134 H   0  0  0  0  0  0  0  0  0  0  0  0
    5.0309  -16.4744   -4.4213 H   0  0  0  0  0  0  0  0  0  0  0  0
    6.6177  -15.6727   -1.3882 H   0  0  0  0  0  0  0  0  0  0  0  0
    6.1241  -17.0170   -2.4726 H   0  0  0  0  0  0  0  0  0  0  0  0
    7.8258  -16.4417   -2.4726 H   0  0  0  0  0  0  0  0  0  0  0  0
    9.3127  -14.1941   -4.7531 H   0  0  0  0  0  0  0  0  0  0  0  0
   11.7778  -14.0711   -5.1191 H   0  0  0  0  0  0  0  0  0  0  0  0
   13.2710  -13.2127   -3.3191 H   0  0  0  0  0  0  0  0  0  0  0  0
   12.3019  -12.4883   -1.1361 H   0  0  0  0  0  0  0  0  0  0  0  0
    3.1472  -13.9965   -1.9151 H   0  0  0  0  0  0  0  0  0  0  0  0
  1  2  1  0
  2  3  2  0
  3  4  1  0
  4  5  2  0
  5  6  1  0
  6  7  1  0
  7  8  1  0
  8  9  1  0
  9 10  1  0
 10 11  1  0
 10 12  1  0
 12 13  1  0
 13 14  1  0
 14 15  2  0
 15 16  1  0
 16 17  2  0
 17 18  1  0
 18 19  1  0
 18 20  2  0
 20 21  1  0
 21 22  2  0
 22 23  1  0
 15 24  1  0
 24 25  2  0
 25 26  1  0
 26 27  2  0
 27 28  1  0
 28 29  2  0
 29 30  1  0
 30 31  2  0
  6 32  2  0
 32  2  1  0
 30 13  1  0
 22 16  1  0
 29 24  1  0
  1 33  1  0
  1 34  1  0
  1 35  1  0
  3 36  1  0
  4 37  1  0
  5 38  1  0
  8 39  1  0
  8 40  1  0
  9 41  1  0
  9 42  1  0
 10 43  1  6
 11 44  1  0
 11 45  1  0
 11 46  1  0
 12 47  1  0
 12 48  1  0
 17 49  1  0
 19 50  1  0
 19 51  1  0
 19 52  1  0
 20 53  1  0
 21 54  1  0
 23 55  1  0
 23 56  1  0
 23 57  1  0
 25 58  1  0
 26 59  1  0
 27 60  1  0
 28 61  1  0
 32 62  1  0
M  CHG  1  10   1
M  END
>  <meeko>  (8) 
{"is_sidechain": [false], "free_energy": -6.38, "intermolecular_energy": -9.584, "internal_energy": -3.134}

$$$$
REF_ZINC58438263__Ngeom2__M_PUB_ALL__e8__s20260927
     RDKit          3D

 62 65  0  0  0  0  0  0  0  0999 V2000
   -4.1970  -10.9810   -0.5560 C   0  0  0  0  0  0  0  0  0  0  0  0
   -2.9120  -11.0710    0.2170 C   0  0  0  0  0  0  0  0  0  0  0  0
   -2.5020  -10.0070    1.0290 C   0  0  0  0  0  0  0  0  0  0  0  0
   -1.3360  -10.1070    1.7860 C   0  0  0  0  0  0  0  0  0  0  0  0
   -0.5780  -11.2760    1.7440 C   0  0  0  0  0  0  0  0  0  0  0  0
   -0.9720  -12.3420    0.9350 C   0  0  0  0  0  0  0  0  0  0  0  0
   -0.1930  -13.4610    1.0180 O   0  0  0  0  0  0  0  0  0  0  0  0
   -0.6330  -14.4500    1.9530 C   0  0  0  0  0  0  0  0  0  0  0  0
   -0.5940  -15.7970    1.2220 C   0  0  0  0  0  0  0  0  0  0  0  0
   -0.0620  -15.6430   -0.1870 N   0  0  2  0  0  0  0  0  0  0  0  0
   -1.0610  -15.9520   -1.2440 C   0  0  0  0  0  0  0  0  0  0  0  0
    1.2680  -16.2790   -0.4230 C   0  0  0  0  0  0  0  0  0  0  0  0
    2.2470  -15.2200   -0.3370 N   0  0  0  0  0  0  0  0  0  0  0  0
    2.3090  -14.3390   -1.3910 N   0  0  0  0  0  0  0  0  0  0  0  0
    3.1830  -13.3740   -1.3550 C   0  0  0  0  0  0  0  0  0  0  0  0
    3.1890  -12.4320   -2.5010 C   0  0  0  0  0  0  0  0  0  0  0  0
    4.0090  -12.7390   -3.5950 C   0  0  0  0  0  0  0  0  0  0  0  0
    4.0710  -11.8730   -4.6920 C   0  0  0  0  0  0  0  0  0  0  0  0
    4.9680  -12.1840   -5.8540 C   0  0  0  0  0  0  0  0  0  0  0  0
    3.3300  -10.6890   -4.6610 C   0  0  0  0  0  0  0  0  0  0  0  0
    2.5160  -10.3830   -3.5650 C   0  0  0  0  0  0  0  0  0  0  0  0
    2.4270  -11.2540   -2.4710 C   0  0  0  0  0  0  0  0  0  0  0  0
    1.5530  -10.8940   -1.3040 C   0  0  0  0  0  0  0  0  0  0  0  0
    4.1390  -13.1870   -0.2400 C   0  0  0  0  0  0  0  0  0  0  0  0
    5.1100  -12.1760   -0.2190 C   0  0  0  0  0  0  0  0  0  0  0  0
    5.9720  -12.0580    0.8740 C   0  0  0  0  0  0  0  0  0  0  0  0
    5.8780  -12.9470    1.9430 C   0  0  0  0  0  0  0  0  0  0  0  0
    4.9240  -13.9630    1.9190 C   0  0  0  0  0  0  0  0  0  0  0  0
    4.0600  -14.0810    0.8240 C   0  0  0  0  0  0  0  0  0  0  0  0
    3.0590  -15.1590    0.7870 C   0  0  0  0  0  0  0  0  0  0  0  0
    2.9450  -15.9440    1.7240 O   0  0  0  0  0  0  0  0  0  0  0  0
   -2.1440  -12.2440    0.1820 C   0  0  0  0  0  0  0  0  0  0  0  0
   -5.0430  -10.9217    0.1446 H   0  0  0  0  0  0  0  0  0  0  0  0
   -4.1817  -10.0817   -1.1893 H   0  0  0  0  0  0  0  0  0  0  0  0
   -4.3072  -11.8736   -1.1893 H   0  0  0  0  0  0  0  0  0  0  0  0
   -3.1034   -9.0869    1.0699 H   0  0  0  0  0  0  0  0  0  0  0  0
   -1.0144   -9.2644    2.4158 H   0  0  0  0  0  0  0  0  0  0  0  0
    0.3352  -11.3584    2.3517 H   0  0  0  0  0  0  0  0  0  0  0  0
    0.0376  -14.4723    2.8246 H   0  0  0  0  0  0  0  0  0  0  0  0
   -1.6469  -14.2268    2.3166 H   0  0  0  0  0  0  0  0  0  0  0  0
    0.0576  -16.4875    1.7776 H   0  0  0  0  0  0  0  0  0  0  0  0
   -1.6195  -16.1908    1.1648 H   0  0  0  0  0  0  0  0  0  0  0  0
    0.2020  -14.6430   -0.3010 H   0  0  0  0  0  0  0  0  0  0  0  0
   -2.0117  -16.2461   -0.7753 H   0  0  0  0  0  0  0  0  0  0  0  0
   -1.2206  -15.0612   -1.8694 H   0  0  0  0  0  0  0  0  0  0  0  0
   -0.6898  -16.7773   -1.8694 H   0  0  0  0  0  0  0  0  0  0  0  0
    1.4657  -17.0431    0.3432 H   0  0  0  0  0  0  0  0  0  0  0  0
    1.3039  -16.7769   -1.4032 H   0  0  0  0  0  0  0  0  0  0  0  0
    4.6055  -13.6632   -3.5913 H   0  0  0  0  0  0  0  0  0  0  0  0
    5.9460  -12.5231   -5.4818 H   0  0  0  0  0  0  0  0  0  0  0  0
    4.5136  -12.9770   -6.4660 H   0  0  0  0  0  0  0  0  0  0  0  0
    5.1020  -11.2799   -6.4660 H   0  0  0  0  0  0  0  0  0  0  0  0
    3.3872   -9.9894   -5.5079 H   0  0  0  0  0  0  0  0  0  0  0  0
    1.9385   -9.4468   -3.5621 H   0  0  0  0  0  0  0  0  0  0  0  0
    2.0848  -11.1130   -0.3663 H   0  0  0  0  0  0  0  0  0  0  0  0
    1.3091   -9.8222   -1.3454 H   0  0  0  0  0  0  0  0  0  0  0  0
    0.6250  -11.4831   -1.3454 H   0  0  0  0  0  0  0  0  0  0  0  0
    5.1931  -11.4756   -1.0632 H   0  0  0  0  0  0  0  0  0  0  0  0
    6.7285  -11.2596    0.8909 H   0  0  0  0  0  0  0  0  0  0  0  0
    6.5553  -12.8472    2.8040 H   0  0  0  0  0  0  0  0  0  0  0  0
    4.8503  -14.6702    2.7583 H   0  0  0  0  0  0  0  0  0  0  0  0
   -2.4664  -13.0909   -0.4416 H   0  0  0  0  0  0  0  0  0  0  0  0
  1  2  1  0
  2  3  2  0
  3  4  1  0
  4  5  2  0
  5  6  1  0
  6  7  1  0
  7  8  1  0
  8  9  1  0
  9 10  1  0
 10 11  1  0
 10 12  1  0
 12 13  1  0
 13 14  1  0
 14 15  2  0
 15 16  1  0
 16 17  2  0
 17 18  1  0
 18 19  1  0
 18 20  2  0
 20 21  1  0
 21 22  2  0
 22 23  1  0
 15 24  1  0
 24 25  2  0
 25 26  1  0
 26 27  2  0
 27 28  1  0
 28 29  2  0
 29 30  1  0
 30 31  2  0
  6 32  2  0
 32  2  1  0
 30 13  1  0
 22 16  1  0
 29 24  1  0
  1 33  1  0
  1 34  1  0
  1 35  1  0
  3 36  1  0
  4 37  1  0
  5 38  1  0
  8 39  1  0
  8 40  1  0
  9 41  1  0
  9 42  1  0
 10 43  1  6
 11 44  1  0
 11 45  1  0
 11 46  1  0
 12 47  1  0
 12 48  1  0
 17 49  1  0
 19 50  1  0
 19 51  1  0
 19 52  1  0
 20 53  1  0
 21 54  1  0
 23 55  1  0
 23 56  1  0
 23 57  1  0
 25 58  1  0
 26 59  1  0
 27 60  1  0
 28 61  1  0
 32 62  1  0
M  CHG  1  10   1
M  END
>  <meeko>  (9) 
{"is_sidechain": [false], "free_energy": -6.334, "intermolecular_energy": -10.409, "internal_energy": -2.245}

$$$$
