REF_ZINC12986242__Ngeom2__M_PUB_ALL__e8__s20260927
     RDKit          3D

 49 52  0  0  0  0  0  0  0  0999 V2000
   -9.6600  -21.4430    7.8700 C   0  0  0  0  0  0  0  0  0  0  0  0
  -10.3120  -21.5460    9.1360 O   0  0  0  0  0  0  0  0  0  0  0  0
  -10.9090  -22.7370    9.4490 C   0  0  0  0  0  0  0  0  0  0  0  0
  -11.5610  -23.5690    8.5380 C   0  0  0  0  0  0  0  0  0  0  0  0
  -12.1440  -24.7630    8.9720 C   0  0  0  0  0  0  0  0  0  0  0  0
  -12.0770  -25.1210   10.3160 C   0  0  0  0  0  0  0  0  0  0  0  0
  -12.7960  -26.5900   10.8480 Cl  0  0  0  0  0  0  0  0  0  0  0  0
  -11.4300  -24.2980   11.2360 C   0  0  0  0  0  0  0  0  0  0  0  0
  -10.8370  -23.0990   10.8100 C   0  0  0  0  0  0  0  0  0  0  0  0
  -10.1210  -22.2100   11.8000 C   0  0  0  0  0  0  0  0  0  0  0  0
   -8.7390  -21.8460   11.3850 N   0  0  2  0  0  0  0  0  0  0  0  0
   -7.7190  -22.9240   11.5100 C   0  0  0  0  0  0  0  0  0  0  0  0
   -8.2510  -20.5260   11.9440 C   0  0  0  0  0  0  0  0  0  0  0  0
   -8.4870  -19.4460   10.9040 C   0  0  0  0  0  0  0  0  0  0  0  0
   -9.6320  -18.8430   10.8440 N   0  0  0  0  0  0  0  0  0  0  0  0
   -9.6670  -17.8700    9.9020 C   0  0  0  0  0  0  0  0  0  0  0  0
  -11.0750  -16.9780    9.5710 S   0  0  0  0  0  0  0  0  0  0  0  0
  -10.2670  -16.0540    8.3800 C   0  0  0  0  0  0  0  0  0  0  0  0
   -8.9350  -16.4060    8.2390 C   0  0  0  0  0  0  0  0  0  0  0  0
   -8.1020  -15.7280    7.2490 C   0  0  0  0  0  0  0  0  0  0  0  0
   -8.1580  -16.1030    5.9030 C   0  0  0  0  0  0  0  0  0  0  0  0
   -7.3820  -15.4370    4.9490 C   0  0  0  0  0  0  0  0  0  0  0  0
   -6.5490  -14.3900    5.3360 C   0  0  0  0  0  0  0  0  0  0  0  0
   -6.4830  -14.0100    6.6750 C   0  0  0  0  0  0  0  0  0  0  0  0
   -7.2560  -14.6770    7.6290 C   0  0  0  0  0  0  0  0  0  0  0  0
   -8.5950  -17.4830    9.1310 C   0  0  0  0  0  0  0  0  0  0  0  0
   -7.3310  -18.1810    9.3520 C   0  0  0  0  0  0  0  0  0  0  0  0
   -6.2880  -17.8230    8.8170 O   0  0  0  0  0  0  0  0  0  0  0  0
   -7.3800  -19.2330   10.1780 N   0  0  0  0  0  0  0  0  0  0  0  0
   -8.5842  -21.2731    8.0244 H   0  0  0  0  0  0  0  0  0  0  0  0
   -9.8066  -22.3754    7.3051 H   0  0  0  0  0  0  0  0  0  0  0  0
  -10.0869  -20.6012    7.3051 H   0  0  0  0  0  0  0  0  0  0  0  0
  -11.6163  -23.2848    7.4768 H   0  0  0  0  0  0  0  0  0  0  0  0
  -12.6553  -25.4193    8.2524 H   0  0  0  0  0  0  0  0  0  0  0  0
  -11.3840  -24.5880   12.2961 H   0  0  0  0  0  0  0  0  0  0  0  0
  -10.7030  -21.2843   11.9200 H   0  0  0  0  0  0  0  0  0  0  0  0
  -10.0365  -22.7766   12.7390 H   0  0  0  0  0  0  0  0  0  0  0  0
   -8.7960  -21.6100   10.3720 H   0  0  0  0  0  0  0  0  0  0  0  0
   -7.5277  -23.1262   12.5742 H   0  0  0  0  0  0  0  0  0  0  0  0
   -8.0904  -23.8383   11.0241 H   0  0  0  0  0  0  0  0  0  0  0  0
   -6.7856  -22.6037   11.0241 H   0  0  0  0  0  0  0  0  0  0  0  0
   -8.8058  -20.2842   12.8625 H   0  0  0  0  0  0  0  0  0  0  0  0
   -7.1793  -20.5911   12.1833 H   0  0  0  0  0  0  0  0  0  0  0  0
  -10.7535  -15.2642    7.7889 H   0  0  0  0  0  0  0  0  0  0  0  0
   -8.8168  -16.9273    5.5925 H   0  0  0  0  0  0  0  0  0  0  0  0
   -7.4295  -15.7402    3.8927 H   0  0  0  0  0  0  0  0  0  0  0  0
   -5.9430  -13.8629    4.5844 H   0  0  0  0  0  0  0  0  0  0  0  0
   -5.8226  -13.1852    6.9809 H   0  0  0  0  0  0  0  0  0  0  0  0
   -7.2002  -14.3752    8.6853 H   0  0  0  0  0  0  0  0  0  0  0  0
  1  2  1  0
  2  3  1  0
  3  4  2  0
  4  5  1  0
  5  6  2  0
  6  7  1  0
  6  8  1  0
  8  9  2  0
  9 10  1  0
 10 11  1  0
 11 12  1  0
 11 13  1  0
 13 14  1  0
 14 15  2  0
 15 16  1  0
 16 17  1  0
 17 18  1  0
 18 19  2  0
 19 20  1  0
 20 21  2  0
 21 22  1  0
 22 23  2  0
 23 24  1  0
 24 25  2  0
 19 26  1  0
 26 27  1  0
 27 28  2  0
 27 29  1  0
  9  3  1  0
 29 14  1  0
 26 16  2  0
 25 20  1  0
  1 30  1  0
  1 31  1  0
  1 32  1  0
  4 33  1  0
  5 34  1  0
  8 35  1  0
 10 36  1  0
 10 37  1  0
 11 38  1  6
 12 39  1  0
 12 40  1  0
 12 41  1  0
 13 42  1  0
 13 43  1  0
 18 44  1  0
 21 45  1  0
 22 46  1  0
 23 47  1  0
 24 48  1  0
 25 49  1  0
M  CHG  2  11   1  29  -1
M  END
>  <meeko>  (1) 
{"is_sidechain": [false], "free_energy": -7.074, "intermolecular_energy": -9.555, "internal_energy": -1.326}

$$$$
REF_ZINC12986242__Ngeom2__M_PUB_ALL__e8__s20260927
     RDKit          3D

 49 52  0  0  0  0  0  0  0  0999 V2000
    1.8980  -12.9330   -2.0550 C   0  0  0  0  0  0  0  0  0  0  0  0
    2.1050  -12.9530   -0.6430 O   0  0  0  0  0  0  0  0  0  0  0  0
    1.2580  -12.2130    0.1350 C   0  0  0  0  0  0  0  0  0  0  0  0
    1.0540  -10.8370    0.0110 C   0  0  0  0  0  0  0  0  0  0  0  0
    0.1680  -10.1790    0.8690 C   0  0  0  0  0  0  0  0  0  0  0  0
   -0.5110  -10.8960    1.8500 C   0  0  0  0  0  0  0  0  0  0  0  0
   -1.6000  -10.0850    2.9050 Cl  0  0  0  0  0  0  0  0  0  0  0  0
   -0.3160  -12.2700    1.9850 C   0  0  0  0  0  0  0  0  0  0  0  0
    0.5690  -12.9410    1.1260 C   0  0  0  0  0  0  0  0  0  0  0  0
    0.7740  -14.4320    1.2580 C   0  0  0  0  0  0  0  0  0  0  0  0
    0.2850  -14.9900    2.5480 N   0  0  2  0  0  0  0  0  0  0  0  0
    1.3340  -15.3130    3.5550 C   0  0  0  0  0  0  0  0  0  0  0  0
   -0.7280  -16.1060    2.3960 C   0  0  0  0  0  0  0  0  0  0  0  0
   -2.0690  -15.6110    2.9090 C   0  0  0  0  0  0  0  0  0  0  0  0
   -2.6740  -14.6380    2.3060 N   0  0  0  0  0  0  0  0  0  0  0  0
   -3.8810  -14.3510    2.8500 C   0  0  0  0  0  0  0  0  0  0  0  0
   -4.8460  -13.0690    2.2900 S   0  0  0  0  0  0  0  0  0  0  0  0
   -6.0710  -13.4310    3.4280 C   0  0  0  0  0  0  0  0  0  0  0  0
   -5.7620  -14.5230    4.2200 C   0  0  0  0  0  0  0  0  0  0  0  0
   -6.6920  -14.9580    5.2590 C   0  0  0  0  0  0  0  0  0  0  0  0
   -7.7070  -15.8730    4.9600 C   0  0  0  0  0  0  0  0  0  0  0  0
   -8.5800  -16.3130    5.9590 C   0  0  0  0  0  0  0  0  0  0  0  0
   -8.4430  -15.8420    7.2630 C   0  0  0  0  0  0  0  0  0  0  0  0
   -7.4380  -14.9270    7.5710 C   0  0  0  0  0  0  0  0  0  0  0  0
   -6.5650  -14.4860    6.5730 C   0  0  0  0  0  0  0  0  0  0  0  0
   -4.4670  -15.0510    3.8790 C   0  0  0  0  0  0  0  0  0  0  0  0
   -3.7210  -16.1840    4.4210 C   0  0  0  0  0  0  0  0  0  0  0  0
   -4.2100  -16.9520    5.2410 O   0  0  0  0  0  0  0  0  0  0  0  0
   -2.4740  -16.3380    3.9610 N   0  0  0  0  0  0  0  0  0  0  0  0
    0.8236  -12.8292   -2.2666 H   0  0  0  0  0  0  0  0  0  0  0  0
    2.4418  -12.0832   -2.4933 H   0  0  0  0  0  0  0  0  0  0  0  0
    2.2691  -13.8712   -2.4933 H   0  0  0  0  0  0  0  0  0  0  0  0
    1.5915  -10.2699   -0.7633 H   0  0  0  0  0  0  0  0  0  0  0  0
    0.0075   -9.0954    0.7690 H   0  0  0  0  0  0  0  0  0  0  0  0
   -0.8554  -12.8282    2.7644 H   0  0  0  0  0  0  0  0  0  0  0  0
    0.2367  -14.9306    0.4378 H   0  0  0  0  0  0  0  0  0  0  0  0
    1.8584  -14.6126    1.2195 H   0  0  0  0  0  0  0  0  0  0  0  0
   -0.3140  -14.2510    2.9720 H   0  0  0  0  0  0  0  0  0  0  0  0
    0.9221  -15.1862    4.5671 H   0  0  0  0  0  0  0  0  0  0  0  0
    1.6630  -16.3540    3.4208 H   0  0  0  0  0  0  0  0  0  0  0  0
    2.1916  -14.6373    3.4208 H   0  0  0  0  0  0  0  0  0  0  0  0
   -0.8163  -16.3854    1.3358 H   0  0  0  0  0  0  0  0  0  0  0  0
   -0.4068  -16.9880    2.9695 H   0  0  0  0  0  0  0  0  0  0  0  0
   -7.0048  -12.8570    3.5204 H   0  0  0  0  0  0  0  0  0  0  0  0
   -7.8188  -16.2486    3.9322 H   0  0  0  0  0  0  0  0  0  0  0  0
   -9.3761  -17.0319    5.7153 H   0  0  0  0  0  0  0  0  0  0  0  0
   -9.1279  -16.1923    8.0493 H   0  0  0  0  0  0  0  0  0  0  0  0
   -7.3320  -14.5520    8.5996 H   0  0  0  0  0  0  0  0  0  0  0  0
   -5.7729  -13.7638    6.8200 H   0  0  0  0  0  0  0  0  0  0  0  0
  1  2  1  0
  2  3  1  0
  3  4  2  0
  4  5  1  0
  5  6  2  0
  6  7  1  0
  6  8  1  0
  8  9  2  0
  9 10  1  0
 10 11  1  0
 11 12  1  0
 11 13  1  0
 13 14  1  0
 14 15  2  0
 15 16  1  0
 16 17  1  0
 17 18  1  0
 18 19  2  0
 19 20  1  0
 20 21  2  0
 21 22  1  0
 22 23  2  0
 23 24  1  0
 24 25  2  0
 19 26  1  0
 26 27  1  0
 27 28  2  0
 27 29  1  0
  9  3  1  0
 29 14  1  0
 26 16  2  0
 25 20  1  0
  1 30  1  0
  1 31  1  0
  1 32  1  0
  4 33  1  0
  5 34  1  0
  8 35  1  0
 10 36  1  0
 10 37  1  0
 11 38  1  1
 12 39  1  0
 12 40  1  0
 12 41  1  0
 13 42  1  0
 13 43  1  0
 18 44  1  0
 21 45  1  0
 22 46  1  0
 23 47  1  0
 24 48  1  0
 25 49  1  0
M  CHG  2  11   1  29  -1
M  END
>  <meeko>  (2) 
{"is_sidechain": [false], "free_energy": -6.97, "intermolecular_energy": -9.703, "internal_energy": -1.038}

$$$$
REF_ZINC12986242__Ngeom2__M_PUB_ALL__e8__s20260927
     RDKit          3D

 49 52  0  0  0  0  0  0  0  0999 V2000
   10.3340   -6.3790   15.4490 C   0  0  0  0  0  0  0  0  0  0  0  0
    9.7600   -7.4750   14.7380 O   0  0  0  0  0  0  0  0  0  0  0  0
    8.4280   -7.4090   14.4320 C   0  0  0  0  0  0  0  0  0  0  0  0
    7.8720   -6.5810   13.4560 C   0  0  0  0  0  0  0  0  0  0  0  0
    6.4920   -6.5890   13.2330 C   0  0  0  0  0  0  0  0  0  0  0  0
    5.6710   -7.4210   13.9870 C   0  0  0  0  0  0  0  0  0  0  0  0
    3.9740   -7.4290   13.7120 Cl  0  0  0  0  0  0  0  0  0  0  0  0
    6.2140   -8.2520   14.9660 C   0  0  0  0  0  0  0  0  0  0  0  0
    7.5990   -8.2550   15.1950 C   0  0  0  0  0  0  0  0  0  0  0  0
    8.1950   -9.1640   16.2450 C   0  0  0  0  0  0  0  0  0  0  0  0
    8.7620  -10.4240   15.6920 N   0  0  2  0  0  0  0  0  0  0  0  0
    7.7980  -11.5440   15.5080 C   0  0  0  0  0  0  0  0  0  0  0  0
   10.0440  -10.8730   16.3610 C   0  0  0  0  0  0  0  0  0  0  0  0
   11.1740  -10.7770   15.3520 C   0  0  0  0  0  0  0  0  0  0  0  0
   11.2950  -11.6780   14.4280 N   0  0  0  0  0  0  0  0  0  0  0  0
   12.3150  -11.4230   13.5740 C   0  0  0  0  0  0  0  0  0  0  0  0
   12.7320  -12.4870   12.3170 S   0  0  0  0  0  0  0  0  0  0  0  0
   13.9890  -11.4510   11.7930 C   0  0  0  0  0  0  0  0  0  0  0  0
   14.0870  -10.2990   12.5550 C   0  0  0  0  0  0  0  0  0  0  0  0
   15.1220   -9.3120   12.2550 C   0  0  0  0  0  0  0  0  0  0  0  0
   14.7870   -8.1030   11.6350 C   0  0  0  0  0  0  0  0  0  0  0  0
   15.7710   -7.1450   11.3740 C   0  0  0  0  0  0  0  0  0  0  0  0
   17.0950   -7.3880   11.7330 C   0  0  0  0  0  0  0  0  0  0  0  0
   17.4400   -8.5900   12.3480 C   0  0  0  0  0  0  0  0  0  0  0  0
   16.4580   -9.5500   12.6080 C   0  0  0  0  0  0  0  0  0  0  0  0
   13.1050  -10.2960   13.6060 C   0  0  0  0  0  0  0  0  0  0  0  0
   12.8140   -9.3110   14.6440 C   0  0  0  0  0  0  0  0  0  0  0  0
   13.3670   -8.2170   14.6750 O   0  0  0  0  0  0  0  0  0  0  0  0
   11.9040   -9.6720   15.5560 N   0  0  0  0  0  0  0  0  0  0  0  0
   10.2417   -6.5551   16.5309 H   0  0  0  0  0  0  0  0  0  0  0  0
   11.3970   -6.2852   15.1821 H   0  0  0  0  0  0  0  0  0  0  0  0
    9.8057   -5.4518   15.1821 H   0  0  0  0  0  0  0  0  0  0  0  0
    8.5206   -5.9210   12.8612 H   0  0  0  0  0  0  0  0  0  0  0  0
    6.0555   -5.9376   12.4615 H   0  0  0  0  0  0  0  0  0  0  0  0
    5.5571   -8.9053   15.5590 H   0  0  0  0  0  0  0  0  0  0  0  0
    8.9987   -8.6185   16.7612 H   0  0  0  0  0  0  0  0  0  0  0  0
    7.3785   -9.4495   16.9246 H   0  0  0  0  0  0  0  0  0  0  0  0
    9.1210  -10.1850   14.7430 H   0  0  0  0  0  0  0  0  0  0  0  0
    7.4770  -11.9169   16.4918 H   0  0  0  0  0  0  0  0  0  0  0  0
    6.9217  -11.1853   14.9481 H   0  0  0  0  0  0  0  0  0  0  0  0
    8.2832  -12.3571   14.9481 H   0  0  0  0  0  0  0  0  0  0  0  0
   10.2598  -10.2239   17.2225 H   0  0  0  0  0  0  0  0  0  0  0  0
    9.9414  -11.9098   16.7140 H   0  0  0  0  0  0  0  0  0  0  0  0
   14.6486  -11.6761   10.9419 H   0  0  0  0  0  0  0  0  0  0  0  0
   13.7428   -7.9053   11.3512 H   0  0  0  0  0  0  0  0  0  0  0  0
   15.4996   -6.1980   10.8845 H   0  0  0  0  0  0  0  0  0  0  0  0
   17.8676   -6.6315   11.5311 H   0  0  0  0  0  0  0  0  0  0  0  0
   18.4858   -8.7834   12.6290 H   0  0  0  0  0  0  0  0  0  0  0  0
   16.7349  -10.4980   13.0925 H   0  0  0  0  0  0  0  0  0  0  0  0
  1  2  1  0
  2  3  1  0
  3  4  2  0
  4  5  1  0
  5  6  2  0
  6  7  1  0
  6  8  1  0
  8  9  2  0
  9 10  1  0
 10 11  1  0
 11 12  1  0
 11 13  1  0
 13 14  1  0
 14 15  2  0
 15 16  1  0
 16 17  1  0
 17 18  1  0
 18 19  2  0
 19 20  1  0
 20 21  2  0
 21 22  1  0
 22 23  2  0
 23 24  1  0
 24 25  2  0
 19 26  1  0
 26 27  1  0
 27 28  2  0
 27 29  1  0
  9  3  1  0
 29 14  1  0
 26 16  2  0
 25 20  1  0
  1 30  1  0
  1 31  1  0
  1 32  1  0
  4 33  1  0
  5 34  1  0
  8 35  1  0
 10 36  1  0
 10 37  1  0
 11 38  1  6
 12 39  1  0
 12 40  1  0
 12 41  1  0
 13 42  1  0
 13 43  1  0
 18 44  1  0
 21 45  1  0
 22 46  1  0
 23 47  1  0
 24 48  1  0
 25 49  1  0
M  CHG  2  11   1  29  -1
M  END
>  <meeko>  (3) 
{"is_sidechain": [false], "free_energy": -6.862, "intermolecular_energy": -9.302, "internal_energy": -1.294}

$$$$
REF_ZINC12986242__Ngeom2__M_PUB_ALL__e8__s20260927
     RDKit          3D

 49 52  0  0  0  0  0  0  0  0999 V2000
   17.9100   -9.2810   12.4400 C   0  0  0  0  0  0  0  0  0  0  0  0
   18.0890   -7.8860   12.6860 O   0  0  0  0  0  0  0  0  0  0  0  0
   18.7650   -7.1560   11.7470 C   0  0  0  0  0  0  0  0  0  0  0  0
   19.4470   -7.6940   10.6540 C   0  0  0  0  0  0  0  0  0  0  0  0
   20.1120   -6.8520    9.7590 C   0  0  0  0  0  0  0  0  0  0  0  0
   20.0970   -5.4740    9.9580 C   0  0  0  0  0  0  0  0  0  0  0  0
   20.9170   -4.4400    8.8550 Cl  0  0  0  0  0  0  0  0  0  0  0  0
   19.4200   -4.9240   11.0460 C   0  0  0  0  0  0  0  0  0  0  0  0
   18.7450   -5.7610   11.9490 C   0  0  0  0  0  0  0  0  0  0  0  0
   17.9980   -5.1700   13.1210 C   0  0  0  0  0  0  0  0  0  0  0  0
   17.2070   -3.9570   12.7760 N   0  0  2  0  0  0  0  0  0  0  0  0
   17.3270   -2.8140   13.7230 C   0  0  0  0  0  0  0  0  0  0  0  0
   15.7690   -4.2430   12.3970 C   0  0  0  0  0  0  0  0  0  0  0  0
   15.4380   -5.6670   12.8060 C   0  0  0  0  0  0  0  0  0  0  0  0
   15.4840   -6.0100   14.0550 N   0  0  0  0  0  0  0  0  0  0  0  0
   15.1090   -7.2950   14.2620 C   0  0  0  0  0  0  0  0  0  0  0  0
   15.1510   -8.0140   15.8010 S   0  0  0  0  0  0  0  0  0  0  0  0
   14.5470   -9.4890   15.1800 C   0  0  0  0  0  0  0  0  0  0  0  0
   14.3010   -9.4380   13.8190 C   0  0  0  0  0  0  0  0  0  0  0  0
   13.8000  -10.6200   13.1230 C   0  0  0  0  0  0  0  0  0  0  0  0
   14.5820  -11.2510   12.1490 C   0  0  0  0  0  0  0  0  0  0  0  0
   14.1170  -12.4000   11.5020 C   0  0  0  0  0  0  0  0  0  0  0  0
   12.8680  -12.9260   11.8260 C   0  0  0  0  0  0  0  0  0  0  0  0
   12.0800  -12.3040   12.7920 C   0  0  0  0  0  0  0  0  0  0  0  0
   12.5430  -11.1550   13.4390 C   0  0  0  0  0  0  0  0  0  0  0  0
   14.6450   -8.1460   13.2860 C   0  0  0  0  0  0  0  0  0  0  0  0
   14.5570   -7.6150   11.9280 C   0  0  0  0  0  0  0  0  0  0  0  0
   14.0320   -8.2440   11.0170 O   0  0  0  0  0  0  0  0  0  0  0  0
   15.0800   -6.3970   11.7410 N   0  0  0  0  0  0  0  0  0  0  0  0
   17.8413   -9.8165   13.3984 H   0  0  0  0  0  0  0  0  0  0  0  0
   16.9846   -9.4363   11.8660 H   0  0  0  0  0  0  0  0  0  0  0  0
   18.7662   -9.6649   11.8660 H   0  0  0  0  0  0  0  0  0  0  0  0
   19.4608   -8.7827   10.4972 H   0  0  0  0  0  0  0  0  0  0  0  0
   20.6472   -7.2776    8.8974 H   0  0  0  0  0  0  0  0  0  0  0  0
   19.4148   -3.8344   11.1968 H   0  0  0  0  0  0  0  0  0  0  0  0
   17.3102   -5.9328   13.5148 H   0  0  0  0  0  0  0  0  0  0  0  0
   18.7518   -4.8627   13.8608 H   0  0  0  0  0  0  0  0  0  0  0  0
   17.5790   -3.6240   11.8620 H   0  0  0  0  0  0  0  0  0  0  0  0
   17.2877   -3.1885   14.7565 H   0  0  0  0  0  0  0  0  0  0  0  0
   18.2842   -2.2984   13.5560 H   0  0  0  0  0  0  0  0  0  0  0  0
   16.4977   -2.1108   13.5560 H   0  0  0  0  0  0  0  0  0  0  0  0
   15.1011   -3.5421   12.9191 H   0  0  0  0  0  0  0  0  0  0  0  0
   15.6333   -4.1209   11.3123 H   0  0  0  0  0  0  0  0  0  0  0  0
   14.3727  -10.3830   15.7968 H   0  0  0  0  0  0  0  0  0  0  0  0
   15.5692  -10.8403   11.8906 H   0  0  0  0  0  0  0  0  0  0  0  0
   14.7376  -12.8890   10.7367 H   0  0  0  0  0  0  0  0  0  0  0  0
   12.5043  -13.8320   11.3192 H   0  0  0  0  0  0  0  0  0  0  0  0
   11.0928  -12.7175   13.0456 H   0  0  0  0  0  0  0  0  0  0  0  0
   11.9173  -10.6672   14.2010 H   0  0  0  0  0  0  0  0  0  0  0  0
  1  2  1  0
  2  3  1  0
  3  4  2  0
  4  5  1  0
  5  6  2  0
  6  7  1  0
  6  8  1  0
  8  9  2  0
  9 10  1  0
 10 11  1  0
 11 12  1  0
 11 13  1  0
 13 14  1  0
 14 15  2  0
 15 16  1  0
 16 17  1  0
 17 18  1  0
 18 19  2  0
 19 20  1  0
 20 21  2  0
 21 22  1  0
 22 23  2  0
 23 24  1  0
 24 25  2  0
 19 26  1  0
 26 27  1  0
 27 28  2  0
 27 29  1  0
  9  3  1  0
 29 14  1  0
 26 16  2  0
 25 20  1  0
  1 30  1  0
  1 31  1  0
  1 32  1  0
  4 33  1  0
  5 34  1  0
  8 35  1  0
 10 36  1  0
 10 37  1  0
 11 38  1  6
 12 39  1  0
 12 40  1  0
 12 41  1  0
 13 42  1  0
 13 43  1  0
 18 44  1  0
 21 45  1  0
 22 46  1  0
 23 47  1  0
 24 48  1  0
 25 49  1  0
M  CHG  2  11   1  29  -1
M  END
>  <meeko>  (4) 
{"is_sidechain": [false], "free_energy": -6.782, "intermolecular_energy": -9.822, "internal_energy": -0.666}

$$$$
REF_ZINC12986242__Ngeom2__M_PUB_ALL__e8__s20260927
     RDKit          3D

 49 52  0  0  0  0  0  0  0  0999 V2000
   13.9300  -15.0510   -5.3080 C   0  0  0  0  0  0  0  0  0  0  0  0
   12.7980  -14.2440   -4.9830 O   0  0  0  0  0  0  0  0  0  0  0  0
   12.9140  -13.3800   -3.9290 C   0  0  0  0  0  0  0  0  0  0  0  0
   13.8370  -12.3360   -3.8480 C   0  0  0  0  0  0  0  0  0  0  0  0
   13.8720  -11.5170   -2.7160 C   0  0  0  0  0  0  0  0  0  0  0  0
   12.9880  -11.7450   -1.6650 C   0  0  0  0  0  0  0  0  0  0  0  0
   13.0330  -10.7370   -0.2730 Cl  0  0  0  0  0  0  0  0  0  0  0  0
   12.0620  -12.7850   -1.7330 C   0  0  0  0  0  0  0  0  0  0  0  0
   12.0150  -13.6110   -2.8680 C   0  0  0  0  0  0  0  0  0  0  0  0
   11.0040  -14.7300   -2.9540 C   0  0  0  0  0  0  0  0  0  0  0  0
   11.1530  -15.7520   -1.8820 N   0  0  2  0  0  0  0  0  0  0  0  0
   12.2470  -16.7440   -2.0790 C   0  0  0  0  0  0  0  0  0  0  0  0
    9.8520  -16.4060   -1.4650 C   0  0  0  0  0  0  0  0  0  0  0  0
    8.8000  -15.3240   -1.3040 C   0  0  0  0  0  0  0  0  0  0  0  0
    8.9750  -14.3730   -0.4410 N   0  0  0  0  0  0  0  0  0  0  0  0
    7.9770  -13.4580   -0.4550 C   0  0  0  0  0  0  0  0  0  0  0  0
    7.9300  -12.1510    0.6280 S   0  0  0  0  0  0  0  0  0  0  0  0
    6.4790  -11.5660   -0.0640 C   0  0  0  0  0  0  0  0  0  0  0  0
    6.0350  -12.3460   -1.1190 C   0  0  0  0  0  0  0  0  0  0  0  0
    4.7980  -12.0000   -1.8120 C   0  0  0  0  0  0  0  0  0  0  0  0
    3.5580  -12.2560   -1.2160 C   0  0  0  0  0  0  0  0  0  0  0  0
    2.3730  -11.9000   -1.8660 C   0  0  0  0  0  0  0  0  0  0  0  0
    2.4190  -11.2820   -3.1140 C   0  0  0  0  0  0  0  0  0  0  0  0
    3.6480  -11.0250   -3.7180 C   0  0  0  0  0  0  0  0  0  0  0  0
    4.8340  -11.3830   -3.0710 C   0  0  0  0  0  0  0  0  0  0  0  0
    6.9180  -13.4620   -1.3350 C   0  0  0  0  0  0  0  0  0  0  0  0
    6.8760  -14.5410   -2.3190 C   0  0  0  0  0  0  0  0  0  0  0  0
    6.0550  -14.5590   -3.2280 O   0  0  0  0  0  0  0  0  0  0  0  0
    7.7940  -15.5040   -2.1710 N   0  0  0  0  0  0  0  0  0  0  0  0
   14.4130  -15.3953   -4.3816 H   0  0  0  0  0  0  0  0  0  0  0  0
   13.6032  -15.9211   -5.8964 H   0  0  0  0  0  0  0  0  0  0  0  0
   14.6460  -14.4584   -5.8964 H   0  0  0  0  0  0  0  0  0  0  0  0
   14.5381  -12.1575   -4.6766 H   0  0  0  0  0  0  0  0  0  0  0  0
   14.5977  -10.6926   -2.6555 H   0  0  0  0  0  0  0  0  0  0  0  0
   11.3680  -12.9587   -0.8975 H   0  0  0  0  0  0  0  0  0  0  0  0
    9.9964  -14.2946   -2.8816 H   0  0  0  0  0  0  0  0  0  0  0  0
   11.1708  -15.2421   -3.9131 H   0  0  0  0  0  0  0  0  0  0  0  0
   11.3840  -15.2260   -1.0140 H   0  0  0  0  0  0  0  0  0  0  0  0
   12.6178  -17.0802   -1.0995 H   0  0  0  0  0  0  0  0  0  0  0  0
   11.8621  -17.6074   -2.6415 H   0  0  0  0  0  0  0  0  0  0  0  0
   13.0688  -16.2767   -2.6415 H   0  0  0  0  0  0  0  0  0  0  0  0
    9.5327  -17.1223   -2.2363 H   0  0  0  0  0  0  0  0  0  0  0  0
    9.9878  -16.9444   -0.5154 H   0  0  0  0  0  0  0  0  0  0  0  0
    5.9546  -10.6665    0.2909 H   0  0  0  0  0  0  0  0  0  0  0  0
    3.5157  -12.7406   -0.2294 H   0  0  0  0  0  0  0  0  0  0  0  0
    1.4026  -12.1080   -1.3916 H   0  0  0  0  0  0  0  0  0  0  0  0
    1.4858  -10.9973   -3.6220 H   0  0  0  0  0  0  0  0  0  0  0  0
    3.6849  -10.5401   -4.7046 H   0  0  0  0  0  0  0  0  0  0  0  0
    5.8019  -11.1795   -3.5523 H   0  0  0  0  0  0  0  0  0  0  0  0
  1  2  1  0
  2  3  1  0
  3  4  2  0
  4  5  1  0
  5  6  2  0
  6  7  1  0
  6  8  1  0
  8  9  2  0
  9 10  1  0
 10 11  1  0
 11 12  1  0
 11 13  1  0
 13 14  1  0
 14 15  2  0
 15 16  1  0
 16 17  1  0
 17 18  1  0
 18 19  2  0
 19 20  1  0
 20 21  2  0
 21 22  1  0
 22 23  2  0
 23 24  1  0
 24 25  2  0
 19 26  1  0
 26 27  1  0
 27 28  2  0
 27 29  1  0
  9  3  1  0
 29 14  1  0
 26 16  2  0
 25 20  1  0
  1 30  1  0
  1 31  1  0
  1 32  1  0
  4 33  1  0
  5 34  1  0
  8 35  1  0
 10 36  1  0
 10 37  1  0
 11 38  1  1
 12 39  1  0
 12 40  1  0
 12 41  1  0
 13 42  1  0
 13 43  1  0
 18 44  1  0
 21 45  1  0
 22 46  1  0
 23 47  1  0
 24 48  1  0
 25 49  1  0
M  CHG  2  11   1  29  -1
M  END
>  <meeko>  (5) 
{"is_sidechain": [false], "free_energy": -6.761, "intermolecular_energy": -9.484, "internal_energy": -0.975}

$$$$
REF_ZINC12986242__Ngeom2__M_PUB_ALL__e8__s20260927
     RDKit          3D

 49 52  0  0  0  0  0  0  0  0999 V2000
   -2.1040  -16.6840    1.7520 C   0  0  0  0  0  0  0  0  0  0  0  0
   -2.0030  -15.9990    3.0000 O   0  0  0  0  0  0  0  0  0  0  0  0
   -1.9680  -14.6310    2.9740 C   0  0  0  0  0  0  0  0  0  0  0  0
   -2.8780  -13.8200    2.2940 C   0  0  0  0  0  0  0  0  0  0  0  0
   -2.7410  -12.4300    2.3300 C   0  0  0  0  0  0  0  0  0  0  0  0
   -1.6940  -11.8520    3.0420 C   0  0  0  0  0  0  0  0  0  0  0  0
   -1.5270  -10.1420    3.0850 Cl  0  0  0  0  0  0  0  0  0  0  0  0
   -0.7780  -12.6510    3.7250 C   0  0  0  0  0  0  0  0  0  0  0  0
   -0.9090  -14.0490    3.7000 C   0  0  0  0  0  0  0  0  0  0  0  0
    0.0720  -14.9200    4.4490 C   0  0  0  0  0  0  0  0  0  0  0  0
    1.0070  -15.6650    3.5630 N   0  0  2  0  0  0  0  0  0  0  0  0
    1.3810  -17.0340    4.0190 C   0  0  0  0  0  0  0  0  0  0  0  0
    2.2100  -14.8610    3.1150 C   0  0  0  0  0  0  0  0  0  0  0  0
    2.0970  -14.6210    1.6200 C   0  0  0  0  0  0  0  0  0  0  0  0
    1.1370  -15.1720    0.9460 N   0  0  0  0  0  0  0  0  0  0  0  0
    1.1410  -14.8180   -0.3620 C   0  0  0  0  0  0  0  0  0  0  0  0
    0.0320  -15.4590   -1.4770 S   0  0  0  0  0  0  0  0  0  0  0  0
    0.6970  -14.5260   -2.7480 C   0  0  0  0  0  0  0  0  0  0  0  0
    1.7450  -13.7230   -2.3310 C   0  0  0  0  0  0  0  0  0  0  0  0
    2.4410  -12.8740   -3.2940 C   0  0  0  0  0  0  0  0  0  0  0  0
    2.3350  -11.4810   -3.2150 C   0  0  0  0  0  0  0  0  0  0  0  0
    3.0230  -10.6650   -4.1180 C   0  0  0  0  0  0  0  0  0  0  0  0
    3.8240  -11.2370   -5.1040 C   0  0  0  0  0  0  0  0  0  0  0  0
    3.9340  -12.6230   -5.1950 C   0  0  0  0  0  0  0  0  0  0  0  0
    3.2450  -13.4400   -4.2940 C   0  0  0  0  0  0  0  0  0  0  0  0
    2.0050  -13.9090   -0.9280 C   0  0  0  0  0  0  0  0  0  0  0  0
    2.9890  -13.2890   -0.0450 C   0  0  0  0  0  0  0  0  0  0  0  0
    3.7110  -12.3720   -0.4190 O   0  0  0  0  0  0  0  0  0  0  0  0
    3.0510  -13.7790    1.1990 N   0  0  0  0  0  0  0  0  0  0  0  0
   -2.2622  -17.7571    1.9345 H   0  0  0  0  0  0  0  0  0  0  0  0
   -2.9523  -16.2804    1.1798 H   0  0  0  0  0  0  0  0  0  0  0  0
   -1.1753  -16.5424    1.1798 H   0  0  0  0  0  0  0  0  0  0  0  0
   -3.7043  -14.2759    1.7289 H   0  0  0  0  0  0  0  0  0  0  0  0
   -3.4607  -11.7924    1.7956 H   0  0  0  0  0  0  0  0  0  0  0  0
    0.0477  -12.1861    4.2837 H   0  0  0  0  0  0  0  0  0  0  0  0
    0.6643  -14.2794    5.1189 H   0  0  0  0  0  0  0  0  0  0  0  0
   -0.5170  -15.6694    4.9980 H   0  0  0  0  0  0  0  0  0  0  0  0
    0.5110  -15.7820    2.6550 H   0  0  0  0  0  0  0  0  0  0  0  0
    1.3894  -17.0647    5.1185 H   0  0  0  0  0  0  0  0  0  0  0  0
    0.6484  -17.7605    3.6375 H   0  0  0  0  0  0  0  0  0  0  0  0
    2.3812  -17.2871    3.6375 H   0  0  0  0  0  0  0  0  0  0  0  0
    2.2312  -13.8975    3.6453 H   0  0  0  0  0  0  0  0  0  0  0  0
    3.1363  -15.4097    3.3405 H   0  0  0  0  0  0  0  0  0  0  0  0
    0.3312  -14.5605   -3.7848 H   0  0  0  0  0  0  0  0  0  0  0  0
    1.7057  -11.0246   -2.4367 H   0  0  0  0  0  0  0  0  0  0  0  0
    2.9318   -9.5709   -4.0499 H   0  0  0  0  0  0  0  0  0  0  0  0
    4.3696  -10.5944   -5.8107 H   0  0  0  0  0  0  0  0  0  0  0  0
    4.5633  -13.0745   -5.9762 H   0  0  0  0  0  0  0  0  0  0  0  0
    3.3340  -14.5338   -4.3698 H   0  0  0  0  0  0  0  0  0  0  0  0
  1  2  1  0
  2  3  1  0
  3  4  2  0
  4  5  1  0
  5  6  2  0
  6  7  1  0
  6  8  1  0
  8  9  2  0
  9 10  1  0
 10 11  1  0
 11 12  1  0
 11 13  1  0
 13 14  1  0
 14 15  2  0
 15 16  1  0
 16 17  1  0
 17 18  1  0
 18 19  2  0
 19 20  1  0
 20 21  2  0
 21 22  1  0
 22 23  2  0
 23 24  1  0
 24 25  2  0
 19 26  1  0
 26 27  1  0
 27 28  2  0
 27 29  1  0
  9  3  1  0
 29 14  1  0
 26 16  2  0
 25 20  1  0
  1 30  1  0
  1 31  1  0
  1 32  1  0
  4 33  1  0
  5 34  1  0
  8 35  1  0
 10 36  1  0
 10 37  1  0
 11 38  1  6
 12 39  1  0
 12 40  1  0
 12 41  1  0
 13 42  1  0
 13 43  1  0
 18 44  1  0
 21 45  1  0
 22 46  1  0
 23 47  1  0
 24 48  1  0
 25 49  1  0
M  CHG  2  11   1  29  -1
M  END
>  <meeko>  (6) 
{"is_sidechain": [false], "free_energy": -6.759, "intermolecular_energy": -8.965, "internal_energy": -1.492}

$$$$
REF_ZINC12986242__Ngeom2__M_PUB_ALL__e8__s20260927
     RDKit          3D

 49 52  0  0  0  0  0  0  0  0999 V2000
   -8.2290  -17.5440    9.6610 C   0  0  0  0  0  0  0  0  0  0  0  0
   -8.9730  -16.7290    8.7560 O   0  0  0  0  0  0  0  0  0  0  0  0
   -8.2890  -16.1150    7.7430 C   0  0  0  0  0  0  0  0  0  0  0  0
   -7.0880  -15.4200    7.8950 C   0  0  0  0  0  0  0  0  0  0  0  0
   -6.4790  -14.8210    6.7880 C   0  0  0  0  0  0  0  0  0  0  0  0
   -7.0730  -14.9150    5.5330 C   0  0  0  0  0  0  0  0  0  0  0  0
   -6.3220  -14.1780    4.1730 Cl  0  0  0  0  0  0  0  0  0  0  0  0
   -8.2730  -15.6050    5.3670 C   0  0  0  0  0  0  0  0  0  0  0  0
   -8.8910  -16.2140    6.4720 C   0  0  0  0  0  0  0  0  0  0  0  0
  -10.1840  -16.9750    6.2960 C   0  0  0  0  0  0  0  0  0  0  0  0
  -10.0680  -18.4270    6.6030 N   0  0  2  0  0  0  0  0  0  0  0  0
   -9.1380  -19.2020    5.7340 C   0  0  0  0  0  0  0  0  0  0  0  0
  -11.3970  -19.1280    6.7910 C   0  0  0  0  0  0  0  0  0  0  0  0
  -11.2140  -20.2410    7.8080 C   0  0  0  0  0  0  0  0  0  0  0  0
  -10.1910  -20.2300    8.6040 N   0  0  0  0  0  0  0  0  0  0  0  0
  -10.1990  -21.2570    9.4860 C   0  0  0  0  0  0  0  0  0  0  0  0
   -8.9350  -21.5120   10.5910 S   0  0  0  0  0  0  0  0  0  0  0  0
   -9.7230  -22.8790   11.2520 C   0  0  0  0  0  0  0  0  0  0  0  0
  -10.9440  -23.1370   10.6510 C   0  0  0  0  0  0  0  0  0  0  0  0
  -11.7420  -24.2810   11.0820 C   0  0  0  0  0  0  0  0  0  0  0  0
  -12.0990  -25.2780   10.1670 C   0  0  0  0  0  0  0  0  0  0  0  0
  -12.8390  -26.3890   10.5830 C   0  0  0  0  0  0  0  0  0  0  0  0
  -13.2240  -26.5120   11.9170 C   0  0  0  0  0  0  0  0  0  0  0  0
  -12.8770  -25.5230   12.8350 C   0  0  0  0  0  0  0  0  0  0  0  0
  -12.1390  -24.4110   12.4200 C   0  0  0  0  0  0  0  0  0  0  0  0
  -11.2100  -22.1830    9.6070 C   0  0  0  0  0  0  0  0  0  0  0  0
  -12.3530  -22.0390    8.7090 C   0  0  0  0  0  0  0  0  0  0  0  0
  -13.3620  -22.7260    8.8250 O   0  0  0  0  0  0  0  0  0  0  0  0
  -12.2350  -21.1080    7.7540 N   0  0  0  0  0  0  0  0  0  0  0  0
   -8.4812  -17.2677   10.6954 H   0  0  0  0  0  0  0  0  0  0  0  0
   -8.4795  -18.6018    9.4926 H   0  0  0  0  0  0  0  0  0  0  0  0
   -7.1528  -17.3907    9.4926 H   0  0  0  0  0  0  0  0  0  0  0  0
   -6.6198  -15.3434    8.8874 H   0  0  0  0  0  0  0  0  0  0  0  0
   -5.5312  -14.2760    6.9090 H   0  0  0  0  0  0  0  0  0  0  0  0
   -8.7357  -15.6726    4.3713 H   0  0  0  0  0  0  0  0  0  0  0  0
  -10.9389  -16.5373    6.9657 H   0  0  0  0  0  0  0  0  0  0  0  0
  -10.4657  -16.8911    5.2360 H   0  0  0  0  0  0  0  0  0  0  0  0
   -9.6870  -18.4870    7.5700 H   0  0  0  0  0  0  0  0  0  0  0  0
   -8.4446  -19.7799    6.3627 H   0  0  0  0  0  0  0  0  0  0  0  0
   -9.7164  -19.8891    5.0989 H   0  0  0  0  0  0  0  0  0  0  0  0
   -8.5665  -18.5091    5.0989 H   0  0  0  0  0  0  0  0  0  0  0  0
  -12.1466  -18.4107    7.1565 H   0  0  0  0  0  0  0  0  0  0  0  0
  -11.7425  -19.5449    5.8335 H   0  0  0  0  0  0  0  0  0  0  0  0
   -9.3048  -23.4879   12.0671 H   0  0  0  0  0  0  0  0  0  0  0  0
  -11.7954  -25.1870    9.1136 H   0  0  0  0  0  0  0  0  0  0  0  0
  -13.1176  -27.1668    9.8568 H   0  0  0  0  0  0  0  0  0  0  0  0
  -13.8013  -27.3891   12.2447 H   0  0  0  0  0  0  0  0  0  0  0  0
  -13.1841  -25.6174   13.8870 H   0  0  0  0  0  0  0  0  0  0  0  0
  -11.8679  -23.6325   13.1483 H   0  0  0  0  0  0  0  0  0  0  0  0
  1  2  1  0
  2  3  1  0
  3  4  2  0
  4  5  1  0
  5  6  2  0
  6  7  1  0
  6  8  1  0
  8  9  2  0
  9 10  1  0
 10 11  1  0
 11 12  1  0
 11 13  1  0
 13 14  1  0
 14 15  2  0
 15 16  1  0
 16 17  1  0
 17 18  1  0
 18 19  2  0
 19 20  1  0
 20 21  2  0
 21 22  1  0
 22 23  2  0
 23 24  1  0
 24 25  2  0
 19 26  1  0
 26 27  1  0
 27 28  2  0
 27 29  1  0
  9  3  1  0
 29 14  1  0
 26 16  2  0
 25 20  1  0
  1 30  1  0
  1 31  1  0
  1 32  1  0
  4 33  1  0
  5 34  1  0
  8 35  1  0
 10 36  1  0
 10 37  1  0
 11 38  1  1
 12 39  1  0
 12 40  1  0
 12 41  1  0
 13 42  1  0
 13 43  1  0
 18 44  1  0
 21 45  1  0
 22 46  1  0
 23 47  1  0
 24 48  1  0
 25 49  1  0
M  CHG  2  11   1  29  -1
M  END
>  <meeko>  (7) 
{"is_sidechain": [false], "free_energy": -6.737, "intermolecular_energy": -9.6, "internal_energy": -0.826}

$$$$
REF_ZINC12986242__Ngeom2__M_PUB_ALL__e8__s20260927
     RDKit          3D

 49 52  0  0  0  0  0  0  0  0999 V2000
    2.8240  -14.9060    2.2100 C   0  0  0  0  0  0  0  0  0  0  0  0
    4.0270  -15.1600    1.4840 O   0  0  0  0  0  0  0  0  0  0  0  0
    4.6430  -14.0970    0.8810 C   0  0  0  0  0  0  0  0  0  0  0  0
    4.7860  -12.8290    1.4480 C   0  0  0  0  0  0  0  0  0  0  0  0
    5.4280  -11.8120    0.7370 C   0  0  0  0  0  0  0  0  0  0  0  0
    5.9230  -12.0620   -0.5400 C   0  0  0  0  0  0  0  0  0  0  0  0
    6.7120  -10.8090   -1.4140 Cl  0  0  0  0  0  0  0  0  0  0  0  0
    5.7860  -13.3230   -1.1180 C   0  0  0  0  0  0  0  0  0  0  0  0
    5.1460  -14.3540   -0.4100 C   0  0  0  0  0  0  0  0  0  0  0  0
    5.0070  -15.7270   -1.0250 C   0  0  0  0  0  0  0  0  0  0  0  0
    3.6020  -16.2150   -1.0820 N   0  0  2  0  0  0  0  0  0  0  0  0
    3.4300  -17.6950   -1.1050 C   0  0  0  0  0  0  0  0  0  0  0  0
    2.7470  -15.5210   -2.1210 C   0  0  0  0  0  0  0  0  0  0  0  0
    1.5720  -14.8670   -1.4170 C   0  0  0  0  0  0  0  0  0  0  0  0
    0.5230  -15.5670   -1.1190 N   0  0  0  0  0  0  0  0  0  0  0  0
   -0.4130  -14.8550   -0.4470 C   0  0  0  0  0  0  0  0  0  0  0  0
   -1.9120  -15.5190   -0.0030 S   0  0  0  0  0  0  0  0  0  0  0  0
   -2.3900  -14.0590    0.7490 C   0  0  0  0  0  0  0  0  0  0  0  0
   -1.4190  -13.0750    0.6780 C   0  0  0  0  0  0  0  0  0  0  0  0
   -1.6710  -11.7570    1.2530 C   0  0  0  0  0  0  0  0  0  0  0  0
   -1.3250  -11.4880    2.5820 C   0  0  0  0  0  0  0  0  0  0  0  0
   -1.5390  -10.2180    3.1270 C   0  0  0  0  0  0  0  0  0  0  0  0
   -2.0990   -9.2090    2.3460 C   0  0  0  0  0  0  0  0  0  0  0  0
   -2.4500   -9.4670    1.0220 C   0  0  0  0  0  0  0  0  0  0  0  0
   -2.2380  -10.7360    0.4770 C   0  0  0  0  0  0  0  0  0  0  0  0
   -0.2630  -13.5500   -0.0370 C   0  0  0  0  0  0  0  0  0  0  0  0
    1.0010  -12.8930   -0.3580 C   0  0  0  0  0  0  0  0  0  0  0  0
    1.2870  -11.7840    0.0770 O   0  0  0  0  0  0  0  0  0  0  0  0
    1.8320  -13.5790   -1.1530 N   0  0  0  0  0  0  0  0  0  0  0  0
    3.0310  -14.9497    3.2895 H   0  0  0  0  0  0  0  0  0  0  0  0
    2.4427  -13.9075    1.9499 H   0  0  0  0  0  0  0  0  0  0  0  0
    2.0716  -15.6651    1.9499 H   0  0  0  0  0  0  0  0  0  0  0  0
    4.3926  -12.6305    2.4559 H   0  0  0  0  0  0  0  0  0  0  0  0
    5.5423  -10.8143    1.1859 H   0  0  0  0  0  0  0  0  0  0  0  0
    6.1789  -13.5108   -2.1281 H   0  0  0  0  0  0  0  0  0  0  0  0
    5.4044  -15.6907   -2.0501 H   0  0  0  0  0  0  0  0  0  0  0  0
    5.5653  -16.4254   -0.3843 H   0  0  0  0  0  0  0  0  0  0  0  0
    3.1450  -15.8790   -0.2090 H   0  0  0  0  0  0  0  0  0  0  0  0
    3.3858  -18.0751   -0.0737 H   0  0  0  0  0  0  0  0  0  0  0  0
    2.4965  -17.9475   -1.6291 H   0  0  0  0  0  0  0  0  0  0  0  0
    4.2807  -18.1549   -1.6291 H   0  0  0  0  0  0  0  0  0  0  0  0
    3.3420  -14.7551   -2.6401 H   0  0  0  0  0  0  0  0  0  0  0  0
    2.3854  -16.2504   -2.8607 H   0  0  0  0  0  0  0  0  0  0  0  0
   -3.3655  -13.9171    1.2372 H   0  0  0  0  0  0  0  0  0  0  0  0
   -0.8817  -12.2809    3.2022 H   0  0  0  0  0  0  0  0  0  0  0  0
   -1.2651  -10.0154    4.1729 H   0  0  0  0  0  0  0  0  0  0  0  0
   -2.2640   -8.2093    2.7742 H   0  0  0  0  0  0  0  0  0  0  0  0
   -2.8941   -8.6713    0.4059 H   0  0  0  0  0  0  0  0  0  0  0  0
   -2.5178  -10.9354   -0.5680 H   0  0  0  0  0  0  0  0  0  0  0  0
  1  2  1  0
  2  3  1  0
  3  4  2  0
  4  5  1  0
  5  6  2  0
  6  7  1  0
  6  8  1  0
  8  9  2  0
  9 10  1  0
 10 11  1  0
 11 12  1  0
 11 13  1  0
 13 14  1  0
 14 15  2  0
 15 16  1  0
 16 17  1  0
 17 18  1  0
 18 19  2  0
 19 20  1  0
 20 21  2  0
 21 22  1  0
 22 23  2  0
 23 24  1  0
 24 25  2  0
 19 26  1  0
 26 27  1  0
 27 28  2  0
 27 29  1  0
  9  3  1  0
 29 14  1  0
 26 16  2  0
 25 20  1  0
  1 30  1  0
  1 31  1  0
  1 32  1  0
  4 33  1  0
  5 34  1  0
  8 35  1  0
 10 36  1  0
 10 37  1  0
 11 38  1  1
 12 39  1  0
 12 40  1  0
 12 41  1  0
 13 42  1  0
 13 43  1  0
 18 44  1  0
 21 45  1  0
 22 46  1  0
 23 47  1  0
 24 48  1  0
 25 49  1  0
M  CHG  2  11   1  29  -1
M  END
>  <meeko>  (8) 
{"is_sidechain": [false], "free_energy": -6.68, "intermolecular_energy": -8.522, "internal_energy": -1.828}

$$$$
REF_ZINC12986242__Ngeom2__M_PUB_ALL__e8__s20260927
     RDKit          3D

 49 52  0  0  0  0  0  0  0  0999 V2000
   -5.0640  -13.0060    1.1530 C   0  0  0  0  0  0  0  0  0  0  0  0
   -3.7940  -13.0170    1.8030 O   0  0  0  0  0  0  0  0  0  0  0  0
   -2.7910  -12.2660    1.2540 C   0  0  0  0  0  0  0  0  0  0  0  0
   -2.9120  -10.9310    0.8640 C   0  0  0  0  0  0  0  0  0  0  0  0
   -1.8200  -10.2620    0.3040 C   0  0  0  0  0  0  0  0  0  0  0  0
   -0.6100  -10.9280    0.1320 C   0  0  0  0  0  0  0  0  0  0  0  0
    0.7320  -10.1030   -0.5580 Cl  0  0  0  0  0  0  0  0  0  0  0  0
   -0.4760  -12.2620    0.5160 C   0  0  0  0  0  0  0  0  0  0  0  0
   -1.5650  -12.9420    1.0830 C   0  0  0  0  0  0  0  0  0  0  0  0
   -1.4220  -14.3830    1.5140 C   0  0  0  0  0  0  0  0  0  0  0  0
   -1.4510  -15.3500    0.3830 N   0  0  2  0  0  0  0  0  0  0  0  0
   -2.7250  -16.1020    0.2050 C   0  0  0  0  0  0  0  0  0  0  0  0
   -0.2370  -16.2520    0.3080 C   0  0  0  0  0  0  0  0  0  0  0  0
    0.8780  -15.4990   -0.3960 C   0  0  0  0  0  0  0  0  0  0  0  0
    2.0390  -15.3870    0.1670 N   0  0  0  0  0  0  0  0  0  0  0  0
    2.9400  -14.7370   -0.6080 C   0  0  0  0  0  0  0  0  0  0  0  0
    4.5160  -14.3940   -0.0730 S   0  0  0  0  0  0  0  0  0  0  0  0
    4.9100  -13.6500   -1.5620 C   0  0  0  0  0  0  0  0  0  0  0  0
    3.8620  -13.6710   -2.4670 C   0  0  0  0  0  0  0  0  0  0  0  0
    4.0230  -13.0600   -3.7840 C   0  0  0  0  0  0  0  0  0  0  0  0
    4.5890  -13.7880   -4.8360 C   0  0  0  0  0  0  0  0  0  0  0  0
    4.7180  -13.2150   -6.1050 C   0  0  0  0  0  0  0  0  0  0  0  0
    4.2780  -11.9130   -6.3310 C   0  0  0  0  0  0  0  0  0  0  0  0
    3.7150  -11.1770   -5.2890 C   0  0  0  0  0  0  0  0  0  0  0  0
    3.5880  -11.7480   -4.0200 C   0  0  0  0  0  0  0  0  0  0  0  0
    2.7040  -14.3030   -1.8920 C   0  0  0  0  0  0  0  0  0  0  0  0
    1.3800  -14.5650   -2.4500 C   0  0  0  0  0  0  0  0  0  0  0  0
    1.1140  -14.3430   -3.6250 O   0  0  0  0  0  0  0  0  0  0  0  0
    0.4770  -15.0700   -1.6010 N   0  0  0  0  0  0  0  0  0  0  0  0
   -5.8629  -12.9991    1.9092 H   0  0  0  0  0  0  0  0  0  0  0  0
   -5.1464  -12.1071    0.5243 H   0  0  0  0  0  0  0  0  0  0  0  0
   -5.1619  -13.9033    0.5243 H   0  0  0  0  0  0  0  0  0  0  0  0
   -3.8686  -10.4046    0.9977 H   0  0  0  0  0  0  0  0  0  0  0  0
   -1.9169   -9.2095   -0.0007 H   0  0  0  0  0  0  0  0  0  0  0  0
    0.4833  -12.7813    0.3745 H   0  0  0  0  0  0  0  0  0  0  0  0
   -0.4634  -14.4944    2.0420 H   0  0  0  0  0  0  0  0  0  0  0  0
   -2.2839  -14.6138    2.1573 H   0  0  0  0  0  0  0  0  0  0  0  0
   -1.3190  -14.7850   -0.4820 H   0  0  0  0  0  0  0  0  0  0  0  0
   -3.1452  -16.3500    1.1909 H   0  0  0  0  0  0  0  0  0  0  0  0
   -3.4417  -15.4821   -0.3536 H   0  0  0  0  0  0  0  0  0  0  0  0
   -2.5286  -17.0290   -0.3536 H   0  0  0  0  0  0  0  0  0  0  0  0
    0.0843  -16.5274    1.3233 H   0  0  0  0  0  0  0  0  0  0  0  0
   -0.4821  -17.1695   -0.2471 H   0  0  0  0  0  0  0  0  0  0  0  0
    5.8914  -13.2025   -1.7777 H   0  0  0  0  0  0  0  0  0  0  0  0
    4.9348  -14.8179   -4.6638 H   0  0  0  0  0  0  0  0  0  0  0  0
    5.1675  -13.7932   -6.9257 H   0  0  0  0  0  0  0  0  0  0  0  0
    4.3746  -11.4654   -7.3312 H   0  0  0  0  0  0  0  0  0  0  0  0
    3.3710  -10.1473   -5.4659 H   0  0  0  0  0  0  0  0  0  0  0  0
    3.1437  -11.1642   -3.2004 H   0  0  0  0  0  0  0  0  0  0  0  0
  1  2  1  0
  2  3  1  0
  3  4  2  0
  4  5  1  0
  5  6  2  0
  6  7  1  0
  6  8  1  0
  8  9  2  0
  9 10  1  0
 10 11  1  0
 11 12  1  0
 11 13  1  0
 13 14  1  0
 14 15  2  0
 15 16  1  0
 16 17  1  0
 17 18  1  0
 18 19  2  0
 19 20  1  0
 20 21  2  0
 21 22  1  0
 22 23  2  0
 23 24  1  0
 24 25  2  0
 19 26  1  0
 26 27  1  0
 27 28  2  0
 27 29  1  0
  9  3  1  0
 29 14  1  0
 26 16  2  0
 25 20  1  0
  1 30  1  0
  1 31  1  0
  1 32  1  0
  4 33  1  0
  5 34  1  0
  8 35  1  0
 10 36  1  0
 10 37  1  0
 11 38  1  6
 12 39  1  0
 12 40  1  0
 12 41  1  0
 13 42  1  0
 13 43  1  0
 18 44  1  0
 21 45  1  0
 22 46  1  0
 23 47  1  0
 24 48  1  0
 25 49  1  0
M  CHG  2  11   1  29  -1
M  END
>  <meeko>  (9) 
{"is_sidechain": [false], "free_energy": -6.597, "intermolecular_energy": -8.809, "internal_energy": -1.429}

$$$$
