REF_ZINC58438263__Ngeom1__M_PUB_ALL__e8__s20260927
     RDKit          3D

 62 65  0  0  0  0  0  0  0  0999 V2000
   -3.9730  -10.5830   -0.4890 C   0  0  0  0  0  0  0  0  0  0  0  0
   -3.7810  -11.9580    0.0770 C   0  0  0  0  0  0  0  0  0  0  0  0
   -4.3460  -12.3030    1.3080 C   0  0  0  0  0  0  0  0  0  0  0  0
   -4.1970  -13.5940    1.8120 C   0  0  0  0  0  0  0  0  0  0  0  0
   -3.4890  -14.5580    1.0910 C   0  0  0  0  0  0  0  0  0  0  0  0
   -2.9280  -14.2320   -0.1440 C   0  0  0  0  0  0  0  0  0  0  0  0
   -2.2150  -15.0730   -0.9520 O   0  0  0  0  0  0  0  0  0  0  0  0
   -1.7400  -16.2860   -0.3690 C   0  0  0  0  0  0  0  0  0  0  0  0
   -0.4530  -16.7070   -1.0920 C   0  0  0  0  0  0  0  0  0  0  0  0
    0.7760  -16.6320   -0.2250 N   0  0  1  0  0  0  0  0  0  0  0  0
    1.7120  -17.7920   -0.3220 C   0  0  0  0  0  0  0  0  0  0  0  0
    1.4740  -15.3160   -0.2180 C   0  0  0  0  0  0  0  0  0  0  0  0
    0.8040  -14.4890    0.7610 N   0  0  0  0  0  0  0  0  0  0  0  0
    0.3520  -15.0880    1.9200 N   0  0  0  0  0  0  0  0  0  0  0  0
   -0.2880  -14.3590    2.7880 C   0  0  0  0  0  0  0  0  0  0  0  0
   -0.7490  -15.0390    4.0180 C   0  0  0  0  0  0  0  0  0  0  0  0
   -2.0260  -15.6140    4.0030 C   0  0  0  0  0  0  0  0  0  0  0  0
   -2.5050  -16.2780    5.1360 C   0  0  0  0  0  0  0  0  0  0  0  0
   -3.8890  -16.8610    5.1520 C   0  0  0  0  0  0  0  0  0  0  0  0
   -1.7000  -16.3370    6.2790 C   0  0  0  0  0  0  0  0  0  0  0  0
   -0.4210  -15.7680    6.2850 C   0  0  0  0  0  0  0  0  0  0  0  0
    0.0780  -15.1170    5.1510 C   0  0  0  0  0  0  0  0  0  0  0  0
    1.4490  -14.5070    5.1820 C   0  0  0  0  0  0  0  0  0  0  0  0
   -0.5710  -12.9190    2.5960 C   0  0  0  0  0  0  0  0  0  0  0  0
   -1.2520  -12.1410    3.5400 C   0  0  0  0  0  0  0  0  0  0  0  0
   -1.4850  -10.7860    3.2890 C   0  0  0  0  0  0  0  0  0  0  0  0
   -1.0410  -10.2050    2.1020 C   0  0  0  0  0  0  0  0  0  0  0  0
   -0.3620  -10.9780    1.1600 C   0  0  0  0  0  0  0  0  0  0  0  0
   -0.1290  -12.3350    1.4130 C   0  0  0  0  0  0  0  0  0  0  0  0
    0.5870  -13.1590    0.4250 C   0  0  0  0  0  0  0  0  0  0  0  0
    0.9690  -12.6840   -0.6390 O   0  0  0  0  0  0  0  0  0  0  0  0
   -3.0840  -12.9360   -0.6480 C   0  0  0  0  0  0  0  0  0  0  0  0
   -4.0741   -9.8590    0.3329 H   0  0  0  0  0  0  0  0  0  0  0  0
   -3.1034  -10.3164   -1.1076 H   0  0  0  0  0  0  0  0  0  0  0  0
   -4.8824  -10.5648   -1.1076 H   0  0  0  0  0  0  0  0  0  0  0  0
   -4.9104  -11.5528    1.8813 H   0  0  0  0  0  0  0  0  0  0  0  0
   -4.6401  -13.8553    2.7843 H   0  0  0  0  0  0  0  0  0  0  0  0
   -3.3737  -15.5739    1.4967 H   0  0  0  0  0  0  0  0  0  0  0  0
   -1.5296  -16.1262    0.6988 H   0  0  0  0  0  0  0  0  0  0  0  0
   -2.5013  -17.0737   -0.4687 H   0  0  0  0  0  0  0  0  0  0  0  0
   -0.5718  -17.7443   -1.4384 H   0  0  0  0  0  0  0  0  0  0  0  0
   -0.3048  -16.0032   -1.9243 H   0  0  0  0  0  0  0  0  0  0  0  0
    0.4480  -16.6310    0.7580 H   0  0  0  0  0  0  0  0  0  0  0  0
    1.9841  -18.1292    0.6891 H   0  0  0  0  0  0  0  0  0  0  0  0
    1.2216  -18.6145   -0.8633 H   0  0  0  0  0  0  0  0  0  0  0  0
    2.6196  -17.4865   -0.8633 H   0  0  0  0  0  0  0  0  0  0  0  0
    2.5301  -15.4497    0.0592 H   0  0  0  0  0  0  0  0  0  0  0  0
    1.4436  -14.8495   -1.2137 H   0  0  0  0  0  0  0  0  0  0  0  0
   -2.6513  -15.5432    3.1008 H   0  0  0  0  0  0  0  0  0  0  0  0
   -4.2167  -16.9990    6.1929 H   0  0  0  0  0  0  0  0  0  0  0  0
   -4.5806  -16.1778    4.6374 H   0  0  0  0  0  0  0  0  0  0  0  0
   -3.8833  -17.8332    4.6374 H   0  0  0  0  0  0  0  0  0  0  0  0
   -2.0767  -16.8365    7.1837 H   0  0  0  0  0  0  0  0  0  0  0  0
    0.1989  -15.8333    7.1913 H   0  0  0  0  0  0  0  0  0  0  0  0
    1.7644  -14.3667    6.2264 H   0  0  0  0  0  0  0  0  0  0  0  0
    2.1588  -15.1742    4.6711 H   0  0  0  0  0  0  0  0  0  0  0  0
    1.4286  -13.5330    4.6711 H   0  0  0  0  0  0  0  0  0  0  0  0
   -1.6032  -12.5956    4.4781 H   0  0  0  0  0  0  0  0  0  0  0  0
   -2.0208  -10.1756    4.0309 H   0  0  0  0  0  0  0  0  0  0  0  0
   -1.2259   -9.1381    1.9084 H   0  0  0  0  0  0  0  0  0  0  0  0
   -0.0110  -10.5230    0.2220 H   0  0  0  0  0  0  0  0  0  0  0  0
   -2.6536  -12.6802   -1.6275 H   0  0  0  0  0  0  0  0  0  0  0  0
  1  2  1  0
  2  3  2  0
  3  4  1  0
  4  5  2  0
  5  6  1  0
  6  7  1  0
  7  8  1  0
  8  9  1  0
  9 10  1  0
 10 11  1  0
 10 12  1  0
 12 13  1  0
 13 14  1  0
 14 15  2  0
 15 16  1  0
 16 17  2  0
 17 18  1  0
 18 19  1  0
 18 20  2  0
 20 21  1  0
 21 22  2  0
 22 23  1  0
 15 24  1  0
 24 25  2  0
 25 26  1  0
 26 27  2  0
 27 28  1  0
 28 29  2  0
 29 30  1  0
 30 31  2  0
  6 32  2  0
 32  2  1  0
 30 13  1  0
 22 16  1  0
 29 24  1  0
  1 33  1  0
  1 34  1  0
  1 35  1  0
  3 36  1  0
  4 37  1  0
  5 38  1  0
  8 39  1  0
  8 40  1  0
  9 41  1  0
  9 42  1  0
 10 43  1  1
 11 44  1  0
 11 45  1  0
 11 46  1  0
 12 47  1  0
 12 48  1  0
 17 49  1  0
 19 50  1  0
 19 51  1  0
 19 52  1  0
 20 53  1  0
 21 54  1  0
 23 55  1  0
 23 56  1  0
 23 57  1  0
 25 58  1  0
 26 59  1  0
 27 60  1  0
 28 61  1  0
 32 62  1  0
M  CHG  1  10   1
M  END
>  <meeko>  (1) 
{"is_sidechain": [false], "free_energy": -6.852, "intermolecular_energy": -9.655, "internal_energy": -3.869}

$$$$
REF_ZINC58438263__Ngeom1__M_PUB_ALL__e8__s20260927
     RDKit          3D

 62 65  0  0  0  0  0  0  0  0999 V2000
    5.2880  -14.9450   -3.2680 C   0  0  0  0  0  0  0  0  0  0  0  0
    3.8110  -14.7320   -3.4210 C   0  0  0  0  0  0  0  0  0  0  0  0
    3.3020  -14.0900   -4.5530 C   0  0  0  0  0  0  0  0  0  0  0  0
    1.9260  -13.9280   -4.7090 C   0  0  0  0  0  0  0  0  0  0  0  0
    1.0430  -14.4110   -3.7400 C   0  0  0  0  0  0  0  0  0  0  0  0
    1.5360  -15.0610   -2.6100 C   0  0  0  0  0  0  0  0  0  0  0  0
    0.7890  -15.5810   -1.5900 O   0  0  0  0  0  0  0  0  0  0  0  0
    1.3630  -16.6540   -0.8440 C   0  0  0  0  0  0  0  0  0  0  0  0
    0.2870  -17.2420    0.0780 C   0  0  0  0  0  0  0  0  0  0  0  0
   -0.4420  -16.2050    0.8900 N   0  0  1  0  0  0  0  0  0  0  0  0
   -1.8100  -16.5870    1.3530 C   0  0  0  0  0  0  0  0  0  0  0  0
    0.3660  -15.5330    1.9450 C   0  0  0  0  0  0  0  0  0  0  0  0
    0.4420  -14.1340    1.5890 N   0  0  0  0  0  0  0  0  0  0  0  0
    1.4340  -13.7380    0.7140 N   0  0  0  0  0  0  0  0  0  0  0  0
    1.5340  -12.4740    0.4200 C   0  0  0  0  0  0  0  0  0  0  0  0
    2.6060  -12.0930   -0.5270 C   0  0  0  0  0  0  0  0  0  0  0  0
    2.2250  -11.4810   -1.7280 C   0  0  0  0  0  0  0  0  0  0  0  0
    3.1990  -11.0920   -2.6520 C   0  0  0  0  0  0  0  0  0  0  0  0
    2.8050  -10.4760   -3.9630 C   0  0  0  0  0  0  0  0  0  0  0  0
    4.5450  -11.3430   -2.3650 C   0  0  0  0  0  0  0  0  0  0  0  0
    4.9200  -11.9460   -1.1590 C   0  0  0  0  0  0  0  0  0  0  0  0
    3.9560  -12.3230   -0.2170 C   0  0  0  0  0  0  0  0  0  0  0  0
    4.3810  -12.9760    1.0670 C   0  0  0  0  0  0  0  0  0  0  0  0
    0.6490  -11.4290    0.9830 C   0  0  0  0  0  0  0  0  0  0  0  0
    0.7600  -10.0730    0.6530 C   0  0  0  0  0  0  0  0  0  0  0  0
   -0.1110   -9.1430    1.2270 C   0  0  0  0  0  0  0  0  0  0  0  0
   -1.0900   -9.5610    2.1270 C   0  0  0  0  0  0  0  0  0  0  0  0
   -1.2020  -10.9110    2.4580 C   0  0  0  0  0  0  0  0  0  0  0  0
   -0.3300  -11.8420    1.8820 C   0  0  0  0  0  0  0  0  0  0  0  0
   -0.4400  -13.2690    2.2230 C   0  0  0  0  0  0  0  0  0  0  0  0
   -1.2750  -13.6650    3.0300 O   0  0  0  0  0  0  0  0  0  0  0  0
    2.9170  -15.2250   -2.4600 C   0  0  0  0  0  0  0  0  0  0  0  0
    5.5443  -14.9820   -2.1989 H   0  0  0  0  0  0  0  0  0  0  0  0
    5.5732  -15.8936   -3.7464 H   0  0  0  0  0  0  0  0  0  0  0  0
    5.8296  -14.1157   -3.7464 H   0  0  0  0  0  0  0  0  0  0  0  0
    3.9893  -13.7111   -5.3237 H   0  0  0  0  0  0  0  0  0  0  0  0
    1.5333  -13.4168   -5.6003 H   0  0  0  0  0  0  0  0  0  0  0  0
   -0.0413  -14.2783   -3.8689 H   0  0  0  0  0  0  0  0  0  0  0  0
    1.7256  -17.4313   -1.5327 H   0  0  0  0  0  0  0  0  0  0  0  0
    2.2087  -16.2844   -0.2455 H   0  0  0  0  0  0  0  0  0  0  0  0
   -0.4471  -17.7779   -0.5416 H   0  0  0  0  0  0  0  0  0  0  0  0
    0.7991  -17.9073    0.7887 H   0  0  0  0  0  0  0  0  0  0  0  0
   -0.5860  -15.3880    0.2700 H   0  0  0  0  0  0  0  0  0  0  0  0
   -1.8362  -16.5943    2.4527 H   0  0  0  0  0  0  0  0  0  0  0  0
   -2.5421  -15.8589    0.9736 H   0  0  0  0  0  0  0  0  0  0  0  0
   -2.0590  -17.5890    0.9736 H   0  0  0  0  0  0  0  0  0  0  0  0
   -0.1206  -15.6480    2.9248 H   0  0  0  0  0  0  0  0  0  0  0  0
    1.3702  -15.9766    2.0140 H   0  0  0  0  0  0  0  0  0  0  0  0
    1.1605  -11.3067   -1.9437 H   0  0  0  0  0  0  0  0  0  0  0  0
    2.2207   -9.5625   -3.7780 H   0  0  0  0  0  0  0  0  0  0  0  0
    3.7094  -10.2231   -4.5358 H   0  0  0  0  0  0  0  0  0  0  0  0
    2.1962  -11.1910   -4.5358 H   0  0  0  0  0  0  0  0  0  0  0  0
    5.3179  -11.0631   -3.0960 H   0  0  0  0  0  0  0  0  0  0  0  0
    5.9847  -12.1257   -0.9491 H   0  0  0  0  0  0  0  0  0  0  0  0
    4.0011  -12.3923    1.9185 H   0  0  0  0  0  0  0  0  0  0  0  0
    3.9738  -13.9969    1.1115 H   0  0  0  0  0  0  0  0  0  0  0  0
    5.4793  -13.0170    1.1115 H   0  0  0  0  0  0  0  0  0  0  0  0
    1.5315   -9.7401   -0.0569 H   0  0  0  0  0  0  0  0  0  0  0  0
   -0.0237   -8.0776    0.9677 H   0  0  0  0  0  0  0  0  0  0  0  0
   -1.7742   -8.8260    2.5761 H   0  0  0  0  0  0  0  0  0  0  0  0
   -1.9728  -11.2430    3.1691 H   0  0  0  0  0  0  0  0  0  0  0  0
    3.3075  -15.7486   -1.5749 H   0  0  0  0  0  0  0  0  0  0  0  0
  1  2  1  0
  2  3  2  0
  3  4  1  0
  4  5  2  0
  5  6  1  0
  6  7  1  0
  7  8  1  0
  8  9  1  0
  9 10  1  0
 10 11  1  0
 10 12  1  0
 12 13  1  0
 13 14  1  0
 14 15  2  0
 15 16  1  0
 16 17  2  0
 17 18  1  0
 18 19  1  0
 18 20  2  0
 20 21  1  0
 21 22  2  0
 22 23  1  0
 15 24  1  0
 24 25  2  0
 25 26  1  0
 26 27  2  0
 27 28  1  0
 28 29  2  0
 29 30  1  0
 30 31  2  0
  6 32  2  0
 32  2  1  0
 30 13  1  0
 22 16  1  0
 29 24  1  0
  1 33  1  0
  1 34  1  0
  1 35  1  0
  3 36  1  0
  4 37  1  0
  5 38  1  0
  8 39  1  0
  8 40  1  0
  9 41  1  0
  9 42  1  0
 10 43  1  6
 11 44  1  0
 11 45  1  0
 11 46  1  0
 12 47  1  0
 12 48  1  0
 17 49  1  0
 19 50  1  0
 19 51  1  0
 19 52  1  0
 20 53  1  0
 21 54  1  0
 23 55  1  0
 23 56  1  0
 23 57  1  0
 25 58  1  0
 26 59  1  0
 27 60  1  0
 28 61  1  0
 32 62  1  0
M  CHG  1  10   1
M  END
>  <meeko>  (2) 
{"is_sidechain": [false], "free_energy": -6.687, "intermolecular_energy": -10.329, "internal_energy": -2.963}

$$$$
REF_ZINC58438263__Ngeom1__M_PUB_ALL__e8__s20260927
     RDKit          3D

 62 65  0  0  0  0  0  0  0  0999 V2000
   -4.4800  -13.1390    2.4640 C   0  0  0  0  0  0  0  0  0  0  0  0
   -3.6330  -14.0100    1.5850 C   0  0  0  0  0  0  0  0  0  0  0  0
   -3.0970  -13.5090    0.3960 C   0  0  0  0  0  0  0  0  0  0  0  0
   -2.2800  -14.3100   -0.3990 C   0  0  0  0  0  0  0  0  0  0  0  0
   -1.9810  -15.6190   -0.0130 C   0  0  0  0  0  0  0  0  0  0  0  0
   -2.4990  -16.1300    1.1770 C   0  0  0  0  0  0  0  0  0  0  0  0
   -2.2880  -17.3860    1.6740 O   0  0  0  0  0  0  0  0  0  0  0  0
   -1.7500  -17.4820    2.9920 C   0  0  0  0  0  0  0  0  0  0  0  0
   -0.2470  -17.1810    2.9320 C   0  0  0  0  0  0  0  0  0  0  0  0
    0.2460  -16.3500    4.0870 N   0  0  1  0  0  0  0  0  0  0  0  0
    0.3190  -17.0470    5.4060 C   0  0  0  0  0  0  0  0  0  0  0  0
    1.4430  -15.5080    3.8040 C   0  0  0  0  0  0  0  0  0  0  0  0
    1.0060  -14.4320    2.9420 N   0  0  0  0  0  0  0  0  0  0  0  0
    1.5970  -14.3110    1.7000 N   0  0  0  0  0  0  0  0  0  0  0  0
    1.2380  -13.3210    0.9350 C   0  0  0  0  0  0  0  0  0  0  0  0
    1.8910  -13.2330   -0.3900 C   0  0  0  0  0  0  0  0  0  0  0  0
    1.2250  -13.8020   -1.4820 C   0  0  0  0  0  0  0  0  0  0  0  0
    1.7940  -13.7360   -2.7570 C   0  0  0  0  0  0  0  0  0  0  0  0
    1.1160  -14.3810   -3.9310 C   0  0  0  0  0  0  0  0  0  0  0  0
    3.0380  -13.1150   -2.9130 C   0  0  0  0  0  0  0  0  0  0  0  0
    3.6940  -12.5390   -1.8200 C   0  0  0  0  0  0  0  0  0  0  0  0
    3.1270  -12.5820   -0.5410 C   0  0  0  0  0  0  0  0  0  0  0  0
    3.8520  -11.9650    0.6200 C   0  0  0  0  0  0  0  0  0  0  0  0
    0.2350  -12.3060    1.3270 C   0  0  0  0  0  0  0  0  0  0  0  0
   -0.1510  -11.2500    0.4920 C   0  0  0  0  0  0  0  0  0  0  0  0
   -1.1040  -10.3270    0.9320 C   0  0  0  0  0  0  0  0  0  0  0  0
   -1.6720  -10.4540    2.1990 C   0  0  0  0  0  0  0  0  0  0  0  0
   -1.2890  -11.5040    3.0320 C   0  0  0  0  0  0  0  0  0  0  0  0
   -0.3350  -12.4290    2.5910 C   0  0  0  0  0  0  0  0  0  0  0  0
    0.0760  -13.5410    3.4620 C   0  0  0  0  0  0  0  0  0  0  0  0
   -0.3870  -13.6660    4.5910 O   0  0  0  0  0  0  0  0  0  0  0  0
   -3.3160  -15.3200    1.9730 C   0  0  0  0  0  0  0  0  0  0  0  0
   -4.2633  -13.3619    3.5192 H   0  0  0  0  0  0  0  0  0  0  0  0
   -4.2551  -12.0820    2.2588 H   0  0  0  0  0  0  0  0  0  0  0  0
   -5.5429  -13.3343    2.2588 H   0  0  0  0  0  0  0  0  0  0  0  0
   -3.3210  -12.4776    0.0862 H   0  0  0  0  0  0  0  0  0  0  0  0
   -1.8677  -13.9092   -1.3367 H   0  0  0  0  0  0  0  0  0  0  0  0
   -1.3374  -16.2463   -0.6472 H   0  0  0  0  0  0  0  0  0  0  0  0
   -2.2476  -16.7535    3.6490 H   0  0  0  0  0  0  0  0  0  0  0  0
   -1.9143  -18.4937    3.3915 H   0  0  0  0  0  0  0  0  0  0  0  0
    0.2995  -18.1356    2.9317 H   0  0  0  0  0  0  0  0  0  0  0  0
   -0.0701  -16.5986    2.0158 H   0  0  0  0  0  0  0  0  0  0  0  0
   -0.4420  -15.5880    4.2210 H   0  0  0  0  0  0  0  0  0  0  0  0
    0.2415  -16.3072    6.2164 H   0  0  0  0  0  0  0  0  0  0  0  0
   -0.5086  -17.7671    5.4865 H   0  0  0  0  0  0  0  0  0  0  0  0
    1.2779  -17.5800    5.4865 H   0  0  0  0  0  0  0  0  0  0  0  0
    1.8489  -15.1004    4.7416 H   0  0  0  0  0  0  0  0  0  0  0  0
    2.2359  -16.1000    3.3234 H   0  0  0  0  0  0  0  0  0  0  0  0
    0.2552  -14.3004   -1.3369 H   0  0  0  0  0  0  0  0  0  0  0  0
    0.3628  -15.0975   -3.5713 H   0  0  0  0  0  0  0  0  0  0  0  0
    0.6251  -13.6083   -4.5409 H   0  0  0  0  0  0  0  0  0  0  0  0
    1.8632  -14.9098   -4.5409 H   0  0  0  0  0  0  0  0  0  0  0  0
    3.5061  -13.0793   -3.9078 H   0  0  0  0  0  0  0  0  0  0  0  0
    4.6666  -12.0466   -1.9673 H   0  0  0  0  0  0  0  0  0  0  0  0
    3.4183  -12.3341    1.5611 H   0  0  0  0  0  0  0  0  0  0  0  0
    4.9165  -12.2384    0.5747 H   0  0  0  0  0  0  0  0  0  0  0  0
    3.7523  -10.8705    0.5747 H   0  0  0  0  0  0  0  0  0  0  0  0
    0.2950  -11.1471   -0.5083 H   0  0  0  0  0  0  0  0  0  0  0  0
   -1.4070   -9.4974    0.2763 H   0  0  0  0  0  0  0  0  0  0  0  0
   -2.4221   -9.7258    2.5411 H   0  0  0  0  0  0  0  0  0  0  0  0
   -1.7348  -11.6055    4.0325 H   0  0  0  0  0  0  0  0  0  0  0  0
   -3.7160  -15.7167    2.9178 H   0  0  0  0  0  0  0  0  0  0  0  0
  1  2  1  0
  2  3  2  0
  3  4  1  0
  4  5  2  0
  5  6  1  0
  6  7  1  0
  7  8  1  0
  8  9  1  0
  9 10  1  0
 10 11  1  0
 10 12  1  0
 12 13  1  0
 13 14  1  0
 14 15  2  0
 15 16  1  0
 16 17  2  0
 17 18  1  0
 18 19  1  0
 18 20  2  0
 20 21  1  0
 21 22  2  0
 22 23  1  0
 15 24  1  0
 24 25  2  0
 25 26  1  0
 26 27  2  0
 27 28  1  0
 28 29  2  0
 29 30  1  0
 30 31  2  0
  6 32  2  0
 32  2  1  0
 30 13  1  0
 22 16  1  0
 29 24  1  0
  1 33  1  0
  1 34  1  0
  1 35  1  0
  3 36  1  0
  4 37  1  0
  5 38  1  0
  8 39  1  0
  8 40  1  0
  9 41  1  0
  9 42  1  0
 10 43  1  1
 11 44  1  0
 11 45  1  0
 11 46  1  0
 12 47  1  0
 12 48  1  0
 17 49  1  0
 19 50  1  0
 19 51  1  0
 19 52  1  0
 20 53  1  0
 21 54  1  0
 23 55  1  0
 23 56  1  0
 23 57  1  0
 25 58  1  0
 26 59  1  0
 27 60  1  0
 28 61  1  0
 32 62  1  0
M  CHG  1  10   1
M  END
>  <meeko>  (3) 
{"is_sidechain": [false], "free_energy": -6.664, "intermolecular_energy": -9.553, "internal_energy": -3.708}

$$$$
REF_ZINC58438263__Ngeom1__M_PUB_ALL__e8__s20260927
     RDKit          3D

 62 65  0  0  0  0  0  0  0  0999 V2000
    1.8190  -18.1560    0.7840 C   0  0  0  0  0  0  0  0  0  0  0  0
    1.1520  -17.1190   -0.0710 C   0  0  0  0  0  0  0  0  0  0  0  0
   -0.1710  -16.7450    0.1750 C   0  0  0  0  0  0  0  0  0  0  0  0
   -0.7760  -15.7530   -0.5970 C   0  0  0  0  0  0  0  0  0  0  0  0
   -0.0630  -15.1190   -1.6180 C   0  0  0  0  0  0  0  0  0  0  0  0
    1.2620  -15.4750   -1.8680 C   0  0  0  0  0  0  0  0  0  0  0  0
    2.0730  -14.9380   -2.8290 O   0  0  0  0  0  0  0  0  0  0  0  0
    1.4580  -14.0900   -3.7980 C   0  0  0  0  0  0  0  0  0  0  0  0
    2.2640  -12.7880   -3.8930 C   0  0  0  0  0  0  0  0  0  0  0  0
    3.4940  -12.7770   -3.0240 N   0  0  1  0  0  0  0  0  0  0  0  0
    4.7980  -12.8980   -3.7420 C   0  0  0  0  0  0  0  0  0  0  0  0
    3.5100  -11.7440   -1.9510 C   0  0  0  0  0  0  0  0  0  0  0  0
    2.7130  -12.2580   -0.8600 N   0  0  0  0  0  0  0  0  0  0  0  0
    1.4530  -11.7270   -0.6670 N   0  0  0  0  0  0  0  0  0  0  0  0
    0.7450  -12.1550    0.3370 C   0  0  0  0  0  0  0  0  0  0  0  0
   -0.6020  -11.5640    0.5030 C   0  0  0  0  0  0  0  0  0  0  0  0
   -1.7060  -12.4140    0.3620 C   0  0  0  0  0  0  0  0  0  0  0  0
   -3.0000  -11.9080    0.5200 C   0  0  0  0  0  0  0  0  0  0  0  0
   -4.1960  -12.7950    0.3270 C   0  0  0  0  0  0  0  0  0  0  0  0
   -3.1660  -10.5470    0.7970 C   0  0  0  0  0  0  0  0  0  0  0  0
   -2.0590   -9.7040    0.9470 C   0  0  0  0  0  0  0  0  0  0  0  0
   -0.7580  -10.2020    0.8100 C   0  0  0  0  0  0  0  0  0  0  0  0
    0.4160   -9.2790    0.9660 C   0  0  0  0  0  0  0  0  0  0  0  0
    1.2200  -13.1760    1.2970 C   0  0  0  0  0  0  0  0  0  0  0  0
    0.4460  -13.6370    2.3690 C   0  0  0  0  0  0  0  0  0  0  0  0
    0.9630  -14.6040    3.2370 C   0  0  0  0  0  0  0  0  0  0  0  0
    2.2470  -15.1100    3.0390 C   0  0  0  0  0  0  0  0  0  0  0  0
    3.0190  -14.6520    1.9720 C   0  0  0  0  0  0  0  0  0  0  0  0
    2.5000  -13.6850    1.1030 C   0  0  0  0  0  0  0  0  0  0  0  0
    3.3070  -13.1960   -0.0260 C   0  0  0  0  0  0  0  0  0  0  0  0
    4.4490  -13.6040   -0.2130 O   0  0  0  0  0  0  0  0  0  0  0  0
    1.8650  -16.4680   -1.0870 C   0  0  0  0  0  0  0  0  0  0  0  0
    1.6623  -17.9124    1.8452 H   0  0  0  0  0  0  0  0  0  0  0  0
    1.3865  -19.1438    0.5668 H   0  0  0  0  0  0  0  0  0  0  0  0
    2.8972  -18.1721    0.5668 H   0  0  0  0  0  0  0  0  0  0  0  0
   -0.7380  -17.2345    0.9805 H   0  0  0  0  0  0  0  0  0  0  0  0
   -1.8203  -15.4682   -0.4009 H   0  0  0  0  0  0  0  0  0  0  0  0
   -0.5468  -14.3392   -2.2245 H   0  0  0  0  0  0  0  0  0  0  0  0
    1.4486  -14.5920   -4.7767 H   0  0  0  0  0  0  0  0  0  0  0  0
    0.4224  -13.8693   -3.5001 H   0  0  0  0  0  0  0  0  0  0  0  0
    2.5753  -12.6470   -4.9386 H   0  0  0  0  0  0  0  0  0  0  0  0
    1.6108  -11.9770   -3.5387 H   0  0  0  0  0  0  0  0  0  0  0  0
    3.4400  -13.6170   -2.4190 H   0  0  0  0  0  0  0  0  0  0  0  0
    5.6146  -12.9738   -3.0089 H   0  0  0  0  0  0  0  0  0  0  0  0
    4.7869  -13.7990   -4.3730 H   0  0  0  0  0  0  0  0  0  0  0  0
    4.9529  -12.0104   -4.3730 H   0  0  0  0  0  0  0  0  0  0  0  0
    4.5417  -11.5649   -1.6139 H   0  0  0  0  0  0  0  0  0  0  0  0
    3.1052  -10.7893   -2.3181 H   0  0  0  0  0  0  0  0  0  0  0  0
   -1.5555  -13.4781    0.1273 H   0  0  0  0  0  0  0  0  0  0  0  0
   -4.5951  -13.0910    1.3084 H   0  0  0  0  0  0  0  0  0  0  0  0
   -4.9696  -12.2505   -0.2344 H   0  0  0  0  0  0  0  0  0  0  0  0
   -3.8995  -13.6933   -0.2344 H   0  0  0  0  0  0  0  0  0  0  0  0
   -4.1804  -10.1337    0.8983 H   0  0  0  0  0  0  0  0  0  0  0  0
   -2.2129   -8.6389    1.1749 H   0  0  0  0  0  0  0  0  0  0  0  0
    0.6180   -9.1202    2.0356 H   0  0  0  0  0  0  0  0  0  0  0  0
    1.3001   -9.7264    0.4884 H   0  0  0  0  0  0  0  0  0  0  0  0
    0.1899   -8.3142    0.4884 H   0  0  0  0  0  0  0  0  0  0  0  0
   -0.5671  -13.2392    2.5281 H   0  0  0  0  0  0  0  0  0  0  0  0
    0.3546  -14.9666    4.0787 H   0  0  0  0  0  0  0  0  0  0  0  0
    2.6507  -15.8700    3.7241 H   0  0  0  0  0  0  0  0  0  0  0  0
    4.0325  -15.0492    1.8136 H   0  0  0  0  0  0  0  0  0  0  0  0
    2.9140  -16.7414   -1.2735 H   0  0  0  0  0  0  0  0  0  0  0  0
  1  2  1  0
  2  3  2  0
  3  4  1  0
  4  5  2  0
  5  6  1  0
  6  7  1  0
  7  8  1  0
  8  9  1  0
  9 10  1  0
 10 11  1  0
 10 12  1  0
 12 13  1  0
 13 14  1  0
 14 15  2  0
 15 16  1  0
 16 17  2  0
 17 18  1  0
 18 19  1  0
 18 20  2  0
 20 21  1  0
 21 22  2  0
 22 23  1  0
 15 24  1  0
 24 25  2  0
 25 26  1  0
 26 27  2  0
 27 28  1  0
 28 29  2  0
 29 30  1  0
 30 31  2  0
  6 32  2  0
 32  2  1  0
 30 13  1  0
 22 16  1  0
 29 24  1  0
  1 33  1  0
  1 34  1  0
  1 35  1  0
  3 36  1  0
  4 37  1  0
  5 38  1  0
  8 39  1  0
  8 40  1  0
  9 41  1  0
  9 42  1  0
 10 43  1  1
 11 44  1  0
 11 45  1  0
 11 46  1  0
 12 47  1  0
 12 48  1  0
 17 49  1  0
 19 50  1  0
 19 51  1  0
 19 52  1  0
 20 53  1  0
 21 54  1  0
 23 55  1  0
 23 56  1  0
 23 57  1  0
 25 58  1  0
 26 59  1  0
 27 60  1  0
 28 61  1  0
 32 62  1  0
M  CHG  1  10   1
M  END
>  <meeko>  (4) 
{"is_sidechain": [false], "free_energy": -6.538, "intermolecular_energy": -9.205, "internal_energy": -3.878}

$$$$
REF_ZINC58438263__Ngeom1__M_PUB_ALL__e8__s20260927
     RDKit          3D

 62 65  0  0  0  0  0  0  0  0999 V2000
   -0.2840  -10.3220   -0.1980 C   0  0  0  0  0  0  0  0  0  0  0  0
   -0.4730  -11.0290    1.1110 C   0  0  0  0  0  0  0  0  0  0  0  0
   -1.3490  -10.5180    2.0720 C   0  0  0  0  0  0  0  0  0  0  0  0
   -1.5500  -11.1990    3.2720 C   0  0  0  0  0  0  0  0  0  0  0  0
   -0.8850  -12.4020    3.5230 C   0  0  0  0  0  0  0  0  0  0  0  0
   -0.0150  -12.9300    2.5680 C   0  0  0  0  0  0  0  0  0  0  0  0
    0.6960  -14.0920    2.6820 O   0  0  0  0  0  0  0  0  0  0  0  0
    1.6590  -14.3670    1.6660 C   0  0  0  0  0  0  0  0  0  0  0  0
    1.6800  -15.8780    1.4050 C   0  0  0  0  0  0  0  0  0  0  0  0
    0.9500  -16.2820    0.1520 N   0  0  1  0  0  0  0  0  0  0  0  0
    1.8040  -16.7840   -0.9660 C   0  0  0  0  0  0  0  0  0  0  0  0
   -0.2780  -17.1000    0.3610 C   0  0  0  0  0  0  0  0  0  0  0  0
   -1.2740  -16.2240    0.9380 N   0  0  0  0  0  0  0  0  0  0  0  0
   -1.7380  -16.5120    2.2060 N   0  0  0  0  0  0  0  0  0  0  0  0
   -2.6640  -15.7520    2.7160 C   0  0  0  0  0  0  0  0  0  0  0  0
   -3.1280  -16.0920    4.0790 C   0  0  0  0  0  0  0  0  0  0  0  0
   -4.4830  -16.4060    4.2440 C   0  0  0  0  0  0  0  0  0  0  0  0
   -4.9710  -16.7450    5.5100 C   0  0  0  0  0  0  0  0  0  0  0  0
   -6.4290  -17.0400    5.7120 C   0  0  0  0  0  0  0  0  0  0  0  0
   -4.0920  -16.7440    6.5980 C   0  0  0  0  0  0  0  0  0  0  0  0
   -2.7370  -16.4390    6.4250 C   0  0  0  0  0  0  0  0  0  0  0  0
   -2.2320  -16.1160    5.1600 C   0  0  0  0  0  0  0  0  0  0  0  0
   -0.7770  -15.7840    4.9990 C   0  0  0  0  0  0  0  0  0  0  0  0
   -3.2580  -14.5980    2.0060 C   0  0  0  0  0  0  0  0  0  0  0  0
   -4.2470  -13.7810    2.5670 C   0  0  0  0  0  0  0  0  0  0  0  0
   -4.7630  -12.7080    1.8350 C   0  0  0  0  0  0  0  0  0  0  0  0
   -4.2970  -12.4480    0.5470 C   0  0  0  0  0  0  0  0  0  0  0  0
   -3.3120  -13.2610   -0.0150 C   0  0  0  0  0  0  0  0  0  0  0  0
   -2.7960  -14.3340    0.7200 C   0  0  0  0  0  0  0  0  0  0  0  0
   -1.7560  -15.1970    0.1370 C   0  0  0  0  0  0  0  0  0  0  0  0
   -1.3420  -15.0100   -1.0030 O   0  0  0  0  0  0  0  0  0  0  0  0
    0.1790  -12.2440    1.3640 C   0  0  0  0  0  0  0  0  0  0  0  0
   -0.0040   -9.2746   -0.0120 H   0  0  0  0  0  0  0  0  0  0  0  0
    0.5130  -10.8184   -0.7711 H   0  0  0  0  0  0  0  0  0  0  0  0
   -1.2224  -10.3544   -0.7711 H   0  0  0  0  0  0  0  0  0  0  0  0
   -1.8821   -9.5749    1.8812 H   0  0  0  0  0  0  0  0  0  0  0  0
   -2.2365  -10.7865    4.0260 H   0  0  0  0  0  0  0  0  0  0  0  0
   -1.0471  -12.9326    4.4728 H   0  0  0  0  0  0  0  0  0  0  0  0
    1.3850  -13.8356    0.7427 H   0  0  0  0  0  0  0  0  0  0  0  0
    2.6540  -14.0288    1.9911 H   0  0  0  0  0  0  0  0  0  0  0  0
    2.7277  -16.2014    1.3170 H   0  0  0  0  0  0  0  0  0  0  0  0
    1.1639  -16.3589    2.2490 H   0  0  0  0  0  0  0  0  0  0  0  0
    0.4960  -15.4270   -0.2180 H   0  0  0  0  0  0  0  0  0  0  0  0
    2.6828  -17.3006   -0.5527 H   0  0  0  0  0  0  0  0  0  0  0  0
    1.2239  -17.4848   -1.5843 H   0  0  0  0  0  0  0  0  0  0  0  0
    2.1342  -15.9363   -1.5843 H   0  0  0  0  0  0  0  0  0  0  0  0
   -0.6355  -17.4978   -0.6002 H   0  0  0  0  0  0  0  0  0  0  0  0
   -0.0738  -17.9540    1.0236 H   0  0  0  0  0  0  0  0  0  0  0  0
   -5.1623  -16.3860    3.3791 H   0  0  0  0  0  0  0  0  0  0  0  0
   -6.6483  -17.0844    6.7890 H   0  0  0  0  0  0  0  0  0  0  0  0
   -7.0316  -16.2456    5.2475 H   0  0  0  0  0  0  0  0  0  0  0  0
   -6.6754  -18.0062    5.2475 H   0  0  0  0  0  0  0  0  0  0  0  0
   -4.4704  -16.9859    7.6021 H   0  0  0  0  0  0  0  0  0  0  0  0
   -2.0613  -16.4533    7.2929 H   0  0  0  0  0  0  0  0  0  0  0  0
   -0.3131  -15.6782    5.9908 H   0  0  0  0  0  0  0  0  0  0  0  0
   -0.2760  -16.5909    4.4441 H   0  0  0  0  0  0  0  0  0  0  0  0
   -0.6756  -14.8396    4.4441 H   0  0  0  0  0  0  0  0  0  0  0  0
   -4.6175  -13.9834    3.5828 H   0  0  0  0  0  0  0  0  0  0  0  0
   -5.5396  -12.0663    2.2767 H   0  0  0  0  0  0  0  0  0  0  0  0
   -4.7056  -11.6025   -0.0258 H   0  0  0  0  0  0  0  0  0  0  0  0
   -2.9428  -13.0593   -1.0314 H   0  0  0  0  0  0  0  0  0  0  0  0
    0.8538  -12.6647    0.6040 H   0  0  0  0  0  0  0  0  0  0  0  0
  1  2  1  0
  2  3  2  0
  3  4  1  0
  4  5  2  0
  5  6  1  0
  6  7  1  0
  7  8  1  0
  8  9  1  0
  9 10  1  0
 10 11  1  0
 10 12  1  0
 12 13  1  0
 13 14  1  0
 14 15  2  0
 15 16  1  0
 16 17  2  0
 17 18  1  0
 18 19  1  0
 18 20  2  0
 20 21  1  0
 21 22  2  0
 22 23  1  0
 15 24  1  0
 24 25  2  0
 25 26  1  0
 26 27  2  0
 27 28  1  0
 28 29  2  0
 29 30  1  0
 30 31  2  0
  6 32  2  0
 32  2  1  0
 30 13  1  0
 22 16  1  0
 29 24  1  0
  1 33  1  0
  1 34  1  0
  1 35  1  0
  3 36  1  0
  4 37  1  0
  5 38  1  0
  8 39  1  0
  8 40  1  0
  9 41  1  0
  9 42  1  0
 10 43  1  6
 11 44  1  0
 11 45  1  0
 11 46  1  0
 12 47  1  0
 12 48  1  0
 17 49  1  0
 19 50  1  0
 19 51  1  0
 19 52  1  0
 20 53  1  0
 21 54  1  0
 23 55  1  0
 23 56  1  0
 23 57  1  0
 25 58  1  0
 26 59  1  0
 27 60  1  0
 28 61  1  0
 32 62  1  0
M  CHG  1  10   1
M  END
>  <meeko>  (5) 
{"is_sidechain": [false], "free_energy": -6.531, "intermolecular_energy": -9.723, "internal_energy": -3.35}

$$$$
REF_ZINC58438263__Ngeom1__M_PUB_ALL__e8__s20260927
     RDKit          3D

 62 65  0  0  0  0  0  0  0  0999 V2000
   13.4640  -10.3500    0.1730 C   0  0  0  0  0  0  0  0  0  0  0  0
   12.3370  -11.3210   -0.0240 C   0  0  0  0  0  0  0  0  0  0  0  0
   11.2150  -11.2800    0.8080 C   0  0  0  0  0  0  0  0  0  0  0  0
   10.1530  -12.1590    0.5980 C   0  0  0  0  0  0  0  0  0  0  0  0
   10.1960  -13.0840   -0.4480 C   0  0  0  0  0  0  0  0  0  0  0  0
   11.3060  -13.1300   -1.2920 C   0  0  0  0  0  0  0  0  0  0  0  0
   11.4790  -13.9800   -2.3490 O   0  0  0  0  0  0  0  0  0  0  0  0
   11.5310  -13.3960   -3.6500 C   0  0  0  0  0  0  0  0  0  0  0  0
   10.1250  -12.9140   -4.0280 C   0  0  0  0  0  0  0  0  0  0  0  0
    9.4420  -13.7900   -5.0450 N   0  0  1  0  0  0  0  0  0  0  0  0
   10.3460  -14.5520   -5.9580 C   0  0  0  0  0  0  0  0  0  0  0  0
    8.3090  -14.6070   -4.5280 C   0  0  0  0  0  0  0  0  0  0  0  0
    7.2580  -13.6850   -4.1600 N   0  0  0  0  0  0  0  0  0  0  0  0
    7.1420  -13.3240   -2.8330 N   0  0  0  0  0  0  0  0  0  0  0  0
    6.1740  -12.5260   -2.4880 C   0  0  0  0  0  0  0  0  0  0  0  0
    6.0900  -12.1600   -1.0560 C   0  0  0  0  0  0  0  0  0  0  0  0
    6.7680  -11.0080   -0.6390 C   0  0  0  0  0  0  0  0  0  0  0  0
    6.7130  -10.6130    0.7000 C   0  0  0  0  0  0  0  0  0  0  0  0
    7.4710   -9.4060    1.1730 C   0  0  0  0  0  0  0  0  0  0  0  0
    5.9900  -11.3940    1.6090 C   0  0  0  0  0  0  0  0  0  0  0  0
    5.3060  -12.5390    1.1840 C   0  0  0  0  0  0  0  0  0  0  0  0
    5.3380  -12.9350   -0.1580 C   0  0  0  0  0  0  0  0  0  0  0  0
    4.6040  -14.1710   -0.5900 C   0  0  0  0  0  0  0  0  0  0  0  0
    5.1770  -11.9890   -3.4410 C   0  0  0  0  0  0  0  0  0  0  0  0
    4.1440  -11.1230   -3.0610 C   0  0  0  0  0  0  0  0  0  0  0  0
    3.2380  -10.6570   -4.0170 C   0  0  0  0  0  0  0  0  0  0  0  0
    3.3580  -11.0520   -5.3490 C   0  0  0  0  0  0  0  0  0  0  0  0
    4.3860  -11.9150   -5.7300 C   0  0  0  0  0  0  0  0  0  0  0  0
    5.2930  -12.3800   -4.7710 C   0  0  0  0  0  0  0  0  0  0  0  0
    6.3820  -13.2890   -5.1630 C   0  0  0  0  0  0  0  0  0  0  0  0
    6.5000  -13.6750   -6.3220 O   0  0  0  0  0  0  0  0  0  0  0  0
   12.3670  -12.2430   -1.0800 C   0  0  0  0  0  0  0  0  0  0  0  0
   13.6362  -10.2016    1.2493 H   0  0  0  0  0  0  0  0  0  0  0  0
   14.3772  -10.7487   -0.2929 H   0  0  0  0  0  0  0  0  0  0  0  0
   13.2047   -9.3879   -0.2929 H   0  0  0  0  0  0  0  0  0  0  0  0
   11.1694  -10.5519    1.6313 H   0  0  0  0  0  0  0  0  0  0  0  0
    9.2755  -12.1238    1.2604 H   0  0  0  0  0  0  0  0  0  0  0  0
    9.3553  -13.7756   -0.6061 H   0  0  0  0  0  0  0  0  0  0  0  0
   12.2261  -12.5434   -3.6457 H   0  0  0  0  0  0  0  0  0  0  0  0
   11.8821  -14.1391   -4.3811 H   0  0  0  0  0  0  0  0  0  0  0  0
    9.5082  -12.8918   -3.1175 H   0  0  0  0  0  0  0  0  0  0  0  0
   10.2358  -11.9181   -4.4817 H   0  0  0  0  0  0  0  0  0  0  0  0
    8.9000  -13.1610   -5.6650 H   0  0  0  0  0  0  0  0  0  0  0  0
   11.0525  -15.1476   -5.3613 H   0  0  0  0  0  0  0  0  0  0  0  0
    9.7467  -15.2215   -6.5925 H   0  0  0  0  0  0  0  0  0  0  0  0
   10.9044  -13.8481   -6.5925 H   0  0  0  0  0  0  0  0  0  0  0  0
    7.9521  -15.2950   -5.3085 H   0  0  0  0  0  0  0  0  0  0  0  0
    8.6223  -15.2112   -3.6638 H   0  0  0  0  0  0  0  0  0  0  0  0
    7.3433  -10.4146   -1.3649 H   0  0  0  0  0  0  0  0  0  0  0  0
    7.4824   -9.3879    2.2728 H   0  0  0  0  0  0  0  0  0  0  0  0
    8.5035   -9.4506    0.7963 H   0  0  0  0  0  0  0  0  0  0  0  0
    6.9823   -8.4953    0.7963 H   0  0  0  0  0  0  0  0  0  0  0  0
    5.9589  -11.1047    2.6698 H   0  0  0  0  0  0  0  0  0  0  0  0
    4.7368  -13.1343    1.9131 H   0  0  0  0  0  0  0  0  0  0  0  0
    4.2723  -14.7296    0.2977 H   0  0  0  0  0  0  0  0  0  0  0  0
    3.7287  -13.8860   -1.1921 H   0  0  0  0  0  0  0  0  0  0  0  0
    5.2731  -14.8032   -1.1921 H   0  0  0  0  0  0  0  0  0  0  0  0
    4.0461  -10.8101   -2.0110 H   0  0  0  0  0  0  0  0  0  0  0  0
    2.4273   -9.9763   -3.7180 H   0  0  0  0  0  0  0  0  0  0  0  0
    2.6426  -10.6834   -6.0989 H   0  0  0  0  0  0  0  0  0  0  0  0
    4.4832  -12.2286   -6.7799 H   0  0  0  0  0  0  0  0  0  0  0  0
   13.2377  -12.2693   -1.7517 H   0  0  0  0  0  0  0  0  0  0  0  0
  1  2  1  0
  2  3  2  0
  3  4  1  0
  4  5  2  0
  5  6  1  0
  6  7  1  0
  7  8  1  0
  8  9  1  0
  9 10  1  0
 10 11  1  0
 10 12  1  0
 12 13  1  0
 13 14  1  0
 14 15  2  0
 15 16  1  0
 16 17  2  0
 17 18  1  0
 18 19  1  0
 18 20  2  0
 20 21  1  0
 21 22  2  0
 22 23  1  0
 15 24  1  0
 24 25  2  0
 25 26  1  0
 26 27  2  0
 27 28  1  0
 28 29  2  0
 29 30  1  0
 30 31  2  0
  6 32  2  0
 32  2  1  0
 30 13  1  0
 22 16  1  0
 29 24  1  0
  1 33  1  0
  1 34  1  0
  1 35  1  0
  3 36  1  0
  4 37  1  0
  5 38  1  0
  8 39  1  0
  8 40  1  0
  9 41  1  0
  9 42  1  0
 10 43  1  6
 11 44  1  0
 11 45  1  0
 11 46  1  0
 12 47  1  0
 12 48  1  0
 17 49  1  0
 19 50  1  0
 19 51  1  0
 19 52  1  0
 20 53  1  0
 21 54  1  0
 23 55  1  0
 23 56  1  0
 23 57  1  0
 25 58  1  0
 26 59  1  0
 27 60  1  0
 28 61  1  0
 32 62  1  0
M  CHG  1  10   1
M  END
>  <meeko>  (6) 
{"is_sidechain": [false], "free_energy": -6.526, "intermolecular_energy": -10.733, "internal_energy": -2.333}

$$$$
REF_ZINC58438263__Ngeom1__M_PUB_ALL__e8__s20260927
     RDKit          3D

 62 65  0  0  0  0  0  0  0  0999 V2000
    2.9110  -10.3300   -3.7360 C   0  0  0  0  0  0  0  0  0  0  0  0
    2.9570  -11.6620   -3.0480 C   0  0  0  0  0  0  0  0  0  0  0  0
    2.1660  -12.7210   -3.5020 C   0  0  0  0  0  0  0  0  0  0  0  0
    2.2400  -13.9680   -2.8830 C   0  0  0  0  0  0  0  0  0  0  0  0
    3.1100  -14.1750   -1.8100 C   0  0  0  0  0  0  0  0  0  0  0  0
    3.9130  -13.1300   -1.3520 C   0  0  0  0  0  0  0  0  0  0  0  0
    4.8050  -13.1940   -0.3180 O   0  0  0  0  0  0  0  0  0  0  0  0
    4.5720  -12.3320    0.7950 C   0  0  0  0  0  0  0  0  0  0  0  0
    5.8900  -12.1470    1.5580 C   0  0  0  0  0  0  0  0  0  0  0  0
    6.9870  -11.5410    0.7240 N   0  0  1  0  0  0  0  0  0  0  0  0
    7.0780  -10.0500    0.7520 C   0  0  0  0  0  0  0  0  0  0  0  0
    8.3150  -12.2090    0.8280 C   0  0  0  0  0  0  0  0  0  0  0  0
    8.7060  -12.5810   -0.5130 N   0  0  0  0  0  0  0  0  0  0  0  0
    7.7210  -12.9960   -1.3870 N   0  0  0  0  0  0  0  0  0  0  0  0
    8.0700  -13.3710   -2.5840 C   0  0  0  0  0  0  0  0  0  0  0  0
    6.9830  -13.8030   -3.4900 C   0  0  0  0  0  0  0  0  0  0  0  0
    6.4810  -12.8610   -4.3980 C   0  0  0  0  0  0  0  0  0  0  0  0
    5.4620  -13.2210   -5.2840 C   0  0  0  0  0  0  0  0  0  0  0  0
    4.8820  -12.2120   -6.2320 C   0  0  0  0  0  0  0  0  0  0  0  0
    4.9450  -14.5200   -5.2310 C   0  0  0  0  0  0  0  0  0  0  0  0
    5.4570  -15.4600   -4.3280 C   0  0  0  0  0  0  0  0  0  0  0  0
    6.4910  -15.1170   -3.4490 C   0  0  0  0  0  0  0  0  0  0  0  0
    7.0190  -16.1380   -2.4830 C   0  0  0  0  0  0  0  0  0  0  0  0
    9.4720  -13.3880   -3.0600 C   0  0  0  0  0  0  0  0  0  0  0  0
    9.8350  -13.7830   -4.3530 C   0  0  0  0  0  0  0  0  0  0  0  0
   11.1810  -13.7750   -4.7310 C   0  0  0  0  0  0  0  0  0  0  0  0
   12.1620  -13.3740   -3.8260 C   0  0  0  0  0  0  0  0  0  0  0  0
   11.8020  -12.9800   -2.5370 C   0  0  0  0  0  0  0  0  0  0  0  0
   10.4550  -12.9870   -2.1600 C   0  0  0  0  0  0  0  0  0  0  0  0
   10.0640  -12.5720   -0.8030 C   0  0  0  0  0  0  0  0  0  0  0  0
   10.9060  -12.2380    0.0240 O   0  0  0  0  0  0  0  0  0  0  0  0
    3.8380  -11.8820   -1.9790 C   0  0  0  0  0  0  0  0  0  0  0  0
    2.8833   -9.5290   -2.9826 H   0  0  0  0  0  0  0  0  0  0  0  0
    3.8056  -10.2111   -4.3650 H   0  0  0  0  0  0  0  0  0  0  0  0
    2.0104  -10.2731   -4.3650 H   0  0  0  0  0  0  0  0  0  0  0  0
    1.4827  -12.5701   -4.3507 H   0  0  0  0  0  0  0  0  0  0  0  0
    1.6090  -14.7944   -3.2420 H   0  0  0  0  0  0  0  0  0  0  0  0
    3.1620  -15.1616   -1.3263 H   0  0  0  0  0  0  0  0  0  0  0  0
    4.2107  -11.3562    0.4382 H   0  0  0  0  0  0  0  0  0  0  0  0
    3.8135  -12.7731    1.4584 H   0  0  0  0  0  0  0  0  0  0  0  0
    5.7040  -11.4891    2.4197 H   0  0  0  0  0  0  0  0  0  0  0  0
    6.2305  -13.1476    1.8627 H   0  0  0  0  0  0  0  0  0  0  0  0
    6.7790  -11.7800   -0.2630 H   0  0  0  0  0  0  0  0  0  0  0  0
    7.0991   -9.7035    1.7958 H   0  0  0  0  0  0  0  0  0  0  0  0
    7.9974   -9.7291    0.2404 H   0  0  0  0  0  0  0  0  0  0  0  0
    6.2044   -9.6197    0.2404 H   0  0  0  0  0  0  0  0  0  0  0  0
    9.0535  -11.5169    1.2587 H   0  0  0  0  0  0  0  0  0  0  0  0
    8.2604  -13.0927    1.4808 H   0  0  0  0  0  0  0  0  0  0  0  0
    6.8886  -11.8394   -4.4133 H   0  0  0  0  0  0  0  0  0  0  0  0
    4.4139  -11.3977   -5.6595 H   0  0  0  0  0  0  0  0  0  0  0  0
    5.6822  -11.8019   -6.8656 H   0  0  0  0  0  0  0  0  0  0  0  0
    4.1249  -12.6971   -6.8656 H   0  0  0  0  0  0  0  0  0  0  0  0
    4.1260  -14.8066   -5.9071 H   0  0  0  0  0  0  0  0  0  0  0  0
    5.0422  -16.4786   -4.3093 H   0  0  0  0  0  0  0  0  0  0  0  0
    6.8414  -15.7947   -1.4532 H   0  0  0  0  0  0  0  0  0  0  0  0
    6.5034  -17.0962   -2.6441 H   0  0  0  0  0  0  0  0  0  0  0  0
    8.0990  -16.2711   -2.6441 H   0  0  0  0  0  0  0  0  0  0  0  0
    9.0630  -14.0990   -5.0700 H   0  0  0  0  0  0  0  0  0  0  0  0
   11.4668  -14.0864   -5.7466 H   0  0  0  0  0  0  0  0  0  0  0  0
   13.2197  -13.3681   -4.1279 H   0  0  0  0  0  0  0  0  0  0  0  0
   12.5744  -12.6651   -1.8199 H   0  0  0  0  0  0  0  0  0  0  0  0
    4.4798  -11.0604   -1.6283 H   0  0  0  0  0  0  0  0  0  0  0  0
  1  2  1  0
  2  3  2  0
  3  4  1  0
  4  5  2  0
  5  6  1  0
  6  7  1  0
  7  8  1  0
  8  9  1  0
  9 10  1  0
 10 11  1  0
 10 12  1  0
 12 13  1  0
 13 14  1  0
 14 15  2  0
 15 16  1  0
 16 17  2  0
 17 18  1  0
 18 19  1  0
 18 20  2  0
 20 21  1  0
 21 22  2  0
 22 23  1  0
 15 24  1  0
 24 25  2  0
 25 26  1  0
 26 27  2  0
 27 28  1  0
 28 29  2  0
 29 30  1  0
 30 31  2  0
  6 32  2  0
 32  2  1  0
 30 13  1  0
 22 16  1  0
 29 24  1  0
  1 33  1  0
  1 34  1  0
  1 35  1  0
  3 36  1  0
  4 37  1  0
  5 38  1  0
  8 39  1  0
  8 40  1  0
  9 41  1  0
  9 42  1  0
 10 43  1  6
 11 44  1  0
 11 45  1  0
 11 46  1  0
 12 47  1  0
 12 48  1  0
 17 49  1  0
 19 50  1  0
 19 51  1  0
 19 52  1  0
 20 53  1  0
 21 54  1  0
 23 55  1  0
 23 56  1  0
 23 57  1  0
 25 58  1  0
 26 59  1  0
 27 60  1  0
 28 61  1  0
 32 62  1  0
M  CHG  1  10   1
M  END
>  <meeko>  (7) 
{"is_sidechain": [false], "free_energy": -6.483, "intermolecular_energy": -9.417, "internal_energy": -3.587}

$$$$
REF_ZINC58438263__Ngeom1__M_PUB_ALL__e8__s20260927
     RDKit          3D

 62 65  0  0  0  0  0  0  0  0999 V2000
    5.6300  -16.9770   -4.1440 C   0  0  0  0  0  0  0  0  0  0  0  0
    5.3870  -16.5340   -2.7310 C   0  0  0  0  0  0  0  0  0  0  0  0
    4.2510  -16.9650   -2.0400 C   0  0  0  0  0  0  0  0  0  0  0  0
    4.0480  -16.5820   -0.7150 C   0  0  0  0  0  0  0  0  0  0  0  0
    4.9800  -15.7720   -0.0620 C   0  0  0  0  0  0  0  0  0  0  0  0
    6.1240  -15.3430   -0.7360 C   0  0  0  0  0  0  0  0  0  0  0  0
    7.1130  -14.5530   -0.2200 O   0  0  0  0  0  0  0  0  0  0  0  0
    8.2060  -14.2350   -1.0800 C   0  0  0  0  0  0  0  0  0  0  0  0
    8.5010  -12.7340   -0.9650 C   0  0  0  0  0  0  0  0  0  0  0  0
    7.3570  -11.9380   -0.3960 N   0  0  1  0  0  0  0  0  0  0  0  0
    7.5960  -11.3200    0.9430 C   0  0  0  0  0  0  0  0  0  0  0  0
    6.6800  -11.0170   -1.3520 C   0  0  0  0  0  0  0  0  0  0  0  0
    5.7590  -11.8180   -2.1270 N   0  0  0  0  0  0  0  0  0  0  0  0
    6.0550  -12.0490   -3.4550 N   0  0  0  0  0  0  0  0  0  0  0  0
    5.2110  -12.7350   -4.1700 C   0  0  0  0  0  0  0  0  0  0  0  0
    5.5710  -12.9660   -5.5870 C   0  0  0  0  0  0  0  0  0  0  0  0
    6.4320  -14.0330   -5.8740 C   0  0  0  0  0  0  0  0  0  0  0  0
    6.7940  -14.3000   -7.1970 C   0  0  0  0  0  0  0  0  0  0  0  0
    7.7510  -15.4120   -7.5170 C   0  0  0  0  0  0  0  0  0  0  0  0
    6.3020  -13.4760   -8.2140 C   0  0  0  0  0  0  0  0  0  0  0  0
    5.4350  -12.4170   -7.9230 C   0  0  0  0  0  0  0  0  0  0  0  0
    5.0490  -12.1510   -6.6050 C   0  0  0  0  0  0  0  0  0  0  0  0
    4.1240  -11.0040   -6.3140 C   0  0  0  0  0  0  0  0  0  0  0  0
    3.9390  -13.2740   -3.6400 C   0  0  0  0  0  0  0  0  0  0  0  0
    3.0420  -14.0190   -4.4160 C   0  0  0  0  0  0  0  0  0  0  0  0
    1.8570  -14.4950   -3.8470 C   0  0  0  0  0  0  0  0  0  0  0  0
    1.5650  -14.2300   -2.5090 C   0  0  0  0  0  0  0  0  0  0  0  0
    2.4570  -13.4880   -1.7350 C   0  0  0  0  0  0  0  0  0  0  0  0
    3.6430  -13.0130   -2.3060 C   0  0  0  0  0  0  0  0  0  0  0  0
    4.5910  -12.2300   -1.4970 C   0  0  0  0  0  0  0  0  0  0  0  0
    4.3520  -11.9590   -0.3250 O   0  0  0  0  0  0  0  0  0  0  0  0
    6.3250  -15.7340   -2.0640 C   0  0  0  0  0  0  0  0  0  0  0  0
    6.1590  -17.9414   -4.1401 H   0  0  0  0  0  0  0  0  0  0  0  0
    4.6671  -17.0891   -4.6639 H   0  0  0  0  0  0  0  0  0  0  0  0
    6.2420  -16.2252   -4.6639 H   0  0  0  0  0  0  0  0  0  0  0  0
    3.5146  -17.6086   -2.5434 H   0  0  0  0  0  0  0  0  0  0  0  0
    3.1480  -16.9199   -0.1803 H   0  0  0  0  0  0  0  0  0  0  0  0
    4.8122  -15.4725    0.9830 H   0  0  0  0  0  0  0  0  0  0  0  0
    9.0936  -14.8109   -0.7791 H   0  0  0  0  0  0  0  0  0  0  0  0
    7.9513  -14.4886   -2.1196 H   0  0  0  0  0  0  0  0  0  0  0  0
    9.3764  -12.6004   -0.3124 H   0  0  0  0  0  0  0  0  0  0  0  0
    8.6789  -12.3607   -1.9843 H   0  0  0  0  0  0  0  0  0  0  0  0
    6.5740  -12.6010   -0.2510 H   0  0  0  0  0  0  0  0  0  0  0  0
    7.3194  -12.0353    1.7316 H   0  0  0  0  0  0  0  0  0  0  0  0
    8.6600  -11.0588    1.0416 H   0  0  0  0  0  0  0  0  0  0  0  0
    6.9846  -10.4109    1.0416 H   0  0  0  0  0  0  0  0  0  0  0  0
    6.1328  -10.2369   -0.8024 H   0  0  0  0  0  0  0  0  0  0  0  0
    7.4125  -10.5184   -2.0038 H   0  0  0  0  0  0  0  0  0  0  0  0
    6.8227  -14.6599   -5.0589 H   0  0  0  0  0  0  0  0  0  0  0  0
    8.1288  -15.8510   -6.5819 H   0  0  0  0  0  0  0  0  0  0  0  0
    7.2318  -16.1856   -8.1018 H   0  0  0  0  0  0  0  0  0  0  0  0
    8.5934  -15.0139   -8.1018 H   0  0  0  0  0  0  0  0  0  0  0  0
    6.6004  -13.6627   -9.2562 H   0  0  0  0  0  0  0  0  0  0  0  0
    5.0528  -11.7868   -8.7395 H   0  0  0  0  0  0  0  0  0  0  0  0
    4.0243  -10.8804   -5.2255 H   0  0  0  0  0  0  0  0  0  0  0  0
    4.5342  -10.0820   -6.7517 H   0  0  0  0  0  0  0  0  0  0  0  0
    3.1360  -11.2096   -6.7517 H   0  0  0  0  0  0  0  0  0  0  0  0
    3.2695  -14.2292   -5.4715 H   0  0  0  0  0  0  0  0  0  0  0  0
    1.1527  -15.0803   -4.4564 H   0  0  0  0  0  0  0  0  0  0  0  0
    0.6317  -14.6060   -2.0645 H   0  0  0  0  0  0  0  0  0  0  0  0
    2.2291  -13.2770   -0.6798 H   0  0  0  0  0  0  0  0  0  0  0  0
    7.2330  -15.4087   -2.5929 H   0  0  0  0  0  0  0  0  0  0  0  0
  1  2  1  0
  2  3  2  0
  3  4  1  0
  4  5  2  0
  5  6  1  0
  6  7  1  0
  7  8  1  0
  8  9  1  0
  9 10  1  0
 10 11  1  0
 10 12  1  0
 12 13  1  0
 13 14  1  0
 14 15  2  0
 15 16  1  0
 16 17  2  0
 17 18  1  0
 18 19  1  0
 18 20  2  0
 20 21  1  0
 21 22  2  0
 22 23  1  0
 15 24  1  0
 24 25  2  0
 25 26  1  0
 26 27  2  0
 27 28  1  0
 28 29  2  0
 29 30  1  0
 30 31  2  0
  6 32  2  0
 32  2  1  0
 30 13  1  0
 22 16  1  0
 29 24  1  0
  1 33  1  0
  1 34  1  0
  1 35  1  0
  3 36  1  0
  4 37  1  0
  5 38  1  0
  8 39  1  0
  8 40  1  0
  9 41  1  0
  9 42  1  0
 10 43  1  1
 11 44  1  0
 11 45  1  0
 11 46  1  0
 12 47  1  0
 12 48  1  0
 17 49  1  0
 19 50  1  0
 19 51  1  0
 19 52  1  0
 20 53  1  0
 21 54  1  0
 23 55  1  0
 23 56  1  0
 23 57  1  0
 25 58  1  0
 26 59  1  0
 27 60  1  0
 28 61  1  0
 32 62  1  0
M  CHG  1  10   1
M  END
>  <meeko>  (8) 
{"is_sidechain": [false], "free_energy": -6.471, "intermolecular_energy": -8.612, "internal_energy": -4.375}

$$$$
REF_ZINC58438263__Ngeom1__M_PUB_ALL__e8__s20260927
     RDKit          3D

 62 65  0  0  0  0  0  0  0  0999 V2000
    6.7030  -10.8660   -0.1150 C   0  0  0  0  0  0  0  0  0  0  0  0
    6.1770  -12.1370    0.4820 C   0  0  0  0  0  0  0  0  0  0  0  0
    6.9020  -12.8090    1.4700 C   0  0  0  0  0  0  0  0  0  0  0  0
    6.3920  -13.9700    2.0490 C   0  0  0  0  0  0  0  0  0  0  0  0
    5.1480  -14.4690    1.6550 C   0  0  0  0  0  0  0  0  0  0  0  0
    4.4080  -13.8040    0.6780 C   0  0  0  0  0  0  0  0  0  0  0  0
    3.1830  -14.1800    0.2010 O   0  0  0  0  0  0  0  0  0  0  0  0
    2.5010  -15.2160    0.9060 C   0  0  0  0  0  0  0  0  0  0  0  0
    2.3750  -16.4360   -0.0160 C   0  0  0  0  0  0  0  0  0  0  0  0
    3.6370  -17.2500   -0.1130 N   0  0  1  0  0  0  0  0  0  0  0  0
    3.6850  -18.4790    0.7350 C   0  0  0  0  0  0  0  0  0  0  0  0
    4.1510  -17.4730   -1.4940 C   0  0  0  0  0  0  0  0  0  0  0  0
    5.0410  -16.3730   -1.7940 N   0  0  0  0  0  0  0  0  0  0  0  0
    4.6290  -15.4370   -2.7210 N   0  0  0  0  0  0  0  0  0  0  0  0
    5.4400  -14.4660   -3.0270 C   0  0  0  0  0  0  0  0  0  0  0  0
    4.9570  -13.4810   -4.0200 C   0  0  0  0  0  0  0  0  0  0  0  0
    4.2220  -12.3880   -3.5460 C   0  0  0  0  0  0  0  0  0  0  0  0
    3.7510  -11.4230   -4.4410 C   0  0  0  0  0  0  0  0  0  0  0  0
    2.9240  -10.2680   -3.9550 C   0  0  0  0  0  0  0  0  0  0  0  0
    4.0090  -11.5820   -5.8070 C   0  0  0  0  0  0  0  0  0  0  0  0
    4.7530  -12.6710   -6.2740 C   0  0  0  0  0  0  0  0  0  0  0  0
    5.2460  -13.6340   -5.3860 C   0  0  0  0  0  0  0  0  0  0  0  0
    6.0340  -14.8000   -5.9100 C   0  0  0  0  0  0  0  0  0  0  0  0
    6.7920  -14.3150   -2.4430 C   0  0  0  0  0  0  0  0  0  0  0  0
    7.6540  -13.2610   -2.7720 C   0  0  0  0  0  0  0  0  0  0  0  0
    8.9180  -13.1850   -2.1800 C   0  0  0  0  0  0  0  0  0  0  0  0
    9.3240  -14.1540   -1.2630 C   0  0  0  0  0  0  0  0  0  0  0  0
    8.4670  -15.2040   -0.9350 C   0  0  0  0  0  0  0  0  0  0  0  0
    7.2010  -15.2800   -1.5270 C   0  0  0  0  0  0  0  0  0  0  0  0
    6.2890  -16.3830   -1.1860 C   0  0  0  0  0  0  0  0  0  0  0  0
    6.6260  -17.2650   -0.4020 O   0  0  0  0  0  0  0  0  0  0  0  0
    4.9230  -12.6370    0.1030 C   0  0  0  0  0  0  0  0  0  0  0  0
    6.9895  -10.1737    0.6904 H   0  0  0  0  0  0  0  0  0  0  0  0
    7.5826  -11.0894   -0.7367 H   0  0  0  0  0  0  0  0  0  0  0  0
    5.9228  -10.4025   -0.7367 H   0  0  0  0  0  0  0  0  0  0  0  0
    7.8792  -12.4201    1.7921 H   0  0  0  0  0  0  0  0  0  0  0  0
    6.9726  -14.4965    2.8208 H   0  0  0  0  0  0  0  0  0  0  0  0
    4.7524  -15.3863    2.1154 H   0  0  0  0  0  0  0  0  0  0  0  0
    3.0715  -15.4892    1.8060 H   0  0  0  0  0  0  0  0  0  0  0  0
    1.5019  -14.8693    1.2085 H   0  0  0  0  0  0  0  0  0  0  0  0
    1.5730  -17.0823    0.3699 H   0  0  0  0  0  0  0  0  0  0  0  0
    2.1571  -16.0568   -1.0253 H   0  0  0  0  0  0  0  0  0  0  0  0
    4.4070  -16.6510    0.2360 H   0  0  0  0  0  0  0  0  0  0  0  0
    3.6738  -18.1924    1.7970 H   0  0  0  0  0  0  0  0  0  0  0  0
    2.8108  -19.1098    0.5162 H   0  0  0  0  0  0  0  0  0  0  0  0
    4.6057  -19.0397    0.5162 H   0  0  0  0  0  0  0  0  0  0  0  0
    4.6974  -18.4263   -1.5449 H   0  0  0  0  0  0  0  0  0  0  0  0
    3.3248  -17.5198   -2.2187 H   0  0  0  0  0  0  0  0  0  0  0  0
    4.0152  -12.2886   -2.4702 H   0  0  0  0  0  0  0  0  0  0  0  0
    2.9175  -10.2589   -2.8551 H   0  0  0  0  0  0  0  0  0  0  0  0
    3.3546   -9.3266   -4.3269 H   0  0  0  0  0  0  0  0  0  0  0  0
    1.8941  -10.3723   -4.3269 H   0  0  0  0  0  0  0  0  0  0  0  0
    3.6221  -10.8416   -6.5226 H   0  0  0  0  0  0  0  0  0  0  0  0
    4.9527  -12.7715   -7.3510 H   0  0  0  0  0  0  0  0  0  0  0  0
    6.4290  -15.3845   -5.0660 H   0  0  0  0  0  0  0  0  0  0  0  0
    5.3809  -15.4377   -6.5239 H   0  0  0  0  0  0  0  0  0  0  0  0
    6.8692  -14.4319   -6.5239 H   0  0  0  0  0  0  0  0  0  0  0  0
    7.3369  -12.4947   -3.4947 H   0  0  0  0  0  0  0  0  0  0  0  0
    9.5951  -12.3575   -2.4385 H   0  0  0  0  0  0  0  0  0  0  0  0
   10.3193  -14.0901   -0.7989 H   0  0  0  0  0  0  0  0  0  0  0  0
    8.7851  -15.9705   -0.2130 H   0  0  0  0  0  0  0  0  0  0  0  0
    4.3349  -12.1034   -0.6583 H   0  0  0  0  0  0  0  0  0  0  0  0
  1  2  1  0
  2  3  2  0
  3  4  1  0
  4  5  2  0
  5  6  1  0
  6  7  1  0
  7  8  1  0
  8  9  1  0
  9 10  1  0
 10 11  1  0
 10 12  1  0
 12 13  1  0
 13 14  1  0
 14 15  2  0
 15 16  1  0
 16 17  2  0
 17 18  1  0
 18 19  1  0
 18 20  2  0
 20 21  1  0
 21 22  2  0
 22 23  1  0
 15 24  1  0
 24 25  2  0
 25 26  1  0
 26 27  2  0
 27 28  1  0
 28 29  2  0
 29 30  1  0
 30 31  2  0
  6 32  2  0
 32  2  1  0
 30 13  1  0
 22 16  1  0
 29 24  1  0
  1 33  1  0
  1 34  1  0
  1 35  1  0
  3 36  1  0
  4 37  1  0
  5 38  1  0
  8 39  1  0
  8 40  1  0
  9 41  1  0
  9 42  1  0
 10 43  1  1
 11 44  1  0
 11 45  1  0
 11 46  1  0
 12 47  1  0
 12 48  1  0
 17 49  1  0
 19 50  1  0
 19 51  1  0
 19 52  1  0
 20 53  1  0
 21 54  1  0
 23 55  1  0
 23 56  1  0
 23 57  1  0
 25 58  1  0
 26 59  1  0
 27 60  1  0
 28 61  1  0
 32 62  1  0
M  CHG  1  10   1
M  END
>  <meeko>  (9) 
{"is_sidechain": [false], "free_energy": -6.449, "intermolecular_energy": -8.628, "internal_energy": -4.329}

$$$$
