
     RDKit          3D

 94 98  0  0  0  0  0  0  0  0999 V2000
   -6.1824    3.5936   -1.7981 C   0  0  0  0  0  0  0  0  0  0  0  0
   -5.1369    4.1644   -0.8309 C   0  0  0  0  0  0  0  0  0  0  0  0
   -4.8530    5.6339   -1.1592 C   0  0  0  0  0  0  0  0  0  0  0  0
   -5.7161    4.0999    0.4797 O   0  0  0  0  0  0  0  0  0  0  0  0
   -3.8255    3.3773   -0.7999 C   0  0  0  0  0  0  0  0  0  0  0  0
   -3.0680    3.3201    0.3823 C   0  0  0  0  0  0  0  0  0  0  0  0
   -1.8671    2.6106    0.4463 C   0  0  0  0  0  0  0  0  0  0  0  0
   -1.3900    1.9216   -0.6768 C   0  0  0  0  0  0  0  0  0  0  0  0
   -0.1244    1.1119   -0.6007 C   0  0  0  0  0  0  0  0  0  0  0  0
   -0.1830    0.0176    0.4396 N   0  0  0  0  0  0  0  0  0  0  0  0
    0.9373    0.0863    1.3242 C   0  0  0  0  0  0  0  0  0  0  0  0
    0.8651    0.9197    2.2005 O   0  0  0  0  0  0  0  0  0  0  0  0
    2.0525   -0.8283    1.3407 N   0  0  0  0  0  0  0  0  0  0  0  0
    3.3538   -0.0745    1.4779 C   0  0  0  0  0  0  0  0  0  0  0  0
    3.5266    0.8790    0.3250 C   0  0  0  0  0  0  0  0  0  0  0  0
    3.7864    0.3911   -0.9635 C   0  0  0  0  0  0  0  0  0  0  0  0
    3.7428    1.2467   -2.0677 C   0  0  0  0  0  0  0  0  0  0  0  0
    3.4385    2.6067   -1.9165 C   0  0  0  0  0  0  0  0  0  0  0  0
    3.2603    3.5571   -3.1003 C   0  0  0  0  0  0  0  0  0  0  0  0
    4.2090    4.7610   -3.0104 C   0  0  0  0  0  0  0  0  0  0  0  0
    3.3986    2.9125   -4.4861 C   0  0  0  0  0  0  0  0  0  0  0  0
    1.9026    4.0133   -2.9936 O   0  0  0  0  0  0  0  0  0  0  0  0
    3.2490    3.0923   -0.6082 C   0  0  0  0  0  0  0  0  0  0  0  0
    3.3035    2.2473    0.5006 C   0  0  0  0  0  0  0  0  0  0  0  0
    1.7384   -1.9288    2.3610 C   0  0  2  0  0  0  0  0  0  0  0  0
    3.0261   -2.6579    2.8197 C   0  0  0  0  0  0  0  0  0  0  0  0
    2.7485   -3.7715    3.7977 C   0  0  0  0  0  0  0  0  0  0  0  0
    2.2636   -3.4908    5.0838 C   0  0  0  0  0  0  0  0  0  0  0  0
    1.9815   -4.5287    5.9727 C   0  0  0  0  0  0  0  0  0  0  0  0
    2.1868   -5.8519    5.5902 C   0  0  0  0  0  0  0  0  0  0  0  0
    2.6842   -6.1408    4.3220 C   0  0  0  0  0  0  0  0  0  0  0  0
    2.9682   -5.1069    3.4293 C   0  0  0  0  0  0  0  0  0  0  0  0
    0.7656   -2.9035    1.6233 C   0  0  2  0  0  0  0  0  0  0  0  0
    1.4144   -3.2744    0.3966 O   0  0  0  0  0  0  0  0  0  0  0  0
   -0.6218   -2.3072    1.2777 C   0  0  1  0  0  0  0  0  0  0  0  0
   -1.1095   -1.5368    2.3807 O   0  0  0  0  0  0  0  0  0  0  0  0
   -0.6239   -1.3737    0.0126 C   0  0  1  0  0  0  0  0  0  0  0  0
   -2.0377   -1.3151   -0.6211 C   0  0  0  0  0  0  0  0  0  0  0  0
   -2.5320   -2.6623   -1.0892 C   0  0  0  0  0  0  0  0  0  0  0  0
   -3.6620   -3.2427   -0.4949 C   0  0  0  0  0  0  0  0  0  0  0  0
   -4.1080   -4.4995   -0.9047 C   0  0  0  0  0  0  0  0  0  0  0  0
   -3.4385   -5.1829   -1.9164 C   0  0  0  0  0  0  0  0  0  0  0  0
   -2.3283   -4.6068   -2.5289 C   0  0  0  0  0  0  0  0  0  0  0  0
   -1.8774   -3.3503   -2.1223 C   0  0  0  0  0  0  0  0  0  0  0  0
   -2.1051    2.0231   -1.8765 C   0  0  0  0  0  0  0  0  0  0  0  0
   -3.3069    2.7378   -1.9346 C   0  0  0  0  0  0  0  0  0  0  0  0
   -7.1432    4.1089   -1.6814 H   0  0  0  0  0  0  0  0  0  0  0  0
   -5.8803    3.6898   -2.8457 H   0  0  0  0  0  0  0  0  0  0  0  0
   -6.3724    2.5343   -1.5880 H   0  0  0  0  0  0  0  0  0  0  0  0
   -5.7761    6.2246   -1.1399 H   0  0  0  0  0  0  0  0  0  0  0  0
   -4.3916    5.7474   -2.1463 H   0  0  0  0  0  0  0  0  0  0  0  0
   -4.1840    6.0837   -0.4160 H   0  0  0  0  0  0  0  0  0  0  0  0
   -6.5179    4.6528    0.4752 H   0  0  0  0  0  0  0  0  0  0  0  0
   -3.4222    3.8446    1.2711 H   0  0  0  0  0  0  0  0  0  0  0  0
   -1.3220    2.6318    1.3881 H   0  0  0  0  0  0  0  0  0  0  0  0
    0.6864    1.7983   -0.3470 H   0  0  0  0  0  0  0  0  0  0  0  0
    0.1305    0.6379   -1.5552 H   0  0  0  0  0  0  0  0  0  0  0  0
   -0.9134    0.3130    1.1089 H   0  0  0  0  0  0  0  0  0  0  0  0
    2.1100   -1.3044    0.4337 H   0  0  0  0  0  0  0  0  0  0  0  0
    4.1718   -0.8012    1.4446 H   0  0  0  0  0  0  0  0  0  0  0  0
    3.3687    0.4264    2.4527 H   0  0  0  0  0  0  0  0  0  0  0  0
    4.0260   -0.6578   -1.1383 H   0  0  0  0  0  0  0  0  0  0  0  0
    3.9454    0.8260   -3.0518 H   0  0  0  0  0  0  0  0  0  0  0  0
    4.0228    5.3660   -2.1165 H   0  0  0  0  0  0  0  0  0  0  0  0
    4.0624    5.4368   -3.8612 H   0  0  0  0  0  0  0  0  0  0  0  0
    5.2575    4.4441   -2.9998 H   0  0  0  0  0  0  0  0  0  0  0  0
    4.4061    2.5173   -4.6548 H   0  0  0  0  0  0  0  0  0  0  0  0
    3.1838    3.6413   -5.2769 H   0  0  0  0  0  0  0  0  0  0  0  0
    2.6738    2.1010   -4.6224 H   0  0  0  0  0  0  0  0  0  0  0  0
    1.7965    4.7484   -3.6262 H   0  0  0  0  0  0  0  0  0  0  0  0
    3.0220    4.1482   -0.4511 H   0  0  0  0  0  0  0  0  0  0  0  0
    3.1311    2.6789    1.4872 H   0  0  0  0  0  0  0  0  0  0  0  0
    1.2639   -1.4607    3.2322 H   0  0  0  0  0  0  0  0  0  0  0  0
    3.7026   -1.9558    3.3227 H   0  0  0  0  0  0  0  0  0  0  0  0
    3.5745   -3.0487    1.9532 H   0  0  0  0  0  0  0  0  0  0  0  0
    2.1189   -2.4689    5.4282 H   0  0  0  0  0  0  0  0  0  0  0  0
    1.6184   -4.3107    6.9757 H   0  0  0  0  0  0  0  0  0  0  0  0
    1.9801   -6.6596    6.2904 H   0  0  0  0  0  0  0  0  0  0  0  0
    2.8663   -7.1763    4.0393 H   0  0  0  0  0  0  0  0  0  0  0  0
    3.3763   -5.3661    2.4543 H   0  0  0  0  0  0  0  0  0  0  0  0
    0.6043   -3.7977    2.2346 H   0  0  0  0  0  0  0  0  0  0  0  0
    1.2817   -4.2430    0.2712 H   0  0  0  0  0  0  0  0  0  0  0  0
   -1.2954   -3.1543    1.1180 H   0  0  0  0  0  0  0  0  0  0  0  0
   -1.7255   -2.1014    2.9027 H   0  0  0  0  0  0  0  0  0  0  0  0
    0.0897   -1.7083   -0.7474 H   0  0  0  0  0  0  0  0  0  0  0  0
   -2.7502   -0.8725    0.0863 H   0  0  0  0  0  0  0  0  0  0  0  0
   -2.0320   -0.6734   -1.5062 H   0  0  0  0  0  0  0  0  0  0  0  0
   -4.2220   -2.7246    0.2820 H   0  0  0  0  0  0  0  0  0  0  0  0
   -4.9921   -4.9426   -0.4491 H   0  0  0  0  0  0  0  0  0  0  0  0
   -3.7996   -6.1559   -2.2454 H   0  0  0  0  0  0  0  0  0  0  0  0
   -1.8315   -5.1345   -3.3412 H   0  0  0  0  0  0  0  0  0  0  0  0
   -1.0296   -2.9170   -2.6475 H   0  0  0  0  0  0  0  0  0  0  0  0
   -1.7483    1.5520   -2.7918 H   0  0  0  0  0  0  0  0  0  0  0  0
   -3.8282    2.7925   -2.8889 H   0  0  0  0  0  0  0  0  0  0  0  0
  1  2  1  0
  2  3  1  0
  2  4  1  0
  2  5  1  0
  5  6  2  0
  6  7  1  0
  7  8  2  0
  8  9  1  0
  9 10  1  0
 10 11  1  0
 11 12  2  0
 11 13  1  0
 13 14  1  0
 14 15  1  0
 15 16  2  0
 16 17  1  0
 17 18  2  0
 18 19  1  0
 19 20  1  0
 19 21  1  0
 19 22  1  0
 18 23  1  0
 23 24  2  0
 13 25  1  0
 25 26  1  0
 26 27  1  0
 27 28  2  0
 28 29  1  0
 29 30  2  0
 30 31  1  0
 31 32  2  0
 25 33  1  0
 33 34  1  0
 33 35  1  0
 35 36  1  0
 35 37  1  0
 37 38  1  0
 38 39  1  0
 39 40  2  0
 40 41  1  0
 41 42  2  0
 42 43  1  0
 43 44  2  0
  8 45  1  0
 45 46  2  0
 46  5  1  0
 37 10  1  0
 44 39  1  0
 24 15  1  0
 32 27  1  0
  1 47  1  0
  1 48  1  0
  1 49  1  0
  3 50  1  0
  3 51  1  0
  3 52  1  0
  4 53  1  0
  6 54  1  0
  7 55  1  0
  9 56  1  0
  9 57  1  0
 10 58  1  0
 13 59  1  0
 14 60  1  0
 14 61  1  0
 16 62  1  0
 17 63  1  0
 20 64  1  0
 20 65  1  0
 20 66  1  0
 21 67  1  0
 21 68  1  0
 21 69  1  0
 22 70  1  0
 23 71  1  0
 24 72  1  0
 25 73  1  1
 26 74  1  0
 26 75  1  0
 28 76  1  0
 29 77  1  0
 30 78  1  0
 31 79  1  0
 32 80  1  0
 33 81  1  1
 34 82  1  0
 35 83  1  6
 36 84  1  0
 37 85  1  6
 38 86  1  0
 38 87  1  0
 40 88  1  0
 41 89  1  0
 42 90  1  0
 43 91  1  0
 44 92  1  0
 45 93  1  0
 46 94  1  0
M  CHG  2  10   1  13   1
M  END
$$$$
