
     RDKit          3D

 40 43  0  0  0  0  0  0  0  0999 V2000
   -2.0119    1.5978    0.4329 C   0  0  0  0  0  0  0  0  0  0  0  0
   -3.0128    0.5937    0.1649 N   0  0  0  0  0  0  0  0  0  0  0  0
   -2.7883   -0.7405   -0.1176 C   0  0  0  0  0  0  0  0  0  0  0  0
   -1.4177   -1.3426   -0.1780 C   0  0  0  0  0  0  0  0  0  0  0  0
   -0.7239   -0.6700   -1.2291 O   0  0  0  0  0  0  0  0  0  0  0  0
    0.6423   -0.6916   -1.1337 C   0  0  0  0  0  0  0  0  0  0  0  0
    1.3838   -1.6454   -0.4373 C   0  0  0  0  0  0  0  0  0  0  0  0
    2.7726   -1.5274   -0.3656 C   0  0  0  0  0  0  0  0  0  0  0  0
    3.4378   -0.4688   -0.9992 C   0  0  0  0  0  0  0  0  0  0  0  0
    4.9455   -0.3483   -0.8654 C   0  0  0  0  0  0  0  0  0  0  0  0
    5.4075   -0.0695    0.5278 C   0  0  0  0  0  0  0  0  0  0  0  0
    5.2460    1.4842    1.2809 S   0  0  0  0  0  0  0  0  0  0  0  0
    6.0406    0.8632    2.7567 C   0  0  0  0  0  0  0  0  0  0  0  0
    6.2051    1.6012    3.7266 O   0  0  0  0  0  0  0  0  0  0  0  0
    6.3895   -0.4293    2.6189 N   0  0  0  0  0  0  0  0  0  0  0  0
    6.0305   -0.9001    1.3891 C   0  0  0  0  0  0  0  0  0  0  0  0
    6.3628   -2.1103    1.2676 O   0  0  0  0  0  0  0  0  0  0  0  0
    2.6908    0.4624   -1.7280 C   0  0  0  0  0  0  0  0  0  0  0  0
    1.3008    0.3453   -1.7996 C   0  0  0  0  0  0  0  0  0  0  0  0
   -3.9332   -1.3833   -0.3003 N   0  0  0  0  0  0  0  0  0  0  0  0
   -4.9107   -0.4371   -0.1551 C   0  0  0  0  0  0  0  0  0  0  0  0
   -6.3037   -0.5373   -0.2496 C   0  0  0  0  0  0  0  0  0  0  0  0
   -7.0421    0.6308   -0.0469 C   0  0  0  0  0  0  0  0  0  0  0  0
   -6.3638    1.8128    0.2343 C   0  0  0  0  0  0  0  0  0  0  0  0
   -7.2521    3.2654    0.4861 Cl  0  0  0  0  0  0  0  0  0  0  0  0
   -5.0242    1.9665    0.3385 N   0  0  0  0  0  0  0  0  0  0  0  0
   -4.3643    0.8075    0.1339 C   0  0  0  0  0  0  0  0  0  0  0  0
   -1.5820    1.9165   -0.5197 H   0  0  0  0  0  0  0  0  0  0  0  0
   -2.4723    2.4513    0.9370 H   0  0  0  0  0  0  0  0  0  0  0  0
   -1.2428    1.1760    1.0840 H   0  0  0  0  0  0  0  0  0  0  0  0
   -0.9357   -1.2094    0.7986 H   0  0  0  0  0  0  0  0  0  0  0  0
   -1.4895   -2.4103   -0.4131 H   0  0  0  0  0  0  0  0  0  0  0  0
    0.9261   -2.4833    0.0756 H   0  0  0  0  0  0  0  0  0  0  0  0
    3.3598   -2.2402    0.2194 H   0  0  0  0  0  0  0  0  0  0  0  0
    5.3897   -1.2746   -1.2524 H   0  0  0  0  0  0  0  0  0  0  0  0
    5.3153    0.4411   -1.5331 H   0  0  0  0  0  0  0  0  0  0  0  0
    3.1922    1.2936   -2.2154 H   0  0  0  0  0  0  0  0  0  0  0  0
    0.7309    1.0849   -2.3525 H   0  0  0  0  0  0  0  0  0  0  0  0
   -6.7748   -1.4866   -0.4723 H   0  0  0  0  0  0  0  0  0  0  0  0
   -8.1240    0.6118   -0.1089 H   0  0  0  0  0  0  0  0  0  0  0  0
  1  2  1  0
  2  3  1  0
  3  4  1  0
  4  5  1  0
  5  6  1  0
  6  7  2  0
  7  8  1  0
  8  9  2  0
  9 10  1  0
 10 11  1  0
 11 12  1  0
 12 13  1  0
 13 14  2  0
 13 15  1  0
 15 16  1  0
 16 17  1  0
  9 18  1  0
 18 19  2  0
  3 20  2  0
 20 21  1  0
 21 22  2  0
 22 23  1  0
 23 24  2  0
 24 25  1  0
 24 26  1  0
 26 27  2  0
 27  2  1  0
 19  6  1  0
 27 21  1  0
 16 11  2  0
  1 28  1  0
  1 29  1  0
  1 30  1  0
  4 31  1  0
  4 32  1  0
  7 33  1  0
  8 34  1  0
 10 35  1  0
 10 36  1  0
 18 37  1  0
 19 38  1  0
 22 39  1  0
 23 40  1  0
M  CHG  2  15  -1  17  -1
M  END
$$$$
