
     RDKit          3D

 58 61  0  0  0  0  0  0  0  0999 V2000
   -9.8598   -0.4488   -0.0598 C   0  0  0  0  0  0  0  0  0  0  0  0
   -8.4238   -0.1499   -0.3589 N   0  0  0  0  0  0  0  0  0  0  0  0
   -7.7111    0.4949    0.8259 C   0  0  0  0  0  0  0  0  0  0  0  0
   -6.2603    0.8628    0.4566 C   0  0  0  0  0  0  0  0  0  0  0  0
   -5.5472   -0.2931   -0.1154 N   0  0  0  0  0  0  0  0  0  0  0  0
   -4.1533   -0.2572   -0.0771 C   0  0  0  0  0  0  0  0  0  0  0  0
   -3.4760   -0.0437    1.1296 C   0  0  0  0  0  0  0  0  0  0  0  0
   -2.0751   -0.0055    1.1913 C   0  0  0  0  0  0  0  0  0  0  0  0
   -1.2872   -0.1817    0.0485 C   0  0  0  0  0  0  0  0  0  0  0  0
    0.1015   -0.1280    0.1744 N   0  0  0  0  0  0  0  0  0  0  0  0
    1.1644   -0.2615   -0.7145 C   0  0  0  0  0  0  0  0  0  0  0  0
    0.9799   -0.5141   -2.0165 N   0  0  0  0  0  0  0  0  0  0  0  0
    2.0789   -0.6215   -2.7819 C   0  0  0  0  0  0  0  0  0  0  0  0
    3.3567   -0.4920   -2.2988 C   0  0  0  0  0  0  0  0  0  0  0  0
    3.4696   -0.2365   -0.9484 C   0  0  0  0  0  0  0  0  0  0  0  0
    4.7700   -0.0631   -0.2672 C   0  0  0  0  0  0  0  0  0  0  0  0
    4.8956    0.8215    0.8199 C   0  0  0  0  0  0  0  0  0  0  0  0
    6.1162    1.0018    1.4797 C   0  0  0  0  0  0  0  0  0  0  0  0
    7.2516    0.3017    1.0645 C   0  0  0  0  0  0  0  0  0  0  0  0
    8.5256    0.5268    1.8009 C   0  0  0  0  0  0  0  0  0  0  0  0
    8.5066    0.8968    2.9686 O   0  0  0  0  0  0  0  0  0  0  0  0
    9.6924    0.3328    1.0967 N   0  0  0  0  0  0  0  0  0  0  0  0
   10.9842    0.5965    1.7082 C   0  0  0  0  0  0  0  0  0  0  0  0
   11.4919    1.9318    1.3502 C   0  0  0  0  0  0  0  0  0  0  0  0
   11.9014    2.9702    1.0292 N   0  0  0  0  0  0  0  0  0  0  0  0
    7.1479   -0.5996    0.0010 C   0  0  0  0  0  0  0  0  0  0  0  0
    5.9208   -0.7753   -0.6554 C   0  0  0  0  0  0  0  0  0  0  0  0
    2.3775   -0.1158   -0.1591 N   0  0  0  0  0  0  0  0  0  0  0  0
   -1.9564   -0.4043   -1.1530 C   0  0  0  0  0  0  0  0  0  0  0  0
   -3.3593   -0.4454   -1.2143 C   0  0  0  0  0  0  0  0  0  0  0  0
   -6.2145   -1.0244   -1.2030 C   0  0  0  0  0  0  0  0  0  0  0  0
   -7.6619   -1.3893   -0.8193 C   0  0  0  0  0  0  0  0  0  0  0  0
  -10.3511    0.4886    0.2133 H   0  0  0  0  0  0  0  0  0  0  0  0
  -10.3161   -0.8586   -0.9645 H   0  0  0  0  0  0  0  0  0  0  0  0
   -9.9053   -1.1684    0.7619 H   0  0  0  0  0  0  0  0  0  0  0  0
   -8.3962    0.5268   -1.1324 H   0  0  0  0  0  0  0  0  0  0  0  0
   -8.2784    1.3906    1.0986 H   0  0  0  0  0  0  0  0  0  0  0  0
   -7.7400   -0.2271    1.6498 H   0  0  0  0  0  0  0  0  0  0  0  0
   -5.7780    1.2491    1.3607 H   0  0  0  0  0  0  0  0  0  0  0  0
   -6.2654    1.6760   -0.2802 H   0  0  0  0  0  0  0  0  0  0  0  0
   -4.0236    0.0659    2.0615 H   0  0  0  0  0  0  0  0  0  0  0  0
   -1.6035    0.1579    2.1581 H   0  0  0  0  0  0  0  0  0  0  0  0
    0.4785    0.0449    1.0953 H   0  0  0  0  0  0  0  0  0  0  0  0
    1.8943   -0.8185   -3.8339 H   0  0  0  0  0  0  0  0  0  0  0  0
    4.2105   -0.5699   -2.9574 H   0  0  0  0  0  0  0  0  0  0  0  0
    4.0301    1.3862    1.1647 H   0  0  0  0  0  0  0  0  0  0  0  0
    6.1748    1.6938    2.3183 H   0  0  0  0  0  0  0  0  0  0  0  0
    9.6676    0.1496    0.1037 H   0  0  0  0  0  0  0  0  0  0  0  0
   10.9175    0.4919    2.7958 H   0  0  0  0  0  0  0  0  0  0  0  0
   11.6693   -0.1734    1.3390 H   0  0  0  0  0  0  0  0  0  0  0  0
    7.9960   -1.2012   -0.3124 H   0  0  0  0  0  0  0  0  0  0  0  0
    5.8720   -1.5046   -1.4620 H   0  0  0  0  0  0  0  0  0  0  0  0
   -1.4041   -0.5487   -2.0771 H   0  0  0  0  0  0  0  0  0  0  0  0
   -3.8019   -0.6067   -2.1926 H   0  0  0  0  0  0  0  0  0  0  0  0
   -6.2228   -0.4086   -2.1109 H   0  0  0  0  0  0  0  0  0  0  0  0
   -5.6874   -1.9596   -1.4275 H   0  0  0  0  0  0  0  0  0  0  0  0
   -7.6859   -2.1069    0.0086 H   0  0  0  0  0  0  0  0  0  0  0  0
   -8.1976   -1.8000   -1.6811 H   0  0  0  0  0  0  0  0  0  0  0  0
  1  2  1  0
  2  3  1  0
  3  4  1  0
  4  5  1  0
  5  6  1  0
  6  7  2  0
  7  8  1  0
  8  9  2  0
  9 10  1  0
 10 11  1  0
 11 12  2  0
 12 13  1  0
 13 14  2  0
 14 15  1  0
 15 16  1  0
 16 17  2  0
 17 18  1  0
 18 19  2  0
 19 20  1  0
 20 21  2  0
 20 22  1  0
 22 23  1  0
 23 24  1  0
 24 25  3  0
 19 26  1  0
 26 27  2  0
 15 28  2  0
  9 29  1  0
 29 30  2  0
  5 31  1  0
 31 32  1  0
 32  2  1  0
 30  6  1  0
 28 11  1  0
 27 16  1  0
  1 33  1  0
  1 34  1  0
  1 35  1  0
  2 36  1  0
  3 37  1  0
  3 38  1  0
  4 39  1  0
  4 40  1  0
  7 41  1  0
  8 42  1  0
 10 43  1  0
 13 44  1  0
 14 45  1  0
 17 46  1  0
 18 47  1  0
 22 48  1  0
 23 49  1  0
 23 50  1  0
 26 51  1  0
 27 52  1  0
 29 53  1  0
 30 54  1  0
 31 55  1  0
 31 56  1  0
 32 57  1  0
 32 58  1  0
M  CHG  1   2   1
M  END
$$$$
