
     RDKit          3D

 23 24  0  0  0  0  0  0  0  0999 V2000
   -4.2264    0.0328    1.8787 O   0  0  0  0  0  0  0  0  0  0  0  0
   -3.3140    0.2703    1.1078 C   0  0  0  0  0  0  0  0  0  0  0  0
   -2.1843   -0.6567    0.7552 C   0  0  0  0  0  0  0  0  0  0  0  0
   -1.5318   -0.0347   -0.4527 N   0  0  0  0  0  0  0  0  0  0  0  0
   -0.0662   -0.1807   -0.4795 C   0  0  0  0  0  0  0  0  0  0  0  0
    0.4961   -1.0711   -1.4026 C   0  0  0  0  0  0  0  0  0  0  0  0
    1.8882   -1.2398   -1.4675 C   0  0  0  0  0  0  0  0  0  0  0  0
    2.7334   -0.5268   -0.6125 C   0  0  0  0  0  0  0  0  0  0  0  0
    4.4307   -0.7556   -0.7713 Cl  0  0  0  0  0  0  0  0  0  0  0  0
    2.1556    0.3473    0.3047 C   0  0  0  0  0  0  0  0  0  0  0  0
    2.9796    1.1043    1.2163 N   0  0  0  0  0  0  0  0  0  0  0  0
    3.5069    0.4784    2.1404 O   0  0  0  0  0  0  0  0  0  0  0  0
    3.0068    2.3271    1.0397 O   0  0  0  0  0  0  0  0  0  0  0  0
    0.7655    0.5345    0.3862 C   0  0  0  0  0  0  0  0  0  0  0  0
   -1.9075    1.3259   -0.3579 N   0  0  0  0  0  0  0  0  0  0  0  0
   -3.1508    1.4372    0.4091 O   0  0  0  0  0  0  0  0  0  0  0  0
   -2.5538   -1.6402    0.4557 H   0  0  0  0  0  0  0  0  0  0  0  0
   -1.4745   -0.7094    1.5863 H   0  0  0  0  0  0  0  0  0  0  0  0
   -1.9300   -0.4605   -1.3077 H   0  0  0  0  0  0  0  0  0  0  0  0
   -0.1187   -1.6480   -2.0912 H   0  0  0  0  0  0  0  0  0  0  0  0
    2.3119   -1.9311   -2.1976 H   0  0  0  0  0  0  0  0  0  0  0  0
    0.3634    1.2365    1.1143 H   0  0  0  0  0  0  0  0  0  0  0  0
   -2.1800    1.7603   -1.2538 H   0  0  0  0  0  0  0  0  0  0  0  0
  1  2  2  0
  2  3  1  0
  3  4  1  0
  4  5  1  0
  5  6  2  0
  6  7  1  0
  7  8  2  0
  8  9  1  0
  8 10  1  0
 10 11  1  0
 11 12  2  0
 11 13  1  0
 10 14  2  0
  4 15  1  0
 15 16  1  0
 16  2  1  0
 14  5  1  0
  3 17  1  0
  3 18  1  0
  4 19  1  0
  6 20  1  0
  7 21  1  0
 14 22  1  0
 15 23  1  0
M  CHG  3   4   1  11   1  13  -1
M  END
$$$$
