
     RDKit          3D

 50 52  0  0  0  0  0  0  0  0999 V2000
    7.4008    2.1433    0.3298 C   0  0  0  0  0  0  0  0  0  0  0  0
    6.6687    1.6787   -0.9194 C   0  0  0  0  0  0  0  0  0  0  0  0
    5.5398    0.7463   -0.5852 C   0  0  0  0  0  0  0  0  0  0  0  0
    4.2783    1.2231   -0.2653 C   0  0  0  0  0  0  0  0  0  0  0  0
    3.2789    0.3106    0.0519 C   0  0  0  0  0  0  0  0  0  0  0  0
    3.5763   -1.0460    0.0294 C   0  0  0  0  0  0  0  0  0  0  0  0
    2.5579   -2.0987    0.3892 C   0  0  0  0  0  0  0  0  0  0  0  0
    1.2446   -1.9968   -0.3587 C   0  0  0  0  0  0  0  0  0  0  0  0
    0.1356   -1.4216    0.2921 C   0  0  0  0  0  0  0  0  0  0  0  0
   -1.0988   -1.2536   -0.3583 C   0  0  0  0  0  0  0  0  0  0  0  0
   -2.2493   -0.5819    0.3785 C   0  0  2  0  0  0  0  0  0  0  0  0
   -3.4858   -1.0688   -0.1702 O   0  0  0  0  0  0  0  0  0  0  0  0
   -4.6451   -0.5367    0.4767 C   0  0  2  0  0  0  0  0  0  0  0  0
   -5.8788   -1.1910   -0.1613 C   0  0  0  0  0  0  0  0  0  0  0  0
   -7.0819   -0.6672    0.3955 O   0  0  0  0  0  0  0  0  0  0  0  0
   -4.6901    0.9948    0.3451 C   0  0  1  0  0  0  0  0  0  0  0  0
   -5.7805    1.5830    1.0654 O   0  0  0  0  0  0  0  0  0  0  0  0
   -3.3996    1.5890    0.9061 C   0  0  2  0  0  0  0  0  0  0  0  0
   -3.3686    3.0085    0.6802 O   0  0  0  0  0  0  0  0  0  0  0  0
   -2.1604    0.9554    0.2719 C   0  0  1  0  0  0  0  0  0  0  0  0
   -1.0049    1.4766    0.9500 O   0  0  0  0  0  0  0  0  0  0  0  0
   -1.2145   -1.6758   -1.6885 C   0  0  0  0  0  0  0  0  0  0  0  0
   -0.1289   -2.2583   -2.3450 C   0  0  0  0  0  0  0  0  0  0  0  0
    1.0936   -2.4170   -1.6877 C   0  0  0  0  0  0  0  0  0  0  0  0
    2.3870   -3.1403   -2.5731 Cl  0  0  0  0  0  0  0  0  0  0  0  0
    4.8229   -1.4755   -0.2673 N   0  0  0  0  0  0  0  0  0  0  0  0
    5.8090   -0.5761   -0.5762 N   0  0  0  0  0  0  0  0  0  0  0  0
    8.2263    2.8091    0.0593 H   0  0  0  0  0  0  0  0  0  0  0  0
    7.8159    1.2947    0.8842 H   0  0  0  0  0  0  0  0  0  0  0  0
    6.7316    2.6891    1.0035 H   0  0  0  0  0  0  0  0  0  0  0  0
    7.3738    1.1673   -1.5855 H   0  0  0  0  0  0  0  0  0  0  0  0
    6.2861    2.5431   -1.4747 H   0  0  0  0  0  0  0  0  0  0  0  0
    4.0684    2.2873   -0.2593 H   0  0  0  0  0  0  0  0  0  0  0  0
    2.2854    0.6647    0.3084 H   0  0  0  0  0  0  0  0  0  0  0  0
    2.3760   -2.0322    1.4702 H   0  0  0  0  0  0  0  0  0  0  0  0
    2.9805   -3.1004    0.2388 H   0  0  0  0  0  0  0  0  0  0  0  0
    0.2398   -1.0718    1.3198 H   0  0  0  0  0  0  0  0  0  0  0  0
   -2.2012   -0.8957    1.4303 H   0  0  0  0  0  0  0  0  0  0  0  0
   -4.6337   -0.8107    1.5403 H   0  0  0  0  0  0  0  0  0  0  0  0
   -5.8900   -1.0225   -1.2439 H   0  0  0  0  0  0  0  0  0  0  0  0
   -5.8532   -2.2743    0.0011 H   0  0  0  0  0  0  0  0  0  0  0  0
   -7.8115   -1.2039    0.0320 H   0  0  0  0  0  0  0  0  0  0  0  0
   -4.7984    1.2898   -0.7059 H   0  0  0  0  0  0  0  0  0  0  0  0
   -6.5573    0.9967    0.9209 H   0  0  0  0  0  0  0  0  0  0  0  0
   -3.3676    1.4679    1.9967 H   0  0  0  0  0  0  0  0  0  0  0  0
   -4.2571    3.3216    0.9502 H   0  0  0  0  0  0  0  0  0  0  0  0
   -2.0855    1.2677   -0.7776 H   0  0  0  0  0  0  0  0  0  0  0  0
   -1.1400    2.4467    0.9578 H   0  0  0  0  0  0  0  0  0  0  0  0
   -2.1525   -1.5553   -2.2264 H   0  0  0  0  0  0  0  0  0  0  0  0
   -0.2418   -2.5828   -3.3766 H   0  0  0  0  0  0  0  0  0  0  0  0
  1  2  1  0
  2  3  1  0
  3  4  2  0
  4  5  1  0
  5  6  2  0
  6  7  1  0
  7  8  1  0
  8  9  2  0
  9 10  1  0
 10 11  1  0
 11 12  1  0
 12 13  1  0
 13 14  1  0
 14 15  1  0
 13 16  1  0
 16 17  1  0
 16 18  1  0
 18 19  1  0
 18 20  1  0
 20 21  1  0
 10 22  2  0
 22 23  1  0
 23 24  2  0
 24 25  1  0
  6 26  1  0
 26 27  2  0
 27  3  1  0
 24  8  1  0
 20 11  1  0
  1 28  1  0
  1 29  1  0
  1 30  1  0
  2 31  1  0
  2 32  1  0
  4 33  1  0
  5 34  1  0
  7 35  1  0
  7 36  1  0
  9 37  1  0
 11 38  1  1
 13 39  1  1
 14 40  1  0
 14 41  1  0
 15 42  1  0
 16 43  1  6
 17 44  1  0
 18 45  1  1
 19 46  1  0
 20 47  1  6
 21 48  1  0
 22 49  1  0
 23 50  1  0
M  END
$$$$
