
     RDKit          3D

 75 80  0  0  0  0  0  0  0  0999 V2000
   -2.3572   -2.0170    5.0928 C   0  0  0  0  0  0  0  0  0  0  0  0
   -1.5826   -1.7617    3.8265 C   0  0  0  0  0  0  0  0  0  0  0  0
   -0.2686   -2.2532    3.7414 C   0  0  0  0  0  0  0  0  0  0  0  0
    0.5072   -2.0456    2.6001 C   0  0  0  0  0  0  0  0  0  0  0  0
   -0.0162   -1.3402    1.5244 C   0  0  0  0  0  0  0  0  0  0  0  0
    0.6878   -1.0798    0.3277 N   0  0  0  0  0  0  0  0  0  0  0  0
    1.9948   -1.4124    0.0342 C   0  0  0  0  0  0  0  0  0  0  0  0
    2.8150   -1.9224    0.7892 O   0  0  0  0  0  0  0  0  0  0  0  0
    2.4511   -1.0587   -1.3426 C   0  0  0  0  0  0  0  0  0  0  0  0
    3.8097   -0.7482   -1.5213 C   0  0  0  0  0  0  0  0  0  0  0  0
    4.3426   -0.4128   -2.7738 C   0  0  0  0  0  0  0  0  0  0  0  0
    5.6949   -0.1203   -2.9146 N   0  0  0  0  0  0  0  0  0  0  0  0
    6.3689   -0.3232   -4.2065 C   0  0  0  0  0  0  0  0  0  0  0  0
    7.8755   -0.5951   -4.0107 C   0  0  0  0  0  0  0  0  0  0  0  0
    8.5406    0.4548   -3.1276 N   0  0  0  0  0  0  0  0  0  0  0  0
    8.7525    1.7704   -3.8136 C   0  0  0  0  0  0  0  0  0  0  0  0
    7.8073    0.5715   -1.7948 C   0  0  0  0  0  0  0  0  0  0  0  0
    6.3031    0.8508   -1.9851 C   0  0  0  0  0  0  0  0  0  0  0  0
    3.4553   -0.4189   -3.8595 C   0  0  0  0  0  0  0  0  0  0  0  0
    2.0925   -0.7517   -3.7158 C   0  0  0  0  0  0  0  0  0  0  0  0
    1.1824   -0.7329   -4.9214 C   0  0  0  0  0  0  0  0  0  0  0  0
    1.8094   -1.1527   -6.0551 F   0  0  0  0  0  0  0  0  0  0  0  0
    0.7205    0.5179   -5.1892 F   0  0  0  0  0  0  0  0  0  0  0  0
    0.0860   -1.5236   -4.7802 F   0  0  0  0  0  0  0  0  0  0  0  0
    1.5944   -1.0689   -2.4451 C   0  0  0  0  0  0  0  0  0  0  0  0
   -1.3306   -0.8552    1.6056 C   0  0  0  0  0  0  0  0  0  0  0  0
   -2.1408   -1.0557    2.7362 C   0  0  0  0  0  0  0  0  0  0  0  0
   -3.4580   -0.5536    2.8234 N   0  0  0  0  0  0  0  0  0  0  0  0
   -4.1473    0.2446    1.9655 C   0  0  0  0  0  0  0  0  0  0  0  0
   -3.7251    0.8015    0.8499 N   0  0  0  0  0  0  0  0  0  0  0  0
   -4.7963    1.4534    0.3166 C   0  0  0  0  0  0  0  0  0  0  0  0
   -4.8719    2.1546   -0.8978 C   0  0  0  0  0  0  0  0  0  0  0  0
   -6.0984    2.6874   -1.3010 C   0  0  0  0  0  0  0  0  0  0  0  0
   -7.2342    2.5081   -0.5172 C   0  0  0  0  0  0  0  0  0  0  0  0
   -7.1738    1.8198    0.7011 C   0  0  0  0  0  0  0  0  0  0  0  0
   -5.9238    1.3303    1.1253 C   0  0  0  0  0  0  0  0  0  0  0  0
   -5.4699    0.6345    2.2467 N   0  0  0  0  0  0  0  0  0  0  0  0
   -6.1729    0.3538    3.4673 C   0  0  0  0  0  0  0  0  0  0  0  0
   -7.2527    1.1246    3.8525 C   0  0  0  0  0  0  0  0  0  0  0  0
   -7.8706    0.7882    5.0384 C   0  0  0  0  0  0  0  0  0  0  0  0
   -8.9794    1.4807    5.4773 N   0  0  0  0  0  0  0  0  0  0  0  0
   -7.4782   -0.2440    5.7888 N   0  0  0  0  0  0  0  0  0  0  0  0
   -6.4069   -0.9160    5.3595 C   0  0  0  0  0  0  0  0  0  0  0  0
   -5.7097   -0.6579    4.2435 N   0  0  0  0  0  0  0  0  0  0  0  0
   -1.7460   -2.5271    5.8451 H   0  0  0  0  0  0  0  0  0  0  0  0
   -2.6908   -1.0717    5.5332 H   0  0  0  0  0  0  0  0  0  0  0  0
   -3.2232   -2.6536    4.8851 H   0  0  0  0  0  0  0  0  0  0  0  0
    0.1665   -2.8062    4.5717 H   0  0  0  0  0  0  0  0  0  0  0  0
    1.5130   -2.4514    2.5868 H   0  0  0  0  0  0  0  0  0  0  0  0
    0.1630   -0.5544   -0.3593 H   0  0  0  0  0  0  0  0  0  0  0  0
    4.4601   -0.8096   -0.6505 H   0  0  0  0  0  0  0  0  0  0  0  0
    6.2221    0.5582   -4.8416 H   0  0  0  0  0  0  0  0  0  0  0  0
    5.9521   -1.1898   -4.7342 H   0  0  0  0  0  0  0  0  0  0  0  0
    8.4118   -0.6147   -4.9648 H   0  0  0  0  0  0  0  0  0  0  0  0
    8.0293   -1.5541   -3.5027 H   0  0  0  0  0  0  0  0  0  0  0  0
    9.4753    0.0893   -2.9052 H   0  0  0  0  0  0  0  0  0  0  0  0
    7.7859    2.2043   -4.0772 H   0  0  0  0  0  0  0  0  0  0  0  0
    9.3533    1.5900   -4.7088 H   0  0  0  0  0  0  0  0  0  0  0  0
    9.2976    2.4241   -3.1278 H   0  0  0  0  0  0  0  0  0  0  0  0
    7.9595   -0.3857   -1.2832 H   0  0  0  0  0  0  0  0  0  0  0  0
    8.2972    1.3608   -1.2157 H   0  0  0  0  0  0  0  0  0  0  0  0
    5.8390    0.8365   -0.9937 H   0  0  0  0  0  0  0  0  0  0  0  0
    6.1552    1.8616   -2.3841 H   0  0  0  0  0  0  0  0  0  0  0  0
    3.8054   -0.1503   -4.8551 H   0  0  0  0  0  0  0  0  0  0  0  0
    0.5494   -1.3553   -2.3385 H   0  0  0  0  0  0  0  0  0  0  0  0
   -1.7347   -0.3150    0.7563 H   0  0  0  0  0  0  0  0  0  0  0  0
   -3.9773   -0.8878    3.6352 H   0  0  0  0  0  0  0  0  0  0  0  0
   -3.9890    2.2575   -1.5190 H   0  0  0  0  0  0  0  0  0  0  0  0
   -6.1692    3.2227   -2.2449 H   0  0  0  0  0  0  0  0  0  0  0  0
   -8.1897    2.8992   -0.8629 H   0  0  0  0  0  0  0  0  0  0  0  0
   -8.0888    1.6569    1.2601 H   0  0  0  0  0  0  0  0  0  0  0  0
   -7.5969    1.9886    3.3063 H   0  0  0  0  0  0  0  0  0  0  0  0
   -9.0241    2.4798    5.3428 H   0  0  0  0  0  0  0  0  0  0  0  0
   -9.3611    1.1179    6.3434 H   0  0  0  0  0  0  0  0  0  0  0  0
   -6.0713   -1.7456    5.9728 H   0  0  0  0  0  0  0  0  0  0  0  0
  1  2  1  0
  2  3  2  0
  3  4  1  0
  4  5  2  0
  5  6  1  0
  6  7  1  0
  7  8  2  0
  7  9  1  0
  9 10  2  0
 10 11  1  0
 11 12  1  0
 12 13  1  0
 13 14  1  0
 14 15  1  0
 15 16  1  0
 15 17  1  0
 17 18  1  0
 11 19  2  0
 19 20  1  0
 20 21  1  0
 21 22  1  0
 21 23  1  0
 21 24  1  0
 20 25  2  0
  5 26  1  0
 26 27  2  0
 27 28  1  0
 28 29  1  0
 29 30  2  0
 30 31  1  0
 31 32  2  0
 32 33  1  0
 33 34  2  0
 34 35  1  0
 35 36  2  0
 36 37  1  0
 37 38  1  0
 38 39  2  0
 39 40  1  0
 40 41  1  0
 40 42  2  0
 42 43  1  0
 43 44  2  0
 27  2  1  0
 37 29  1  0
 44 38  1  0
 25  9  1  0
 36 31  1  0
 18 12  1  0
  1 45  1  0
  1 46  1  0
  1 47  1  0
  3 48  1  0
  4 49  1  0
  6 50  1  0
 10 51  1  0
 13 52  1  0
 13 53  1  0
 14 54  1  0
 14 55  1  0
 15 56  1  0
 16 57  1  0
 16 58  1  0
 16 59  1  0
 17 60  1  0
 17 61  1  0
 18 62  1  0
 18 63  1  0
 19 64  1  0
 25 65  1  0
 26 66  1  0
 28 67  1  0
 32 68  1  0
 33 69  1  0
 34 70  1  0
 35 71  1  0
 39 72  1  0
 41 73  1  0
 41 74  1  0
 43 75  1  0
M  CHG  1  15   1
M  END
$$$$
