
     RDKit          3D

 28 29  0  0  0  0  0  0  0  0999 V2000
    3.2042   -1.0024    0.5804 C   0  0  0  0  0  0  0  0  0  0  0  0
    3.5271    0.3315   -0.0776 C   0  0  0  0  0  0  0  0  0  0  0  0
    2.5074    0.7404   -1.1403 C   0  0  0  0  0  0  0  0  0  0  0  0
    1.2176    1.0382   -0.5531 N   0  0  0  0  0  0  0  0  0  0  0  0
    1.0173    2.2553    0.1130 N   0  0  0  0  0  0  0  0  0  0  0  0
   -0.2161    2.2030    0.5475 C   0  0  0  0  0  0  0  0  0  0  0  0
   -0.8983    0.9503    0.1974 C   0  0  0  0  0  0  0  0  0  0  0  0
   -2.1007    0.4073    0.3873 C   0  0  0  0  0  0  0  0  0  0  0  0
   -3.0871    1.0653    1.0741 N   0  0  0  0  0  0  0  0  0  0  0  0
   -2.2917   -0.8651   -0.1523 N   0  0  0  0  0  0  0  0  0  0  0  0
   -3.5748   -1.5347    0.0069 C   0  0  0  0  0  0  0  0  0  0  0  0
   -1.2817   -1.5595   -0.8627 C   0  0  0  0  0  0  0  0  0  0  0  0
   -1.4880   -2.6813   -1.3220 O   0  0  0  0  0  0  0  0  0  0  0  0
   -0.0517   -0.9672   -1.0400 N   0  0  0  0  0  0  0  0  0  0  0  0
    0.1158    0.2010   -0.5432 C   0  0  0  0  0  0  0  0  0  0  0  0
    3.1047   -1.7958   -0.1670 H   0  0  0  0  0  0  0  0  0  0  0  0
    4.0064   -1.2851    1.2696 H   0  0  0  0  0  0  0  0  0  0  0  0
    2.2752   -0.9499    1.1560 H   0  0  0  0  0  0  0  0  0  0  0  0
    3.6037    1.1054    0.6952 H   0  0  0  0  0  0  0  0  0  0  0  0
    4.5128    0.2550   -0.5517 H   0  0  0  0  0  0  0  0  0  0  0  0
    2.4153   -0.0463   -1.8983 H   0  0  0  0  0  0  0  0  0  0  0  0
    2.8747    1.6318   -1.6628 H   0  0  0  0  0  0  0  0  0  0  0  0
   -0.7267    2.9884    1.1187 H   0  0  0  0  0  0  0  0  0  0  0  0
   -2.9331    1.9883    1.4594 H   0  0  0  0  0  0  0  0  0  0  0  0
   -3.9923    0.6358    1.2076 H   0  0  0  0  0  0  0  0  0  0  0  0
   -3.5987   -2.5224   -0.4605 H   0  0  0  0  0  0  0  0  0  0  0  0
   -3.7832   -1.6624    1.0741 H   0  0  0  0  0  0  0  0  0  0  0  0
   -4.3579   -0.9249   -0.4556 H   0  0  0  0  0  0  0  0  0  0  0  0
  1  2  1  0
  2  3  1  0
  3  4  1  0
  4  5  1  0
  5  6  2  0
  6  7  1  0
  7  8  2  0
  8  9  1  0
  8 10  1  0
 10 11  1  0
 10 12  1  0
 12 13  2  0
 12 14  1  0
 14 15  2  0
 15  4  1  0
 15  7  1  0
  1 16  1  0
  1 17  1  0
  1 18  1  0
  2 19  1  0
  2 20  1  0
  3 21  1  0
  3 22  1  0
  6 23  1  0
  9 24  1  0
  9 25  1  0
 11 26  1  0
 11 27  1  0
 11 28  1  0
M  END
$$$$
