
     RDKit          3D

 69 74  0  0  0  0  0  0  0  0999 V2000
   -1.1890   -0.0184   -0.6661 O   0  0  0  0  0  0  0  0  0  0  0  0
   -2.0343    0.7910   -0.3025 C   0  0  0  0  0  0  0  0  0  0  0  0
   -1.8379    2.1412   -0.0708 N   0  0  0  0  0  0  0  0  0  0  0  0
   -0.6056    2.8295   -0.0648 C   0  0  0  0  0  0  0  0  0  0  0  0
   -0.6509    4.2256    0.0020 C   0  0  0  0  0  0  0  0  0  0  0  0
    0.5277    4.9714    0.0155 C   0  0  0  0  0  0  0  0  0  0  0  0
    1.7647    4.3287   -0.0418 C   0  0  0  0  0  0  0  0  0  0  0  0
    1.8299    2.9301   -0.1131 C   0  0  0  0  0  0  0  0  0  0  0  0
    3.1003    2.2715   -0.1604 N   0  0  0  0  0  0  0  0  0  0  0  0
    4.2663    2.8040    0.3456 C   0  0  0  0  0  0  0  0  0  0  0  0
    5.2672    1.8699    0.2420 C   0  0  0  0  0  0  0  0  0  0  0  0
    4.7468    0.7120   -0.3968 C   0  0  0  0  0  0  0  0  0  0  0  0
    5.2738   -0.5379   -0.8019 C   0  0  0  0  0  0  0  0  0  0  0  0
    6.5437   -1.0636   -0.5669 N   0  0  0  0  0  0  0  0  0  0  0  0
    7.5069   -0.6758    0.3269 C   0  0  0  0  0  0  0  0  0  0  0  0
    7.3954    0.1535    1.2196 O   0  0  0  0  0  0  0  0  0  0  0  0
    8.7946   -1.4227    0.2157 C   0  0  0  0  0  0  0  0  0  0  0  0
    9.5456   -1.6402    1.3780 C   0  0  0  0  0  0  0  0  0  0  0  0
   10.7557   -2.3330    1.3128 C   0  0  0  0  0  0  0  0  0  0  0  0
   11.2249   -2.8019    0.0862 C   0  0  0  0  0  0  0  0  0  0  0  0
   10.4908   -2.5734   -1.0778 C   0  0  0  0  0  0  0  0  0  0  0  0
    9.2789   -1.8814   -1.0175 C   0  0  0  0  0  0  0  0  0  0  0  0
    4.5220   -1.3688   -1.5709 N   0  0  0  0  0  0  0  0  0  0  0  0
    3.2659   -1.0214   -1.8995 C   0  0  0  0  0  0  0  0  0  0  0  0
    2.6492    0.1494   -1.5089 C   0  0  0  0  0  0  0  0  0  0  0  0
    3.4068    1.0214   -0.7135 C   0  0  0  0  0  0  0  0  0  0  0  0
    0.6378    2.1901   -0.0978 C   0  0  0  0  0  0  0  0  0  0  0  0
   -3.4405    0.3210   -0.1422 C   0  0  0  0  0  0  0  0  0  0  0  0
   -3.8988   -0.7074   -0.9664 C   0  0  0  0  0  0  0  0  0  0  0  0
   -5.2081   -1.1759   -0.8387 C   0  0  0  0  0  0  0  0  0  0  0  0
   -6.0834   -0.6389    0.1182 C   0  0  0  0  0  0  0  0  0  0  0  0
   -7.3856   -1.1075    0.2373 N   0  0  0  0  0  0  0  0  0  0  0  0
   -7.5640   -2.5196    0.6219 C   0  0  0  0  0  0  0  0  0  0  0  0
   -9.0315   -2.7690    1.0045 C   0  0  0  0  0  0  0  0  0  0  0  0
   -9.9234   -2.3792   -0.0546 O   0  0  0  0  0  0  0  0  0  0  0  0
   -9.7776   -0.9757   -0.3322 C   0  0  0  0  0  0  0  0  0  0  0  0
   -8.3463   -0.6360   -0.7772 C   0  0  0  0  0  0  0  0  0  0  0  0
   -5.6208    0.3880    0.9611 C   0  0  0  0  0  0  0  0  0  0  0  0
   -6.5228    0.9782    2.0190 C   0  0  0  0  0  0  0  0  0  0  0  0
   -6.9321    0.0773    2.9559 F   0  0  0  0  0  0  0  0  0  0  0  0
   -7.6517    1.5523    1.5117 F   0  0  0  0  0  0  0  0  0  0  0  0
   -5.9118    1.9768    2.7278 F   0  0  0  0  0  0  0  0  0  0  0  0
   -4.2956    0.8565    0.8280 C   0  0  0  0  0  0  0  0  0  0  0  0
   -2.6614    2.7181    0.0390 H   0  0  0  0  0  0  0  0  0  0  0  0
   -1.6001    4.7536    0.0385 H   0  0  0  0  0  0  0  0  0  0  0  0
    0.4833    6.0570    0.0608 H   0  0  0  0  0  0  0  0  0  0  0  0
    2.6588    4.9460   -0.0621 H   0  0  0  0  0  0  0  0  0  0  0  0
    4.2962    3.7815    0.8049 H   0  0  0  0  0  0  0  0  0  0  0  0
    6.2785    2.0295    0.5888 H   0  0  0  0  0  0  0  0  0  0  0  0
    6.6747   -1.9224   -1.0824 H   0  0  0  0  0  0  0  0  0  0  0  0
    9.1865   -1.2718    2.3371 H   0  0  0  0  0  0  0  0  0  0  0  0
   11.3325   -2.5026    2.2185 H   0  0  0  0  0  0  0  0  0  0  0  0
   12.1695   -3.3385    0.0365 H   0  0  0  0  0  0  0  0  0  0  0  0
   10.8683   -2.9269   -2.0344 H   0  0  0  0  0  0  0  0  0  0  0  0
    8.7405   -1.6863   -1.9411 H   0  0  0  0  0  0  0  0  0  0  0  0
    2.7352   -1.7406   -2.5180 H   0  0  0  0  0  0  0  0  0  0  0  0
    1.6403    0.3676   -1.8380 H   0  0  0  0  0  0  0  0  0  0  0  0
    0.6783    1.1090   -0.0387 H   0  0  0  0  0  0  0  0  0  0  0  0
   -3.2399   -1.1483   -1.7123 H   0  0  0  0  0  0  0  0  0  0  0  0
   -5.5453   -1.9715   -1.4997 H   0  0  0  0  0  0  0  0  0  0  0  0
   -7.2973   -3.1663   -0.2229 H   0  0  0  0  0  0  0  0  0  0  0  0
   -6.9208   -2.7735    1.4725 H   0  0  0  0  0  0  0  0  0  0  0  0
   -9.1897   -3.8348    1.1967 H   0  0  0  0  0  0  0  0  0  0  0  0
   -9.2997   -2.2206    1.9156 H   0  0  0  0  0  0  0  0  0  0  0  0
  -10.4847   -0.7190   -1.1272 H   0  0  0  0  0  0  0  0  0  0  0  0
  -10.0572   -0.4053    0.5618 H   0  0  0  0  0  0  0  0  0  0  0  0
   -8.1350   -1.1317   -1.7329 H   0  0  0  0  0  0  0  0  0  0  0  0
   -8.2615    0.4471   -0.9229 H   0  0  0  0  0  0  0  0  0  0  0  0
   -3.9330    1.6198    1.5146 H   0  0  0  0  0  0  0  0  0  0  0  0
  1  2  2  0
  2  3  1  0
  3  4  1  0
  4  5  2  0
  5  6  1  0
  6  7  2  0
  7  8  1  0
  8  9  1  0
  9 10  1  0
 10 11  2  0
 11 12  1  0
 12 13  2  0
 13 14  1  0
 14 15  1  0
 15 16  2  0
 15 17  1  0
 17 18  2  0
 18 19  1  0
 19 20  2  0
 20 21  1  0
 21 22  2  0
 13 23  1  0
 23 24  2  0
 24 25  1  0
 25 26  2  0
  8 27  2  0
  2 28  1  0
 28 29  2  0
 29 30  1  0
 30 31  2  0
 31 32  1  0
 32 33  1  0
 33 34  1  0
 34 35  1  0
 35 36  1  0
 36 37  1  0
 31 38  1  0
 38 39  1  0
 39 40  1  0
 39 41  1  0
 39 42  1  0
 38 43  2  0
 27  4  1  0
 43 28  1  0
 26  9  1  0
 37 32  1  0
 26 12  1  0
 22 17  1  0
  3 44  1  0
  5 45  1  0
  6 46  1  0
  7 47  1  0
 10 48  1  0
 11 49  1  0
 14 50  1  0
 18 51  1  0
 19 52  1  0
 20 53  1  0
 21 54  1  0
 22 55  1  0
 24 56  1  0
 25 57  1  0
 27 58  1  0
 29 59  1  0
 30 60  1  0
 33 61  1  0
 33 62  1  0
 34 63  1  0
 34 64  1  0
 36 65  1  0
 36 66  1  0
 37 67  1  0
 37 68  1  0
 43 69  1  0
M  END
$$$$
