
     RDKit          3D

 84 88  0  0  0  0  0  0  0  0999 V2000
    8.7735   -0.2475    1.7049 C   0  0  0  0  0  0  0  0  0  0  0  0
    7.6208    0.4038    1.0031 C   0  0  0  0  0  0  0  0  0  0  0  0
    7.7410    1.1253    0.0202 O   0  0  0  0  0  0  0  0  0  0  0  0
    6.4715    0.1030    1.6523 O   0  0  0  0  0  0  0  0  0  0  0  0
    5.2124    0.3874    1.0040 C   0  0  2  0  0  0  0  0  0  0  0  0
    4.2561    0.9398    2.0608 C   0  0  0  0  0  0  0  0  0  0  0  0
    2.9088    1.4061    1.4911 C   0  0  0  0  0  0  0  0  0  0  0  0
    2.4114    0.6369    0.2171 C   0  0  1  0  0  0  0  0  0  0  0  0
    2.8947    1.4440   -1.0166 C   0  0  0  0  0  0  0  0  0  0  0  0
    3.0392   -0.8039    0.2600 C   0  0  1  0  0  0  0  0  0  0  0  0
    2.3871   -1.7468   -0.7697 C   0  0  0  0  0  0  0  0  0  0  0  0
    0.8718   -1.8651   -0.5552 C   0  0  0  0  0  0  0  0  0  0  0  0
    0.1071   -0.5159   -0.6554 C   0  0  2  0  0  0  0  0  0  0  0  0
    0.1716   -0.0458   -2.1395 C   0  0  0  0  0  0  0  0  0  0  0  0
    0.8126    0.5286    0.2881 C   0  0  2  0  0  0  0  0  0  0  0  0
    0.0902    1.8937    0.2245 C   0  0  0  0  0  0  0  0  0  0  0  0
   -1.4063    1.8252    0.1846 C   0  0  0  0  0  0  0  0  0  0  0  0
   -2.1314    0.7030    0.0093 C   0  0  0  0  0  0  0  0  0  0  0  0
   -3.6623    0.7893    0.0539 C   0  0  2  0  0  0  0  0  0  0  0  0
   -4.2121    0.3833    1.4407 C   0  0  0  0  0  0  0  0  0  0  0  0
   -5.7496    0.4468    1.5585 C   0  0  0  0  0  0  0  0  0  0  0  0
   -6.2502    1.9024    1.5072 C   0  0  0  0  0  0  0  0  0  0  0  0
   -6.1711   -0.1469    2.9175 C   0  0  0  0  0  0  0  0  0  0  0  0
   -6.3751   -0.3973    0.4326 C   0  0  0  0  0  0  0  0  0  0  0  0
   -5.8802   -0.0024   -0.9569 C   0  0  0  0  0  0  0  0  0  0  0  0
   -4.3362    0.0207   -1.1143 C   0  0  1  0  0  0  0  0  0  0  0  0
   -4.0479    0.7395   -2.4582 C   0  0  0  0  0  0  0  0  0  0  0  0
   -3.7846   -1.4235   -1.1602 C   0  0  0  0  0  0  0  0  0  0  0  0
   -2.2570   -1.4680   -1.3108 C   0  0  0  0  0  0  0  0  0  0  0  0
   -1.4571   -0.6816   -0.2186 C   0  0  1  0  0  0  0  0  0  0  0  0
   -1.5790   -1.5066    1.1488 C   0  0  0  0  0  0  0  0  0  0  0  0
   -1.9494   -2.7156    1.0392 O   0  0  0  0  0  0  0  0  0  0  0  0
   -1.3370   -0.8735    2.2191 O   0  0  0  0  0  0  0  0  0  0  0  0
    4.6241   -0.8440    0.2524 C   0  0  1  0  0  0  0  0  0  0  0  0
    5.2250   -0.9092   -1.1695 C   0  0  0  0  0  0  0  0  0  0  0  0
    5.1389   -2.1093    1.0306 C   0  0  0  0  0  0  0  0  0  0  0  0
    4.6252   -2.3194    2.1653 O   0  0  0  0  0  0  0  0  0  0  0  0
    6.0577   -2.7802    0.4681 O   0  0  0  0  0  0  0  0  0  0  0  0
    9.6881   -0.0847    1.1276 H   0  0  0  0  0  0  0  0  0  0  0  0
    8.8989    0.1917    2.6975 H   0  0  0  0  0  0  0  0  0  0  0  0
    8.6034   -1.3248    1.7793 H   0  0  0  0  0  0  0  0  0  0  0  0
    5.3898    1.2011    0.2949 H   0  0  0  0  0  0  0  0  0  0  0  0
    4.7309    1.7725    2.5955 H   0  0  0  0  0  0  0  0  0  0  0  0
    4.0825    0.1806    2.8337 H   0  0  0  0  0  0  0  0  0  0  0  0
    2.9675    2.4807    1.2726 H   0  0  0  0  0  0  0  0  0  0  0  0
    2.1788    1.3200    2.3060 H   0  0  0  0  0  0  0  0  0  0  0  0
    3.8978    1.8532   -0.8835 H   0  0  0  0  0  0  0  0  0  0  0  0
    2.9379    0.8451   -1.9255 H   0  0  0  0  0  0  0  0  0  0  0  0
    2.2779    2.3190   -1.2244 H   0  0  0  0  0  0  0  0  0  0  0  0
    2.7220   -1.2101    1.2326 H   0  0  0  0  0  0  0  0  0  0  0  0
    2.5926   -1.4229   -1.7943 H   0  0  0  0  0  0  0  0  0  0  0  0
    2.8207   -2.7495   -0.6685 H   0  0  0  0  0  0  0  0  0  0  0  0
    0.7219   -2.3138    0.4333 H   0  0  0  0  0  0  0  0  0  0  0  0
    0.4701   -2.5830   -1.2803 H   0  0  0  0  0  0  0  0  0  0  0  0
    1.1627    0.2573   -2.4569 H   0  0  0  0  0  0  0  0  0  0  0  0
   -0.4931    0.7998   -2.3389 H   0  0  0  0  0  0  0  0  0  0  0  0
   -0.0956   -0.8543   -2.8286 H   0  0  0  0  0  0  0  0  0  0  0  0
    0.6344    0.1510    1.3035 H   0  0  0  0  0  0  0  0  0  0  0  0
    0.3783    2.4949    1.0946 H   0  0  0  0  0  0  0  0  0  0  0  0
    0.3823    2.4635   -0.6608 H   0  0  0  0  0  0  0  0  0  0  0  0
   -1.9145    2.7704    0.3506 H   0  0  0  0  0  0  0  0  0  0  0  0
   -3.9304    1.8474   -0.0787 H   0  0  0  0  0  0  0  0  0  0  0  0
   -3.9109   -0.6418    1.6757 H   0  0  0  0  0  0  0  0  0  0  0  0
   -3.7574    1.0190    2.2126 H   0  0  0  0  0  0  0  0  0  0  0  0
   -7.3396    1.9451    1.6194 H   0  0  0  0  0  0  0  0  0  0  0  0
   -6.0019    2.4026    0.5671 H   0  0  0  0  0  0  0  0  0  0  0  0
   -5.8111    2.4954    2.3176 H   0  0  0  0  0  0  0  0  0  0  0  0
   -5.7344    0.4185    3.7485 H   0  0  0  0  0  0  0  0  0  0  0  0
   -7.2605   -0.1292    3.0360 H   0  0  0  0  0  0  0  0  0  0  0  0
   -5.8440   -1.1882    3.0167 H   0  0  0  0  0  0  0  0  0  0  0  0
   -6.1572   -1.4598    0.5991 H   0  0  0  0  0  0  0  0  0  0  0  0
   -7.4687   -0.3077    0.4588 H   0  0  0  0  0  0  0  0  0  0  0  0
   -6.3179   -0.6880   -1.6944 H   0  0  0  0  0  0  0  0  0  0  0  0
   -6.2900    0.9867   -1.1981 H   0  0  0  0  0  0  0  0  0  0  0  0
   -2.9802    0.8754   -2.6496 H   0  0  0  0  0  0  0  0  0  0  0  0
   -4.4681    0.1774   -3.2999 H   0  0  0  0  0  0  0  0  0  0  0  0
   -4.4973    1.7395   -2.4715 H   0  0  0  0  0  0  0  0  0  0  0  0
   -4.0809   -1.9810   -0.2660 H   0  0  0  0  0  0  0  0  0  0  0  0
   -4.2307   -1.9623   -2.0065 H   0  0  0  0  0  0  0  0  0  0  0  0
   -2.0493   -1.0809   -2.3101 H   0  0  0  0  0  0  0  0  0  0  0  0
   -1.9377   -2.5167   -1.3510 H   0  0  0  0  0  0  0  0  0  0  0  0
    4.9200   -1.8174   -1.7011 H   0  0  0  0  0  0  0  0  0  0  0  0
    6.3206   -0.9136   -1.1504 H   0  0  0  0  0  0  0  0  0  0  0  0
    4.9379   -0.0546   -1.7841 H   0  0  0  0  0  0  0  0  0  0  0  0
  1  2  1  0
  2  3  2  0
  2  4  1  0
  4  5  1  0
  5  6  1  0
  6  7  1  0
  7  8  1  0
  8  9  1  6
  8 10  1  0
 10 11  1  0
 11 12  1  0
 12 13  1  0
 13 14  1  6
 13 15  1  0
 15 16  1  0
 16 17  1  0
 17 18  2  0
 18 19  1  0
 19 20  1  0
 20 21  1  0
 21 22  1  0
 21 23  1  0
 21 24  1  0
 24 25  1  0
 25 26  1  0
 26 27  1  6
 26 28  1  0
 28 29  1  0
 29 30  1  0
 30 31  1  1
 31 32  2  0
 31 33  1  0
 10 34  1  0
 34 35  1  6
 34 36  1  0
 36 37  2  0
 36 38  1  0
 34  5  1  0
 15  8  1  0
 30 18  1  0
 30 13  1  0
 26 19  1  0
  1 39  1  0
  1 40  1  0
  1 41  1  0
  5 42  1  6
  6 43  1  0
  6 44  1  0
  7 45  1  0
  7 46  1  0
  9 47  1  0
  9 48  1  0
  9 49  1  0
 10 50  1  1
 11 51  1  0
 11 52  1  0
 12 53  1  0
 12 54  1  0
 14 55  1  0
 14 56  1  0
 14 57  1  0
 15 58  1  1
 16 59  1  0
 16 60  1  0
 17 61  1  0
 19 62  1  6
 20 63  1  0
 20 64  1  0
 22 65  1  0
 22 66  1  0
 22 67  1  0
 23 68  1  0
 23 69  1  0
 23 70  1  0
 24 71  1  0
 24 72  1  0
 25 73  1  0
 25 74  1  0
 27 75  1  0
 27 76  1  0
 27 77  1  0
 28 78  1  0
 28 79  1  0
 29 80  1  0
 29 81  1  0
 35 82  1  0
 35 83  1  0
 35 84  1  0
M  CHG  2  33  -1  38  -1
M  END
$$$$
