
     RDKit          3D

 79 83  0  0  0  0  0  0  0  0999 V2000
   -6.6687   -3.6769    0.7172 C   0  0  0  0  0  0  0  0  0  0  0  0
   -5.8455   -2.6838   -0.0387 C   0  0  0  0  0  0  0  0  0  0  0  0
   -4.5926   -2.2659    0.2339 C   0  0  0  0  0  0  0  0  0  0  0  0
   -3.7306   -2.7465    1.3628 C   0  0  0  0  0  0  0  0  0  0  0  0
   -4.0120   -1.2479   -0.6972 C   0  0  0  0  0  0  0  0  0  0  0  0
   -4.5264   -0.8869   -1.7454 O   0  0  0  0  0  0  0  0  0  0  0  0
   -2.8449   -0.7702   -0.1916 O   0  0  0  0  0  0  0  0  0  0  0  0
   -2.1212    0.1678   -1.0242 C   0  0  1  0  0  0  0  0  0  0  0  0
   -1.4843    1.2834   -0.1219 C   0  0  0  0  0  0  0  0  0  0  0  0
   -2.6728    2.1072    0.4658 C   0  0  0  0  0  0  0  0  0  0  0  0
   -0.8031    0.7342    1.1554 C   0  0  0  0  0  0  0  0  0  0  0  0
   -0.4675    2.1840   -0.9739 C   0  0  2  0  0  0  0  0  0  0  0  0
   -1.2433    3.2922   -1.7739 C   0  0  0  0  0  0  0  0  0  0  0  0
   -1.5217    4.5403   -0.9569 C   0  0  0  0  0  0  0  0  0  0  0  0
   -0.8123    4.9536   -0.0507 O   0  0  0  0  0  0  0  0  0  0  0  0
   -2.6560    5.1432   -1.4062 O   0  0  0  0  0  0  0  0  0  0  0  0
   -2.9948    6.3420   -0.7076 C   0  0  0  0  0  0  0  0  0  0  0  0
    0.5245    1.3664   -1.9399 C   0  0  2  0  0  0  0  0  0  0  0  0
    1.3273    2.3230   -2.8652 C   0  0  0  0  0  0  0  0  0  0  0  0
   -0.4023    0.4788   -2.7604 C   0  0  0  0  0  0  0  0  0  0  0  0
   -0.6318    0.6577   -3.9556 O   0  0  0  0  0  0  0  0  0  0  0  0
   -1.1260   -0.5904   -1.9340 C   0  0  2  0  0  0  0  0  0  0  0  0
   -1.8027   -1.5043   -2.7917 O   0  0  0  0  0  0  0  0  0  0  0  0
   -0.1111   -1.4142   -1.2004 C   0  0  0  0  0  0  0  0  0  0  0  0
    1.1491   -1.0180   -0.9403 C   0  0  0  0  0  0  0  0  0  0  0  0
    2.1545   -1.9028   -0.3293 C   0  0  0  0  0  0  0  0  0  0  0  0
    2.0631   -3.2461   -0.3641 C   0  0  0  0  0  0  0  0  0  0  0  0
    3.0684   -4.1309    0.2494 C   0  0  0  0  0  0  0  0  0  0  0  0
    3.0833   -5.3271   -0.0070 O   0  0  0  0  0  0  0  0  0  0  0  0
    3.9594   -3.5560    1.0871 O   0  0  0  0  0  0  0  0  0  0  0  0
    3.7080   -2.2152    1.5619 C   0  0  1  0  0  0  0  0  0  0  0  0
    4.8612   -1.7630    2.4159 C   0  0  0  0  0  0  0  0  0  0  0  0
    4.8016   -0.9827    3.6092 C   0  0  0  0  0  0  0  0  0  0  0  0
    6.0967   -0.8270    4.0429 C   0  0  0  0  0  0  0  0  0  0  0  0
    6.9535   -1.4664    3.2091 O   0  0  0  0  0  0  0  0  0  0  0  0
    6.2030   -2.0416    2.2371 C   0  0  0  0  0  0  0  0  0  0  0  0
    3.3655   -1.2704    0.3648 C   0  0  1  0  0  0  0  0  0  0  0  0
    4.5477   -1.1809   -0.6312 C   0  0  0  0  0  0  0  0  0  0  0  0
    2.9947    0.1354    0.8788 C   0  0  0  0  0  0  0  0  0  0  0  0
    2.4492    1.0752   -0.1992 C   0  0  0  0  0  0  0  0  0  0  0  0
    1.6021    0.3926   -1.2974 C   0  0  2  0  0  0  0  0  0  0  0  0
   -6.2050   -4.0181    1.6444 H   0  0  0  0  0  0  0  0  0  0  0  0
   -7.6322   -3.2278    0.9790 H   0  0  0  0  0  0  0  0  0  0  0  0
   -6.8617   -4.5518    0.0888 H   0  0  0  0  0  0  0  0  0  0  0  0
   -6.3602   -2.2677   -0.9068 H   0  0  0  0  0  0  0  0  0  0  0  0
   -3.5646   -1.9410    2.0859 H   0  0  0  0  0  0  0  0  0  0  0  0
   -2.7582   -3.0833    0.9863 H   0  0  0  0  0  0  0  0  0  0  0  0
   -4.1617   -3.5909    1.9048 H   0  0  0  0  0  0  0  0  0  0  0  0
   -2.8363    0.6750   -1.6875 H   0  0  0  0  0  0  0  0  0  0  0  0
   -3.3339    2.5051   -0.3097 H   0  0  0  0  0  0  0  0  0  0  0  0
   -3.3065    1.4858    1.1109 H   0  0  0  0  0  0  0  0  0  0  0  0
   -2.3154    2.9383    1.0828 H   0  0  0  0  0  0  0  0  0  0  0  0
    0.0182    0.0562    0.9686 H   0  0  0  0  0  0  0  0  0  0  0  0
   -1.5119    0.1882    1.7893 H   0  0  0  0  0  0  0  0  0  0  0  0
   -0.4020    1.5558    1.7613 H   0  0  0  0  0  0  0  0  0  0  0  0
    0.1605    2.7193   -0.2551 H   0  0  0  0  0  0  0  0  0  0  0  0
   -0.6854    3.6768   -2.6267 H   0  0  0  0  0  0  0  0  0  0  0  0
   -2.1774    2.8880   -2.1775 H   0  0  0  0  0  0  0  0  0  0  0  0
   -2.2069    7.0918   -0.8294 H   0  0  0  0  0  0  0  0  0  0  0  0
   -3.1702    6.1312    0.3521 H   0  0  0  0  0  0  0  0  0  0  0  0
   -3.9185    6.7365   -1.1397 H   0  0  0  0  0  0  0  0  0  0  0  0
    2.1313    1.7997   -3.3963 H   0  0  0  0  0  0  0  0  0  0  0  0
    0.7226    2.7621   -3.6641 H   0  0  0  0  0  0  0  0  0  0  0  0
    1.7870    3.1312   -2.2865 H   0  0  0  0  0  0  0  0  0  0  0  0
   -2.3179   -0.9744   -3.4305 H   0  0  0  0  0  0  0  0  0  0  0  0
   -0.4671   -2.3996   -0.9096 H   0  0  0  0  0  0  0  0  0  0  0  0
    1.2747   -3.7788   -0.8835 H   0  0  0  0  0  0  0  0  0  0  0  0
    2.8368   -2.2875    2.2318 H   0  0  0  0  0  0  0  0  0  0  0  0
    3.9218   -0.5816    4.0934 H   0  0  0  0  0  0  0  0  0  0  0  0
    6.5519   -0.3227    4.8840 H   0  0  0  0  0  0  0  0  0  0  0  0
    6.7535   -2.6104    1.4993 H   0  0  0  0  0  0  0  0  0  0  0  0
    4.9137   -2.1709   -0.9251 H   0  0  0  0  0  0  0  0  0  0  0  0
    5.3909   -0.6334   -0.1964 H   0  0  0  0  0  0  0  0  0  0  0  0
    4.2778   -0.6608   -1.5550 H   0  0  0  0  0  0  0  0  0  0  0  0
    3.8596    0.6235    1.3443 H   0  0  0  0  0  0  0  0  0  0  0  0
    2.2412    0.0446    1.6729 H   0  0  0  0  0  0  0  0  0  0  0  0
    1.9044    1.8696    0.3146 H   0  0  0  0  0  0  0  0  0  0  0  0
    3.2941    1.5803   -0.6866 H   0  0  0  0  0  0  0  0  0  0  0  0
    2.3114    0.1798   -2.1134 H   0  0  0  0  0  0  0  0  0  0  0  0
  1  2  1  0
  2  3  2  0
  3  4  1  0
  3  5  1  0
  5  6  2  0
  5  7  1  0
  7  8  1  0
  8  9  1  0
  9 10  1  0
  9 11  1  0
  9 12  1  0
 12 13  1  0
 13 14  1  0
 14 15  2  0
 14 16  1  0
 16 17  1  0
 12 18  1  0
 18 19  1  6
 18 20  1  0
 20 21  2  0
 20 22  1  0
 22 23  1  6
 22 24  1  0
 24 25  2  0
 25 26  1  0
 26 27  2  0
 27 28  1  0
 28 29  2  0
 28 30  1  0
 30 31  1  0
 31 32  1  0
 32 33  1  0
 33 34  2  0
 34 35  1  0
 35 36  1  0
 31 37  1  0
 37 38  1  6
 37 39  1  0
 39 40  1  0
 40 41  1  0
 22  8  1  0
 41 25  1  0
 41 18  1  0
 37 26  1  0
 36 32  2  0
  1 42  1  0
  1 43  1  0
  1 44  1  0
  2 45  1  0
  4 46  1  0
  4 47  1  0
  4 48  1  0
  8 49  1  6
 10 50  1  0
 10 51  1  0
 10 52  1  0
 11 53  1  0
 11 54  1  0
 11 55  1  0
 12 56  1  1
 13 57  1  0
 13 58  1  0
 17 59  1  0
 17 60  1  0
 17 61  1  0
 19 62  1  0
 19 63  1  0
 19 64  1  0
 23 65  1  0
 24 66  1  0
 27 67  1  0
 31 68  1  1
 33 69  1  0
 34 70  1  0
 36 71  1  0
 38 72  1  0
 38 73  1  0
 38 74  1  0
 39 75  1  0
 39 76  1  0
 40 77  1  0
 40 78  1  0
 41 79  1  6
M  END
$$$$
