
     RDKit          3D

 47 49  0  0  0  0  0  0  0  0999 V2000
   -2.2113   -2.5307    0.6952 C   0  0  0  0  0  0  0  0  0  0  0  0
   -3.0747   -1.4986    0.1321 N   0  0  0  0  0  0  0  0  0  0  0  0
   -2.6762   -0.4718   -0.7512 C   0  0  0  0  0  0  0  0  0  0  0  0
   -1.2946   -0.2914   -1.2838 C   0  0  0  0  0  0  0  0  0  0  0  0
   -0.4004   -0.1431   -0.1823 O   0  0  0  0  0  0  0  0  0  0  0  0
    0.9147    0.0991   -0.4708 C   0  0  0  0  0  0  0  0  0  0  0  0
    1.4944    0.0956   -1.7405 C   0  0  0  0  0  0  0  0  0  0  0  0
    2.8630    0.3614   -1.8917 C   0  0  0  0  0  0  0  0  0  0  0  0
    3.6563    0.6302   -0.7719 C   0  0  0  0  0  0  0  0  0  0  0  0
    5.0943    0.9104   -0.9691 C   0  0  0  0  0  0  0  0  0  0  0  0
    5.8951    1.1788    0.0176 N   0  0  0  0  0  0  0  0  0  0  0  0
    7.1917    1.4134   -0.3496 N   0  0  0  0  0  0  0  0  0  0  0  0
    8.1032    1.7112    0.6236 C   0  0  0  0  0  0  0  0  0  0  0  0
    9.3826    1.9474    0.3127 N   0  0  0  0  0  0  0  0  0  0  0  0
    7.7182    1.7688    1.9011 N   0  0  0  0  0  0  0  0  0  0  0  0
    3.0825    0.6300    0.5002 C   0  0  0  0  0  0  0  0  0  0  0  0
    1.7169    0.3631    0.6443 C   0  0  0  0  0  0  0  0  0  0  0  0
   -3.8129    0.2771   -0.9821 C   0  0  0  0  0  0  0  0  0  0  0  0
   -4.8381   -0.2839   -0.2517 N   0  0  0  0  0  0  0  0  0  0  0  0
   -6.1540    0.1469   -0.1807 C   0  0  0  0  0  0  0  0  0  0  0  0
   -7.0150   -0.5284    0.6099 C   0  0  0  0  0  0  0  0  0  0  0  0
   -8.4522   -0.0984    0.7204 C   0  0  0  0  0  0  0  0  0  0  0  0
   -8.7164    0.9895   -0.0440 F   0  0  0  0  0  0  0  0  0  0  0  0
   -8.7729    0.2209    1.9959 F   0  0  0  0  0  0  0  0  0  0  0  0
   -9.2919   -1.0820    0.3218 F   0  0  0  0  0  0  0  0  0  0  0  0
   -6.6038   -1.7008    1.3978 C   0  0  0  0  0  0  0  0  0  0  0  0
   -5.3358   -2.1450    1.3510 C   0  0  0  0  0  0  0  0  0  0  0  0
   -4.3718   -1.3466    0.4256 C   0  0  0  0  0  0  0  0  0  0  0  0
   -1.4248   -2.7947   -0.0160 H   0  0  0  0  0  0  0  0  0  0  0  0
   -1.7666   -2.1523    1.6192 H   0  0  0  0  0  0  0  0  0  0  0  0
   -2.7952   -3.4296    0.9079 H   0  0  0  0  0  0  0  0  0  0  0  0
   -1.0413   -1.1796   -1.8735 H   0  0  0  0  0  0  0  0  0  0  0  0
   -1.2771    0.6035   -1.9168 H   0  0  0  0  0  0  0  0  0  0  0  0
    0.9204   -0.1117   -2.6387 H   0  0  0  0  0  0  0  0  0  0  0  0
    3.2915    0.3541   -2.8922 H   0  0  0  0  0  0  0  0  0  0  0  0
    5.4646    0.8828   -2.0097 H   0  0  0  0  0  0  0  0  0  0  0  0
    7.5119    1.3779   -1.3136 H   0  0  0  0  0  0  0  0  0  0  0  0
   10.0599    2.1687    1.0321 H   0  0  0  0  0  0  0  0  0  0  0  0
    9.7201    1.9151   -0.6402 H   0  0  0  0  0  0  0  0  0  0  0  0
    8.3415    1.9839    2.6645 H   0  0  0  0  0  0  0  0  0  0  0  0
    6.7394    1.5841    2.0910 H   0  0  0  0  0  0  0  0  0  0  0  0
    3.6762    0.8353    1.3870 H   0  0  0  0  0  0  0  0  0  0  0  0
    1.2755    0.3678    1.6395 H   0  0  0  0  0  0  0  0  0  0  0  0
   -4.0100    1.1521   -1.5795 H   0  0  0  0  0  0  0  0  0  0  0  0
   -6.4407    1.0176   -0.7673 H   0  0  0  0  0  0  0  0  0  0  0  0
   -7.3484   -2.1977    2.0181 H   0  0  0  0  0  0  0  0  0  0  0  0
   -4.9876   -3.0004    1.9128 H   0  0  0  0  0  0  0  0  0  0  0  0
  1  2  1  0
  2  3  1  0
  3  4  1  0
  4  5  1  0
  5  6  1  0
  6  7  2  0
  7  8  1  0
  8  9  2  0
  9 10  1  0
 10 11  2  0
 11 12  1  0
 12 13  2  0
 13 14  1  0
 13 15  1  0
  9 16  1  0
 16 17  2  0
  3 18  2  0
 18 19  1  0
 19 20  1  0
 20 21  2  0
 21 22  1  0
 22 23  1  0
 22 24  1  0
 22 25  1  0
 21 26  1  0
 26 27  2  0
 27 28  1  0
 28  2  2  0
 17  6  1  0
 28 19  1  0
  1 29  1  0
  1 30  1  0
  1 31  1  0
  4 32  1  0
  4 33  1  0
  7 34  1  0
  8 35  1  0
 10 36  1  0
 12 37  1  0
 14 38  1  0
 14 39  1  0
 15 40  1  0
 15 41  1  0
 16 42  1  0
 17 43  1  0
 18 44  1  0
 20 45  1  0
 26 46  1  0
 27 47  1  0
M  CHG  2   2   1  12   1
M  END
$$$$
