
     RDKit          3D

 43 45  0  0  0  0  0  0  0  0999 V2000
   -4.0742   -2.9577   -0.5087 C   0  0  0  0  0  0  0  0  0  0  0  0
   -4.1788   -1.4825   -0.1656 C   0  0  0  0  0  0  0  0  0  0  0  0
   -3.0610   -0.8171   -0.7503 O   0  0  0  0  0  0  0  0  0  0  0  0
   -2.9381    0.5317   -0.5336 C   0  0  0  0  0  0  0  0  0  0  0  0
   -3.8629    1.3050    0.1795 C   0  0  0  0  0  0  0  0  0  0  0  0
   -3.6041    2.6519    0.3297 C   0  0  0  0  0  0  0  0  0  0  0  0
   -2.4803    3.2410   -0.1934 C   0  0  0  0  0  0  0  0  0  0  0  0
   -1.5496    2.5159   -0.9017 C   0  0  0  0  0  0  0  0  0  0  0  0
   -1.7786    1.1388   -1.0884 C   0  0  0  0  0  0  0  0  0  0  0  0
   -0.7497    0.3276   -1.8491 C   0  0  0  0  0  0  0  0  0  0  0  0
    0.3029   -0.2454   -0.9416 C   0  0  0  0  0  0  0  0  0  0  0  0
    1.6071    0.0668   -1.0129 C   0  0  0  0  0  0  0  0  0  0  0  0
    2.6363   -0.4973   -0.1299 C   0  0  0  0  0  0  0  0  0  0  0  0
    3.9104   -0.7559   -0.6494 C   0  0  0  0  0  0  0  0  0  0  0  0
    4.9295   -1.2670    0.1651 C   0  0  0  0  0  0  0  0  0  0  0  0
    4.6892   -1.5151    1.5157 C   0  0  0  0  0  0  0  0  0  0  0  0
    5.5905   -2.0096    2.4173 O   0  0  0  0  0  0  0  0  0  0  0  0
    6.8903   -2.3111    1.9264 C   0  0  0  0  0  0  0  0  0  0  0  0
    3.4251   -1.2430    2.0417 C   0  0  0  0  0  0  0  0  0  0  0  0
    2.4071   -0.7337    1.2294 C   0  0  0  0  0  0  0  0  0  0  0  0
   -2.4173    4.5722    0.0737 O   0  0  0  0  0  0  0  0  0  0  0  0
   -3.6321    4.7546    0.8294 C   0  0  0  0  0  0  0  0  0  0  0  0
   -4.3937    3.5400    0.9932 O   0  0  0  0  0  0  0  0  0  0  0  0
   -4.0682   -3.1015   -1.5943 H   0  0  0  0  0  0  0  0  0  0  0  0
   -4.9114   -3.5175   -0.0826 H   0  0  0  0  0  0  0  0  0  0  0  0
   -3.1373   -3.3766   -0.1267 H   0  0  0  0  0  0  0  0  0  0  0  0
   -4.1643   -1.3674    0.9243 H   0  0  0  0  0  0  0  0  0  0  0  0
   -5.1142   -1.0853   -0.5759 H   0  0  0  0  0  0  0  0  0  0  0  0
   -4.7639    0.8954    0.6168 H   0  0  0  0  0  0  0  0  0  0  0  0
   -0.6635    3.0006   -1.2980 H   0  0  0  0  0  0  0  0  0  0  0  0
   -1.2362   -0.4870   -2.3989 H   0  0  0  0  0  0  0  0  0  0  0  0
   -0.2966    0.9608   -2.6233 H   0  0  0  0  0  0  0  0  0  0  0  0
   -0.0534   -0.9682   -0.2104 H   0  0  0  0  0  0  0  0  0  0  0  0
    1.9606    0.7662   -1.7668 H   0  0  0  0  0  0  0  0  0  0  0  0
    4.1218   -0.5705   -1.7003 H   0  0  0  0  0  0  0  0  0  0  0  0
    5.8959   -1.4571   -0.2891 H   0  0  0  0  0  0  0  0  0  0  0  0
    7.3904   -1.4107    1.5544 H   0  0  0  0  0  0  0  0  0  0  0  0
    7.4815   -2.6987    2.7617 H   0  0  0  0  0  0  0  0  0  0  0  0
    6.8515   -3.0891    1.1568 H   0  0  0  0  0  0  0  0  0  0  0  0
    3.2301   -1.4240    3.0958 H   0  0  0  0  0  0  0  0  0  0  0  0
    1.4401   -0.5154    1.6758 H   0  0  0  0  0  0  0  0  0  0  0  0
   -4.2574    5.4934    0.3151 H   0  0  0  0  0  0  0  0  0  0  0  0
   -3.3734    5.1425    1.8214 H   0  0  0  0  0  0  0  0  0  0  0  0
  1  2  1  0
  2  3  1  0
  3  4  1  0
  4  5  2  0
  5  6  1  0
  6  7  2  0
  7  8  1  0
  8  9  2  0
  9 10  1  0
 10 11  1  0
 11 12  2  0
 12 13  1  0
 13 14  2  0
 14 15  1  0
 15 16  2  0
 16 17  1  0
 17 18  1  0
 16 19  1  0
 19 20  2  0
  7 21  1  0
 21 22  1  0
 22 23  1  0
  9  4  1  0
 20 13  1  0
 23  6  1  0
  1 24  1  0
  1 25  1  0
  1 26  1  0
  2 27  1  0
  2 28  1  0
  5 29  1  0
  8 30  1  0
 10 31  1  0
 10 32  1  0
 11 33  1  0
 12 34  1  0
 14 35  1  0
 15 36  1  0
 18 37  1  0
 18 38  1  0
 18 39  1  0
 19 40  1  0
 20 41  1  0
 22 42  1  0
 22 43  1  0
M  END
$$$$
