
     RDKit          3D

 74 80  0  0  0  0  0  0  0  0999 V2000
    5.1903   -0.9271   -1.4643 C   0  0  0  0  0  0  0  0  0  0  0  0
    4.0124   -0.8158   -0.5283 C   0  0  0  0  0  0  0  0  0  0  0  0
    3.0531   -1.5804   -0.6415 O   0  0  0  0  0  0  0  0  0  0  0  0
    4.0764    0.1946    0.5377 C   0  0  0  0  0  0  0  0  0  0  0  0
    5.2597    0.6994    0.9301 N   0  0  0  0  0  0  0  0  0  0  0  0
    4.9826    1.4908    1.9961 N   0  0  0  0  0  0  0  0  0  0  0  0
    6.0239    2.1711    2.6892 C   0  0  0  0  0  0  0  0  0  0  0  0
    7.3520    2.0212    2.2592 C   0  0  0  0  0  0  0  0  0  0  0  0
    8.3876    2.6804    2.9252 C   0  0  0  0  0  0  0  0  0  0  0  0
    8.1070    3.4917    4.0222 C   0  0  0  0  0  0  0  0  0  0  0  0
    6.7914    3.6454    4.4559 C   0  0  0  0  0  0  0  0  0  0  0  0
    5.7490    2.9888    3.7945 C   0  0  0  0  0  0  0  0  0  0  0  0
    3.6365    1.5158    2.2584 C   0  0  0  0  0  0  0  0  0  0  0  0
    3.0087    0.7294    1.3094 C   0  0  0  0  0  0  0  0  0  0  0  0
    1.5655    0.5417    1.2187 C   0  0  0  0  0  0  0  0  0  0  0  0
    0.8556    0.5920    2.2208 O   0  0  0  0  0  0  0  0  0  0  0  0
    0.9940    0.4303   -0.1323 C   0  0  0  0  0  0  0  0  0  0  0  0
    1.5176    1.0995   -1.1791 N   0  0  0  0  0  0  0  0  0  0  0  0
    0.7215    0.7970   -2.2339 N   0  0  0  0  0  0  0  0  0  0  0  0
    1.0068    1.3143   -3.5295 C   0  0  0  0  0  0  0  0  0  0  0  0
    2.1243    2.1454   -3.7098 C   0  0  0  0  0  0  0  0  0  0  0  0
    2.4231    2.6611   -4.9727 C   0  0  0  0  0  0  0  0  0  0  0  0
    1.6119    2.3526   -6.0623 C   0  0  0  0  0  0  0  0  0  0  0  0
    0.5006    1.5288   -5.8917 C   0  0  0  0  0  0  0  0  0  0  0  0
    0.1945    1.0086   -4.6305 C   0  0  0  0  0  0  0  0  0  0  0  0
   -0.3162   -0.0199   -1.8585 C   0  0  0  0  0  0  0  0  0  0  0  0
   -0.1763   -0.2820   -0.5082 C   0  0  0  0  0  0  0  0  0  0  0  0
   -0.9956   -1.1476    0.3297 C   0  0  0  0  0  0  0  0  0  0  0  0
   -0.5113   -1.7854    1.2596 O   0  0  0  0  0  0  0  0  0  0  0  0
   -2.4372   -1.2101    0.0246 C   0  0  0  0  0  0  0  0  0  0  0  0
   -3.1114   -0.1915   -0.5427 N   0  0  0  0  0  0  0  0  0  0  0  0
   -4.4080   -0.5839   -0.5839 N   0  0  0  0  0  0  0  0  0  0  0  0
   -5.4068    0.2649   -1.1394 C   0  0  0  0  0  0  0  0  0  0  0  0
   -6.7500   -0.1326   -1.1992 C   0  0  0  0  0  0  0  0  0  0  0  0
   -7.7085    0.7225   -1.7516 C   0  0  0  0  0  0  0  0  0  0  0  0
   -7.3363    1.9721   -2.2443 C   0  0  0  0  0  0  0  0  0  0  0  0
   -6.0038    2.3738   -2.1874 C   0  0  0  0  0  0  0  0  0  0  0  0
   -5.0403    1.5255   -1.6377 C   0  0  0  0  0  0  0  0  0  0  0  0
   -4.5670   -1.8379   -0.0437 C   0  0  0  0  0  0  0  0  0  0  0  0
   -3.3181   -2.2745    0.3501 C   0  0  0  0  0  0  0  0  0  0  0  0
   -2.9816   -3.5744    0.8981 C   0  0  0  0  0  0  0  0  0  0  0  0
   -2.1314   -4.2785    0.3638 O   0  0  0  0  0  0  0  0  0  0  0  0
   -3.7284   -4.0784    2.0858 C   0  0  0  0  0  0  0  0  0  0  0  0
   -4.3368   -3.2137    3.0063 C   0  0  0  0  0  0  0  0  0  0  0  0
   -5.0239   -3.7336    4.1060 C   0  0  0  0  0  0  0  0  0  0  0  0
   -5.0999   -5.1132    4.2958 C   0  0  0  0  0  0  0  0  0  0  0  0
   -4.4832   -5.9779    3.3929 C   0  0  0  0  0  0  0  0  0  0  0  0
   -3.7948   -5.4631    2.2930 C   0  0  0  0  0  0  0  0  0  0  0  0
    6.0521   -1.3380   -0.9321 H   0  0  0  0  0  0  0  0  0  0  0  0
    5.4343    0.0545   -1.8800 H   0  0  0  0  0  0  0  0  0  0  0  0
    4.9354   -1.5944   -2.2929 H   0  0  0  0  0  0  0  0  0  0  0  0
    7.5981    1.3926    1.4054 H   0  0  0  0  0  0  0  0  0  0  0  0
    9.4133    2.5585    2.5862 H   0  0  0  0  0  0  0  0  0  0  0  0
    8.9141    4.0036    4.5401 H   0  0  0  0  0  0  0  0  0  0  0  0
    6.5755    4.2782    5.3136 H   0  0  0  0  0  0  0  0  0  0  0  0
    4.7413    3.1373    4.1698 H   0  0  0  0  0  0  0  0  0  0  0  0
    3.2103    2.0919    3.0661 H   0  0  0  0  0  0  0  0  0  0  0  0
    2.7732    2.4033   -2.8749 H   0  0  0  0  0  0  0  0  0  0  0  0
    3.2898    3.3042   -5.1038 H   0  0  0  0  0  0  0  0  0  0  0  0
    1.8459    2.7544   -7.0449 H   0  0  0  0  0  0  0  0  0  0  0  0
   -0.1305    1.2893   -6.7444 H   0  0  0  0  0  0  0  0  0  0  0  0
   -0.6801    0.3712   -4.5468 H   0  0  0  0  0  0  0  0  0  0  0  0
   -1.0583   -0.3670   -2.5612 H   0  0  0  0  0  0  0  0  0  0  0  0
   -7.0883   -1.0953   -0.8295 H   0  0  0  0  0  0  0  0  0  0  0  0
   -8.7500    0.4127   -1.7977 H   0  0  0  0  0  0  0  0  0  0  0  0
   -8.0853    2.6339   -2.6722 H   0  0  0  0  0  0  0  0  0  0  0  0
   -5.7120    3.3489   -2.5696 H   0  0  0  0  0  0  0  0  0  0  0  0
   -4.0065    1.8652   -1.6030 H   0  0  0  0  0  0  0  0  0  0  0  0
   -5.5255   -2.3327   -0.0038 H   0  0  0  0  0  0  0  0  0  0  0  0
   -4.2679   -2.1343    2.8989 H   0  0  0  0  0  0  0  0  0  0  0  0
   -5.4901   -3.0615    4.8227 H   0  0  0  0  0  0  0  0  0  0  0  0
   -5.6299   -5.5150    5.1562 H   0  0  0  0  0  0  0  0  0  0  0  0
   -4.5306   -7.0530    3.5484 H   0  0  0  0  0  0  0  0  0  0  0  0
   -3.3072   -6.1456    1.5990 H   0  0  0  0  0  0  0  0  0  0  0  0
  1  2  1  0
  2  3  2  0
  2  4  1  0
  4  5  2  0
  5  6  1  0
  6  7  1  0
  7  8  2  0
  8  9  1  0
  9 10  2  0
 10 11  1  0
 11 12  2  0
  6 13  1  0
 13 14  2  0
 14 15  1  0
 15 16  2  0
 15 17  1  0
 17 18  2  0
 18 19  1  0
 19 20  1  0
 20 21  2  0
 21 22  1  0
 22 23  2  0
 23 24  1  0
 24 25  2  0
 19 26  1  0
 26 27  2  0
 27 28  1  0
 28 29  2  0
 28 30  1  0
 30 31  2  0
 31 32  1  0
 32 33  1  0
 33 34  2  0
 34 35  1  0
 35 36  2  0
 36 37  1  0
 37 38  2  0
 32 39  1  0
 39 40  2  0
 40 41  1  0
 41 42  2  0
 41 43  1  0
 43 44  2  0
 44 45  1  0
 45 46  2  0
 46 47  1  0
 47 48  2  0
 14  4  1  0
 27 17  1  0
 40 30  1  0
 48 43  1  0
 12  7  1  0
 25 20  1  0
 38 33  1  0
  1 49  1  0
  1 50  1  0
  1 51  1  0
  8 52  1  0
  9 53  1  0
 10 54  1  0
 11 55  1  0
 12 56  1  0
 13 57  1  0
 21 58  1  0
 22 59  1  0
 23 60  1  0
 24 61  1  0
 25 62  1  0
 26 63  1  0
 34 64  1  0
 35 65  1  0
 36 66  1  0
 37 67  1  0
 38 68  1  0
 39 69  1  0
 44 70  1  0
 45 71  1  0
 46 72  1  0
 47 73  1  0
 48 74  1  0
M  END
$$$$
