
     RDKit          3D

 31 33  0  0  0  0  0  0  0  0999 V2000
   -0.9605    1.9247    0.4744 O   0  0  0  0  0  0  0  0  0  0  0  0
   -1.3669    0.7866    0.2765 C   0  0  0  0  0  0  0  0  0  0  0  0
   -0.6230   -0.3109   -0.1030 N   0  0  0  0  0  0  0  0  0  0  0  0
    0.7817   -0.4091   -0.2636 C   0  0  0  0  0  0  0  0  0  0  0  0
    1.6610    0.6448   -0.0023 C   0  0  0  0  0  0  0  0  0  0  0  0
    3.0416    0.4696   -0.1758 C   0  0  0  0  0  0  0  0  0  0  0  0
    3.9892    1.5436    0.0870 C   0  0  0  0  0  0  0  0  0  0  0  0
    5.2825    1.2444   -0.1152 C   0  0  0  0  0  0  0  0  0  0  0  0
    5.8533    0.0855   -0.5311 N   0  0  0  0  0  0  0  0  0  0  0  0
    5.0289   -0.9435   -0.7907 C   0  0  0  0  0  0  0  0  0  0  0  0
    5.4074   -2.0514   -1.1739 O   0  0  0  0  0  0  0  0  0  0  0  0
    3.5501   -0.7624   -0.6109 C   0  0  0  0  0  0  0  0  0  0  0  0
    2.6816   -1.8229   -0.8741 C   0  0  0  0  0  0  0  0  0  0  0  0
    1.3114   -1.6432   -0.6996 C   0  0  0  0  0  0  0  0  0  0  0  0
    0.2627   -2.9874   -1.0286 Cl  0  0  0  0  0  0  0  0  0  0  0  0
   -2.8295    0.5283    0.4144 C   0  0  0  0  0  0  0  0  0  0  0  0
   -3.3228   -0.6889    0.9042 C   0  0  0  0  0  0  0  0  0  0  0  0
   -4.7007   -0.8878    1.0176 C   0  0  0  0  0  0  0  0  0  0  0  0
   -5.5867    0.1264    0.6527 C   0  0  0  0  0  0  0  0  0  0  0  0
   -5.0995    1.3456    0.1822 C   0  0  0  0  0  0  0  0  0  0  0  0
   -3.7234    1.5492    0.0678 C   0  0  0  0  0  0  0  0  0  0  0  0
   -1.1195   -1.1623   -0.3400 H   0  0  0  0  0  0  0  0  0  0  0  0
    1.3035    1.6098    0.3393 H   0  0  0  0  0  0  0  0  0  0  0  0
    3.6549    2.5150    0.4232 H   0  0  0  0  0  0  0  0  0  0  0  0
    5.9595    2.0750    0.0927 H   0  0  0  0  0  0  0  0  0  0  0  0
    3.0874   -2.7727   -1.2092 H   0  0  0  0  0  0  0  0  0  0  0  0
   -2.6493   -1.4783    1.2274 H   0  0  0  0  0  0  0  0  0  0  0  0
   -5.0830   -1.8310    1.4004 H   0  0  0  0  0  0  0  0  0  0  0  0
   -6.6586   -0.0299    0.7447 H   0  0  0  0  0  0  0  0  0  0  0  0
   -5.7886    2.1401   -0.0923 H   0  0  0  0  0  0  0  0  0  0  0  0
   -3.3450    2.5034   -0.2940 H   0  0  0  0  0  0  0  0  0  0  0  0
  1  2  2  0
  2  3  1  0
  3  4  1  0
  4  5  2  0
  5  6  1  0
  6  7  1  0
  7  8  2  0
  8  9  1  0
  9 10  1  0
 10 11  2  0
 10 12  1  0
 12 13  1  0
 13 14  2  0
 14 15  1  0
  2 16  1  0
 16 17  2  0
 17 18  1  0
 18 19  2  0
 19 20  1  0
 20 21  2  0
 14  4  1  0
 21 16  1  0
 12  6  2  0
  3 22  1  0
  5 23  1  0
  7 24  1  0
  8 25  1  0
 13 26  1  0
 17 27  1  0
 18 28  1  0
 19 29  1  0
 20 30  1  0
 21 31  1  0
M  CHG  1   9  -1
M  END
$$$$
