
     RDKit          3D

 48 50  0  0  0  0  0  0  0  0999 V2000
   -3.7171    2.4920   -2.9708 C   0  0  0  0  0  0  0  0  0  0  0  0
   -3.5687    1.3985   -2.0764 O   0  0  0  0  0  0  0  0  0  0  0  0
   -3.5570    1.8285   -0.7102 C   0  0  0  0  0  0  0  0  0  0  0  0
   -3.3806    0.6361    0.2594 C   0  0  1  0  0  0  0  0  0  0  0  0
   -4.5559   -0.3138    0.1854 C   0  0  0  0  0  0  0  0  0  0  0  0
   -5.7990   -0.0707    1.0078 C   0  0  0  0  0  0  0  0  0  0  0  0
   -4.8877   -1.2163    1.3495 C   0  0  0  0  0  0  0  0  0  0  0  0
   -2.0968   -0.0506    0.0605 N   0  0  0  0  0  0  0  0  0  0  0  0
   -2.0704   -1.2213   -0.6537 N   0  0  0  0  0  0  0  0  0  0  0  0
   -0.9344   -1.7987   -0.8756 C   0  0  0  0  0  0  0  0  0  0  0  0
   -0.8969   -3.0776   -1.6637 C   0  0  0  0  0  0  0  0  0  0  0  0
    0.2849   -1.3547   -0.4472 N   0  0  0  0  0  0  0  0  0  0  0  0
    0.3412   -0.2498    0.2269 C   0  0  0  0  0  0  0  0  0  0  0  0
    1.4966    0.3390    0.7164 N   0  0  0  0  0  0  0  0  0  0  0  0
    2.8187   -0.1425    0.7307 C   0  0  0  0  0  0  0  0  0  0  0  0
    3.1208   -1.4958    0.5302 C   0  0  0  0  0  0  0  0  0  0  0  0
    4.4399   -1.9470    0.5138 C   0  0  0  0  0  0  0  0  0  0  0  0
    5.4507   -1.0274    0.6884 C   0  0  0  0  0  0  0  0  0  0  0  0
    6.7397   -1.5149    0.6672 O   0  0  0  0  0  0  0  0  0  0  0  0
    7.7253   -0.5034    0.8507 C   0  0  0  0  0  0  0  0  0  0  0  0
    5.2269    0.2858    0.8705 N   0  0  0  0  0  0  0  0  0  0  0  0
    3.9252    0.7209    0.8888 C   0  0  0  0  0  0  0  0  0  0  0  0
    3.7135    2.2192    1.0308 C   0  0  0  0  0  0  0  0  0  0  0  0
    3.5919    2.8516   -0.1719 F   0  0  0  0  0  0  0  0  0  0  0  0
    2.5702    2.5300    1.7178 F   0  0  0  0  0  0  0  0  0  0  0  0
    4.7154    2.8647    1.6940 F   0  0  0  0  0  0  0  0  0  0  0  0
   -0.9388    0.5347    0.5240 C   0  0  0  0  0  0  0  0  0  0  0  0
   -0.8350    1.5930    1.1354 O   0  0  0  0  0  0  0  0  0  0  0  0
   -2.8796    3.1885   -2.8669 H   0  0  0  0  0  0  0  0  0  0  0  0
   -3.7226    2.1030   -3.9925 H   0  0  0  0  0  0  0  0  0  0  0  0
   -4.6635    3.0102   -2.7891 H   0  0  0  0  0  0  0  0  0  0  0  0
   -4.5039    2.3379   -0.4934 H   0  0  0  0  0  0  0  0  0  0  0  0
   -2.7396    2.5461   -0.5742 H   0  0  0  0  0  0  0  0  0  0  0  0
   -3.3464    1.0646    1.2707 H   0  0  0  0  0  0  0  0  0  0  0  0
   -4.6893   -0.7179   -0.8136 H   0  0  0  0  0  0  0  0  0  0  0  0
   -6.7562   -0.3027    0.5540 H   0  0  0  0  0  0  0  0  0  0  0  0
   -5.8243    0.7742    1.6861 H   0  0  0  0  0  0  0  0  0  0  0  0
   -4.2868   -1.1434    2.2485 H   0  0  0  0  0  0  0  0  0  0  0  0
   -5.2209   -2.2226    1.1216 H   0  0  0  0  0  0  0  0  0  0  0  0
   -0.2656   -2.9426   -2.5466 H   0  0  0  0  0  0  0  0  0  0  0  0
   -0.4758   -3.8740   -1.0436 H   0  0  0  0  0  0  0  0  0  0  0  0
   -1.9025   -3.3651   -1.9825 H   0  0  0  0  0  0  0  0  0  0  0  0
    1.3307    1.2391    1.1749 H   0  0  0  0  0  0  0  0  0  0  0  0
    2.3361   -2.2359    0.4027 H   0  0  0  0  0  0  0  0  0  0  0  0
    4.6672   -2.9970    0.3670 H   0  0  0  0  0  0  0  0  0  0  0  0
    8.7072   -0.9854    0.8183 H   0  0  0  0  0  0  0  0  0  0  0  0
    7.6906    0.2358    0.0427 H   0  0  0  0  0  0  0  0  0  0  0  0
    7.6228   -0.0222    1.8296 H   0  0  0  0  0  0  0  0  0  0  0  0
  1  2  1  0
  2  3  1  0
  3  4  1  0
  4  5  1  0
  5  6  1  0
  6  7  1  0
  4  8  1  0
  8  9  1  0
  9 10  2  0
 10 11  1  0
 10 12  1  0
 12 13  2  0
 13 14  1  0
 14 15  1  0
 15 16  2  0
 16 17  1  0
 17 18  2  0
 18 19  1  0
 19 20  1  0
 18 21  1  0
 21 22  2  0
 22 23  1  0
 23 24  1  0
 23 25  1  0
 23 26  1  0
 13 27  1  0
 27 28  2  0
  7  5  1  0
 27  8  1  0
 22 15  1  0
  1 29  1  0
  1 30  1  0
  1 31  1  0
  3 32  1  0
  3 33  1  0
  4 34  1  1
  5 35  1  0
  6 36  1  0
  6 37  1  0
  7 38  1  0
  7 39  1  0
 11 40  1  0
 11 41  1  0
 11 42  1  0
 14 43  1  0
 16 44  1  0
 17 45  1  0
 20 46  1  0
 20 47  1  0
 20 48  1  0
M  END
$$$$
