
     RDKit          3D

 52 55  0  0  0  0  0  0  0  0999 V2000
   -8.2599    0.9369   -1.1446 C   0  0  0  0  0  0  0  0  0  0  0  0
   -7.3525   -0.2791   -1.2282 C   0  0  0  0  0  0  0  0  0  0  0  0
   -6.4226   -0.3619   -0.0243 C   0  0  0  0  0  0  0  0  0  0  0  0
   -5.3540   -1.7936   -0.1291 S   0  0  0  0  0  0  0  0  0  0  0  0
   -6.1737   -2.9788    0.0074 O   0  0  0  0  0  0  0  0  0  0  0  0
   -4.4395   -1.6230   -1.2355 O   0  0  0  0  0  0  0  0  0  0  0  0
   -4.5186   -1.6654    1.3457 N   0  0  0  0  0  0  0  0  0  0  0  0
   -3.1323   -1.3414    1.2699 C   0  0  0  0  0  0  0  0  0  0  0  0
   -2.1829   -2.3562    1.3090 C   0  0  0  0  0  0  0  0  0  0  0  0
   -0.8293   -2.0410    1.1799 C   0  0  0  0  0  0  0  0  0  0  0  0
   -0.4043   -0.7115    0.9970 C   0  0  0  0  0  0  0  0  0  0  0  0
    1.0325   -0.4427    0.8586 C   0  0  0  0  0  0  0  0  0  0  0  0
    1.6528   -0.5250   -0.3927 C   0  0  0  0  0  0  0  0  0  0  0  0
    3.0217   -0.2730   -0.5575 C   0  0  0  0  0  0  0  0  0  0  0  0
    3.7766    0.0872    0.5732 C   0  0  0  0  0  0  0  0  0  0  0  0
    3.1892    0.1149    1.8393 C   0  0  0  0  0  0  0  0  0  0  0  0
    4.2483    0.3798    2.7227 C   0  0  0  0  0  0  0  0  0  0  0  0
    5.4187    0.4997    2.1037 N   0  0  0  0  0  0  0  0  0  0  0  0
    5.1175    0.4275    0.7751 N   0  0  0  0  0  0  0  0  0  0  0  0
    6.1460    0.7062   -0.1774 C   0  0  0  0  0  0  0  0  0  0  0  0
    5.8569    1.0574   -1.5031 C   0  0  0  0  0  0  0  0  0  0  0  0
    6.8954    1.3271   -2.4011 C   0  0  0  0  0  0  0  0  0  0  0  0
    8.2158    1.2590   -1.9738 C   0  0  0  0  0  0  0  0  0  0  0  0
    9.2038    1.5206   -2.8391 F   0  0  0  0  0  0  0  0  0  0  0  0
    8.5225    0.9384   -0.6590 C   0  0  0  0  0  0  0  0  0  0  0  0
    7.4896    0.6700    0.2425 C   0  0  0  0  0  0  0  0  0  0  0  0
    1.8109   -0.1334    1.9855 C   0  0  0  0  0  0  0  0  0  0  0  0
   -1.3745    0.3137    0.9413 C   0  0  0  0  0  0  0  0  0  0  0  0
   -0.9859    1.7598    0.7359 C   0  0  0  0  0  0  0  0  0  0  0  0
   -0.3031    1.9760   -0.4216 F   0  0  0  0  0  0  0  0  0  0  0  0
   -0.2073    2.2471    1.7417 F   0  0  0  0  0  0  0  0  0  0  0  0
   -2.0630    2.5982    0.6800 F   0  0  0  0  0  0  0  0  0  0  0  0
   -2.7373   -0.0195    1.0768 C   0  0  0  0  0  0  0  0  0  0  0  0
   -7.6748    1.8617   -1.1163 H   0  0  0  0  0  0  0  0  0  0  0  0
   -8.9194    0.9787   -2.0171 H   0  0  0  0  0  0  0  0  0  0  0  0
   -8.8858    0.8982   -0.2472 H   0  0  0  0  0  0  0  0  0  0  0  0
   -6.7659   -0.2299   -2.1529 H   0  0  0  0  0  0  0  0  0  0  0  0
   -7.9663   -1.1850   -1.2919 H   0  0  0  0  0  0  0  0  0  0  0  0
   -5.7815    0.5231    0.0275 H   0  0  0  0  0  0  0  0  0  0  0  0
   -6.9971   -0.4503    0.9032 H   0  0  0  0  0  0  0  0  0  0  0  0
   -4.7336   -2.4960    1.9028 H   0  0  0  0  0  0  0  0  0  0  0  0
   -2.4792   -3.3951    1.4239 H   0  0  0  0  0  0  0  0  0  0  0  0
   -0.0959   -2.8463    1.2106 H   0  0  0  0  0  0  0  0  0  0  0  0
    1.0647   -0.7937   -1.2705 H   0  0  0  0  0  0  0  0  0  0  0  0
    3.4643   -0.3864   -1.5408 H   0  0  0  0  0  0  0  0  0  0  0  0
    4.2165    0.4630    3.8014 H   0  0  0  0  0  0  0  0  0  0  0  0
    4.8418    1.1897   -1.8594 H   0  0  0  0  0  0  0  0  0  0  0  0
    6.6806    1.6068   -3.4281 H   0  0  0  0  0  0  0  0  0  0  0  0
    9.5592    0.9013   -0.3399 H   0  0  0  0  0  0  0  0  0  0  0  0
    7.7479    0.4199    1.2707 H   0  0  0  0  0  0  0  0  0  0  0  0
    1.3587   -0.0968    2.9738 H   0  0  0  0  0  0  0  0  0  0  0  0
   -3.4917    0.7631    1.0326 H   0  0  0  0  0  0  0  0  0  0  0  0
  1  2  1  0
  2  3  1  0
  3  4  1  0
  4  5  2  0
  4  6  2  0
  4  7  1  0
  7  8  1  0
  8  9  2  0
  9 10  1  0
 10 11  2  0
 11 12  1  0
 12 13  2  0
 13 14  1  0
 14 15  2  0
 15 16  1  0
 16 17  1  0
 17 18  2  0
 18 19  1  0
 19 20  1  0
 20 21  2  0
 21 22  1  0
 22 23  2  0
 23 24  1  0
 23 25  1  0
 25 26  2  0
 16 27  2  0
 11 28  1  0
 28 29  1  0
 29 30  1  0
 29 31  1  0
 29 32  1  0
 28 33  2  0
 33  8  1  0
 27 12  1  0
 19 15  1  0
 26 20  1  0
  1 34  1  0
  1 35  1  0
  1 36  1  0
  2 37  1  0
  2 38  1  0
  3 39  1  0
  3 40  1  0
  7 41  1  0
  9 42  1  0
 10 43  1  0
 13 44  1  0
 14 45  1  0
 17 46  1  0
 21 47  1  0
 22 48  1  0
 25 49  1  0
 26 50  1  0
 27 51  1  0
 33 52  1  0
M  END
$$$$
