
     RDKit          3D

 63 67  0  0  0  0  0  0  0  0999 V2000
   -0.4722    2.7511    0.3623 O   0  0  0  0  0  0  0  0  0  0  0  0
    0.7349    2.6314    0.1659 C   0  0  0  0  0  0  0  0  0  0  0  0
    1.3932    2.5828   -1.0508 N   0  0  0  0  0  0  0  0  0  0  0  0
    0.7121    2.2532   -2.2423 C   0  0  0  0  0  0  0  0  0  0  0  0
   -0.6556    2.4803   -2.3894 C   0  0  0  0  0  0  0  0  0  0  0  0
   -1.4180    1.5513   -3.0781 C   0  0  0  0  0  0  0  0  0  0  0  0
   -0.7775    0.4258   -3.6036 C   0  0  0  0  0  0  0  0  0  0  0  0
   -1.5119   -0.8894   -3.5897 C   0  0  0  0  0  0  0  0  0  0  0  0
   -1.0869   -1.7553   -2.3738 C   0  0  0  0  0  0  0  0  0  0  0  0
   -1.0017   -1.0012   -1.0812 N   0  0  0  0  0  0  0  0  0  0  0  0
   -1.3090   -1.8032    0.1471 C   0  0  0  0  0  0  0  0  0  0  0  0
   -1.4020   -0.9284    1.4214 C   0  0  2  0  0  0  0  0  0  0  0  0
   -0.8549   -1.6448    2.5303 O   0  0  0  0  0  0  0  0  0  0  0  0
   -2.8385   -0.5572    1.7053 C   0  0  0  0  0  0  0  0  0  0  0  0
   -3.7135   -1.4189    2.3758 C   0  0  0  0  0  0  0  0  0  0  0  0
   -5.0453   -1.0565    2.5501 C   0  0  0  0  0  0  0  0  0  0  0  0
   -5.4664    0.1562    2.0326 C   0  0  0  0  0  0  0  0  0  0  0  0
   -4.6568    1.0127    1.3744 N   0  0  0  0  0  0  0  0  0  0  0  0
   -3.3590    0.6522    1.2507 C   0  0  0  0  0  0  0  0  0  0  0  0
    0.6095    0.4314   -3.7857 C   0  0  0  0  0  0  0  0  0  0  0  0
    1.3686    1.3704   -3.0991 C   0  0  0  0  0  0  0  0  0  0  0  0
    1.5850    2.4700    1.3508 C   0  0  0  0  0  0  0  0  0  0  0  0
    1.8158    3.6279    2.1116 C   0  0  0  0  0  0  0  0  0  0  0  0
    2.4173    3.5334    3.3659 C   0  0  0  0  0  0  0  0  0  0  0  0
    2.7552    2.2828    3.8771 C   0  0  0  0  0  0  0  0  0  0  0  0
    2.5078    1.1301    3.1265 C   0  0  0  0  0  0  0  0  0  0  0  0
    1.9382    1.2116    1.8454 C   0  0  0  0  0  0  0  0  0  0  0  0
    1.7723   -0.1480    1.0530 C   0  0  0  0  0  0  0  0  0  0  0  0
    1.8034   -1.3757    1.6289 N   0  0  0  0  0  0  0  0  0  0  0  0
    2.3058   -2.2330    0.7064 C   0  0  0  0  0  0  0  0  0  0  0  0
    2.8249   -3.5259    0.8000 C   0  0  0  0  0  0  0  0  0  0  0  0
    3.2823   -4.1179   -0.3806 C   0  0  0  0  0  0  0  0  0  0  0  0
    3.2231   -3.4414   -1.6096 C   0  0  0  0  0  0  0  0  0  0  0  0
    2.6907   -2.1519   -1.7095 C   0  0  0  0  0  0  0  0  0  0  0  0
    2.2174   -1.5589   -0.5345 C   0  0  0  0  0  0  0  0  0  0  0  0
    1.5853   -0.3696   -0.2769 N   0  0  0  0  0  0  0  0  0  0  0  0
    2.3731    2.3239   -1.0024 H   0  0  0  0  0  0  0  0  0  0  0  0
   -1.1597    3.2532   -1.8142 H   0  0  0  0  0  0  0  0  0  0  0  0
   -2.5019    1.6129   -3.0101 H   0  0  0  0  0  0  0  0  0  0  0  0
   -2.5946   -0.7165   -3.5518 H   0  0  0  0  0  0  0  0  0  0  0  0
   -1.3174   -1.4366   -4.5195 H   0  0  0  0  0  0  0  0  0  0  0  0
   -0.1039   -2.2062   -2.5364 H   0  0  0  0  0  0  0  0  0  0  0  0
   -1.8136   -2.5654   -2.2487 H   0  0  0  0  0  0  0  0  0  0  0  0
   -0.0005   -0.6611   -0.9265 H   0  0  0  0  0  0  0  0  0  0  0  0
   -1.5198   -0.1175   -1.0905 H   0  0  0  0  0  0  0  0  0  0  0  0
   -2.2565   -2.3200   -0.0454 H   0  0  0  0  0  0  0  0  0  0  0  0
   -0.5315   -2.5682    0.2272 H   0  0  0  0  0  0  0  0  0  0  0  0
   -0.8347   -0.0001    1.3233 H   0  0  0  0  0  0  0  0  0  0  0  0
    0.1333   -1.6197    2.3874 H   0  0  0  0  0  0  0  0  0  0  0  0
   -3.3527   -2.3637    2.7773 H   0  0  0  0  0  0  0  0  0  0  0  0
   -5.7353   -1.7023    3.0811 H   0  0  0  0  0  0  0  0  0  0  0  0
   -6.4960    0.4843    2.1423 H   0  0  0  0  0  0  0  0  0  0  0  0
   -2.7323    1.3926    0.7563 H   0  0  0  0  0  0  0  0  0  0  0  0
    1.1170   -0.4027   -4.2633 H   0  0  0  0  0  0  0  0  0  0  0  0
    2.4449    1.2300   -3.0370 H   0  0  0  0  0  0  0  0  0  0  0  0
    1.4889    4.5972    1.7422 H   0  0  0  0  0  0  0  0  0  0  0  0
    2.5918    4.4286    3.9570 H   0  0  0  0  0  0  0  0  0  0  0  0
    3.2059    2.1968    4.8625 H   0  0  0  0  0  0  0  0  0  0  0  0
    2.7803    0.1571    3.5334 H   0  0  0  0  0  0  0  0  0  0  0  0
    2.8739   -4.0143    1.7636 H   0  0  0  0  0  0  0  0  0  0  0  0
    3.7089   -5.1178   -0.3388 H   0  0  0  0  0  0  0  0  0  0  0  0
    3.6100   -3.9281   -2.5024 H   0  0  0  0  0  0  0  0  0  0  0  0
    2.6489   -1.6119   -2.6433 H   0  0  0  0  0  0  0  0  0  0  0  0
  1  2  2  0
  2  3  1  0
  3  4  1  0
  4  5  2  0
  5  6  1  0
  6  7  2  0
  7  8  1  0
  8  9  1  0
  9 10  1  0
 10 11  1  0
 11 12  1  0
 12 13  1  0
 12 14  1  0
 14 15  2  0
 15 16  1  0
 16 17  2  0
 17 18  1  0
 18 19  2  0
  7 20  1  0
 20 21  2  0
  2 22  1  0
 22 23  2  0
 23 24  1  0
 24 25  2  0
 25 26  1  0
 26 27  2  0
 27 28  1  0
 28 29  2  0
 29 30  1  0
 30 31  2  0
 31 32  1  0
 32 33  2  0
 33 34  1  0
 34 35  2  0
 35 36  1  0
 21  4  1  0
 27 22  1  0
 36 28  1  0
 19 14  1  0
 35 30  1  0
  3 37  1  0
  5 38  1  0
  6 39  1  0
  8 40  1  0
  8 41  1  0
  9 42  1  0
  9 43  1  0
 10 44  1  0
 10 45  1  0
 11 46  1  0
 11 47  1  0
 12 48  1  6
 13 49  1  0
 15 50  1  0
 16 51  1  0
 17 52  1  0
 19 53  1  0
 20 54  1  0
 21 55  1  0
 23 56  1  0
 24 57  1  0
 25 58  1  0
 26 59  1  0
 31 60  1  0
 32 61  1  0
 33 62  1  0
 34 63  1  0
M  CHG  2  10   1  36  -1
M  END
$$$$
