
     RDKit          3D

 83 89  0  0  0  0  0  0  0  0999 V2000
   -2.8579   -1.2864    3.5339 C   0  0  0  0  0  0  0  0  0  0  0  0
   -2.9908   -0.2542    2.4155 C   0  0  2  0  0  0  0  0  0  0  0  0
   -4.4691   -0.0866    2.0191 C   0  0  0  0  0  0  0  0  0  0  0  0
   -4.6527    0.6817    0.6965 C   0  0  1  0  0  0  0  0  0  0  0  0
   -3.4083    1.3190    0.3547 O   0  0  0  0  0  0  0  0  0  0  0  0
   -2.5638    0.2321   -0.0798 C   0  0  1  0  0  0  0  0  0  0  0  0
   -3.5002   -0.5692   -1.0002 C   0  0  0  0  0  0  0  0  0  0  0  0
   -4.9133   -0.2596   -0.4851 C   0  0  2  0  0  0  0  0  0  0  0  0
   -5.8555    0.3290   -1.5729 C   0  0  0  0  0  0  0  0  0  0  0  0
   -5.4136    1.6882   -2.1263 C   0  0  0  0  0  0  0  0  0  0  0  0
   -7.2962    0.4390   -1.0521 C   0  0  0  0  0  0  0  0  0  0  0  0
   -5.8845   -0.5804   -2.6827 O   0  0  0  0  0  0  0  0  0  0  0  0
   -1.2582    0.7785   -0.7176 C   0  0  2  0  0  0  0  0  0  0  0  0
   -1.3176    0.9061   -2.1296 O   0  0  0  0  0  0  0  0  0  0  0  0
   -0.1534   -0.1942   -0.2346 C   0  0  1  0  0  0  0  0  0  0  0  0
   -0.2374   -1.5235   -1.0497 C   0  0  0  0  0  0  0  0  0  0  0  0
    1.2920    0.3742   -0.3226 C   0  0  2  0  0  0  0  0  0  0  0  0
    1.8456    0.4653   -1.7526 C   0  0  0  0  0  0  0  0  0  0  0  0
    3.2513    1.0589   -1.7586 C   0  0  0  0  0  0  0  0  0  0  0  0
    4.2403    0.0779   -1.1169 C   0  0  1  0  0  0  0  0  0  0  0  0
    5.7255    0.5617   -1.1152 C   0  0  0  0  0  0  0  0  0  0  0  0
    5.9555    1.8658   -0.3358 C   0  0  0  0  0  0  0  0  0  0  0  0
    6.2190    0.7795   -2.5618 C   0  0  0  0  0  0  0  0  0  0  0  0
    6.5878   -0.5379   -0.4663 C   0  0  0  0  0  0  0  0  0  0  0  0
    7.6651   -0.9020   -0.9424 O   0  0  0  0  0  0  0  0  0  0  0  0
    6.1180   -1.1051    0.8544 C   0  0  0  0  0  0  0  0  0  0  0  0
    4.6679   -1.5472    0.7604 C   0  0  0  0  0  0  0  0  0  0  0  0
    3.7898   -0.4052    0.2705 C   0  0  1  0  0  0  0  0  0  0  0  0
    3.2860    0.5531    1.3164 C   0  0  0  0  0  0  0  0  0  0  0  0
    2.2773   -0.3607    0.6327 C   0  0  1  0  0  0  0  0  0  0  0  0
    1.7253   -1.5279    1.4644 C   0  0  0  0  0  0  0  0  0  0  0  0
    0.2421   -1.5037    1.8725 C   0  0  0  0  0  0  0  0  0  0  0  0
   -0.5649   -0.3468    1.2761 C   0  0  1  0  0  0  0  0  0  0  0  0
   -0.2816    0.9144    2.1477 C   0  0  0  0  0  0  0  0  0  0  0  0
   -2.1180   -0.5934    1.1811 C   0  0  1  0  0  0  0  0  0  0  0  0
   -1.8434   -1.3083    3.9384 H   0  0  0  0  0  0  0  0  0  0  0  0
   -3.5327   -1.0470    4.3630 H   0  0  0  0  0  0  0  0  0  0  0  0
   -3.1064   -2.2919    3.1785 H   0  0  0  0  0  0  0  0  0  0  0  0
   -2.6921    0.7160    2.8276 H   0  0  0  0  0  0  0  0  0  0  0  0
   -4.9698    0.4785    2.8171 H   0  0  0  0  0  0  0  0  0  0  0  0
   -4.9874   -1.0525    1.9882 H   0  0  0  0  0  0  0  0  0  0  0  0
   -5.4254    1.4446    0.8218 H   0  0  0  0  0  0  0  0  0  0  0  0
   -3.3940   -0.2785   -2.0479 H   0  0  0  0  0  0  0  0  0  0  0  0
   -3.3037   -1.6456   -0.9697 H   0  0  0  0  0  0  0  0  0  0  0  0
   -5.3704   -1.1995   -0.1485 H   0  0  0  0  0  0  0  0  0  0  0  0
   -6.0885    2.0136   -2.9272 H   0  0  0  0  0  0  0  0  0  0  0  0
   -5.4066    2.4660   -1.3570 H   0  0  0  0  0  0  0  0  0  0  0  0
   -4.4190    1.6383   -2.5792 H   0  0  0  0  0  0  0  0  0  0  0  0
   -7.9798    0.7228   -1.8610 H   0  0  0  0  0  0  0  0  0  0  0  0
   -7.6513   -0.5280   -0.6779 H   0  0  0  0  0  0  0  0  0  0  0  0
   -7.3938    1.1759   -0.2498 H   0  0  0  0  0  0  0  0  0  0  0  0
   -6.2281   -1.4346   -2.3699 H   0  0  0  0  0  0  0  0  0  0  0  0
   -1.0622    1.7898   -0.3427 H   0  0  0  0  0  0  0  0  0  0  0  0
   -2.0269    1.5465   -2.3206 H   0  0  0  0  0  0  0  0  0  0  0  0
   -1.1161   -2.1233   -0.8074 H   0  0  0  0  0  0  0  0  0  0  0  0
    0.6281   -2.1701   -0.8831 H   0  0  0  0  0  0  0  0  0  0  0  0
   -0.2747   -1.3339   -2.1278 H   0  0  0  0  0  0  0  0  0  0  0  0
    1.2386    1.4155    0.0254 H   0  0  0  0  0  0  0  0  0  0  0  0
    1.8787   -0.5181   -2.2341 H   0  0  0  0  0  0  0  0  0  0  0  0
    1.1993    1.1037   -2.3637 H   0  0  0  0  0  0  0  0  0  0  0  0
    3.5314    1.2513   -2.7997 H   0  0  0  0  0  0  0  0  0  0  0  0
    3.2481    2.0263   -1.2451 H   0  0  0  0  0  0  0  0  0  0  0  0
    4.2126   -0.8246   -1.7487 H   0  0  0  0  0  0  0  0  0  0  0  0
    5.6645    1.7818    0.7146 H   0  0  0  0  0  0  0  0  0  0  0  0
    7.0183    2.1371   -0.3403 H   0  0  0  0  0  0  0  0  0  0  0  0
    5.4033    2.7031   -0.7741 H   0  0  0  0  0  0  0  0  0  0  0  0
    7.2901    1.0133   -2.5884 H   0  0  0  0  0  0  0  0  0  0  0  0
    6.0690   -0.1195   -3.1705 H   0  0  0  0  0  0  0  0  0  0  0  0
    5.7022    1.6124   -3.0488 H   0  0  0  0  0  0  0  0  0  0  0  0
    6.7477   -1.9620    1.1175 H   0  0  0  0  0  0  0  0  0  0  0  0
    6.2535   -0.3414    1.6271 H   0  0  0  0  0  0  0  0  0  0  0  0
    4.3620   -1.9130    1.7453 H   0  0  0  0  0  0  0  0  0  0  0  0
    4.5739   -2.3899    0.0642 H   0  0  0  0  0  0  0  0  0  0  0  0
    3.2642    1.6155    1.0963 H   0  0  0  0  0  0  0  0  0  0  0  0
    3.5265    0.3679    2.3595 H   0  0  0  0  0  0  0  0  0  0  0  0
    2.3029   -1.6303    2.3917 H   0  0  0  0  0  0  0  0  0  0  0  0
    1.9143   -2.4548    0.9079 H   0  0  0  0  0  0  0  0  0  0  0  0
   -0.2023   -2.4669    1.5894 H   0  0  0  0  0  0  0  0  0  0  0  0
    0.1830   -1.4890    2.9676 H   0  0  0  0  0  0  0  0  0  0  0  0
   -0.5449    0.7326    3.1960 H   0  0  0  0  0  0  0  0  0  0  0  0
    0.7712    1.1999    2.1677 H   0  0  0  0  0  0  0  0  0  0  0  0
   -0.8479    1.7900    1.8178 H   0  0  0  0  0  0  0  0  0  0  0  0
   -2.2672   -1.6600    0.9676 H   0  0  0  0  0  0  0  0  0  0  0  0
  1  2  1  0
  2  3  1  0
  3  4  1  0
  4  5  1  0
  5  6  1  0
  6  7  1  6
  7  8  1  0
  8  9  1  0
  9 10  1  0
  9 11  1  0
  9 12  1  0
  6 13  1  0
 13 14  1  0
 13 15  1  0
 15 16  1  6
 15 17  1  0
 17 18  1  0
 18 19  1  0
 19 20  1  0
 20 21  1  0
 21 22  1  0
 21 23  1  0
 21 24  1  0
 24 25  2  0
 24 26  1  0
 26 27  1  0
 28 27  1  1
 28 29  1  0
 30 29  1  1
 30 31  1  0
 31 32  1  0
 32 33  1  0
 33 34  1  1
 33 35  1  0
 35  2  1  0
  8  4  1  0
 33 15  1  0
 35  6  1  0
 30 17  1  0
 28 20  1  0
 30 28  1  0
  1 36  1  0
  1 37  1  0
  1 38  1  0
  2 39  1  1
  3 40  1  0
  3 41  1  0
  4 42  1  1
  7 43  1  0
  7 44  1  0
  8 45  1  1
 10 46  1  0
 10 47  1  0
 10 48  1  0
 11 49  1  0
 11 50  1  0
 11 51  1  0
 12 52  1  0
 13 53  1  1
 14 54  1  0
 16 55  1  0
 16 56  1  0
 16 57  1  0
 17 58  1  1
 18 59  1  0
 18 60  1  0
 19 61  1  0
 19 62  1  0
 20 63  1  6
 22 64  1  0
 22 65  1  0
 22 66  1  0
 23 67  1  0
 23 68  1  0
 23 69  1  0
 26 70  1  0
 26 71  1  0
 27 72  1  0
 27 73  1  0
 29 74  1  0
 29 75  1  0
 31 76  1  0
 31 77  1  0
 32 78  1  0
 32 79  1  0
 34 80  1  0
 34 81  1  0
 34 82  1  0
 35 83  1  6
M  END
$$$$
