
     RDKit          3D

 28 29  0  0  0  0  0  0  0  0999 V2000
   -1.2288   -2.9676    1.1465 O   0  0  0  0  0  0  0  0  0  0  0  0
   -1.0479   -1.7710    0.8893 C   0  0  0  0  0  0  0  0  0  0  0  0
    0.3400   -1.3316    0.5444 C   0  0  0  0  0  0  0  0  0  0  0  0
    0.6814   -0.1750   -0.0421 C   0  0  0  0  0  0  0  0  0  0  0  0
    2.0675    0.1958   -0.3859 C   0  0  0  0  0  0  0  0  0  0  0  0
    2.4751    1.5061   -0.1398 C   0  0  0  0  0  0  0  0  0  0  0  0
    3.7635    1.9052   -0.4783 C   0  0  0  0  0  0  0  0  0  0  0  0
    4.6475    0.9959   -1.0764 C   0  0  0  0  0  0  0  0  0  0  0  0
    4.3049   -0.3374   -1.3682 C   0  0  0  0  0  0  0  0  0  0  0  0
    5.1233   -1.1483   -1.9221 O   0  0  0  0  0  0  0  0  0  0  0  0
    2.9821   -0.6918   -0.9991 C   0  0  0  0  0  0  0  0  0  0  0  0
   -2.2119   -0.8438    0.7651 C   0  0  0  0  0  0  0  0  0  0  0  0
   -3.1571   -1.2250   -0.2044 C   0  0  0  0  0  0  0  0  0  0  0  0
   -4.3095   -0.4639   -0.4255 C   0  0  0  0  0  0  0  0  0  0  0  0
   -4.5941    0.6977    0.2991 C   0  0  0  0  0  0  0  0  0  0  0  0
   -5.6533    1.3906    0.0949 O   0  0  0  0  0  0  0  0  0  0  0  0
   -3.6011    1.0193    1.2787 C   0  0  0  0  0  0  0  0  0  0  0  0
   -2.3927    0.3005    1.5786 C   0  0  0  0  0  0  0  0  0  0  0  0
   -1.5931    0.6794    2.5102 O   0  0  0  0  0  0  0  0  0  0  0  0
    1.0936   -2.0731    0.7823 H   0  0  0  0  0  0  0  0  0  0  0  0
   -0.0778    0.5770   -0.2471 H   0  0  0  0  0  0  0  0  0  0  0  0
    1.7907    2.2091    0.3280 H   0  0  0  0  0  0  0  0  0  0  0  0
    4.0869    2.9199   -0.2800 H   0  0  0  0  0  0  0  0  0  0  0  0
    5.6493    1.3357   -1.3316 H   0  0  0  0  0  0  0  0  0  0  0  0
    2.6568   -1.7089   -1.2149 H   0  0  0  0  0  0  0  0  0  0  0  0
   -2.9935   -2.1218   -0.7908 H   0  0  0  0  0  0  0  0  0  0  0  0
   -5.0132   -0.7882   -1.1869 H   0  0  0  0  0  0  0  0  0  0  0  0
   -3.7887    1.9153    1.8761 H   0  0  0  0  0  0  0  0  0  0  0  0
  1  2  2  0
  2  3  1  0
  3  4  2  0
  4  5  1  0
  5  6  2  0
  6  7  1  0
  7  8  2  0
  8  9  1  0
  9 10  1  0
  9 11  2  0
  2 12  1  0
 12 13  2  0
 13 14  1  0
 14 15  2  0
 15 16  1  0
 15 17  1  0
 17 18  2  0
 18 19  1  0
 11  5  1  0
 18 12  1  0
  3 20  1  0
  4 21  1  0
  6 22  1  0
  7 23  1  0
  8 24  1  0
 11 25  1  0
 13 26  1  0
 14 27  1  0
 17 28  1  0
M  CHG  3  10  -1  16  -1  19  -1
M  END
$$$$
