
     RDKit          3D

 53 56  0  0  0  0  0  0  0  0999 V2000
   -8.3568    1.9921    0.0753 C   0  0  0  0  0  0  0  0  0  0  0  0
   -8.5806    0.5904    0.1629 O   0  0  0  0  0  0  0  0  0  0  0  0
   -7.4684   -0.2052    0.0837 C   0  0  0  0  0  0  0  0  0  0  0  0
   -6.1680    0.2284   -0.1715 C   0  0  0  0  0  0  0  0  0  0  0  0
   -5.1180   -0.6939   -0.2260 C   0  0  0  0  0  0  0  0  0  0  0  0
   -5.3458   -2.0609   -0.0138 C   0  0  0  0  0  0  0  0  0  0  0  0
   -4.2075   -3.0592   -0.1027 C   0  0  0  0  0  0  0  0  0  0  0  0
   -2.9900   -2.6775    0.6602 C   0  0  0  0  0  0  0  0  0  0  0  0
   -2.7908   -2.5638    2.0245 C   0  0  0  0  0  0  0  0  0  0  0  0
   -1.5113   -2.1949    2.2410 N   0  0  0  0  0  0  0  0  0  0  0  0
   -0.9322   -2.0599    1.0277 C   0  0  0  0  0  0  0  0  0  0  0  0
    0.4685   -1.6395    0.7955 C   0  0  0  0  0  0  0  0  0  0  0  0
    0.5768   -0.1290    0.5819 C   0  0  0  0  0  0  0  0  0  0  0  0
    1.9897    0.3005    0.2458 C   0  0  0  0  0  0  0  0  0  0  0  0
    2.4765    0.1669   -1.0588 C   0  0  0  0  0  0  0  0  0  0  0  0
    3.7930    0.5283   -1.3664 C   0  0  0  0  0  0  0  0  0  0  0  0
    4.6639    1.0281   -0.3823 C   0  0  0  0  0  0  0  0  0  0  0  0
    6.0838    1.2858   -0.6997 C   0  0  0  0  0  0  0  0  0  0  0  0
    6.8704    0.1981   -1.1451 C   0  0  0  0  0  0  0  0  0  0  0  0
    8.2184    0.3463   -1.4825 C   0  0  0  0  0  0  0  0  0  0  0  0
    8.8197    1.5936   -1.3845 C   0  0  0  0  0  0  0  0  0  0  0  0
    8.0709    2.6823   -0.9439 C   0  0  0  0  0  0  0  0  0  0  0  0
    6.7105    2.5446   -0.5930 C   0  0  0  0  0  0  0  0  0  0  0  0
    6.0013    3.7847   -0.1313 C   0  0  0  0  0  0  0  0  0  0  0  0
    5.6619    4.6117   -1.0348 O   0  0  0  0  0  0  0  0  0  0  0  0
    5.8953    3.9479    1.1244 O   0  0  0  0  0  0  0  0  0  0  0  0
    4.1580    1.1817    0.9158 C   0  0  0  0  0  0  0  0  0  0  0  0
    2.8400    0.8197    1.2286 C   0  0  0  0  0  0  0  0  0  0  0  0
   -1.8152   -2.3734    0.0522 N   0  0  0  0  0  0  0  0  0  0  0  0
   -6.6566   -2.4909    0.2267 C   0  0  0  0  0  0  0  0  0  0  0  0
   -7.7061   -1.5684    0.2763 C   0  0  0  0  0  0  0  0  0  0  0  0
   -9.3220    2.4921    0.2019 H   0  0  0  0  0  0  0  0  0  0  0  0
   -7.9677    2.2685   -0.9102 H   0  0  0  0  0  0  0  0  0  0  0  0
   -7.6957    2.3405    0.8760 H   0  0  0  0  0  0  0  0  0  0  0  0
   -5.9231    1.2723   -0.3312 H   0  0  0  0  0  0  0  0  0  0  0  0
   -4.1024   -0.3436   -0.4210 H   0  0  0  0  0  0  0  0  0  0  0  0
   -3.9568   -3.2032   -1.1611 H   0  0  0  0  0  0  0  0  0  0  0  0
   -4.5350   -4.0344    0.2797 H   0  0  0  0  0  0  0  0  0  0  0  0
   -3.5070   -2.7281    2.8150 H   0  0  0  0  0  0  0  0  0  0  0  0
    0.8549   -2.1820   -0.0768 H   0  0  0  0  0  0  0  0  0  0  0  0
    1.0838   -1.9470    1.6505 H   0  0  0  0  0  0  0  0  0  0  0  0
   -0.0901    0.1961   -0.2280 H   0  0  0  0  0  0  0  0  0  0  0  0
    0.2331    0.4061    1.4770 H   0  0  0  0  0  0  0  0  0  0  0  0
    1.8315   -0.2263   -1.8409 H   0  0  0  0  0  0  0  0  0  0  0  0
    4.1450    0.4131   -2.3884 H   0  0  0  0  0  0  0  0  0  0  0  0
    6.4174   -0.7888   -1.2212 H   0  0  0  0  0  0  0  0  0  0  0  0
    8.7890   -0.5128   -1.8189 H   0  0  0  0  0  0  0  0  0  0  0  0
    9.8639    1.7260   -1.6459 H   0  0  0  0  0  0  0  0  0  0  0  0
    8.5292    3.6664   -0.8648 H   0  0  0  0  0  0  0  0  0  0  0  0
    4.7972    1.5858    1.6998 H   0  0  0  0  0  0  0  0  0  0  0  0
    2.4858    0.9467    2.2485 H   0  0  0  0  0  0  0  0  0  0  0  0
   -6.8659   -3.5460    0.3810 H   0  0  0  0  0  0  0  0  0  0  0  0
   -8.7163   -1.9158    0.4717 H   0  0  0  0  0  0  0  0  0  0  0  0
  1  2  1  0
  2  3  1  0
  3  4  2  0
  4  5  1  0
  5  6  2  0
  6  7  1  0
  7  8  1  0
  8  9  2  0
  9 10  1  0
 10 11  1  0
 11 12  1  0
 12 13  1  0
 13 14  1  0
 14 15  2  0
 15 16  1  0
 16 17  2  0
 17 18  1  0
 18 19  2  0
 19 20  1  0
 20 21  2  0
 21 22  1  0
 22 23  2  0
 23 24  1  0
 24 25  2  0
 24 26  1  0
 17 27  1  0
 27 28  2  0
 11 29  2  0
  6 30  1  0
 30 31  2  0
 31  3  1  0
 29  8  1  0
 28 14  1  0
 23 18  1  0
  1 32  1  0
  1 33  1  0
  1 34  1  0
  4 35  1  0
  5 36  1  0
  7 37  1  0
  7 38  1  0
  9 39  1  0
 12 40  1  0
 12 41  1  0
 13 42  1  0
 13 43  1  0
 15 44  1  0
 16 45  1  0
 19 46  1  0
 20 47  1  0
 21 48  1  0
 22 49  1  0
 27 50  1  0
 28 51  1  0
 30 52  1  0
 31 53  1  0
M  CHG  2  10  -1  26  -1
M  END
$$$$
