
     RDKit          3D

 48 52  0  0  0  0  0  0  0  0999 V2000
   -4.2623   -3.1859   -0.5946 C   0  0  0  0  0  0  0  0  0  0  0  0
   -3.6213   -2.8223    0.7464 C   0  0  0  0  0  0  0  0  0  0  0  0
   -3.2936   -4.0894    1.5390 C   0  0  0  0  0  0  0  0  0  0  0  0
   -4.5856   -2.1020    1.5220 O   0  0  0  0  0  0  0  0  0  0  0  0
   -2.4074   -1.9337    0.5414 C   0  0  0  0  0  0  0  0  0  0  0  0
   -1.0795   -2.2987    0.4256 C   0  0  0  0  0  0  0  0  0  0  0  0
   -0.2045   -1.1932    0.2148 C   0  0  0  0  0  0  0  0  0  0  0  0
    1.1338   -1.2961    0.0913 N   0  0  0  0  0  0  0  0  0  0  0  0
    1.7914   -0.1457   -0.0585 C   0  0  0  0  0  0  0  0  0  0  0  0
    3.2511   -0.1646   -0.2041 C   0  0  0  0  0  0  0  0  0  0  0  0
    3.9885    0.9238   -0.7407 C   0  0  0  0  0  0  0  0  0  0  0  0
    5.3860    0.8998   -0.8779 C   0  0  0  0  0  0  0  0  0  0  0  0
    6.1270   -0.2123   -0.4823 C   0  0  0  0  0  0  0  0  0  0  0  0
    5.4357   -1.3055    0.0607 C   0  0  0  0  0  0  0  0  0  0  0  0
    5.9265   -2.4792    0.5176 N   0  0  0  0  0  0  0  0  0  0  0  0
    4.8868   -3.2155    0.9592 N   0  0  0  0  0  0  0  0  0  0  0  0
    3.7817   -2.4793    0.7566 C   0  0  0  0  0  0  0  0  0  0  0  0
    4.0406   -1.2566    0.1852 C   0  0  0  0  0  0  0  0  0  0  0  0
    1.2012    1.0679   -0.1379 N   0  0  0  0  0  0  0  0  0  0  0  0
   -0.1447    1.1922   -0.0610 C   0  0  0  0  0  0  0  0  0  0  0  0
   -0.7142    2.4612   -0.1529 N   0  0  0  0  0  0  0  0  0  0  0  0
   -1.5090    2.7214   -1.3609 C   0  0  0  0  0  0  0  0  0  0  0  0
   -2.2604    4.0535   -1.2055 C   0  0  0  0  0  0  0  0  0  0  0  0
   -1.3668    5.1394   -0.9079 O   0  0  0  0  0  0  0  0  0  0  0  0
   -0.6538    4.8734    0.3135 C   0  0  0  0  0  0  0  0  0  0  0  0
    0.1675    3.5779    0.2224 C   0  0  0  0  0  0  0  0  0  0  0  0
   -0.8809    0.0153    0.1441 C   0  0  0  0  0  0  0  0  0  0  0  0
   -2.5706   -0.2304    0.3676 S   0  0  0  0  0  0  0  0  0  0  0  0
   -5.1639   -3.7908   -0.4440 H   0  0  0  0  0  0  0  0  0  0  0  0
   -3.5719   -3.7450   -1.2355 H   0  0  0  0  0  0  0  0  0  0  0  0
   -4.5816   -2.2897   -1.1395 H   0  0  0  0  0  0  0  0  0  0  0  0
   -2.6086   -4.7504    0.9976 H   0  0  0  0  0  0  0  0  0  0  0  0
   -2.8394   -3.8419    2.5060 H   0  0  0  0  0  0  0  0  0  0  0  0
   -4.2059   -4.6550    1.7626 H   0  0  0  0  0  0  0  0  0  0  0  0
   -4.6139   -1.1969    1.1667 H   0  0  0  0  0  0  0  0  0  0  0  0
   -0.7194   -3.3181    0.4947 H   0  0  0  0  0  0  0  0  0  0  0  0
    3.4542    1.8150   -1.0654 H   0  0  0  0  0  0  0  0  0  0  0  0
    5.9015    1.7584   -1.2979 H   0  0  0  0  0  0  0  0  0  0  0  0
    7.2026   -0.2720   -0.5695 H   0  0  0  0  0  0  0  0  0  0  0  0
    2.8170   -2.8738    1.0430 H   0  0  0  0  0  0  0  0  0  0  0  0
   -2.2371    1.9302   -1.5617 H   0  0  0  0  0  0  0  0  0  0  0  0
   -0.8346    2.7853   -2.2246 H   0  0  0  0  0  0  0  0  0  0  0  0
   -3.0145    3.9879   -0.4119 H   0  0  0  0  0  0  0  0  0  0  0  0
   -2.7785    4.2979   -2.1382 H   0  0  0  0  0  0  0  0  0  0  0  0
    0.0107    5.7227    0.5007 H   0  0  0  0  0  0  0  0  0  0  0  0
   -1.3742    4.8244    1.1389 H   0  0  0  0  0  0  0  0  0  0  0  0
    0.6446    3.3931    1.1924 H   0  0  0  0  0  0  0  0  0  0  0  0
    0.9496    3.7032   -0.5375 H   0  0  0  0  0  0  0  0  0  0  0  0
  1  2  1  0
  2  3  1  0
  2  4  1  0
  2  5  1  0
  5  6  2  0
  6  7  1  0
  7  8  2  0
  8  9  1  0
  9 10  1  0
 10 11  2  0
 11 12  1  0
 12 13  2  0
 13 14  1  0
 14 15  1  0
 15 16  1  0
 16 17  2  0
 17 18  1  0
  9 19  2  0
 19 20  1  0
 20 21  1  0
 21 22  1  0
 22 23  1  0
 23 24  1  0
 24 25  1  0
 25 26  1  0
 20 27  2  0
 27 28  1  0
 28  5  1  0
 27  7  1  0
 18 10  1  0
 26 21  1  0
 18 14  2  0
  1 29  1  0
  1 30  1  0
  1 31  1  0
  3 32  1  0
  3 33  1  0
  3 34  1  0
  4 35  1  0
  6 36  1  0
 11 37  1  0
 12 38  1  0
 13 39  1  0
 17 40  1  0
 22 41  1  0
 22 42  1  0
 23 43  1  0
 23 44  1  0
 25 45  1  0
 25 46  1  0
 26 47  1  0
 26 48  1  0
M  CHG  1  15  -1
M  END
$$$$
