
     RDKit          3D

 63 66  0  0  0  0  0  0  0  0999 V2000
    3.2850    0.3120   -1.3239 O   0  0  0  0  0  0  0  0  0  0  0  0
    3.5697   -0.3041   -0.3031 C   0  0  0  0  0  0  0  0  0  0  0  0
    4.7611   -0.2404    0.3960 N   0  0  0  0  0  0  0  0  0  0  0  0
    5.9273    0.4674    0.0313 C   0  0  0  0  0  0  0  0  0  0  0  0
    7.0002    0.4381    0.9306 C   0  0  0  0  0  0  0  0  0  0  0  0
    8.1897    1.1120    0.6459 C   0  0  0  0  0  0  0  0  0  0  0  0
    8.3209    1.8222   -0.5452 C   0  0  0  0  0  0  0  0  0  0  0  0
    7.2639    1.8590   -1.4640 C   0  0  0  0  0  0  0  0  0  0  0  0
    7.3783    2.6288   -2.7568 C   0  0  0  0  0  0  0  0  0  0  0  0
    6.5662    3.7218   -2.7835 F   0  0  0  0  0  0  0  0  0  0  0  0
    8.6354    3.0937   -3.0021 F   0  0  0  0  0  0  0  0  0  0  0  0
    7.0400    1.8831   -3.8451 F   0  0  0  0  0  0  0  0  0  0  0  0
    6.0695    1.1773   -1.1630 C   0  0  0  0  0  0  0  0  0  0  0  0
    2.5197   -1.1843    0.2893 C   0  0  0  0  0  0  0  0  0  0  0  0
    1.1757   -0.8386    0.0670 C   0  0  0  0  0  0  0  0  0  0  0  0
    0.1104   -1.6059    0.5616 C   0  0  0  0  0  0  0  0  0  0  0  0
   -1.2159   -1.2601    0.3185 N   0  0  0  0  0  0  0  0  0  0  0  0
   -2.2577   -1.6488    1.2668 C   0  0  0  0  0  0  0  0  0  0  0  0
   -3.4323   -0.6807    1.1721 C   0  0  0  0  0  0  0  0  0  0  0  0
   -4.0102   -0.7132   -0.2407 C   0  0  0  0  0  0  0  0  0  0  0  0
   -4.9889    0.4442   -0.4967 N   0  0  0  0  0  0  0  0  0  0  0  0
   -6.2561    0.3334    0.3321 C   0  0  0  0  0  0  0  0  0  0  0  0
   -7.2825    1.3347   -0.1802 C   0  0  0  0  0  0  0  0  0  0  0  0
   -6.7350    2.7576   -0.1765 C   0  0  0  0  0  0  0  0  0  0  0  0
   -5.4158    2.8451   -0.9359 C   0  0  0  0  0  0  0  0  0  0  0  0
   -4.3981    1.8388   -0.4136 C   0  0  0  0  0  0  0  0  0  0  0  0
   -2.9563   -0.7918   -1.3505 C   0  0  0  0  0  0  0  0  0  0  0  0
   -1.5544   -0.4543   -0.8542 C   0  0  0  0  0  0  0  0  0  0  0  0
    0.4528   -2.7455    1.3064 C   0  0  0  0  0  0  0  0  0  0  0  0
    1.7910   -3.1225    1.5395 C   0  0  0  0  0  0  0  0  0  0  0  0
    2.0977   -4.3879    2.3042 C   0  0  0  0  0  0  0  0  0  0  0  0
    3.3057   -4.3462    2.9296 F   0  0  0  0  0  0  0  0  0  0  0  0
    1.1811   -4.6504    3.2763 F   0  0  0  0  0  0  0  0  0  0  0  0
    2.1215   -5.4833    1.5002 F   0  0  0  0  0  0  0  0  0  0  0  0
    2.8253   -2.3395    1.0103 C   0  0  0  0  0  0  0  0  0  0  0  0
    4.8081   -0.7130    1.2886 H   0  0  0  0  0  0  0  0  0  0  0  0
    6.9292   -0.1067    1.8687 H   0  0  0  0  0  0  0  0  0  0  0  0
    9.0147    1.0831    1.3542 H   0  0  0  0  0  0  0  0  0  0  0  0
    9.2530    2.3455   -0.7556 H   0  0  0  0  0  0  0  0  0  0  0  0
    5.2653    1.2186   -1.8933 H   0  0  0  0  0  0  0  0  0  0  0  0
    0.9794    0.0710   -0.4974 H   0  0  0  0  0  0  0  0  0  0  0  0
   -1.8815   -1.6174    2.2969 H   0  0  0  0  0  0  0  0  0  0  0  0
   -2.5905   -2.6727    1.0579 H   0  0  0  0  0  0  0  0  0  0  0  0
   -3.0834    0.3212    1.4440 H   0  0  0  0  0  0  0  0  0  0  0  0
   -4.1974   -0.9633    1.9040 H   0  0  0  0  0  0  0  0  0  0  0  0
   -4.6338   -1.6119   -0.3401 H   0  0  0  0  0  0  0  0  0  0  0  0
   -5.2925    0.3212   -1.4733 H   0  0  0  0  0  0  0  0  0  0  0  0
   -6.6337   -0.6886    0.2269 H   0  0  0  0  0  0  0  0  0  0  0  0
   -5.9918    0.5250    1.3772 H   0  0  0  0  0  0  0  0  0  0  0  0
   -8.1837    1.2863    0.4412 H   0  0  0  0  0  0  0  0  0  0  0  0
   -7.5841    1.0632   -1.1996 H   0  0  0  0  0  0  0  0  0  0  0  0
   -7.4673    3.4385   -0.6244 H   0  0  0  0  0  0  0  0  0  0  0  0
   -6.5827    3.0871    0.8587 H   0  0  0  0  0  0  0  0  0  0  0  0
   -5.0080    3.8583   -0.8470 H   0  0  0  0  0  0  0  0  0  0  0  0
   -5.5960    2.6669   -2.0034 H   0  0  0  0  0  0  0  0  0  0  0  0
   -3.4948    1.8638   -1.0277 H   0  0  0  0  0  0  0  0  0  0  0  0
   -4.1437    2.0405    0.6311 H   0  0  0  0  0  0  0  0  0  0  0  0
   -3.2127   -0.1689   -2.2150 H   0  0  0  0  0  0  0  0  0  0  0  0
   -2.9383   -1.8250   -1.7248 H   0  0  0  0  0  0  0  0  0  0  0  0
   -0.8643   -0.6486   -1.6847 H   0  0  0  0  0  0  0  0  0  0  0  0
   -1.4812    0.6099   -0.6021 H   0  0  0  0  0  0  0  0  0  0  0  0
   -0.3298   -3.3950    1.6966 H   0  0  0  0  0  0  0  0  0  0  0  0
    3.8565   -2.6609    1.1431 H   0  0  0  0  0  0  0  0  0  0  0  0
  1  2  2  0
  2  3  1  0
  3  4  1  0
  4  5  2  0
  5  6  1  0
  6  7  2  0
  7  8  1  0
  8  9  1  0
  9 10  1  0
  9 11  1  0
  9 12  1  0
  8 13  2  0
  2 14  1  0
 14 15  2  0
 15 16  1  0
 16 17  1  0
 17 18  1  0
 18 19  1  0
 19 20  1  0
 20 21  1  0
 21 22  1  0
 22 23  1  0
 23 24  1  0
 24 25  1  0
 25 26  1  0
 20 27  1  0
 27 28  1  0
 16 29  2  0
 29 30  1  0
 30 31  1  0
 31 32  1  0
 31 33  1  0
 31 34  1  0
 30 35  2  0
 13  4  1  0
 35 14  1  0
 28 17  1  0
 26 21  1  0
  3 36  1  0
  5 37  1  0
  6 38  1  0
  7 39  1  0
 13 40  1  0
 15 41  1  0
 18 42  1  0
 18 43  1  0
 19 44  1  0
 19 45  1  0
 20 46  1  0
 21 47  1  0
 22 48  1  0
 22 49  1  0
 23 50  1  0
 23 51  1  0
 24 52  1  0
 24 53  1  0
 25 54  1  0
 25 55  1  0
 26 56  1  0
 26 57  1  0
 27 58  1  0
 27 59  1  0
 28 60  1  0
 28 61  1  0
 29 62  1  0
 35 63  1  0
M  CHG  1  21   1
M  END
$$$$
