
     RDKit          3D

 52 54  0  0  0  0  0  0  0  0999 V2000
   -6.4140    0.6057    2.1221 C   0  0  0  0  0  0  0  0  0  0  0  0
   -5.7030    0.4621    0.7788 C   0  0  0  0  0  0  0  0  0  0  0  0
   -5.6776    1.7968    0.0357 C   0  0  0  0  0  0  0  0  0  0  0  0
   -6.4309   -0.4674   -0.0350 O   0  0  0  0  0  0  0  0  0  0  0  0
   -4.2504   -0.0379    0.9697 C   0  0  0  0  0  0  0  0  0  0  0  0
   -3.6191    0.0803    2.0148 O   0  0  0  0  0  0  0  0  0  0  0  0
   -3.7224   -0.6062   -0.1719 N   0  0  0  0  0  0  0  0  0  0  0  0
   -2.3671   -1.1178   -0.2330 C   0  0  0  0  0  0  0  0  0  0  0  0
   -1.2998   -0.0057   -0.3932 C   0  0  2  0  0  0  0  0  0  0  0  0
   -1.6040    0.8000   -1.6756 C   0  0  0  0  0  0  0  0  0  0  0  0
   -0.4399    1.6951   -2.0684 C   0  0  0  0  0  0  0  0  0  0  0  0
    0.7725    0.8370   -2.4016 C   0  0  0  0  0  0  0  0  0  0  0  0
    1.0984   -0.1395   -1.2994 C   0  0  0  0  0  0  0  0  0  0  0  0
    2.3992   -0.6663   -1.2406 C   0  0  0  0  0  0  0  0  0  0  0  0
    2.7522   -1.5495   -0.2191 C   0  0  0  0  0  0  0  0  0  0  0  0
    4.4074   -2.1913   -0.1598 S   0  0  0  0  0  0  0  0  0  0  0  0
    4.8117   -2.4435   -1.5313 O   0  0  0  0  0  0  0  0  0  0  0  0
    4.4416   -3.2580    0.8240 O   0  0  0  0  0  0  0  0  0  0  0  0
    5.4260   -0.8804    0.4736 C   0  0  0  0  0  0  0  0  0  0  0  0
    6.3014   -0.1972   -0.3785 C   0  0  0  0  0  0  0  0  0  0  0  0
    7.1008    0.8263    0.1339 C   0  0  0  0  0  0  0  0  0  0  0  0
    7.0262    1.1546    1.4882 C   0  0  0  0  0  0  0  0  0  0  0  0
    6.1585    0.4553    2.3227 C   0  0  0  0  0  0  0  0  0  0  0  0
    6.0978    0.7728    3.6222 F   0  0  0  0  0  0  0  0  0  0  0  0
    5.3555   -0.5656    1.8322 C   0  0  0  0  0  0  0  0  0  0  0  0
    1.8205   -1.9315    0.7415 C   0  0  0  0  0  0  0  0  0  0  0  0
    0.5231   -1.4212    0.6760 C   0  0  0  0  0  0  0  0  0  0  0  0
    0.1298   -0.5492   -0.3582 C   0  0  0  0  0  0  0  0  0  0  0  0
   -6.4211   -0.3485    2.6617 H   0  0  0  0  0  0  0  0  0  0  0  0
   -7.4615    0.8949    1.9818 H   0  0  0  0  0  0  0  0  0  0  0  0
   -5.9282    1.3501    2.7616 H   0  0  0  0  0  0  0  0  0  0  0  0
   -5.1068    2.5524    0.5858 H   0  0  0  0  0  0  0  0  0  0  0  0
   -6.6938    2.1738   -0.1256 H   0  0  0  0  0  0  0  0  0  0  0  0
   -5.2255    1.6894   -0.9571 H   0  0  0  0  0  0  0  0  0  0  0  0
   -6.5246   -1.2854    0.4864 H   0  0  0  0  0  0  0  0  0  0  0  0
   -4.3402   -0.7018   -0.9731 H   0  0  0  0  0  0  0  0  0  0  0  0
   -2.2065   -1.6990    0.6804 H   0  0  0  0  0  0  0  0  0  0  0  0
   -2.3227   -1.8182   -1.0752 H   0  0  0  0  0  0  0  0  0  0  0  0
   -1.3797    0.6908    0.4534 H   0  0  0  0  0  0  0  0  0  0  0  0
   -2.4980    1.4168   -1.5241 H   0  0  0  0  0  0  0  0  0  0  0  0
   -1.8272    0.1198   -2.5085 H   0  0  0  0  0  0  0  0  0  0  0  0
   -0.2069    2.3863   -1.2487 H   0  0  0  0  0  0  0  0  0  0  0  0
   -0.7103    2.3037   -2.9386 H   0  0  0  0  0  0  0  0  0  0  0  0
    1.6289    1.4978   -2.5823 H   0  0  0  0  0  0  0  0  0  0  0  0
    0.5891    0.2710   -3.3233 H   0  0  0  0  0  0  0  0  0  0  0  0
    3.1336   -0.3796   -1.9915 H   0  0  0  0  0  0  0  0  0  0  0  0
    6.3716   -0.4558   -1.4334 H   0  0  0  0  0  0  0  0  0  0  0  0
    7.7848    1.3635   -0.5193 H   0  0  0  0  0  0  0  0  0  0  0  0
    7.6438    1.9467    1.9012 H   0  0  0  0  0  0  0  0  0  0  0  0
    4.6979   -1.1013    2.5100 H   0  0  0  0  0  0  0  0  0  0  0  0
    2.0869   -2.6170    1.5430 H   0  0  0  0  0  0  0  0  0  0  0  0
   -0.1779   -1.7085    1.4579 H   0  0  0  0  0  0  0  0  0  0  0  0
  1  2  1  0
  2  3  1  0
  2  4  1  0
  2  5  1  0
  5  6  2  0
  5  7  1  0
  7  8  1  0
  8  9  1  0
  9 10  1  0
 10 11  1  0
 11 12  1  0
 12 13  1  0
 13 14  2  0
 14 15  1  0
 15 16  1  0
 16 17  2  0
 16 18  2  0
 16 19  1  0
 19 20  2  0
 20 21  1  0
 21 22  2  0
 22 23  1  0
 23 24  1  0
 23 25  2  0
 15 26  2  0
 26 27  1  0
 27 28  2  0
 28  9  1  0
 28 13  1  0
 25 19  1  0
  1 29  1  0
  1 30  1  0
  1 31  1  0
  3 32  1  0
  3 33  1  0
  3 34  1  0
  4 35  1  0
  7 36  1  0
  8 37  1  0
  8 38  1  0
  9 39  1  1
 10 40  1  0
 10 41  1  0
 11 42  1  0
 11 43  1  0
 12 44  1  0
 12 45  1  0
 14 46  1  0
 20 47  1  0
 21 48  1  0
 22 49  1  0
 25 50  1  0
 26 51  1  0
 27 52  1  0
M  END
$$$$
