
     RDKit          3D

 52 55  0  0  0  0  0  0  0  0999 V2000
    4.5622   -0.1477    3.8391 N   0  0  0  0  0  0  0  0  0  0  0  0
    4.9130    0.5930    2.6095 C   0  0  0  0  0  0  0  0  0  0  0  0
    5.4123   -0.3256    1.4908 C   0  0  0  0  0  0  0  0  0  0  0  0
    4.3246   -1.0606    0.6962 C   0  0  0  0  0  0  0  0  0  0  0  0
    3.5491   -2.3475    1.6612 S   0  0  0  0  0  0  0  0  0  0  0  0
    2.8361   -1.6750    2.7329 O   0  0  0  0  0  0  0  0  0  0  0  0
    4.5859   -3.2958    1.9970 O   0  0  0  0  0  0  0  0  0  0  0  0
    2.5014   -3.0839    0.6026 N   0  0  0  0  0  0  0  0  0  0  0  0
    1.4783   -2.3353   -0.0454 C   0  0  0  0  0  0  0  0  0  0  0  0
    0.5324   -1.6136    0.6762 C   0  0  0  0  0  0  0  0  0  0  0  0
   -0.4374   -0.8628    0.0040 C   0  0  0  0  0  0  0  0  0  0  0  0
   -0.4883   -0.8322   -1.3949 C   0  0  0  0  0  0  0  0  0  0  0  0
   -1.4588   -0.1011   -2.0948 N   0  0  0  0  0  0  0  0  0  0  0  0
   -2.5392    0.6643   -1.5799 C   0  0  0  0  0  0  0  0  0  0  0  0
   -2.4981    2.0780   -1.6877 C   0  0  0  0  0  0  0  0  0  0  0  0
   -1.4188    2.7957   -2.2608 C   0  0  0  0  0  0  0  0  0  0  0  0
   -1.4346    4.1875   -2.3344 C   0  0  0  0  0  0  0  0  0  0  0  0
   -2.5241    4.8831   -1.8318 C   0  0  0  0  0  0  0  0  0  0  0  0
   -3.5866    4.1812   -1.2586 C   0  0  0  0  0  0  0  0  0  0  0  0
   -3.5946    2.7948   -1.1771 C   0  0  0  0  0  0  0  0  0  0  0  0
   -4.6528    2.1999   -0.6107 N   0  0  0  0  0  0  0  0  0  0  0  0
   -4.7069    0.8624   -0.5426 C   0  0  0  0  0  0  0  0  0  0  0  0
   -5.8359    0.2825    0.0214 C   0  0  0  0  0  0  0  0  0  0  0  0
   -5.9886   -1.1021    0.1162 C   0  0  0  0  0  0  0  0  0  0  0  0
   -4.9916   -1.9354   -0.3672 C   0  0  0  0  0  0  0  0  0  0  0  0
   -3.8481   -1.3756   -0.9342 C   0  0  0  0  0  0  0  0  0  0  0  0
   -3.6799    0.0293   -1.0222 C   0  0  0  0  0  0  0  0  0  0  0  0
    0.4551   -1.5839   -2.1059 C   0  0  0  0  0  0  0  0  0  0  0  0
    1.4326   -2.3311   -1.4387 C   0  0  0  0  0  0  0  0  0  0  0  0
    4.3709    0.4855    4.6260 H   0  0  0  0  0  0  0  0  0  0  0  0
    5.2876   -0.8098    4.1457 H   0  0  0  0  0  0  0  0  0  0  0  0
    3.6874   -0.7042    3.7169 H   0  0  0  0  0  0  0  0  0  0  0  0
    5.7078    1.2870    2.9003 H   0  0  0  0  0  0  0  0  0  0  0  0
    4.0322    1.1697    2.3118 H   0  0  0  0  0  0  0  0  0  0  0  0
    5.9536    0.3056    0.7744 H   0  0  0  0  0  0  0  0  0  0  0  0
    6.1440   -1.0390    1.8884 H   0  0  0  0  0  0  0  0  0  0  0  0
    4.7706   -1.5442   -0.1789 H   0  0  0  0  0  0  0  0  0  0  0  0
    3.5519   -0.3600    0.3676 H   0  0  0  0  0  0  0  0  0  0  0  0
    2.9066   -3.8630    0.0790 H   0  0  0  0  0  0  0  0  0  0  0  0
    0.5082   -1.6410    1.7619 H   0  0  0  0  0  0  0  0  0  0  0  0
   -1.1661   -0.3092    0.5927 H   0  0  0  0  0  0  0  0  0  0  0  0
   -1.3753   -0.0566   -3.1043 H   0  0  0  0  0  0  0  0  0  0  0  0
   -0.5537    2.2671   -2.6530 H   0  0  0  0  0  0  0  0  0  0  0  0
   -0.6031    4.7239   -2.7838 H   0  0  0  0  0  0  0  0  0  0  0  0
   -2.5568    5.9685   -1.8835 H   0  0  0  0  0  0  0  0  0  0  0  0
   -4.4389    4.7331   -0.8670 H   0  0  0  0  0  0  0  0  0  0  0  0
   -6.6279    0.9304    0.3919 H   0  0  0  0  0  0  0  0  0  0  0  0
   -6.8893   -1.5202    0.5584 H   0  0  0  0  0  0  0  0  0  0  0  0
   -5.1029   -3.0150   -0.3095 H   0  0  0  0  0  0  0  0  0  0  0  0
   -3.0823   -2.0457   -1.3174 H   0  0  0  0  0  0  0  0  0  0  0  0
    0.4322   -1.6012   -3.1936 H   0  0  0  0  0  0  0  0  0  0  0  0
    2.1444   -2.9046   -2.0266 H   0  0  0  0  0  0  0  0  0  0  0  0
  1  2  1  0
  2  3  1  0
  3  4  1  0
  4  5  1  0
  5  6  2  0
  5  7  2  0
  5  8  1  0
  8  9  1  0
  9 10  2  0
 10 11  1  0
 11 12  2  0
 12 13  1  0
 13 14  1  0
 14 15  1  0
 15 16  2  0
 16 17  1  0
 17 18  2  0
 18 19  1  0
 19 20  2  0
 20 21  1  0
 21 22  2  0
 22 23  1  0
 23 24  2  0
 24 25  1  0
 25 26  2  0
 26 27  1  0
 12 28  1  0
 28 29  2  0
 29  9  1  0
 27 14  2  0
 20 15  1  0
 27 22  1  0
  1 30  1  0
  1 31  1  0
  1 32  1  0
  2 33  1  0
  2 34  1  0
  3 35  1  0
  3 36  1  0
  4 37  1  0
  4 38  1  0
  8 39  1  0
 10 40  1  0
 11 41  1  0
 13 42  1  0
 16 43  1  0
 17 44  1  0
 18 45  1  0
 19 46  1  0
 23 47  1  0
 24 48  1  0
 25 49  1  0
 26 50  1  0
 28 51  1  0
 29 52  1  0
M  CHG  1   1   1
M  END
$$$$
