
     RDKit          3D

 31 32  0  0  0  0  0  0  0  0999 V2000
    4.4609   -1.1842   -0.5626 C   0  0  0  0  0  0  0  0  0  0  0  0
    3.8637    0.1912   -0.3327 C   0  0  0  0  0  0  0  0  0  0  0  0
    2.4442    0.1526   -0.5417 O   0  0  0  0  0  0  0  0  0  0  0  0
    1.6988   -0.1973    0.5351 C   0  0  0  0  0  0  0  0  0  0  0  0
    2.1160   -0.4672    1.6503 O   0  0  0  0  0  0  0  0  0  0  0  0
    0.2641   -0.1293    0.1892 C   0  0  0  0  0  0  0  0  0  0  0  0
   -0.2438   -0.7646   -0.9434 C   0  0  0  0  0  0  0  0  0  0  0  0
    0.6027   -1.5935   -1.8661 C   0  0  0  0  0  0  0  0  0  0  0  0
   -1.5536   -0.6815   -1.2919 N   0  0  0  0  0  0  0  0  0  0  0  0
   -2.3949    0.0216   -0.5210 C   0  0  0  0  0  0  0  0  0  0  0  0
   -3.7241    0.1013   -0.9211 C   0  0  0  0  0  0  0  0  0  0  0  0
   -4.6799    0.8054   -0.1870 C   0  0  0  0  0  0  0  0  0  0  0  0
   -4.2999    1.4454    0.9811 C   0  0  0  0  0  0  0  0  0  0  0  0
   -2.9729    1.3732    1.3947 C   0  0  0  0  0  0  0  0  0  0  0  0
   -2.6494    1.9976    2.5401 F   0  0  0  0  0  0  0  0  0  0  0  0
   -1.9875    0.6694    0.6625 C   0  0  0  0  0  0  0  0  0  0  0  0
   -0.6207    0.5602    1.0417 C   0  0  0  0  0  0  0  0  0  0  0  0
   -0.1434    1.2358    2.1751 N   0  0  0  0  0  0  0  0  0  0  0  0
    4.0623   -1.9099    0.1534 H   0  0  0  0  0  0  0  0  0  0  0  0
    4.2068   -1.5513   -1.5624 H   0  0  0  0  0  0  0  0  0  0  0  0
    5.5496   -1.1563   -0.4626 H   0  0  0  0  0  0  0  0  0  0  0  0
    4.1098    0.5743    0.6643 H   0  0  0  0  0  0  0  0  0  0  0  0
    4.2752    0.8982   -1.0604 H   0  0  0  0  0  0  0  0  0  0  0  0
    1.2129   -0.9511   -2.5075 H   0  0  0  0  0  0  0  0  0  0  0  0
    1.2469   -2.2754   -1.3024 H   0  0  0  0  0  0  0  0  0  0  0  0
   -0.0288   -2.2088   -2.5164 H   0  0  0  0  0  0  0  0  0  0  0  0
   -4.0249   -0.4034   -1.8377 H   0  0  0  0  0  0  0  0  0  0  0  0
   -5.7104    0.8469   -0.5298 H   0  0  0  0  0  0  0  0  0  0  0  0
   -5.0203    1.9978    1.5761 H   0  0  0  0  0  0  0  0  0  0  0  0
   -0.8130    1.6506    2.8164 H   0  0  0  0  0  0  0  0  0  0  0  0
    0.7536    0.9521    2.5670 H   0  0  0  0  0  0  0  0  0  0  0  0
  1  2  1  0
  2  3  1  0
  3  4  1  0
  4  5  2  0
  4  6  1  0
  6  7  2  0
  7  8  1  0
  7  9  1  0
  9 10  2  0
 10 11  1  0
 11 12  2  0
 12 13  1  0
 13 14  2  0
 14 15  1  0
 14 16  1  0
 16 17  2  0
 17 18  1  0
 17  6  1  0
 16 10  1  0
  1 19  1  0
  1 20  1  0
  1 21  1  0
  2 22  1  0
  2 23  1  0
  8 24  1  0
  8 25  1  0
  8 26  1  0
 11 27  1  0
 12 28  1  0
 13 29  1  0
 18 30  1  0
 18 31  1  0
M  END
$$$$
