
     RDKit          3D

 32 34  0  0  0  0  0  0  0  0999 V2000
    6.7015   -0.3011    0.4752 N   0  0  0  0  0  0  0  0  0  0  0  0
    5.3522   -0.1027    0.2532 C   0  0  0  0  0  0  0  0  0  0  0  0
    4.9137    0.7687   -0.7406 C   0  0  0  0  0  0  0  0  0  0  0  0
    3.5464    0.9978   -0.9382 C   0  0  0  0  0  0  0  0  0  0  0  0
    2.5787    0.3743   -0.1373 C   0  0  0  0  0  0  0  0  0  0  0  0
    1.2249    0.6208   -0.4152 N   0  0  0  0  0  0  0  0  0  0  0  0
    0.1141   -0.1277   -0.2227 C   0  0  0  0  0  0  0  0  0  0  0  0
   -1.0807    0.4183   -0.3148 N   0  0  0  0  0  0  0  0  0  0  0  0
   -2.0867   -0.5199   -0.1341 C   0  0  0  0  0  0  0  0  0  0  0  0
   -3.4938   -0.1261   -0.1705 C   0  0  0  0  0  0  0  0  0  0  0  0
   -4.5271   -1.0534   -0.3761 C   0  0  0  0  0  0  0  0  0  0  0  0
   -5.8636   -0.6378   -0.4058 C   0  0  0  0  0  0  0  0  0  0  0  0
   -6.1771    0.7081   -0.2333 C   0  0  0  0  0  0  0  0  0  0  0  0
   -7.8201    1.2155   -0.2703 Cl  0  0  0  0  0  0  0  0  0  0  0  0
   -5.1667    1.6438   -0.0344 C   0  0  0  0  0  0  0  0  0  0  0  0
   -3.8321    1.2270   -0.0057 C   0  0  0  0  0  0  0  0  0  0  0  0
   -1.6321   -1.8026    0.0878 C   0  0  0  0  0  0  0  0  0  0  0  0
    0.0774   -1.8330    0.0423 S   0  0  0  0  0  0  0  0  0  0  0  0
    3.0296   -0.4860    0.8664 C   0  0  0  0  0  0  0  0  0  0  0  0
    4.3987   -0.7133    1.0653 C   0  0  0  0  0  0  0  0  0  0  0  0
    7.3850    0.0846   -0.1614 H   0  0  0  0  0  0  0  0  0  0  0  0
    7.0107   -0.9888    1.1479 H   0  0  0  0  0  0  0  0  0  0  0  0
    5.6310    1.2771   -1.3789 H   0  0  0  0  0  0  0  0  0  0  0  0
    3.2436    1.6680   -1.7393 H   0  0  0  0  0  0  0  0  0  0  0  0
    1.0433    1.5477   -0.7814 H   0  0  0  0  0  0  0  0  0  0  0  0
   -4.3155   -2.1080   -0.5302 H   0  0  0  0  0  0  0  0  0  0  0  0
   -6.6514   -1.3688   -0.5680 H   0  0  0  0  0  0  0  0  0  0  0  0
   -5.4045    2.6958    0.0975 H   0  0  0  0  0  0  0  0  0  0  0  0
   -3.0512    1.9701    0.1498 H   0  0  0  0  0  0  0  0  0  0  0  0
   -2.1894   -2.7088    0.2706 H   0  0  0  0  0  0  0  0  0  0  0  0
    2.3329   -0.9657    1.5466 H   0  0  0  0  0  0  0  0  0  0  0  0
    4.7085   -1.3740    1.8704 H   0  0  0  0  0  0  0  0  0  0  0  0
  1  2  1  0
  2  3  2  0
  3  4  1  0
  4  5  2  0
  5  6  1  0
  6  7  1  0
  7  8  2  0
  8  9  1  0
  9 10  1  0
 10 11  2  0
 11 12  1  0
 12 13  2  0
 13 14  1  0
 13 15  1  0
 15 16  2  0
  9 17  2  0
 17 18  1  0
  5 19  1  0
 19 20  2  0
 20  2  1  0
 18  7  1  0
 16 10  1  0
  1 21  1  0
  1 22  1  0
  3 23  1  0
  4 24  1  0
  6 25  1  0
 11 26  1  0
 12 27  1  0
 15 28  1  0
 16 29  1  0
 17 30  1  0
 19 31  1  0
 20 32  1  0
M  END
$$$$
