
     RDKit          3D

 56 59  0  0  0  0  0  0  0  0999 V2000
    3.0740   -1.6104   -3.4986 C   0  0  0  0  0  0  0  0  0  0  0  0
    2.0504   -1.1580   -2.5102 C   0  0  0  0  0  0  0  0  0  0  0  0
    0.7050   -1.2845   -2.7781 C   0  0  0  0  0  0  0  0  0  0  0  0
   -0.2720   -0.9058   -1.9354 N   0  0  0  0  0  0  0  0  0  0  0  0
    0.0960   -0.3713   -0.7661 C   0  0  0  0  0  0  0  0  0  0  0  0
   -0.8304    0.0533    0.1811 N   0  0  0  0  0  0  0  0  0  0  0  0
   -2.2256    0.0550    0.2462 C   0  0  0  0  0  0  0  0  0  0  0  0
   -2.8469    0.6018    1.3752 C   0  0  0  0  0  0  0  0  0  0  0  0
   -4.2447    0.6360    1.5020 C   0  0  0  0  0  0  0  0  0  0  0  0
   -5.0866    0.1348    0.5035 C   0  0  0  0  0  0  0  0  0  0  0  0
   -6.4726    0.1539    0.6066 N   0  0  0  0  0  0  0  0  0  0  0  0
   -7.2479    0.6800   -0.5348 C   0  0  0  0  0  0  0  0  0  0  0  0
   -8.7063    0.2017   -0.4618 C   0  0  0  0  0  0  0  0  0  0  0  0
   -9.3105    0.5205    0.8012 O   0  0  0  0  0  0  0  0  0  0  0  0
   -8.5855   -0.1219    1.8607 C   0  0  0  0  0  0  0  0  0  0  0  0
   -7.1234    0.3466    1.9138 C   0  0  0  0  0  0  0  0  0  0  0  0
   -4.4556   -0.4205   -0.6170 C   0  0  0  0  0  0  0  0  0  0  0  0
   -3.0573   -0.4582   -0.7460 C   0  0  0  0  0  0  0  0  0  0  0  0
    1.3787   -0.1967   -0.4149 N   0  0  0  0  0  0  0  0  0  0  0  0
    2.3420   -0.5724   -1.2889 C   0  0  0  0  0  0  0  0  0  0  0  0
    3.7095   -0.3150   -0.8092 C   0  0  0  0  0  0  0  0  0  0  0  0
    4.1694   -0.9136    0.3769 C   0  0  0  0  0  0  0  0  0  0  0  0
    5.4646   -0.6801    0.8532 C   0  0  0  0  0  0  0  0  0  0  0  0
    6.3215    0.1742    0.1520 C   0  0  0  0  0  0  0  0  0  0  0  0
    7.7090    0.4551    0.6095 C   0  0  0  0  0  0  0  0  0  0  0  0
    8.5836    0.7324   -0.2021 O   0  0  0  0  0  0  0  0  0  0  0  0
    7.9317    0.4139    1.9672 N   0  0  0  0  0  0  0  0  0  0  0  0
    9.2395    0.7215    2.5189 C   0  0  0  0  0  0  0  0  0  0  0  0
    9.3242    2.1159    2.9848 C   0  0  0  0  0  0  0  0  0  0  0  0
    9.3768    3.2040    3.3880 N   0  0  0  0  0  0  0  0  0  0  0  0
    5.8796    0.7753   -1.0314 C   0  0  0  0  0  0  0  0  0  0  0  0
    4.5831    0.5400   -1.5006 C   0  0  0  0  0  0  0  0  0  0  0  0
    3.8962   -2.1362   -3.0026 H   0  0  0  0  0  0  0  0  0  0  0  0
    3.4714   -0.7562   -4.0551 H   0  0  0  0  0  0  0  0  0  0  0  0
    2.6419   -2.3122   -4.2207 H   0  0  0  0  0  0  0  0  0  0  0  0
    0.3505   -1.7149   -3.7112 H   0  0  0  0  0  0  0  0  0  0  0  0
   -0.3340    0.4416    0.9689 H   0  0  0  0  0  0  0  0  0  0  0  0
   -2.2477    1.0181    2.1812 H   0  0  0  0  0  0  0  0  0  0  0  0
   -4.6553    1.0906    2.3985 H   0  0  0  0  0  0  0  0  0  0  0  0
   -7.2225    1.7761   -0.4912 H   0  0  0  0  0  0  0  0  0  0  0  0
   -6.8387    0.3747   -1.5027 H   0  0  0  0  0  0  0  0  0  0  0  0
   -8.7718   -0.8809   -0.6250 H   0  0  0  0  0  0  0  0  0  0  0  0
   -9.2957    0.6912   -1.2436 H   0  0  0  0  0  0  0  0  0  0  0  0
   -8.6448   -1.2087    1.7257 H   0  0  0  0  0  0  0  0  0  0  0  0
   -9.0871    0.1232    2.8023 H   0  0  0  0  0  0  0  0  0  0  0  0
   -6.6123   -0.2238    2.6980 H   0  0  0  0  0  0  0  0  0  0  0  0
   -7.0928    1.4117    2.1744 H   0  0  0  0  0  0  0  0  0  0  0  0
   -5.0457   -0.8713   -1.4102 H   0  0  0  0  0  0  0  0  0  0  0  0
   -2.6453   -0.9104   -1.6424 H   0  0  0  0  0  0  0  0  0  0  0  0
    3.5084   -1.5763    0.9346 H   0  0  0  0  0  0  0  0  0  0  0  0
    5.7874   -1.1922    1.7543 H   0  0  0  0  0  0  0  0  0  0  0  0
    7.1567    0.3090    2.6074 H   0  0  0  0  0  0  0  0  0  0  0  0
    9.3929    0.0387    3.3609 H   0  0  0  0  0  0  0  0  0  0  0  0
   10.0196    0.5189    1.7782 H   0  0  0  0  0  0  0  0  0  0  0  0
    6.5400    1.4391   -1.5871 H   0  0  0  0  0  0  0  0  0  0  0  0
    4.2551    1.0427   -2.4086 H   0  0  0  0  0  0  0  0  0  0  0  0
  1  2  1  0
  2  3  2  0
  3  4  1  0
  4  5  2  0
  5  6  1  0
  6  7  1  0
  7  8  2  0
  8  9  1  0
  9 10  2  0
 10 11  1  0
 11 12  1  0
 12 13  1  0
 13 14  1  0
 14 15  1  0
 15 16  1  0
 10 17  1  0
 17 18  2  0
  5 19  1  0
 19 20  2  0
 20 21  1  0
 21 22  2  0
 22 23  1  0
 23 24  2  0
 24 25  1  0
 25 26  2  0
 25 27  1  0
 27 28  1  0
 28 29  1  0
 29 30  3  0
 24 31  1  0
 31 32  2  0
 20  2  1  0
 32 21  1  0
 18  7  1  0
 16 11  1  0
  1 33  1  0
  1 34  1  0
  1 35  1  0
  3 36  1  0
  6 37  1  0
  8 38  1  0
  9 39  1  0
 12 40  1  0
 12 41  1  0
 13 42  1  0
 13 43  1  0
 15 44  1  0
 15 45  1  0
 16 46  1  0
 16 47  1  0
 17 48  1  0
 18 49  1  0
 22 50  1  0
 23 51  1  0
 27 52  1  0
 28 53  1  0
 28 54  1  0
 31 55  1  0
 32 56  1  0
M  END
$$$$
