
     RDKit          3D

 75 79  0  0  0  0  0  0  0  0999 V2000
    3.7504    2.2039    0.4928 C   0  0  0  0  0  0  0  0  0  0  0  0
    3.7980    0.7243    0.2003 N   0  0  0  0  0  0  0  0  0  0  0  0
    2.5253    0.1067    0.5587 C   0  0  0  0  0  0  0  0  0  0  0  0
    2.0493   -0.0738    1.8463 C   0  0  0  0  0  0  0  0  0  0  0  0
    0.7950   -0.6679    1.9919 C   0  0  0  0  0  0  0  0  0  0  0  0
    0.0716   -1.0590    0.8551 C   0  0  0  0  0  0  0  0  0  0  0  0
   -1.2076   -1.5906    1.0382 O   0  0  0  0  0  0  0  0  0  0  0  0
   -2.2155   -0.6787    0.7123 C   0  0  0  0  0  0  0  0  0  0  0  0
   -1.9919    0.4482    0.2883 O   0  0  0  0  0  0  0  0  0  0  0  0
   -3.4283   -1.2692    0.9404 N   0  0  0  0  0  0  0  0  0  0  0  0
   -4.7104   -0.7235    0.7459 C   0  0  0  0  0  0  0  0  0  0  0  0
   -4.9474    0.5639    0.2719 C   0  0  0  0  0  0  0  0  0  0  0  0
   -6.2589    1.0345    0.1049 C   0  0  0  0  0  0  0  0  0  0  0  0
   -7.3710    0.2341    0.4059 C   0  0  0  0  0  0  0  0  0  0  0  0
   -8.8211    0.7218    0.2348 C   0  0  0  0  0  0  0  0  0  0  0  0
   -9.5625   -0.1941   -0.7629 C   0  0  0  0  0  0  0  0  0  0  0  0
   -8.9349    2.1671   -0.3006 C   0  0  0  0  0  0  0  0  0  0  0  0
   -9.5464    0.6813    1.5972 C   0  0  0  0  0  0  0  0  0  0  0  0
   -7.1123   -1.0626    0.8837 C   0  0  0  0  0  0  0  0  0  0  0  0
   -5.8049   -1.5342    1.0515 C   0  0  0  0  0  0  0  0  0  0  0  0
    0.5926   -0.9320   -0.4366 C   0  0  0  0  0  0  0  0  0  0  0  0
    1.8344   -0.3337   -0.5707 C   0  0  0  0  0  0  0  0  0  0  0  0
    2.5951   -0.0283   -1.8271 C   0  0  2  0  0  0  0  0  0  0  0  0
    1.9288    1.0969   -2.6219 C   0  0  0  0  0  0  0  0  0  0  0  0
    2.8918   -1.2530   -2.7023 C   0  0  0  0  0  0  0  0  0  0  0  0
    4.3923   -1.2067   -2.9192 C   0  0  0  0  0  0  0  0  0  0  0  0
    4.9257   -0.7320   -1.5679 N   0  0  0  0  0  0  0  0  0  0  0  0
    5.1253   -1.9106   -0.6109 C   0  0  0  0  0  0  0  0  0  0  0  0
    6.5188   -1.8750    0.0372 C   0  0  0  0  0  0  0  0  0  0  0  0
    6.6746   -0.7297    1.0020 C   0  0  0  0  0  0  0  0  0  0  0  0
    7.3406    0.4446    0.6231 C   0  0  0  0  0  0  0  0  0  0  0  0
    7.4257    1.5202    1.5078 C   0  0  0  0  0  0  0  0  0  0  0  0
    6.8562    1.4300    2.7765 C   0  0  0  0  0  0  0  0  0  0  0  0
    6.2178    0.2570    3.1729 C   0  0  0  0  0  0  0  0  0  0  0  0
    6.1319   -0.8224    2.2939 C   0  0  0  0  0  0  0  0  0  0  0  0
    3.9778    0.4009   -1.2435 C   0  0  2  0  0  0  0  0  0  0  0  0
    4.6995    2.6355    0.1636 H   0  0  0  0  0  0  0  0  0  0  0  0
    2.9153    2.6585   -0.0471 H   0  0  0  0  0  0  0  0  0  0  0  0
    3.6443    2.3416    1.5727 H   0  0  0  0  0  0  0  0  0  0  0  0
    4.5316    0.3437    0.8017 H   0  0  0  0  0  0  0  0  0  0  0  0
    2.5957    0.2502    2.7268 H   0  0  0  0  0  0  0  0  0  0  0  0
    0.3587   -0.7996    2.9816 H   0  0  0  0  0  0  0  0  0  0  0  0
   -3.3844   -2.2145    1.2967 H   0  0  0  0  0  0  0  0  0  0  0  0
   -4.1390    1.2424    0.0206 H   0  0  0  0  0  0  0  0  0  0  0  0
   -6.3789    2.0491   -0.2668 H   0  0  0  0  0  0  0  0  0  0  0  0
  -10.5892    0.1525   -0.9298 H   0  0  0  0  0  0  0  0  0  0  0  0
   -9.0544   -0.2120   -1.7344 H   0  0  0  0  0  0  0  0  0  0  0  0
   -9.6278   -1.2280   -0.4069 H   0  0  0  0  0  0  0  0  0  0  0  0
   -8.4605    2.8868    0.3766 H   0  0  0  0  0  0  0  0  0  0  0  0
   -9.9842    2.4679   -0.4061 H   0  0  0  0  0  0  0  0  0  0  0  0
   -8.4700    2.2692   -1.2882 H   0  0  0  0  0  0  0  0  0  0  0  0
   -9.6110   -0.3345    2.0025 H   0  0  0  0  0  0  0  0  0  0  0  0
  -10.5726    1.0571    1.5101 H   0  0  0  0  0  0  0  0  0  0  0  0
   -9.0268    1.2991    2.3392 H   0  0  0  0  0  0  0  0  0  0  0  0
   -7.9343   -1.7305    1.1362 H   0  0  0  0  0  0  0  0  0  0  0  0
   -5.6696   -2.5457    1.4259 H   0  0  0  0  0  0  0  0  0  0  0  0
    0.0065   -1.2510   -1.2953 H   0  0  0  0  0  0  0  0  0  0  0  0
    2.5443    1.3902   -3.4796 H   0  0  0  0  0  0  0  0  0  0  0  0
    0.9510    0.7828   -3.0051 H   0  0  0  0  0  0  0  0  0  0  0  0
    1.7649    1.9899   -2.0093 H   0  0  0  0  0  0  0  0  0  0  0  0
    2.6222   -2.1890   -2.1975 H   0  0  0  0  0  0  0  0  0  0  0  0
    2.3563   -1.2383   -3.6574 H   0  0  0  0  0  0  0  0  0  0  0  0
    4.6778   -0.4456   -3.6546 H   0  0  0  0  0  0  0  0  0  0  0  0
    4.8463   -2.1633   -3.1916 H   0  0  0  0  0  0  0  0  0  0  0  0
    5.8547   -0.3311   -1.7582 H   0  0  0  0  0  0  0  0  0  0  0  0
    4.3166   -1.9123    0.1229 H   0  0  0  0  0  0  0  0  0  0  0  0
    5.0432   -2.8343   -1.1936 H   0  0  0  0  0  0  0  0  0  0  0  0
    7.2958   -1.8298   -0.7361 H   0  0  0  0  0  0  0  0  0  0  0  0
    6.6879   -2.8153    0.5770 H   0  0  0  0  0  0  0  0  0  0  0  0
    7.8482    0.5239   -0.3373 H   0  0  0  0  0  0  0  0  0  0  0  0
    7.9823    2.4162    1.2326 H   0  0  0  0  0  0  0  0  0  0  0  0
    6.9640    2.2545    3.4814 H   0  0  0  0  0  0  0  0  0  0  0  0
    5.8311    0.1707    4.1884 H   0  0  0  0  0  0  0  0  0  0  0  0
    5.6679   -1.7447    2.6455 H   0  0  0  0  0  0  0  0  0  0  0  0
    4.3907    1.2797   -1.7566 H   0  0  0  0  0  0  0  0  0  0  0  0
  1  2  1  0
  2  3  1  0
  3  4  2  0
  4  5  1  0
  5  6  2  0
  6  7  1  0
  7  8  1  0
  8  9  2  0
  8 10  1  0
 10 11  1  0
 11 12  2  0
 12 13  1  0
 13 14  2  0
 14 15  1  0
 15 16  1  0
 15 17  1  0
 15 18  1  0
 14 19  1  0
 19 20  2  0
  6 21  1  0
 21 22  2  0
 22 23  1  0
 23 24  1  6
 23 25  1  0
 25 26  1  0
 26 27  1  0
 27 28  1  0
 28 29  1  0
 29 30  1  0
 30 31  2  0
 31 32  1  0
 32 33  2  0
 33 34  1  0
 34 35  2  0
 27 36  1  0
 36  2  1  0
 22  3  1  0
 36 23  1  0
 20 11  1  0
 35 30  1  0
  1 37  1  0
  1 38  1  0
  1 39  1  0
  2 40  1  0
  4 41  1  0
  5 42  1  0
 10 43  1  0
 12 44  1  0
 13 45  1  0
 16 46  1  0
 16 47  1  0
 16 48  1  0
 17 49  1  0
 17 50  1  0
 17 51  1  0
 18 52  1  0
 18 53  1  0
 18 54  1  0
 19 55  1  0
 20 56  1  0
 21 57  1  0
 24 58  1  0
 24 59  1  0
 24 60  1  0
 25 61  1  0
 25 62  1  0
 26 63  1  0
 26 64  1  0
 27 65  1  0
 28 66  1  0
 28 67  1  0
 29 68  1  0
 29 69  1  0
 31 70  1  0
 32 71  1  0
 33 72  1  0
 34 73  1  0
 35 74  1  0
 36 75  1  6
M  CHG  2   2   1  27   1
M  END
$$$$
