
     RDKit          3D

 45 46  0  0  0  0  0  0  0  0999 V2000
   -2.2901    6.1924    0.2912 C   0  0  0  0  0  0  0  0  0  0  0  0
   -1.4378    5.0779    0.0369 O   0  0  0  0  0  0  0  0  0  0  0  0
   -2.1064    3.9053   -0.2080 C   0  0  0  0  0  0  0  0  0  0  0  0
   -3.3318    3.8149   -0.2065 O   0  0  0  0  0  0  0  0  0  0  0  0
   -1.1984    2.7696   -0.4690 C   0  0  0  0  0  0  0  0  0  0  0  0
   -1.6605    1.4934   -0.7445 N   0  0  0  0  0  0  0  0  0  0  0  0
   -0.5651    0.7908   -0.9066 C   0  0  0  0  0  0  0  0  0  0  0  0
   -0.4844   -0.8948   -1.2838 S   0  0  0  0  0  0  0  0  0  0  0  0
   -1.1440   -1.5352    0.2437 C   0  0  0  0  0  0  0  0  0  0  0  0
   -2.4916   -1.3682    0.5782 C   0  0  0  0  0  0  0  0  0  0  0  0
   -3.0003   -1.8866    1.7752 C   0  0  0  0  0  0  0  0  0  0  0  0
   -2.1657   -2.5866    2.6459 C   0  0  0  0  0  0  0  0  0  0  0  0
   -2.5320   -3.1416    3.8407 O   0  0  0  0  0  0  0  0  0  0  0  0
   -3.8877   -2.9742    4.2364 C   0  0  0  0  0  0  0  0  0  0  0  0
   -0.8225   -2.7640    2.3064 C   0  0  0  0  0  0  0  0  0  0  0  0
   -0.3125   -2.2453    1.1127 C   0  0  0  0  0  0  0  0  0  0  0  0
    0.5250    1.5945   -0.7551 N   0  0  0  0  0  0  0  0  0  0  0  0
    1.9351    1.2495   -0.8214 C   0  0  0  0  0  0  0  0  0  0  0  0
    2.2711    0.9581   -2.1774 O   0  0  0  0  0  0  0  0  0  0  0  0
    3.6722    1.0241   -2.4468 C   0  0  0  0  0  0  0  0  0  0  0  0
    4.4613   -0.1483   -1.8627 C   0  0  0  0  0  0  0  0  0  0  0  0
    4.0116   -1.3766   -2.4609 O   0  0  0  0  0  0  0  0  0  0  0  0
    3.2275   -2.1735   -1.6871 C   0  0  0  0  0  0  0  0  0  0  0  0
    2.7669   -3.3618   -2.4737 C   0  0  0  0  0  0  0  0  0  0  0  0
    2.9366   -1.9657   -0.5172 O   0  0  0  0  0  0  0  0  0  0  0  0
    0.1494    2.8616   -0.4557 N   0  0  0  0  0  0  0  0  0  0  0  0
   -2.8972    6.0162    1.1848 H   0  0  0  0  0  0  0  0  0  0  0  0
   -1.6594    7.0676    0.4702 H   0  0  0  0  0  0  0  0  0  0  0  0
   -2.9254    6.3967   -0.5764 H   0  0  0  0  0  0  0  0  0  0  0  0
   -3.1575   -0.8211   -0.0872 H   0  0  0  0  0  0  0  0  0  0  0  0
   -4.0503   -1.7222    1.9925 H   0  0  0  0  0  0  0  0  0  0  0  0
   -4.5683   -3.4570    3.5273 H   0  0  0  0  0  0  0  0  0  0  0  0
   -4.0155   -3.4645    5.2064 H   0  0  0  0  0  0  0  0  0  0  0  0
   -4.1343   -1.9150    4.3640 H   0  0  0  0  0  0  0  0  0  0  0  0
   -0.1656   -3.3124    2.9773 H   0  0  0  0  0  0  0  0  0  0  0  0
    0.7368   -2.4033    0.8748 H   0  0  0  0  0  0  0  0  0  0  0  0
    2.5056    2.1085   -0.4504 H   0  0  0  0  0  0  0  0  0  0  0  0
    2.1042    0.3895   -0.1702 H   0  0  0  0  0  0  0  0  0  0  0  0
    3.7700    1.0063   -3.5378 H   0  0  0  0  0  0  0  0  0  0  0  0
    4.0758    1.9806   -2.0963 H   0  0  0  0  0  0  0  0  0  0  0  0
    4.3940   -0.1713   -0.7703 H   0  0  0  0  0  0  0  0  0  0  0  0
    5.5200   -0.0379   -2.1197 H   0  0  0  0  0  0  0  0  0  0  0  0
    2.1969   -3.0306   -3.3454 H   0  0  0  0  0  0  0  0  0  0  0  0
    2.1160   -3.9796   -1.8483 H   0  0  0  0  0  0  0  0  0  0  0  0
    3.6283   -3.9601   -2.7805 H   0  0  0  0  0  0  0  0  0  0  0  0
  1  2  1  0
  2  3  1  0
  3  4  2  0
  3  5  1  0
  5  6  1  0
  6  7  2  0
  7  8  1  0
  8  9  1  0
  9 10  2  0
 10 11  1  0
 11 12  2  0
 12 13  1  0
 13 14  1  0
 12 15  1  0
 15 16  2  0
  7 17  1  0
 17 18  1  0
 18 19  1  0
 19 20  1  0
 20 21  1  0
 21 22  1  0
 22 23  1  0
 23 24  1  0
 23 25  2  0
 17 26  1  0
 26  5  2  0
 16  9  1  0
  1 27  1  0
  1 28  1  0
  1 29  1  0
 10 30  1  0
 11 31  1  0
 14 32  1  0
 14 33  1  0
 14 34  1  0
 15 35  1  0
 16 36  1  0
 18 37  1  0
 18 38  1  0
 20 39  1  0
 20 40  1  0
 21 41  1  0
 21 42  1  0
 24 43  1  0
 24 44  1  0
 24 45  1  0
M  END
$$$$
