
     RDKit          3D

 52 55  0  0  0  0  0  0  0  0999 V2000
   -4.0354   -5.2926   -2.6122 C   0  0  0  0  0  0  0  0  0  0  0  0
   -3.3738   -4.0639   -2.1025 C   0  0  0  0  0  0  0  0  0  0  0  0
   -2.0625   -3.8608   -1.7332 C   0  0  0  0  0  0  0  0  0  0  0  0
   -1.7521   -2.5869   -1.2961 N   0  0  0  0  0  0  0  0  0  0  0  0
   -2.8232   -1.8198   -1.3233 C   0  0  0  0  0  0  0  0  0  0  0  0
   -2.8967   -0.5119   -0.9818 N   0  0  0  0  0  0  0  0  0  0  0  0
   -1.8902    0.2223   -0.3427 C   0  0  0  0  0  0  0  0  0  0  0  0
   -1.8922    1.6036   -0.4460 C   0  0  0  0  0  0  0  0  0  0  0  0
   -0.8444    2.3156    0.1193 C   0  0  0  0  0  0  0  0  0  0  0  0
   -0.7803    3.6999    0.0432 N   0  0  0  0  0  0  0  0  0  0  0  0
   -2.0072    4.5062    0.2208 C   0  0  0  0  0  0  0  0  0  0  0  0
   -1.7859    5.9572   -0.2346 C   0  0  0  0  0  0  0  0  0  0  0  0
   -0.6469    6.5400    0.4091 O   0  0  0  0  0  0  0  0  0  0  0  0
    0.5352    5.8078    0.0647 C   0  0  0  0  0  0  0  0  0  0  0  0
    0.4478    4.3525    0.5450 C   0  0  0  0  0  0  0  0  0  0  0  0
    0.1690    1.6591    0.7122 N   0  0  0  0  0  0  0  0  0  0  0  0
    0.0815    0.3384    0.7541 C   0  0  0  0  0  0  0  0  0  0  0  0
    1.1479   -0.3397    1.3709 N   0  0  0  0  0  0  0  0  0  0  0  0
    1.9548   -1.1646    0.4304 C   0  0  1  0  0  0  0  0  0  0  0  0
    2.8512   -0.2526   -0.4080 C   0  0  0  0  0  0  0  0  0  0  0  0
    2.7880   -2.1552    1.2362 C   0  0  0  0  0  0  0  0  0  0  0  0
    3.4676   -3.2069    0.6191 C   0  0  0  0  0  0  0  0  0  0  0  0
    4.2073   -4.0837    1.4119 C   0  0  0  0  0  0  0  0  0  0  0  0
    4.2432   -3.8883    2.7836 C   0  0  0  0  0  0  0  0  0  0  0  0
    4.9450   -4.7141    3.5668 F   0  0  0  0  0  0  0  0  0  0  0  0
    3.5402   -2.8286    3.3265 C   0  0  0  0  0  0  0  0  0  0  0  0
    2.8065   -1.9547    2.5871 N   0  0  0  0  0  0  0  0  0  0  0  0
   -0.8997   -0.4104    0.2951 N   0  0  0  0  0  0  0  0  0  0  0  0
   -4.2503   -2.6100   -1.8976 S   0  0  0  0  0  0  0  0  0  0  0  0
   -3.3233   -6.1220   -2.6760 H   0  0  0  0  0  0  0  0  0  0  0  0
   -4.4464   -5.1262   -3.6133 H   0  0  0  0  0  0  0  0  0  0  0  0
   -4.8491   -5.6005   -1.9474 H   0  0  0  0  0  0  0  0  0  0  0  0
   -1.2841   -4.6140   -1.7655 H   0  0  0  0  0  0  0  0  0  0  0  0
   -3.7961   -0.0580   -1.0673 H   0  0  0  0  0  0  0  0  0  0  0  0
   -2.6760    2.1012   -1.0027 H   0  0  0  0  0  0  0  0  0  0  0  0
   -2.2733    4.4970    1.2852 H   0  0  0  0  0  0  0  0  0  0  0  0
   -2.8548    4.1074   -0.3438 H   0  0  0  0  0  0  0  0  0  0  0  0
   -2.6608    6.5631    0.0219 H   0  0  0  0  0  0  0  0  0  0  0  0
   -1.6516    6.0108   -1.3218 H   0  0  0  0  0  0  0  0  0  0  0  0
    1.3867    6.3047    0.5403 H   0  0  0  0  0  0  0  0  0  0  0  0
    0.6855    5.8559   -1.0206 H   0  0  0  0  0  0  0  0  0  0  0  0
    0.4340    4.3327    1.6420 H   0  0  0  0  0  0  0  0  0  0  0  0
    1.3464    3.8287    0.1973 H   0  0  0  0  0  0  0  0  0  0  0  0
    0.7399   -0.9591    2.0743 H   0  0  0  0  0  0  0  0  0  0  0  0
    1.7145    0.3438    1.8710 H   0  0  0  0  0  0  0  0  0  0  0  0
    1.2675   -1.7390   -0.2035 H   0  0  0  0  0  0  0  0  0  0  0  0
    2.2622    0.4462   -1.0112 H   0  0  0  0  0  0  0  0  0  0  0  0
    3.5307    0.3325    0.2227 H   0  0  0  0  0  0  0  0  0  0  0  0
    3.4683   -0.8349   -1.1011 H   0  0  0  0  0  0  0  0  0  0  0  0
    3.4303   -3.3572   -0.4567 H   0  0  0  0  0  0  0  0  0  0  0  0
    4.7523   -4.9144    0.9723 H   0  0  0  0  0  0  0  0  0  0  0  0
    3.5529   -2.6565    4.3991 H   0  0  0  0  0  0  0  0  0  0  0  0
  1  2  1  0
  2  3  2  0
  3  4  1  0
  4  5  2  0
  5  6  1  0
  6  7  1  0
  7  8  2  0
  8  9  1  0
  9 10  1  0
 10 11  1  0
 11 12  1  0
 12 13  1  0
 13 14  1  0
 14 15  1  0
  9 16  2  0
 16 17  1  0
 17 18  1  0
 18 19  1  0
 19 20  1  0
 19 21  1  0
 21 22  2  0
 22 23  1  0
 23 24  2  0
 24 25  1  0
 24 26  1  0
 26 27  2  0
 17 28  2  0
  5 29  1  0
 29  2  1  0
 28  7  1  0
 15 10  1  0
 27 21  1  0
  1 30  1  0
  1 31  1  0
  1 32  1  0
  3 33  1  0
  6 34  1  0
  8 35  1  0
 11 36  1  0
 11 37  1  0
 12 38  1  0
 12 39  1  0
 14 40  1  0
 14 41  1  0
 15 42  1  0
 15 43  1  0
 18 44  1  0
 18 45  1  0
 19 46  1  6
 20 47  1  0
 20 48  1  0
 20 49  1  0
 22 50  1  0
 23 51  1  0
 26 52  1  0
M  CHG  1  18   1
M  END
$$$$
