
     RDKit          3D

 85 90  0  0  0  0  0  0  0  0999 V2000
    0.3776   -4.9582    3.2629 C   0  0  0  0  0  0  0  0  0  0  0  0
    0.7655   -3.5198    3.0332 C   0  0  0  0  0  0  0  0  0  0  0  0
    1.0893   -2.7233    4.1474 C   0  0  0  0  0  0  0  0  0  0  0  0
    1.4204   -1.3767    3.9948 C   0  0  0  0  0  0  0  0  0  0  0  0
    1.4730   -0.8290    2.7143 C   0  0  0  0  0  0  0  0  0  0  0  0
    1.6672    0.6275    2.4938 C   0  0  0  0  0  0  0  0  0  0  0  0
    1.0394    1.1680    1.5776 O   0  0  0  0  0  0  0  0  0  0  0  0
    2.5741    1.2393    3.3324 N   0  0  0  0  0  0  0  0  0  0  0  0
    2.7797    2.6248    3.4880 C   0  0  0  0  0  0  0  0  0  0  0  0
    3.9147    3.0454    4.1853 C   0  0  0  0  0  0  0  0  0  0  0  0
    4.1640    4.4067    4.3781 C   0  0  0  0  0  0  0  0  0  0  0  0
    3.2750    5.3611    3.8846 C   0  0  0  0  0  0  0  0  0  0  0  0
    2.1240    4.9593    3.1977 C   0  0  0  0  0  0  0  0  0  0  0  0
    1.1273    5.9677    2.6859 C   0  0  0  0  0  0  0  0  0  0  0  0
    1.6726    7.1693    2.3691 F   0  0  0  0  0  0  0  0  0  0  0  0
    0.5181    5.5288    1.5364 F   0  0  0  0  0  0  0  0  0  0  0  0
    0.1168    6.2060    3.5598 F   0  0  0  0  0  0  0  0  0  0  0  0
    1.8813    3.5848    3.0183 C   0  0  0  0  0  0  0  0  0  0  0  0
    1.2026   -1.6294    1.6000 C   0  0  0  0  0  0  0  0  0  0  0  0
    0.7784   -2.9562    1.7400 C   0  0  0  0  0  0  0  0  0  0  0  0
    0.3490   -3.7084    0.6270 N   0  0  0  0  0  0  0  0  0  0  0  0
    0.5671   -3.4512   -0.6853 C   0  0  0  0  0  0  0  0  0  0  0  0
    1.6088   -2.8672   -1.2449 N   0  0  0  0  0  0  0  0  0  0  0  0
    1.4189   -2.9833   -2.5941 C   0  0  0  0  0  0  0  0  0  0  0  0
    2.2902   -2.6574   -3.6435 C   0  0  0  0  0  0  0  0  0  0  0  0
    1.8614   -2.8549   -4.9608 C   0  0  0  0  0  0  0  0  0  0  0  0
    0.5902   -3.3635   -5.2290 C   0  0  0  0  0  0  0  0  0  0  0  0
   -0.2967   -3.6824   -4.1952 C   0  0  0  0  0  0  0  0  0  0  0  0
    0.1474   -3.4698   -2.8806 C   0  0  0  0  0  0  0  0  0  0  0  0
   -0.4444   -3.6360   -1.6361 N   0  0  0  0  0  0  0  0  0  0  0  0
   -1.8367   -3.5338   -1.3167 C   0  0  0  0  0  0  0  0  0  0  0  0
   -2.5769   -2.6191   -2.0513 C   0  0  0  0  0  0  0  0  0  0  0  0
   -3.6700   -2.0723   -1.4194 C   0  0  0  0  0  0  0  0  0  0  0  0
   -4.2584   -0.8896   -1.8090 N   0  0  0  0  0  0  0  0  0  0  0  0
   -4.3220   -0.3618   -3.1589 C   0  0  0  0  0  0  0  0  0  0  0  0
   -3.8357    1.0931   -3.1640 C   0  0  0  0  0  0  0  0  0  0  0  0
   -2.3236    1.2407   -2.9781 C   0  0  0  0  0  0  0  0  0  0  0  0
   -1.8924    0.9206   -1.5568 N   0  0  0  0  0  0  0  0  0  0  0  0
   -1.9695    2.0825   -0.5667 C   0  0  0  0  0  0  0  0  0  0  0  0
   -0.7791    3.0682   -0.7141 C   0  0  0  0  0  0  0  0  0  0  0  0
    0.5597    2.3531   -0.6945 N   0  0  0  0  0  0  0  0  0  0  0  0
    1.7207    3.2995   -0.8663 C   0  0  0  0  0  0  0  0  0  0  0  0
    0.6437    1.1820   -1.6522 C   0  0  0  0  0  0  0  0  0  0  0  0
   -0.5419    0.2139   -1.4560 C   0  0  0  0  0  0  0  0  0  0  0  0
   -4.1017   -2.5306   -0.2419 N   0  0  0  0  0  0  0  0  0  0  0  0
   -3.4179   -3.5364    0.3201 C   0  0  0  0  0  0  0  0  0  0  0  0
   -2.2545   -4.0175   -0.1289 N   0  0  0  0  0  0  0  0  0  0  0  0
    0.9180   -5.6167    2.5751 H   0  0  0  0  0  0  0  0  0  0  0  0
   -0.7001   -5.0840    3.1185 H   0  0  0  0  0  0  0  0  0  0  0  0
    0.6251   -5.2825    4.2793 H   0  0  0  0  0  0  0  0  0  0  0  0
    1.0574   -3.1495    5.1504 H   0  0  0  0  0  0  0  0  0  0  0  0
    1.5960   -0.7759    4.8838 H   0  0  0  0  0  0  0  0  0  0  0  0
    3.1914    0.6380    3.8727 H   0  0  0  0  0  0  0  0  0  0  0  0
    4.6286    2.3281    4.5855 H   0  0  0  0  0  0  0  0  0  0  0  0
    5.0529    4.7237    4.9220 H   0  0  0  0  0  0  0  0  0  0  0  0
    3.4813    6.4186    4.0522 H   0  0  0  0  0  0  0  0  0  0  0  0
    0.9515    3.2878    2.5459 H   0  0  0  0  0  0  0  0  0  0  0  0
    1.2812   -1.1942    0.6126 H   0  0  0  0  0  0  0  0  0  0  0  0
   -0.3909   -4.3739    0.8603 H   0  0  0  0  0  0  0  0  0  0  0  0
    3.2934   -2.2984   -3.4343 H   0  0  0  0  0  0  0  0  0  0  0  0
    2.5419   -2.6437   -5.7849 H   0  0  0  0  0  0  0  0  0  0  0  0
    0.2965   -3.5452   -6.2632 H   0  0  0  0  0  0  0  0  0  0  0  0
   -1.2683   -4.1168   -4.4164 H   0  0  0  0  0  0  0  0  0  0  0  0
   -2.2136   -2.2025   -2.9778 H   0  0  0  0  0  0  0  0  0  0  0  0
   -5.0863   -0.7289   -1.2259 H   0  0  0  0  0  0  0  0  0  0  0  0
   -3.7561   -0.9559   -3.8835 H   0  0  0  0  0  0  0  0  0  0  0  0
   -5.3681   -0.3865   -3.4859 H   0  0  0  0  0  0  0  0  0  0  0  0
   -4.3740    1.6779   -2.4087 H   0  0  0  0  0  0  0  0  0  0  0  0
   -4.0932    1.5253   -4.1389 H   0  0  0  0  0  0  0  0  0  0  0  0
   -1.7947    0.5574   -3.6513 H   0  0  0  0  0  0  0  0  0  0  0  0
   -1.9960    2.2611   -3.1980 H   0  0  0  0  0  0  0  0  0  0  0  0
   -2.5981    0.2292   -1.2246 H   0  0  0  0  0  0  0  0  0  0  0  0
   -2.9280    2.5873   -0.7184 H   0  0  0  0  0  0  0  0  0  0  0  0
   -1.9647    1.6287    0.4306 H   0  0  0  0  0  0  0  0  0  0  0  0
   -0.7767    3.7836    0.1138 H   0  0  0  0  0  0  0  0  0  0  0  0
   -0.8372    3.6112   -1.6631 H   0  0  0  0  0  0  0  0  0  0  0  0
    0.6983    1.9553    0.2672 H   0  0  0  0  0  0  0  0  0  0  0  0
    1.6446    4.0740   -0.1018 H   0  0  0  0  0  0  0  0  0  0  0  0
    1.6677    3.7329   -1.8684 H   0  0  0  0  0  0  0  0  0  0  0  0
    2.6438    2.7297   -0.7322 H   0  0  0  0  0  0  0  0  0  0  0  0
    1.5916    0.6689   -1.4605 H   0  0  0  0  0  0  0  0  0  0  0  0
    0.6482    1.5943   -2.6670 H   0  0  0  0  0  0  0  0  0  0  0  0
   -0.5210   -0.2422   -0.4629 H   0  0  0  0  0  0  0  0  0  0  0  0
   -0.5245   -0.5745   -2.2099 H   0  0  0  0  0  0  0  0  0  0  0  0
   -3.8148   -3.9563    1.2392 H   0  0  0  0  0  0  0  0  0  0  0  0
  1  2  1  0
  2  3  2  0
  3  4  1  0
  4  5  2  0
  5  6  1  0
  6  7  2  0
  6  8  1  0
  8  9  1  0
  9 10  2  0
 10 11  1  0
 11 12  2  0
 12 13  1  0
 13 14  1  0
 14 15  1  0
 14 16  1  0
 14 17  1  0
 13 18  2  0
  5 19  1  0
 19 20  2  0
 20 21  1  0
 21 22  1  0
 22 23  2  0
 23 24  1  0
 24 25  2  0
 25 26  1  0
 26 27  2  0
 27 28  1  0
 28 29  2  0
 29 30  1  0
 30 31  1  0
 31 32  2  0
 32 33  1  0
 33 34  1  0
 34 35  1  0
 35 36  1  0
 36 37  1  0
 37 38  1  0
 38 39  1  0
 39 40  1  0
 40 41  1  0
 41 42  1  0
 41 43  1  0
 43 44  1  0
 33 45  2  0
 45 46  1  0
 46 47  2  0
 20  2  1  0
 30 22  1  0
 47 31  1  0
 18  9  1  0
 29 24  1  0
 44 38  1  0
  1 48  1  0
  1 49  1  0
  1 50  1  0
  3 51  1  0
  4 52  1  0
  8 53  1  0
 10 54  1  0
 11 55  1  0
 12 56  1  0
 18 57  1  0
 19 58  1  0
 21 59  1  0
 25 60  1  0
 26 61  1  0
 27 62  1  0
 28 63  1  0
 32 64  1  0
 34 65  1  0
 35 66  1  0
 35 67  1  0
 36 68  1  0
 36 69  1  0
 37 70  1  0
 37 71  1  0
 38 72  1  0
 39 73  1  0
 39 74  1  0
 40 75  1  0
 40 76  1  0
 41 77  1  0
 42 78  1  0
 42 79  1  0
 42 80  1  0
 43 81  1  0
 43 82  1  0
 44 83  1  0
 44 84  1  0
 46 85  1  0
M  CHG  2  38   1  41   1
M  END
$$$$
