
     RDKit          3D

 80 85  0  0  0  0  0  0  0  0999 V2000
   -3.2773    3.6932   -1.8489 C   0  0  0  0  0  0  0  0  0  0  0  0
   -3.2718    3.1417   -0.4501 N   0  0  0  0  0  0  0  0  0  0  0  0
   -2.7749    4.1497    0.5740 C   0  0  0  0  0  0  0  0  0  0  0  0
   -1.6536    3.5440    1.4349 C   0  0  0  0  0  0  0  0  0  0  0  0
   -0.6100    2.9402    0.6599 O   0  0  0  0  0  0  0  0  0  0  0  0
    0.2241    3.8741   -0.0376 C   0  0  0  0  0  0  0  0  0  0  0  0
    1.6617    3.3462   -0.1504 C   0  0  0  0  0  0  0  0  0  0  0  0
    1.6814    2.0673   -0.7993 O   0  0  0  0  0  0  0  0  0  0  0  0
    2.8983    1.7839   -1.4959 C   0  0  0  0  0  0  0  0  0  0  0  0
    4.1184    1.5097   -0.5958 C   0  0  0  0  0  0  0  0  0  0  0  0
    4.0144    0.1785    0.1293 N   0  0  0  0  0  0  0  0  0  0  0  0
    5.3652   -0.4568    0.3256 C   0  0  0  0  0  0  0  0  0  0  0  0
    3.2055    0.2439    1.4222 C   0  0  0  0  0  0  0  0  0  0  0  0
    2.6525   -1.1415    1.8044 C   0  0  0  0  0  0  0  0  0  0  0  0
    2.1362   -1.8252    0.6270 N   0  0  0  0  0  0  0  0  0  0  0  0
    1.0658   -1.4564   -0.1745 C   0  0  0  0  0  0  0  0  0  0  0  0
    0.6444   -2.4229   -1.0190 C   0  0  0  0  0  0  0  0  0  0  0  0
    1.5456   -3.5587   -0.7334 C   0  0  0  0  0  0  0  0  0  0  0  0
    1.6007   -4.8386   -1.2585 C   0  0  0  0  0  0  0  0  0  0  0  0
    2.5502   -5.7214   -0.7407 C   0  0  0  0  0  0  0  0  0  0  0  0
    3.4139   -5.3220    0.2912 C   0  0  0  0  0  0  0  0  0  0  0  0
    3.3505   -4.0296    0.8230 C   0  0  0  0  0  0  0  0  0  0  0  0
    2.4181   -3.1514    0.3035 C   0  0  0  0  0  0  0  0  0  0  0  0
   -0.4606   -2.3432   -1.9319 C   0  0  0  0  0  0  0  0  0  0  0  0
   -1.6874   -1.8160   -1.7645 C   0  0  0  0  0  0  0  0  0  0  0  0
   -2.3788   -1.9186   -3.0759 C   0  0  0  0  0  0  0  0  0  0  0  0
   -3.4561   -1.4224   -3.3528 O   0  0  0  0  0  0  0  0  0  0  0  0
   -1.5640   -2.5813   -3.9168 N   0  0  0  0  0  0  0  0  0  0  0  0
   -0.3712   -2.8094   -3.3365 C   0  0  0  0  0  0  0  0  0  0  0  0
    0.6233   -3.2483   -3.8824 O   0  0  0  0  0  0  0  0  0  0  0  0
   -2.2782   -1.1769   -0.6181 C   0  0  0  0  0  0  0  0  0  0  0  0
   -3.0921   -0.0999   -0.6654 C   0  0  0  0  0  0  0  0  0  0  0  0
   -3.4469    0.4182    0.5703 N   0  0  0  0  0  0  0  0  0  0  0  0
   -2.9182   -0.4731    1.5094 C   0  0  0  0  0  0  0  0  0  0  0  0
   -3.0441   -0.5013    2.8864 C   0  0  0  0  0  0  0  0  0  0  0  0
   -2.4493   -1.5563    3.5856 C   0  0  0  0  0  0  0  0  0  0  0  0
   -1.7574   -2.5710    2.9066 C   0  0  0  0  0  0  0  0  0  0  0  0
   -1.6360   -2.5447    1.5153 C   0  0  0  0  0  0  0  0  0  0  0  0
   -2.1930   -1.4792    0.8267 C   0  0  0  0  0  0  0  0  0  0  0  0
   -4.4890    1.3751    0.9209 C   0  0  0  0  0  0  0  0  0  0  0  0
   -4.6228    2.5031   -0.1151 C   0  0  0  0  0  0  0  0  0  0  0  0
   -2.2776    4.0694   -2.0762 H   0  0  0  0  0  0  0  0  0  0  0  0
   -3.5245    2.8809   -2.5376 H   0  0  0  0  0  0  0  0  0  0  0  0
   -4.0194    4.4941   -1.9007 H   0  0  0  0  0  0  0  0  0  0  0  0
   -2.5801    2.3683   -0.4363 H   0  0  0  0  0  0  0  0  0  0  0  0
   -2.3909    5.0139    0.0217 H   0  0  0  0  0  0  0  0  0  0  0  0
   -3.6207    4.4775    1.1861 H   0  0  0  0  0  0  0  0  0  0  0  0
   -1.2301    4.3002    2.1058 H   0  0  0  0  0  0  0  0  0  0  0  0
   -2.0667    2.7554    2.0709 H   0  0  0  0  0  0  0  0  0  0  0  0
    0.2402    4.8437    0.4725 H   0  0  0  0  0  0  0  0  0  0  0  0
   -0.1942    4.0051   -1.0396 H   0  0  0  0  0  0  0  0  0  0  0  0
    2.2634    4.0739   -0.7063 H   0  0  0  0  0  0  0  0  0  0  0  0
    2.0871    3.2229    0.8504 H   0  0  0  0  0  0  0  0  0  0  0  0
    3.1191    2.6147   -2.1767 H   0  0  0  0  0  0  0  0  0  0  0  0
    2.7077    0.9077   -2.1257 H   0  0  0  0  0  0  0  0  0  0  0  0
    5.0090    1.4589   -1.2314 H   0  0  0  0  0  0  0  0  0  0  0  0
    4.2668    2.2818    0.1653 H   0  0  0  0  0  0  0  0  0  0  0  0
    3.4819   -0.4811   -0.4672 H   0  0  0  0  0  0  0  0  0  0  0  0
    5.8211   -0.5933   -0.6587 H   0  0  0  0  0  0  0  0  0  0  0  0
    5.2332   -1.4294    0.8027 H   0  0  0  0  0  0  0  0  0  0  0  0
    5.9696    0.2061    0.9502 H   0  0  0  0  0  0  0  0  0  0  0  0
    2.3680    0.9213    1.2506 H   0  0  0  0  0  0  0  0  0  0  0  0
    3.8438    0.6670    2.2048 H   0  0  0  0  0  0  0  0  0  0  0  0
    1.8584   -1.0295    2.5522 H   0  0  0  0  0  0  0  0  0  0  0  0
    3.4521   -1.7118    2.2878 H   0  0  0  0  0  0  0  0  0  0  0  0
    0.6279   -0.4725   -0.0490 H   0  0  0  0  0  0  0  0  0  0  0  0
    0.9350   -5.1647   -2.0507 H   0  0  0  0  0  0  0  0  0  0  0  0
    2.6175   -6.7337   -1.1368 H   0  0  0  0  0  0  0  0  0  0  0  0
    4.1371   -6.0357    0.6835 H   0  0  0  0  0  0  0  0  0  0  0  0
    4.0237   -3.7602    1.6272 H   0  0  0  0  0  0  0  0  0  0  0  0
   -1.7745   -2.7832   -4.8815 H   0  0  0  0  0  0  0  0  0  0  0  0
   -3.4520    0.3746   -1.5699 H   0  0  0  0  0  0  0  0  0  0  0  0
   -3.6041    0.2476    3.4332 H   0  0  0  0  0  0  0  0  0  0  0  0
   -2.5488   -1.6116    4.6687 H   0  0  0  0  0  0  0  0  0  0  0  0
   -1.3340   -3.4019    3.4689 H   0  0  0  0  0  0  0  0  0  0  0  0
   -1.1364   -3.3612    1.0055 H   0  0  0  0  0  0  0  0  0  0  0  0
   -4.2739    1.8365    1.8912 H   0  0  0  0  0  0  0  0  0  0  0  0
   -5.4508    0.8571    1.0158 H   0  0  0  0  0  0  0  0  0  0  0  0
   -5.2967    3.2968    0.2243 H   0  0  0  0  0  0  0  0  0  0  0  0
   -5.0246    2.0918   -1.0481 H   0  0  0  0  0  0  0  0  0  0  0  0
  1  2  1  0
  2  3  1  0
  3  4  1  0
  4  5  1  0
  5  6  1  0
  6  7  1  0
  7  8  1  0
  8  9  1  0
  9 10  1  0
 10 11  1  0
 11 12  1  0
 11 13  1  0
 13 14  1  0
 14 15  1  0
 15 16  1  0
 16 17  2  0
 17 18  1  0
 18 19  2  0
 19 20  1  0
 20 21  2  0
 21 22  1  0
 22 23  2  0
 17 24  1  0
 24 25  2  0
 25 26  1  0
 26 27  2  0
 26 28  1  0
 28 29  1  0
 29 30  2  0
 25 31  1  0
 31 32  2  0
 32 33  1  0
 33 34  1  0
 34 35  2  0
 35 36  1  0
 36 37  2  0
 37 38  1  0
 38 39  2  0
 33 40  1  0
 40 41  1  0
 41  2  1  0
 23 15  1  0
 29 24  1  0
 39 31  1  0
 23 18  1  0
 39 34  1  0
  1 42  1  0
  1 43  1  0
  1 44  1  0
  2 45  1  0
  3 46  1  0
  3 47  1  0
  4 48  1  0
  4 49  1  0
  6 50  1  0
  6 51  1  0
  7 52  1  0
  7 53  1  0
  9 54  1  0
  9 55  1  0
 10 56  1  0
 10 57  1  0
 11 58  1  0
 12 59  1  0
 12 60  1  0
 12 61  1  0
 13 62  1  0
 13 63  1  0
 14 64  1  0
 14 65  1  0
 16 66  1  0
 19 67  1  0
 20 68  1  0
 21 69  1  0
 22 70  1  0
 28 71  1  0
 32 72  1  0
 35 73  1  0
 36 74  1  0
 37 75  1  0
 38 76  1  0
 40 77  1  0
 40 78  1  0
 41 79  1  0
 41 80  1  0
M  CHG  2   2   1  11   1
M  END
$$$$
