
     RDKit          3D

 79 83  0  0  0  0  0  0  0  0999 V2000
    3.4920   -0.3162   -2.3592 C   0  0  0  0  0  0  0  0  0  0  0  0
    2.5419   -0.3992   -1.4135 C   0  0  0  0  0  0  0  0  0  0  0  0
    2.7672   -0.0511   -0.0106 C   0  0  0  0  0  0  0  0  0  0  0  0
    3.6433    1.1496    0.3464 C   0  0  1  0  0  0  0  0  0  0  0  0
    2.7606    2.2829    0.9020 C   0  0  0  0  0  0  0  0  0  0  0  0
    4.8001    0.8198    1.3383 C   0  0  1  0  0  0  0  0  0  0  0  0
    5.7525   -0.2918    0.8897 C   0  0  0  0  0  0  0  0  0  0  0  0
    6.6962    0.2119   -0.1514 C   0  0  0  0  0  0  0  0  0  0  0  0
    7.0152    1.5129   -0.2390 C   0  0  0  0  0  0  0  0  0  0  0  0
    7.9541    2.0617   -1.2670 C   0  0  0  0  0  0  0  0  0  0  0  0
    6.4851    2.4854    0.7536 C   0  0  0  0  0  0  0  0  0  0  0  0
    6.8892    3.6405    0.7965 O   0  0  0  0  0  0  0  0  0  0  0  0
    5.5564    2.0227    1.6297 O   0  0  0  0  0  0  0  0  0  0  0  0
    2.1573   -0.8006    0.9271 C   0  0  0  0  0  0  0  0  0  0  0  0
    1.3153   -1.9910    0.5792 C   0  0  0  0  0  0  0  0  0  0  0  0
    0.4480   -1.7861   -0.6881 C   0  0  2  0  0  0  0  0  0  0  0  0
    0.1861   -3.1839   -1.2928 C   0  0  0  0  0  0  0  0  0  0  0  0
    1.1440   -0.8864   -1.7640 C   0  0  1  0  0  0  0  0  0  0  0  0
    0.2059    0.3143   -1.9980 C   0  0  0  0  0  0  0  0  0  0  0  0
   -1.1865   -0.1673   -1.5842 C   0  0  2  0  0  0  0  0  0  0  0  0
   -1.7296   -0.9657   -2.6254 O   0  0  0  0  0  0  0  0  0  0  0  0
   -2.1147    0.9883   -1.3203 C   0  0  0  0  0  0  0  0  0  0  0  0
   -3.3410    0.9173   -0.7593 C   0  0  0  0  0  0  0  0  0  0  0  0
   -3.9592    2.1690   -0.3596 C   0  0  0  0  0  0  0  0  0  0  0  0
   -4.9487    2.3868    0.5149 C   0  0  0  0  0  0  0  0  0  0  0  0
   -5.7063    1.4550    1.3539 C   0  0  0  0  0  0  0  0  0  0  0  0
   -6.1365    1.8539    2.4324 O   0  0  0  0  0  0  0  0  0  0  0  0
   -5.9674    0.2100    0.9234 O   0  0  0  0  0  0  0  0  0  0  0  0
   -5.5790   -0.3712   -0.3419 C   0  0  0  0  0  0  0  0  0  0  0  0
   -6.1679   -1.8045   -0.2848 C   0  0  0  0  0  0  0  0  0  0  0  0
   -6.3055    0.3065   -1.5249 C   0  0  0  0  0  0  0  0  0  0  0  0
   -4.0213   -0.4262   -0.4959 C   0  0  2  0  0  0  0  0  0  0  0  0
   -3.2975   -1.1919    0.6535 C   0  0  2  0  0  0  0  0  0  0  0  0
   -3.0099   -0.2903    1.7431 O   0  0  0  0  0  0  0  0  0  0  0  0
   -2.9220   -0.8369    2.9854 C   0  0  0  0  0  0  0  0  0  0  0  0
   -2.6959    0.2415    3.9998 C   0  0  0  0  0  0  0  0  0  0  0  0
   -3.0013   -2.0283    3.2474 O   0  0  0  0  0  0  0  0  0  0  0  0
   -2.0161   -1.9040    0.1712 C   0  0  0  0  0  0  0  0  0  0  0  0
   -0.8721   -1.0042   -0.3273 C   0  0  1  0  0  0  0  0  0  0  0  0
    4.5050    0.0053   -2.1486 H   0  0  0  0  0  0  0  0  0  0  0  0
    3.2826   -0.5874   -3.3900 H   0  0  0  0  0  0  0  0  0  0  0  0
    4.0893    1.5678   -0.5637 H   0  0  0  0  0  0  0  0  0  0  0  0
    2.3336    2.0218    1.8766 H   0  0  0  0  0  0  0  0  0  0  0  0
    1.9334    2.5082    0.2197 H   0  0  0  0  0  0  0  0  0  0  0  0
    3.3374    3.2054    1.0268 H   0  0  0  0  0  0  0  0  0  0  0  0
    4.3638    0.5140    2.2972 H   0  0  0  0  0  0  0  0  0  0  0  0
    5.2047   -1.1620    0.5161 H   0  0  0  0  0  0  0  0  0  0  0  0
    6.3520   -0.6335    1.7426 H   0  0  0  0  0  0  0  0  0  0  0  0
    7.1243   -0.5136   -0.8375 H   0  0  0  0  0  0  0  0  0  0  0  0
    7.4553    2.8279   -1.8696 H   0  0  0  0  0  0  0  0  0  0  0  0
    8.8319    2.5091   -0.7893 H   0  0  0  0  0  0  0  0  0  0  0  0
    8.3095    1.2832   -1.9505 H   0  0  0  0  0  0  0  0  0  0  0  0
    2.2846   -0.5894    1.9852 H   0  0  0  0  0  0  0  0  0  0  0  0
    1.9935   -2.8466    0.4603 H   0  0  0  0  0  0  0  0  0  0  0  0
    0.6745   -2.2350    1.4351 H   0  0  0  0  0  0  0  0  0  0  0  0
    1.1238   -3.6395   -1.6332 H   0  0  0  0  0  0  0  0  0  0  0  0
   -0.2528   -3.8666   -0.5572 H   0  0  0  0  0  0  0  0  0  0  0  0
   -0.4831   -3.1411   -2.1571 H   0  0  0  0  0  0  0  0  0  0  0  0
    1.1932   -1.4446   -2.7103 H   0  0  0  0  0  0  0  0  0  0  0  0
    0.5164    1.1765   -1.3935 H   0  0  0  0  0  0  0  0  0  0  0  0
    0.2398    0.6202   -3.0509 H   0  0  0  0  0  0  0  0  0  0  0  0
   -1.9547   -0.3698   -3.3607 H   0  0  0  0  0  0  0  0  0  0  0  0
   -1.6733    1.9706   -1.4895 H   0  0  0  0  0  0  0  0  0  0  0  0
   -3.5203    3.0687   -0.7953 H   0  0  0  0  0  0  0  0  0  0  0  0
   -5.2147    3.4202    0.7287 H   0  0  0  0  0  0  0  0  0  0  0  0
   -5.8264   -2.4169   -1.1257 H   0  0  0  0  0  0  0  0  0  0  0  0
   -7.2645   -1.7737   -0.3124 H   0  0  0  0  0  0  0  0  0  0  0  0
   -5.9296   -2.3176    0.6516 H   0  0  0  0  0  0  0  0  0  0  0  0
   -7.3894    0.3113   -1.3576 H   0  0  0  0  0  0  0  0  0  0  0  0
   -6.1046   -0.2232   -2.4628 H   0  0  0  0  0  0  0  0  0  0  0  0
   -6.0355    1.3520   -1.6772 H   0  0  0  0  0  0  0  0  0  0  0  0
   -3.8893   -1.0259   -1.4080 H   0  0  0  0  0  0  0  0  0  0  0  0
   -3.9534   -1.9830    1.0249 H   0  0  0  0  0  0  0  0  0  0  0  0
   -3.5251    0.9529    3.9760 H   0  0  0  0  0  0  0  0  0  0  0  0
   -2.6486   -0.2037    4.9977 H   0  0  0  0  0  0  0  0  0  0  0  0
   -1.7486    0.7473    3.7970 H   0  0  0  0  0  0  0  0  0  0  0  0
   -2.3069   -2.6183   -0.6082 H   0  0  0  0  0  0  0  0  0  0  0  0
   -1.6299   -2.5006    1.0064 H   0  0  0  0  0  0  0  0  0  0  0  0
   -0.6299   -0.3034    0.4865 H   0  0  0  0  0  0  0  0  0  0  0  0
  1  2  2  0
  2  3  1  0
  3  4  1  0
  4  5  1  0
  4  6  1  0
  6  7  1  0
  7  8  1  0
  8  9  2  0
  9 10  1  0
  9 11  1  0
 11 12  2  0
 11 13  1  0
  3 14  2  0
 14 15  1  0
 15 16  1  0
 16 17  1  6
 16 18  1  0
 18 19  1  0
 19 20  1  0
 20 21  1  6
 20 22  1  0
 22 23  2  0
 23 24  1  0
 24 25  2  0
 25 26  1  0
 26 27  2  0
 26 28  1  0
 28 29  1  0
 29 30  1  0
 29 31  1  0
 29 32  1  0
 32 33  1  0
 33 34  1  0
 34 35  1  0
 35 36  1  0
 35 37  2  0
 33 38  1  0
 38 39  1  0
 18  2  1  0
 39 20  1  0
 13  6  1  0
 39 16  1  0
 32 23  1  0
  1 40  1  0
  1 41  1  0
  4 42  1  6
  5 43  1  0
  5 44  1  0
  5 45  1  0
  6 46  1  1
  7 47  1  0
  7 48  1  0
  8 49  1  0
 10 50  1  0
 10 51  1  0
 10 52  1  0
 14 53  1  0
 15 54  1  0
 15 55  1  0
 17 56  1  0
 17 57  1  0
 17 58  1  0
 18 59  1  6
 19 60  1  0
 19 61  1  0
 21 62  1  0
 22 63  1  0
 24 64  1  0
 25 65  1  0
 30 66  1  0
 30 67  1  0
 30 68  1  0
 31 69  1  0
 31 70  1  0
 31 71  1  0
 32 72  1  6
 33 73  1  1
 36 74  1  0
 36 75  1  0
 36 76  1  0
 38 77  1  0
 38 78  1  0
 39 79  1  1
M  END
$$$$
