
     RDKit          3D

 64 67  0  0  0  0  0  0  0  0999 V2000
   -7.7254   -1.6390    0.5733 C   0  0  0  0  0  0  0  0  0  0  0  0
   -6.8048   -2.6668    1.2457 C   0  0  2  0  0  0  0  0  0  0  0  0
   -7.6538   -3.5936    2.1298 C   0  0  0  0  0  0  0  0  0  0  0  0
   -6.8162   -4.6708    2.8135 C   0  0  0  0  0  0  0  0  0  0  0  0
   -5.3380   -4.3037    2.8800 C   0  0  0  0  0  0  0  0  0  0  0  0
   -5.1024   -2.7971    3.0617 C   0  0  2  0  0  0  0  0  0  0  0  0
   -5.5687   -2.3171    4.4425 C   0  0  0  0  0  0  0  0  0  0  0  0
   -5.7604   -1.9742    2.0226 N   0  0  0  0  0  0  0  0  0  0  0  0
   -4.7297   -1.3989    1.0726 N   0  0  0  0  0  0  0  0  0  0  0  0
   -3.9957   -0.3641    1.5287 C   0  0  0  0  0  0  0  0  0  0  0  0
   -3.9707    0.1091    2.6647 O   0  0  0  0  0  0  0  0  0  0  0  0
   -3.0876    0.2565    0.4896 C   0  0  0  0  0  0  0  0  0  0  0  0
   -3.2551   -0.0192   -0.8759 C   0  0  0  0  0  0  0  0  0  0  0  0
   -2.4242    0.5700   -1.8321 C   0  0  0  0  0  0  0  0  0  0  0  0
   -1.4052    1.4493   -1.4491 C   0  0  0  0  0  0  0  0  0  0  0  0
   -0.4611    2.1120   -2.7381 Cl  0  0  0  0  0  0  0  0  0  0  0  0
   -1.2207    1.7300   -0.0900 C   0  0  0  0  0  0  0  0  0  0  0  0
    0.1025    2.8822    0.4475 S   0  0  0  0  0  0  0  0  0  0  0  0
   -0.3531    4.1174   -0.1924 O   0  0  0  0  0  0  0  0  0  0  0  0
   -0.0401    2.8629    1.9035 O   0  0  0  0  0  0  0  0  0  0  0  0
    1.4537    2.2403   -0.0993 N   0  0  0  0  0  0  0  0  0  0  0  0
    2.5810    2.9506   -0.0090 C   0  0  0  0  0  0  0  0  0  0  0  0
    2.7981    3.9677    0.6484 O   0  0  0  0  0  0  0  0  0  0  0  0
    3.7363    2.3985   -0.8179 C   0  0  0  0  0  0  0  0  0  0  0  0
    3.6103    1.2793   -1.6510 C   0  0  0  0  0  0  0  0  0  0  0  0
    4.7067    0.8089   -2.3859 C   0  0  0  0  0  0  0  0  0  0  0  0
    5.9577    1.4434   -2.3112 C   0  0  0  0  0  0  0  0  0  0  0  0
    7.0663    0.9797   -3.0475 C   0  0  0  0  0  0  0  0  0  0  0  0
    8.3243    1.6114   -2.9809 C   0  0  0  0  0  0  0  0  0  0  0  0
    9.4682    1.0499   -3.8047 C   0  0  0  0  0  0  0  0  0  0  0  0
    9.1919    1.0329   -5.1500 F   0  0  0  0  0  0  0  0  0  0  0  0
    9.7703   -0.2483   -3.4735 F   0  0  0  0  0  0  0  0  0  0  0  0
   11.2700    1.8921   -3.7830 P   0  0  0  0  0  0  0  0  0  0  0  0
   11.7240    1.8290   -2.3168 O   0  0  0  0  0  0  0  0  0  0  0  0
   12.1462    1.0554   -4.7282 O   0  0  0  0  0  0  0  0  0  0  0  0
   11.0457    3.3301   -4.2745 O   0  0  0  0  0  0  0  0  0  0  0  0
    8.4562    2.7275   -2.1547 C   0  0  0  0  0  0  0  0  0  0  0  0
    7.3622    3.2017   -1.4147 C   0  0  0  0  0  0  0  0  0  0  0  0
    6.1040    2.5728   -1.4797 C   0  0  0  0  0  0  0  0  0  0  0  0
    4.9888    3.0349   -0.7439 C   0  0  0  0  0  0  0  0  0  0  0  0
   -2.0632    1.1404    0.8768 C   0  0  0  0  0  0  0  0  0  0  0  0
   -8.2002   -0.9843    1.3130 H   0  0  0  0  0  0  0  0  0  0  0  0
   -7.1791   -1.0081   -0.1360 H   0  0  0  0  0  0  0  0  0  0  0  0
   -8.5207   -2.1427    0.0126 H   0  0  0  0  0  0  0  0  0  0  0  0
   -6.3489   -3.2843    0.4580 H   0  0  0  0  0  0  0  0  0  0  0  0
   -8.1772   -3.0021    2.8924 H   0  0  0  0  0  0  0  0  0  0  0  0
   -8.4399   -4.0757    1.5354 H   0  0  0  0  0  0  0  0  0  0  0  0
   -6.9212   -5.6222    2.2783 H   0  0  0  0  0  0  0  0  0  0  0  0
   -7.2094   -4.8448    3.8224 H   0  0  0  0  0  0  0  0  0  0  0  0
   -4.8561   -4.8693    3.6866 H   0  0  0  0  0  0  0  0  0  0  0  0
   -4.8497   -4.6277    1.9510 H   0  0  0  0  0  0  0  0  0  0  0  0
   -4.0133   -2.6514    3.0464 H   0  0  0  0  0  0  0  0  0  0  0  0
   -5.3110   -1.2642    4.5994 H   0  0  0  0  0  0  0  0  0  0  0  0
   -5.0790   -2.8953    5.2337 H   0  0  0  0  0  0  0  0  0  0  0  0
   -6.6497   -2.4161    4.5795 H   0  0  0  0  0  0  0  0  0  0  0  0
   -4.0450   -0.6892   -1.2034 H   0  0  0  0  0  0  0  0  0  0  0  0
   -2.5834    0.3395   -2.8809 H   0  0  0  0  0  0  0  0  0  0  0  0
    2.6605    0.7612   -1.7449 H   0  0  0  0  0  0  0  0  0  0  0  0
    4.5750   -0.0610   -3.0238 H   0  0  0  0  0  0  0  0  0  0  0  0
    6.9662    0.1090   -3.6933 H   0  0  0  0  0  0  0  0  0  0  0  0
    9.4212    3.2348   -2.0864 H   0  0  0  0  0  0  0  0  0  0  0  0
    7.5080    4.0749   -0.7840 H   0  0  0  0  0  0  0  0  0  0  0  0
    5.0946    3.9075   -0.1022 H   0  0  0  0  0  0  0  0  0  0  0  0
   -1.9303    1.3686    1.9317 H   0  0  0  0  0  0  0  0  0  0  0  0
  1  2  1  0
  2  3  1  0
  3  4  1  0
  4  5  1  0
  5  6  1  0
  6  7  1  0
  6  8  1  0
  8  9  1  0
  9 10  1  0
 10 11  2  0
 10 12  1  0
 12 13  2  0
 13 14  1  0
 14 15  2  0
 15 16  1  0
 15 17  1  0
 17 18  1  0
 18 19  2  0
 18 20  2  0
 18 21  1  0
 21 22  1  0
 22 23  2  0
 22 24  1  0
 24 25  2  0
 25 26  1  0
 26 27  2  0
 27 28  1  0
 28 29  2  0
 29 30  1  0
 30 31  1  0
 30 32  1  0
 30 33  1  0
 33 34  2  0
 33 35  1  0
 33 36  1  0
 29 37  1  0
 37 38  2  0
 38 39  1  0
 39 40  2  0
 17 41  2  0
  8  2  1  0
 41 12  1  0
 40 24  1  0
 39 27  1  0
  1 42  1  0
  1 43  1  0
  1 44  1  0
  2 45  1  6
  3 46  1  0
  3 47  1  0
  4 48  1  0
  4 49  1  0
  5 50  1  0
  5 51  1  0
  6 52  1  1
  7 53  1  0
  7 54  1  0
  7 55  1  0
 13 56  1  0
 14 57  1  0
 25 58  1  0
 26 59  1  0
 28 60  1  0
 37 61  1  0
 38 62  1  0
 40 63  1  0
 41 64  1  0
M  CHG  4   9  -1  21  -1  35  -1  36  -1
M  END
$$$$
