
     RDKit          3D

 86 90  0  0  0  0  0  0  0  0999 V2000
   -2.3136    3.3338   -3.6118 C   0  0  0  0  0  0  0  0  0  0  0  0
   -1.8817    1.9053   -3.4860 C   0  0  0  0  0  0  0  0  0  0  0  0
   -1.2139    1.3075   -4.3174 O   0  0  0  0  0  0  0  0  0  0  0  0
   -2.3402    1.3807   -2.3174 O   0  0  0  0  0  0  0  0  0  0  0  0
   -1.9644    0.0079   -2.0260 C   0  0  1  0  0  0  0  0  0  0  0  0
   -0.7233   -0.0303   -1.1035 C   0  0  2  0  0  0  0  0  0  0  0  0
    0.4139    0.5576   -1.7857 O   0  0  0  0  0  0  0  0  0  0  0  0
    0.6766    1.8642   -1.5315 C   0  0  0  0  0  0  0  0  0  0  0  0
    0.0099    2.6101   -0.8321 O   0  0  0  0  0  0  0  0  0  0  0  0
    1.9380    2.2787   -2.1940 C   0  0  0  0  0  0  0  0  0  0  0  0
    2.5000    1.5503   -3.2497 C   0  0  0  0  0  0  0  0  0  0  0  0
    3.6925    1.9798   -3.8361 C   0  0  0  0  0  0  0  0  0  0  0  0
    4.3241    3.1347   -3.3735 C   0  0  0  0  0  0  0  0  0  0  0  0
    3.7646    3.8673   -2.3273 C   0  0  0  0  0  0  0  0  0  0  0  0
    2.5718    3.4434   -1.7400 C   0  0  0  0  0  0  0  0  0  0  0  0
   -0.3376   -1.4944   -0.6823 C   0  0  1  0  0  0  0  0  0  0  0  0
    0.1639   -2.2719   -1.9382 C   0  0  0  0  0  0  0  0  0  0  0  0
    0.9019   -1.4894    0.3018 C   0  0  1  0  0  0  0  0  0  0  0  0
    0.9901   -0.2236    0.9848 O   0  0  0  0  0  0  0  0  0  0  0  0
    2.2378    0.2176    1.2860 C   0  0  0  0  0  0  0  0  0  0  0  0
    3.2788   -0.4049    1.1612 O   0  0  0  0  0  0  0  0  0  0  0  0
    2.1246    1.6158    1.7443 C   0  0  0  0  0  0  0  0  0  0  0  0
    3.2361    2.3288    1.9802 C   0  0  0  0  0  0  0  0  0  0  0  0
    3.2465    3.7499    2.3547 C   0  0  0  0  0  0  0  0  0  0  0  0
    4.3474    4.5327    1.9793 C   0  0  0  0  0  0  0  0  0  0  0  0
    4.4122    5.8855    2.3222 C   0  0  0  0  0  0  0  0  0  0  0  0
    3.3805    6.4690    3.0533 C   0  0  0  0  0  0  0  0  0  0  0  0
    2.2875    5.6995    3.4454 C   0  0  0  0  0  0  0  0  0  0  0  0
    2.2226    4.3460    3.1023 C   0  0  0  0  0  0  0  0  0  0  0  0
    0.9305   -2.6552    1.3264 C   0  0  0  0  0  0  0  0  0  0  0  0
   -0.4466   -3.1968    1.7794 C   0  0  2  0  0  0  0  0  0  0  0  0
   -1.2049   -3.5824    0.5132 C   0  0  1  0  0  0  0  0  0  0  0  0
   -2.3270   -4.4233    0.8076 O   0  0  0  0  0  0  0  0  0  0  0  0
   -2.0628   -5.7455    0.9748 C   0  0  0  0  0  0  0  0  0  0  0  0
   -3.3284   -6.4871    1.2748 C   0  0  0  0  0  0  0  0  0  0  0  0
   -0.9564   -6.2595    0.8960 O   0  0  0  0  0  0  0  0  0  0  0  0
   -1.5941   -2.1642    0.0123 C   0  0  1  0  0  0  0  0  0  0  0  0
   -1.8204   -1.3787    1.2513 O   0  0  0  0  0  0  0  0  0  0  0  0
   -1.3741   -2.1349    2.3941 C   0  0  0  0  0  0  0  0  0  0  0  0
   -0.7146   -1.2217    3.4345 C   0  0  0  0  0  0  0  0  0  0  0  0
   -2.6160   -2.7186    3.1018 C   0  0  0  0  0  0  0  0  0  0  0  0
   -2.9244   -2.0664   -0.8269 C   0  0  1  0  0  0  0  0  0  0  0  0
   -3.0476   -3.0626   -1.9878 C   0  0  0  0  0  0  0  0  0  0  0  0
   -4.0418   -2.3734    0.0403 O   0  0  0  0  0  0  0  0  0  0  0  0
   -3.1828   -0.6235   -1.3387 C   0  0  1  0  0  0  0  0  0  0  0  0
   -3.6068    0.2041   -0.2341 O   0  0  0  0  0  0  0  0  0  0  0  0
   -1.9053    3.9192   -2.7843 H   0  0  0  0  0  0  0  0  0  0  0  0
   -1.9327    3.7458   -4.5506 H   0  0  0  0  0  0  0  0  0  0  0  0
   -3.4048    3.3912   -3.6227 H   0  0  0  0  0  0  0  0  0  0  0  0
   -1.7651   -0.5186   -2.9645 H   0  0  0  0  0  0  0  0  0  0  0  0
   -0.9496    0.5597   -0.2065 H   0  0  0  0  0  0  0  0  0  0  0  0
    2.0148    0.6554   -3.6314 H   0  0  0  0  0  0  0  0  0  0  0  0
    4.1279    1.4141   -4.6563 H   0  0  0  0  0  0  0  0  0  0  0  0
    5.2530    3.4655   -3.8319 H   0  0  0  0  0  0  0  0  0  0  0  0
    4.2554    4.7684   -1.9679 H   0  0  0  0  0  0  0  0  0  0  0  0
    2.1437    4.0207   -0.9222 H   0  0  0  0  0  0  0  0  0  0  0  0
    0.4957   -3.2864   -1.7034 H   0  0  0  0  0  0  0  0  0  0  0  0
   -0.5737   -2.3412   -2.7324 H   0  0  0  0  0  0  0  0  0  0  0  0
    1.0325   -1.7738   -2.3870 H   0  0  0  0  0  0  0  0  0  0  0  0
    1.8126   -1.5779   -0.3063 H   0  0  0  0  0  0  0  0  0  0  0  0
    1.1263    2.0311    1.8124 H   0  0  0  0  0  0  0  0  0  0  0  0
    4.2136    1.8652    1.8528 H   0  0  0  0  0  0  0  0  0  0  0  0
    5.1642    4.0968    1.4077 H   0  0  0  0  0  0  0  0  0  0  0  0
    5.2695    6.4814    2.0204 H   0  0  0  0  0  0  0  0  0  0  0  0
    3.4301    7.5209    3.3222 H   0  0  0  0  0  0  0  0  0  0  0  0
    1.4847    6.1504    4.0231 H   0  0  0  0  0  0  0  0  0  0  0  0
    1.3648    3.7678    3.4360 H   0  0  0  0  0  0  0  0  0  0  0  0
    1.5188   -2.3775    2.2084 H   0  0  0  0  0  0  0  0  0  0  0  0
    1.4663   -3.4926    0.8586 H   0  0  0  0  0  0  0  0  0  0  0  0
   -0.3031   -4.0368    2.4673 H   0  0  0  0  0  0  0  0  0  0  0  0
   -0.5875   -4.1159   -0.2120 H   0  0  0  0  0  0  0  0  0  0  0  0
   -3.1060   -7.5516    1.3906 H   0  0  0  0  0  0  0  0  0  0  0  0
   -3.7618   -6.1170    2.2073 H   0  0  0  0  0  0  0  0  0  0  0  0
   -4.0331   -6.3667    0.4481 H   0  0  0  0  0  0  0  0  0  0  0  0
   -1.4118   -0.4402    3.7601 H   0  0  0  0  0  0  0  0  0  0  0  0
   -0.4000   -1.7928    4.3148 H   0  0  0  0  0  0  0  0  0  0  0  0
    0.1549   -0.6864    3.0647 H   0  0  0  0  0  0  0  0  0  0  0  0
   -2.3306   -3.4594    3.8560 H   0  0  0  0  0  0  0  0  0  0  0  0
   -3.1788   -1.9235    3.6070 H   0  0  0  0  0  0  0  0  0  0  0  0
   -3.3418   -3.1681    2.4241 H   0  0  0  0  0  0  0  0  0  0  0  0
   -4.1002   -3.1797   -2.2759 H   0  0  0  0  0  0  0  0  0  0  0  0
   -2.5162   -2.7519   -2.8870 H   0  0  0  0  0  0  0  0  0  0  0  0
   -2.7028   -4.0630   -1.7132 H   0  0  0  0  0  0  0  0  0  0  0  0
   -4.0678   -1.6086    0.6581 H   0  0  0  0  0  0  0  0  0  0  0  0
   -4.0375   -0.6163   -2.0268 H   0  0  0  0  0  0  0  0  0  0  0  0
   -3.5472    1.1301   -0.5392 H   0  0  0  0  0  0  0  0  0  0  0  0
  1  2  1  0
  2  3  2  0
  2  4  1  0
  4  5  1  0
  5  6  1  0
  6  7  1  0
  7  8  1  0
  8  9  2  0
  8 10  1  0
 10 11  2  0
 11 12  1  0
 12 13  2  0
 13 14  1  0
 14 15  2  0
  6 16  1  0
 16 17  1  6
 16 18  1  0
 18 19  1  0
 19 20  1  0
 20 21  2  0
 20 22  1  0
 22 23  2  0
 23 24  1  0
 24 25  2  0
 25 26  1  0
 26 27  2  0
 27 28  1  0
 28 29  2  0
 18 30  1  0
 30 31  1  0
 31 32  1  0
 32 33  1  0
 33 34  1  0
 34 35  1  0
 34 36  2  0
 32 37  1  0
 37 38  1  1
 38 39  1  0
 39 40  1  0
 39 41  1  0
 37 42  1  0
 42 43  1  0
 42 44  1  1
 42 45  1  0
 45 46  1  0
 45  5  1  0
 15 10  1  0
 37 16  1  0
 29 24  1  0
 39 31  1  0
  1 47  1  0
  1 48  1  0
  1 49  1  0
  5 50  1  6
  6 51  1  1
 11 52  1  0
 12 53  1  0
 13 54  1  0
 14 55  1  0
 15 56  1  0
 17 57  1  0
 17 58  1  0
 17 59  1  0
 18 60  1  6
 22 61  1  0
 23 62  1  0
 25 63  1  0
 26 64  1  0
 27 65  1  0
 28 66  1  0
 29 67  1  0
 30 68  1  0
 30 69  1  0
 31 70  1  1
 32 71  1  6
 35 72  1  0
 35 73  1  0
 35 74  1  0
 40 75  1  0
 40 76  1  0
 40 77  1  0
 41 78  1  0
 41 79  1  0
 41 80  1  0
 43 81  1  0
 43 82  1  0
 43 83  1  0
 44 84  1  0
 45 85  1  6
 46 86  1  0
M  END
$$$$
