
     RDKit          3D

 63 65  0  0  0  0  0  0  0  0999 V2000
    3.3206    3.4036   -4.5731 C   0  0  0  0  0  0  0  0  0  0  0  0
    3.4876    2.3395   -3.6443 O   0  0  0  0  0  0  0  0  0  0  0  0
    2.3999    2.0103   -2.8834 C   0  0  0  0  0  0  0  0  0  0  0  0
    1.1616    2.6465   -2.8989 C   0  0  0  0  0  0  0  0  0  0  0  0
    0.1282    2.2064   -2.0576 C   0  0  0  0  0  0  0  0  0  0  0  0
    0.2950    1.1248   -1.1803 C   0  0  0  0  0  0  0  0  0  0  0  0
   -0.7366    0.7597   -0.3951 N   0  0  0  0  0  0  0  0  0  0  0  0
   -0.5992   -0.3233    0.4152 C   0  0  0  0  0  0  0  0  0  0  0  0
   -1.6942   -0.7578    1.2104 C   0  0  0  0  0  0  0  0  0  0  0  0
   -3.0360   -0.0935    1.1736 C   0  0  0  0  0  0  0  0  0  0  0  0
   -4.0826   -0.7320    1.2819 O   0  0  0  0  0  0  0  0  0  0  0  0
   -3.0516    1.2484    0.8862 N   0  0  0  0  0  0  0  0  0  0  0  0
   -4.2589    2.0024    0.6368 C   0  0  0  0  0  0  0  0  0  0  0  0
   -4.8025    1.7871   -0.7883 C   0  0  0  0  0  0  0  0  0  0  0  0
   -5.0839    0.3174   -1.0579 N   0  0  0  0  0  0  0  0  0  0  0  0
   -4.1553   -0.2707   -2.0809 C   0  0  0  0  0  0  0  0  0  0  0  0
   -6.5162    0.0102   -1.3214 C   0  0  0  0  0  0  0  0  0  0  0  0
   -1.5912   -1.8778    2.0483 C   0  0  0  0  0  0  0  0  0  0  0  0
   -0.3992   -2.5935    2.1323 C   0  0  0  0  0  0  0  0  0  0  0  0
    0.7051   -2.2300    1.3598 C   0  0  0  0  0  0  0  0  0  0  0  0
    1.8961   -2.9445    1.4594 N   0  0  0  0  0  0  0  0  0  0  0  0
    2.5009   -3.2874    2.7375 C   0  0  0  0  0  0  0  0  0  0  0  0
    3.9259   -2.6938    2.8380 C   0  0  0  0  0  0  0  0  0  0  0  0
    3.9737   -1.2553    2.3650 N   0  0  0  0  0  0  0  0  0  0  0  0
    5.3446   -0.8027    1.9830 C   0  0  0  0  0  0  0  0  0  0  0  0
    3.2755   -0.2797    3.2557 C   0  0  0  0  0  0  0  0  0  0  0  0
    0.5911   -1.0872    0.5206 C   0  0  0  0  0  0  0  0  0  0  0  0
    1.7725   -0.6099   -0.2540 C   0  0  0  0  0  0  0  0  0  0  0  0
    2.8983   -1.0803   -0.0796 O   0  0  0  0  0  0  0  0  0  0  0  0
    1.5526    0.5073   -1.1861 C   0  0  0  0  0  0  0  0  0  0  0  0
    2.5936    0.9361   -2.0200 C   0  0  0  0  0  0  0  0  0  0  0  0
    3.1068    4.3460   -4.0582 H   0  0  0  0  0  0  0  0  0  0  0  0
    4.2642    3.5266   -5.1135 H   0  0  0  0  0  0  0  0  0  0  0  0
    2.5439    3.1688   -5.3085 H   0  0  0  0  0  0  0  0  0  0  0  0
    0.9598    3.4911   -3.5482 H   0  0  0  0  0  0  0  0  0  0  0  0
   -0.8250    2.7303   -2.0920 H   0  0  0  0  0  0  0  0  0  0  0  0
   -2.1357    1.6392    0.6352 H   0  0  0  0  0  0  0  0  0  0  0  0
   -4.0223    3.0601    0.7883 H   0  0  0  0  0  0  0  0  0  0  0  0
   -5.0151    1.7097    1.3738 H   0  0  0  0  0  0  0  0  0  0  0  0
   -4.0795    2.1339   -1.5353 H   0  0  0  0  0  0  0  0  0  0  0  0
   -5.7348    2.3448   -0.9277 H   0  0  0  0  0  0  0  0  0  0  0  0
   -4.8495   -0.1854   -0.1759 H   0  0  0  0  0  0  0  0  0  0  0  0
   -4.3849    0.1773   -3.0515 H   0  0  0  0  0  0  0  0  0  0  0  0
   -3.1270   -0.0549   -1.7890 H   0  0  0  0  0  0  0  0  0  0  0  0
   -4.3175   -1.3515   -2.1033 H   0  0  0  0  0  0  0  0  0  0  0  0
   -6.8140    0.5035   -2.2505 H   0  0  0  0  0  0  0  0  0  0  0  0
   -7.1045    0.3790   -0.4769 H   0  0  0  0  0  0  0  0  0  0  0  0
   -6.6259   -1.0744   -1.4038 H   0  0  0  0  0  0  0  0  0  0  0  0
   -2.4486   -2.1996    2.6361 H   0  0  0  0  0  0  0  0  0  0  0  0
   -0.3594   -3.4686    2.7751 H   0  0  0  0  0  0  0  0  0  0  0  0
    2.4782   -2.9129    0.6181 H   0  0  0  0  0  0  0  0  0  0  0  0
    2.5547   -4.3771    2.8334 H   0  0  0  0  0  0  0  0  0  0  0  0
    1.9061   -2.9208    3.5821 H   0  0  0  0  0  0  0  0  0  0  0  0
    4.5936   -3.2604    2.1789 H   0  0  0  0  0  0  0  0  0  0  0  0
    4.3154   -2.7315    3.8605 H   0  0  0  0  0  0  0  0  0  0  0  0
    3.4347   -1.2463    1.4688 H   0  0  0  0  0  0  0  0  0  0  0  0
    5.7355   -1.4883    1.2265 H   0  0  0  0  0  0  0  0  0  0  0  0
    5.9730   -0.8089    2.8774 H   0  0  0  0  0  0  0  0  0  0  0  0
    5.2713    0.2045    1.5636 H   0  0  0  0  0  0  0  0  0  0  0  0
    2.2442   -0.6040    3.4052 H   0  0  0  0  0  0  0  0  0  0  0  0
    3.2829    0.6976    2.7654 H   0  0  0  0  0  0  0  0  0  0  0  0
    3.8095   -0.2396    4.2088 H   0  0  0  0  0  0  0  0  0  0  0  0
    3.5545    0.4313   -2.0009 H   0  0  0  0  0  0  0  0  0  0  0  0
  1  2  1  0
  2  3  1  0
  3  4  2  0
  4  5  1  0
  5  6  2  0
  6  7  1  0
  7  8  1  0
  8  9  2  0
  9 10  1  0
 10 11  2  0
 10 12  1  0
 12 13  1  0
 13 14  1  0
 14 15  1  0
 15 16  1  0
 15 17  1  0
  9 18  1  0
 18 19  2  0
 19 20  1  0
 20 21  1  0
 21 22  1  0
 22 23  1  0
 23 24  1  0
 24 25  1  0
 24 26  1  0
 20 27  2  0
 27 28  1  0
 28 29  2  0
 28 30  1  0
 30 31  2  0
 31  3  1  0
 30  6  1  0
 27  8  1  0
  1 32  1  0
  1 33  1  0
  1 34  1  0
  4 35  1  0
  5 36  1  0
 12 37  1  0
 13 38  1  0
 13 39  1  0
 14 40  1  0
 14 41  1  0
 15 42  1  0
 16 43  1  0
 16 44  1  0
 16 45  1  0
 17 46  1  0
 17 47  1  0
 17 48  1  0
 18 49  1  0
 19 50  1  0
 21 51  1  0
 22 52  1  0
 22 53  1  0
 23 54  1  0
 23 55  1  0
 24 56  1  0
 25 57  1  0
 25 58  1  0
 25 59  1  0
 26 60  1  0
 26 61  1  0
 26 62  1  0
 31 63  1  0
M  CHG  3   7  -1  15   1  24   1
M  END
$$$$
