
     RDKit          3D

 77 82  0  0  0  0  0  0  0  0999 V2000
    2.6021   -2.5582    1.7932 C   0  0  0  0  0  0  0  0  0  0  0  0
    1.4173   -2.9513    0.9458 C   0  0  0  0  0  0  0  0  0  0  0  0
    0.9216   -4.1965    1.0874 C   0  0  0  0  0  0  0  0  0  0  0  0
   -0.2263   -4.7615    0.3182 C   0  0  0  0  0  0  0  0  0  0  0  0
   -0.7556   -3.8409   -0.7786 C   0  0  0  0  0  0  0  0  0  0  0  0
   -0.6797   -2.3526   -0.3545 C   0  0  1  0  0  0  0  0  0  0  0  0
    0.8302   -1.9387   -0.0869 C   0  0  2  0  0  0  0  0  0  0  0  0
    1.7559   -2.0679   -1.3252 C   0  0  0  0  0  0  0  0  0  0  0  0
    0.8437   -0.4641    0.4415 C   0  0  1  0  0  0  0  0  0  0  0  0
    2.2155    0.0255    0.4835 O   0  0  0  0  0  0  0  0  0  0  0  0
    2.5731    0.8027    1.5349 C   0  0  0  0  0  0  0  0  0  0  0  0
    1.8792    1.0781    2.4996 O   0  0  0  0  0  0  0  0  0  0  0  0
    3.9568    1.2883    1.3615 C   0  0  0  0  0  0  0  0  0  0  0  0
    4.6664    1.1866    0.1624 C   0  0  0  0  0  0  0  0  0  0  0  0
    5.9661    1.6848    0.0934 C   0  0  0  0  0  0  0  0  0  0  0  0
    6.5099    2.2686    1.2270 C   0  0  0  0  0  0  0  0  0  0  0  0
    5.8501    2.3865    2.4001 N   0  0  0  0  0  0  0  0  0  0  0  0
    4.5847    1.8985    2.4392 C   0  0  0  0  0  0  0  0  0  0  0  0
    0.0600    0.5050   -0.4746 C   0  0  2  0  0  0  0  0  0  0  0  0
    0.0746    1.8206    0.1606 O   0  0  0  0  0  0  0  0  0  0  0  0
    0.8708    2.7664   -0.3981 C   0  0  0  0  0  0  0  0  0  0  0  0
    1.5512    2.6294   -1.4017 O   0  0  0  0  0  0  0  0  0  0  0  0
    0.7995    4.0294    0.3799 C   0  0  0  0  0  0  0  0  0  0  0  0
    1.2618    5.2061   -0.2237 C   0  0  0  0  0  0  0  0  0  0  0  0
    1.2231    6.4146    0.4738 C   0  0  0  0  0  0  0  0  0  0  0  0
    0.7294    6.4514    1.7774 C   0  0  0  0  0  0  0  0  0  0  0  0
    0.2773    5.2817    2.3877 C   0  0  0  0  0  0  0  0  0  0  0  0
    0.3123    4.0707    1.6930 C   0  0  0  0  0  0  0  0  0  0  0  0
   -1.4307    0.1015   -0.6670 C   0  0  2  0  0  0  0  0  0  0  0  0
   -2.1288    1.1955   -1.5051 C   0  0  0  0  0  0  0  0  0  0  0  0
   -2.0406    0.1516    0.6357 O   0  0  0  0  0  0  0  0  0  0  0  0
   -1.5719   -1.3724   -1.2386 C   0  0  1  0  0  0  0  0  0  0  0  0
   -1.1437   -1.4017   -2.7319 C   0  0  0  0  0  0  0  0  0  0  0  0
   -3.0738   -1.8991   -1.2312 C   0  0  1  0  0  0  0  0  0  0  0  0
   -3.7415   -2.2363    0.1444 C   0  0  0  0  0  0  0  0  0  0  0  0
   -5.0871   -1.7269   -0.1029 C   0  0  0  0  0  0  0  0  0  0  0  0
   -5.1239   -1.0989   -1.2542 C   0  0  0  0  0  0  0  0  0  0  0  0
   -3.9747   -1.0306   -1.9942 O   0  0  0  0  0  0  0  0  0  0  0  0
   -6.4504   -0.5169   -1.4183 C   0  0  0  0  0  0  0  0  0  0  0  0
   -6.8564    0.1473   -2.3520 O   0  0  0  0  0  0  0  0  0  0  0  0
   -7.1730   -0.8666   -0.2994 O   0  0  0  0  0  0  0  0  0  0  0  0
   -6.3514   -1.6375    0.6079 C   0  0  0  0  0  0  0  0  0  0  0  0
    2.3148   -1.7986    2.5250 H   0  0  0  0  0  0  0  0  0  0  0  0
    3.0018   -3.4065    2.3607 H   0  0  0  0  0  0  0  0  0  0  0  0
    3.4238   -2.1836    1.1769 H   0  0  0  0  0  0  0  0  0  0  0  0
    1.3632   -4.8749    1.8162 H   0  0  0  0  0  0  0  0  0  0  0  0
   -1.0346   -4.9720    1.0296 H   0  0  0  0  0  0  0  0  0  0  0  0
    0.0632   -5.7218   -0.1234 H   0  0  0  0  0  0  0  0  0  0  0  0
   -0.1974   -4.0141   -1.7039 H   0  0  0  0  0  0  0  0  0  0  0  0
   -1.7777   -4.1627   -0.9897 H   0  0  0  0  0  0  0  0  0  0  0  0
   -1.1480   -2.3167    0.6416 H   0  0  0  0  0  0  0  0  0  0  0  0
    1.6870   -3.0494   -1.8028 H   0  0  0  0  0  0  0  0  0  0  0  0
    1.5592   -1.3146   -2.0865 H   0  0  0  0  0  0  0  0  0  0  0  0
    2.8111   -1.9389   -1.0545 H   0  0  0  0  0  0  0  0  0  0  0  0
    0.4145   -0.4433    1.4519 H   0  0  0  0  0  0  0  0  0  0  0  0
    4.2176    0.7400   -0.7210 H   0  0  0  0  0  0  0  0  0  0  0  0
    6.5388    1.6243   -0.8257 H   0  0  0  0  0  0  0  0  0  0  0  0
    7.5190    2.6717    1.2205 H   0  0  0  0  0  0  0  0  0  0  0  0
    4.0812    2.0182    3.3957 H   0  0  0  0  0  0  0  0  0  0  0  0
    0.5494    0.5704   -1.4509 H   0  0  0  0  0  0  0  0  0  0  0  0
    1.6535    5.1861   -1.2389 H   0  0  0  0  0  0  0  0  0  0  0  0
    1.5813    7.3263    0.0018 H   0  0  0  0  0  0  0  0  0  0  0  0
    0.7034    7.3925    2.3217 H   0  0  0  0  0  0  0  0  0  0  0  0
   -0.0957    5.3108    3.4088 H   0  0  0  0  0  0  0  0  0  0  0  0
   -0.0234    3.1665    2.1953 H   0  0  0  0  0  0  0  0  0  0  0  0
   -3.2140    1.0873   -1.5107 H   0  0  0  0  0  0  0  0  0  0  0  0
   -1.7611    1.2292   -2.5341 H   0  0  0  0  0  0  0  0  0  0  0  0
   -1.9756    2.1907   -1.0719 H   0  0  0  0  0  0  0  0  0  0  0  0
   -1.8410    1.0341    1.0067 H   0  0  0  0  0  0  0  0  0  0  0  0
   -1.8937   -0.9283   -3.3755 H   0  0  0  0  0  0  0  0  0  0  0  0
   -1.0267   -2.4251   -3.1007 H   0  0  0  0  0  0  0  0  0  0  0  0
   -0.2148   -0.8680   -2.9249 H   0  0  0  0  0  0  0  0  0  0  0  0
   -3.0926   -2.8305   -1.8154 H   0  0  0  0  0  0  0  0  0  0  0  0
   -3.7317   -3.3159    0.3233 H   0  0  0  0  0  0  0  0  0  0  0  0
   -3.2895   -1.7452    1.0050 H   0  0  0  0  0  0  0  0  0  0  0  0
   -6.2698   -1.0974    1.5548 H   0  0  0  0  0  0  0  0  0  0  0  0
   -6.8190   -2.6128    0.7663 H   0  0  0  0  0  0  0  0  0  0  0  0
  1  2  1  0
  2  3  2  0
  3  4  1  0
  4  5  1  0
  5  6  1  0
  6  7  1  0
  7  8  1  6
  7  9  1  0
  9 10  1  0
 10 11  1  0
 11 12  2  0
 11 13  1  0
 13 14  2  0
 14 15  1  0
 15 16  2  0
 16 17  1  0
 17 18  2  0
  9 19  1  0
 19 20  1  0
 20 21  1  0
 21 22  2  0
 21 23  1  0
 23 24  2  0
 24 25  1  0
 25 26  2  0
 26 27  1  0
 27 28  2  0
 19 29  1  0
 29 30  1  0
 29 31  1  1
 29 32  1  0
 32 33  1  6
 32 34  1  0
 34 35  1  0
 35 36  1  0
 36 37  2  0
 37 38  1  0
 37 39  1  0
 39 40  2  0
 39 41  1  0
 41 42  1  0
  7  2  1  0
 18 13  1  0
 28 23  1  0
 38 34  1  0
 32  6  1  0
 42 36  1  0
  1 43  1  0
  1 44  1  0
  1 45  1  0
  3 46  1  0
  4 47  1  0
  4 48  1  0
  5 49  1  0
  5 50  1  0
  6 51  1  1
  8 52  1  0
  8 53  1  0
  8 54  1  0
  9 55  1  1
 14 56  1  0
 15 57  1  0
 16 58  1  0
 18 59  1  0
 19 60  1  6
 24 61  1  0
 25 62  1  0
 26 63  1  0
 27 64  1  0
 28 65  1  0
 30 66  1  0
 30 67  1  0
 30 68  1  0
 31 69  1  0
 33 70  1  0
 33 71  1  0
 33 72  1  0
 34 73  1  6
 35 74  1  0
 35 75  1  0
 42 76  1  0
 42 77  1  0
M  END
$$$$
