
     RDKit          3D

 54 58  0  0  0  0  0  0  0  0999 V2000
   -4.3555   -5.8740   -0.8585 N   0  0  0  0  0  0  0  0  0  0  0  0
   -2.9931   -5.8051   -0.9370 C   0  0  0  0  0  0  0  0  0  0  0  0
   -2.3389   -6.7909   -1.2552 O   0  0  0  0  0  0  0  0  0  0  0  0
   -2.3377   -4.5135   -0.5944 C   0  0  0  0  0  0  0  0  0  0  0  0
   -0.9740   -4.5385   -0.2641 C   0  0  0  0  0  0  0  0  0  0  0  0
   -0.2772   -3.3712    0.0722 C   0  0  0  0  0  0  0  0  0  0  0  0
   -1.0045   -2.1765    0.0592 C   0  0  0  0  0  0  0  0  0  0  0  0
   -2.3523   -2.1213   -0.2781 C   0  0  0  0  0  0  0  0  0  0  0  0
   -3.0380   -3.2983   -0.6152 C   0  0  0  0  0  0  0  0  0  0  0  0
   -2.8211   -0.8346   -0.2291 N   0  0  0  0  0  0  0  0  0  0  0  0
   -1.8000   -0.0921    0.1306 C   0  0  0  0  0  0  0  0  0  0  0  0
   -1.7850    1.2430    0.2938 N   0  0  0  0  0  0  0  0  0  0  0  0
   -2.9613    2.0155   -0.0508 C   0  0  0  0  0  0  0  0  0  0  0  0
   -2.7832    3.4448    0.4075 C   0  0  0  0  0  0  0  0  0  0  0  0
   -3.3250    3.8342    1.6464 C   0  0  0  0  0  0  0  0  0  0  0  0
   -3.1750    5.1400    2.1168 C   0  0  0  0  0  0  0  0  0  0  0  0
   -2.4741    6.0758    1.3616 C   0  0  0  0  0  0  0  0  0  0  0  0
   -1.9166    5.7033    0.1390 C   0  0  0  0  0  0  0  0  0  0  0  0
   -2.0645    4.3953   -0.3345 C   0  0  0  0  0  0  0  0  0  0  0  0
   -1.3109    4.0014   -1.8384 Cl  0  0  0  0  0  0  0  0  0  0  0  0
   -0.6748   -0.8648    0.3201 N   0  0  0  0  0  0  0  0  0  0  0  0
    0.6405   -0.3871    0.7009 C   0  0  0  0  0  0  0  0  0  0  0  0
    1.4379    0.1029   -0.5059 C   0  0  0  0  0  0  0  0  0  0  0  0
    2.7708    0.6480   -0.1048 C   0  0  0  0  0  0  0  0  0  0  0  0
    3.0849    1.9786    0.0913 C   0  0  0  0  0  0  0  0  0  0  0  0
    4.4022    2.0599    0.4549 N   0  0  0  0  0  0  0  0  0  0  0  0
    4.9598    0.8041    0.5076 C   0  0  0  0  0  0  0  0  0  0  0  0
    6.2626    0.4093    0.8345 C   0  0  0  0  0  0  0  0  0  0  0  0
    6.5539   -0.9573    0.7979 C   0  0  0  0  0  0  0  0  0  0  0  0
    5.5804   -1.8889    0.4462 C   0  0  0  0  0  0  0  0  0  0  0  0
    4.2826   -1.4768    0.1221 C   0  0  0  0  0  0  0  0  0  0  0  0
    3.9616   -0.1039    0.1541 C   0  0  0  0  0  0  0  0  0  0  0  0
   -4.9490   -5.1283   -0.5290 H   0  0  0  0  0  0  0  0  0  0  0  0
   -4.7846   -6.7605   -1.0895 H   0  0  0  0  0  0  0  0  0  0  0  0
   -0.4383   -5.4879   -0.2656 H   0  0  0  0  0  0  0  0  0  0  0  0
    0.7764   -3.4071    0.3271 H   0  0  0  0  0  0  0  0  0  0  0  0
   -4.0781   -3.2244   -0.9027 H   0  0  0  0  0  0  0  0  0  0  0  0
   -0.9591    1.7724    0.5416 H   0  0  0  0  0  0  0  0  0  0  0  0
   -3.1533    1.9798   -1.1298 H   0  0  0  0  0  0  0  0  0  0  0  0
   -3.8533    1.5937    0.4315 H   0  0  0  0  0  0  0  0  0  0  0  0
   -3.8693    3.1127    2.2543 H   0  0  0  0  0  0  0  0  0  0  0  0
   -3.6053    5.4247    3.0742 H   0  0  0  0  0  0  0  0  0  0  0  0
   -2.3575    7.0934    1.7260 H   0  0  0  0  0  0  0  0  0  0  0  0
   -1.3633    6.4379   -0.4410 H   0  0  0  0  0  0  0  0  0  0  0  0
    1.1632   -1.2023    1.2145 H   0  0  0  0  0  0  0  0  0  0  0  0
    0.5095    0.4060    1.4465 H   0  0  0  0  0  0  0  0  0  0  0  0
    0.8763    0.8787   -1.0422 H   0  0  0  0  0  0  0  0  0  0  0  0
    1.5769   -0.7162   -1.2229 H   0  0  0  0  0  0  0  0  0  0  0  0
    2.4856    2.8749   -0.0033 H   0  0  0  0  0  0  0  0  0  0  0  0
    4.9009    2.9159    0.6547 H   0  0  0  0  0  0  0  0  0  0  0  0
    7.0248    1.1325    1.1052 H   0  0  0  0  0  0  0  0  0  0  0  0
    7.5574   -1.2967    1.0447 H   0  0  0  0  0  0  0  0  0  0  0  0
    5.8301   -2.9468    0.4196 H   0  0  0  0  0  0  0  0  0  0  0  0
    3.5356   -2.2137   -0.1564 H   0  0  0  0  0  0  0  0  0  0  0  0
  1  2  1  0
  2  3  2  0
  2  4  1  0
  4  5  2  0
  5  6  1  0
  6  7  2  0
  7  8  1  0
  8  9  2  0
  8 10  1  0
 10 11  2  0
 11 12  1  0
 12 13  1  0
 13 14  1  0
 14 15  2  0
 15 16  1  0
 16 17  2  0
 17 18  1  0
 18 19  2  0
 19 20  1  0
 11 21  1  0
 21 22  1  0
 22 23  1  0
 23 24  1  0
 24 25  2  0
 25 26  1  0
 26 27  1  0
 27 28  2  0
 28 29  1  0
 29 30  2  0
 30 31  1  0
 31 32  2  0
  9  4  1  0
 19 14  1  0
 32 24  1  0
 21  7  1  0
 32 27  1  0
  1 33  1  0
  1 34  1  0
  5 35  1  0
  6 36  1  0
  9 37  1  0
 12 38  1  0
 13 39  1  0
 13 40  1  0
 15 41  1  0
 16 42  1  0
 17 43  1  0
 18 44  1  0
 22 45  1  0
 22 46  1  0
 23 47  1  0
 23 48  1  0
 25 49  1  0
 26 50  1  0
 28 51  1  0
 29 52  1  0
 30 53  1  0
 31 54  1  0
M  END
$$$$
