
     RDKit          3D

 57 61  0  0  0  0  0  0  0  0999 V2000
    3.4767    0.3830    0.2087 O   0  0  0  0  0  0  0  0  0  0  0  0
    3.8862   -0.6241    0.7703 C   0  0  0  0  0  0  0  0  0  0  0  0
    3.1287   -1.4301    1.6087 N   0  0  0  0  0  0  0  0  0  0  0  0
    1.7441   -1.3365    1.8693 C   0  0  0  0  0  0  0  0  0  0  0  0
    1.2265   -2.1598    2.8758 C   0  0  0  0  0  0  0  0  0  0  0  0
   -0.1327   -2.1297    3.1877 C   0  0  0  0  0  0  0  0  0  0  0  0
   -0.9869   -1.2730    2.4947 C   0  0  0  0  0  0  0  0  0  0  0  0
   -0.4962   -0.4351    1.4836 C   0  0  0  0  0  0  0  0  0  0  0  0
   -1.4313    0.4564    0.7517 C   0  0  0  0  0  0  0  0  0  0  0  0
   -1.0376    1.6971    0.3928 C   0  0  0  0  0  0  0  0  0  0  0  0
   -1.9355    2.5007   -0.2749 N   0  0  0  0  0  0  0  0  0  0  0  0
   -1.8465    3.7739   -0.7668 C   0  0  0  0  0  0  0  0  0  0  0  0
   -3.0799    4.0264   -1.3312 C   0  0  0  0  0  0  0  0  0  0  0  0
   -3.9214    2.9468   -1.1971 N   0  0  0  0  0  0  0  0  0  0  0  0
   -3.1945    2.0526   -0.5581 C   0  0  0  0  0  0  0  0  0  0  0  0
   -3.5800    0.7157   -0.1440 C   0  0  0  0  0  0  0  0  0  0  0  0
   -4.8399    0.2423   -0.4132 N   0  0  0  0  0  0  0  0  0  0  0  0
   -5.3006   -1.0723   -0.0640 C   0  0  0  0  0  0  0  0  0  0  0  0
   -6.7287   -1.2423   -0.5122 C   0  0  0  0  0  0  0  0  0  0  0  0
   -7.7884   -0.8658    0.3185 C   0  0  0  0  0  0  0  0  0  0  0  0
   -9.0844   -1.0178   -0.1484 C   0  0  0  0  0  0  0  0  0  0  0  0
   -9.3905   -1.5056   -1.3693 N   0  0  0  0  0  0  0  0  0  0  0  0
   -8.3536   -1.8486   -2.1626 C   0  0  0  0  0  0  0  0  0  0  0  0
   -7.0245   -1.7341   -1.7871 C   0  0  0  0  0  0  0  0  0  0  0  0
   -2.7091   -0.0348    0.4933 N   0  0  0  0  0  0  0  0  0  0  0  0
    0.8747   -0.4922    1.1713 C   0  0  0  0  0  0  0  0  0  0  0  0
    5.1786   -1.1196    0.6625 N   0  0  0  0  0  0  0  0  0  0  0  0
    6.2735   -0.5357   -0.0074 C   0  0  0  0  0  0  0  0  0  0  0  0
    7.4563   -1.2790   -0.0613 C   0  0  0  0  0  0  0  0  0  0  0  0
    8.5870   -0.7692   -0.7034 C   0  0  0  0  0  0  0  0  0  0  0  0
    8.5510    0.4940   -1.2975 C   0  0  0  0  0  0  0  0  0  0  0  0
    9.9899    1.0508   -2.0704 Cl  0  0  0  0  0  0  0  0  0  0  0  0
    7.3827    1.2608   -1.2525 C   0  0  0  0  0  0  0  0  0  0  0  0
    7.3171    2.6276   -1.8796 C   0  0  0  0  0  0  0  0  0  0  0  0
    6.1036    3.2339   -1.7345 F   0  0  0  0  0  0  0  0  0  0  0  0
    7.5504    2.6086   -3.2212 F   0  0  0  0  0  0  0  0  0  0  0  0
    8.2175    3.4992   -1.3457 F   0  0  0  0  0  0  0  0  0  0  0  0
    6.2483    0.7300   -0.6000 C   0  0  0  0  0  0  0  0  0  0  0  0
    3.6319   -2.1097    2.1569 H   0  0  0  0  0  0  0  0  0  0  0  0
    1.8703   -2.8342    3.4339 H   0  0  0  0  0  0  0  0  0  0  0  0
   -0.5291   -2.7723    3.9694 H   0  0  0  0  0  0  0  0  0  0  0  0
   -2.0460   -1.2597    2.7458 H   0  0  0  0  0  0  0  0  0  0  0  0
   -0.0606    2.1153    0.5973 H   0  0  0  0  0  0  0  0  0  0  0  0
   -0.9492    4.3692   -0.6804 H   0  0  0  0  0  0  0  0  0  0  0  0
   -3.4058    4.9317   -1.8280 H   0  0  0  0  0  0  0  0  0  0  0  0
   -5.4659    0.8669   -0.9124 H   0  0  0  0  0  0  0  0  0  0  0  0
   -5.2352   -1.2289    1.0196 H   0  0  0  0  0  0  0  0  0  0  0  0
   -4.6729   -1.8383   -0.5352 H   0  0  0  0  0  0  0  0  0  0  0  0
   -7.6114   -0.4572    1.3082 H   0  0  0  0  0  0  0  0  0  0  0  0
   -9.9364   -0.7395    0.4653 H   0  0  0  0  0  0  0  0  0  0  0  0
   -8.6271   -2.2280   -3.1431 H   0  0  0  0  0  0  0  0  0  0  0  0
   -6.2378   -2.0192   -2.4783 H   0  0  0  0  0  0  0  0  0  0  0  0
    1.2453    0.1177    0.3537 H   0  0  0  0  0  0  0  0  0  0  0  0
    5.3361   -2.0353    1.0539 H   0  0  0  0  0  0  0  0  0  0  0  0
    7.5185   -2.2664    0.3895 H   0  0  0  0  0  0  0  0  0  0  0  0
    9.4963   -1.3658   -0.7370 H   0  0  0  0  0  0  0  0  0  0  0  0
    5.3481    1.3401   -0.5657 H   0  0  0  0  0  0  0  0  0  0  0  0
  1  2  2  0
  2  3  1  0
  3  4  1  0
  4  5  2  0
  5  6  1  0
  6  7  2  0
  7  8  1  0
  8  9  1  0
  9 10  2  0
 10 11  1  0
 11 12  1  0
 12 13  2  0
 13 14  1  0
 14 15  2  0
 15 16  1  0
 16 17  1  0
 17 18  1  0
 18 19  1  0
 19 20  2  0
 20 21  1  0
 21 22  2  0
 22 23  1  0
 23 24  2  0
 16 25  2  0
  8 26  2  0
  2 27  1  0
 27 28  1  0
 28 29  2  0
 29 30  1  0
 30 31  2  0
 31 32  1  0
 31 33  1  0
 33 34  1  0
 34 35  1  0
 34 36  1  0
 34 37  1  0
 33 38  2  0
 26  4  1  0
 38 28  1  0
 25  9  1  0
 15 11  1  0
 24 19  1  0
  3 39  1  0
  5 40  1  0
  6 41  1  0
  7 42  1  0
 10 43  1  0
 12 44  1  0
 13 45  1  0
 17 46  1  0
 18 47  1  0
 18 48  1  0
 20 49  1  0
 21 50  1  0
 23 51  1  0
 24 52  1  0
 26 53  1  0
 27 54  1  0
 29 55  1  0
 30 56  1  0
 38 57  1  0
M  END
$$$$
