
     RDKit          3D

 79 84  0  0  0  0  0  0  0  0999 V2000
    2.7465    2.9278   -0.6247 C   0  0  0  0  0  0  0  0  0  0  0  0
    1.3181    2.5499   -0.3142 C   0  0  0  0  0  0  0  0  0  0  0  0
    0.3453    3.4195   -0.6469 C   0  0  0  0  0  0  0  0  0  0  0  0
   -1.1102    3.2178   -0.3966 C   0  0  0  0  0  0  0  0  0  0  0  0
   -1.4469    1.9566    0.3962 C   0  0  0  0  0  0  0  0  0  0  0  0
   -0.4896    0.7893    0.0672 C   0  0  1  0  0  0  0  0  0  0  0  0
    1.0107    1.2022    0.4084 C   0  0  2  0  0  0  0  0  0  0  0  0
    1.2582    1.4996    1.9094 C   0  0  0  0  0  0  0  0  0  0  0  0
    1.9488    0.0484   -0.0802 C   0  0  1  0  0  0  0  0  0  0  0  0
    3.3065    0.2830    0.3854 O   0  0  0  0  0  0  0  0  0  0  0  0
    4.3043   -0.1820   -0.4102 C   0  0  0  0  0  0  0  0  0  0  0  0
    4.1526   -0.7470   -1.4832 O   0  0  0  0  0  0  0  0  0  0  0  0
    5.6335    0.1024    0.1936 C   0  0  0  0  0  0  0  0  0  0  0  0
    5.7758    0.7413    1.4333 C   0  0  0  0  0  0  0  0  0  0  0  0
    7.0488    0.9887    1.9528 C   0  0  0  0  0  0  0  0  0  0  0  0
    8.1827    0.6001    1.2400 C   0  0  0  0  0  0  0  0  0  0  0  0
    8.0489   -0.0369    0.0072 C   0  0  0  0  0  0  0  0  0  0  0  0
    6.7784   -0.2858   -0.5156 C   0  0  0  0  0  0  0  0  0  0  0  0
    1.5170   -1.3316    0.4649 C   0  0  2  0  0  0  0  0  0  0  0  0
    2.4284   -2.3523    0.0082 O   0  0  0  0  0  0  0  0  0  0  0  0
    0.0650   -1.7295    0.0641 C   0  0  2  0  0  0  0  0  0  0  0  0
   -0.1625   -3.1543    0.6284 C   0  0  0  0  0  0  0  0  0  0  0  0
    0.0746   -1.7604   -1.3837 O   0  0  0  0  0  0  0  0  0  0  0  0
   -1.1366   -1.9877   -2.1062 C   0  0  2  0  0  0  0  0  0  0  0  0
   -1.5123   -3.4661   -2.1974 C   0  0  0  0  0  0  0  0  0  0  0  0
   -2.1431   -3.6438   -3.4656 O   0  0  0  0  0  0  0  0  0  0  0  0
   -1.7487   -2.6404   -4.2963 C   0  0  0  0  0  0  0  0  0  0  0  0
   -2.0750   -2.5504   -5.4682 O   0  0  0  0  0  0  0  0  0  0  0  0
   -0.8464   -1.6925   -3.5752 C   0  0  0  0  0  0  0  0  0  0  0  0
   -2.2963   -1.1115   -1.6071 C   0  0  0  0  0  0  0  0  0  0  0  0
   -2.3576   -1.0858   -0.0809 C   0  0  2  0  0  0  0  0  0  0  0  0
   -3.4412   -0.2503    0.3740 O   0  0  0  0  0  0  0  0  0  0  0  0
   -4.6827   -0.8002    0.3368 C   0  0  0  0  0  0  0  0  0  0  0  0
   -4.9549   -1.9163   -0.0741 O   0  0  0  0  0  0  0  0  0  0  0  0
   -5.6914    0.1449    0.8580 C   0  0  0  0  0  0  0  0  0  0  0  0
   -5.3740    1.3347    1.5181 C   0  0  0  0  0  0  0  0  0  0  0  0
   -6.4009    2.1581    1.9777 C   0  0  0  0  0  0  0  0  0  0  0  0
   -7.7112    1.7603    1.7641 C   0  0  0  0  0  0  0  0  0  0  0  0
   -8.0522    0.6145    1.1360 N   0  0  0  0  0  0  0  0  0  0  0  0
   -7.0350   -0.1696    0.6985 C   0  0  0  0  0  0  0  0  0  0  0  0
   -0.9775   -0.6569    0.5570 C   0  0  2  0  0  0  0  0  0  0  0  0
   -1.1803   -0.7059    2.0897 C   0  0  0  0  0  0  0  0  0  0  0  0
    2.8269    3.9501   -1.0119 H   0  0  0  0  0  0  0  0  0  0  0  0
    3.1618    2.2683   -1.3918 H   0  0  0  0  0  0  0  0  0  0  0  0
    3.3706    2.8860    0.2721 H   0  0  0  0  0  0  0  0  0  0  0  0
    0.6009    4.3529   -1.1466 H   0  0  0  0  0  0  0  0  0  0  0  0
   -1.6116    3.1704   -1.3716 H   0  0  0  0  0  0  0  0  0  0  0  0
   -1.5191    4.0915    0.1237 H   0  0  0  0  0  0  0  0  0  0  0  0
   -2.4781    1.7229    0.1398 H   0  0  0  0  0  0  0  0  0  0  0  0
   -1.4419    2.1804    1.4674 H   0  0  0  0  0  0  0  0  0  0  0  0
   -0.4943    0.7274   -1.0308 H   0  0  0  0  0  0  0  0  0  0  0  0
    1.2410    0.6058    2.5309 H   0  0  0  0  0  0  0  0  0  0  0  0
    2.2450    1.9489    2.0746 H   0  0  0  0  0  0  0  0  0  0  0  0
    0.5311    2.2054    2.3217 H   0  0  0  0  0  0  0  0  0  0  0  0
    1.9424    0.0358   -1.1786 H   0  0  0  0  0  0  0  0  0  0  0  0
    4.9061    1.0507    2.0069 H   0  0  0  0  0  0  0  0  0  0  0  0
    7.1561    1.4835    2.9151 H   0  0  0  0  0  0  0  0  0  0  0  0
    9.1727    0.7925    1.6468 H   0  0  0  0  0  0  0  0  0  0  0  0
    8.9331   -0.3416   -0.5475 H   0  0  0  0  0  0  0  0  0  0  0  0
    6.6850   -0.7852   -1.4782 H   0  0  0  0  0  0  0  0  0  0  0  0
    1.6272   -1.3436    1.5537 H   0  0  0  0  0  0  0  0  0  0  0  0
    2.6156   -2.1710   -0.9360 H   0  0  0  0  0  0  0  0  0  0  0  0
   -1.1854   -3.5135    0.5187 H   0  0  0  0  0  0  0  0  0  0  0  0
    0.4622   -3.8887    0.1071 H   0  0  0  0  0  0  0  0  0  0  0  0
    0.0772   -3.2038    1.6962 H   0  0  0  0  0  0  0  0  0  0  0  0
   -0.6395   -4.1266   -2.1457 H   0  0  0  0  0  0  0  0  0  0  0  0
   -2.2203   -3.7733   -1.4231 H   0  0  0  0  0  0  0  0  0  0  0  0
    0.1916   -1.9161   -3.8445 H   0  0  0  0  0  0  0  0  0  0  0  0
   -1.0728   -0.6588   -3.8511 H   0  0  0  0  0  0  0  0  0  0  0  0
   -2.2003   -0.0821   -1.9722 H   0  0  0  0  0  0  0  0  0  0  0  0
   -3.2503   -1.4549   -2.0260 H   0  0  0  0  0  0  0  0  0  0  0  0
   -2.5906   -2.0961    0.2689 H   0  0  0  0  0  0  0  0  0  0  0  0
   -4.3426    1.6276    1.6875 H   0  0  0  0  0  0  0  0  0  0  0  0
   -6.1847    3.0879    2.4929 H   0  0  0  0  0  0  0  0  0  0  0  0
   -8.5453    2.3685    2.1038 H   0  0  0  0  0  0  0  0  0  0  0  0
   -7.3493   -1.0840    0.2001 H   0  0  0  0  0  0  0  0  0  0  0  0
   -0.2447   -0.7487    2.6448 H   0  0  0  0  0  0  0  0  0  0  0  0
   -1.7402   -1.6015    2.3852 H   0  0  0  0  0  0  0  0  0  0  0  0
   -1.7529    0.1516    2.4550 H   0  0  0  0  0  0  0  0  0  0  0  0
  1  2  1  0
  2  3  2  0
  3  4  1  0
  4  5  1  0
  5  6  1  0
  6  7  1  0
  7  8  1  1
  7  9  1  0
  9 10  1  0
 10 11  1  0
 11 12  2  0
 11 13  1  0
 13 14  2  0
 14 15  1  0
 15 16  2  0
 16 17  1  0
 17 18  2  0
  9 19  1  0
 19 20  1  0
 19 21  1  0
 21 22  1  1
 21 23  1  0
 24 23  1  1
 24 25  1  0
 25 26  1  0
 26 27  1  0
 27 28  2  0
 27 29  1  0
 24 30  1  0
 30 31  1  0
 31 32  1  0
 32 33  1  0
 33 34  2  0
 33 35  1  0
 35 36  2  0
 36 37  1  0
 37 38  2  0
 38 39  1  0
 39 40  2  0
 31 41  1  0
 41 42  1  1
  7  2  1  0
 18 13  1  0
 41 21  1  0
 41  6  1  0
 29 24  1  0
 40 35  1  0
  1 43  1  0
  1 44  1  0
  1 45  1  0
  3 46  1  0
  4 47  1  0
  4 48  1  0
  5 49  1  0
  5 50  1  0
  6 51  1  6
  8 52  1  0
  8 53  1  0
  8 54  1  0
  9 55  1  6
 14 56  1  0
 15 57  1  0
 16 58  1  0
 17 59  1  0
 18 60  1  0
 19 61  1  1
 20 62  1  0
 22 63  1  0
 22 64  1  0
 22 65  1  0
 25 66  1  0
 25 67  1  0
 29 68  1  0
 29 69  1  0
 30 70  1  0
 30 71  1  0
 31 72  1  1
 36 73  1  0
 37 74  1  0
 38 75  1  0
 40 76  1  0
 42 77  1  0
 42 78  1  0
 42 79  1  0
M  END
$$$$
