
     RDKit          3D

 47 50  0  0  0  0  0  0  0  0999 V2000
    4.5792   -2.0095   -2.1410 C   0  0  0  0  0  0  0  0  0  0  0  0
    4.2585   -0.7004   -1.4809 C   0  0  0  0  0  0  0  0  0  0  0  0
    5.2200   -0.0474   -0.6970 C   0  0  0  0  0  0  0  0  0  0  0  0
    4.9325    1.1825   -0.1022 C   0  0  0  0  0  0  0  0  0  0  0  0
    3.6771    1.7639   -0.2977 C   0  0  0  0  0  0  0  0  0  0  0  0
    3.3036    3.3260    0.4668 S   0  0  0  0  0  0  0  0  0  0  0  0
    2.2829    3.9845   -0.3201 O   0  0  0  0  0  0  0  0  0  0  0  0
    4.5607    3.9825    0.7616 O   0  0  0  0  0  0  0  0  0  0  0  0
    2.6552    2.8739    1.9666 N   0  0  0  0  0  0  0  0  0  0  0  0
    1.5613    1.9658    1.9891 C   0  0  0  0  0  0  0  0  0  0  0  0
    1.7562    0.6784    2.4910 C   0  0  0  0  0  0  0  0  0  0  0  0
    0.7175   -0.2536    2.4360 C   0  0  0  0  0  0  0  0  0  0  0  0
   -0.5112    0.0988    1.8647 C   0  0  0  0  0  0  0  0  0  0  0  0
   -1.5813   -0.9252    1.8086 C   0  0  0  0  0  0  0  0  0  0  0  0
   -1.7297   -1.6919    2.7574 O   0  0  0  0  0  0  0  0  0  0  0  0
   -2.4635   -0.9900    0.6118 C   0  0  0  0  0  0  0  0  0  0  0  0
   -3.7519   -1.2869    0.8456 C   0  0  0  0  0  0  0  0  0  0  0  0
   -4.6971   -1.3727   -0.2548 C   0  0  0  0  0  0  0  0  0  0  0  0
   -6.0459   -1.6742   -0.0547 C   0  0  0  0  0  0  0  0  0  0  0  0
   -6.9105   -1.7314   -1.1515 C   0  0  0  0  0  0  0  0  0  0  0  0
   -8.7370   -2.1389   -0.8800 Br  0  0  0  0  0  0  0  0  0  0  0  0
   -6.4432   -1.4902   -2.4454 C   0  0  0  0  0  0  0  0  0  0  0  0
   -5.0969   -1.1898   -2.6481 C   0  0  0  0  0  0  0  0  0  0  0  0
   -4.2430   -1.1360   -1.5490 C   0  0  0  0  0  0  0  0  0  0  0  0
   -2.8903   -0.8385   -1.7926 O   0  0  0  0  0  0  0  0  0  0  0  0
   -1.9527   -0.7961   -0.7641 C   0  0  0  0  0  0  0  0  0  0  0  0
   -0.7653   -0.6106   -1.0056 O   0  0  0  0  0  0  0  0  0  0  0  0
   -0.7176    1.4032    1.4001 C   0  0  0  0  0  0  0  0  0  0  0  0
    0.3234    2.3327    1.4597 C   0  0  0  0  0  0  0  0  0  0  0  0
    2.7246    1.1441   -1.1105 C   0  0  0  0  0  0  0  0  0  0  0  0
    3.0156   -0.0894   -1.6940 C   0  0  0  0  0  0  0  0  0  0  0  0
    3.6774   -2.6203   -2.2551 H   0  0  0  0  0  0  0  0  0  0  0  0
    5.2880   -2.5872   -1.5384 H   0  0  0  0  0  0  0  0  0  0  0  0
    5.0154   -1.8333   -3.1289 H   0  0  0  0  0  0  0  0  0  0  0  0
    6.2007   -0.4950   -0.5480 H   0  0  0  0  0  0  0  0  0  0  0  0
    5.6897    1.6773    0.5014 H   0  0  0  0  0  0  0  0  0  0  0  0
    3.3875    2.7541    2.6645 H   0  0  0  0  0  0  0  0  0  0  0  0
    2.7151    0.3785    2.9042 H   0  0  0  0  0  0  0  0  0  0  0  0
    0.8747   -1.2600    2.8193 H   0  0  0  0  0  0  0  0  0  0  0  0
   -4.1211   -1.4606    1.8534 H   0  0  0  0  0  0  0  0  0  0  0  0
   -6.4257   -1.8641    0.9464 H   0  0  0  0  0  0  0  0  0  0  0  0
   -7.1179   -1.5355   -3.2969 H   0  0  0  0  0  0  0  0  0  0  0  0
   -4.7197   -1.0028   -3.6496 H   0  0  0  0  0  0  0  0  0  0  0  0
   -1.6728    1.7154    0.9877 H   0  0  0  0  0  0  0  0  0  0  0  0
    0.1634    3.3406    1.0822 H   0  0  0  0  0  0  0  0  0  0  0  0
    1.7529    1.6011   -1.2854 H   0  0  0  0  0  0  0  0  0  0  0  0
    2.2612   -0.5716   -2.3137 H   0  0  0  0  0  0  0  0  0  0  0  0
  1  2  1  0
  2  3  2  0
  3  4  1  0
  4  5  2  0
  5  6  1  0
  6  7  2  0
  6  8  2  0
  6  9  1  0
  9 10  1  0
 10 11  2  0
 11 12  1  0
 12 13  2  0
 13 14  1  0
 14 15  2  0
 14 16  1  0
 16 17  2  0
 17 18  1  0
 18 19  2  0
 19 20  1  0
 20 21  1  0
 20 22  2  0
 22 23  1  0
 23 24  2  0
 24 25  1  0
 25 26  1  0
 26 27  2  0
 13 28  1  0
 28 29  2  0
  5 30  1  0
 30 31  2  0
 31  2  1  0
 29 10  1  0
 26 16  1  0
 24 18  1  0
  1 32  1  0
  1 33  1  0
  1 34  1  0
  3 35  1  0
  4 36  1  0
  9 37  1  0
 11 38  1  0
 12 39  1  0
 17 40  1  0
 19 41  1  0
 22 42  1  0
 23 43  1  0
 28 44  1  0
 29 45  1  0
 30 46  1  0
 31 47  1  0
M  END
$$$$
