
     RDKit          3D

 62 66  0  0  0  0  0  0  0  0999 V2000
   -0.5470    1.0277   -4.0524 C   0  0  0  0  0  0  0  0  0  0  0  0
   -0.2680    0.4720   -2.6983 C   0  0  0  0  0  0  0  0  0  0  0  0
    0.9573    0.8062   -2.1215 N   0  0  0  0  0  0  0  0  0  0  0  0
    1.0576    0.2480   -0.9346 C   0  0  0  0  0  0  0  0  0  0  0  0
    2.3495    0.4558   -0.0467 C   0  0  0  0  0  0  0  0  0  0  0  0
    3.4518    1.2369   -0.4294 C   0  0  0  0  0  0  0  0  0  0  0  0
    4.3386    1.1890    0.6310 C   0  0  0  0  0  0  0  0  0  0  0  0
    5.5606    1.9719    0.7811 C   0  0  0  0  0  0  0  0  0  0  0  0
    5.6724    2.9292    1.7992 C   0  0  0  0  0  0  0  0  0  0  0  0
    6.8375    3.6898    1.9279 C   0  0  0  0  0  0  0  0  0  0  0  0
    7.8881    3.5034    1.0316 C   0  0  0  0  0  0  0  0  0  0  0  0
    9.3241    4.4374    1.1921 Cl  0  0  0  0  0  0  0  0  0  0  0  0
    7.7822    2.5677    0.0043 C   0  0  0  0  0  0  0  0  0  0  0  0
    6.6172    1.8070   -0.1245 C   0  0  0  0  0  0  0  0  0  0  0  0
    3.7732    0.3003    1.5501 N   0  0  0  0  0  0  0  0  0  0  0  0
    4.3062   -0.2566    2.7585 C   0  0  0  0  0  0  0  0  0  0  0  0
    5.6723   -0.2111    3.0703 C   0  0  0  0  0  0  0  0  0  0  0  0
    6.1428   -0.7724    4.2629 C   0  0  0  0  0  0  0  0  0  0  0  0
    5.2559   -1.3888    5.1363 C   0  0  0  0  0  0  0  0  0  0  0  0
    5.7156   -1.9242    6.2748 F   0  0  0  0  0  0  0  0  0  0  0  0
    3.9033   -1.4657    4.8382 C   0  0  0  0  0  0  0  0  0  0  0  0
    3.4285   -0.9068    3.6489 C   0  0  0  0  0  0  0  0  0  0  0  0
    2.5204   -0.0684    1.1689 N   0  0  0  0  0  0  0  0  0  0  0  0
   -0.2743   -0.6937   -0.4367 S   0  0  0  0  0  0  0  0  0  0  0  0
   -1.0863   -0.3490   -1.9233 C   0  0  0  0  0  0  0  0  0  0  0  0
   -2.4155   -0.9242   -2.1330 C   0  0  0  0  0  0  0  0  0  0  0  0
   -2.9830   -1.6314   -1.2986 O   0  0  0  0  0  0  0  0  0  0  0  0
   -2.9205   -0.5861   -3.3283 N   0  0  0  0  0  0  0  0  0  0  0  0
   -4.3017   -1.1006   -3.5197 N   0  0  0  0  0  0  0  0  0  0  0  0
   -5.0710   -0.6944   -4.5663 C   0  0  0  0  0  0  0  0  0  0  0  0
   -4.6978    0.0061   -5.5067 O   0  0  0  0  0  0  0  0  0  0  0  0
   -6.3866   -1.1176   -4.5478 N   0  0  0  0  0  0  0  0  0  0  0  0
   -7.2578   -1.6401   -3.6026 C   0  0  0  0  0  0  0  0  0  0  0  0
   -8.2902   -2.2117   -3.9596 O   0  0  0  0  0  0  0  0  0  0  0  0
   -6.9859   -1.5026   -2.1527 C   0  0  0  0  0  0  0  0  0  0  0  0
   -6.4990   -0.3118   -1.6049 C   0  0  0  0  0  0  0  0  0  0  0  0
   -6.2566   -0.2215   -0.2315 C   0  0  0  0  0  0  0  0  0  0  0  0
   -6.5186   -1.3107    0.6132 C   0  0  0  0  0  0  0  0  0  0  0  0
   -6.2659   -1.2169    2.0961 C   0  0  0  0  0  0  0  0  0  0  0  0
   -5.4163   -0.2151    2.4576 F   0  0  0  0  0  0  0  0  0  0  0  0
   -7.4181   -0.9832    2.7921 F   0  0  0  0  0  0  0  0  0  0  0  0
   -5.7490   -2.3597    2.6310 F   0  0  0  0  0  0  0  0  0  0  0  0
   -7.0516   -2.4866    0.0601 C   0  0  0  0  0  0  0  0  0  0  0  0
   -7.2872   -2.5810   -1.3136 C   0  0  0  0  0  0  0  0  0  0  0  0
    0.2916    1.6436   -4.3951 H   0  0  0  0  0  0  0  0  0  0  0  0
   -0.6830    0.2258   -4.7842 H   0  0  0  0  0  0  0  0  0  0  0  0
   -1.4357    1.6658   -4.0383 H   0  0  0  0  0  0  0  0  0  0  0  0
    3.5509    1.8107   -1.3411 H   0  0  0  0  0  0  0  0  0  0  0  0
    4.8513    3.0923    2.4949 H   0  0  0  0  0  0  0  0  0  0  0  0
    6.9138    4.4266    2.7230 H   0  0  0  0  0  0  0  0  0  0  0  0
    8.5967    2.4279   -0.7013 H   0  0  0  0  0  0  0  0  0  0  0  0
    6.5397    1.0829   -0.9335 H   0  0  0  0  0  0  0  0  0  0  0  0
    6.4093    0.2132    2.3989 H   0  0  0  0  0  0  0  0  0  0  0  0
    7.2001   -0.7420    4.5075 H   0  0  0  0  0  0  0  0  0  0  0  0
    3.2236   -1.9600    5.5247 H   0  0  0  0  0  0  0  0  0  0  0  0
    2.3626   -0.9788    3.4319 H   0  0  0  0  0  0  0  0  0  0  0  0
   -4.5789   -1.7902   -2.8289 H   0  0  0  0  0  0  0  0  0  0  0  0
   -6.8001   -1.0261   -5.4610 H   0  0  0  0  0  0  0  0  0  0  0  0
   -6.2616    0.5368   -2.2426 H   0  0  0  0  0  0  0  0  0  0  0  0
   -5.8302    0.6972    0.1682 H   0  0  0  0  0  0  0  0  0  0  0  0
   -7.2689   -3.3414    0.6979 H   0  0  0  0  0  0  0  0  0  0  0  0
   -7.6883   -3.5007   -1.7333 H   0  0  0  0  0  0  0  0  0  0  0  0
  1  2  1  0
  2  3  1  0
  3  4  2  0
  4  5  1  0
  5  6  1  0
  6  7  2  0
  7  8  1  0
  8  9  2  0
  9 10  1  0
 10 11  2  0
 11 12  1  0
 11 13  1  0
 13 14  2  0
  7 15  1  0
 15 16  1  0
 16 17  2  0
 17 18  1  0
 18 19  2  0
 19 20  1  0
 19 21  1  0
 21 22  2  0
 15 23  1  0
  4 24  1  0
 24 25  1  0
 25 26  1  0
 26 27  2  0
 26 28  1  0
 28 29  1  0
 29 30  1  0
 30 31  2  0
 30 32  1  0
 32 33  1  0
 33 34  2  0
 33 35  1  0
 35 36  2  0
 36 37  1  0
 37 38  2  0
 38 39  1  0
 39 40  1  0
 39 41  1  0
 39 42  1  0
 38 43  1  0
 43 44  2  0
 25  2  2  0
 44 35  1  0
 23  5  2  0
 14  8  1  0
 22 16  1  0
  1 45  1  0
  1 46  1  0
  1 47  1  0
  6 48  1  0
  9 49  1  0
 10 50  1  0
 13 51  1  0
 14 52  1  0
 17 53  1  0
 18 54  1  0
 21 55  1  0
 22 56  1  0
 29 57  1  0
 32 58  1  0
 36 59  1  0
 37 60  1  0
 43 61  1  0
 44 62  1  0
M  CHG  1  28  -1
M  END
$$$$
