
     RDKit          3D

 62 66  0  0  0  0  0  0  0  0999 V2000
   -3.0714    2.7469    2.7161 O   0  0  0  0  0  0  0  0  0  0  0  0
   -3.5954    1.5317    2.1506 S   0  0  0  0  0  0  0  0  0  0  0  0
   -4.0722    1.3887    0.8016 O   0  0  0  0  0  0  0  0  0  0  0  0
   -4.6421    0.6772    3.3248 C   0  0  0  0  0  0  0  0  0  0  0  0
   -3.9216   -0.6512    3.4937 C   0  0  0  0  0  0  0  0  0  0  0  0
   -2.4275   -0.3557    3.3522 C   0  0  0  0  0  0  0  0  0  0  0  0
   -2.2677    0.4727    2.1193 N   0  0  0  0  0  0  0  0  0  0  0  0
   -0.9812    1.2057    1.9103 C   0  0  0  0  0  0  0  0  0  0  0  0
    0.1071    0.2285    1.4140 C   0  0  2  0  0  0  0  0  0  0  0  0
    1.4804    0.5938    1.9833 C   0  0  0  0  0  0  0  0  0  0  0  0
    2.4704   -0.5224    1.6731 C   0  0  0  0  0  0  0  0  0  0  0  0
    2.5774   -0.7636    0.1725 C   0  0  0  0  0  0  0  0  0  0  0  0
    1.2246   -1.0285   -0.5516 C   0  0  1  0  0  0  0  0  0  0  0  0
    1.5933   -1.0904   -2.3998 S   0  0  0  0  0  0  0  0  0  0  0  0
    2.8748   -1.7324   -2.6157 O   0  0  0  0  0  0  0  0  0  0  0  0
    0.4216   -1.5671   -3.1109 O   0  0  0  0  0  0  0  0  0  0  0  0
    1.8178    0.6135   -2.8997 C   0  0  0  0  0  0  0  0  0  0  0  0
    3.0766    1.2084   -2.7790 C   0  0  0  0  0  0  0  0  0  0  0  0
    3.2582    2.5315   -3.1875 C   0  0  0  0  0  0  0  0  0  0  0  0
    2.1965    3.2581   -3.7505 C   0  0  0  0  0  0  0  0  0  0  0  0
    2.3863    4.6990   -4.1715 C   0  0  0  0  0  0  0  0  0  0  0  0
    2.0363    5.5598   -3.1760 F   0  0  0  0  0  0  0  0  0  0  0  0
    1.6301    5.0421   -5.2488 F   0  0  0  0  0  0  0  0  0  0  0  0
    3.6720    4.9996   -4.4963 F   0  0  0  0  0  0  0  0  0  0  0  0
    0.9476    2.6328   -3.9002 C   0  0  0  0  0  0  0  0  0  0  0  0
    0.7603    1.3102   -3.4922 C   0  0  0  0  0  0  0  0  0  0  0  0
    0.5472   -2.3784   -0.2671 C   0  0  0  0  0  0  0  0  0  0  0  0
    1.2667   -3.5815   -0.2102 C   0  0  0  0  0  0  0  0  0  0  0  0
    2.5897   -3.5874   -0.4004 F   0  0  0  0  0  0  0  0  0  0  0  0
    0.6483   -4.8050    0.0546 C   0  0  0  0  0  0  0  0  0  0  0  0
   -0.7235   -4.8583    0.2810 C   0  0  0  0  0  0  0  0  0  0  0  0
   -1.4618   -3.6852    0.2230 C   0  0  0  0  0  0  0  0  0  0  0  0
   -2.7762   -3.7237    0.4870 F   0  0  0  0  0  0  0  0  0  0  0  0
   -0.8509   -2.4607   -0.0740 C   0  0  0  0  0  0  0  0  0  0  0  0
   -1.6939   -1.3671   -0.0793 O   0  0  0  0  0  0  0  0  0  0  0  0
   -1.1486   -0.2465   -0.7712 C   0  0  0  0  0  0  0  0  0  0  0  0
    0.2078    0.0969   -0.1623 C   0  0  1  0  0  0  0  0  0  0  0  0
   -4.6490    1.2538    4.2532 H   0  0  0  0  0  0  0  0  0  0  0  0
   -5.6503    0.5701    2.9218 H   0  0  0  0  0  0  0  0  0  0  0  0
   -4.2321   -1.3449    2.7023 H   0  0  0  0  0  0  0  0  0  0  0  0
   -4.1567   -1.1178    4.4547 H   0  0  0  0  0  0  0  0  0  0  0  0
   -1.8452   -1.2729    3.2298 H   0  0  0  0  0  0  0  0  0  0  0  0
   -2.0465    0.2178    4.2049 H   0  0  0  0  0  0  0  0  0  0  0  0
   -2.5044   -0.0943    1.2948 H   0  0  0  0  0  0  0  0  0  0  0  0
   -0.7092    1.6605    2.8693 H   0  0  0  0  0  0  0  0  0  0  0  0
   -1.1361    1.9981    1.1689 H   0  0  0  0  0  0  0  0  0  0  0  0
   -0.1221   -0.7533    1.8441 H   0  0  0  0  0  0  0  0  0  0  0  0
    1.4222    0.7196    3.0709 H   0  0  0  0  0  0  0  0  0  0  0  0
    1.8300    1.5452    1.5648 H   0  0  0  0  0  0  0  0  0  0  0  0
    2.1670   -1.4467    2.1791 H   0  0  0  0  0  0  0  0  0  0  0  0
    3.4560   -0.2542    2.0708 H   0  0  0  0  0  0  0  0  0  0  0  0
    3.0340    0.1373   -0.2522 H   0  0  0  0  0  0  0  0  0  0  0  0
    3.3057   -1.5598   -0.0040 H   0  0  0  0  0  0  0  0  0  0  0  0
    3.9283    0.6505   -2.3926 H   0  0  0  0  0  0  0  0  0  0  0  0
    4.2423    2.9910   -3.0878 H   0  0  0  0  0  0  0  0  0  0  0  0
    0.1210    3.1730   -4.3632 H   0  0  0  0  0  0  0  0  0  0  0  0
   -0.2017    0.8338   -3.6695 H   0  0  0  0  0  0  0  0  0  0  0  0
    1.2492   -5.7110    0.0827 H   0  0  0  0  0  0  0  0  0  0  0  0
   -1.2153   -5.8022    0.4969 H   0  0  0  0  0  0  0  0  0  0  0  0
   -1.1468   -0.4392   -1.8433 H   0  0  0  0  0  0  0  0  0  0  0  0
   -1.8401    0.5928   -0.6484 H   0  0  0  0  0  0  0  0  0  0  0  0
    0.5431    1.0607   -0.5608 H   0  0  0  0  0  0  0  0  0  0  0  0
  1  2  2  0
  2  3  2  0
  2  4  1  0
  4  5  1  0
  5  6  1  0
  6  7  1  0
  7  8  1  0
  8  9  1  0
  9 10  1  0
 10 11  1  0
 11 12  1  0
 12 13  1  0
 13 14  1  6
 14 15  2  0
 14 16  2  0
 14 17  1  0
 17 18  2  0
 18 19  1  0
 19 20  2  0
 20 21  1  0
 21 22  1  0
 21 23  1  0
 21 24  1  0
 20 25  1  0
 25 26  2  0
 13 27  1  0
 27 28  2  0
 28 29  1  0
 28 30  1  0
 30 31  2  0
 31 32  1  0
 32 33  1  0
 32 34  2  0
 34 35  1  0
 35 36  1  0
 36 37  1  0
  7  2  1  0
 37  9  1  0
 37 13  1  0
 26 17  1  0
 34 27  1  0
  4 38  1  0
  4 39  1  0
  5 40  1  0
  5 41  1  0
  6 42  1  0
  6 43  1  0
  7 44  1  0
  8 45  1  0
  8 46  1  0
  9 47  1  1
 10 48  1  0
 10 49  1  0
 11 50  1  0
 11 51  1  0
 12 52  1  0
 12 53  1  0
 18 54  1  0
 19 55  1  0
 25 56  1  0
 26 57  1  0
 30 58  1  0
 31 59  1  0
 36 60  1  0
 36 61  1  0
 37 62  1  6
M  CHG  1   7   1
M  END
$$$$
