
     RDKit          3D

 54 58  0  0  0  0  0  0  0  0999 V2000
    3.8437    0.2655    0.6819 O   0  0  0  0  0  0  0  0  0  0  0  0
    4.3054    0.6570   -0.3818 C   0  0  0  0  0  0  0  0  0  0  0  0
    3.5779    1.2979   -1.3753 N   0  0  0  0  0  0  0  0  0  0  0  0
    2.1862    1.5315   -1.4124 C   0  0  0  0  0  0  0  0  0  0  0  0
    1.6996    2.3163   -2.4642 C   0  0  0  0  0  0  0  0  0  0  0  0
    0.3362    2.5892   -2.5745 C   0  0  0  0  0  0  0  0  0  0  0  0
   -0.5538    2.0800   -1.6301 C   0  0  0  0  0  0  0  0  0  0  0  0
   -0.0949    1.2944   -0.5636 C   0  0  0  0  0  0  0  0  0  0  0  0
   -1.0670    0.7538    0.4202 C   0  0  0  0  0  0  0  0  0  0  0  0
   -0.7384    0.6932    1.7283 C   0  0  0  0  0  0  0  0  0  0  0  0
   -1.6693    0.1970    2.6142 N   0  0  0  0  0  0  0  0  0  0  0  0
   -1.6445    0.0058    3.9685 C   0  0  0  0  0  0  0  0  0  0  0  0
   -2.8808   -0.5231    4.2777 C   0  0  0  0  0  0  0  0  0  0  0  0
   -3.6617   -0.6590    3.1538 N   0  0  0  0  0  0  0  0  0  0  0  0
   -2.8960   -0.2157    2.1772 C   0  0  0  0  0  0  0  0  0  0  0  0
   -3.2120   -0.1226    0.7633 C   0  0  0  0  0  0  0  0  0  0  0  0
   -4.4382   -0.5274    0.2982 N   0  0  0  0  0  0  0  0  0  0  0  0
   -4.8284   -0.4954   -1.0836 C   0  0  0  0  0  0  0  0  0  0  0  0
   -6.2367   -1.0118   -1.2223 C   0  0  0  0  0  0  0  0  0  0  0  0
   -6.4823   -2.3721   -1.4319 C   0  0  0  0  0  0  0  0  0  0  0  0
   -7.7962   -2.8025   -1.5273 C   0  0  0  0  0  0  0  0  0  0  0  0
   -8.8644   -1.9836   -1.4229 N   0  0  0  0  0  0  0  0  0  0  0  0
   -8.6073   -0.6765   -1.2051 C   0  0  0  0  0  0  0  0  0  0  0  0
   -7.3301   -0.1497   -1.0952 C   0  0  0  0  0  0  0  0  0  0  0  0
   -2.3107    0.3557   -0.0653 N   0  0  0  0  0  0  0  0  0  0  0  0
    1.2819    1.0154   -0.4788 C   0  0  0  0  0  0  0  0  0  0  0  0
    5.6312    0.5311   -0.7626 N   0  0  0  0  0  0  0  0  0  0  0  0
    6.7125   -0.0072   -0.0230 C   0  0  0  0  0  0  0  0  0  0  0  0
    6.5951   -0.4698    1.2902 C   0  0  0  0  0  0  0  0  0  0  0  0
    7.7064   -0.9886    1.9654 C   0  0  0  0  0  0  0  0  0  0  0  0
    8.9487   -1.0503    1.3382 C   0  0  0  0  0  0  0  0  0  0  0  0
    9.0854   -0.5913    0.0306 C   0  0  0  0  0  0  0  0  0  0  0  0
    7.9758   -0.0735   -0.6431 C   0  0  0  0  0  0  0  0  0  0  0  0
    8.2000    0.4871   -2.2680 Cl  0  0  0  0  0  0  0  0  0  0  0  0
    4.1087    1.6948   -2.1347 H   0  0  0  0  0  0  0  0  0  0  0  0
    2.3719    2.7279   -3.2123 H   0  0  0  0  0  0  0  0  0  0  0  0
   -0.0351    3.1973   -3.3952 H   0  0  0  0  0  0  0  0  0  0  0  0
   -1.6157    2.2979   -1.7277 H   0  0  0  0  0  0  0  0  0  0  0  0
    0.2100    1.0142    2.1390 H   0  0  0  0  0  0  0  0  0  0  0  0
   -0.7841    0.2498    4.5742 H   0  0  0  0  0  0  0  0  0  0  0  0
   -3.2494   -0.8133    5.2537 H   0  0  0  0  0  0  0  0  0  0  0  0
   -5.0903   -0.8927    0.9855 H   0  0  0  0  0  0  0  0  0  0  0  0
   -4.1499   -1.1078   -1.6898 H   0  0  0  0  0  0  0  0  0  0  0  0
   -4.7724    0.5269   -1.4769 H   0  0  0  0  0  0  0  0  0  0  0  0
   -5.6690   -3.0859   -1.5154 H   0  0  0  0  0  0  0  0  0  0  0  0
   -8.0310   -3.8502   -1.6921 H   0  0  0  0  0  0  0  0  0  0  0  0
   -9.4840   -0.0415   -1.1147 H   0  0  0  0  0  0  0  0  0  0  0  0
   -7.1934    0.9108   -0.9095 H   0  0  0  0  0  0  0  0  0  0  0  0
    1.6306    0.3657    0.3171 H   0  0  0  0  0  0  0  0  0  0  0  0
    5.8720    0.8181   -1.7012 H   0  0  0  0  0  0  0  0  0  0  0  0
    5.6506   -0.4413    1.8247 H   0  0  0  0  0  0  0  0  0  0  0  0
    7.5947   -1.3452    2.9872 H   0  0  0  0  0  0  0  0  0  0  0  0
    9.8072   -1.4548    1.8686 H   0  0  0  0  0  0  0  0  0  0  0  0
   10.0553   -0.6391   -0.4573 H   0  0  0  0  0  0  0  0  0  0  0  0
  1  2  2  0
  2  3  1  0
  3  4  1  0
  4  5  2  0
  5  6  1  0
  6  7  2  0
  7  8  1  0
  8  9  1  0
  9 10  2  0
 10 11  1  0
 11 12  1  0
 12 13  2  0
 13 14  1  0
 14 15  2  0
 15 16  1  0
 16 17  1  0
 17 18  1  0
 18 19  1  0
 19 20  2  0
 20 21  1  0
 21 22  2  0
 22 23  1  0
 23 24  2  0
 16 25  2  0
  8 26  2  0
  2 27  1  0
 27 28  1  0
 28 29  2  0
 29 30  1  0
 30 31  2  0
 31 32  1  0
 32 33  2  0
 33 34  1  0
 26  4  1  0
 33 28  1  0
 25  9  1  0
 15 11  1  0
 24 19  1  0
  3 35  1  0
  5 36  1  0
  6 37  1  0
  7 38  1  0
 10 39  1  0
 12 40  1  0
 13 41  1  0
 17 42  1  0
 18 43  1  0
 18 44  1  0
 20 45  1  0
 21 46  1  0
 23 47  1  0
 24 48  1  0
 26 49  1  0
 27 50  1  0
 29 51  1  0
 30 52  1  0
 31 53  1  0
 32 54  1  0
M  END
$$$$
