
     RDKit          3D

 29 32  0  0  0  0  0  0  0  0999 V2000
    1.4934    1.4246   -2.1460 Cl  0  0  0  0  0  0  0  0  0  0  0  0
    2.6551    0.9070   -0.9715 C   0  0  0  0  0  0  0  0  0  0  0  0
    3.6268    1.8385   -0.5851 C   0  0  0  0  0  0  0  0  0  0  0  0
    4.6328    1.4772    0.3108 C   0  0  0  0  0  0  0  0  0  0  0  0
    4.6781    0.1810    0.8156 C   0  0  0  0  0  0  0  0  0  0  0  0
    3.7099   -0.7503    0.4336 C   0  0  0  0  0  0  0  0  0  0  0  0
    2.6756   -0.3974   -0.4508 C   0  0  0  0  0  0  0  0  0  0  0  0
    1.6921   -1.4182   -0.7928 C   0  0  0  0  0  0  0  0  0  0  0  0
    1.9436   -2.6503   -1.2322 N   0  0  0  0  0  0  0  0  0  0  0  0
    0.7367   -3.3210   -1.4134 N   0  0  0  0  0  0  0  0  0  0  0  0
   -0.1844   -2.4767   -1.0537 C   0  0  0  0  0  0  0  0  0  0  0  0
   -1.8829   -2.4600   -0.9101 S   0  0  0  0  0  0  0  0  0  0  0  0
   -1.7090   -0.8037   -0.2563 C   0  0  0  0  0  0  0  0  0  0  0  0
   -2.9059   -0.0383    0.1517 C   0  0  0  0  0  0  0  0  0  0  0  0
   -4.2116   -0.5354    0.1057 C   0  0  0  0  0  0  0  0  0  0  0  0
   -5.2725    0.2729    0.5167 C   0  0  0  0  0  0  0  0  0  0  0  0
   -4.9948    1.5543    0.9620 C   0  0  0  0  0  0  0  0  0  0  0  0
   -3.7489    2.0681    1.0210 N   0  0  0  0  0  0  0  0  0  0  0  0
   -2.7348    1.2633    0.6147 C   0  0  0  0  0  0  0  0  0  0  0  0
   -0.4941   -0.3272   -0.1627 N   0  0  0  0  0  0  0  0  0  0  0  0
    0.3325   -1.2991   -0.6403 N   0  0  0  0  0  0  0  0  0  0  0  0
    3.6114    2.8478   -0.9901 H   0  0  0  0  0  0  0  0  0  0  0  0
    5.3873    2.2033    0.6042 H   0  0  0  0  0  0  0  0  0  0  0  0
    5.4685   -0.1093    1.5040 H   0  0  0  0  0  0  0  0  0  0  0  0
    3.7640   -1.7628    0.8327 H   0  0  0  0  0  0  0  0  0  0  0  0
   -4.4357   -1.5397   -0.2410 H   0  0  0  0  0  0  0  0  0  0  0  0
   -6.2945   -0.0907    0.4898 H   0  0  0  0  0  0  0  0  0  0  0  0
   -5.7882    2.2195    1.2919 H   0  0  0  0  0  0  0  0  0  0  0  0
   -1.7506    1.7226    0.6778 H   0  0  0  0  0  0  0  0  0  0  0  0
  1  2  1  0
  2  3  2  0
  3  4  1  0
  4  5  2  0
  5  6  1  0
  6  7  2  0
  7  8  1  0
  8  9  2  0
  9 10  1  0
 10 11  2  0
 11 12  1  0
 12 13  1  0
 13 14  1  0
 14 15  2  0
 15 16  1  0
 16 17  2  0
 17 18  1  0
 18 19  2  0
 13 20  2  0
 20 21  1  0
  7  2  1  0
 21  8  1  0
 21 11  1  0
 19 14  1  0
  3 22  1  0
  4 23  1  0
  5 24  1  0
  6 25  1  0
 15 26  1  0
 16 27  1  0
 17 28  1  0
 19 29  1  0
M  END
$$$$
