
     RDKit          3D

 47 50  0  0  0  0  0  0  0  0999 V2000
   -3.9935   -2.9692   -0.3287 C   0  0  0  0  0  0  0  0  0  0  0  0
   -3.0567   -2.1912   -1.2417 C   0  0  0  0  0  0  0  0  0  0  0  0
   -3.2463   -0.6733   -1.1517 C   0  0  0  0  0  0  0  0  0  0  0  0
   -2.8830   -0.1432    0.1616 N   0  0  0  0  0  0  0  0  0  0  0  0
   -3.9667    0.2366    1.0678 C   0  0  0  0  0  0  0  0  0  0  0  0
   -4.2688    1.7032    0.9359 C   0  0  0  0  0  0  0  0  0  0  0  0
   -5.6270    2.2398    1.3149 C   0  0  0  0  0  0  0  0  0  0  0  0
   -5.2052    2.2207   -0.1283 C   0  0  0  0  0  0  0  0  0  0  0  0
   -1.5751    0.0673    0.5683 C   0  0  0  0  0  0  0  0  0  0  0  0
   -0.4948   -0.1520   -0.2610 C   0  0  0  0  0  0  0  0  0  0  0  0
    0.7630    0.0913    0.2555 C   0  0  0  0  0  0  0  0  0  0  0  0
    1.9712   -0.1343   -0.6060 C   0  0  0  0  0  0  0  0  0  0  0  0
    1.8244   -0.5328   -1.7553 O   0  0  0  0  0  0  0  0  0  0  0  0
    3.1545    0.1517    0.0448 N   0  0  0  0  0  0  0  0  0  0  0  0
    4.4740    0.0591   -0.4415 C   0  0  0  0  0  0  0  0  0  0  0  0
    4.7902   -0.3658   -1.7459 C   0  0  0  0  0  0  0  0  0  0  0  0
    6.1173   -0.4474   -2.2009 C   0  0  0  0  0  0  0  0  0  0  0  0
    7.1387   -0.0892   -1.3093 C   0  0  0  0  0  0  0  0  0  0  0  0
    8.4809   -0.0704   -1.4705 N   0  0  0  0  0  0  0  0  0  0  0  0
    9.0308    0.3538   -0.3082 N   0  0  0  0  0  0  0  0  0  0  0  0
    8.0123    0.5841    0.5352 C   0  0  0  0  0  0  0  0  0  0  0  0
    6.7921    0.3266   -0.0271 C   0  0  0  0  0  0  0  0  0  0  0  0
    5.4932    0.4188    0.4544 C   0  0  0  0  0  0  0  0  0  0  0  0
    0.9996    0.5289    1.5124 N   0  0  0  0  0  0  0  0  0  0  0  0
   -0.1021    0.7139    2.2361 C   0  0  0  0  0  0  0  0  0  0  0  0
   -1.3625    0.5065    1.8265 N   0  0  0  0  0  0  0  0  0  0  0  0
   -3.8706   -4.0446   -0.4926 H   0  0  0  0  0  0  0  0  0  0  0  0
   -3.7818   -2.7669    0.7256 H   0  0  0  0  0  0  0  0  0  0  0  0
   -5.0390   -2.7140   -0.5283 H   0  0  0  0  0  0  0  0  0  0  0  0
   -2.0236   -2.4731   -1.0125 H   0  0  0  0  0  0  0  0  0  0  0  0
   -3.2457   -2.5015   -2.2763 H   0  0  0  0  0  0  0  0  0  0  0  0
   -2.6729   -0.1733   -1.9414 H   0  0  0  0  0  0  0  0  0  0  0  0
   -4.2943   -0.4404   -1.3782 H   0  0  0  0  0  0  0  0  0  0  0  0
   -4.8660   -0.3489    0.8364 H   0  0  0  0  0  0  0  0  0  0  0  0
   -3.7333   -0.0074    2.1115 H   0  0  0  0  0  0  0  0  0  0  0  0
   -3.4109    2.3137    1.1966 H   0  0  0  0  0  0  0  0  0  0  0  0
   -5.6662    3.1984    1.8200 H   0  0  0  0  0  0  0  0  0  0  0  0
   -6.3939    1.5415    1.6291 H   0  0  0  0  0  0  0  0  0  0  0  0
   -4.9519    3.1632   -0.6003 H   0  0  0  0  0  0  0  0  0  0  0  0
   -5.6907    1.5118   -0.7878 H   0  0  0  0  0  0  0  0  0  0  0  0
   -0.5949   -0.4978   -1.2797 H   0  0  0  0  0  0  0  0  0  0  0  0
    3.0409    0.4705    1.0034 H   0  0  0  0  0  0  0  0  0  0  0  0
    4.0130   -0.6466   -2.4487 H   0  0  0  0  0  0  0  0  0  0  0  0
    6.3822   -0.7707   -3.1972 H   0  0  0  0  0  0  0  0  0  0  0  0
    8.1994    0.9352    1.5404 H   0  0  0  0  0  0  0  0  0  0  0  0
    5.3134    0.7519    1.4658 H   0  0  0  0  0  0  0  0  0  0  0  0
    0.0264    1.0656    3.2539 H   0  0  0  0  0  0  0  0  0  0  0  0
  1  2  1  0
  2  3  1  0
  3  4  1  0
  4  5  1  0
  5  6  1  0
  6  7  1  0
  7  8  1  0
  4  9  1  0
  9 10  2  0
 10 11  1  0
 11 12  1  0
 12 13  2  0
 12 14  1  0
 14 15  1  0
 15 16  2  0
 16 17  1  0
 17 18  2  0
 18 19  1  0
 19 20  1  0
 20 21  2  0
 21 22  1  0
 22 23  2  0
 11 24  2  0
 24 25  1  0
 25 26  2  0
  8  6  1  0
 26  9  1  0
 23 15  1  0
 22 18  1  0
  1 27  1  0
  1 28  1  0
  1 29  1  0
  2 30  1  0
  2 31  1  0
  3 32  1  0
  3 33  1  0
  5 34  1  0
  5 35  1  0
  6 36  1  0
  7 37  1  0
  7 38  1  0
  8 39  1  0
  8 40  1  0
 10 41  1  0
 14 42  1  0
 16 43  1  0
 17 44  1  0
 21 45  1  0
 23 46  1  0
 25 47  1  0
M  CHG  1  19  -1
M  END
$$$$
