
     RDKit          3D

 81 86  0  0  0  0  0  0  0  0999 V2000
    0.4988    4.9604   -1.9842 C   0  0  0  0  0  0  0  0  0  0  0  0
    0.5339    4.5940   -0.6037 O   0  0  0  0  0  0  0  0  0  0  0  0
    0.1099    3.3267   -0.3553 C   0  0  0  0  0  0  0  0  0  0  0  0
   -0.2997    2.5372   -1.1969 O   0  0  0  0  0  0  0  0  0  0  0  0
    0.1726    3.0315    1.1311 C   0  0  0  0  0  0  0  0  0  0  0  0
    0.6804    1.5960    1.4389 C   0  0  1  0  0  0  0  0  0  0  0  0
    2.2543    1.4618    1.4659 C   0  0  0  0  0  0  0  0  0  0  0  0
    2.8953    2.0634    0.1858 C   0  0  0  0  0  0  0  0  0  0  0  0
    2.9166    2.2214    2.6419 C   0  0  0  0  0  0  0  0  0  0  0  0
    2.5980   -0.0761    1.5218 C   0  0  2  0  0  0  0  0  0  0  0  0
    2.3025   -0.6108    0.2042 O   0  0  0  0  0  0  0  0  0  0  0  0
    3.2611   -1.3613   -0.3922 C   0  0  0  0  0  0  0  0  0  0  0  0
    4.2949   -1.7518    0.1208 O   0  0  0  0  0  0  0  0  0  0  0  0
    2.8746   -1.6512   -1.7974 C   0  0  0  0  0  0  0  0  0  0  0  0
    3.5540   -2.6729   -2.4723 C   0  0  0  0  0  0  0  0  0  0  0  0
    3.2261   -2.9780   -3.7940 C   0  0  0  0  0  0  0  0  0  0  0  0
    2.2258   -2.2597   -4.4481 C   0  0  0  0  0  0  0  0  0  0  0  0
    1.5538   -1.2326   -3.7865 C   0  0  0  0  0  0  0  0  0  0  0  0
    1.8757   -0.9258   -2.4633 C   0  0  0  0  0  0  0  0  0  0  0  0
    1.8205   -0.8736    2.6046 C   0  0  2  0  0  0  0  0  0  0  0  0
    2.7714   -1.5493    3.4431 O   0  0  0  0  0  0  0  0  0  0  0  0
    0.7903   -1.9174    2.1252 C   0  0  0  0  0  0  0  0  0  0  0  0
   -0.5088   -1.3696    1.5219 C   0  0  0  0  0  0  0  0  0  0  0  0
   -1.1466   -1.9647    0.4802 C   0  0  0  0  0  0  0  0  0  0  0  0
   -0.5508   -3.0672   -0.3734 C   0  0  0  0  0  0  0  0  0  0  0  0
   -0.9045   -3.0185   -1.8573 C   0  0  0  0  0  0  0  0  0  0  0  0
   -0.4930   -3.8831   -2.6286 O   0  0  0  0  0  0  0  0  0  0  0  0
   -1.7240   -2.0396   -2.3047 O   0  0  0  0  0  0  0  0  0  0  0  0
   -2.2338   -0.9943   -1.4357 C   0  0  1  0  0  0  0  0  0  0  0  0
   -3.3905   -0.3195   -2.1146 C   0  0  0  0  0  0  0  0  0  0  0  0
   -4.4837   -0.9217   -2.8033 C   0  0  0  0  0  0  0  0  0  0  0  0
   -5.2744    0.1057   -3.2598 C   0  0  0  0  0  0  0  0  0  0  0  0
   -4.7405    1.3033   -2.9127 O   0  0  0  0  0  0  0  0  0  0  0  0
   -3.5947    1.0422   -2.2357 C   0  0  0  0  0  0  0  0  0  0  0  0
   -2.5412   -1.5515   -0.0142 C   0  0  1  0  0  0  0  0  0  0  0  0
   -3.5041   -2.7698   -0.0538 C   0  0  0  0  0  0  0  0  0  0  0  0
   -3.2083   -0.5393    0.9477 C   0  0  0  0  0  0  0  0  0  0  0  0
   -2.2457    0.5089    1.4651 C   0  0  0  0  0  0  0  0  0  0  0  0
   -1.1023   -0.1484    2.2608 C   0  0  2  0  0  0  0  0  0  0  0  0
   -0.0183    0.9119    2.6934 C   0  0  2  0  0  0  0  0  0  0  0  0
   -0.6108    1.9224    3.7013 C   0  0  0  0  0  0  0  0  0  0  0  0
    1.0032    0.0716    3.4580 C   0  0  0  0  0  0  0  0  0  0  0  0
    1.1285    0.0818    4.6842 O   0  0  0  0  0  0  0  0  0  0  0  0
    1.1496    4.3044   -2.5710 H   0  0  0  0  0  0  0  0  0  0  0  0
    0.8696    5.9853   -2.0723 H   0  0  0  0  0  0  0  0  0  0  0  0
   -0.5277    4.9286   -2.3623 H   0  0  0  0  0  0  0  0  0  0  0  0
   -0.8597    3.1795    1.4586 H   0  0  0  0  0  0  0  0  0  0  0  0
    0.7833    3.7822    1.6405 H   0  0  0  0  0  0  0  0  0  0  0  0
    0.3824    0.9950    0.5702 H   0  0  0  0  0  0  0  0  0  0  0  0
    2.8464    3.1575    0.1836 H   0  0  0  0  0  0  0  0  0  0  0  0
    2.4087    1.7096   -0.7274 H   0  0  0  0  0  0  0  0  0  0  0  0
    3.9564    1.7947    0.1196 H   0  0  0  0  0  0  0  0  0  0  0  0
    2.5646    1.9226    3.6285 H   0  0  0  0  0  0  0  0  0  0  0  0
    2.7528    3.3013    2.5630 H   0  0  0  0  0  0  0  0  0  0  0  0
    4.0019    2.0636    2.6354 H   0  0  0  0  0  0  0  0  0  0  0  0
    3.6758   -0.1581    1.7161 H   0  0  0  0  0  0  0  0  0  0  0  0
    4.3361   -3.2390   -1.9699 H   0  0  0  0  0  0  0  0  0  0  0  0
    3.7452   -3.7806   -4.3120 H   0  0  0  0  0  0  0  0  0  0  0  0
    1.9618   -2.5076   -5.4735 H   0  0  0  0  0  0  0  0  0  0  0  0
    0.7695   -0.6803   -4.2991 H   0  0  0  0  0  0  0  0  0  0  0  0
    1.3390   -0.1194   -1.9705 H   0  0  0  0  0  0  0  0  0  0  0  0
    2.4701   -1.4304    4.3680 H   0  0  0  0  0  0  0  0  0  0  0  0
    0.4838   -2.5130    2.9995 H   0  0  0  0  0  0  0  0  0  0  0  0
    1.2970   -2.6437    1.4850 H   0  0  0  0  0  0  0  0  0  0  0  0
    0.5404   -3.0509   -0.3422 H   0  0  0  0  0  0  0  0  0  0  0  0
   -0.8989   -4.0324    0.0119 H   0  0  0  0  0  0  0  0  0  0  0  0
   -1.4280   -0.2475   -1.3765 H   0  0  0  0  0  0  0  0  0  0  0  0
   -4.6649   -1.9773   -2.9539 H   0  0  0  0  0  0  0  0  0  0  0  0
   -6.1951    0.1495   -3.8248 H   0  0  0  0  0  0  0  0  0  0  0  0
   -3.0390    1.9113   -1.9088 H   0  0  0  0  0  0  0  0  0  0  0  0
   -4.5308   -2.4524   -0.2690 H   0  0  0  0  0  0  0  0  0  0  0  0
   -3.2411   -3.5165   -0.8081 H   0  0  0  0  0  0  0  0  0  0  0  0
   -3.5204   -3.2844    0.9148 H   0  0  0  0  0  0  0  0  0  0  0  0
   -3.6215   -1.0698    1.8179 H   0  0  0  0  0  0  0  0  0  0  0  0
   -4.0669   -0.0501    0.4744 H   0  0  0  0  0  0  0  0  0  0  0  0
   -1.8724    1.0946    0.6213 H   0  0  0  0  0  0  0  0  0  0  0  0
   -2.8014    1.2003    2.1078 H   0  0  0  0  0  0  0  0  0  0  0  0
   -1.5423   -0.5621    3.1823 H   0  0  0  0  0  0  0  0  0  0  0  0
   -0.9890    1.4152    4.5974 H   0  0  0  0  0  0  0  0  0  0  0  0
   -1.4529    2.4914    3.3019 H   0  0  0  0  0  0  0  0  0  0  0  0
    0.1507    2.6364    4.0349 H   0  0  0  0  0  0  0  0  0  0  0  0
  1  2  1  0
  2  3  1  0
  3  4  2  0
  3  5  1  0
  5  6  1  0
  6  7  1  0
  7  8  1  0
  7  9  1  0
  7 10  1  0
 10 11  1  0
 11 12  1  0
 12 13  2  0
 12 14  1  0
 14 15  2  0
 15 16  1  0
 16 17  2  0
 17 18  1  0
 18 19  2  0
 10 20  1  0
 20 21  1  1
 20 22  1  0
 22 23  1  0
 23 24  2  0
 24 25  1  0
 25 26  1  0
 26 27  2  0
 26 28  1  0
 28 29  1  0
 29 30  1  0
 30 31  1  0
 31 32  2  0
 32 33  1  0
 33 34  1  0
 29 35  1  0
 35 36  1  6
 35 37  1  0
 37 38  1  0
 38 39  1  0
 39 40  1  0
 40 41  1  1
 40 42  1  0
 42 43  2  0
 40  6  1  0
 19 14  1  0
 42 20  1  0
 39 23  1  0
 35 24  1  0
 34 30  2  0
  1 44  1  0
  1 45  1  0
  1 46  1  0
  5 47  1  0
  5 48  1  0
  6 49  1  6
  8 50  1  0
  8 51  1  0
  8 52  1  0
  9 53  1  0
  9 54  1  0
  9 55  1  0
 10 56  1  1
 15 57  1  0
 16 58  1  0
 17 59  1  0
 18 60  1  0
 19 61  1  0
 21 62  1  0
 22 63  1  0
 22 64  1  0
 25 65  1  0
 25 66  1  0
 29 67  1  1
 31 68  1  0
 32 69  1  0
 34 70  1  0
 36 71  1  0
 36 72  1  0
 36 73  1  0
 37 74  1  0
 37 75  1  0
 38 76  1  0
 38 77  1  0
 39 78  1  1
 41 79  1  0
 41 80  1  0
 41 81  1  0
M  END
$$$$
