
     RDKit          3D

 26 27  0  0  0  0  0  0  0  0999 V2000
   -3.8857    1.0653    1.5252 N   0  0  0  0  0  0  0  0  0  0  0  0
   -3.0920    0.3265    0.6648 C   0  0  0  0  0  0  0  0  0  0  0  0
   -3.6677   -0.5274   -0.2760 C   0  0  0  0  0  0  0  0  0  0  0  0
   -2.8687   -1.2461   -1.1658 C   0  0  0  0  0  0  0  0  0  0  0  0
   -1.4810   -1.1062   -1.1268 C   0  0  0  0  0  0  0  0  0  0  0  0
   -0.8712   -0.2447   -0.2028 C   0  0  0  0  0  0  0  0  0  0  0  0
    0.5928   -0.0906   -0.1608 C   0  0  0  0  0  0  0  0  0  0  0  0
    1.3063   -0.2766    1.0338 C   0  0  0  0  0  0  0  0  0  0  0  0
    2.6980   -0.1311    1.0741 C   0  0  0  0  0  0  0  0  0  0  0  0
    3.4229    0.2059   -0.0780 C   0  0  0  0  0  0  0  0  0  0  0  0
    4.9311    0.3639   -0.0338 C   0  0  0  0  0  0  0  0  0  0  0  0
    5.4999    0.1870    1.0900 O   0  0  0  0  0  0  0  0  0  0  0  0
    5.5152    0.6614   -1.1238 O   0  0  0  0  0  0  0  0  0  0  0  0
    2.7116    0.3924   -1.2721 C   0  0  0  0  0  0  0  0  0  0  0  0
    1.3199    0.2463   -1.3132 C   0  0  0  0  0  0  0  0  0  0  0  0
   -1.7003    0.4690    0.6823 C   0  0  0  0  0  0  0  0  0  0  0  0
   -3.4537    1.6393    2.2364 H   0  0  0  0  0  0  0  0  0  0  0  0
   -4.8819    0.9094    1.5641 H   0  0  0  0  0  0  0  0  0  0  0  0
   -4.7465   -0.6411   -0.3242 H   0  0  0  0  0  0  0  0  0  0  0  0
   -3.3248   -1.9148   -1.8899 H   0  0  0  0  0  0  0  0  0  0  0  0
   -0.8686   -1.6810   -1.8189 H   0  0  0  0  0  0  0  0  0  0  0  0
    0.7871   -0.5501    1.9486 H   0  0  0  0  0  0  0  0  0  0  0  0
    3.2336   -0.2829    2.0101 H   0  0  0  0  0  0  0  0  0  0  0  0
    3.2574    0.6576   -2.1764 H   0  0  0  0  0  0  0  0  0  0  0  0
    0.8092    0.4121   -2.2581 H   0  0  0  0  0  0  0  0  0  0  0  0
   -1.2430    1.1562    1.3912 H   0  0  0  0  0  0  0  0  0  0  0  0
  1  2  1  0
  2  3  2  0
  3  4  1  0
  4  5  2  0
  5  6  1  0
  6  7  1  0
  7  8  2  0
  8  9  1  0
  9 10  2  0
 10 11  1  0
 11 12  2  0
 11 13  1  0
 10 14  1  0
 14 15  2  0
  6 16  2  0
 16  2  1  0
 15  7  1  0
  1 17  1  0
  1 18  1  0
  3 19  1  0
  4 20  1  0
  5 21  1  0
  8 22  1  0
  9 23  1  0
 14 24  1  0
 15 25  1  0
 16 26  1  0
M  CHG  1  13  -1
M  END
$$$$
