
     RDKit          3D

 58 61  0  0  0  0  0  0  0  0999 V2000
    4.0898    5.4233    0.3087 C   0  0  0  0  0  0  0  0  0  0  0  0
    3.5505    4.5140   -0.6437 O   0  0  0  0  0  0  0  0  0  0  0  0
    2.6415    3.6009   -0.1936 C   0  0  0  0  0  0  0  0  0  0  0  0
    2.0963    2.7858   -1.1848 C   0  0  0  0  0  0  0  0  0  0  0  0
    1.1543    1.8050   -0.8674 C   0  0  0  0  0  0  0  0  0  0  0  0
    0.7340    1.6199    0.4586 C   0  0  0  0  0  0  0  0  0  0  0  0
   -0.2547    0.5195    0.7720 C   0  0  2  0  0  0  0  0  0  0  0  0
   -1.4344    0.9174    1.6920 C   0  0  1  0  0  0  0  0  0  0  0  0
   -2.5388    1.7871    1.0593 C   0  0  0  0  0  0  0  0  0  0  0  0
   -2.9605    1.5109   -0.3937 C   0  0  0  0  0  0  0  0  0  0  0  0
   -3.5254    0.1392   -0.6531 C   0  0  0  0  0  0  0  0  0  0  0  0
   -4.6705   -0.3036    0.0242 C   0  0  0  0  0  0  0  0  0  0  0  0
   -5.1860   -1.5787   -0.2136 C   0  0  0  0  0  0  0  0  0  0  0  0
   -4.5760   -2.4169   -1.1440 C   0  0  0  0  0  0  0  0  0  0  0  0
   -3.4597   -1.9755   -1.8500 C   0  0  0  0  0  0  0  0  0  0  0  0
   -2.9415   -0.7014   -1.6125 C   0  0  0  0  0  0  0  0  0  0  0  0
   -1.9243   -0.4055    2.2919 C   0  0  0  0  0  0  0  0  0  0  0  0
   -0.6196   -1.1174    2.4243 C   0  0  0  0  0  0  0  0  0  0  0  0
   -0.2926   -1.9808    3.2079 O   0  0  0  0  0  0  0  0  0  0  0  0
    0.4002   -0.6359    1.5007 N   0  0  0  0  0  0  0  0  0  0  0  0
    0.9714   -1.6248    0.5854 C   0  0  0  0  0  0  0  0  0  0  0  0
    0.1696   -2.5684   -0.0601 C   0  0  0  0  0  0  0  0  0  0  0  0
    0.7513   -3.4684   -0.9555 C   0  0  0  0  0  0  0  0  0  0  0  0
    2.1244   -3.4369   -1.2137 C   0  0  0  0  0  0  0  0  0  0  0  0
    2.5520   -4.3696   -2.1130 O   0  0  0  0  0  0  0  0  0  0  0  0
    3.9492   -4.4303   -2.3795 C   0  0  0  0  0  0  0  0  0  0  0  0
    2.9199   -2.4919   -0.5667 C   0  0  0  0  0  0  0  0  0  0  0  0
    2.3454   -1.5855    0.3325 C   0  0  0  0  0  0  0  0  0  0  0  0
    1.2953    2.4379    1.4528 C   0  0  0  0  0  0  0  0  0  0  0  0
    2.2379    3.4225    1.1271 C   0  0  0  0  0  0  0  0  0  0  0  0
    4.7677    6.0996   -0.2207 H   0  0  0  0  0  0  0  0  0  0  0  0
    4.6724    4.8942    1.0699 H   0  0  0  0  0  0  0  0  0  0  0  0
    3.3011    6.0301    0.7657 H   0  0  0  0  0  0  0  0  0  0  0  0
    2.4104    2.9213   -2.2190 H   0  0  0  0  0  0  0  0  0  0  0  0
    0.7617    1.1939   -1.6794 H   0  0  0  0  0  0  0  0  0  0  0  0
   -0.6557    0.1097   -0.1602 H   0  0  0  0  0  0  0  0  0  0  0  0
   -1.0502    1.4995    2.5425 H   0  0  0  0  0  0  0  0  0  0  0  0
   -2.1856    2.8273    1.0835 H   0  0  0  0  0  0  0  0  0  0  0  0
   -3.4208    1.7642    1.7120 H   0  0  0  0  0  0  0  0  0  0  0  0
   -2.1112    1.7033   -1.0601 H   0  0  0  0  0  0  0  0  0  0  0  0
   -3.7243    2.2453   -0.6820 H   0  0  0  0  0  0  0  0  0  0  0  0
   -5.1826    0.3433    0.7343 H   0  0  0  0  0  0  0  0  0  0  0  0
   -6.0789   -1.9122    0.3114 H   0  0  0  0  0  0  0  0  0  0  0  0
   -4.9923   -3.4024   -1.3421 H   0  0  0  0  0  0  0  0  0  0  0  0
   -3.0121   -2.6164   -2.6068 H   0  0  0  0  0  0  0  0  0  0  0  0
   -2.0945   -0.3662   -2.2077 H   0  0  0  0  0  0  0  0  0  0  0  0
   -2.3938   -0.2608    3.2676 H   0  0  0  0  0  0  0  0  0  0  0  0
   -2.5679   -0.9911    1.6382 H   0  0  0  0  0  0  0  0  0  0  0  0
    1.1489   -0.3139    2.1208 H   0  0  0  0  0  0  0  0  0  0  0  0
   -0.9018   -2.6356    0.1063 H   0  0  0  0  0  0  0  0  0  0  0  0
    0.1319   -4.2102   -1.4590 H   0  0  0  0  0  0  0  0  0  0  0  0
    4.1186   -5.2419   -3.0935 H   0  0  0  0  0  0  0  0  0  0  0  0
    4.5142   -4.6605   -1.4703 H   0  0  0  0  0  0  0  0  0  0  0  0
    4.3014   -3.5010   -2.8392 H   0  0  0  0  0  0  0  0  0  0  0  0
    3.9905   -2.4340   -0.7444 H   0  0  0  0  0  0  0  0  0  0  0  0
    2.9941   -0.8552    0.8106 H   0  0  0  0  0  0  0  0  0  0  0  0
    1.0192    2.3414    2.5009 H   0  0  0  0  0  0  0  0  0  0  0  0
    2.6406    4.0364    1.9281 H   0  0  0  0  0  0  0  0  0  0  0  0
  1  2  1  0
  2  3  1  0
  3  4  2  0
  4  5  1  0
  5  6  2  0
  6  7  1  0
  7  8  1  0
  8  9  1  0
  9 10  1  0
 10 11  1  0
 11 12  2  0
 12 13  1  0
 13 14  2  0
 14 15  1  0
 15 16  2  0
  8 17  1  0
 17 18  1  0
 18 19  2  0
 18 20  1  0
 20 21  1  0
 21 22  2  0
 22 23  1  0
 23 24  2  0
 24 25  1  0
 25 26  1  0
 24 27  1  0
 27 28  2  0
  6 29  1  0
 29 30  2  0
 30  3  1  0
 20  7  1  0
 28 21  1  0
 16 11  1  0
  1 31  1  0
  1 32  1  0
  1 33  1  0
  4 34  1  0
  5 35  1  0
  7 36  1  6
  8 37  1  1
  9 38  1  0
  9 39  1  0
 10 40  1  0
 10 41  1  0
 12 42  1  0
 13 43  1  0
 14 44  1  0
 15 45  1  0
 16 46  1  0
 17 47  1  0
 17 48  1  0
 20 49  1  0
 22 50  1  0
 23 51  1  0
 26 52  1  0
 26 53  1  0
 26 54  1  0
 27 55  1  0
 28 56  1  0
 29 57  1  0
 30 58  1  0
M  CHG  1  20   1
M  END
$$$$
