
     RDKit          3D

 35 38  0  0  0  0  0  0  0  0999 V2000
    6.9719    0.9871    1.0338 C   0  0  0  0  0  0  0  0  0  0  0  0
    6.1452    0.2613    0.5514 C   0  0  0  0  0  0  0  0  0  0  0  0
    5.1356   -0.6225   -0.0358 C   0  0  0  0  0  0  0  0  0  0  0  0
    3.8348   -0.0268    0.0701 N   0  0  0  0  0  0  0  0  0  0  0  0
    2.7134   -0.6473   -0.4163 C   0  0  0  0  0  0  0  0  0  0  0  0
    2.7279   -1.7326   -0.9851 O   0  0  0  0  0  0  0  0  0  0  0  0
    1.4938    0.1389   -0.1968 C   0  0  0  0  0  0  0  0  0  0  0  0
    1.5392    1.4060    0.3506 N   0  0  0  0  0  0  0  0  0  0  0  0
    0.2971    1.8245    0.3582 C   0  0  0  0  0  0  0  0  0  0  0  0
   -0.5883    0.8943   -0.1471 N   0  0  0  0  0  0  0  0  0  0  0  0
    0.1829   -0.2022   -0.5052 C   0  0  0  0  0  0  0  0  0  0  0  0
   -0.3536   -1.4176   -1.1713 C   0  0  0  0  0  0  0  0  0  0  0  0
   -1.4177   -2.0035   -0.3863 N   0  0  0  0  0  0  0  0  0  0  0  0
   -1.4023   -3.3044   -0.0385 N   0  0  0  0  0  0  0  0  0  0  0  0
   -2.5850   -3.4273    0.5627 C   0  0  0  0  0  0  0  0  0  0  0  0
   -3.3377   -2.2901    0.5948 N   0  0  0  0  0  0  0  0  0  0  0  0
   -2.5761   -1.3882    0.0005 C   0  0  0  0  0  0  0  0  0  0  0  0
   -2.9204    0.0129   -0.2402 C   0  0  0  0  0  0  0  0  0  0  0  0
   -4.2943    0.3061   -0.3528 C   0  0  0  0  0  0  0  0  0  0  0  0
   -4.7383    1.6124   -0.5051 C   0  0  0  0  0  0  0  0  0  0  0  0
   -6.0494    1.8591   -0.6149 F   0  0  0  0  0  0  0  0  0  0  0  0
   -3.8402    2.6645   -0.5399 C   0  0  0  0  0  0  0  0  0  0  0  0
   -2.4744    2.4050   -0.4205 C   0  0  0  0  0  0  0  0  0  0  0  0
   -1.9979    1.0825   -0.2774 C   0  0  0  0  0  0  0  0  0  0  0  0
    7.7056    1.6305    1.4623 H   0  0  0  0  0  0  0  0  0  0  0  0
    5.1148   -1.5900    0.4769 H   0  0  0  0  0  0  0  0  0  0  0  0
    5.3456   -0.8091   -1.0944 H   0  0  0  0  0  0  0  0  0  0  0  0
    3.7066    0.8779    0.5133 H   0  0  0  0  0  0  0  0  0  0  0  0
   -0.0177    2.7818    0.7529 H   0  0  0  0  0  0  0  0  0  0  0  0
   -0.7708   -1.1720   -2.1546 H   0  0  0  0  0  0  0  0  0  0  0  0
    0.4053   -2.1889   -1.3190 H   0  0  0  0  0  0  0  0  0  0  0  0
   -2.9110   -4.3702    0.9831 H   0  0  0  0  0  0  0  0  0  0  0  0
   -5.0357   -0.4902   -0.3072 H   0  0  0  0  0  0  0  0  0  0  0  0
   -4.2071    3.6794   -0.6615 H   0  0  0  0  0  0  0  0  0  0  0  0
   -1.8018    3.2584   -0.4794 H   0  0  0  0  0  0  0  0  0  0  0  0
  1  2  3  0
  2  3  1  0
  3  4  1  0
  4  5  1  0
  5  6  2  0
  5  7  1  0
  7  8  1  0
  8  9  2  0
  9 10  1  0
 10 11  1  0
 11 12  1  0
 12 13  1  0
 13 14  1  0
 14 15  2  0
 15 16  1  0
 16 17  2  0
 17 18  1  0
 18 19  2  0
 19 20  1  0
 20 21  1  0
 20 22  2  0
 22 23  1  0
 23 24  2  0
 11  7  2  0
 17 13  1  0
 24 18  1  0
 24 10  1  0
  1 25  1  0
  3 26  1  0
  3 27  1  0
  4 28  1  0
  9 29  1  0
 12 30  1  0
 12 31  1  0
 15 32  1  0
 19 33  1  0
 22 34  1  0
 23 35  1  0
M  END
$$$$
