
     RDKit          3D

 73 78  0  0  0  0  0  0  0  0999 V2000
   -4.5784    0.3466   -2.6045 C   0  0  0  0  0  0  0  0  0  0  0  0
   -3.1437   -0.1087   -2.5610 C   0  0  0  0  0  0  0  0  0  0  0  0
   -2.6405   -0.8749   -3.6229 C   0  0  0  0  0  0  0  0  0  0  0  0
   -1.3131   -1.3107   -3.6249 C   0  0  0  0  0  0  0  0  0  0  0  0
   -0.4578   -0.9853   -2.5702 C   0  0  0  0  0  0  0  0  0  0  0  0
    0.8676   -1.4639   -2.6349 N   0  0  0  0  0  0  0  0  0  0  0  0
    1.8196   -1.4365   -1.6240 C   0  0  0  0  0  0  0  0  0  0  0  0
    1.5934   -1.1202   -0.4630 O   0  0  0  0  0  0  0  0  0  0  0  0
    3.0559   -1.8249   -2.1210 N   0  0  0  0  0  0  0  0  0  0  0  0
    4.2438   -2.0564   -1.3945 C   0  0  0  0  0  0  0  0  0  0  0  0
    4.3169   -2.0769    0.0027 C   0  0  0  0  0  0  0  0  0  0  0  0
    5.5220   -2.3065    0.6932 C   0  0  0  0  0  0  0  0  0  0  0  0
    5.5525   -2.3107    2.0835 N   0  0  0  0  0  0  0  0  0  0  0  0
    6.6595   -2.9468    2.8186 C   0  0  0  0  0  0  0  0  0  0  0  0
    6.2408   -3.2494    4.2654 C   0  0  0  0  0  0  0  0  0  0  0  0
    5.7582   -2.0751    4.9346 O   0  0  0  0  0  0  0  0  0  0  0  0
    4.6046   -1.5647    4.2481 C   0  0  0  0  0  0  0  0  0  0  0  0
    4.9304   -1.1751    2.7982 C   0  0  0  0  0  0  0  0  0  0  0  0
    6.6630   -2.5503   -0.0824 C   0  0  0  0  0  0  0  0  0  0  0  0
    6.6201   -2.5573   -1.4868 C   0  0  0  0  0  0  0  0  0  0  0  0
    7.8757   -2.7948   -2.2843 C   0  0  0  0  0  0  0  0  0  0  0  0
    8.7562   -3.6295   -1.6654 F   0  0  0  0  0  0  0  0  0  0  0  0
    7.6322   -3.3524   -3.5042 F   0  0  0  0  0  0  0  0  0  0  0  0
    8.5586   -1.6437   -2.5311 F   0  0  0  0  0  0  0  0  0  0  0  0
    5.4037   -2.2996   -2.1325 C   0  0  0  0  0  0  0  0  0  0  0  0
   -0.9443   -0.1932   -1.5295 C   0  0  0  0  0  0  0  0  0  0  0  0
   -2.2837    0.2386   -1.5002 C   0  0  0  0  0  0  0  0  0  0  0  0
   -2.7473    1.0633   -0.3743 C   0  0  0  0  0  0  0  0  0  0  0  0
   -3.3851    2.2311   -0.5035 N   0  0  0  0  0  0  0  0  0  0  0  0
   -3.6034    2.5881    0.7715 C   0  0  0  0  0  0  0  0  0  0  0  0
   -3.1491    1.7316    1.6971 C   0  0  0  0  0  0  0  0  0  0  0  0
   -3.4950    2.3385    2.9362 C   0  0  0  0  0  0  0  0  0  0  0  0
   -4.1361    3.5283    2.8160 N   0  0  0  0  0  0  0  0  0  0  0  0
   -4.1901    3.6231    1.4389 N   0  0  0  0  0  0  0  0  0  0  0  0
   -4.8004    4.7618    0.7824 C   0  0  0  0  0  0  0  0  0  0  0  0
   -6.2184    4.4635    0.3630 C   0  0  0  0  0  0  0  0  0  0  0  0
   -6.4913    3.9606   -0.9180 C   0  0  0  0  0  0  0  0  0  0  0  0
   -7.8019    3.6725   -1.3007 C   0  0  0  0  0  0  0  0  0  0  0  0
   -8.8511    3.8777   -0.4066 C   0  0  0  0  0  0  0  0  0  0  0  0
   -8.5908    4.3649    0.8731 C   0  0  0  0  0  0  0  0  0  0  0  0
   -7.2808    4.6533    1.2585 C   0  0  0  0  0  0  0  0  0  0  0  0
   -2.5957    0.7152    0.9744 N   0  0  0  0  0  0  0  0  0  0  0  0
   -2.0294   -0.4743    1.5491 C   0  0  0  0  0  0  0  0  0  0  0  0
   -4.6302    1.4143   -2.8394 H   0  0  0  0  0  0  0  0  0  0  0  0
   -5.1426   -0.1935   -3.3726 H   0  0  0  0  0  0  0  0  0  0  0  0
   -5.0794    0.1532   -1.6504 H   0  0  0  0  0  0  0  0  0  0  0  0
   -3.2847   -1.1409   -4.4587 H   0  0  0  0  0  0  0  0  0  0  0  0
   -0.9670   -1.9112   -4.4618 H   0  0  0  0  0  0  0  0  0  0  0  0
    1.1142   -1.9732   -3.4692 H   0  0  0  0  0  0  0  0  0  0  0  0
    3.1348   -1.8627   -3.1253 H   0  0  0  0  0  0  0  0  0  0  0  0
    3.4122   -1.9508    0.5879 H   0  0  0  0  0  0  0  0  0  0  0  0
    6.9567   -3.8904    2.3466 H   0  0  0  0  0  0  0  0  0  0  0  0
    7.5208   -2.2676    2.8234 H   0  0  0  0  0  0  0  0  0  0  0  0
    5.4631   -4.0222    4.2954 H   0  0  0  0  0  0  0  0  0  0  0  0
    7.1015   -3.6230    4.8293 H   0  0  0  0  0  0  0  0  0  0  0  0
    3.8075   -2.3172    4.2819 H   0  0  0  0  0  0  0  0  0  0  0  0
    4.2546   -0.6852    4.7979 H   0  0  0  0  0  0  0  0  0  0  0  0
    4.0079   -0.8256    2.3249 H   0  0  0  0  0  0  0  0  0  0  0  0
    5.6424   -0.3403    2.7975 H   0  0  0  0  0  0  0  0  0  0  0  0
    7.6231   -2.7216    0.4006 H   0  0  0  0  0  0  0  0  0  0  0  0
    5.3764   -2.2912   -3.2206 H   0  0  0  0  0  0  0  0  0  0  0  0
   -0.2820    0.1309   -0.7324 H   0  0  0  0  0  0  0  0  0  0  0  0
   -3.3053    1.9640    3.9339 H   0  0  0  0  0  0  0  0  0  0  0  0
   -4.7710    5.6105    1.4759 H   0  0  0  0  0  0  0  0  0  0  0  0
   -4.1797    5.0329   -0.0797 H   0  0  0  0  0  0  0  0  0  0  0  0
   -5.6790    3.7785   -1.6204 H   0  0  0  0  0  0  0  0  0  0  0  0
   -8.0023    3.2818   -2.2947 H   0  0  0  0  0  0  0  0  0  0  0  0
   -9.8712    3.6503   -0.7041 H   0  0  0  0  0  0  0  0  0  0  0  0
   -9.4071    4.5145    1.5748 H   0  0  0  0  0  0  0  0  0  0  0  0
   -7.0887    5.0175    2.2663 H   0  0  0  0  0  0  0  0  0  0  0  0
   -2.4739   -0.6480    2.5330 H   0  0  0  0  0  0  0  0  0  0  0  0
   -2.2476   -1.3304    0.9068 H   0  0  0  0  0  0  0  0  0  0  0  0
   -0.9510   -0.3303    1.6493 H   0  0  0  0  0  0  0  0  0  0  0  0
  1  2  1  0
  2  3  2  0
  3  4  1  0
  4  5  2  0
  5  6  1  0
  6  7  1  0
  7  8  2  0
  7  9  1  0
  9 10  1  0
 10 11  2  0
 11 12  1  0
 12 13  1  0
 13 14  1  0
 14 15  1  0
 15 16  1  0
 16 17  1  0
 17 18  1  0
 12 19  2  0
 19 20  1  0
 20 21  1  0
 21 22  1  0
 21 23  1  0
 21 24  1  0
 20 25  2  0
  5 26  1  0
 26 27  2  0
 27 28  1  0
 28 29  2  0
 29 30  1  0
 30 31  2  0
 31 32  1  0
 32 33  2  0
 33 34  1  0
 34 35  1  0
 35 36  1  0
 36 37  2  0
 37 38  1  0
 38 39  2  0
 39 40  1  0
 40 41  2  0
 31 42  1  0
 42 43  1  0
 27  2  1  0
 42 28  1  0
 25 10  1  0
 34 30  1  0
 41 36  1  0
 18 13  1  0
  1 44  1  0
  1 45  1  0
  1 46  1  0
  3 47  1  0
  4 48  1  0
  6 49  1  0
  9 50  1  0
 11 51  1  0
 14 52  1  0
 14 53  1  0
 15 54  1  0
 15 55  1  0
 17 56  1  0
 17 57  1  0
 18 58  1  0
 18 59  1  0
 19 60  1  0
 25 61  1  0
 26 62  1  0
 32 63  1  0
 35 64  1  0
 35 65  1  0
 37 66  1  0
 38 67  1  0
 39 68  1  0
 40 69  1  0
 41 70  1  0
 43 71  1  0
 43 72  1  0
 43 73  1  0
M  END
$$$$
