
     RDKit          3D

 55 56  0  0  0  0  0  0  0  0999 V2000
   -0.6583    0.8832    2.2650 C   0  0  0  0  0  0  0  0  0  0  0  0
   -0.1345   -0.2060    1.3163 C   0  0  0  0  0  0  0  0  0  0  0  0
    0.6219   -1.2760    2.1126 C   0  0  0  0  0  0  0  0  0  0  0  0
   -1.3119   -0.9068    0.5697 C   0  0  0  0  0  0  0  0  0  0  0  0
   -2.1659    0.0309   -0.2470 C   0  0  0  0  0  0  0  0  0  0  0  0
   -1.7075    1.0624   -0.7210 O   0  0  0  0  0  0  0  0  0  0  0  0
   -3.5440   -0.2792   -0.5871 N   0  0  0  0  0  0  0  0  0  0  0  0
   -3.7794   -0.7883   -1.9806 C   0  0  0  0  0  0  0  0  0  0  0  0
   -4.9726    0.0004   -2.4940 C   0  0  0  0  0  0  0  0  0  0  0  0
   -5.6973    0.4461   -1.2385 C   0  0  0  0  0  0  0  0  0  0  0  0
   -4.5497    0.8380   -0.3162 C   0  0  1  0  0  0  0  0  0  0  0  0
   -4.9163    0.7984    1.1731 C   0  0  0  0  0  0  0  0  0  0  0  0
   -4.6736   -0.5407    1.6424 O   0  0  0  0  0  0  0  0  0  0  0  0
    0.8241    0.4394    0.3048 N   0  0  0  0  0  0  0  0  0  0  0  0
    2.1481    1.0938    0.7722 C   0  0  0  0  0  0  0  0  0  0  0  0
    3.4085    0.1935    0.6045 C   0  0  0  0  0  0  0  0  0  0  0  0
    3.3972   -0.9719    0.9631 O   0  0  0  0  0  0  0  0  0  0  0  0
    4.6658    0.6262   -0.1015 N   0  0  0  0  0  0  0  0  0  0  0  0
    5.8650   -0.2894    0.2326 C   0  0  0  0  0  0  0  0  0  0  0  0
    5.9574   -1.2204   -0.9660 C   0  0  1  0  0  0  0  0  0  0  0  0
    4.9133   -2.0889   -0.9360 F   0  0  0  0  0  0  0  0  0  0  0  0
    5.7264   -0.2864   -2.1285 C   0  0  0  0  0  0  0  0  0  0  0  0
    4.5682    0.5881   -1.6611 C   0  0  1  0  0  0  0  0  0  0  0  0
    3.2375    0.1113   -2.0965 C   0  0  0  0  0  0  0  0  0  0  0  0
    2.1089   -0.1658   -2.1416 N   0  0  0  0  0  0  0  0  0  0  0  0
   -1.4462    0.4836    2.9141 H   0  0  0  0  0  0  0  0  0  0  0  0
    0.1293    1.2672    2.9214 H   0  0  0  0  0  0  0  0  0  0  0  0
   -1.0773    1.7371    1.7232 H   0  0  0  0  0  0  0  0  0  0  0  0
    1.4322   -0.8470    2.7106 H   0  0  0  0  0  0  0  0  0  0  0  0
   -0.0507   -1.7856    2.8128 H   0  0  0  0  0  0  0  0  0  0  0  0
    1.0437   -2.0408    1.4516 H   0  0  0  0  0  0  0  0  0  0  0  0
   -0.9283   -1.6754   -0.1120 H   0  0  0  0  0  0  0  0  0  0  0  0
   -1.9608   -1.4057    1.2992 H   0  0  0  0  0  0  0  0  0  0  0  0
   -3.8614   -1.0049    0.0848 H   0  0  0  0  0  0  0  0  0  0  0  0
   -3.9951   -1.8579   -1.8950 H   0  0  0  0  0  0  0  0  0  0  0  0
   -2.8847   -0.6329   -2.5915 H   0  0  0  0  0  0  0  0  0  0  0  0
   -5.6075   -0.5953   -3.1562 H   0  0  0  0  0  0  0  0  0  0  0  0
   -4.6268    0.8742   -3.0595 H   0  0  0  0  0  0  0  0  0  0  0  0
   -6.2820   -0.3833   -0.8218 H   0  0  0  0  0  0  0  0  0  0  0  0
   -6.3780    1.2814   -1.4277 H   0  0  0  0  0  0  0  0  0  0  0  0
   -4.1221    1.8003   -0.6214 H   0  0  0  0  0  0  0  0  0  0  0  0
   -5.9612    1.0734    1.3466 H   0  0  0  0  0  0  0  0  0  0  0  0
   -4.2664    1.4660    1.7468 H   0  0  0  0  0  0  0  0  0  0  0  0
   -5.2129   -0.6468    2.4590 H   0  0  0  0  0  0  0  0  0  0  0  0
    0.2856    1.1626   -0.2136 H   0  0  0  0  0  0  0  0  0  0  0  0
    1.0596   -0.2447   -0.4472 H   0  0  0  0  0  0  0  0  0  0  0  0
    2.0425    1.3972    1.8148 H   0  0  0  0  0  0  0  0  0  0  0  0
    2.2693    1.9826    0.1462 H   0  0  0  0  0  0  0  0  0  0  0  0
    4.9069    1.5690    0.2265 H   0  0  0  0  0  0  0  0  0  0  0  0
    5.7056   -0.7856    1.1930 H   0  0  0  0  0  0  0  0  0  0  0  0
    6.7353    0.3726    0.2975 H   0  0  0  0  0  0  0  0  0  0  0  0
    6.8932   -1.7810   -1.0198 H   0  0  0  0  0  0  0  0  0  0  0  0
    5.4978   -0.8264   -3.0528 H   0  0  0  0  0  0  0  0  0  0  0  0
    6.6173    0.3302   -2.2979 H   0  0  0  0  0  0  0  0  0  0  0  0
    4.7120    1.6242   -1.9870 H   0  0  0  0  0  0  0  0  0  0  0  0
  1  2  1  0
  2  3  1  0
  2  4  1  0
  4  5  1  0
  5  6  2  0
  5  7  1  0
  7  8  1  0
  8  9  1  0
  9 10  1  0
 10 11  1  0
 11 12  1  0
 12 13  1  0
  2 14  1  0
 14 15  1  0
 15 16  1  0
 16 17  2  0
 16 18  1  0
 18 19  1  0
 19 20  1  0
 20 21  1  0
 20 22  1  0
 22 23  1  0
 23 24  1  0
 24 25  3  0
 11  7  1  0
 23 18  1  0
  1 26  1  0
  1 27  1  0
  1 28  1  0
  3 29  1  0
  3 30  1  0
  3 31  1  0
  4 32  1  0
  4 33  1  0
  7 34  1  0
  8 35  1  0
  8 36  1  0
  9 37  1  0
  9 38  1  0
 10 39  1  0
 10 40  1  0
 11 41  1  6
 12 42  1  0
 12 43  1  0
 13 44  1  0
 14 45  1  0
 14 46  1  0
 15 47  1  0
 15 48  1  0
 18 49  1  0
 19 50  1  0
 19 51  1  0
 20 52  1  6
 22 53  1  0
 22 54  1  0
 23 55  1  6
M  CHG  3   7   1  14   1  18   1
M  END
$$$$
