
     RDKit          3D

 77 81  0  0  0  0  0  0  0  0999 V2000
    0.1672    4.7747   -2.9101 C   0  0  0  0  0  0  0  0  0  0  0  0
    0.3199    3.4403   -2.2640 C   0  0  0  0  0  0  0  0  0  0  0  0
   -0.7782    2.7201   -1.7540 C   0  0  0  0  0  0  0  0  0  0  0  0
   -0.6566    1.4607   -1.1220 C   0  0  0  0  0  0  0  0  0  0  0  0
   -1.8144    0.8181   -0.6423 N   0  0  0  0  0  0  0  0  0  0  0  0
   -2.5697    1.5530    0.3755 C   0  0  0  0  0  0  0  0  0  0  0  0
   -4.0048    1.0374    0.4202 C   0  0  0  0  0  0  0  0  0  0  0  0
   -4.0386   -0.4816    0.6047 C   0  0  0  0  0  0  0  0  0  0  0  0
   -5.4115   -0.9681    0.5746 N   0  0  0  0  0  0  0  0  0  0  0  0
   -6.2219   -1.0078    1.6656 C   0  0  0  0  0  0  0  0  0  0  0  0
   -5.9008   -0.6883    2.7981 O   0  0  0  0  0  0  0  0  0  0  0  0
   -7.4403   -1.4531    1.2791 O   0  0  0  0  0  0  0  0  0  0  0  0
   -8.5154   -1.5903    2.2421 C   0  0  0  0  0  0  0  0  0  0  0  0
   -8.1726   -2.6260    3.3188 C   0  0  0  0  0  0  0  0  0  0  0  0
   -9.7065   -2.1121    1.4233 C   0  0  0  0  0  0  0  0  0  0  0  0
   -8.8973   -0.2359    2.8498 C   0  0  0  0  0  0  0  0  0  0  0  0
   -3.2106   -1.1765   -0.4767 C   0  0  0  0  0  0  0  0  0  0  0  0
   -1.7842   -0.6379   -0.5066 C   0  0  0  0  0  0  0  0  0  0  0  0
    0.6172    0.8888   -1.0012 C   0  0  0  0  0  0  0  0  0  0  0  0
    1.7224    1.5928   -1.4917 C   0  0  0  0  0  0  0  0  0  0  0  0
    3.0444    1.2776   -1.4939 N   0  0  0  0  0  0  0  0  0  0  0  0
    3.7370    2.3465   -2.0296 C   0  0  0  0  0  0  0  0  0  0  0  0
    5.3488    2.3255   -2.2720 C   0  0  0  0  0  0  0  0  0  0  0  0
    5.9749    1.1266   -2.4393 C   0  0  0  0  0  0  0  0  0  0  0  0
    5.3207   -0.1137   -2.4215 N   0  0  0  0  0  0  0  0  0  0  0  0
    5.6631   -1.1804   -1.4899 C   0  0  0  0  0  0  0  0  0  0  0  0
    5.2205   -0.8260   -0.0480 C   0  0  1  0  0  0  0  0  0  0  0  0
    3.7911   -0.8511    0.0564 O   0  0  0  0  0  0  0  0  0  0  0  0
    5.8085   -1.8102    0.9499 C   0  0  0  0  0  0  0  0  0  0  0  0
    7.0495   -1.5302    1.5457 C   0  0  0  0  0  0  0  0  0  0  0  0
    7.6278   -2.4272    2.4450 C   0  0  0  0  0  0  0  0  0  0  0  0
    6.9735   -3.6183    2.7565 C   0  0  0  0  0  0  0  0  0  0  0  0
    5.7430   -3.9068    2.1668 C   0  0  0  0  0  0  0  0  0  0  0  0
    4.9433   -5.3835    2.5527 Cl  0  0  0  0  0  0  0  0  0  0  0  0
    5.1616   -3.0146    1.2675 C   0  0  0  0  0  0  0  0  0  0  0  0
    7.4061    1.1148   -2.6388 C   0  0  0  0  0  0  0  0  0  0  0  0
    8.0544    2.2863   -2.6139 C   0  0  0  0  0  0  0  0  0  0  0  0
    7.5392    3.5189   -2.4132 N   0  0  0  0  0  0  0  0  0  0  0  0
    6.2015    3.6103   -2.2049 C   0  0  0  0  0  0  0  0  0  0  0  0
    5.6808    4.6913   -1.9262 O   0  0  0  0  0  0  0  0  0  0  0  0
    2.8263    3.2558   -2.4596 N   0  0  0  0  0  0  0  0  0  0  0  0
    1.5839    2.8514   -2.1093 C   0  0  0  0  0  0  0  0  0  0  0  0
   -0.1019    5.5239   -2.1586 H   0  0  0  0  0  0  0  0  0  0  0  0
    1.0823    5.1067   -3.4098 H   0  0  0  0  0  0  0  0  0  0  0  0
   -0.6236    4.7384   -3.6669 H   0  0  0  0  0  0  0  0  0  0  0  0
   -1.7672    3.1524   -1.8794 H   0  0  0  0  0  0  0  0  0  0  0  0
   -2.0907    1.4221    1.3543 H   0  0  0  0  0  0  0  0  0  0  0  0
   -2.6052    2.6300    0.1770 H   0  0  0  0  0  0  0  0  0  0  0  0
   -4.5492    1.5332    1.2327 H   0  0  0  0  0  0  0  0  0  0  0  0
   -4.5195    1.3076   -0.5117 H   0  0  0  0  0  0  0  0  0  0  0  0
   -3.6192   -0.7265    1.5893 H   0  0  0  0  0  0  0  0  0  0  0  0
   -5.8404   -1.2123   -0.3064 H   0  0  0  0  0  0  0  0  0  0  0  0
   -7.8192   -3.5580    2.8633 H   0  0  0  0  0  0  0  0  0  0  0  0
   -9.0423   -2.8523    3.9451 H   0  0  0  0  0  0  0  0  0  0  0  0
   -7.3745   -2.2787    3.9818 H   0  0  0  0  0  0  0  0  0  0  0  0
   -9.9605   -1.4143    0.6168 H   0  0  0  0  0  0  0  0  0  0  0  0
   -9.4599   -3.0652    0.9407 H   0  0  0  0  0  0  0  0  0  0  0  0
  -10.5953   -2.2595    2.0458 H   0  0  0  0  0  0  0  0  0  0  0  0
   -9.0533    0.5123    2.0646 H   0  0  0  0  0  0  0  0  0  0  0  0
   -8.1125    0.1552    3.5042 H   0  0  0  0  0  0  0  0  0  0  0  0
   -9.8128   -0.3110    3.4465 H   0  0  0  0  0  0  0  0  0  0  0  0
   -3.6790   -1.0227   -1.4583 H   0  0  0  0  0  0  0  0  0  0  0  0
   -3.1944   -2.2595   -0.3048 H   0  0  0  0  0  0  0  0  0  0  0  0
   -1.2561   -0.9250    0.4114 H   0  0  0  0  0  0  0  0  0  0  0  0
   -1.2693   -1.1031   -1.3564 H   0  0  0  0  0  0  0  0  0  0  0  0
    0.8128   -0.0595   -0.5265 H   0  0  0  0  0  0  0  0  0  0  0  0
    4.2995    0.0785   -2.4123 H   0  0  0  0  0  0  0  0  0  0  0  0
    6.7376   -1.3917   -1.5314 H   0  0  0  0  0  0  0  0  0  0  0  0
    5.1449   -2.0884   -1.8207 H   0  0  0  0  0  0  0  0  0  0  0  0
    5.5418    0.1851    0.2308 H   0  0  0  0  0  0  0  0  0  0  0  0
    3.5063   -0.0455   -0.4705 H   0  0  0  0  0  0  0  0  0  0  0  0
    7.5650   -0.6000    1.3044 H   0  0  0  0  0  0  0  0  0  0  0  0
    8.5858   -2.1907    2.8990 H   0  0  0  0  0  0  0  0  0  0  0  0
    7.4248   -4.3134    3.4572 H   0  0  0  0  0  0  0  0  0  0  0  0
    4.1991   -3.2378    0.8122 H   0  0  0  0  0  0  0  0  0  0  0  0
    7.9165    0.1844   -2.8382 H   0  0  0  0  0  0  0  0  0  0  0  0
    9.1264    2.2105   -2.7888 H   0  0  0  0  0  0  0  0  0  0  0  0
  1  2  1  0
  2  3  2  0
  3  4  1  0
  4  5  1  0
  5  6  1  0
  6  7  1  0
  7  8  1  0
  8  9  1  0
  9 10  1  0
 10 11  2  0
 10 12  1  0
 12 13  1  0
 13 14  1  0
 13 15  1  0
 13 16  1  0
  8 17  1  0
 17 18  1  0
  4 19  2  0
 19 20  1  0
 20 21  1  0
 21 22  1  0
 22 23  1  0
 23 24  2  0
 24 25  1  0
 25 26  1  0
 26 27  1  0
 27 28  1  0
 27 29  1  0
 29 30  2  0
 30 31  1  0
 31 32  2  0
 32 33  1  0
 33 34  1  0
 33 35  2  0
 24 36  1  0
 36 37  2  0
 37 38  1  0
 38 39  1  0
 39 40  2  0
 22 41  2  0
 41 42  1  0
 42  2  1  0
 18  5  1  0
 42 20  2  0
 39 23  1  0
 35 29  1  0
  1 43  1  0
  1 44  1  0
  1 45  1  0
  3 46  1  0
  6 47  1  0
  6 48  1  0
  7 49  1  0
  7 50  1  0
  8 51  1  0
  9 52  1  0
 14 53  1  0
 14 54  1  0
 14 55  1  0
 15 56  1  0
 15 57  1  0
 15 58  1  0
 16 59  1  0
 16 60  1  0
 16 61  1  0
 17 62  1  0
 17 63  1  0
 18 64  1  0
 18 65  1  0
 19 66  1  0
 25 67  1  0
 26 68  1  0
 26 69  1  0
 27 70  1  1
 28 71  1  0
 30 72  1  0
 31 73  1  0
 32 74  1  0
 35 75  1  0
 36 76  1  0
 37 77  1  0
M  CHG  2  21  -1  38  -1
M  END
$$$$
