
     RDKit          3D

 91 96  0  0  0  0  0  0  0  0999 V2000
   -1.5224    4.8011   -3.1338 C   0  0  0  0  0  0  0  0  0  0  0  0
   -1.5810    4.0664   -1.8335 C   0  0  0  0  0  0  0  0  0  0  0  0
   -0.7167    3.1442   -1.3635 C   0  0  0  0  0  0  0  0  0  0  0  0
    0.5323    2.6758   -2.0495 C   0  0  0  0  0  0  0  0  0  0  0  0
   -1.0300    2.5554   -0.0206 C   0  0  0  0  0  0  0  0  0  0  0  0
   -1.8960    2.9738    0.7322 O   0  0  0  0  0  0  0  0  0  0  0  0
   -0.2318    1.4825    0.1901 O   0  0  0  0  0  0  0  0  0  0  0  0
   -0.3568    0.7856    1.4584 C   0  0  2  0  0  0  0  0  0  0  0  0
    1.0201    0.8213    2.1396 C   0  0  2  0  0  0  0  0  0  0  0  0
    1.5717    2.1503    2.2921 O   0  0  0  0  0  0  0  0  0  0  0  0
    2.9608    2.1287    1.8451 C   0  0  0  0  0  0  0  0  0  0  0  0
    3.3742    0.6464    1.7760 C   0  0  2  0  0  0  0  0  0  0  0  0
    3.8161    0.2283    3.1947 C   0  0  0  0  0  0  0  0  0  0  0  0
    4.4599    0.2295    0.7583 C   0  0  2  0  0  0  0  0  0  0  0  0
    4.3041    0.9073   -0.5069 O   0  0  0  0  0  0  0  0  0  0  0  0
    5.0889    1.9984   -0.7182 C   0  0  0  0  0  0  0  0  0  0  0  0
    4.8586    2.5338   -2.0977 C   0  0  0  0  0  0  0  0  0  0  0  0
    5.8510    2.4937    0.0987 O   0  0  0  0  0  0  0  0  0  0  0  0
    4.3797   -1.2948    0.4599 C   0  0  0  0  0  0  0  0  0  0  0  0
    2.9657   -1.8300    0.0764 C   0  0  2  0  0  0  0  0  0  0  0  0
    2.6385   -1.3350   -1.2412 O   0  0  0  0  0  0  0  0  0  0  0  0
    3.0686   -2.0709   -2.3000 C   0  0  0  0  0  0  0  0  0  0  0  0
    2.5928   -1.4466   -3.5754 C   0  0  0  0  0  0  0  0  0  0  0  0
    3.7464   -3.0858   -2.2345 O   0  0  0  0  0  0  0  0  0  0  0  0
    1.8299   -1.3918    1.0890 C   0  0  1  0  0  0  0  0  0  0  0  0
    2.0135   -2.2241    2.3773 C   0  0  0  0  0  0  0  0  0  0  0  0
    2.0387    0.1084    1.2896 C   0  0  1  0  0  0  0  0  0  0  0  0
    0.3536   -1.5282    0.4642 C   0  0  1  0  0  0  0  0  0  0  0  0
   -0.0301   -3.0029    0.1723 C   0  0  0  0  0  0  0  0  0  0  0  0
   -1.3002   -3.1716   -0.6570 C   0  0  0  0  0  0  0  0  0  0  0  0
   -1.3705   -2.1320   -1.6213 O   0  0  0  0  0  0  0  0  0  0  0  0
   -2.0517   -0.9564   -1.1965 C   0  0  1  0  0  0  0  0  0  0  0  0
   -3.5164   -1.0739   -1.6131 C   0  0  0  0  0  0  0  0  0  0  0  0
   -4.3003   -0.2984   -0.5611 C   0  0  1  0  0  0  0  0  0  0  0  0
   -5.6321   -0.9027   -0.2702 C   0  0  0  0  0  0  0  0  0  0  0  0
   -6.8450   -0.3685   -0.4177 C   0  0  0  0  0  0  0  0  0  0  0  0
   -7.8955   -1.3090    0.0051 C   0  0  0  0  0  0  0  0  0  0  0  0
   -7.1806   -2.4678    0.4226 O   0  0  0  0  0  0  0  0  0  0  0  0
   -5.8427   -2.2542    0.2724 C   0  0  0  0  0  0  0  0  0  0  0  0
   -4.9744   -3.0625    0.5448 O   0  0  0  0  0  0  0  0  0  0  0  0
   -3.3544   -0.2450    0.6208 C   0  0  0  0  0  0  0  0  0  0  0  0
   -3.8838    0.3274    1.8988 C   0  0  0  0  0  0  0  0  0  0  0  0
   -2.1019   -0.6472    0.2948 C   0  0  0  0  0  0  0  0  0  0  0  0
   -0.8250   -0.6984    1.1805 C   0  0  2  0  0  0  0  0  0  0  0  0
   -1.2025   -1.3919    2.5146 C   0  0  0  0  0  0  0  0  0  0  0  0
   -1.3764    5.8697   -2.9490 H   0  0  0  0  0  0  0  0  0  0  0  0
   -2.4704    4.6751   -3.6667 H   0  0  0  0  0  0  0  0  0  0  0  0
   -0.7271    4.4570   -3.7975 H   0  0  0  0  0  0  0  0  0  0  0  0
   -2.4441    4.3341   -1.2214 H   0  0  0  0  0  0  0  0  0  0  0  0
    0.7839    3.2651   -2.9340 H   0  0  0  0  0  0  0  0  0  0  0  0
    1.3911    2.7506   -1.3735 H   0  0  0  0  0  0  0  0  0  0  0  0
    0.4282    1.6325   -2.3660 H   0  0  0  0  0  0  0  0  0  0  0  0
   -1.0611    1.3108    2.1103 H   0  0  0  0  0  0  0  0  0  0  0  0
    0.9379    0.4000    3.1457 H   0  0  0  0  0  0  0  0  0  0  0  0
    3.5632    2.7247    2.5374 H   0  0  0  0  0  0  0  0  0  0  0  0
    2.9731    2.6254    0.8705 H   0  0  0  0  0  0  0  0  0  0  0  0
    4.6730    0.8354    3.5126 H   0  0  0  0  0  0  0  0  0  0  0  0
    3.0318    0.3729    3.9435 H   0  0  0  0  0  0  0  0  0  0  0  0
    4.1458   -0.8096    3.2533 H   0  0  0  0  0  0  0  0  0  0  0  0
    5.4597    0.4313    1.1633 H   0  0  0  0  0  0  0  0  0  0  0  0
    3.8537    2.9560   -2.1674 H   0  0  0  0  0  0  0  0  0  0  0  0
    4.9922    1.7365   -2.8336 H   0  0  0  0  0  0  0  0  0  0  0  0
    5.5900    3.3194   -2.3080 H   0  0  0  0  0  0  0  0  0  0  0  0
    4.7510   -1.8492    1.3278 H   0  0  0  0  0  0  0  0  0  0  0  0
    5.0695   -1.5108   -0.3658 H   0  0  0  0  0  0  0  0  0  0  0  0
    2.9997   -2.9269    0.0501 H   0  0  0  0  0  0  0  0  0  0  0  0
    2.9247   -2.0535   -4.4224 H   0  0  0  0  0  0  0  0  0  0  0  0
    3.0152   -0.4436   -3.6763 H   0  0  0  0  0  0  0  0  0  0  0  0
    1.5004   -1.4065   -3.5827 H   0  0  0  0  0  0  0  0  0  0  0  0
    1.6811   -1.7006    3.2751 H   0  0  0  0  0  0  0  0  0  0  0  0
    1.4881   -3.1803    2.3334 H   0  0  0  0  0  0  0  0  0  0  0  0
    3.0576   -2.4946    2.5533 H   0  0  0  0  0  0  0  0  0  0  0  0
    1.9328    0.5374    0.2779 H   0  0  0  0  0  0  0  0  0  0  0  0
    0.4496   -1.0458   -0.5178 H   0  0  0  0  0  0  0  0  0  0  0  0
    0.7878   -3.4619   -0.3955 H   0  0  0  0  0  0  0  0  0  0  0  0
   -0.1371   -3.5941    1.0861 H   0  0  0  0  0  0  0  0  0  0  0  0
   -1.2474   -4.1234   -1.1969 H   0  0  0  0  0  0  0  0  0  0  0  0
   -2.2013   -3.2214   -0.0363 H   0  0  0  0  0  0  0  0  0  0  0  0
   -1.5911   -0.1115   -1.7215 H   0  0  0  0  0  0  0  0  0  0  0  0
   -3.6696   -0.6494   -2.6131 H   0  0  0  0  0  0  0  0  0  0  0  0
   -3.8235   -2.1247   -1.6885 H   0  0  0  0  0  0  0  0  0  0  0  0
   -4.4415    0.7331   -0.9143 H   0  0  0  0  0  0  0  0  0  0  0  0
   -7.0451    0.6257   -0.7901 H   0  0  0  0  0  0  0  0  0  0  0  0
   -8.4788   -0.9209    0.8449 H   0  0  0  0  0  0  0  0  0  0  0  0
   -8.5647   -1.5730   -0.8185 H   0  0  0  0  0  0  0  0  0  0  0  0
   -3.1096    0.7636    2.5288 H   0  0  0  0  0  0  0  0  0  0  0  0
   -4.5856    1.1420    1.6873 H   0  0  0  0  0  0  0  0  0  0  0  0
   -4.4124   -0.4394    2.4730 H   0  0  0  0  0  0  0  0  0  0  0  0
   -1.7534   -2.3239    2.3443 H   0  0  0  0  0  0  0  0  0  0  0  0
   -1.8241   -0.7621    3.1545 H   0  0  0  0  0  0  0  0  0  0  0  0
   -0.3402   -1.6396    3.1268 H   0  0  0  0  0  0  0  0  0  0  0  0
  1  2  1  0
  2  3  2  0
  3  4  1  0
  3  5  1  0
  5  6  2  0
  5  7  1  0
  7  8  1  0
  8  9  1  0
  9 10  1  0
 10 11  1  0
 11 12  1  0
 12 13  1  1
 12 14  1  0
 14 15  1  0
 15 16  1  0
 16 17  1  0
 16 18  2  0
 14 19  1  0
 19 20  1  0
 20 21  1  0
 21 22  1  0
 22 23  1  0
 22 24  2  0
 20 25  1  0
 25 26  1  1
 25 27  1  0
 25 28  1  0
 28 29  1  0
 29 30  1  0
 30 31  1  0
 31 32  1  0
 32 33  1  0
 33 34  1  0
 34 35  1  0
 35 36  2  0
 36 37  1  0
 37 38  1  0
 38 39  1  0
 39 40  2  0
 34 41  1  0
 41 42  1  0
 41 43  2  0
 43 44  1  0
 44 45  1  1
 44  8  1  0
 27  9  1  0
 44 28  1  0
 27 12  1  0
 43 32  1  0
 39 35  1  0
  1 46  1  0
  1 47  1  0
  1 48  1  0
  2 49  1  0
  4 50  1  0
  4 51  1  0
  4 52  1  0
  8 53  1  1
  9 54  1  1
 11 55  1  0
 11 56  1  0
 13 57  1  0
 13 58  1  0
 13 59  1  0
 14 60  1  1
 17 61  1  0
 17 62  1  0
 17 63  1  0
 19 64  1  0
 19 65  1  0
 20 66  1  6
 23 67  1  0
 23 68  1  0
 23 69  1  0
 26 70  1  0
 26 71  1  0
 26 72  1  0
 27 73  1  6
 28 74  1  6
 29 75  1  0
 29 76  1  0
 30 77  1  0
 30 78  1  0
 32 79  1  6
 33 80  1  0
 33 81  1  0
 34 82  1  6
 36 83  1  0
 37 84  1  0
 37 85  1  0
 42 86  1  0
 42 87  1  0
 42 88  1  0
 45 89  1  0
 45 90  1  0
 45 91  1  0
M  END
$$$$
