
     RDKit          3D

 83 87  0  0  0  0  0  0  0  0999 V2000
    6.1882   -1.5080    0.7710 C   0  0  0  0  0  0  0  0  0  0  0  0
    5.7510   -0.0496    0.5187 C   0  0  0  0  0  0  0  0  0  0  0  0
    6.6090    0.8495    1.4369 C   0  0  0  0  0  0  0  0  0  0  0  0
    6.0114    0.3623   -0.9416 C   0  0  0  0  0  0  0  0  0  0  0  0
    5.1796   -0.4405   -1.9360 C   0  0  0  0  0  0  0  0  0  0  0  0
    3.6520   -0.4093   -1.6687 C   0  0  2  0  0  0  0  0  0  0  0  0
    3.2157   -1.6320   -2.5510 C   0  0  0  0  0  0  0  0  0  0  0  0
    3.0868   -2.7378   -1.9511 O   0  0  0  0  0  0  0  0  0  0  0  0
    3.0775   -1.3963   -3.7873 O   0  0  0  0  0  0  0  0  0  0  0  0
    3.0398    0.8940   -2.2007 C   0  0  0  0  0  0  0  0  0  0  0  0
    1.5131    0.8552   -2.1341 C   0  0  0  0  0  0  0  0  0  0  0  0
    0.9342    0.5806   -0.7170 C   0  0  2  0  0  0  0  0  0  0  0  0
    0.9302    1.9686    0.0033 C   0  0  0  0  0  0  0  0  0  0  0  0
    1.8023   -0.3558    0.1505 C   0  0  0  0  0  0  0  0  0  0  0  0
    1.2478   -1.0431    1.1723 C   0  0  0  0  0  0  0  0  0  0  0  0
   -0.2049   -1.0476    1.5450 C   0  0  0  0  0  0  0  0  0  0  0  0
   -1.1291   -0.1823    0.6517 C   0  0  2  0  0  0  0  0  0  0  0  0
   -2.6790   -0.5052    0.7963 C   0  0  1  0  0  0  0  0  0  0  0  0
   -3.0190   -1.9581    0.3767 C   0  0  0  0  0  0  0  0  0  0  0  0
   -3.0768   -0.3383    2.2924 C   0  0  0  0  0  0  0  0  0  0  0  0
   -4.5844   -0.3161    2.5333 C   0  0  1  0  0  0  0  0  0  0  0  0
   -4.8456   -0.0348    3.9181 O   0  0  0  0  0  0  0  0  0  0  0  0
   -5.2765    0.7711    1.7032 C   0  0  2  0  0  0  0  0  0  0  0  0
   -6.6842    0.7172    1.9942 O   0  0  0  0  0  0  0  0  0  0  0  0
   -5.0102    0.6601    0.1745 C   0  0  2  0  0  0  0  0  0  0  0  0
   -5.5565    1.9665   -0.4726 C   0  0  0  0  0  0  0  0  0  0  0  0
   -5.7887   -0.5236   -0.4543 C   0  0  0  0  0  0  0  0  0  0  0  0
   -7.2028   -0.3470   -0.3765 O   0  0  0  0  0  0  0  0  0  0  0  0
   -3.4509    0.5807   -0.0454 C   0  0  2  0  0  0  0  0  0  0  0  0
   -3.0067    0.5511   -1.5222 C   0  0  0  0  0  0  0  0  0  0  0  0
   -1.5105    0.8536   -1.6634 C   0  0  0  0  0  0  0  0  0  0  0  0
   -0.5685   -0.0486   -0.8147 C   0  0  1  0  0  0  0  0  0  0  0  0
   -0.5174   -1.4416   -1.5208 C   0  0  0  0  0  0  0  0  0  0  0  0
    3.2939   -0.6029   -0.1730 C   0  0  2  0  0  0  0  0  0  0  0  0
    4.2434    0.1294    0.8316 C   0  0  2  0  0  0  0  0  0  0  0  0
    3.9592    1.5295    0.9119 O   0  0  0  0  0  0  0  0  0  0  0  0
    5.6245   -2.2318    0.1765 H   0  0  0  0  0  0  0  0  0  0  0  0
    7.2488   -1.6456    0.5311 H   0  0  0  0  0  0  0  0  0  0  0  0
    6.0502   -1.7784    1.8243 H   0  0  0  0  0  0  0  0  0  0  0  0
    7.6784    0.6804    1.2651 H   0  0  0  0  0  0  0  0  0  0  0  0
    6.4042    0.6411    2.4931 H   0  0  0  0  0  0  0  0  0  0  0  0
    6.4192    1.9141    1.2622 H   0  0  0  0  0  0  0  0  0  0  0  0
    7.0738    0.2311   -1.1847 H   0  0  0  0  0  0  0  0  0  0  0  0
    5.7998    1.4306   -1.0776 H   0  0  0  0  0  0  0  0  0  0  0  0
    5.3934   -0.0602   -2.9446 H   0  0  0  0  0  0  0  0  0  0  0  0
    5.5554   -1.4725   -1.9400 H   0  0  0  0  0  0  0  0  0  0  0  0
    3.4200    1.7566   -1.6434 H   0  0  0  0  0  0  0  0  0  0  0  0
    3.3327    1.0709   -3.2437 H   0  0  0  0  0  0  0  0  0  0  0  0
    1.1291    1.8126   -2.5124 H   0  0  0  0  0  0  0  0  0  0  0  0
    1.1662    0.1221   -2.8628 H   0  0  0  0  0  0  0  0  0  0  0  0
    0.1539    2.6392   -0.3700 H   0  0  0  0  0  0  0  0  0  0  0  0
    1.8690    2.5083   -0.1554 H   0  0  0  0  0  0  0  0  0  0  0  0
    0.7964    1.8856    1.0872 H   0  0  0  0  0  0  0  0  0  0  0  0
    1.8715   -1.7270    1.7461 H   0  0  0  0  0  0  0  0  0  0  0  0
   -0.5228   -2.0934    1.5455 H   0  0  0  0  0  0  0  0  0  0  0  0
   -0.2859   -0.7055    2.5841 H   0  0  0  0  0  0  0  0  0  0  0  0
   -1.0512    0.8273    1.0792 H   0  0  0  0  0  0  0  0  0  0  0  0
   -2.1832   -2.6465    0.5154 H   0  0  0  0  0  0  0  0  0  0  0  0
   -3.3283   -2.0410   -0.6663 H   0  0  0  0  0  0  0  0  0  0  0  0
   -3.8337   -2.3863    0.9661 H   0  0  0  0  0  0  0  0  0  0  0  0
   -2.6351   -1.1387    2.9003 H   0  0  0  0  0  0  0  0  0  0  0  0
   -2.6512    0.5922    2.6935 H   0  0  0  0  0  0  0  0  0  0  0  0
   -5.0447   -1.2896    2.3411 H   0  0  0  0  0  0  0  0  0  0  0  0
   -4.3674   -0.7047    4.4391 H   0  0  0  0  0  0  0  0  0  0  0  0
   -4.9379    1.7526    2.0625 H   0  0  0  0  0  0  0  0  0  0  0  0
   -6.7245    0.6999    2.9738 H   0  0  0  0  0  0  0  0  0  0  0  0
   -4.9570    2.8351   -0.1773 H   0  0  0  0  0  0  0  0  0  0  0  0
   -6.5893    2.1730   -0.1707 H   0  0  0  0  0  0  0  0  0  0  0  0
   -5.5521    1.9104   -1.5659 H   0  0  0  0  0  0  0  0  0  0  0  0
   -5.5428   -0.6397   -1.5140 H   0  0  0  0  0  0  0  0  0  0  0  0
   -5.5735   -1.4699    0.0408 H   0  0  0  0  0  0  0  0  0  0  0  0
   -7.3815    0.0152    0.5193 H   0  0  0  0  0  0  0  0  0  0  0  0
   -3.0855    1.5483    0.3388 H   0  0  0  0  0  0  0  0  0  0  0  0
   -3.5392    1.3148   -2.0981 H   0  0  0  0  0  0  0  0  0  0  0  0
   -3.2489   -0.4005   -2.0020 H   0  0  0  0  0  0  0  0  0  0  0  0
   -1.2425    0.7860   -2.7253 H   0  0  0  0  0  0  0  0  0  0  0  0
   -1.3853    1.9057   -1.3963 H   0  0  0  0  0  0  0  0  0  0  0  0
    0.0292   -2.1945   -0.9474 H   0  0  0  0  0  0  0  0  0  0  0  0
   -0.0513   -1.3943   -2.5073 H   0  0  0  0  0  0  0  0  0  0  0  0
   -1.5105   -1.8472   -1.7112 H   0  0  0  0  0  0  0  0  0  0  0  0
    3.4640   -1.6644    0.0540 H   0  0  0  0  0  0  0  0  0  0  0  0
    4.0571   -0.2666    1.8394 H   0  0  0  0  0  0  0  0  0  0  0  0
    3.0654    1.5843    1.2868 H   0  0  0  0  0  0  0  0  0  0  0  0
  1  2  1  0
  2  3  1  0
  2  4  1  0
  4  5  1  0
  5  6  1  0
  6  7  1  6
  7  8  2  0
  7  9  1  0
  6 10  1  0
 10 11  1  0
 11 12  1  0
 12 13  1  1
 12 14  1  0
 14 15  2  0
 15 16  1  0
 16 17  1  0
 17 18  1  0
 18 19  1  6
 18 20  1  0
 20 21  1  0
 21 22  1  0
 21 23  1  0
 23 24  1  0
 23 25  1  0
 25 26  1  6
 25 27  1  0
 27 28  1  0
 25 29  1  0
 29 30  1  0
 30 31  1  0
 31 32  1  0
 32 33  1  6
 14 34  1  0
 34 35  1  0
 35 36  1  0
 35  2  1  0
 34  6  1  0
 32 12  1  0
 32 17  1  0
 29 18  1  0
  1 37  1  0
  1 38  1  0
  1 39  1  0
  3 40  1  0
  3 41  1  0
  3 42  1  0
  4 43  1  0
  4 44  1  0
  5 45  1  0
  5 46  1  0
 10 47  1  0
 10 48  1  0
 11 49  1  0
 11 50  1  0
 13 51  1  0
 13 52  1  0
 13 53  1  0
 15 54  1  0
 16 55  1  0
 16 56  1  0
 17 57  1  1
 19 58  1  0
 19 59  1  0
 19 60  1  0
 20 61  1  0
 20 62  1  0
 21 63  1  6
 22 64  1  0
 23 65  1  1
 24 66  1  0
 26 67  1  0
 26 68  1  0
 26 69  1  0
 27 70  1  0
 27 71  1  0
 28 72  1  0
 29 73  1  1
 30 74  1  0
 30 75  1  0
 31 76  1  0
 31 77  1  0
 33 78  1  0
 33 79  1  0
 33 80  1  0
 34 81  1  1
 35 82  1  1
 36 83  1  0
M  CHG  1   9  -1
M  END
$$$$
