
     RDKit          3D

 53 57  0  0  0  0  0  0  0  0999 V2000
    4.3959    0.9340    0.3189 O   0  0  0  0  0  0  0  0  0  0  0  0
    4.2598   -0.2460    0.0280 C   0  0  0  0  0  0  0  0  0  0  0  0
    3.0604   -0.9419    0.0129 N   0  0  0  0  0  0  0  0  0  0  0  0
    1.7625   -0.4465    0.2651 C   0  0  0  0  0  0  0  0  0  0  0  0
    1.4690    0.8909    0.5406 C   0  0  0  0  0  0  0  0  0  0  0  0
    0.1459    1.2908    0.7704 C   0  0  0  0  0  0  0  0  0  0  0  0
   -0.8881    0.3556    0.7246 C   0  0  0  0  0  0  0  0  0  0  0  0
   -2.3853    0.8043    0.9809 C   0  0  0  0  0  0  0  0  0  0  0  0
   -3.4648   -0.0859    0.9476 N   0  0  0  0  0  0  0  0  0  0  0  0
   -4.5877    0.7848    1.2271 C   0  0  0  0  0  0  0  0  0  0  0  0
   -4.1832    2.0438    1.4098 C   0  0  0  0  0  0  0  0  0  0  0  0
   -5.3161    2.7914    1.6903 C   0  0  0  0  0  0  0  0  0  0  0  0
   -6.4316    2.0169    1.6972 N   0  0  0  0  0  0  0  0  0  0  0  0
   -5.9273    0.7673    1.3796 N   0  0  0  0  0  0  0  0  0  0  0  0
   -6.7758   -0.4024    1.3315 C   0  0  0  0  0  0  0  0  0  0  0  0
   -7.3903   -0.6033   -0.0332 C   0  0  0  0  0  0  0  0  0  0  0  0
   -6.6153   -1.1052   -1.0897 C   0  0  0  0  0  0  0  0  0  0  0  0
   -7.1764   -1.2928   -2.3533 C   0  0  0  0  0  0  0  0  0  0  0  0
   -8.5161   -0.9792   -2.5753 C   0  0  0  0  0  0  0  0  0  0  0  0
   -9.2937   -0.4704   -1.5360 C   0  0  0  0  0  0  0  0  0  0  0  0
   -8.7336   -0.2799   -0.2712 C   0  0  0  0  0  0  0  0  0  0  0  0
   -2.7546    2.1216    1.2614 N   0  0  0  0  0  0  0  0  0  0  0  0
   -0.6052   -0.9808    0.4505 C   0  0  0  0  0  0  0  0  0  0  0  0
    0.7140   -1.3789    0.2214 C   0  0  0  0  0  0  0  0  0  0  0  0
    5.3047   -1.0876   -0.3414 N   0  0  0  0  0  0  0  0  0  0  0  0
    6.6820   -0.7872   -0.3947 C   0  0  0  0  0  0  0  0  0  0  0  0
    7.5342   -1.7944   -0.8624 C   0  0  0  0  0  0  0  0  0  0  0  0
    8.9084   -1.5726   -0.9468 C   0  0  0  0  0  0  0  0  0  0  0  0
    9.9393   -2.8209   -1.5316 Cl  0  0  0  0  0  0  0  0  0  0  0  0
    9.4548   -0.3514   -0.5641 C   0  0  0  0  0  0  0  0  0  0  0  0
    8.6210    0.6663   -0.0810 C   0  0  0  0  0  0  0  0  0  0  0  0
    9.1912    2.0033    0.3226 C   0  0  0  0  0  0  0  0  0  0  0  0
   10.5287    1.9501    0.5872 F   0  0  0  0  0  0  0  0  0  0  0  0
    9.0460    2.9450   -0.6488 F   0  0  0  0  0  0  0  0  0  0  0  0
    8.6171    2.5177    1.4434 F   0  0  0  0  0  0  0  0  0  0  0  0
    7.2341    0.4374   -0.0066 C   0  0  0  0  0  0  0  0  0  0  0  0
    3.1046   -1.9301   -0.1709 H   0  0  0  0  0  0  0  0  0  0  0  0
    2.2384    1.6536    0.5830 H   0  0  0  0  0  0  0  0  0  0  0  0
   -0.0869    2.3316    0.9846 H   0  0  0  0  0  0  0  0  0  0  0  0
   -5.3959    3.8463    1.8994 H   0  0  0  0  0  0  0  0  0  0  0  0
   -6.1794   -1.2788    1.6117 H   0  0  0  0  0  0  0  0  0  0  0  0
   -7.5477   -0.2846    2.1010 H   0  0  0  0  0  0  0  0  0  0  0  0
   -5.5590   -1.3304   -0.9308 H   0  0  0  0  0  0  0  0  0  0  0  0
   -6.5586   -1.6699   -3.1634 H   0  0  0  0  0  0  0  0  0  0  0  0
   -8.9483   -1.1170   -3.5620 H   0  0  0  0  0  0  0  0  0  0  0  0
  -10.3331   -0.2092   -1.7119 H   0  0  0  0  0  0  0  0  0  0  0  0
   -9.3442    0.1372    0.5264 H   0  0  0  0  0  0  0  0  0  0  0  0
   -1.4192   -1.7008    0.4175 H   0  0  0  0  0  0  0  0  0  0  0  0
    0.8985   -2.4272    0.0100 H   0  0  0  0  0  0  0  0  0  0  0  0
    5.0377   -2.0114   -0.6422 H   0  0  0  0  0  0  0  0  0  0  0  0
    7.1351   -2.7573   -1.1694 H   0  0  0  0  0  0  0  0  0  0  0  0
   10.5286   -0.1891   -0.6383 H   0  0  0  0  0  0  0  0  0  0  0  0
    6.6053    1.2434    0.3670 H   0  0  0  0  0  0  0  0  0  0  0  0
  1  2  2  0
  2  3  1  0
  3  4  1  0
  4  5  2  0
  5  6  1  0
  6  7  2  0
  7  8  1  0
  8  9  2  0
  9 10  1  0
 10 11  2  0
 11 12  1  0
 12 13  2  0
 13 14  1  0
 14 15  1  0
 15 16  1  0
 16 17  2  0
 17 18  1  0
 18 19  2  0
 19 20  1  0
 20 21  2  0
 11 22  1  0
  7 23  1  0
 23 24  2  0
  2 25  1  0
 25 26  1  0
 26 27  2  0
 27 28  1  0
 28 29  1  0
 28 30  2  0
 30 31  1  0
 31 32  1  0
 32 33  1  0
 32 34  1  0
 32 35  1  0
 31 36  2  0
 24  4  1  0
 36 26  1  0
 22  8  1  0
 14 10  1  0
 21 16  1  0
  3 37  1  0
  5 38  1  0
  6 39  1  0
 12 40  1  0
 15 41  1  0
 15 42  1  0
 17 43  1  0
 18 44  1  0
 19 45  1  0
 20 46  1  0
 21 47  1  0
 23 48  1  0
 24 49  1  0
 25 50  1  0
 27 51  1  0
 30 52  1  0
 36 53  1  0
M  CHG  1  22  -1
M  END
$$$$
