
     RDKit          3D

 68 73  0  0  0  0  0  0  0  0999 V2000
   -0.3681   -0.3466   -4.2071 C   0  0  0  0  0  0  0  0  0  0  0  0
    0.9284   -0.3570   -3.4411 C   0  0  0  0  0  0  0  0  0  0  0  0
    2.1174   -0.5904   -4.1535 C   0  0  0  0  0  0  0  0  0  0  0  0
    3.3541   -0.6083   -3.5074 C   0  0  0  0  0  0  0  0  0  0  0  0
    3.4244   -0.3966   -2.1368 C   0  0  0  0  0  0  0  0  0  0  0  0
    4.6271   -0.3883   -1.3977 N   0  0  0  0  0  0  0  0  0  0  0  0
    5.9043   -0.6304   -1.8660 C   0  0  0  0  0  0  0  0  0  0  0  0
    6.2231   -0.9796   -2.9961 O   0  0  0  0  0  0  0  0  0  0  0  0
    6.9839   -0.4756   -0.8487 C   0  0  0  0  0  0  0  0  0  0  0  0
    8.0889   -1.3321   -0.9143 C   0  0  0  0  0  0  0  0  0  0  0  0
    9.1237   -1.2159    0.0134 C   0  0  0  0  0  0  0  0  0  0  0  0
    9.0640   -0.2374    1.0066 C   0  0  0  0  0  0  0  0  0  0  0  0
    7.9693    0.6385    1.0824 C   0  0  0  0  0  0  0  0  0  0  0  0
    7.9239    1.7231    2.1314 C   0  0  0  0  0  0  0  0  0  0  0  0
    8.4258    2.9036    1.6788 F   0  0  0  0  0  0  0  0  0  0  0  0
    8.6334    1.4163    3.2526 F   0  0  0  0  0  0  0  0  0  0  0  0
    6.6573    1.9910    2.5560 F   0  0  0  0  0  0  0  0  0  0  0  0
    6.9338    0.5192    0.1383 C   0  0  0  0  0  0  0  0  0  0  0  0
    2.2378   -0.1638   -1.4241 C   0  0  0  0  0  0  0  0  0  0  0  0
    0.9768   -0.1397   -2.0445 C   0  0  0  0  0  0  0  0  0  0  0  0
   -0.2165    0.1040   -1.3285 N   0  0  0  0  0  0  0  0  0  0  0  0
   -0.3984    0.4425   -0.0246 C   0  0  0  0  0  0  0  0  0  0  0  0
    0.5137    0.6527    0.9004 N   0  0  0  0  0  0  0  0  0  0  0  0
   -0.1558    1.0345    2.0233 C   0  0  0  0  0  0  0  0  0  0  0  0
    0.3755    1.4201    3.2645 C   0  0  0  0  0  0  0  0  0  0  0  0
   -0.4908    1.8535    4.2707 C   0  0  0  0  0  0  0  0  0  0  0  0
   -1.8612    1.9201    4.0381 C   0  0  0  0  0  0  0  0  0  0  0  0
   -2.4080    1.5315    2.8084 C   0  0  0  0  0  0  0  0  0  0  0  0
   -1.5331    1.0481    1.8166 C   0  0  0  0  0  0  0  0  0  0  0  0
   -1.6912    0.5693    0.5149 N   0  0  0  0  0  0  0  0  0  0  0  0
   -2.9110    0.2550   -0.1750 C   0  0  0  0  0  0  0  0  0  0  0  0
   -4.0622   -0.0444    0.5330 C   0  0  0  0  0  0  0  0  0  0  0  0
   -5.2147   -0.3354   -0.1798 C   0  0  0  0  0  0  0  0  0  0  0  0
   -6.4019   -0.6582    0.4712 N   0  0  0  0  0  0  0  0  0  0  0  0
   -6.8354    0.1519    1.6217 C   0  0  0  0  0  0  0  0  0  0  0  0
   -7.9830   -0.5445    2.3699 C   0  0  0  0  0  0  0  0  0  0  0  0
   -9.0704   -0.8660    1.4923 O   0  0  0  0  0  0  0  0  0  0  0  0
   -8.6187   -1.7601    0.4638 C   0  0  0  0  0  0  0  0  0  0  0  0
   -7.5062   -1.1301   -0.3867 C   0  0  0  0  0  0  0  0  0  0  0  0
   -5.1903   -0.3582   -1.5229 N   0  0  0  0  0  0  0  0  0  0  0  0
   -4.0316   -0.0880   -2.1312 C   0  0  0  0  0  0  0  0  0  0  0  0
   -2.8764    0.2101   -1.5271 N   0  0  0  0  0  0  0  0  0  0  0  0
   -1.0256   -1.1461   -3.8509 H   0  0  0  0  0  0  0  0  0  0  0  0
   -0.8686    0.6207   -4.0955 H   0  0  0  0  0  0  0  0  0  0  0  0
   -0.2068   -0.5079   -5.2784 H   0  0  0  0  0  0  0  0  0  0  0  0
    2.0925   -0.7588   -5.2282 H   0  0  0  0  0  0  0  0  0  0  0  0
    4.2413   -0.7871   -4.1059 H   0  0  0  0  0  0  0  0  0  0  0  0
    4.5155   -0.2197   -0.4061 H   0  0  0  0  0  0  0  0  0  0  0  0
    8.1439   -2.0920   -1.6922 H   0  0  0  0  0  0  0  0  0  0  0  0
    9.9793   -1.8852   -0.0433 H   0  0  0  0  0  0  0  0  0  0  0  0
    9.8832   -0.1545    1.7204 H   0  0  0  0  0  0  0  0  0  0  0  0
    6.1069    1.2273    0.1661 H   0  0  0  0  0  0  0  0  0  0  0  0
    2.3049   -0.0043   -0.3534 H   0  0  0  0  0  0  0  0  0  0  0  0
   -1.0630    0.0257   -1.8909 H   0  0  0  0  0  0  0  0  0  0  0  0
    1.4486    1.3991    3.4228 H   0  0  0  0  0  0  0  0  0  0  0  0
   -0.0859    2.1635    5.2311 H   0  0  0  0  0  0  0  0  0  0  0  0
   -2.5179    2.2929    4.8221 H   0  0  0  0  0  0  0  0  0  0  0  0
   -3.4739    1.6424    2.6457 H   0  0  0  0  0  0  0  0  0  0  0  0
   -4.0604   -0.1469    1.6067 H   0  0  0  0  0  0  0  0  0  0  0  0
   -6.0270    0.3284    2.3377 H   0  0  0  0  0  0  0  0  0  0  0  0
   -7.1810    1.1257    1.2527 H   0  0  0  0  0  0  0  0  0  0  0  0
   -7.6329   -1.4628    2.8568 H   0  0  0  0  0  0  0  0  0  0  0  0
   -8.3708    0.1175    3.1507 H   0  0  0  0  0  0  0  0  0  0  0  0
   -8.2768   -2.6931    0.9280 H   0  0  0  0  0  0  0  0  0  0  0  0
   -9.4787   -2.0003   -0.1693 H   0  0  0  0  0  0  0  0  0  0  0  0
   -7.1612   -1.8851   -1.1034 H   0  0  0  0  0  0  0  0  0  0  0  0
   -7.9161   -0.2775   -0.9430 H   0  0  0  0  0  0  0  0  0  0  0  0
   -4.0313   -0.1160   -3.2156 H   0  0  0  0  0  0  0  0  0  0  0  0
  1  2  1  0
  2  3  2  0
  3  4  1  0
  4  5  2  0
  5  6  1  0
  6  7  1  0
  7  8  2  0
  7  9  1  0
  9 10  2  0
 10 11  1  0
 11 12  2  0
 12 13  1  0
 13 14  1  0
 14 15  1  0
 14 16  1  0
 14 17  1  0
 13 18  2  0
  5 19  1  0
 19 20  2  0
 20 21  1  0
 21 22  1  0
 22 23  2  0
 23 24  1  0
 24 25  2  0
 25 26  1  0
 26 27  2  0
 27 28  1  0
 28 29  2  0
 29 30  1  0
 30 31  1  0
 31 32  2  0
 32 33  1  0
 33 34  1  0
 34 35  1  0
 35 36  1  0
 36 37  1  0
 37 38  1  0
 38 39  1  0
 33 40  2  0
 40 41  1  0
 41 42  2  0
 20  2  1  0
 30 22  1  0
 42 31  1  0
 18  9  1  0
 29 24  1  0
 39 34  1  0
  1 43  1  0
  1 44  1  0
  1 45  1  0
  3 46  1  0
  4 47  1  0
  6 48  1  0
 10 49  1  0
 11 50  1  0
 12 51  1  0
 18 52  1  0
 19 53  1  0
 21 54  1  0
 25 55  1  0
 26 56  1  0
 27 57  1  0
 28 58  1  0
 32 59  1  0
 35 60  1  0
 35 61  1  0
 36 62  1  0
 36 63  1  0
 38 64  1  0
 38 65  1  0
 39 66  1  0
 39 67  1  0
 41 68  1  0
M  END
$$$$
