
     RDKit          3D

 56 59  0  0  0  0  0  0  0  0999 V2000
    7.3840   -1.8691    0.2824 C   0  0  0  0  0  0  0  0  0  0  0  0
    7.3766   -0.3363    0.2707 C   0  0  0  0  0  0  0  0  0  0  0  0
    7.5927    0.2485    1.6709 C   0  0  0  0  0  0  0  0  0  0  0  0
    8.5098    0.1522   -0.6447 C   0  0  0  0  0  0  0  0  0  0  0  0
    6.1646    0.1806   -0.3359 O   0  0  0  0  0  0  0  0  0  0  0  0
    4.9565   -0.0637    0.2192 C   0  0  0  0  0  0  0  0  0  0  0  0
    4.7420   -0.7086    1.2330 O   0  0  0  0  0  0  0  0  0  0  0  0
    3.9976    0.5268   -0.5451 N   0  0  0  0  0  0  0  0  0  0  0  0
    2.5898    0.4621   -0.2323 C   0  0  0  0  0  0  0  0  0  0  0  0
    1.9627   -0.8303   -0.7554 C   0  0  0  0  0  0  0  0  0  0  0  0
    0.5049   -0.9871   -0.3305 C   0  0  0  0  0  0  0  0  0  0  0  0
   -0.4394   -0.0195   -1.0241 C   0  0  0  0  0  0  0  0  0  0  0  0
   -0.0671    0.7588   -1.8924 O   0  0  0  0  0  0  0  0  0  0  0  0
   -1.7368   -0.1476   -0.5569 N   0  0  0  0  0  0  0  0  0  0  0  0
   -2.8349    0.5846   -0.9573 C   0  0  0  0  0  0  0  0  0  0  0  0
   -2.8696    1.5347   -1.8399 N   0  0  0  0  0  0  0  0  0  0  0  0
   -4.1155    2.1664   -2.1073 C   0  0  0  0  0  0  0  0  0  0  0  0
   -4.1596    3.1872   -3.0560 C   0  0  0  0  0  0  0  0  0  0  0  0
   -5.3676    3.8301   -3.3437 C   0  0  0  0  0  0  0  0  0  0  0  0
   -6.5379    3.4521   -2.6810 C   0  0  0  0  0  0  0  0  0  0  0  0
   -8.0169    4.2522   -3.0455 Cl  0  0  0  0  0  0  0  0  0  0  0  0
   -6.5202    2.4350   -1.7290 C   0  0  0  0  0  0  0  0  0  0  0  0
   -5.3130    1.7958   -1.4447 C   0  0  0  0  0  0  0  0  0  0  0  0
   -5.2046    0.7296   -0.4704 C   0  0  0  0  0  0  0  0  0  0  0  0
   -6.0804    0.1434    0.3120 N   0  0  0  0  0  0  0  0  0  0  0  0
   -5.3206   -0.7891    0.9904 C   0  0  0  0  0  0  0  0  0  0  0  0
   -5.9417   -1.7487    2.0584 C   0  0  0  0  0  0  0  0  0  0  0  0
   -5.2593   -2.7078    2.7832 C   0  0  0  0  0  0  0  0  0  0  0  0
   -6.2091   -3.3359    3.6255 C   0  0  0  0  0  0  0  0  0  0  0  0
   -7.4116   -2.7238    3.3648 C   0  0  0  0  0  0  0  0  0  0  0  0
   -7.2610   -1.7626    2.4187 O   0  0  0  0  0  0  0  0  0  0  0  0
   -4.0130   -0.8078    0.6636 N   0  0  0  0  0  0  0  0  0  0  0  0
   -3.9780    0.1721   -0.2689 N   0  0  0  0  0  0  0  0  0  0  0  0
    8.3610   -2.2604    0.5857 H   0  0  0  0  0  0  0  0  0  0  0  0
    6.6399   -2.2765    0.9733 H   0  0  0  0  0  0  0  0  0  0  0  0
    7.1421   -2.2665   -0.7098 H   0  0  0  0  0  0  0  0  0  0  0  0
    8.5828   -0.0094    2.0619 H   0  0  0  0  0  0  0  0  0  0  0  0
    7.4976    1.3400    1.6552 H   0  0  0  0  0  0  0  0  0  0  0  0
    6.8523   -0.1205    2.3871 H   0  0  0  0  0  0  0  0  0  0  0  0
    8.5146    1.2467   -0.7086 H   0  0  0  0  0  0  0  0  0  0  0  0
    9.4915   -0.1777   -0.2890 H   0  0  0  0  0  0  0  0  0  0  0  0
    8.3705   -0.2162   -1.6678 H   0  0  0  0  0  0  0  0  0  0  0  0
    4.3170    1.0225   -1.3657 H   0  0  0  0  0  0  0  0  0  0  0  0
    2.1238    1.3440   -0.6808 H   0  0  0  0  0  0  0  0  0  0  0  0
    2.4698    0.5304    0.8549 H   0  0  0  0  0  0  0  0  0  0  0  0
    2.5274   -1.6889   -0.3710 H   0  0  0  0  0  0  0  0  0  0  0  0
    2.0507   -0.8676   -1.8484 H   0  0  0  0  0  0  0  0  0  0  0  0
    0.1709   -2.0023   -0.5777 H   0  0  0  0  0  0  0  0  0  0  0  0
    0.4097   -0.8624    0.7546 H   0  0  0  0  0  0  0  0  0  0  0  0
   -1.9194   -0.8497    0.1562 H   0  0  0  0  0  0  0  0  0  0  0  0
   -3.2481    3.4808   -3.5717 H   0  0  0  0  0  0  0  0  0  0  0  0
   -5.3878    4.6245   -4.0859 H   0  0  0  0  0  0  0  0  0  0  0  0
   -7.4317    2.1416   -1.2138 H   0  0  0  0  0  0  0  0  0  0  0  0
   -4.2028   -2.9233    2.7086 H   0  0  0  0  0  0  0  0  0  0  0  0
   -6.0397   -4.1344    4.3342 H   0  0  0  0  0  0  0  0  0  0  0  0
   -8.4156   -2.8485    3.7467 H   0  0  0  0  0  0  0  0  0  0  0  0
  1  2  1  0
  2  3  1  0
  2  4  1  0
  2  5  1  0
  5  6  1  0
  6  7  2  0
  6  8  1  0
  8  9  1  0
  9 10  1  0
 10 11  1  0
 11 12  1  0
 12 13  2  0
 12 14  1  0
 14 15  1  0
 15 16  2  0
 16 17  1  0
 17 18  2  0
 18 19  1  0
 19 20  2  0
 20 21  1  0
 20 22  1  0
 22 23  2  0
 23 24  1  0
 24 25  2  0
 25 26  1  0
 26 27  1  0
 27 28  2  0
 28 29  1  0
 29 30  2  0
 30 31  1  0
 26 32  2  0
 32 33  1  0
 33 15  1  0
 23 17  1  0
 33 24  1  0
 31 27  1  0
  1 34  1  0
  1 35  1  0
  1 36  1  0
  3 37  1  0
  3 38  1  0
  3 39  1  0
  4 40  1  0
  4 41  1  0
  4 42  1  0
  8 43  1  0
  9 44  1  0
  9 45  1  0
 10 46  1  0
 10 47  1  0
 11 48  1  0
 11 49  1  0
 14 50  1  0
 18 51  1  0
 19 52  1  0
 22 53  1  0
 28 54  1  0
 29 55  1  0
 30 56  1  0
M  END
$$$$
