
     RDKit          3D

 56 58  0  0  0  0  0  0  0  0999 V2000
   -4.7836    1.3921    1.0146 C   0  0  0  0  0  0  0  0  0  0  0  0
   -4.1010    2.6465    0.5021 C   0  0  0  0  0  0  0  0  0  0  0  0
   -2.7709    2.3431    0.0576 O   0  0  0  0  0  0  0  0  0  0  0  0
   -1.8182    2.3452    1.0197 C   0  0  0  0  0  0  0  0  0  0  0  0
   -1.9507    2.6107    2.2010 O   0  0  0  0  0  0  0  0  0  0  0  0
   -0.5287    2.0187    0.3927 C   0  0  0  0  0  0  0  0  0  0  0  0
    0.4731    2.9886    0.3537 C   0  0  0  0  0  0  0  0  0  0  0  0
    0.2830    4.3598    0.9362 C   0  0  0  0  0  0  0  0  0  0  0  0
    1.6829    2.7534   -0.2191 N   0  0  0  0  0  0  0  0  0  0  0  0
    1.9265    1.5342   -0.7750 C   0  0  0  0  0  0  0  0  0  0  0  0
    3.2576    1.4132   -1.3973 C   0  0  0  0  0  0  0  0  0  0  0  0
    4.4151    1.7210   -0.6612 C   0  0  0  0  0  0  0  0  0  0  0  0
    5.6861    1.6042   -1.2297 C   0  0  0  0  0  0  0  0  0  0  0  0
    5.8220    1.1846   -2.5501 C   0  0  0  0  0  0  0  0  0  0  0  0
    4.6890    0.8897   -3.3038 C   0  0  0  0  0  0  0  0  0  0  0  0
    3.4180    1.0079   -2.7342 C   0  0  0  0  0  0  0  0  0  0  0  0
    0.9740    0.5140   -0.7367 C   0  0  0  0  0  0  0  0  0  0  0  0
    1.2891   -0.8096   -1.2862 C   0  0  0  0  0  0  0  0  0  0  0  0
    0.7973   -1.2566   -2.3078 O   0  0  0  0  0  0  0  0  0  0  0  0
    2.1672   -1.4153   -0.4536 O   0  0  0  0  0  0  0  0  0  0  0  0
    2.5693   -2.7209   -0.8813 C   0  0  0  0  0  0  0  0  0  0  0  0
    3.5944   -3.2451    0.1047 C   0  0  0  0  0  0  0  0  0  0  0  0
   -0.2802    0.7469   -0.1482 C   0  0  0  0  0  0  0  0  0  0  0  0
   -1.2756   -0.3355   -0.0746 C   0  0  0  0  0  0  0  0  0  0  0  0
   -1.5461   -0.9687    1.0772 C   0  0  0  0  0  0  0  0  0  0  0  0
   -2.5260   -2.0568    1.1906 C   0  0  0  0  0  0  0  0  0  0  0  0
   -3.3077   -2.1445    2.3497 C   0  0  0  0  0  0  0  0  0  0  0  0
   -4.2345   -3.1779    2.5058 C   0  0  0  0  0  0  0  0  0  0  0  0
   -4.3800   -4.1408    1.5094 C   0  0  0  0  0  0  0  0  0  0  0  0
   -3.5961   -4.0737    0.3594 C   0  0  0  0  0  0  0  0  0  0  0  0
   -2.6696   -3.0397    0.2024 C   0  0  0  0  0  0  0  0  0  0  0  0
   -4.7665    0.6052    0.2535 H   0  0  0  0  0  0  0  0  0  0  0  0
   -4.2670    0.9973    1.8949 H   0  0  0  0  0  0  0  0  0  0  0  0
   -5.8226    1.5993    1.2858 H   0  0  0  0  0  0  0  0  0  0  0  0
   -4.6466    3.0347   -0.3641 H   0  0  0  0  0  0  0  0  0  0  0  0
   -4.0944    3.4377    1.2607 H   0  0  0  0  0  0  0  0  0  0  0  0
    0.1791    4.3019    2.0238 H   0  0  0  0  0  0  0  0  0  0  0  0
   -0.6004    4.8428    0.5072 H   0  0  0  0  0  0  0  0  0  0  0  0
    1.1474    4.9957    0.7167 H   0  0  0  0  0  0  0  0  0  0  0  0
    4.3260    2.0577    0.3705 H   0  0  0  0  0  0  0  0  0  0  0  0
    6.5670    1.8456   -0.6407 H   0  0  0  0  0  0  0  0  0  0  0  0
    6.8100    1.0960   -2.9943 H   0  0  0  0  0  0  0  0  0  0  0  0
    4.7913    0.5728   -4.3387 H   0  0  0  0  0  0  0  0  0  0  0  0
    2.5502    0.7871   -3.3540 H   0  0  0  0  0  0  0  0  0  0  0  0
    1.6983   -3.3853   -0.9013 H   0  0  0  0  0  0  0  0  0  0  0  0
    3.0136   -2.6643   -1.8816 H   0  0  0  0  0  0  0  0  0  0  0  0
    4.4609   -2.5771    0.1508 H   0  0  0  0  0  0  0  0  0  0  0  0
    3.1716   -3.2882    1.1139 H   0  0  0  0  0  0  0  0  0  0  0  0
    3.9336   -4.2451   -0.1794 H   0  0  0  0  0  0  0  0  0  0  0  0
   -1.7659   -0.5953   -1.0106 H   0  0  0  0  0  0  0  0  0  0  0  0
   -1.0533   -0.6814    2.0043 H   0  0  0  0  0  0  0  0  0  0  0  0
   -3.2093   -1.4014    3.1383 H   0  0  0  0  0  0  0  0  0  0  0  0
   -4.8411   -3.2307    3.4061 H   0  0  0  0  0  0  0  0  0  0  0  0
   -5.1000   -4.9458    1.6311 H   0  0  0  0  0  0  0  0  0  0  0  0
   -3.7009   -4.8290   -0.4152 H   0  0  0  0  0  0  0  0  0  0  0  0
   -2.0562   -3.0189   -0.6957 H   0  0  0  0  0  0  0  0  0  0  0  0
  1  2  1  0
  2  3  1  0
  3  4  1  0
  4  5  2  0
  4  6  1  0
  6  7  2  0
  7  8  1  0
  7  9  1  0
  9 10  2  0
 10 11  1  0
 11 12  2  0
 12 13  1  0
 13 14  2  0
 14 15  1  0
 15 16  2  0
 10 17  1  0
 17 18  1  0
 18 19  2  0
 18 20  1  0
 20 21  1  0
 21 22  1  0
 17 23  2  0
 23 24  1  0
 24 25  2  0
 25 26  1  0
 26 27  2  0
 27 28  1  0
 28 29  2  0
 29 30  1  0
 30 31  2  0
 23  6  1  0
 31 26  1  0
 16 11  1  0
  1 32  1  0
  1 33  1  0
  1 34  1  0
  2 35  1  0
  2 36  1  0
  8 37  1  0
  8 38  1  0
  8 39  1  0
 12 40  1  0
 13 41  1  0
 14 42  1  0
 15 43  1  0
 16 44  1  0
 21 45  1  0
 21 46  1  0
 22 47  1  0
 22 48  1  0
 22 49  1  0
 24 50  1  0
 25 51  1  0
 27 52  1  0
 28 53  1  0
 29 54  1  0
 30 55  1  0
 31 56  1  0
M  END
$$$$
