
     RDKit          3D

 48 51  0  0  0  0  0  0  0  0999 V2000
    1.6383   -1.3172   -2.4161 C   0  0  0  0  0  0  0  0  0  0  0  0
    2.1161   -0.7377   -1.1708 N   0  0  0  0  0  0  0  0  0  0  0  0
    3.4912   -0.5729   -1.0076 C   0  0  0  0  0  0  0  0  0  0  0  0
    4.3201   -0.8910   -1.8604 O   0  0  0  0  0  0  0  0  0  0  0  0
    3.9623    0.0261    0.2841 C   0  0  0  0  0  0  0  0  0  0  0  0
    5.4086    0.2225    0.5082 C   0  0  0  0  0  0  0  0  0  0  0  0
    6.0437    1.4181    0.1254 C   0  0  0  0  0  0  0  0  0  0  0  0
    5.1705    2.7285   -0.5967 Cl  0  0  0  0  0  0  0  0  0  0  0  0
    7.4174    1.5967    0.3257 C   0  0  0  0  0  0  0  0  0  0  0  0
    8.1785    0.5858    0.9083 C   0  0  0  0  0  0  0  0  0  0  0  0
    7.5665   -0.6051    1.2927 C   0  0  0  0  0  0  0  0  0  0  0  0
    6.1931   -0.7878    1.0942 C   0  0  0  0  0  0  0  0  0  0  0  0
    5.5108   -2.2945    1.6091 Cl  0  0  0  0  0  0  0  0  0  0  0  0
    3.0894    0.3855    1.2372 C   0  0  0  0  0  0  0  0  0  0  0  0
    1.6612    0.1973    1.0284 C   0  0  0  0  0  0  0  0  0  0  0  0
    0.7325    0.5586    1.9921 C   0  0  0  0  0  0  0  0  0  0  0  0
   -0.6036    0.4075    1.8532 N   0  0  0  0  0  0  0  0  0  0  0  0
   -1.0632   -0.1288    0.7097 C   0  0  0  0  0  0  0  0  0  0  0  0
   -2.4252   -0.2374    0.6505 N   0  0  0  0  0  0  0  0  0  0  0  0
   -3.1771   -0.9240   -0.3706 C   0  0  0  0  0  0  0  0  0  0  0  0
   -4.6754   -0.7184   -0.1639 C   0  0  0  0  0  0  0  0  0  0  0  0
   -5.0907    0.7314   -0.4099 C   0  0  0  0  0  0  0  0  0  0  0  0
   -6.5235    0.9099   -0.2827 N   0  0  0  0  0  0  0  0  0  0  0  0
   -7.4446    0.8021   -1.2857 C   0  0  0  0  0  0  0  0  0  0  0  0
   -8.6538    1.0582   -0.6819 C   0  0  0  0  0  0  0  0  0  0  0  0
   -8.4852    1.3205    0.6533 N   0  0  0  0  0  0  0  0  0  0  0  0
   -7.1912    1.2304    0.8638 C   0  0  0  0  0  0  0  0  0  0  0  0
   -0.2021   -0.5164   -0.3105 C   0  0  0  0  0  0  0  0  0  0  0  0
    1.1817   -0.3560   -0.1576 C   0  0  0  0  0  0  0  0  0  0  0  0
    1.0947   -2.2426   -2.2011 H   0  0  0  0  0  0  0  0  0  0  0  0
    0.9841   -0.6005   -2.9228 H   0  0  0  0  0  0  0  0  0  0  0  0
    2.4577   -1.5616   -3.0978 H   0  0  0  0  0  0  0  0  0  0  0  0
    7.9001    2.5237    0.0239 H   0  0  0  0  0  0  0  0  0  0  0  0
    9.2466    0.7243    1.0588 H   0  0  0  0  0  0  0  0  0  0  0  0
    8.1655   -1.3931    1.7440 H   0  0  0  0  0  0  0  0  0  0  0  0
    3.4184    0.8199    2.1760 H   0  0  0  0  0  0  0  0  0  0  0  0
    1.0372    0.9960    2.9391 H   0  0  0  0  0  0  0  0  0  0  0  0
   -2.8640    0.0450    1.5203 H   0  0  0  0  0  0  0  0  0  0  0  0
   -2.9546   -1.9965   -0.3286 H   0  0  0  0  0  0  0  0  0  0  0  0
   -2.9008   -0.5626   -1.3681 H   0  0  0  0  0  0  0  0  0  0  0  0
   -5.2185   -1.3750   -0.8553 H   0  0  0  0  0  0  0  0  0  0  0  0
   -4.9636   -1.0246    0.8499 H   0  0  0  0  0  0  0  0  0  0  0  0
   -4.8093    1.0546   -1.4189 H   0  0  0  0  0  0  0  0  0  0  0  0
   -4.6127    1.4129    0.3028 H   0  0  0  0  0  0  0  0  0  0  0  0
   -7.1808    0.5616   -2.3057 H   0  0  0  0  0  0  0  0  0  0  0  0
   -9.6359    1.0689   -1.1367 H   0  0  0  0  0  0  0  0  0  0  0  0
   -6.6961    1.3832    1.8141 H   0  0  0  0  0  0  0  0  0  0  0  0
   -0.6142   -0.9406   -1.2153 H   0  0  0  0  0  0  0  0  0  0  0  0
  1  2  1  0
  2  3  1  0
  3  4  2  0
  3  5  1  0
  5  6  1  0
  6  7  2  0
  7  8  1  0
  7  9  1  0
  9 10  2  0
 10 11  1  0
 11 12  2  0
 12 13  1  0
  5 14  2  0
 14 15  1  0
 15 16  2  0
 16 17  1  0
 17 18  2  0
 18 19  1  0
 19 20  1  0
 20 21  1  0
 21 22  1  0
 22 23  1  0
 23 24  1  0
 24 25  2  0
 25 26  1  0
 26 27  2  0
 18 28  1  0
 28 29  2  0
 29  2  1  0
 12  6  1  0
 29 15  1  0
 27 23  1  0
  1 30  1  0
  1 31  1  0
  1 32  1  0
  9 33  1  0
 10 34  1  0
 11 35  1  0
 14 36  1  0
 16 37  1  0
 19 38  1  0
 20 39  1  0
 20 40  1  0
 21 41  1  0
 21 42  1  0
 22 43  1  0
 22 44  1  0
 24 45  1  0
 25 46  1  0
 27 47  1  0
 28 48  1  0
M  END
$$$$
