
     RDKit          3D

 39 42  0  0  0  0  0  0  0  0999 V2000
    3.2433    2.5979    1.2071 O   0  0  0  0  0  0  0  0  0  0  0  0
    2.5943    1.6379    0.7985 C   0  0  0  0  0  0  0  0  0  0  0  0
    2.9621    0.2744    1.2719 C   0  0  0  0  0  0  0  0  0  0  0  0
    3.5727    0.1513    2.5275 C   0  0  0  0  0  0  0  0  0  0  0  0
    3.9514   -1.1039    3.0071 C   0  0  0  0  0  0  0  0  0  0  0  0
    3.7327   -2.2410    2.2311 C   0  0  0  0  0  0  0  0  0  0  0  0
    3.1426   -2.1249    0.9730 C   0  0  0  0  0  0  0  0  0  0  0  0
    2.7625   -0.8703    0.4895 C   0  0  0  0  0  0  0  0  0  0  0  0
    1.4515    1.8438   -0.1215 C   0  0  0  0  0  0  0  0  0  0  0  0
    0.4360    0.9487   -0.0529 N   0  0  0  0  0  0  0  0  0  0  0  0
   -0.6347    1.1086   -0.8326 C   0  0  0  0  0  0  0  0  0  0  0  0
   -1.6523    0.2021   -0.7609 N   0  0  0  0  0  0  0  0  0  0  0  0
   -1.6268   -0.8868    0.1755 C   0  0  0  0  0  0  0  0  0  0  0  0
   -2.8833   -1.6994    0.0377 C   0  0  0  0  0  0  0  0  0  0  0  0
   -4.0764   -1.3128    0.6564 C   0  0  0  0  0  0  0  0  0  0  0  0
   -5.2225   -2.0843    0.4885 C   0  0  0  0  0  0  0  0  0  0  0  0
   -5.1394   -3.2186   -0.3016 C   0  0  0  0  0  0  0  0  0  0  0  0
   -4.0097   -3.6187   -0.9234 N   0  0  0  0  0  0  0  0  0  0  0  0
   -2.9117   -2.8496   -0.7440 C   0  0  0  0  0  0  0  0  0  0  0  0
   -0.7974    2.0990   -1.7025 N   0  0  0  0  0  0  0  0  0  0  0  0
    0.2084    2.9999   -1.7772 C   0  0  0  0  0  0  0  0  0  0  0  0
    0.2204    4.1309   -2.6461 C   0  0  0  0  0  0  0  0  0  0  0  0
    1.3698    4.8750   -2.5215 C   0  0  0  0  0  0  0  0  0  0  0  0
    2.4331    4.2092   -1.3645 S   0  0  0  0  0  0  0  0  0  0  0  0
    1.3597    2.9144   -1.0004 C   0  0  0  0  0  0  0  0  0  0  0  0
    3.7549    1.0349    3.1363 H   0  0  0  0  0  0  0  0  0  0  0  0
    4.4210   -1.1919    3.9837 H   0  0  0  0  0  0  0  0  0  0  0  0
    4.0307   -3.2180    2.6041 H   0  0  0  0  0  0  0  0  0  0  0  0
    2.9848   -3.0122    0.3646 H   0  0  0  0  0  0  0  0  0  0  0  0
    2.3231   -0.8063   -0.5021 H   0  0  0  0  0  0  0  0  0  0  0  0
   -2.4443    0.3731   -1.3612 H   0  0  0  0  0  0  0  0  0  0  0  0
   -1.5531   -0.5166    1.2062 H   0  0  0  0  0  0  0  0  0  0  0  0
   -0.7534   -1.5289    0.0037 H   0  0  0  0  0  0  0  0  0  0  0  0
   -4.1152   -0.4132    1.2661 H   0  0  0  0  0  0  0  0  0  0  0  0
   -6.1583   -1.8069    0.9606 H   0  0  0  0  0  0  0  0  0  0  0  0
   -6.0060   -3.8534   -0.4625 H   0  0  0  0  0  0  0  0  0  0  0  0
   -2.0258   -3.1974   -1.2695 H   0  0  0  0  0  0  0  0  0  0  0  0
   -0.5832    4.3772   -3.3282 H   0  0  0  0  0  0  0  0  0  0  0  0
    1.6384    5.7767   -3.0554 H   0  0  0  0  0  0  0  0  0  0  0  0
  1  2  2  0
  2  3  1  0
  3  4  2  0
  4  5  1  0
  5  6  2  0
  6  7  1  0
  7  8  2  0
  2  9  1  0
  9 10  2  0
 10 11  1  0
 11 12  1  0
 12 13  1  0
 13 14  1  0
 14 15  2  0
 15 16  1  0
 16 17  2  0
 17 18  1  0
 18 19  2  0
 11 20  2  0
 20 21  1  0
 21 22  1  0
 22 23  2  0
 23 24  1  0
 24 25  1  0
  8  3  1  0
 25  9  1  0
 19 14  1  0
 25 21  2  0
  4 26  1  0
  5 27  1  0
  6 28  1  0
  7 29  1  0
  8 30  1  0
 12 31  1  0
 13 32  1  0
 13 33  1  0
 15 34  1  0
 16 35  1  0
 17 36  1  0
 19 37  1  0
 22 38  1  0
 23 39  1  0
M  END
$$$$
