
     RDKit          3D

 70 75  0  0  0  0  0  0  0  0999 V2000
  -10.9345    2.4216    1.5666 C   0  0  0  0  0  0  0  0  0  0  0  0
   -9.7354    2.0584    0.7472 N   0  0  0  0  0  0  0  0  0  0  0  0
   -9.7698    0.6027    0.2910 C   0  0  0  0  0  0  0  0  0  0  0  0
   -8.5659    0.2902   -0.6198 C   0  0  0  0  0  0  0  0  0  0  0  0
   -7.3023    0.6760    0.0247 N   0  0  0  0  0  0  0  0  0  0  0  0
   -6.1093    0.0932   -0.4028 C   0  0  0  0  0  0  0  0  0  0  0  0
   -5.0047    0.0175    0.4577 C   0  0  0  0  0  0  0  0  0  0  0  0
   -3.7918   -0.5579    0.0552 C   0  0  0  0  0  0  0  0  0  0  0  0
   -3.6419   -1.0825   -1.2295 C   0  0  0  0  0  0  0  0  0  0  0  0
   -2.3949   -1.6924   -1.6626 C   0  0  0  0  0  0  0  0  0  0  0  0
   -2.1817   -2.7875   -2.5254 C   0  0  0  0  0  0  0  0  0  0  0  0
   -0.8950   -3.0730   -2.7123 N   0  0  0  0  0  0  0  0  0  0  0  0
   -0.2315   -2.1434   -1.9610 N   0  0  0  0  0  0  0  0  0  0  0  0
    1.1780   -2.0185   -1.8193 C   0  0  0  0  0  0  0  0  0  0  0  0
    1.9511   -2.9432   -2.4939 N   0  0  0  0  0  0  0  0  0  0  0  0
    1.6546   -1.0270   -1.0337 C   0  0  0  0  0  0  0  0  0  0  0  0
    3.0799   -0.7719   -0.7887 C   0  0  0  0  0  0  0  0  0  0  0  0
    3.6130   -0.9290    0.4941 C   0  0  0  0  0  0  0  0  0  0  0  0
    4.9685   -0.6751    0.7389 C   0  0  0  0  0  0  0  0  0  0  0  0
    5.8122   -0.2591   -0.2918 C   0  0  0  0  0  0  0  0  0  0  0  0
    7.1864    0.0156   -0.1301 N   0  0  0  0  0  0  0  0  0  0  0  0
    7.9310   -0.0293    1.0412 C   0  0  0  0  0  0  0  0  0  0  0  0
    7.4786   -0.2926    2.1471 O   0  0  0  0  0  0  0  0  0  0  0  0
    9.2582    0.2697    0.7805 N   0  0  0  0  0  0  0  0  0  0  0  0
   10.3388    0.3493    1.6933 C   0  0  0  0  0  0  0  0  0  0  0  0
   10.2065    0.1387    3.0682 C   0  0  0  0  0  0  0  0  0  0  0  0
   11.3184    0.2334    3.9138 C   0  0  0  0  0  0  0  0  0  0  0  0
   12.5752    0.5399    3.3971 C   0  0  0  0  0  0  0  0  0  0  0  0
   12.7261    0.7541    2.0295 C   0  0  0  0  0  0  0  0  0  0  0  0
   11.6162    0.6595    1.1858 C   0  0  0  0  0  0  0  0  0  0  0  0
   11.8560    0.9362   -0.5086 Cl  0  0  0  0  0  0  0  0  0  0  0  0
    5.2771   -0.1049   -1.5770 C   0  0  0  0  0  0  0  0  0  0  0  0
    3.9230   -0.3565   -1.8244 C   0  0  0  0  0  0  0  0  0  0  0  0
    0.6165   -0.1626   -0.3876 C   0  0  0  0  0  0  0  0  0  0  0  0
   -0.6729   -0.2662   -0.5015 N   0  0  0  0  0  0  0  0  0  0  0  0
   -1.1214   -1.2812   -1.3041 C   0  0  0  0  0  0  0  0  0  0  0  0
   -4.7386   -1.0298   -2.0940 C   0  0  0  0  0  0  0  0  0  0  0  0
   -5.9505   -0.4532   -1.6839 C   0  0  0  0  0  0  0  0  0  0  0  0
   -7.2173    2.0394    0.5791 C   0  0  0  0  0  0  0  0  0  0  0  0
   -8.4289    2.3492    1.4802 C   0  0  0  0  0  0  0  0  0  0  0  0
  -10.9404    1.8089    2.4720 H   0  0  0  0  0  0  0  0  0  0  0  0
  -11.8263    2.2357    0.9625 H   0  0  0  0  0  0  0  0  0  0  0  0
  -10.8669    3.4842    1.8135 H   0  0  0  0  0  0  0  0  0  0  0  0
   -9.7425    2.6417   -0.0993 H   0  0  0  0  0  0  0  0  0  0  0  0
   -9.7570   -0.0173    1.1945 H   0  0  0  0  0  0  0  0  0  0  0  0
  -10.7106    0.4521   -0.2481 H   0  0  0  0  0  0  0  0  0  0  0  0
   -8.5846   -0.7855   -0.8334 H   0  0  0  0  0  0  0  0  0  0  0  0
   -8.6759    0.8299   -1.5685 H   0  0  0  0  0  0  0  0  0  0  0  0
   -5.0705    0.3794    1.4802 H   0  0  0  0  0  0  0  0  0  0  0  0
   -2.9698   -0.5984    0.7674 H   0  0  0  0  0  0  0  0  0  0  0  0
   -2.9213   -3.4000   -3.0252 H   0  0  0  0  0  0  0  0  0  0  0  0
    1.4612   -3.6673   -3.0178 H   0  0  0  0  0  0  0  0  0  0  0  0
    2.9540   -2.9858   -2.3675 H   0  0  0  0  0  0  0  0  0  0  0  0
    2.9877   -1.2606    1.3208 H   0  0  0  0  0  0  0  0  0  0  0  0
    5.3321   -0.8196    1.7518 H   0  0  0  0  0  0  0  0  0  0  0  0
    7.6800    0.2941   -0.9636 H   0  0  0  0  0  0  0  0  0  0  0  0
    9.5174    0.4440   -0.1804 H   0  0  0  0  0  0  0  0  0  0  0  0
    9.2501   -0.1023    3.5216 H   0  0  0  0  0  0  0  0  0  0  0  0
   11.1962    0.0651    4.9818 H   0  0  0  0  0  0  0  0  0  0  0  0
   13.4343    0.6112    4.0599 H   0  0  0  0  0  0  0  0  0  0  0  0
   13.7073    0.9932    1.6279 H   0  0  0  0  0  0  0  0  0  0  0  0
    5.9029    0.2163   -2.4061 H   0  0  0  0  0  0  0  0  0  0  0  0
    3.5341   -0.2239   -2.8325 H   0  0  0  0  0  0  0  0  0  0  0  0
    1.0117    0.6486    0.2482 H   0  0  0  0  0  0  0  0  0  0  0  0
   -4.6637   -1.4188   -3.1073 H   0  0  0  0  0  0  0  0  0  0  0  0
   -6.7550   -0.4221   -2.4127 H   0  0  0  0  0  0  0  0  0  0  0  0
   -6.3134    2.1966    1.1768 H   0  0  0  0  0  0  0  0  0  0  0  0
   -7.1849    2.7571   -0.2504 H   0  0  0  0  0  0  0  0  0  0  0  0
   -8.4413    3.4077    1.7592 H   0  0  0  0  0  0  0  0  0  0  0  0
   -8.4217    1.7279    2.3828 H   0  0  0  0  0  0  0  0  0  0  0  0
  1  2  1  0
  2  3  1  0
  3  4  1  0
  4  5  1  0
  5  6  1  0
  6  7  2  0
  7  8  1  0
  8  9  2  0
  9 10  1  0
 10 11  1  0
 11 12  2  0
 12 13  1  0
 13 14  1  0
 14 15  1  0
 14 16  2  0
 16 17  1  0
 17 18  2  0
 18 19  1  0
 19 20  2  0
 20 21  1  0
 21 22  1  0
 22 23  2  0
 22 24  1  0
 24 25  1  0
 25 26  2  0
 26 27  1  0
 27 28  2  0
 28 29  1  0
 29 30  2  0
 30 31  1  0
 20 32  1  0
 32 33  2  0
 16 34  1  0
 34 35  2  0
 35 36  1  0
  9 37  1  0
 37 38  2  0
  5 39  1  0
 39 40  1  0
 40  2  1  0
 38  6  1  0
 36 10  2  0
 36 13  1  0
 33 17  1  0
 30 25  1  0
  1 41  1  0
  1 42  1  0
  1 43  1  0
  2 44  1  0
  3 45  1  0
  3 46  1  0
  4 47  1  0
  4 48  1  0
  7 49  1  0
  8 50  1  0
 11 51  1  0
 15 52  1  0
 15 53  1  0
 18 54  1  0
 19 55  1  0
 21 56  1  0
 24 57  1  0
 26 58  1  0
 27 59  1  0
 28 60  1  0
 29 61  1  0
 32 62  1  0
 33 63  1  0
 34 64  1  0
 37 65  1  0
 38 66  1  0
 39 67  1  0
 39 68  1  0
 40 69  1  0
 40 70  1  0
M  CHG  1   2   1
M  END
$$$$
