
     RDKit          3D

 49 51  0  0  0  0  0  0  0  0999 V2000
    1.3936   -0.6457    2.2549 C   0  0  0  0  0  0  0  0  0  0  0  0
    2.5982   -1.3854    1.6949 C   0  0  0  0  0  0  0  0  0  0  0  0
    2.3365   -2.0874    0.3645 C   0  0  0  0  0  0  0  0  0  0  0  0
    1.9153   -1.1537   -0.7281 N   0  0  0  0  0  0  0  0  0  0  0  0
    2.9039   -0.0264   -1.0468 C   0  0  0  0  0  0  0  0  0  0  0  0
    2.4929    0.7606   -2.3243 C   0  0  0  0  0  0  0  0  0  0  0  0
    1.0842    0.5017   -2.6620 N   0  0  0  0  0  0  0  0  0  0  0  0
    0.1663    1.1260   -1.8073 C   0  0  0  0  0  0  0  0  0  0  0  0
   -0.5268    0.3069   -0.9730 N   0  0  0  0  0  0  0  0  0  0  0  0
   -1.3346    0.8593   -0.0233 C   0  0  0  0  0  0  0  0  0  0  0  0
   -1.4050    2.2493    0.1405 C   0  0  0  0  0  0  0  0  0  0  0  0
   -0.7053    3.0898   -0.7253 C   0  0  0  0  0  0  0  0  0  0  0  0
    0.0829    2.5185   -1.7058 C   0  0  0  0  0  0  0  0  0  0  0  0
    0.8080    3.3090   -2.5109 F   0  0  0  0  0  0  0  0  0  0  0  0
   -2.1891    2.8285    1.2541 C   0  0  0  0  0  0  0  0  0  0  0  0
   -2.3082    4.0452    1.3216 O   0  0  0  0  0  0  0  0  0  0  0  0
   -2.7805    1.8764    2.2027 C   0  0  0  0  0  0  0  0  0  0  0  0
   -3.4226    2.2984    3.5017 C   0  0  0  0  0  0  0  0  0  0  0  0
   -2.6302    2.8048    4.3452 O   0  0  0  0  0  0  0  0  0  0  0  0
   -4.6377    1.9712    3.6267 O   0  0  0  0  0  0  0  0  0  0  0  0
   -2.7025    0.5688    1.9312 C   0  0  0  0  0  0  0  0  0  0  0  0
   -2.0505    0.0155    0.8457 N   0  0  0  0  0  0  0  0  0  0  0  0
   -2.1563   -1.4043    0.5149 C   0  0  0  0  0  0  0  0  0  0  0  0
   -3.2307   -1.6432   -0.5364 C   0  0  0  0  0  0  0  0  0  0  0  0
    0.8015   -0.9031   -3.0021 C   0  0  0  0  0  0  0  0  0  0  0  0
    1.4578   -1.8815   -1.9907 C   0  0  0  0  0  0  0  0  0  0  0  0
    1.1387    0.2239    1.6438 H   0  0  0  0  0  0  0  0  0  0  0  0
    1.6121   -0.2836    3.2647 H   0  0  0  0  0  0  0  0  0  0  0  0
    0.5203   -1.3023    2.3135 H   0  0  0  0  0  0  0  0  0  0  0  0
    2.9015   -2.1475    2.4233 H   0  0  0  0  0  0  0  0  0  0  0  0
    3.4449   -0.6955    1.6093 H   0  0  0  0  0  0  0  0  0  0  0  0
    1.5337   -2.8236    0.4839 H   0  0  0  0  0  0  0  0  0  0  0  0
    3.2374   -2.6053    0.0178 H   0  0  0  0  0  0  0  0  0  0  0  0
    1.0441   -0.6699   -0.4285 H   0  0  0  0  0  0  0  0  0  0  0  0
    2.8971    0.6457   -0.1834 H   0  0  0  0  0  0  0  0  0  0  0  0
    3.8980   -0.4711   -1.1599 H   0  0  0  0  0  0  0  0  0  0  0  0
    3.1160    0.4172   -3.1602 H   0  0  0  0  0  0  0  0  0  0  0  0
    2.7184    1.8264   -2.2062 H   0  0  0  0  0  0  0  0  0  0  0  0
   -0.7547    4.1696   -0.6182 H   0  0  0  0  0  0  0  0  0  0  0  0
   -3.1633   -0.1482    2.6104 H   0  0  0  0  0  0  0  0  0  0  0  0
   -2.4121   -1.9808    1.4132 H   0  0  0  0  0  0  0  0  0  0  0  0
   -1.1960   -1.8101    0.1747 H   0  0  0  0  0  0  0  0  0  0  0  0
   -2.9935   -1.1337   -1.4758 H   0  0  0  0  0  0  0  0  0  0  0  0
   -3.3226   -2.7134   -0.7465 H   0  0  0  0  0  0  0  0  0  0  0  0
   -4.2045   -1.2780   -0.1936 H   0  0  0  0  0  0  0  0  0  0  0  0
   -0.2763   -1.0943   -3.0835 H   0  0  0  0  0  0  0  0  0  0  0  0
    1.2090   -1.1126   -3.9990 H   0  0  0  0  0  0  0  0  0  0  0  0
    0.7436   -2.6558   -1.6916 H   0  0  0  0  0  0  0  0  0  0  0  0
    2.3468   -2.3563   -2.4201 H   0  0  0  0  0  0  0  0  0  0  0  0
  1  2  1  0
  2  3  1  0
  3  4  1  0
  4  5  1  0
  5  6  1  0
  6  7  1  0
  7  8  1  0
  8  9  2  0
  9 10  1  0
 10 11  2  0
 11 12  1  0
 12 13  2  0
 13 14  1  0
 11 15  1  0
 15 16  2  0
 15 17  1  0
 17 18  1  0
 18 19  2  0
 18 20  1  0
 17 21  2  0
 21 22  1  0
 22 23  1  0
 23 24  1  0
  7 25  1  0
 25 26  1  0
 26  4  1  0
 13  8  1  0
 22 10  1  0
  1 27  1  0
  1 28  1  0
  1 29  1  0
  2 30  1  0
  2 31  1  0
  3 32  1  0
  3 33  1  0
  4 34  1  0
  5 35  1  0
  5 36  1  0
  6 37  1  0
  6 38  1  0
 12 39  1  0
 21 40  1  0
 23 41  1  0
 23 42  1  0
 24 43  1  0
 24 44  1  0
 24 45  1  0
 25 46  1  0
 25 47  1  0
 26 48  1  0
 26 49  1  0
M  CHG  2   4   1  20  -1
M  END
$$$$
