
     RDKit          3D

 57 60  0  0  0  0  0  0  0  0999 V2000
    2.5739   -4.9894    0.6985 C   0  0  0  0  0  0  0  0  0  0  0  0
    2.9624   -3.6283    0.5547 O   0  0  0  0  0  0  0  0  0  0  0  0
    1.9696   -2.7040    0.4260 C   0  0  0  0  0  0  0  0  0  0  0  0
    0.6162   -2.9586    0.4341 C   0  0  0  0  0  0  0  0  0  0  0  0
   -0.3381   -2.0175    0.2792 N   0  0  0  0  0  0  0  0  0  0  0  0
    0.0643   -0.7546    0.1028 C   0  0  0  0  0  0  0  0  0  0  0  0
   -0.8330    0.2946   -0.0638 N   0  0  0  0  0  0  0  0  0  0  0  0
   -2.2260    0.3869   -0.1128 C   0  0  0  0  0  0  0  0  0  0  0  0
   -3.0883   -0.7024   -0.0092 C   0  0  0  0  0  0  0  0  0  0  0  0
   -4.4832   -0.5402   -0.0674 C   0  0  0  0  0  0  0  0  0  0  0  0
   -5.0781    0.7173   -0.2215 C   0  0  0  0  0  0  0  0  0  0  0  0
   -6.4550    0.8976   -0.2862 N   0  0  0  0  0  0  0  0  0  0  0  0
   -7.3425   -0.2403   -0.5833 C   0  0  0  0  0  0  0  0  0  0  0  0
   -8.7191    0.2592   -1.0475 C   0  0  0  0  0  0  0  0  0  0  0  0
   -9.3047    1.1615   -0.0967 O   0  0  0  0  0  0  0  0  0  0  0  0
   -8.4582    2.3095    0.0674 C   0  0  0  0  0  0  0  0  0  0  0  0
   -7.0639    1.9226    0.5847 C   0  0  0  0  0  0  0  0  0  0  0  0
   -4.2051    1.8057   -0.3349 C   0  0  0  0  0  0  0  0  0  0  0  0
   -2.8121    1.6466   -0.2802 C   0  0  0  0  0  0  0  0  0  0  0  0
    1.3568   -0.3999    0.0751 N   0  0  0  0  0  0  0  0  0  0  0  0
    2.2987   -1.3656    0.2460 C   0  0  0  0  0  0  0  0  0  0  0  0
    3.6864   -0.8533    0.2088 C   0  0  0  0  0  0  0  0  0  0  0  0
    4.6470   -1.2267    1.1644 C   0  0  0  0  0  0  0  0  0  0  0  0
    5.9520   -0.7231    1.1171 C   0  0  0  0  0  0  0  0  0  0  0  0
    6.3234    0.1829    0.1193 C   0  0  0  0  0  0  0  0  0  0  0  0
    7.7224    0.6906    0.1120 C   0  0  0  0  0  0  0  0  0  0  0  0
    8.6286    0.0184    0.5893 O   0  0  0  0  0  0  0  0  0  0  0  0
    7.9225    1.9435   -0.4225 N   0  0  0  0  0  0  0  0  0  0  0  0
    9.2427    2.5482   -0.4341 C   0  0  0  0  0  0  0  0  0  0  0  0
    9.4274    3.4838    0.6882 C   0  0  0  0  0  0  0  0  0  0  0  0
    9.5580    4.2516    1.5499 N   0  0  0  0  0  0  0  0  0  0  0  0
    5.3858    0.5647   -0.8445 C   0  0  0  0  0  0  0  0  0  0  0  0
    4.0825    0.0550   -0.7915 C   0  0  0  0  0  0  0  0  0  0  0  0
    2.0213   -5.3367   -0.1807 H   0  0  0  0  0  0  0  0  0  0  0  0
    3.4847   -5.5903    0.7795 H   0  0  0  0  0  0  0  0  0  0  0  0
    1.9931   -5.1380    1.6148 H   0  0  0  0  0  0  0  0  0  0  0  0
    0.2124   -3.9566    0.5653 H   0  0  0  0  0  0  0  0  0  0  0  0
   -0.3146    1.1552   -0.1577 H   0  0  0  0  0  0  0  0  0  0  0  0
   -2.7035   -1.7089    0.1211 H   0  0  0  0  0  0  0  0  0  0  0  0
   -5.0913   -1.4340    0.0358 H   0  0  0  0  0  0  0  0  0  0  0  0
   -6.9245   -0.8712   -1.3764 H   0  0  0  0  0  0  0  0  0  0  0  0
   -7.4633   -0.8456    0.3235 H   0  0  0  0  0  0  0  0  0  0  0  0
   -9.4010   -0.5892   -1.1636 H   0  0  0  0  0  0  0  0  0  0  0  0
   -8.6468    0.7628   -2.0192 H   0  0  0  0  0  0  0  0  0  0  0  0
   -8.3871    2.8395   -0.8902 H   0  0  0  0  0  0  0  0  0  0  0  0
   -8.9450    2.9803    0.7824 H   0  0  0  0  0  0  0  0  0  0  0  0
   -6.4614    2.8338    0.6516 H   0  0  0  0  0  0  0  0  0  0  0  0
   -7.1542    1.5056    1.5956 H   0  0  0  0  0  0  0  0  0  0  0  0
   -4.5966    2.8052   -0.5025 H   0  0  0  0  0  0  0  0  0  0  0  0
   -2.1895    2.5323   -0.3791 H   0  0  0  0  0  0  0  0  0  0  0  0
    4.3857   -1.9153    1.9660 H   0  0  0  0  0  0  0  0  0  0  0  0
    6.6747   -1.0366    1.8685 H   0  0  0  0  0  0  0  0  0  0  0  0
    7.1331    2.5165   -0.6864 H   0  0  0  0  0  0  0  0  0  0  0  0
    9.3328    3.0855   -1.3837 H   0  0  0  0  0  0  0  0  0  0  0  0
   10.0150    1.7726   -0.4150 H   0  0  0  0  0  0  0  0  0  0  0  0
    5.6485    1.2329   -1.6586 H   0  0  0  0  0  0  0  0  0  0  0  0
    3.3640    0.3641   -1.5501 H   0  0  0  0  0  0  0  0  0  0  0  0
  1  2  1  0
  2  3  1  0
  3  4  2  0
  4  5  1  0
  5  6  2  0
  6  7  1  0
  7  8  1  0
  8  9  2  0
  9 10  1  0
 10 11  2  0
 11 12  1  0
 12 13  1  0
 13 14  1  0
 14 15  1  0
 15 16  1  0
 16 17  1  0
 11 18  1  0
 18 19  2  0
  6 20  1  0
 20 21  2  0
 21 22  1  0
 22 23  2  0
 23 24  1  0
 24 25  2  0
 25 26  1  0
 26 27  2  0
 26 28  1  0
 28 29  1  0
 29 30  1  0
 30 31  3  0
 25 32  1  0
 32 33  2  0
 21  3  1  0
 33 22  1  0
 19  8  1  0
 17 12  1  0
  1 34  1  0
  1 35  1  0
  1 36  1  0
  4 37  1  0
  7 38  1  0
  9 39  1  0
 10 40  1  0
 13 41  1  0
 13 42  1  0
 14 43  1  0
 14 44  1  0
 16 45  1  0
 16 46  1  0
 17 47  1  0
 17 48  1  0
 18 49  1  0
 19 50  1  0
 23 51  1  0
 24 52  1  0
 28 53  1  0
 29 54  1  0
 29 55  1  0
 32 56  1  0
 33 57  1  0
M  END
$$$$
