
     RDKit          3D

 49 53  0  0  0  0  0  0  0  0999 V2000
   -1.5065    5.6532   -0.1953 F   0  0  0  0  0  0  0  0  0  0  0  0
   -2.2919    4.5846   -0.3796 C   0  0  0  0  0  0  0  0  0  0  0  0
   -3.6016    4.7613   -0.8048 C   0  0  0  0  0  0  0  0  0  0  0  0
   -4.4156    3.6467   -0.9961 C   0  0  0  0  0  0  0  0  0  0  0  0
   -3.9153    2.3603   -0.7613 C   0  0  0  0  0  0  0  0  0  0  0  0
   -2.5904    2.1872   -0.3311 C   0  0  0  0  0  0  0  0  0  0  0  0
   -2.0544    0.8923   -0.0859 N   0  0  0  0  0  0  0  0  0  0  0  0
   -2.6864   -0.3304   -0.2203 C   0  0  0  0  0  0  0  0  0  0  0  0
   -1.7616   -1.2806    0.1182 C   0  0  0  0  0  0  0  0  0  0  0  0
   -0.5705   -0.5764    0.4519 C   0  0  0  0  0  0  0  0  0  0  0  0
   -0.7575    0.7476    0.3394 N   0  0  0  0  0  0  0  0  0  0  0  0
    0.5635   -1.3112    0.8375 C   0  0  0  0  0  0  0  0  0  0  0  0
    1.7678   -0.6274    1.2282 N   0  0  0  0  0  0  0  0  0  0  0  0
    2.8993   -0.8524    0.2787 C   0  0  0  0  0  0  0  0  0  0  0  0
    4.1959   -0.3991    0.9646 C   0  0  0  0  0  0  0  0  0  0  0  0
    4.2872    1.1179    1.1292 C   0  0  0  0  0  0  0  0  0  0  0  0
    4.0877    1.8395   -0.2000 C   0  0  0  0  0  0  0  0  0  0  0  0
    2.7871    1.4270   -0.8826 C   0  0  0  0  0  0  0  0  0  0  0  0
    2.6864   -0.0908   -1.0373 C   0  0  0  0  0  0  0  0  0  0  0  0
    0.4731   -2.6569    0.9113 N   0  0  0  0  0  0  0  0  0  0  0  0
   -0.6937   -3.3067    0.5774 C   0  0  0  0  0  0  0  0  0  0  0  0
   -0.7173   -4.6894    0.6554 C   0  0  0  0  0  0  0  0  0  0  0  0
   -1.8597   -5.4397    0.3356 C   0  0  0  0  0  0  0  0  0  0  0  0
   -3.0317   -4.8099   -0.0782 C   0  0  0  0  0  0  0  0  0  0  0  0
   -3.0713   -3.4251   -0.1750 C   0  0  0  0  0  0  0  0  0  0  0  0
   -1.9128   -2.6851    0.1499 C   0  0  0  0  0  0  0  0  0  0  0  0
   -1.7776    3.3144   -0.1410 C   0  0  0  0  0  0  0  0  0  0  0  0
   -3.9795    5.7637   -0.9841 H   0  0  0  0  0  0  0  0  0  0  0  0
   -5.4432    3.7803   -1.3294 H   0  0  0  0  0  0  0  0  0  0  0  0
   -4.5907    1.5256   -0.9254 H   0  0  0  0  0  0  0  0  0  0  0  0
   -3.7155   -0.4112   -0.5377 H   0  0  0  0  0  0  0  0  0  0  0  0
    1.9865   -1.0007    2.1574 H   0  0  0  0  0  0  0  0  0  0  0  0
    1.5224    0.3670    1.3323 H   0  0  0  0  0  0  0  0  0  0  0  0
    2.9604   -1.9317    0.0916 H   0  0  0  0  0  0  0  0  0  0  0  0
    5.0482   -0.7381    0.3615 H   0  0  0  0  0  0  0  0  0  0  0  0
    4.3001   -0.8808    1.9445 H   0  0  0  0  0  0  0  0  0  0  0  0
    5.2668    1.3813    1.5442 H   0  0  0  0  0  0  0  0  0  0  0  0
    3.5373    1.4625    1.8511 H   0  0  0  0  0  0  0  0  0  0  0  0
    4.0906    2.9229   -0.0360 H   0  0  0  0  0  0  0  0  0  0  0  0
    4.9321    1.6163   -0.8639 H   0  0  0  0  0  0  0  0  0  0  0  0
    2.7290    1.8980   -1.8706 H   0  0  0  0  0  0  0  0  0  0  0  0
    1.9358    1.8060   -0.3066 H   0  0  0  0  0  0  0  0  0  0  0  0
    3.4568   -0.4156   -1.7492 H   0  0  0  0  0  0  0  0  0  0  0  0
    1.7263   -0.3504   -1.4966 H   0  0  0  0  0  0  0  0  0  0  0  0
    0.1774   -5.2215    0.9753 H   0  0  0  0  0  0  0  0  0  0  0  0
   -1.8297   -6.5257    0.4123 H   0  0  0  0  0  0  0  0  0  0  0  0
   -3.9110   -5.4028   -0.3228 H   0  0  0  0  0  0  0  0  0  0  0  0
   -3.9857   -2.9342   -0.4961 H   0  0  0  0  0  0  0  0  0  0  0  0
   -0.7464    3.2380    0.1892 H   0  0  0  0  0  0  0  0  0  0  0  0
  1  2  1  0
  2  3  2  0
  3  4  1  0
  4  5  2  0
  5  6  1  0
  6  7  1  0
  7  8  1  0
  8  9  2  0
  9 10  1  0
 10 11  2  0
 10 12  1  0
 12 13  1  0
 13 14  1  0
 14 15  1  0
 15 16  1  0
 16 17  1  0
 17 18  1  0
 18 19  1  0
 12 20  2  0
 20 21  1  0
 21 22  2  0
 22 23  1  0
 23 24  2  0
 24 25  1  0
 25 26  2  0
  6 27  2  0
 27  2  1  0
 11  7  1  0
 19 14  1  0
 26 21  1  0
 26  9  1  0
  3 28  1  0
  4 29  1  0
  5 30  1  0
  8 31  1  0
 13 32  1  0
 13 33  1  0
 14 34  1  0
 15 35  1  0
 15 36  1  0
 16 37  1  0
 16 38  1  0
 17 39  1  0
 17 40  1  0
 18 41  1  0
 18 42  1  0
 19 43  1  0
 19 44  1  0
 22 45  1  0
 23 46  1  0
 24 47  1  0
 25 48  1  0
 27 49  1  0
M  CHG  1  13   1
M  END
$$$$
