
     RDKit          3D

 47 50  0  0  0  0  0  0  0  0999 V2000
    0.8488   -2.4847   -3.5294 N   0  0  0  0  0  0  0  0  0  0  0  0
    2.4425   -1.9686   -3.4143 S   0  0  0  0  0  0  0  0  0  0  0  0
    3.2014   -3.1206   -2.9859 O   0  0  0  0  0  0  0  0  0  0  0  0
    2.7222   -1.2778   -4.6516 O   0  0  0  0  0  0  0  0  0  0  0  0
    2.3707   -0.8015   -2.0892 C   0  0  0  0  0  0  0  0  0  0  0  0
    2.3480   -1.2613   -0.7708 C   0  0  0  0  0  0  0  0  0  0  0  0
    2.3476   -0.3410    0.2787 C   0  0  0  0  0  0  0  0  0  0  0  0
    2.3836    1.0386    0.0201 C   0  0  0  0  0  0  0  0  0  0  0  0
    2.3981    2.0289    1.1617 C   0  0  0  0  0  0  0  0  0  0  0  0
    0.7622    2.7448    1.4910 S   0  0  0  0  0  0  0  0  0  0  0  0
   -0.0163    1.3997    2.2561 C   0  0  0  0  0  0  0  0  0  0  0  0
    0.5500    0.6292    3.1547 N   0  0  0  0  0  0  0  0  0  0  0  0
   -0.4110   -0.2855    3.4978 C   0  0  0  0  0  0  0  0  0  0  0  0
   -0.3413   -1.3412    4.4188 C   0  0  0  0  0  0  0  0  0  0  0  0
   -1.4668   -2.1520    4.6036 C   0  0  0  0  0  0  0  0  0  0  0  0
   -2.6397   -1.9164    3.8856 C   0  0  0  0  0  0  0  0  0  0  0  0
   -2.7290   -0.8681    2.9621 C   0  0  0  0  0  0  0  0  0  0  0  0
   -1.5916   -0.0676    2.7897 C   0  0  0  0  0  0  0  0  0  0  0  0
   -1.3070    1.0199    1.9863 N   0  0  0  0  0  0  0  0  0  0  0  0
   -2.2299    1.6448    1.0510 C   0  0  0  0  0  0  0  0  0  0  0  0
   -1.9318    1.2824   -0.3862 C   0  0  0  0  0  0  0  0  0  0  0  0
   -1.6675    2.2913   -1.3265 C   0  0  0  0  0  0  0  0  0  0  0  0
   -1.3934    1.9700   -2.6582 C   0  0  0  0  0  0  0  0  0  0  0  0
   -1.3890    0.6378   -3.0617 C   0  0  0  0  0  0  0  0  0  0  0  0
   -1.0471    0.2413   -4.7008 Cl  0  0  0  0  0  0  0  0  0  0  0  0
   -1.6604   -0.3748   -2.1459 C   0  0  0  0  0  0  0  0  0  0  0  0
   -1.9330   -0.0546   -0.8142 C   0  0  0  0  0  0  0  0  0  0  0  0
    2.3986    1.4830   -1.3118 C   0  0  0  0  0  0  0  0  0  0  0  0
    2.3975    0.5672   -2.3658 C   0  0  0  0  0  0  0  0  0  0  0  0
    0.4582   -2.1790   -4.4227 H   0  0  0  0  0  0  0  0  0  0  0  0
    0.8049   -3.4921   -3.3774 H   0  0  0  0  0  0  0  0  0  0  0  0
    2.3376   -2.3266   -0.5536 H   0  0  0  0  0  0  0  0  0  0  0  0
    2.3224   -0.7041    1.3057 H   0  0  0  0  0  0  0  0  0  0  0  0
    2.8094    1.5735    2.0698 H   0  0  0  0  0  0  0  0  0  0  0  0
    3.0790    2.8497    0.9072 H   0  0  0  0  0  0  0  0  0  0  0  0
    0.5728   -1.5165    4.9753 H   0  0  0  0  0  0  0  0  0  0  0  0
   -1.4240   -2.9723    5.3163 H   0  0  0  0  0  0  0  0  0  0  0  0
   -3.5026   -2.5598    4.0476 H   0  0  0  0  0  0  0  0  0  0  0  0
   -3.6466   -0.6972    2.4096 H   0  0  0  0  0  0  0  0  0  0  0  0
   -3.2513    1.3370    1.2993 H   0  0  0  0  0  0  0  0  0  0  0  0
   -2.1854    2.7272    1.2177 H   0  0  0  0  0  0  0  0  0  0  0  0
   -1.6603    3.3380   -1.0275 H   0  0  0  0  0  0  0  0  0  0  0  0
   -1.1811    2.7619   -3.3715 H   0  0  0  0  0  0  0  0  0  0  0  0
   -1.6540   -1.4158   -2.4564 H   0  0  0  0  0  0  0  0  0  0  0  0
   -2.1343   -0.8630   -0.1142 H   0  0  0  0  0  0  0  0  0  0  0  0
    2.4172    2.5481   -1.5341 H   0  0  0  0  0  0  0  0  0  0  0  0
    2.4216    0.9279   -3.3916 H   0  0  0  0  0  0  0  0  0  0  0  0
  1  2  1  0
  2  3  2  0
  2  4  2  0
  2  5  1  0
  5  6  2  0
  6  7  1  0
  7  8  2  0
  8  9  1  0
  9 10  1  0
 10 11  1  0
 11 12  2  0
 12 13  1  0
 13 14  2  0
 14 15  1  0
 15 16  2  0
 16 17  1  0
 17 18  2  0
 18 19  1  0
 19 20  1  0
 20 21  1  0
 21 22  2  0
 22 23  1  0
 23 24  2  0
 24 25  1  0
 24 26  1  0
 26 27  2  0
  8 28  1  0
 28 29  2  0
 29  5  1  0
 19 11  1  0
 27 21  1  0
 18 13  1  0
  1 30  1  0
  1 31  1  0
  6 32  1  0
  7 33  1  0
  9 34  1  0
  9 35  1  0
 14 36  1  0
 15 37  1  0
 16 38  1  0
 17 39  1  0
 20 40  1  0
 20 41  1  0
 22 42  1  0
 23 43  1  0
 26 44  1  0
 27 45  1  0
 28 46  1  0
 29 47  1  0
M  END
$$$$
