
     RDKit          3D

 74 80  0  0  0  0  0  0  0  0999 V2000
    4.8100   -1.6710   -0.6507 C   0  0  0  0  0  0  0  0  0  0  0  0
    4.5672   -1.7644    0.7608 N   0  0  0  0  0  0  0  0  0  0  0  0
    3.5366   -2.5026    1.2078 N   0  0  0  0  0  0  0  0  0  0  0  0
    3.6336   -2.4699    2.5272 N   0  0  0  0  0  0  0  0  0  0  0  0
    4.7149   -1.7237    2.9214 N   0  0  0  0  0  0  0  0  0  0  0  0
    5.2814   -1.2631    1.8196 C   0  0  0  0  0  0  0  0  0  0  0  0
    6.4786   -0.4258    1.7582 C   0  0  0  0  0  0  0  0  0  0  0  0
    7.6467   -0.9353    2.3562 C   0  0  0  0  0  0  0  0  0  0  0  0
    8.8383   -0.2125    2.3395 C   0  0  0  0  0  0  0  0  0  0  0  0
    8.8774    1.0369    1.7342 C   0  0  0  0  0  0  0  0  0  0  0  0
    7.7229    1.5652    1.1535 C   0  0  0  0  0  0  0  0  0  0  0  0
    6.5033    0.8557    1.1551 C   0  0  0  0  0  0  0  0  0  0  0  0
    5.3154    1.4917    0.5505 C   0  0  0  0  0  0  0  0  0  0  0  0
    4.1464    1.7085    1.2949 C   0  0  0  0  0  0  0  0  0  0  0  0
    3.0150    2.2827    0.7088 C   0  0  0  0  0  0  0  0  0  0  0  0
    3.0267    2.6696   -0.6370 C   0  0  0  0  0  0  0  0  0  0  0  0
    1.7815    3.2473   -1.2747 C   0  0  0  0  0  0  0  0  0  0  0  0
    0.8299    2.2035   -1.6237 N   0  0  0  0  0  0  0  0  0  0  0  0
    0.9866    1.5050   -2.7959 C   0  0  0  0  0  0  0  0  0  0  0  0
    0.2258    0.5427   -3.1951 N   0  0  0  0  0  0  0  0  0  0  0  0
   -0.8421    0.1776   -2.3643 C   0  0  0  0  0  0  0  0  0  0  0  0
   -1.6670   -0.8764   -2.7497 C   0  0  0  0  0  0  0  0  0  0  0  0
   -2.7454   -1.2706   -1.9471 C   0  0  0  0  0  0  0  0  0  0  0  0
   -3.0334   -0.6067   -0.7454 C   0  0  0  0  0  0  0  0  0  0  0  0
   -4.1299   -1.0161    0.0742 N   0  0  0  0  0  0  0  0  0  0  0  0
   -4.4619   -2.4449    0.1514 C   0  0  0  0  0  0  0  0  0  0  0  0
   -5.7063   -2.7775   -0.6802 C   0  0  0  0  0  0  0  0  0  0  0  0
   -6.0602   -2.0755   -1.6312 O   0  0  0  0  0  0  0  0  0  0  0  0
   -6.3932   -4.0046   -0.3330 C   0  0  0  0  0  0  0  0  0  0  0  0
   -7.5598   -4.5596   -0.8252 C   0  0  0  0  0  0  0  0  0  0  0  0
   -7.7577   -5.7764   -0.1302 C   0  0  0  0  0  0  0  0  0  0  0  0
   -6.6994   -5.8957    0.7385 C   0  0  0  0  0  0  0  0  0  0  0  0
   -5.8638   -4.8323    0.6194 O   0  0  0  0  0  0  0  0  0  0  0  0
   -4.8969   -0.1710    0.8918 C   0  0  0  0  0  0  0  0  0  0  0  0
   -5.5765   -0.5892    1.8299 O   0  0  0  0  0  0  0  0  0  0  0  0
   -5.0088    1.2724    0.5661 C   0  0  0  0  0  0  0  0  0  0  0  0
   -4.9060    2.2091    1.6001 C   0  0  0  0  0  0  0  0  0  0  0  0
   -5.0247    3.5699    1.3162 C   0  0  0  0  0  0  0  0  0  0  0  0
   -5.2660    3.9916    0.0076 C   0  0  0  0  0  0  0  0  0  0  0  0
   -5.4001    3.0558   -1.0192 C   0  0  0  0  0  0  0  0  0  0  0  0
   -5.2807    1.6937   -0.7416 C   0  0  0  0  0  0  0  0  0  0  0  0
   -2.1917    0.4413   -0.3531 C   0  0  0  0  0  0  0  0  0  0  0  0
   -1.1121    0.8250   -1.1611 C   0  0  0  0  0  0  0  0  0  0  0  0
   -0.2138    1.9231   -0.7543 C   0  0  0  0  0  0  0  0  0  0  0  0
   -0.4164    2.5252    0.2964 O   0  0  0  0  0  0  0  0  0  0  0  0
    4.1952    2.4762   -1.3833 C   0  0  0  0  0  0  0  0  0  0  0  0
    5.3244    1.8985   -0.7945 C   0  0  0  0  0  0  0  0  0  0  0  0
    5.8276   -1.3232   -0.8376 H   0  0  0  0  0  0  0  0  0  0  0  0
    4.0824   -0.9794   -1.0813 H   0  0  0  0  0  0  0  0  0  0  0  0
    4.6881   -2.6632   -1.0941 H   0  0  0  0  0  0  0  0  0  0  0  0
    7.6265   -1.9086    2.8459 H   0  0  0  0  0  0  0  0  0  0  0  0
    9.7299   -0.6223    2.8076 H   0  0  0  0  0  0  0  0  0  0  0  0
    9.8011    1.6105    1.7272 H   0  0  0  0  0  0  0  0  0  0  0  0
    7.7733    2.5601    0.7126 H   0  0  0  0  0  0  0  0  0  0  0  0
    4.1007    1.4240    2.3461 H   0  0  0  0  0  0  0  0  0  0  0  0
    2.1189    2.4191    1.3143 H   0  0  0  0  0  0  0  0  0  0  0  0
    2.0550    3.7924   -2.1868 H   0  0  0  0  0  0  0  0  0  0  0  0
    1.3272    3.9771   -0.5942 H   0  0  0  0  0  0  0  0  0  0  0  0
    1.8409    1.8232   -3.4144 H   0  0  0  0  0  0  0  0  0  0  0  0
   -1.4743   -1.3925   -3.6872 H   0  0  0  0  0  0  0  0  0  0  0  0
   -3.3769   -2.0765   -2.3118 H   0  0  0  0  0  0  0  0  0  0  0  0
   -4.6546   -2.6947    1.2012 H   0  0  0  0  0  0  0  0  0  0  0  0
   -3.6231   -3.0660   -0.1811 H   0  0  0  0  0  0  0  0  0  0  0  0
   -8.1873   -4.1242   -1.5918 H   0  0  0  0  0  0  0  0  0  0  0  0
   -8.5713   -6.4788   -0.2463 H   0  0  0  0  0  0  0  0  0  0  0  0
   -6.4105   -6.6384    1.4698 H   0  0  0  0  0  0  0  0  0  0  0  0
   -4.7298    1.8795    2.6213 H   0  0  0  0  0  0  0  0  0  0  0  0
   -4.9336    4.3007    2.1158 H   0  0  0  0  0  0  0  0  0  0  0  0
   -5.3607    5.0527   -0.2100 H   0  0  0  0  0  0  0  0  0  0  0  0
   -5.6059    3.3868   -2.0339 H   0  0  0  0  0  0  0  0  0  0  0  0
   -5.4114    0.9673   -1.5406 H   0  0  0  0  0  0  0  0  0  0  0  0
   -2.3317    0.9486    0.5979 H   0  0  0  0  0  0  0  0  0  0  0  0
    4.2391    2.7685   -2.4302 H   0  0  0  0  0  0  0  0  0  0  0  0
    6.2160    1.7541   -1.4025 H   0  0  0  0  0  0  0  0  0  0  0  0
  1  2  1  0
  2  3  1  0
  3  4  2  0
  4  5  1  0
  5  6  2  0
  6  7  1  0
  7  8  2  0
  8  9  1  0
  9 10  2  0
 10 11  1  0
 11 12  2  0
 12 13  1  0
 13 14  2  0
 14 15  1  0
 15 16  2  0
 16 17  1  0
 17 18  1  0
 18 19  1  0
 19 20  2  0
 20 21  1  0
 21 22  2  0
 22 23  1  0
 23 24  2  0
 24 25  1  0
 25 26  1  0
 26 27  1  0
 27 28  2  0
 27 29  1  0
 29 30  2  0
 30 31  1  0
 31 32  2  0
 32 33  1  0
 25 34  1  0
 34 35  2  0
 34 36  1  0
 36 37  2  0
 37 38  1  0
 38 39  2  0
 39 40  1  0
 40 41  2  0
 24 42  1  0
 42 43  2  0
 43 44  1  0
 44 45  2  0
 16 46  1  0
 46 47  2  0
  6  2  1  0
 12  7  1  0
 47 13  1  0
 44 18  1  0
 43 21  1  0
 33 29  1  0
 41 36  1  0
  1 48  1  0
  1 49  1  0
  1 50  1  0
  8 51  1  0
  9 52  1  0
 10 53  1  0
 11 54  1  0
 14 55  1  0
 15 56  1  0
 17 57  1  0
 17 58  1  0
 19 59  1  0
 22 60  1  0
 23 61  1  0
 26 62  1  0
 26 63  1  0
 30 64  1  0
 31 65  1  0
 32 66  1  0
 37 67  1  0
 38 68  1  0
 39 69  1  0
 40 70  1  0
 41 71  1  0
 42 72  1  0
 46 73  1  0
 47 74  1  0
M  END
$$$$
