
     RDKit          3D

 60 65  0  0  0  0  0  0  0  0999 V2000
   -4.2298    0.9607   -3.3957 C   0  0  0  0  0  0  0  0  0  0  0  0
   -3.9167   -0.3940   -3.9223 C   0  0  0  0  0  0  0  0  0  0  0  0
   -3.8026   -0.8092   -5.2362 C   0  0  0  0  0  0  0  0  0  0  0  0
   -3.6018   -2.2059   -5.2318 C   0  0  0  0  0  0  0  0  0  0  0  0
   -3.5871   -2.6220   -3.9151 C   0  0  0  0  0  0  0  0  0  0  0  0
   -3.4431   -3.9897   -3.3495 C   0  0  0  0  0  0  0  0  0  0  0  0
   -3.7223   -1.5013   -3.1087 N   0  0  0  0  0  0  0  0  0  0  0  0
   -3.7140   -1.5125   -1.5906 C   0  0  0  0  0  0  0  0  0  0  0  0
   -4.5930   -2.2269   -0.8520 N   0  0  0  0  0  0  0  0  0  0  0  0
   -4.2900   -2.0109    0.4386 N   0  0  0  0  0  0  0  0  0  0  0  0
   -3.2689   -1.1373    0.4880 C   0  0  0  0  0  0  0  0  0  0  0  0
   -2.8805   -0.7364    1.7631 N   0  0  0  0  0  0  0  0  0  0  0  0
   -2.2397    0.4192    2.2390 C   0  0  0  0  0  0  0  0  0  0  0  0
   -1.5442    0.3538    3.4545 C   0  0  0  0  0  0  0  0  0  0  0  0
   -0.8242    1.4517    3.9331 C   0  0  0  0  0  0  0  0  0  0  0  0
   -0.7925    2.6352    3.2004 C   0  0  0  0  0  0  0  0  0  0  0  0
   -1.4825    2.7191    1.9937 C   0  0  0  0  0  0  0  0  0  0  0  0
   -2.1988    1.6171    1.5178 C   0  0  0  0  0  0  0  0  0  0  0  0
   -2.7650   -0.9081   -0.7865 C   0  0  0  0  0  0  0  0  0  0  0  0
   -1.5582   -0.2595   -1.1976 C   0  0  0  0  0  0  0  0  0  0  0  0
   -1.3606    0.3983   -2.2185 O   0  0  0  0  0  0  0  0  0  0  0  0
   -0.5521   -0.5056   -0.2652 N   0  0  0  0  0  0  0  0  0  0  0  0
    0.7698   -0.0247   -0.2447 C   0  0  0  0  0  0  0  0  0  0  0  0
    1.3479    0.7329   -1.2648 C   0  0  0  0  0  0  0  0  0  0  0  0
    2.6652    1.1918   -1.1519 C   0  0  0  0  0  0  0  0  0  0  0  0
    3.4159    0.8971   -0.0107 C   0  0  0  0  0  0  0  0  0  0  0  0
    2.8494    0.1397    1.0110 C   0  0  0  0  0  0  0  0  0  0  0  0
    1.5323   -0.3238    0.8921 C   0  0  0  0  0  0  0  0  0  0  0  0
    3.6272   -0.1745    2.2268 C   0  0  0  0  0  0  0  0  0  0  0  0
    3.1365   -0.8368    3.1337 O   0  0  0  0  0  0  0  0  0  0  0  0
    5.0135    0.3208    2.3408 C   0  0  0  0  0  0  0  0  0  0  0  0
    5.7623    0.0269    3.4884 C   0  0  0  0  0  0  0  0  0  0  0  0
    7.0738    0.4902    3.6062 C   0  0  0  0  0  0  0  0  0  0  0  0
    7.6409    1.2467    2.5813 C   0  0  0  0  0  0  0  0  0  0  0  0
    6.8970    1.5408    1.4372 C   0  0  0  0  0  0  0  0  0  0  0  0
    5.5803    1.0766    1.3168 C   0  0  0  0  0  0  0  0  0  0  0  0
    4.8022    1.3937    0.1029 C   0  0  0  0  0  0  0  0  0  0  0  0
    5.3049    2.0609   -0.7941 O   0  0  0  0  0  0  0  0  0  0  0  0
   -4.6687    0.9327   -2.3945 H   0  0  0  0  0  0  0  0  0  0  0  0
   -4.9547    1.4579   -4.0497 H   0  0  0  0  0  0  0  0  0  0  0  0
   -3.3310    1.5828   -3.3680 H   0  0  0  0  0  0  0  0  0  0  0  0
   -3.8933   -0.1706   -6.1041 H   0  0  0  0  0  0  0  0  0  0  0  0
   -3.5013   -2.8501   -6.0944 H   0  0  0  0  0  0  0  0  0  0  0  0
   -3.1922   -4.7072   -4.1381 H   0  0  0  0  0  0  0  0  0  0  0  0
   -2.6427   -4.0291   -2.6039 H   0  0  0  0  0  0  0  0  0  0  0  0
   -4.3787   -4.3200   -2.8878 H   0  0  0  0  0  0  0  0  0  0  0  0
   -3.3484   -1.2695    2.4896 H   0  0  0  0  0  0  0  0  0  0  0  0
   -1.5445   -0.5705    4.0274 H   0  0  0  0  0  0  0  0  0  0  0  0
   -0.2845    1.3751    4.8727 H   0  0  0  0  0  0  0  0  0  0  0  0
   -0.2336    3.4904    3.5683 H   0  0  0  0  0  0  0  0  0  0  0  0
   -1.4678    3.6387    1.4157 H   0  0  0  0  0  0  0  0  0  0  0  0
   -2.7443    1.7095    0.5818 H   0  0  0  0  0  0  0  0  0  0  0  0
   -0.8403   -1.0590    0.5380 H   0  0  0  0  0  0  0  0  0  0  0  0
    0.7996    0.9840   -2.1680 H   0  0  0  0  0  0  0  0  0  0  0  0
    3.0933    1.7813   -1.9605 H   0  0  0  0  0  0  0  0  0  0  0  0
    1.0959   -0.9061    1.7024 H   0  0  0  0  0  0  0  0  0  0  0  0
    5.3254   -0.5638    4.2920 H   0  0  0  0  0  0  0  0  0  0  0  0
    7.6519    0.2596    4.4981 H   0  0  0  0  0  0  0  0  0  0  0  0
    8.6626    1.6080    2.6716 H   0  0  0  0  0  0  0  0  0  0  0  0
    7.3455    2.1317    0.6404 H   0  0  0  0  0  0  0  0  0  0  0  0
  1  2  1  0
  2  3  2  0
  3  4  1  0
  4  5  2  0
  5  6  1  0
  5  7  1  0
  7  8  1  0
  8  9  1  0
  9 10  1  0
 10 11  2  0
 11 12  1  0
 12 13  1  0
 13 14  2  0
 14 15  1  0
 15 16  2  0
 16 17  1  0
 17 18  2  0
 11 19  1  0
 19 20  1  0
 20 21  2  0
 20 22  1  0
 22 23  1  0
 23 24  2  0
 24 25  1  0
 25 26  2  0
 26 27  1  0
 27 28  2  0
 27 29  1  0
 29 30  2  0
 29 31  1  0
 31 32  2  0
 32 33  1  0
 33 34  2  0
 34 35  1  0
 35 36  2  0
 36 37  1  0
 37 38  2  0
  7  2  1  0
 19  8  2  0
 28 23  1  0
 36 31  1  0
 18 13  1  0
 37 26  1  0
  1 39  1  0
  1 40  1  0
  1 41  1  0
  3 42  1  0
  4 43  1  0
  6 44  1  0
  6 45  1  0
  6 46  1  0
 12 47  1  0
 14 48  1  0
 15 49  1  0
 16 50  1  0
 17 51  1  0
 18 52  1  0
 22 53  1  0
 24 54  1  0
 25 55  1  0
 28 56  1  0
 32 57  1  0
 33 58  1  0
 34 59  1  0
 35 60  1  0
M  CHG  1   9  -1
M  END
$$$$
