
     RDKit          3D

 37 38  0  0  0  0  0  0  0  0999 V2000
    4.2591    1.7472   -0.9641 C   0  0  0  0  0  0  0  0  0  0  0  0
    4.3676    0.4536   -0.3206 N   0  0  0  0  0  0  0  0  0  0  0  0
    5.6682   -0.1049   -0.0150 C   0  0  0  0  0  0  0  0  0  0  0  0
    3.2423   -0.1701    0.2013 C   0  0  0  0  0  0  0  0  0  0  0  0
    3.4024   -1.3468    0.8837 N   0  0  0  0  0  0  0  0  0  0  0  0
    2.3259   -1.9767    1.3971 C   0  0  0  0  0  0  0  0  0  0  0  0
    1.0368   -1.6034    1.3420 N   0  0  0  0  0  0  0  0  0  0  0  0
    0.9077   -0.4477    0.6724 C   0  0  0  0  0  0  0  0  0  0  0  0
    1.9115    0.3134    0.0877 C   0  0  0  0  0  0  0  0  0  0  0  0
    1.3648    1.4420   -0.5090 N   0  0  0  0  0  0  0  0  0  0  0  0
    0.0703    1.3561   -0.2914 C   0  0  0  0  0  0  0  0  0  0  0  0
   -0.2498    0.2316    0.4169 N   0  0  0  0  0  0  0  0  0  0  0  0
   -1.5830   -0.1560    0.8291 C   0  0  0  0  0  0  0  0  0  0  0  0
   -2.2639   -1.0418   -0.2124 C   0  0  0  0  0  0  0  0  0  0  0  0
   -3.6894   -1.4458    0.1690 C   0  0  0  0  0  0  0  0  0  0  0  0
   -4.6895   -0.3032    0.3903 C   0  0  0  0  0  0  0  0  0  0  0  0
   -4.8840    0.6080   -0.8168 C   0  0  0  0  0  0  0  0  0  0  0  0
   -3.7682    1.4764   -0.9623 O   0  0  0  0  0  0  0  0  0  0  0  0
    3.6045    1.6988   -1.8408 H   0  0  0  0  0  0  0  0  0  0  0  0
    5.2334    2.0968   -1.3233 H   0  0  0  0  0  0  0  0  0  0  0  0
    3.8844    2.5043   -0.2668 H   0  0  0  0  0  0  0  0  0  0  0  0
    6.4675    0.4267   -0.5427 H   0  0  0  0  0  0  0  0  0  0  0  0
    5.8803   -0.0342    1.0577 H   0  0  0  0  0  0  0  0  0  0  0  0
    5.7326   -1.1548   -0.3227 H   0  0  0  0  0  0  0  0  0  0  0  0
    2.5306   -2.9048    1.9224 H   0  0  0  0  0  0  0  0  0  0  0  0
   -0.6760    2.0684   -0.6209 H   0  0  0  0  0  0  0  0  0  0  0  0
   -1.5011   -0.6769    1.7899 H   0  0  0  0  0  0  0  0  0  0  0  0
   -2.1400    0.7687    1.0089 H   0  0  0  0  0  0  0  0  0  0  0  0
   -2.2613   -0.5522   -1.1932 H   0  0  0  0  0  0  0  0  0  0  0  0
   -1.6729   -1.9579   -0.3437 H   0  0  0  0  0  0  0  0  0  0  0  0
   -3.6511   -2.0498    1.0843 H   0  0  0  0  0  0  0  0  0  0  0  0
   -4.0801   -2.1058   -0.6158 H   0  0  0  0  0  0  0  0  0  0  0  0
   -4.3824    0.2899    1.2591 H   0  0  0  0  0  0  0  0  0  0  0  0
   -5.6571   -0.7558    0.6398 H   0  0  0  0  0  0  0  0  0  0  0  0
   -5.0092    0.0280   -1.7366 H   0  0  0  0  0  0  0  0  0  0  0  0
   -5.7733    1.2293   -0.6701 H   0  0  0  0  0  0  0  0  0  0  0  0
   -3.9575    2.0492   -1.7268 H   0  0  0  0  0  0  0  0  0  0  0  0
  1  2  1  0
  2  3  1  0
  2  4  1  0
  4  5  2  0
  5  6  1  0
  6  7  2  0
  7  8  1  0
  8  9  2  0
  9 10  1  0
 10 11  2  0
 11 12  1  0
 12 13  1  0
 13 14  1  0
 14 15  1  0
 15 16  1  0
 16 17  1  0
 17 18  1  0
  9  4  1  0
 12  8  1  0
  1 19  1  0
  1 20  1  0
  1 21  1  0
  3 22  1  0
  3 23  1  0
  3 24  1  0
  6 25  1  0
 11 26  1  0
 13 27  1  0
 13 28  1  0
 14 29  1  0
 14 30  1  0
 15 31  1  0
 15 32  1  0
 16 33  1  0
 16 34  1  0
 17 35  1  0
 17 36  1  0
 18 37  1  0
M  END
$$$$
