
     RDKit          3D

 78 83  0  0  0  0  0  0  0  0999 V2000
    0.7569    2.3811   -0.5204 C   0  0  0  0  0  0  0  0  0  0  0  0
    1.2495    1.1472   -0.7452 C   0  0  0  0  0  0  0  0  0  0  0  0
    0.5464    0.0760   -1.5747 C   0  0  2  0  0  0  0  0  0  0  0  0
   -0.7231    0.4708   -2.3632 C   0  0  0  0  0  0  0  0  0  0  0  0
   -1.9387   -0.0071   -1.5407 C   0  0  2  0  0  0  0  0  0  0  0  0
   -2.5993   -1.0138   -2.3147 O   0  0  0  0  0  0  0  0  0  0  0  0
   -2.8970    1.1016   -1.2146 C   0  0  1  0  0  0  0  0  0  0  0  0
   -4.1809    0.9978   -1.8299 O   0  0  0  0  0  0  0  0  0  0  0  0
   -4.1593    0.8733   -0.3846 C   0  0  2  0  0  0  0  0  0  0  0  0
   -4.6125    2.0109    0.4325 C   0  0  0  0  0  0  0  0  0  0  0  0
   -5.8891    2.3841    0.5874 C   0  0  0  0  0  0  0  0  0  0  0  0
   -7.0068    1.6604   -0.0318 C   0  0  0  0  0  0  0  0  0  0  0  0
   -7.9958    2.2811   -0.4059 O   0  0  0  0  0  0  0  0  0  0  0  0
   -6.9267    0.3138   -0.1421 O   0  0  0  0  0  0  0  0  0  0  0  0
   -6.0413   -0.5654    0.6263 C   0  0  0  0  0  0  0  0  0  0  0  0
   -6.6290   -1.9692    0.3380 C   0  0  0  0  0  0  0  0  0  0  0  0
   -6.2267   -0.3283    2.1381 C   0  0  0  0  0  0  0  0  0  0  0  0
   -4.5677   -0.5288    0.0739 C   0  0  2  0  0  0  0  0  0  0  0  0
   -3.5382   -1.1668    1.0450 C   0  0  2  0  0  0  0  0  0  0  0  0
   -3.2165   -0.2584    2.0992 O   0  0  0  0  0  0  0  0  0  0  0  0
   -2.2396   -1.6882    0.4012 C   0  0  0  0  0  0  0  0  0  0  0  0
   -1.3565   -0.6143   -0.2496 C   0  0  1  0  0  0  0  0  0  0  0  0
    0.0742   -1.0841   -0.6469 C   0  0  1  0  0  0  0  0  0  0  0  0
    0.0913   -2.4163   -1.4298 C   0  0  0  0  0  0  0  0  0  0  0  0
    0.9765   -1.2357    0.6074 C   0  0  0  0  0  0  0  0  0  0  0  0
    2.4229   -0.8463    0.2904 C   0  0  0  0  0  0  0  0  0  0  0  0
    2.5589    0.6555   -0.0858 C   0  0  2  0  0  0  0  0  0  0  0  0
    2.7017    1.3723    1.1483 O   0  0  0  0  0  0  0  0  0  0  0  0
    3.8203    0.9098   -0.9996 C   0  0  1  0  0  0  0  0  0  0  0  0
    4.0374    2.4138   -1.2568 C   0  0  0  0  0  0  0  0  0  0  0  0
    5.1123    0.2523   -0.4281 C   0  0  1  0  0  0  0  0  0  0  0  0
    6.3531    0.4243   -1.3071 C   0  0  0  0  0  0  0  0  0  0  0  0
    7.5230   -0.1818   -0.5998 C   0  0  0  0  0  0  0  0  0  0  0  0
    7.5699   -0.2512    0.7413 C   0  0  0  0  0  0  0  0  0  0  0  0
    8.7198   -0.8410    1.4961 C   0  0  0  0  0  0  0  0  0  0  0  0
    6.4780    0.3398    1.5624 C   0  0  0  0  0  0  0  0  0  0  0  0
    6.5754    0.4625    2.7760 O   0  0  0  0  0  0  0  0  0  0  0  0
    5.3699    0.7643    0.8959 O   0  0  0  0  0  0  0  0  0  0  0  0
   -0.1714    2.7473   -0.9352 H   0  0  0  0  0  0  0  0  0  0  0  0
    1.2893    3.0819    0.1194 H   0  0  0  0  0  0  0  0  0  0  0  0
    1.2850   -0.2820   -2.3053 H   0  0  0  0  0  0  0  0  0  0  0  0
   -0.7552    1.5347   -2.6144 H   0  0  0  0  0  0  0  0  0  0  0  0
   -0.7021   -0.0515   -3.3298 H   0  0  0  0  0  0  0  0  0  0  0  0
   -3.2673   -0.5467   -2.8540 H   0  0  0  0  0  0  0  0  0  0  0  0
   -2.4316    2.0770   -1.1610 H   0  0  0  0  0  0  0  0  0  0  0  0
   -3.8420    2.5953    0.9302 H   0  0  0  0  0  0  0  0  0  0  0  0
   -6.1571    3.2752    1.1412 H   0  0  0  0  0  0  0  0  0  0  0  0
   -6.0745   -2.7642    0.8456 H   0  0  0  0  0  0  0  0  0  0  0  0
   -6.6314   -2.1801   -0.7381 H   0  0  0  0  0  0  0  0  0  0  0  0
   -7.6767   -2.0248    0.6577 H   0  0  0  0  0  0  0  0  0  0  0  0
   -7.2907   -0.2258    2.3827 H   0  0  0  0  0  0  0  0  0  0  0  0
   -5.8267   -1.1566    2.7324 H   0  0  0  0  0  0  0  0  0  0  0  0
   -5.7424    0.5841    2.4921 H   0  0  0  0  0  0  0  0  0  0  0  0
   -4.5851   -1.1596   -0.8250 H   0  0  0  0  0  0  0  0  0  0  0  0
   -4.0020   -2.0390    1.5198 H   0  0  0  0  0  0  0  0  0  0  0  0
   -2.5764   -0.6965    2.6882 H   0  0  0  0  0  0  0  0  0  0  0  0
   -2.4925   -2.4788   -0.3143 H   0  0  0  0  0  0  0  0  0  0  0  0
   -1.6515   -2.1688    1.1939 H   0  0  0  0  0  0  0  0  0  0  0  0
   -1.2360    0.1998    0.4806 H   0  0  0  0  0  0  0  0  0  0  0  0
   -0.5099   -2.3795   -2.3419 H   0  0  0  0  0  0  0  0  0  0  0  0
   -0.2816   -3.2451   -0.8189 H   0  0  0  0  0  0  0  0  0  0  0  0
    1.1113   -2.6753   -1.7355 H   0  0  0  0  0  0  0  0  0  0  0  0
    0.6166   -0.6087    1.4333 H   0  0  0  0  0  0  0  0  0  0  0  0
    0.9461   -2.2664    0.9813 H   0  0  0  0  0  0  0  0  0  0  0  0
    3.0393   -1.0754    1.1686 H   0  0  0  0  0  0  0  0  0  0  0  0
    2.7763   -1.4818   -0.5306 H   0  0  0  0  0  0  0  0  0  0  0  0
    3.6091    1.2261    1.4779 H   0  0  0  0  0  0  0  0  0  0  0  0
    3.6296    0.4406   -1.9749 H   0  0  0  0  0  0  0  0  0  0  0  0
    4.8491    2.5851   -1.9692 H   0  0  0  0  0  0  0  0  0  0  0  0
    4.2760    2.9531   -0.3347 H   0  0  0  0  0  0  0  0  0  0  0  0
    3.1561    2.8780   -1.7070 H   0  0  0  0  0  0  0  0  0  0  0  0
    4.9291   -0.8247   -0.3209 H   0  0  0  0  0  0  0  0  0  0  0  0
    6.1976   -0.0713   -2.2712 H   0  0  0  0  0  0  0  0  0  0  0  0
    6.5982    1.4739   -1.4940 H   0  0  0  0  0  0  0  0  0  0  0  0
    8.3436   -0.5572   -1.2052 H   0  0  0  0  0  0  0  0  0  0  0  0
    8.3773   -1.6633    2.1328 H   0  0  0  0  0  0  0  0  0  0  0  0
    9.4861   -1.2405    0.8233 H   0  0  0  0  0  0  0  0  0  0  0  0
    9.1958   -0.0843    2.1283 H   0  0  0  0  0  0  0  0  0  0  0  0
  1  2  2  0
  2  3  1  0
  3  4  1  0
  4  5  1  0
  5  6  1  6
  5  7  1  0
  7  8  1  0
  9  8  1  6
  9 10  1  0
 10 11  2  0
 11 12  1  0
 12 13  2  0
 12 14  1  0
 14 15  1  0
 15 16  1  0
 15 17  1  0
 15 18  1  0
 18 19  1  0
 19 20  1  0
 19 21  1  0
 21 22  1  0
 22 23  1  0
 23 24  1  6
 23 25  1  0
 25 26  1  0
 26 27  1  0
 27 28  1  1
 27 29  1  0
 29 30  1  0
 29 31  1  0
 31 32  1  0
 32 33  1  0
 33 34  2  0
 34 35  1  0
 34 36  1  0
 36 37  2  0
 36 38  1  0
 27  2  1  0
 38 31  1  0
 23  3  1  0
 22  5  1  0
  9  7  1  0
 18  9  1  0
  1 39  1  0
  1 40  1  0
  3 41  1  6
  4 42  1  0
  4 43  1  0
  6 44  1  0
  7 45  1  1
 10 46  1  0
 11 47  1  0
 16 48  1  0
 16 49  1  0
 16 50  1  0
 17 51  1  0
 17 52  1  0
 17 53  1  0
 18 54  1  6
 19 55  1  1
 20 56  1  0
 21 57  1  0
 21 58  1  0
 22 59  1  1
 24 60  1  0
 24 61  1  0
 24 62  1  0
 25 63  1  0
 25 64  1  0
 26 65  1  0
 26 66  1  0
 28 67  1  0
 29 68  1  6
 30 69  1  0
 30 70  1  0
 30 71  1  0
 31 72  1  1
 32 73  1  0
 32 74  1  0
 33 75  1  0
 35 76  1  0
 35 77  1  0
 35 78  1  0
M  END
$$$$
