
     RDKit          3D

 72 78  0  0  0  0  0  0  0  0999 V2000
   -4.6693   -1.7967    2.7168 C   0  0  0  0  0  0  0  0  0  0  0  0
   -5.3813   -0.8169    1.9240 N   0  0  0  0  0  0  0  0  0  0  0  0
   -6.6947   -0.4635    2.1123 C   0  0  0  0  0  0  0  0  0  0  0  0
   -7.0287    0.4580    1.1456 C   0  0  0  0  0  0  0  0  0  0  0  0
   -5.8735    0.6756    0.3562 C   0  0  0  0  0  0  0  0  0  0  0  0
   -4.8504   -0.0941    0.8779 C   0  0  0  0  0  0  0  0  0  0  0  0
   -3.4972   -0.2359    0.4389 C   0  0  0  0  0  0  0  0  0  0  0  0
   -3.0375   -1.3970    0.0168 N   0  0  0  0  0  0  0  0  0  0  0  0
   -1.7350   -1.1771   -0.3432 C   0  0  0  0  0  0  0  0  0  0  0  0
   -0.7928   -2.0770   -0.8645 C   0  0  0  0  0  0  0  0  0  0  0  0
    0.5027   -1.6120   -1.1342 C   0  0  0  0  0  0  0  0  0  0  0  0
    1.5184   -2.5861   -1.6211 C   0  0  0  0  0  0  0  0  0  0  0  0
    1.1812   -3.5397   -2.3130 O   0  0  0  0  0  0  0  0  0  0  0  0
    2.8071   -2.3575   -1.2002 N   0  0  0  0  0  0  0  0  0  0  0  0
    3.9517   -3.1473   -1.6474 C   0  0  1  0  0  0  0  0  0  0  0  0
    5.2799   -2.3598   -1.5370 C   0  0  0  0  0  0  0  0  0  0  0  0
    5.2629   -1.0610   -2.2861 C   0  0  0  0  0  0  0  0  0  0  0  0
    5.5741   -0.8669   -3.6185 C   0  0  0  0  0  0  0  0  0  0  0  0
    5.3522    0.4512   -3.9186 N   0  0  0  0  0  0  0  0  0  0  0  0
    4.8887    1.1210   -2.8137 C   0  0  0  0  0  0  0  0  0  0  0  0
    4.4820    2.4450   -2.6560 C   0  0  0  0  0  0  0  0  0  0  0  0
    4.0143    2.8303   -1.3860 C   0  0  0  0  0  0  0  0  0  0  0  0
    3.9593    1.9804   -0.2674 C   0  0  0  0  0  0  0  0  0  0  0  0
    3.4950    2.3529    0.8601 O   0  0  0  0  0  0  0  0  0  0  0  0
    4.4412    0.6742   -0.4919 C   0  0  0  0  0  0  0  0  0  0  0  0
    4.8682    0.2134   -1.7612 C   0  0  0  0  0  0  0  0  0  0  0  0
    4.0426   -4.4295   -0.8441 C   0  0  0  0  0  0  0  0  0  0  0  0
    3.4853   -4.6905    0.3985 C   0  0  0  0  0  0  0  0  0  0  0  0
    3.8690   -6.2797    0.9093 S   0  0  0  0  0  0  0  0  0  0  0  0
    4.7546   -6.5061   -0.5380 C   0  0  0  0  0  0  0  0  0  0  0  0
    4.7933   -5.4851   -1.3634 N   0  0  0  0  0  0  0  0  0  0  0  0
    0.8259   -0.2653   -0.9369 C   0  0  0  0  0  0  0  0  0  0  0  0
   -0.1012    0.6384   -0.4104 C   0  0  0  0  0  0  0  0  0  0  0  0
   -1.3765    0.1467   -0.1126 C   0  0  0  0  0  0  0  0  0  0  0  0
   -2.5071    0.7253    0.4414 N   0  0  0  0  0  0  0  0  0  0  0  0
   -2.5314    2.0862    0.9725 C   0  0  0  0  0  0  0  0  0  0  0  0
   -3.1259    3.0957   -0.0187 C   0  0  0  0  0  0  0  0  0  0  0  0
   -3.0153    4.5253    0.5104 C   0  0  0  0  0  0  0  0  0  0  0  0
   -3.6180    4.6642    1.9061 C   0  0  0  0  0  0  0  0  0  0  0  0
   -3.0109    3.6646    2.8875 C   0  0  0  0  0  0  0  0  0  0  0  0
   -3.1436    2.2300    2.3765 C   0  0  0  0  0  0  0  0  0  0  0  0
   -4.4712   -2.6699    2.0905 H   0  0  0  0  0  0  0  0  0  0  0  0
   -3.7384   -1.3512    3.0769 H   0  0  0  0  0  0  0  0  0  0  0  0
   -5.2858   -2.0878    3.5715 H   0  0  0  0  0  0  0  0  0  0  0  0
   -7.2873   -0.9089    2.9003 H   0  0  0  0  0  0  0  0  0  0  0  0
   -8.0021    0.9105    1.0112 H   0  0  0  0  0  0  0  0  0  0  0  0
   -5.8011    1.3167   -0.5117 H   0  0  0  0  0  0  0  0  0  0  0  0
   -1.0639   -3.1134   -1.0328 H   0  0  0  0  0  0  0  0  0  0  0  0
    2.9959   -1.5677   -0.5941 H   0  0  0  0  0  0  0  0  0  0  0  0
    3.7733   -3.4145   -2.6974 H   0  0  0  0  0  0  0  0  0  0  0  0
    6.1067   -2.9772   -1.9132 H   0  0  0  0  0  0  0  0  0  0  0  0
    5.5105   -2.1614   -0.4816 H   0  0  0  0  0  0  0  0  0  0  0  0
    5.9085   -1.5574   -4.3803 H   0  0  0  0  0  0  0  0  0  0  0  0
    5.4724    0.8733   -4.8270 H   0  0  0  0  0  0  0  0  0  0  0  0
    4.4956    3.1547   -3.4732 H   0  0  0  0  0  0  0  0  0  0  0  0
    3.6685    3.8567   -1.2592 H   0  0  0  0  0  0  0  0  0  0  0  0
    4.4425   -0.0137    0.3511 H   0  0  0  0  0  0  0  0  0  0  0  0
    2.8756   -4.0377    1.0071 H   0  0  0  0  0  0  0  0  0  0  0  0
    5.2573   -7.4393   -0.7527 H   0  0  0  0  0  0  0  0  0  0  0  0
    1.8105    0.1231   -1.1887 H   0  0  0  0  0  0  0  0  0  0  0  0
    0.1968    1.6698   -0.2367 H   0  0  0  0  0  0  0  0  0  0  0  0
   -1.4760    2.3618    1.1012 H   0  0  0  0  0  0  0  0  0  0  0  0
   -2.6115    3.0271   -0.9850 H   0  0  0  0  0  0  0  0  0  0  0  0
   -4.1788    2.8723   -0.2115 H   0  0  0  0  0  0  0  0  0  0  0  0
   -3.5192    5.2124   -0.1788 H   0  0  0  0  0  0  0  0  0  0  0  0
   -1.9593    4.8211    0.5394 H   0  0  0  0  0  0  0  0  0  0  0  0
   -4.7025    4.5086    1.8514 H   0  0  0  0  0  0  0  0  0  0  0  0
   -3.4598    5.6839    2.2749 H   0  0  0  0  0  0  0  0  0  0  0  0
   -3.5070    3.7558    3.8604 H   0  0  0  0  0  0  0  0  0  0  0  0
   -1.9517    3.9019    3.0453 H   0  0  0  0  0  0  0  0  0  0  0  0
   -2.6513    1.5433    3.0756 H   0  0  0  0  0  0  0  0  0  0  0  0
   -4.2062    1.9736    2.3756 H   0  0  0  0  0  0  0  0  0  0  0  0
  1  2  1  0
  2  3  1  0
  3  4  2  0
  4  5  1  0
  5  6  2  0
  6  7  1  0
  7  8  2  0
  8  9  1  0
  9 10  2  0
 10 11  1  0
 11 12  1  0
 12 13  2  0
 12 14  1  0
 14 15  1  0
 15 16  1  0
 16 17  1  0
 17 18  2  0
 18 19  1  0
 19 20  1  0
 20 21  2  0
 21 22  1  0
 22 23  2  0
 23 24  1  0
 23 25  1  0
 25 26  2  0
 15 27  1  0
 27 28  2  0
 28 29  1  0
 29 30  1  0
 30 31  2  0
 11 32  2  0
 32 33  1  0
 33 34  2  0
 34 35  1  0
 35 36  1  0
 36 37  1  0
 37 38  1  0
 38 39  1  0
 39 40  1  0
 40 41  1  0
  6  2  1  0
 35  7  1  0
 41 36  1  0
 34  9  1  0
 26 17  1  0
 31 27  1  0
 26 20  1  0
  1 42  1  0
  1 43  1  0
  1 44  1  0
  3 45  1  0
  4 46  1  0
  5 47  1  0
 10 48  1  0
 14 49  1  0
 15 50  1  6
 16 51  1  0
 16 52  1  0
 18 53  1  0
 19 54  1  0
 21 55  1  0
 22 56  1  0
 25 57  1  0
 28 58  1  0
 30 59  1  0
 32 60  1  0
 33 61  1  0
 36 62  1  0
 37 63  1  0
 37 64  1  0
 38 65  1  0
 38 66  1  0
 39 67  1  0
 39 68  1  0
 40 69  1  0
 40 70  1  0
 41 71  1  0
 41 72  1  0
M  CHG  1  24  -1
M  END
$$$$
