
     RDKit          3D

 85 91  0  0  0  0  0  0  0  0999 V2000
   -4.4256   -4.8788   -1.3652 C   0  0  0  0  0  0  0  0  0  0  0  0
   -4.7448   -3.7788   -2.2246 O   0  0  0  0  0  0  0  0  0  0  0  0
   -4.4551   -2.5691   -1.6473 C   0  0  0  0  0  0  0  0  0  0  0  0
   -5.5082   -1.6490   -1.6284 C   0  0  0  0  0  0  0  0  0  0  0  0
   -5.3417   -0.3662   -1.0806 C   0  0  0  0  0  0  0  0  0  0  0  0
   -4.1033    0.0053   -0.5334 C   0  0  0  0  0  0  0  0  0  0  0  0
   -3.0444   -0.9129   -0.6097 C   0  0  0  0  0  0  0  0  0  0  0  0
   -3.2058   -2.2004   -1.1470 C   0  0  0  0  0  0  0  0  0  0  0  0
   -2.1509   -3.0890   -1.2566 O   0  0  0  0  0  0  0  0  0  0  0  0
   -1.1502   -2.9698   -0.3001 C   0  0  0  0  0  0  0  0  0  0  0  0
   -0.0000   -2.2736   -0.7143 C   0  0  0  0  0  0  0  0  0  0  0  0
    1.0045   -1.9435    0.1988 C   0  0  0  0  0  0  0  0  0  0  0  0
    0.8594   -2.4110    1.5032 C   0  0  0  0  0  0  0  0  0  0  0  0
   -0.2618   -3.1697    1.8769 C   0  0  0  0  0  0  0  0  0  0  0  0
   -1.3271   -3.4704    1.0111 C   0  0  0  0  0  0  0  0  0  0  0  0
   -2.3495   -4.1129    1.4254 O   0  0  0  0  0  0  0  0  0  0  0  0
    2.0852   -0.9935   -0.2639 C   0  0  0  0  0  0  0  0  0  0  0  0
    3.3418   -0.7570    0.6272 C   0  0  2  0  0  0  0  0  0  0  0  0
    3.8468    0.6561    0.3860 C   0  0  0  0  0  0  0  0  0  0  0  0
    4.8434    0.9019   -0.5594 C   0  0  0  0  0  0  0  0  0  0  0  0
    5.2283    2.2221   -0.7883 C   0  0  0  0  0  0  0  0  0  0  0  0
    4.6833    3.3033   -0.0658 C   0  0  0  0  0  0  0  0  0  0  0  0
    5.2625    4.4825   -0.4945 O   0  0  0  0  0  0  0  0  0  0  0  0
    4.8710    5.6975    0.1261 C   0  0  0  0  0  0  0  0  0  0  0  0
    3.7106    3.1124    0.9551 C   0  0  0  0  0  0  0  0  0  0  0  0
    3.2274    4.0414    1.6930 O   0  0  0  0  0  0  0  0  0  0  0  0
    3.2997    1.7496    1.1128 C   0  0  0  0  0  0  0  0  0  0  0  0
    2.4283    1.4225    2.1560 O   0  0  0  0  0  0  0  0  0  0  0  0
    1.0686    1.4829    1.9347 C   0  0  0  0  0  0  0  0  0  0  0  0
    0.2952    0.6698    2.7624 C   0  0  0  0  0  0  0  0  0  0  0  0
   -1.0896    0.5952    2.5955 C   0  0  0  0  0  0  0  0  0  0  0  0
   -1.7375    1.3682    1.6218 C   0  0  0  0  0  0  0  0  0  0  0  0
   -0.9616    2.2411    0.8462 C   0  0  0  0  0  0  0  0  0  0  0  0
    0.4315    2.2816    0.9887 C   0  0  0  0  0  0  0  0  0  0  0  0
   -3.2458    1.2846    1.5163 C   0  0  0  0  0  0  0  0  0  0  0  0
   -3.8510    1.3758    0.0810 C   0  0  2  0  0  0  0  0  0  0  0  0
   -5.1246    2.2516    0.1520 N   0  0  0  0  0  0  0  0  0  0  0  0
   -4.8073    3.7153    0.3032 C   0  0  0  0  0  0  0  0  0  0  0  0
   -6.0301    2.0241   -1.0355 C   0  0  0  0  0  0  0  0  0  0  0  0
   -6.5061    0.5796   -1.0556 C   0  0  0  0  0  0  0  0  0  0  0  0
    5.6083   -0.1981   -1.2373 C   0  0  0  0  0  0  0  0  0  0  0  0
    5.0776   -1.6132   -1.0187 C   0  0  0  0  0  0  0  0  0  0  0  0
    4.4768   -1.8308    0.3667 N   0  0  0  0  0  0  0  0  0  0  0  0
    3.9392   -3.2554    0.4611 C   0  0  0  0  0  0  0  0  0  0  0  0
    5.5399   -1.6771    1.4602 C   0  0  0  0  0  0  0  0  0  0  0  0
   -4.6502   -4.6629   -0.3155 H   0  0  0  0  0  0  0  0  0  0  0  0
   -3.3867   -5.1903   -1.5007 H   0  0  0  0  0  0  0  0  0  0  0  0
   -5.0576   -5.7200   -1.6675 H   0  0  0  0  0  0  0  0  0  0  0  0
   -6.4680   -1.9581   -2.0379 H   0  0  0  0  0  0  0  0  0  0  0  0
   -2.0679   -0.6283   -0.2282 H   0  0  0  0  0  0  0  0  0  0  0  0
    0.0400   -1.9162   -1.7399 H   0  0  0  0  0  0  0  0  0  0  0  0
    1.5650   -2.1786    2.2921 H   0  0  0  0  0  0  0  0  0  0  0  0
   -0.3368   -3.5097    2.9113 H   0  0  0  0  0  0  0  0  0  0  0  0
    2.3872   -1.2895   -1.2742 H   0  0  0  0  0  0  0  0  0  0  0  0
    1.5675   -0.0363   -0.4087 H   0  0  0  0  0  0  0  0  0  0  0  0
    3.1108   -0.8720    1.6896 H   0  0  0  0  0  0  0  0  0  0  0  0
    6.0034    2.4442   -1.5205 H   0  0  0  0  0  0  0  0  0  0  0  0
    5.1561    5.7217    1.1823 H   0  0  0  0  0  0  0  0  0  0  0  0
    3.8105    5.9125   -0.0374 H   0  0  0  0  0  0  0  0  0  0  0  0
    5.4294    6.5024   -0.3639 H   0  0  0  0  0  0  0  0  0  0  0  0
    0.7737    0.0678    3.5297 H   0  0  0  0  0  0  0  0  0  0  0  0
   -1.6508   -0.0892    3.2309 H   0  0  0  0  0  0  0  0  0  0  0  0
   -1.3998    2.9203    0.1226 H   0  0  0  0  0  0  0  0  0  0  0  0
    1.0077    2.9736    0.3786 H   0  0  0  0  0  0  0  0  0  0  0  0
   -3.6252    2.0848    2.1621 H   0  0  0  0  0  0  0  0  0  0  0  0
   -3.5936    0.3545    1.9874 H   0  0  0  0  0  0  0  0  0  0  0  0
   -3.1983    1.9101   -0.6178 H   0  0  0  0  0  0  0  0  0  0  0  0
   -5.6323    1.9376    0.9889 H   0  0  0  0  0  0  0  0  0  0  0  0
   -4.2036    3.8675    1.1989 H   0  0  0  0  0  0  0  0  0  0  0  0
   -4.2691    4.0495   -0.5881 H   0  0  0  0  0  0  0  0  0  0  0  0
   -5.7526    4.2546    0.4089 H   0  0  0  0  0  0  0  0  0  0  0  0
   -5.4663    2.2908   -1.9376 H   0  0  0  0  0  0  0  0  0  0  0  0
   -6.8857    2.7000   -0.9308 H   0  0  0  0  0  0  0  0  0  0  0  0
   -7.1177    0.3662   -0.1706 H   0  0  0  0  0  0  0  0  0  0  0  0
   -7.1347    0.4306   -1.9413 H   0  0  0  0  0  0  0  0  0  0  0  0
    5.6523   -0.0054   -2.3163 H   0  0  0  0  0  0  0  0  0  0  0  0
    6.6419   -0.1592   -0.8683 H   0  0  0  0  0  0  0  0  0  0  0  0
    4.3065   -1.8488   -1.7587 H   0  0  0  0  0  0  0  0  0  0  0  0
    5.8824   -2.3468   -1.1519 H   0  0  0  0  0  0  0  0  0  0  0  0
    4.7837   -3.9434    0.3490 H   0  0  0  0  0  0  0  0  0  0  0  0
    3.2299   -3.4321   -0.3498 H   0  0  0  0  0  0  0  0  0  0  0  0
    3.4831   -3.3945    1.4434 H   0  0  0  0  0  0  0  0  0  0  0  0
    6.3368   -2.4010    1.2638 H   0  0  0  0  0  0  0  0  0  0  0  0
    5.0719   -1.8850    2.4274 H   0  0  0  0  0  0  0  0  0  0  0  0
    5.9497   -0.6654    1.4523 H   0  0  0  0  0  0  0  0  0  0  0  0
  1  2  1  0
  2  3  1  0
  3  4  2  0
  4  5  1  0
  5  6  2  0
  6  7  1  0
  7  8  2  0
  8  9  1  0
  9 10  1  0
 10 11  2  0
 11 12  1  0
 12 13  2  0
 13 14  1  0
 14 15  2  0
 15 16  1  0
 12 17  1  0
 17 18  1  0
 18 19  1  0
 19 20  2  0
 20 21  1  0
 21 22  2  0
 22 23  1  0
 23 24  1  0
 22 25  1  0
 25 26  1  0
 25 27  2  0
 27 28  1  0
 28 29  1  0
 29 30  2  0
 30 31  1  0
 31 32  2  0
 32 33  1  0
 33 34  2  0
 32 35  1  0
 35 36  1  0
 36 37  1  0
 37 38  1  0
 37 39  1  0
 39 40  1  0
 20 41  1  0
 41 42  1  0
 42 43  1  0
 43 44  1  0
 43 45  1  0
  8  3  1  0
 15 10  1  0
 43 18  1  0
 40  5  1  0
 36  6  1  0
 27 19  1  0
 34 29  1  0
  1 46  1  0
  1 47  1  0
  1 48  1  0
  4 49  1  0
  7 50  1  0
 11 51  1  0
 13 52  1  0
 14 53  1  0
 17 54  1  0
 17 55  1  0
 18 56  1  1
 21 57  1  0
 24 58  1  0
 24 59  1  0
 24 60  1  0
 30 61  1  0
 31 62  1  0
 33 63  1  0
 34 64  1  0
 35 65  1  0
 35 66  1  0
 36 67  1  6
 37 68  1  0
 38 69  1  0
 38 70  1  0
 38 71  1  0
 39 72  1  0
 39 73  1  0
 40 74  1  0
 40 75  1  0
 41 76  1  0
 41 77  1  0
 42 78  1  0
 42 79  1  0
 44 80  1  0
 44 81  1  0
 44 82  1  0
 45 83  1  0
 45 84  1  0
 45 85  1  0
M  CHG  4  16  -1  26  -1  37   1  43   1
M  END
$$$$
