
     RDKit          3D

 69 74  0  0  0  0  0  0  0  0999 V2000
  -11.1067    0.2102   -1.2261 C   0  0  0  0  0  0  0  0  0  0  0  0
   -9.7434   -0.3064   -0.8854 N   0  0  0  0  0  0  0  0  0  0  0  0
   -9.6015   -0.6177    0.6018 C   0  0  0  0  0  0  0  0  0  0  0  0
   -8.2152   -1.2210    0.9037 C   0  0  0  0  0  0  0  0  0  0  0  0
   -7.1382   -0.3736    0.3622 N   0  0  0  0  0  0  0  0  0  0  0  0
   -5.8738   -0.5050    0.9390 C   0  0  0  0  0  0  0  0  0  0  0  0
   -5.7070   -0.3596    2.3244 C   0  0  0  0  0  0  0  0  0  0  0  0
   -4.4518   -0.4734    2.9268 C   0  0  0  0  0  0  0  0  0  0  0  0
   -3.3265   -0.7353    2.1508 C   0  0  0  0  0  0  0  0  0  0  0  0
   -3.4465   -0.8807    0.7674 C   0  0  0  0  0  0  0  0  0  0  0  0
   -2.2882   -1.1733   -0.0627 C   0  0  0  0  0  0  0  0  0  0  0  0
   -2.1775   -2.0149   -1.1881 C   0  0  0  0  0  0  0  0  0  0  0  0
   -0.9586   -2.0293   -1.7223 N   0  0  0  0  0  0  0  0  0  0  0  0
   -0.2298   -1.1944   -0.9196 N   0  0  0  0  0  0  0  0  0  0  0  0
    1.1503   -0.8791   -1.0532 C   0  0  0  0  0  0  0  0  0  0  0  0
    1.8239   -1.4783   -2.0989 N   0  0  0  0  0  0  0  0  0  0  0  0
    1.6969   -0.0214   -0.1626 C   0  0  0  0  0  0  0  0  0  0  0  0
    3.1045    0.3948   -0.1707 C   0  0  0  0  0  0  0  0  0  0  0  0
    4.1179   -0.5151    0.1483 C   0  0  0  0  0  0  0  0  0  0  0  0
    5.4602   -0.1176    0.1443 C   0  0  0  0  0  0  0  0  0  0  0  0
    5.8093    1.1948   -0.1769 C   0  0  0  0  0  0  0  0  0  0  0  0
    7.1312    1.6693   -0.2040 N   0  0  0  0  0  0  0  0  0  0  0  0
    8.2889    0.9820    0.0623 C   0  0  0  0  0  0  0  0  0  0  0  0
    8.3927   -0.1943    0.3784 O   0  0  0  0  0  0  0  0  0  0  0  0
    9.3530    1.8649   -0.0923 O   0  0  0  0  0  0  0  0  0  0  0  0
   10.6152    1.3207    0.1677 C   0  0  0  0  0  0  0  0  0  0  0  0
   11.0148    1.0608    1.4779 C   0  0  0  0  0  0  0  0  0  0  0  0
   12.2989    0.5705    1.7118 C   0  0  0  0  0  0  0  0  0  0  0  0
   13.1725    0.3600    0.6422 C   0  0  0  0  0  0  0  0  0  0  0  0
   12.7666    0.6425   -0.6642 C   0  0  0  0  0  0  0  0  0  0  0  0
   11.4837    1.1323   -0.9054 C   0  0  0  0  0  0  0  0  0  0  0  0
    4.7943    2.1055   -0.4941 C   0  0  0  0  0  0  0  0  0  0  0  0
    3.4517    1.7106   -0.4910 C   0  0  0  0  0  0  0  0  0  0  0  0
    0.7593    0.5196    0.8715 C   0  0  0  0  0  0  0  0  0  0  0  0
   -0.5028    0.2452    1.0041 N   0  0  0  0  0  0  0  0  0  0  0  0
   -1.0198   -0.6416    0.0986 C   0  0  0  0  0  0  0  0  0  0  0  0
   -4.7197   -0.7631    0.1787 C   0  0  0  0  0  0  0  0  0  0  0  0
   -7.2506    0.0442   -1.0431 C   0  0  0  0  0  0  0  0  0  0  0  0
   -8.6392    0.6481   -1.3315 C   0  0  0  0  0  0  0  0  0  0  0  0
  -11.2699    1.1503   -0.6925 H   0  0  0  0  0  0  0  0  0  0  0  0
  -11.8393   -0.5430   -0.9249 H   0  0  0  0  0  0  0  0  0  0  0  0
  -11.1511    0.3612   -2.3077 H   0  0  0  0  0  0  0  0  0  0  0  0
   -9.6044   -1.1892   -1.3937 H   0  0  0  0  0  0  0  0  0  0  0  0
  -10.3950   -1.3250    0.8632 H   0  0  0  0  0  0  0  0  0  0  0  0
   -9.7509    0.3237    1.1425 H   0  0  0  0  0  0  0  0  0  0  0  0
   -8.1428   -2.2176    0.4502 H   0  0  0  0  0  0  0  0  0  0  0  0
   -8.1412   -1.3542    1.9882 H   0  0  0  0  0  0  0  0  0  0  0  0
   -6.5523   -0.1168    2.9626 H   0  0  0  0  0  0  0  0  0  0  0  0
   -4.3476   -0.3470    4.0018 H   0  0  0  0  0  0  0  0  0  0  0  0
   -2.3570   -0.8224    2.6375 H   0  0  0  0  0  0  0  0  0  0  0  0
   -2.9443   -2.6278   -1.6436 H   0  0  0  0  0  0  0  0  0  0  0  0
    1.2971   -2.1121   -2.6974 H   0  0  0  0  0  0  0  0  0  0  0  0
    2.8038   -1.2944   -2.2736 H   0  0  0  0  0  0  0  0  0  0  0  0
    3.8766   -1.5456    0.4045 H   0  0  0  0  0  0  0  0  0  0  0  0
    6.2084   -0.8630    0.3988 H   0  0  0  0  0  0  0  0  0  0  0  0
    7.2836    2.6380   -0.4481 H   0  0  0  0  0  0  0  0  0  0  0  0
   10.3360    1.2278    2.3082 H   0  0  0  0  0  0  0  0  0  0  0  0
   12.6205    0.3512    2.7266 H   0  0  0  0  0  0  0  0  0  0  0  0
   14.1728   -0.0240    0.8277 H   0  0  0  0  0  0  0  0  0  0  0  0
   13.4521    0.4810   -1.4920 H   0  0  0  0  0  0  0  0  0  0  0  0
   11.1673    1.3592   -1.9185 H   0  0  0  0  0  0  0  0  0  0  0  0
    5.0323    3.1350   -0.7512 H   0  0  0  0  0  0  0  0  0  0  0  0
    2.6862    2.4390   -0.7504 H   0  0  0  0  0  0  0  0  0  0  0  0
    1.2106    1.2250    1.5907 H   0  0  0  0  0  0  0  0  0  0  0  0
   -4.7973   -0.8848   -0.8975 H   0  0  0  0  0  0  0  0  0  0  0  0
   -7.0848   -0.8196   -1.6987 H   0  0  0  0  0  0  0  0  0  0  0  0
   -6.5019    0.8079   -1.2864 H   0  0  0  0  0  0  0  0  0  0  0  0
   -8.7701    0.8194   -2.4048 H   0  0  0  0  0  0  0  0  0  0  0  0
   -8.7864    1.5868   -0.7854 H   0  0  0  0  0  0  0  0  0  0  0  0
  1  2  1  0
  2  3  1  0
  3  4  1  0
  4  5  1  0
  5  6  1  0
  6  7  2  0
  7  8  1  0
  8  9  2  0
  9 10  1  0
 10 11  1  0
 11 12  1  0
 12 13  2  0
 13 14  1  0
 14 15  1  0
 15 16  1  0
 15 17  2  0
 17 18  1  0
 18 19  2  0
 19 20  1  0
 20 21  2  0
 21 22  1  0
 22 23  1  0
 23 24  2  0
 23 25  1  0
 25 26  1  0
 26 27  2  0
 27 28  1  0
 28 29  2  0
 29 30  1  0
 30 31  2  0
 21 32  1  0
 32 33  2  0
 17 34  1  0
 34 35  2  0
 35 36  1  0
 10 37  2  0
  5 38  1  0
 38 39  1  0
 39  2  1  0
 37  6  1  0
 36 11  2  0
 36 14  1  0
 33 18  1  0
 31 26  1  0
  1 40  1  0
  1 41  1  0
  1 42  1  0
  2 43  1  0
  3 44  1  0
  3 45  1  0
  4 46  1  0
  4 47  1  0
  7 48  1  0
  8 49  1  0
  9 50  1  0
 12 51  1  0
 16 52  1  0
 16 53  1  0
 19 54  1  0
 20 55  1  0
 22 56  1  0
 27 57  1  0
 28 58  1  0
 29 59  1  0
 30 60  1  0
 31 61  1  0
 32 62  1  0
 33 63  1  0
 34 64  1  0
 37 65  1  0
 38 66  1  0
 38 67  1  0
 39 68  1  0
 39 69  1  0
M  CHG  1   2   1
M  END
$$$$
