
     RDKit          3D

 45 47  0  0  0  0  0  0  0  0999 V2000
   -0.1681   -0.8931   -1.4317 O   0  0  0  0  0  0  0  0  0  0  0  0
   -0.3996   -1.5577   -0.4277 C   0  0  0  0  0  0  0  0  0  0  0  0
    0.6013   -1.9254    0.4500 N   0  0  0  0  0  0  0  0  0  0  0  0
    2.0007   -1.6687    0.1617 C   0  0  0  0  0  0  0  0  0  0  0  0
    2.5213   -0.3050    0.6612 C   0  0  0  0  0  0  0  0  0  0  0  0
    2.4433   -0.2944    2.0287 F   0  0  0  0  0  0  0  0  0  0  0  0
    4.0036   -0.1506    0.3046 C   0  0  0  0  0  0  0  0  0  0  0  0
    4.5522    1.1697    0.8153 C   0  0  0  0  0  0  0  0  0  0  0  0
    3.7293    2.2915    0.2805 N   0  0  0  0  0  0  0  0  0  0  0  0
    2.2889    2.2013    0.6590 C   0  0  0  0  0  0  0  0  0  0  0  0
    1.7153    0.8919    0.1550 C   0  0  0  0  0  0  0  0  0  0  0  0
   -1.7808   -1.9842   -0.0801 C   0  0  0  0  0  0  0  0  0  0  0  0
   -1.9869   -3.2928    0.3728 C   0  0  0  0  0  0  0  0  0  0  0  0
   -0.9516   -4.1296    0.5427 F   0  0  0  0  0  0  0  0  0  0  0  0
   -3.2631   -3.7655    0.6619 C   0  0  0  0  0  0  0  0  0  0  0  0
   -4.3594   -2.9268    0.4967 C   0  0  0  0  0  0  0  0  0  0  0  0
   -4.1705   -1.6161    0.0516 C   0  0  0  0  0  0  0  0  0  0  0  0
   -2.8843   -1.1170   -0.2417 C   0  0  0  0  0  0  0  0  0  0  0  0
   -2.7544    0.2893   -0.6535 C   0  0  0  0  0  0  0  0  0  0  0  0
   -3.1935    0.7146   -1.9175 C   0  0  0  0  0  0  0  0  0  0  0  0
   -3.0642    2.0497   -2.3099 C   0  0  0  0  0  0  0  0  0  0  0  0
   -2.4869    2.9782   -1.4454 C   0  0  0  0  0  0  0  0  0  0  0  0
   -2.0502    2.5672   -0.1891 C   0  0  0  0  0  0  0  0  0  0  0  0
   -1.2933    3.6964    0.8679 Cl  0  0  0  0  0  0  0  0  0  0  0  0
   -2.1941    1.2395    0.2144 C   0  0  0  0  0  0  0  0  0  0  0  0
    0.3697   -2.4972    1.2568 H   0  0  0  0  0  0  0  0  0  0  0  0
    2.1588   -1.7640   -0.9189 H   0  0  0  0  0  0  0  0  0  0  0  0
    2.5580   -2.4731    0.6550 H   0  0  0  0  0  0  0  0  0  0  0  0
    4.5836   -0.9639    0.7563 H   0  0  0  0  0  0  0  0  0  0  0  0
    4.1404   -0.2138   -0.7823 H   0  0  0  0  0  0  0  0  0  0  0  0
    4.5269    1.2362    1.9082 H   0  0  0  0  0  0  0  0  0  0  0  0
    5.5774    1.3357    0.4714 H   0  0  0  0  0  0  0  0  0  0  0  0
    4.1046    3.1821    0.6366 H   0  0  0  0  0  0  0  0  0  0  0  0
    3.8171    2.3485   -0.7445 H   0  0  0  0  0  0  0  0  0  0  0  0
    1.7891    3.0604    0.2027 H   0  0  0  0  0  0  0  0  0  0  0  0
    2.2305    2.2897    1.7489 H   0  0  0  0  0  0  0  0  0  0  0  0
    0.6859    0.8305    0.5171 H   0  0  0  0  0  0  0  0  0  0  0  0
    1.6929    0.8996   -0.9411 H   0  0  0  0  0  0  0  0  0  0  0  0
   -3.3951   -4.7869    1.0076 H   0  0  0  0  0  0  0  0  0  0  0  0
   -5.3622   -3.2879    0.7166 H   0  0  0  0  0  0  0  0  0  0  0  0
   -5.0428   -0.9709   -0.0581 H   0  0  0  0  0  0  0  0  0  0  0  0
   -3.6312   -0.0000   -2.6133 H   0  0  0  0  0  0  0  0  0  0  0  0
   -3.4092    2.3604   -3.2936 H   0  0  0  0  0  0  0  0  0  0  0  0
   -2.3848    4.0137   -1.7588 H   0  0  0  0  0  0  0  0  0  0  0  0
   -1.8646    0.9386    1.2059 H   0  0  0  0  0  0  0  0  0  0  0  0
  1  2  2  0
  2  3  1  0
  3  4  1  0
  4  5  1  0
  5  6  1  0
  5  7  1  0
  7  8  1  0
  8  9  1  0
  9 10  1  0
 10 11  1  0
  2 12  1  0
 12 13  2  0
 13 14  1  0
 13 15  1  0
 15 16  2  0
 16 17  1  0
 17 18  2  0
 18 19  1  0
 19 20  2  0
 20 21  1  0
 21 22  2  0
 22 23  1  0
 23 24  1  0
 23 25  2  0
 11  5  1  0
 18 12  1  0
 25 19  1  0
  3 26  1  0
  4 27  1  0
  4 28  1  0
  7 29  1  0
  7 30  1  0
  8 31  1  0
  8 32  1  0
  9 33  1  0
  9 34  1  0
 10 35  1  0
 10 36  1  0
 11 37  1  0
 11 38  1  0
 15 39  1  0
 16 40  1  0
 17 41  1  0
 20 42  1  0
 21 43  1  0
 22 44  1  0
 25 45  1  0
M  CHG  1   9   1
M  END
$$$$
