
     RDKit          3D

 79 83  0  0  0  0  0  0  0  0999 V2000
   -4.6671    3.4226    2.7608 C   0  0  0  0  0  0  0  0  0  0  0  0
   -4.0915    2.1949    2.1142 C   0  0  0  0  0  0  0  0  0  0  0  0
   -2.8156    1.8302    2.3458 C   0  0  0  0  0  0  0  0  0  0  0  0
   -2.1170    0.6652    1.6985 C   0  0  1  0  0  0  0  0  0  0  0  0
   -2.0200   -0.3224    2.7434 O   0  0  0  0  0  0  0  0  0  0  0  0
   -1.5550   -1.6159    2.3432 C   0  0  2  0  0  0  0  0  0  0  0  0
   -0.2381   -1.5254    1.5725 C   0  0  0  0  0  0  0  0  0  0  0  0
   -0.6648   -1.3658    0.0898 C   0  0  1  0  0  0  0  0  0  0  0  0
   -0.1518   -2.5275   -0.5991 O   0  0  0  0  0  0  0  0  0  0  0  0
    0.4527   -2.3147   -1.7890 C   0  0  0  0  0  0  0  0  0  0  0  0
    0.5273   -1.2695   -2.4117 O   0  0  0  0  0  0  0  0  0  0  0  0
    1.0536   -3.5904   -2.2161 C   0  0  0  0  0  0  0  0  0  0  0  0
    2.3745   -3.7387   -2.4009 C   0  0  0  0  0  0  0  0  0  0  0  0
    3.3848   -2.7317   -2.1661 C   0  0  0  0  0  0  0  0  0  0  0  0
    3.5794   -2.1503   -0.9711 C   0  0  0  0  0  0  0  0  0  0  0  0
    4.5933   -1.0692   -0.7052 C   0  0  2  0  0  0  0  0  0  0  0  0
    5.6643   -1.5494    0.3075 C   0  0  1  0  0  0  0  0  0  0  0  0
    6.7763   -0.5195    0.4785 C   0  0  0  0  0  0  0  0  0  0  0  0
    5.0756   -1.7629    1.5979 O   0  0  0  0  0  0  0  0  0  0  0  0
    3.9035    0.0518   -0.1157 O   0  0  0  0  0  0  0  0  0  0  0  0
    3.2704    0.8853   -1.1050 C   0  0  0  0  0  0  0  0  0  0  0  0
    2.5181    2.0026   -0.3629 C   0  0  2  0  0  0  0  0  0  0  0  0
    1.5821    1.4007    0.5387 O   0  0  0  0  0  0  0  0  0  0  0  0
    1.7772    3.0174   -1.2579 C   0  0  1  0  0  0  0  0  0  0  0  0
    2.7233    3.6781   -2.2639 C   0  0  0  0  0  0  0  0  0  0  0  0
    0.5622    2.4157   -1.9861 C   0  0  0  0  0  0  0  0  0  0  0  0
   -0.6834    2.3798   -1.1274 C   0  0  0  0  0  0  0  0  0  0  0  0
   -1.0756    3.3108   -0.4369 O   0  0  0  0  0  0  0  0  0  0  0  0
   -1.3544    1.2081   -1.3162 O   0  0  0  0  0  0  0  0  0  0  0  0
   -2.6774    1.1211   -0.7777 C   0  0  0  0  0  0  0  0  0  0  0  0
   -2.8326    0.1257    0.4152 C   0  0  2  0  0  0  0  0  0  0  0  0
   -4.3652    0.0708    0.7424 C   0  0  0  0  0  0  0  0  0  0  0  0
   -4.9725    1.4207    1.1660 C   0  0  1  0  0  0  0  0  0  0  0  0
   -6.2299    1.1347    1.7701 O   0  0  0  0  0  0  0  0  0  0  0  0
   -2.2511   -1.3362    0.0833 C   0  0  1  0  0  0  0  0  0  0  0  0
   -2.8424   -1.9398   -1.1958 C   0  0  0  0  0  0  0  0  0  0  0  0
   -2.5013   -2.1628    1.3313 C   0  0  2  0  0  0  0  0  0  0  0  0
   -3.6867   -3.0473    1.6453 C   0  0  0  0  0  0  0  0  0  0  0  0
   -2.4487   -3.5905    1.1691 O   0  0  0  0  0  0  0  0  0  0  0  0
   -5.4547    3.1520    3.4708 H   0  0  0  0  0  0  0  0  0  0  0  0
   -5.0915    4.0873    2.0014 H   0  0  0  0  0  0  0  0  0  0  0  0
   -3.9102    3.9933    3.3098 H   0  0  0  0  0  0  0  0  0  0  0  0
   -2.2052    2.4014    3.0422 H   0  0  0  0  0  0  0  0  0  0  0  0
   -1.1045    1.0009    1.4500 H   0  0  0  0  0  0  0  0  0  0  0  0
   -1.4607   -2.2368    3.2391 H   0  0  0  0  0  0  0  0  0  0  0  0
    0.3739   -0.6854    1.9130 H   0  0  0  0  0  0  0  0  0  0  0  0
    0.3454   -2.4439    1.7076 H   0  0  0  0  0  0  0  0  0  0  0  0
   -0.2060   -0.4652   -0.3124 H   0  0  0  0  0  0  0  0  0  0  0  0
    0.3624   -4.4093   -2.3705 H   0  0  0  0  0  0  0  0  0  0  0  0
    2.7462   -4.6937   -2.7672 H   0  0  0  0  0  0  0  0  0  0  0  0
    4.0080   -2.4748   -3.0199 H   0  0  0  0  0  0  0  0  0  0  0  0
    2.9726   -2.4443   -0.1161 H   0  0  0  0  0  0  0  0  0  0  0  0
    5.0942   -0.7587   -1.6313 H   0  0  0  0  0  0  0  0  0  0  0  0
    6.1029   -2.4984   -0.0211 H   0  0  0  0  0  0  0  0  0  0  0  0
    6.3890    0.4240    0.8782 H   0  0  0  0  0  0  0  0  0  0  0  0
    7.2804   -0.3186   -0.4716 H   0  0  0  0  0  0  0  0  0  0  0  0
    7.5198   -0.8806    1.1975 H   0  0  0  0  0  0  0  0  0  0  0  0
    4.4959   -0.9916    1.7481 H   0  0  0  0  0  0  0  0  0  0  0  0
    4.0415    1.2999   -1.7614 H   0  0  0  0  0  0  0  0  0  0  0  0
    2.5760    0.2771   -1.6885 H   0  0  0  0  0  0  0  0  0  0  0  0
    3.2369    2.5437    0.2654 H   0  0  0  0  0  0  0  0  0  0  0  0
    2.0937    0.7108    1.0049 H   0  0  0  0  0  0  0  0  0  0  0  0
    1.4131    3.8128   -0.5934 H   0  0  0  0  0  0  0  0  0  0  0  0
    3.0423    2.9769   -3.0417 H   0  0  0  0  0  0  0  0  0  0  0  0
    3.6154    4.0694   -1.7638 H   0  0  0  0  0  0  0  0  0  0  0  0
    2.2270    4.5187   -2.7612 H   0  0  0  0  0  0  0  0  0  0  0  0
    0.2971    3.0223   -2.8612 H   0  0  0  0  0  0  0  0  0  0  0  0
    0.7869    1.4134   -2.3605 H   0  0  0  0  0  0  0  0  0  0  0  0
   -3.0528    2.1182   -0.5284 H   0  0  0  0  0  0  0  0  0  0  0  0
   -3.3112    0.7855   -1.6075 H   0  0  0  0  0  0  0  0  0  0  0  0
   -4.5624   -0.6379    1.5538 H   0  0  0  0  0  0  0  0  0  0  0  0
   -4.9366   -0.3067   -0.1142 H   0  0  0  0  0  0  0  0  0  0  0  0
   -5.1725    2.0304    0.2774 H   0  0  0  0  0  0  0  0  0  0  0  0
   -6.6593    1.9824    1.9678 H   0  0  0  0  0  0  0  0  0  0  0  0
   -3.9356   -1.9532   -1.1753 H   0  0  0  0  0  0  0  0  0  0  0  0
   -2.5299   -2.9794   -1.3431 H   0  0  0  0  0  0  0  0  0  0  0  0
   -2.5284   -1.3789   -2.0815 H   0  0  0  0  0  0  0  0  0  0  0  0
   -3.9431   -3.2069    2.6859 H   0  0  0  0  0  0  0  0  0  0  0  0
   -4.5324   -3.0624    0.9704 H   0  0  0  0  0  0  0  0  0  0  0  0
  1  2  1  0
  2  3  2  0
  3  4  1  0
  4  5  1  0
  5  6  1  0
  6  7  1  0
  7  8  1  0
  8  9  1  0
  9 10  1  0
 10 11  2  0
 10 12  1  0
 12 13  2  0
 13 14  1  0
 14 15  2  0
 15 16  1  0
 16 17  1  0
 17 18  1  0
 17 19  1  0
 16 20  1  0
 20 21  1  0
 21 22  1  0
 22 23  1  0
 22 24  1  0
 24 25  1  0
 24 26  1  0
 26 27  1  0
 27 28  2  0
 27 29  1  0
 29 30  1  0
 31 30  1  6
 31 32  1  0
 32 33  1  0
 33 34  1  0
 31 35  1  0
 35 36  1  6
 35 37  1  0
 37 38  1  0
 38 39  1  0
 33  2  1  0
 37 39  1  6
 31  4  1  0
 37  6  1  0
 35  8  1  0
  1 40  1  0
  1 41  1  0
  1 42  1  0
  3 43  1  0
  4 44  1  6
  6 45  1  1
  7 46  1  0
  7 47  1  0
  8 48  1  6
 12 49  1  0
 13 50  1  0
 14 51  1  0
 15 52  1  0
 16 53  1  6
 17 54  1  6
 18 55  1  0
 18 56  1  0
 18 57  1  0
 19 58  1  0
 21 59  1  0
 21 60  1  0
 22 61  1  1
 23 62  1  0
 24 63  1  1
 25 64  1  0
 25 65  1  0
 25 66  1  0
 26 67  1  0
 26 68  1  0
 30 69  1  0
 30 70  1  0
 32 71  1  0
 32 72  1  0
 33 73  1  6
 34 74  1  0
 36 75  1  0
 36 76  1  0
 36 77  1  0
 38 78  1  0
 38 79  1  0
M  END
$$$$
