
     RDKit          3D

 63 66  0  0  0  0  0  0  0  0999 V2000
    2.5988    5.6708   -2.4238 C   0  0  0  0  0  0  0  0  0  0  0  0
    1.2302    5.1059   -2.7773 C   0  0  0  0  0  0  0  0  0  0  0  0
    0.7566    4.1744   -1.7554 N   0  0  0  0  0  0  0  0  0  0  0  0
    1.0886    2.8278   -1.9147 C   0  0  0  0  0  0  0  0  0  0  0  0
    1.7288    2.3708   -2.8539 O   0  0  0  0  0  0  0  0  0  0  0  0
    0.5907    1.9975   -0.8685 C   0  0  0  0  0  0  0  0  0  0  0  0
   -0.1489    2.4816    0.1661 C   0  0  0  0  0  0  0  0  0  0  0  0
   -0.5506    1.4883    1.0041 N   0  0  0  0  0  0  0  0  0  0  0  0
   -0.0698    0.3902    0.4757 C   0  0  0  0  0  0  0  0  0  0  0  0
   -0.3902   -0.8596    1.1614 N   0  0  0  0  0  0  0  0  0  0  0  0
   -1.5162   -1.6107    0.5236 C   0  0  0  0  0  0  0  0  0  0  0  0
   -1.5910   -2.9892    1.1906 C   0  0  0  0  0  0  0  0  0  0  0  0
   -2.7637   -3.8047    0.6523 C   0  0  0  0  0  0  0  0  0  0  0  0
   -4.0822   -3.0515    0.7980 C   0  0  0  0  0  0  0  0  0  0  0  0
   -4.0151   -1.6716    0.1513 C   0  0  0  0  0  0  0  0  0  0  0  0
   -2.8397   -0.8521    0.6824 C   0  0  0  0  0  0  0  0  0  0  0  0
    0.6983    0.6437   -0.6417 N   0  0  0  0  0  0  0  0  0  0  0  0
    1.4452   -0.2855   -1.4863 C   0  0  0  0  0  0  0  0  0  0  0  0
    2.0153   -1.4644   -0.7377 C   0  0  0  0  0  0  0  0  0  0  0  0
    1.6561   -2.7745   -1.0895 C   0  0  0  0  0  0  0  0  0  0  0  0
    2.1703   -3.8738   -0.3880 C   0  0  0  0  0  0  0  0  0  0  0  0
    3.0571   -3.6814    0.6719 C   0  0  0  0  0  0  0  0  0  0  0  0
    3.5852   -4.6697    1.4521 O   0  0  0  0  0  0  0  0  0  0  0  0
    3.5036   -6.0024    0.9587 C   0  0  0  0  0  0  0  0  0  0  0  0
    3.4315   -2.3773    1.0024 C   0  0  0  0  0  0  0  0  0  0  0  0
    4.2675   -2.1512    2.0250 F   0  0  0  0  0  0  0  0  0  0  0  0
    2.9359   -1.2784    0.3027 C   0  0  0  0  0  0  0  0  0  0  0  0
   -0.4388    3.8178    0.2914 N   0  0  0  0  0  0  0  0  0  0  0  0
   -1.2400    4.3211    1.4051 C   0  0  0  0  0  0  0  0  0  0  0  0
   -2.7291    4.2556    1.1020 C   0  0  0  0  0  0  0  0  0  0  0  0
    0.0139    4.7144   -0.6856 C   0  0  0  0  0  0  0  0  0  0  0  0
   -0.2324    5.9196   -0.6129 O   0  0  0  0  0  0  0  0  0  0  0  0
    3.3419    4.8722   -2.3297 H   0  0  0  0  0  0  0  0  0  0  0  0
    2.9366    6.3630   -3.2010 H   0  0  0  0  0  0  0  0  0  0  0  0
    2.5686    6.2120   -1.4725 H   0  0  0  0  0  0  0  0  0  0  0  0
    1.2894    4.5938   -3.7443 H   0  0  0  0  0  0  0  0  0  0  0  0
    0.5147    5.9276   -2.8927 H   0  0  0  0  0  0  0  0  0  0  0  0
    0.4405   -1.4509    1.2800 H   0  0  0  0  0  0  0  0  0  0  0  0
   -0.6653   -0.5942    2.1183 H   0  0  0  0  0  0  0  0  0  0  0  0
   -1.2690   -1.7345   -0.5383 H   0  0  0  0  0  0  0  0  0  0  0  0
   -0.6607   -3.5439    1.0230 H   0  0  0  0  0  0  0  0  0  0  0  0
   -1.7000   -2.8769    2.2774 H   0  0  0  0  0  0  0  0  0  0  0  0
   -2.8240   -4.7601    1.1855 H   0  0  0  0  0  0  0  0  0  0  0  0
   -2.5905   -4.0388   -0.4054 H   0  0  0  0  0  0  0  0  0  0  0  0
   -4.3249   -2.9437    1.8624 H   0  0  0  0  0  0  0  0  0  0  0  0
   -4.8917   -3.6333    0.3431 H   0  0  0  0  0  0  0  0  0  0  0  0
   -3.9185   -1.7828   -0.9358 H   0  0  0  0  0  0  0  0  0  0  0  0
   -4.9517   -1.1330    0.3348 H   0  0  0  0  0  0  0  0  0  0  0  0
   -2.8093    0.1007    0.1418 H   0  0  0  0  0  0  0  0  0  0  0  0
   -3.0151   -0.6144    1.7396 H   0  0  0  0  0  0  0  0  0  0  0  0
    2.2818    0.2480   -1.9456 H   0  0  0  0  0  0  0  0  0  0  0  0
    0.7544   -0.6019   -2.2758 H   0  0  0  0  0  0  0  0  0  0  0  0
    0.9847   -2.9636   -1.9280 H   0  0  0  0  0  0  0  0  0  0  0  0
    1.8630   -4.8706   -0.6945 H   0  0  0  0  0  0  0  0  0  0  0  0
    3.9242   -6.0808   -0.0495 H   0  0  0  0  0  0  0  0  0  0  0  0
    4.0966   -6.6412    1.6201 H   0  0  0  0  0  0  0  0  0  0  0  0
    2.4703   -6.3629    0.9838 H   0  0  0  0  0  0  0  0  0  0  0  0
    3.2897   -0.2886    0.5857 H   0  0  0  0  0  0  0  0  0  0  0  0
   -1.0086    3.7400    2.3053 H   0  0  0  0  0  0  0  0  0  0  0  0
   -0.9612    5.3593    1.6176 H   0  0  0  0  0  0  0  0  0  0  0  0
   -3.3064    4.6452    1.9461 H   0  0  0  0  0  0  0  0  0  0  0  0
   -3.0494    3.2253    0.9155 H   0  0  0  0  0  0  0  0  0  0  0  0
   -2.9761    4.8478    0.2148 H   0  0  0  0  0  0  0  0  0  0  0  0
  1  2  1  0
  2  3  1  0
  3  4  1  0
  4  5  2  0
  4  6  1  0
  6  7  2  0
  7  8  1  0
  8  9  2  0
  9 10  1  0
 10 11  1  0
 11 12  1  0
 12 13  1  0
 13 14  1  0
 14 15  1  0
 15 16  1  0
  9 17  1  0
 17 18  1  0
 18 19  1  0
 19 20  2  0
 20 21  1  0
 21 22  2  0
 22 23  1  0
 23 24  1  0
 22 25  1  0
 25 26  1  0
 25 27  2  0
  7 28  1  0
 28 29  1  0
 29 30  1  0
 28 31  1  0
 31 32  2  0
 31  3  1  0
 17  6  1  0
 27 19  1  0
 16 11  1  0
  1 33  1  0
  1 34  1  0
  1 35  1  0
  2 36  1  0
  2 37  1  0
 10 38  1  0
 10 39  1  0
 11 40  1  0
 12 41  1  0
 12 42  1  0
 13 43  1  0
 13 44  1  0
 14 45  1  0
 14 46  1  0
 15 47  1  0
 15 48  1  0
 16 49  1  0
 16 50  1  0
 18 51  1  0
 18 52  1  0
 20 53  1  0
 21 54  1  0
 24 55  1  0
 24 56  1  0
 24 57  1  0
 27 58  1  0
 29 59  1  0
 29 60  1  0
 30 61  1  0
 30 62  1  0
 30 63  1  0
M  CHG  1  10   1
M  END
$$$$
