
     RDKit          3D

 51 53  0  0  0  0  0  0  0  0999 V2000
   -5.0949    3.1116   -2.4607 C   0  0  0  0  0  0  0  0  0  0  0  0
   -4.3153    2.0599   -1.7257 C   0  0  0  0  0  0  0  0  0  0  0  0
   -4.9487    0.9154   -1.2420 C   0  0  0  0  0  0  0  0  0  0  0  0
   -4.2171   -0.0799   -0.5831 C   0  0  0  0  0  0  0  0  0  0  0  0
   -2.8309    0.0383   -0.4002 C   0  0  0  0  0  0  0  0  0  0  0  0
   -2.1026   -0.9787    0.2717 N   0  0  0  0  0  0  0  0  0  0  0  0
   -2.7133   -2.1919    0.7586 C   0  0  0  0  0  0  0  0  0  0  0  0
   -1.5369   -3.0976    1.1046 C   0  0  0  0  0  0  0  0  0  0  0  0
   -0.3806   -2.1356    1.3705 N   0  0  0  0  0  0  0  0  0  0  0  0
    0.9734   -2.7015    1.0202 C   0  0  0  0  0  0  0  0  0  0  0  0
    2.1886   -1.9118    1.6097 C   0  0  0  0  0  0  0  0  0  0  0  0
    2.5863   -0.6540    0.8412 N   0  0  0  0  0  0  0  0  0  0  0  0
    3.4325    0.2847    1.6957 C   0  0  0  0  0  0  0  0  0  0  0  0
    3.0490    1.7411    1.4769 C   0  0  0  0  0  0  0  0  0  0  0  0
    2.8639    2.2159    0.0382 C   0  0  0  0  0  0  0  0  0  0  0  0
    3.7500    1.5295   -0.9949 C   0  0  0  0  0  0  0  0  0  0  0  0
    3.1843    0.1901   -1.4633 C   0  0  0  0  0  0  0  0  0  0  0  0
    3.2924   -0.9589   -0.4712 C   0  0  0  0  0  0  0  0  0  0  0  0
   -0.7843   -0.9430    0.6245 C   0  0  0  0  0  0  0  0  0  0  0  0
    0.1033   -0.1304    0.4792 O   0  0  0  0  0  0  0  0  0  0  0  0
   -2.2026    1.1857   -0.9029 C   0  0  0  0  0  0  0  0  0  0  0  0
   -2.9351    2.1811   -1.5624 C   0  0  0  0  0  0  0  0  0  0  0  0
   -4.6420    4.0993   -2.3248 H   0  0  0  0  0  0  0  0  0  0  0  0
   -5.1218    2.8782   -3.5295 H   0  0  0  0  0  0  0  0  0  0  0  0
   -6.1216    3.1706   -2.0845 H   0  0  0  0  0  0  0  0  0  0  0  0
   -6.0236    0.7924   -1.3728 H   0  0  0  0  0  0  0  0  0  0  0  0
   -4.7835   -0.9332   -0.2209 H   0  0  0  0  0  0  0  0  0  0  0  0
   -3.3017   -1.9566    1.6524 H   0  0  0  0  0  0  0  0  0  0  0  0
   -3.3479   -2.6636    0.0022 H   0  0  0  0  0  0  0  0  0  0  0  0
   -1.6924   -3.7125    1.9949 H   0  0  0  0  0  0  0  0  0  0  0  0
   -1.2546   -3.7197    0.2477 H   0  0  0  0  0  0  0  0  0  0  0  0
   -0.4311   -1.8366    2.3516 H   0  0  0  0  0  0  0  0  0  0  0  0
    0.9892   -3.7039    1.4634 H   0  0  0  0  0  0  0  0  0  0  0  0
    1.0229   -2.8054   -0.0681 H   0  0  0  0  0  0  0  0  0  0  0  0
    1.9424   -1.6085    2.6332 H   0  0  0  0  0  0  0  0  0  0  0  0
    3.0787   -2.5500    1.6354 H   0  0  0  0  0  0  0  0  0  0  0  0
    1.7135   -0.1359    0.6146 H   0  0  0  0  0  0  0  0  0  0  0  0
    4.4888    0.0965    1.4753 H   0  0  0  0  0  0  0  0  0  0  0  0
    3.2702    0.0326    2.7492 H   0  0  0  0  0  0  0  0  0  0  0  0
    3.8219    2.3591    1.9520 H   0  0  0  0  0  0  0  0  0  0  0  0
    2.1240    1.9562    2.0276 H   0  0  0  0  0  0  0  0  0  0  0  0
    1.8106    2.1079   -0.2494 H   0  0  0  0  0  0  0  0  0  0  0  0
    3.0638    3.2949    0.0146 H   0  0  0  0  0  0  0  0  0  0  0  0
    3.8056    2.1851   -1.8734 H   0  0  0  0  0  0  0  0  0  0  0  0
    4.7762    1.4174   -0.6271 H   0  0  0  0  0  0  0  0  0  0  0  0
    3.7238   -0.1066   -2.3717 H   0  0  0  0  0  0  0  0  0  0  0  0
    2.1365    0.3171   -1.7640 H   0  0  0  0  0  0  0  0  0  0  0  0
    2.8129   -1.8415   -0.9042 H   0  0  0  0  0  0  0  0  0  0  0  0
    4.3325   -1.2198   -0.2468 H   0  0  0  0  0  0  0  0  0  0  0  0
   -1.1352    1.3579   -0.8185 H   0  0  0  0  0  0  0  0  0  0  0  0
   -2.4195    3.0589   -1.9504 H   0  0  0  0  0  0  0  0  0  0  0  0
  1  2  1  0
  2  3  2  0
  3  4  1  0
  4  5  2  0
  5  6  1  0
  6  7  1  0
  7  8  1  0
  8  9  1  0
  9 10  1  0
 10 11  1  0
 11 12  1  0
 12 13  1  0
 13 14  1  0
 14 15  1  0
 15 16  1  0
 16 17  1  0
 17 18  1  0
  9 19  1  0
 19 20  2  0
  5 21  1  0
 21 22  2  0
 22  2  1  0
 19  6  1  0
 18 12  1  0
  1 23  1  0
  1 24  1  0
  1 25  1  0
  3 26  1  0
  4 27  1  0
  7 28  1  0
  7 29  1  0
  8 30  1  0
  8 31  1  0
  9 32  1  0
 10 33  1  0
 10 34  1  0
 11 35  1  0
 11 36  1  0
 12 37  1  0
 13 38  1  0
 13 39  1  0
 14 40  1  0
 14 41  1  0
 15 42  1  0
 15 43  1  0
 16 44  1  0
 16 45  1  0
 17 46  1  0
 17 47  1  0
 18 48  1  0
 18 49  1  0
 21 50  1  0
 22 51  1  0
M  CHG  2   9   1  12   1
M  END
$$$$
