
     RDKit          3D

 57 63  0  0  0  0  0  0  0  0999 V2000
   -4.2514    4.4746   -0.7682 O   0  0  0  0  0  0  0  0  0  0  0  0
   -3.2593    3.8327   -0.4405 C   0  0  0  0  0  0  0  0  0  0  0  0
   -3.2880    2.5115   -0.0710 N   0  0  0  0  0  0  0  0  0  0  0  0
   -4.5112    1.7577   -0.0429 C   0  0  0  0  0  0  0  0  0  0  0  0
   -4.2834    0.3689    0.4880 C   0  0  0  0  0  0  0  0  0  0  0  0
   -4.2467    0.1373    1.8695 C   0  0  0  0  0  0  0  0  0  0  0  0
   -4.0089   -1.1439    2.3657 C   0  0  0  0  0  0  0  0  0  0  0  0
   -3.8037   -2.2067    1.4867 C   0  0  0  0  0  0  0  0  0  0  0  0
   -3.8359   -1.9994    0.1013 C   0  0  0  0  0  0  0  0  0  0  0  0
   -4.0610   -0.7040   -0.3884 C   0  0  0  0  0  0  0  0  0  0  0  0
   -3.5851   -3.1430   -0.8432 C   0  0  0  0  0  0  0  0  0  0  0  0
   -2.1776   -3.3645   -1.0305 N   0  0  0  0  0  0  0  0  0  0  0  0
   -1.7023   -4.4068   -1.7859 C   0  0  0  0  0  0  0  0  0  0  0  0
   -2.4184   -5.2255   -2.3521 O   0  0  0  0  0  0  0  0  0  0  0  0
   -0.2505   -4.4455   -1.8479 C   0  0  0  0  0  0  0  0  0  0  0  0
    0.5182   -5.3608   -2.5239 C   0  0  0  0  0  0  0  0  0  0  0  0
    1.8270   -5.0457   -2.3289 O   0  0  0  0  0  0  0  0  0  0  0  0
    1.8001   -3.9258   -1.5266 C   0  0  0  0  0  0  0  0  0  0  0  0
    0.5763   -3.5362   -1.2119 N   0  0  0  0  0  0  0  0  0  0  0  0
    3.1047   -3.1930   -1.0368 C   0  0  0  0  0  0  0  0  0  0  0  0
    4.3646   -3.6337   -1.3805 C   0  0  0  0  0  0  0  0  0  0  0  0
    5.5462   -2.6076   -0.6848 S   0  0  0  0  0  0  0  0  0  0  0  0
    4.2939   -1.6464    0.0201 C   0  0  0  0  0  0  0  0  0  0  0  0
    3.0694   -2.0672   -0.2338 N   0  0  0  0  0  0  0  0  0  0  0  0
    4.6398   -0.4537    0.8087 C   0  0  0  0  0  0  0  0  0  0  0  0
    5.6001   -0.4762    1.8173 C   0  0  0  0  0  0  0  0  0  0  0  0
    5.8619    0.6964    2.5193 C   0  0  0  0  0  0  0  0  0  0  0  0
    5.1598    1.8540    2.1977 C   0  0  0  0  0  0  0  0  0  0  0  0
    4.2135    1.8024    1.1771 C   0  0  0  0  0  0  0  0  0  0  0  0
    3.9496    0.6672    0.4847 N   0  0  0  0  0  0  0  0  0  0  0  0
    3.4207    2.9745    0.7745 C   0  0  0  0  0  0  0  0  0  0  0  0
    2.1141    2.9883    0.5916 N   0  0  0  0  0  0  0  0  0  0  0  0
    1.6999    4.2413    0.1770 C   0  0  0  0  0  0  0  0  0  0  0  0
    2.6983    5.1841    0.0592 C   0  0  0  0  0  0  0  0  0  0  0  0
    4.2060    4.4850    0.4731 S   0  0  0  0  0  0  0  0  0  0  0  0
    0.1938    4.5745   -0.1387 C   0  0  0  0  0  0  0  0  0  0  0  0
   -0.7908    3.6986   -0.0306 N   0  0  0  0  0  0  0  0  0  0  0  0
   -1.9225    4.4025   -0.4032 C   0  0  0  0  0  0  0  0  0  0  0  0
   -1.5704    5.6915   -0.7193 C   0  0  0  0  0  0  0  0  0  0  0  0
   -0.2261    5.8191   -0.5549 O   0  0  0  0  0  0  0  0  0  0  0  0
   -2.4028    2.0721    0.1705 H   0  0  0  0  0  0  0  0  0  0  0  0
   -4.9222    1.7263   -1.0589 H   0  0  0  0  0  0  0  0  0  0  0  0
   -5.2433    2.2904    0.5761 H   0  0  0  0  0  0  0  0  0  0  0  0
   -4.3961    0.9593    2.5667 H   0  0  0  0  0  0  0  0  0  0  0  0
   -3.9766   -1.3131    3.4390 H   0  0  0  0  0  0  0  0  0  0  0  0
   -3.6102   -3.1996    1.8875 H   0  0  0  0  0  0  0  0  0  0  0  0
   -4.0606   -0.5284   -1.4633 H   0  0  0  0  0  0  0  0  0  0  0  0
   -4.0386   -2.9491   -1.8225 H   0  0  0  0  0  0  0  0  0  0  0  0
   -4.0425   -4.0638   -0.4616 H   0  0  0  0  0  0  0  0  0  0  0  0
   -1.4942   -2.7360   -0.6146 H   0  0  0  0  0  0  0  0  0  0  0  0
    0.3072   -6.2232   -3.1393 H   0  0  0  0  0  0  0  0  0  0  0  0
    4.6384   -4.4821   -1.9913 H   0  0  0  0  0  0  0  0  0  0  0  0
    6.1287   -1.3893    2.0716 H   0  0  0  0  0  0  0  0  0  0  0  0
    6.5992    0.7054    3.3176 H   0  0  0  0  0  0  0  0  0  0  0  0
    5.3428    2.7698    2.7506 H   0  0  0  0  0  0  0  0  0  0  0  0
    2.6164    6.2180   -0.2443 H   0  0  0  0  0  0  0  0  0  0  0  0
   -2.1098    6.5667   -1.0509 H   0  0  0  0  0  0  0  0  0  0  0  0
  1  2  2  0
  2  3  1  0
  3  4  1  0
  4  5  1  0
  5  6  1  0
  6  7  2  0
  7  8  1  0
  8  9  2  0
  9 10  1  0
  9 11  1  0
 11 12  1  0
 12 13  1  0
 13 14  2  0
 13 15  1  0
 15 16  2  0
 16 17  1  0
 17 18  1  0
 18 19  2  0
 18 20  1  0
 20 21  2  0
 21 22  1  0
 22 23  1  0
 23 24  2  0
 23 25  1  0
 25 26  1  0
 26 27  2  0
 27 28  1  0
 28 29  2  0
 29 30  1  0
 29 31  1  0
 31 32  2  0
 32 33  1  0
 33 34  2  0
 34 35  1  0
 33 36  1  0
 36 37  2  0
 37 38  1  0
 38 39  2  0
 39 40  1  0
 38  2  1  0
 10  5  2  0
 19 15  1  0
 24 20  1  0
 30 25  2  0
 35 31  1  0
 40 36  1  0
  3 41  1  0
  4 42  1  0
  4 43  1  0
  6 44  1  0
  7 45  1  0
  8 46  1  0
 10 47  1  0
 11 48  1  0
 11 49  1  0
 12 50  1  0
 16 51  1  0
 21 52  1  0
 26 53  1  0
 27 54  1  0
 28 55  1  0
 34 56  1  0
 39 57  1  0
M  END
$$$$
