
     RDKit          3D

 72 75  0  0  0  0  0  0  0  0999 V2000
    3.4616   -4.5289    0.1078 C   0  0  0  0  0  0  0  0  0  0  0  0
    4.1871   -3.4377    0.6593 O   0  0  0  0  0  0  0  0  0  0  0  0
    3.7982   -2.2253    0.1861 C   0  0  0  0  0  0  0  0  0  0  0  0
    3.1932   -2.0457   -0.8673 O   0  0  0  0  0  0  0  0  0  0  0  0
    4.5480   -1.1812    0.9208 C   0  0  0  0  0  0  0  0  0  0  0  0
    5.2661   -0.3280    0.0675 C   0  0  0  0  0  0  0  0  0  0  0  0
    6.1649    0.5646    0.6036 C   0  0  0  0  0  0  0  0  0  0  0  0
    6.8013    1.4437   -0.2372 O   0  0  0  0  0  0  0  0  0  0  0  0
    6.3382    2.7629    0.0592 C   0  0  0  0  0  0  0  0  0  0  0  0
    6.4441    0.5277    1.9679 C   0  0  0  0  0  0  0  0  0  0  0  0
    5.7566   -0.2935    2.9014 C   0  0  0  0  0  0  0  0  0  0  0  0
    6.1458   -0.2295    4.1242 O   0  0  0  0  0  0  0  0  0  0  0  0
    4.6768   -1.1054    2.3361 C   0  0  0  0  0  0  0  0  0  0  0  0
    3.6419   -1.8661    3.2057 C   0  0  0  0  0  0  0  0  0  0  0  0
    4.0014   -2.3642    4.2778 O   0  0  0  0  0  0  0  0  0  0  0  0
    2.1518   -2.0308    2.7169 C   0  0  0  0  0  0  0  0  0  0  0  0
    1.5607   -3.3694    2.7765 C   0  0  0  0  0  0  0  0  0  0  0  0
    2.1003   -4.4611    3.1990 O   0  0  0  0  0  0  0  0  0  0  0  0
    0.2542   -3.4485    2.2565 C   0  0  0  0  0  0  0  0  0  0  0  0
   -0.4463   -2.3963    1.6400 C   0  0  0  0  0  0  0  0  0  0  0  0
   -1.7887   -2.7260    1.0458 C   0  0  0  0  0  0  0  0  0  0  0  0
    0.1276   -1.1058    1.5942 C   0  0  0  0  0  0  0  0  0  0  0  0
   -0.5698   -0.0533    0.7431 C   0  0  0  0  0  0  0  0  0  0  0  0
    0.1419    0.3156   -0.3396 C   0  0  0  0  0  0  0  0  0  0  0  0
   -0.2953    1.3258   -1.3397 C   0  0  0  0  0  0  0  0  0  0  0  0
    0.1291    0.8617   -2.7406 C   0  0  0  0  0  0  0  0  0  0  0  0
    0.3449    2.6880   -1.0432 C   0  0  0  0  0  0  0  0  0  0  0  0
   -1.7179    1.5041   -1.4190 O   0  0  0  0  0  0  0  0  0  0  0  0
   -2.4342    1.2767   -0.2670 C   0  0  0  0  0  0  0  0  0  0  0  0
   -3.7410    1.7908   -0.2637 C   0  0  0  0  0  0  0  0  0  0  0  0
   -4.2984    2.5650   -1.4316 C   0  0  0  0  0  0  0  0  0  0  0  0
   -4.8905    1.6766   -2.4976 C   0  0  0  0  0  0  0  0  0  0  0  0
   -6.1778    1.5591   -2.8800 C   0  0  0  0  0  0  0  0  0  0  0  0
   -6.5623    0.5907   -3.9647 C   0  0  0  0  0  0  0  0  0  0  0  0
   -7.3293    2.3034   -2.2673 C   0  0  0  0  0  0  0  0  0  0  0  0
   -4.5584    1.5629    0.8573 C   0  0  0  0  0  0  0  0  0  0  0  0
   -4.1375    0.8689    2.0037 C   0  0  0  0  0  0  0  0  0  0  0  0
   -4.9228    0.6927    2.9980 O   0  0  0  0  0  0  0  0  0  0  0  0
   -2.7946    0.3907    1.9441 C   0  0  0  0  0  0  0  0  0  0  0  0
   -1.9356    0.5492    0.8277 C   0  0  0  0  0  0  0  0  0  0  0  0
    1.4419   -0.8497    2.1742 C   0  0  0  0  0  0  0  0  0  0  0  0
    1.9414    0.3423    2.1847 O   0  0  0  0  0  0  0  0  0  0  0  0
    3.8649   -4.7721   -0.8801 H   0  0  0  0  0  0  0  0  0  0  0  0
    2.3906   -4.3170    0.0298 H   0  0  0  0  0  0  0  0  0  0  0  0
    3.6017   -5.3996    0.7540 H   0  0  0  0  0  0  0  0  0  0  0  0
    5.1036   -0.3642   -1.0027 H   0  0  0  0  0  0  0  0  0  0  0  0
    6.7682    3.1322    0.9963 H   0  0  0  0  0  0  0  0  0  0  0  0
    5.2432    2.8160    0.0883 H   0  0  0  0  0  0  0  0  0  0  0  0
    6.6816    3.4215   -0.7447 H   0  0  0  0  0  0  0  0  0  0  0  0
    7.2210    1.1818    2.3589 H   0  0  0  0  0  0  0  0  0  0  0  0
   -0.2248   -4.4265    2.2955 H   0  0  0  0  0  0  0  0  0  0  0  0
   -2.5921   -2.4181    1.7199 H   0  0  0  0  0  0  0  0  0  0  0  0
   -1.8943   -3.8051    0.8837 H   0  0  0  0  0  0  0  0  0  0  0  0
   -1.9233   -2.2654    0.0628 H   0  0  0  0  0  0  0  0  0  0  0  0
    1.1474   -0.0889   -0.4605 H   0  0  0  0  0  0  0  0  0  0  0  0
   -0.1974    1.5777   -3.5043 H   0  0  0  0  0  0  0  0  0  0  0  0
    1.2152    0.7431   -2.8241 H   0  0  0  0  0  0  0  0  0  0  0  0
   -0.3423   -0.0955   -2.9954 H   0  0  0  0  0  0  0  0  0  0  0  0
    0.0287    3.4353   -1.7804 H   0  0  0  0  0  0  0  0  0  0  0  0
    1.4393    2.6352   -1.0514 H   0  0  0  0  0  0  0  0  0  0  0  0
    0.0293    3.0697   -0.0649 H   0  0  0  0  0  0  0  0  0  0  0  0
   -3.5062    3.1732   -1.8871 H   0  0  0  0  0  0  0  0  0  0  0  0
   -5.0185    3.3033   -1.0645 H   0  0  0  0  0  0  0  0  0  0  0  0
   -4.1389    1.0526   -2.9830 H   0  0  0  0  0  0  0  0  0  0  0  0
   -7.2553   -0.1619   -3.5744 H   0  0  0  0  0  0  0  0  0  0  0  0
   -5.6971    0.0622   -4.3789 H   0  0  0  0  0  0  0  0  0  0  0  0
   -7.0521    1.1207   -4.7883 H   0  0  0  0  0  0  0  0  0  0  0  0
   -7.0455    2.9345   -1.4230 H   0  0  0  0  0  0  0  0  0  0  0  0
   -8.0803    1.5961   -1.8993 H   0  0  0  0  0  0  0  0  0  0  0  0
   -7.8017    2.9459   -3.0176 H   0  0  0  0  0  0  0  0  0  0  0  0
   -5.5779    1.9447    0.8514 H   0  0  0  0  0  0  0  0  0  0  0  0
   -2.4057   -0.1481    2.8107 H   0  0  0  0  0  0  0  0  0  0  0  0
  1  2  1  0
  2  3  1  0
  3  4  2  0
  3  5  1  0
  5  6  2  0
  6  7  1  0
  7  8  1  0
  8  9  1  0
  7 10  2  0
 10 11  1  0
 11 12  1  0
 11 13  2  0
 13 14  1  0
 14 15  2  0
 14 16  1  0
 16 17  2  0
 17 18  1  0
 17 19  1  0
 19 20  2  0
 20 21  1  0
 20 22  1  0
 22 23  1  0
 23 24  2  0
 24 25  1  0
 25 26  1  0
 25 27  1  0
 25 28  1  0
 28 29  1  0
 29 30  2  0
 30 31  1  0
 31 32  1  0
 32 33  2  3
 33 34  1  0
 33 35  1  0
 30 36  1  0
 36 37  2  0
 37 38  1  0
 37 39  1  0
 39 40  2  0
 22 41  2  0
 41 42  1  0
 13  5  1  0
 41 16  1  0
 40 23  1  0
 40 29  1  0
  1 43  1  0
  1 44  1  0
  1 45  1  0
  6 46  1  0
  9 47  1  0
  9 48  1  0
  9 49  1  0
 10 50  1  0
 19 51  1  0
 21 52  1  0
 21 53  1  0
 21 54  1  0
 24 55  1  0
 26 56  1  0
 26 57  1  0
 26 58  1  0
 27 59  1  0
 27 60  1  0
 27 61  1  0
 31 62  1  0
 31 63  1  0
 32 64  1  0
 34 65  1  0
 34 66  1  0
 34 67  1  0
 35 68  1  0
 35 69  1  0
 35 70  1  0
 36 71  1  0
 39 72  1  0
M  CHG  4  12  -1  18  -1  38  -1  42  -1
M  END
$$$$
