
     RDKit          3D

 85 90  0  0  0  0  0  0  0  0999 V2000
   -2.4220    4.5236   -1.1777 C   0  0  0  0  0  0  0  0  0  0  0  0
   -1.1805    3.7317   -1.4939 C   0  0  0  0  0  0  0  0  0  0  0  0
   -0.5058    3.9826   -2.7017 C   0  0  0  0  0  0  0  0  0  0  0  0
    0.6770    3.3109   -3.0202 C   0  0  0  0  0  0  0  0  0  0  0  0
    1.1882    2.3563   -2.1476 C   0  0  0  0  0  0  0  0  0  0  0  0
    2.3758    1.6848   -2.4963 N   0  0  0  0  0  0  0  0  0  0  0  0
    2.7872    0.4681   -1.9822 C   0  0  0  0  0  0  0  0  0  0  0  0
    2.0278   -0.3589   -1.4696 O   0  0  0  0  0  0  0  0  0  0  0  0
    4.2230    0.1330   -2.2020 C   0  0  0  0  0  0  0  0  0  0  0  0
    4.5922   -1.2087   -2.3504 C   0  0  0  0  0  0  0  0  0  0  0  0
    5.9311   -1.5480   -2.5499 C   0  0  0  0  0  0  0  0  0  0  0  0
    6.9073   -0.5515   -2.5929 C   0  0  0  0  0  0  0  0  0  0  0  0
    6.5578    0.7975   -2.4342 C   0  0  0  0  0  0  0  0  0  0  0  0
    7.6174    1.8780   -2.4398 C   0  0  0  0  0  0  0  0  0  0  0  0
    7.1737    3.0238   -3.0266 F   0  0  0  0  0  0  0  0  0  0  0  0
    8.0031    2.2202   -1.1830 F   0  0  0  0  0  0  0  0  0  0  0  0
    8.7447    1.5215   -3.1089 F   0  0  0  0  0  0  0  0  0  0  0  0
    5.2074    1.1314   -2.2267 C   0  0  0  0  0  0  0  0  0  0  0  0
    0.5434    2.1332   -0.9297 C   0  0  0  0  0  0  0  0  0  0  0  0
   -0.6467    2.7993   -0.5839 C   0  0  0  0  0  0  0  0  0  0  0  0
   -1.2573    2.5776    0.6659 N   0  0  0  0  0  0  0  0  0  0  0  0
   -0.6290    2.2376    1.8216 C   0  0  0  0  0  0  0  0  0  0  0  0
    0.6414    2.3922    2.1225 N   0  0  0  0  0  0  0  0  0  0  0  0
    0.7799    1.9708    3.4155 C   0  0  0  0  0  0  0  0  0  0  0  0
    1.9133    2.0092    4.2404 C   0  0  0  0  0  0  0  0  0  0  0  0
    1.8093    1.5386    5.5534 C   0  0  0  0  0  0  0  0  0  0  0  0
    0.5992    1.0440    6.0381 C   0  0  0  0  0  0  0  0  0  0  0  0
   -0.5393    0.9880    5.2261 C   0  0  0  0  0  0  0  0  0  0  0  0
   -0.4127    1.4431    3.9029 C   0  0  0  0  0  0  0  0  0  0  0  0
   -1.2869    1.5282    2.8294 N   0  0  0  0  0  0  0  0  0  0  0  0
   -2.4997    0.8035    2.6234 C   0  0  0  0  0  0  0  0  0  0  0  0
   -2.5805   -0.4854    3.1190 C   0  0  0  0  0  0  0  0  0  0  0  0
   -3.5495   -1.2998    2.5684 C   0  0  0  0  0  0  0  0  0  0  0  0
   -3.4315   -2.6733    2.7445 N   0  0  0  0  0  0  0  0  0  0  0  0
   -4.3864   -3.6046    2.1499 C   0  0  0  0  0  0  0  0  0  0  0  0
   -3.7021   -4.4617    1.0790 C   0  0  0  0  0  0  0  0  0  0  0  0
   -3.5273   -3.7766   -0.2787 C   0  0  0  0  0  0  0  0  0  0  0  0
   -2.5115   -2.6511   -0.2437 N   0  0  0  0  0  0  0  0  0  0  0  0
   -1.0462   -3.0792   -0.1142 C   0  0  0  0  0  0  0  0  0  0  0  0
   -0.2568   -2.8996   -1.4333 C   0  0  0  0  0  0  0  0  0  0  0  0
   -0.3229   -1.4742   -1.9618 N   0  0  0  0  0  0  0  0  0  0  0  0
   -0.0818   -1.4023   -3.4482 C   0  0  0  0  0  0  0  0  0  0  0  0
   -1.5428   -0.6847   -1.5149 C   0  0  0  0  0  0  0  0  0  0  0  0
   -2.7611   -1.6141   -1.3413 C   0  0  0  0  0  0  0  0  0  0  0  0
   -4.4143   -0.8412    1.6520 N   0  0  0  0  0  0  0  0  0  0  0  0
   -4.3814    0.4686    1.3793 C   0  0  0  0  0  0  0  0  0  0  0  0
   -3.3980    1.2929    1.7368 N   0  0  0  0  0  0  0  0  0  0  0  0
   -2.6840    5.2061   -1.9930 H   0  0  0  0  0  0  0  0  0  0  0  0
   -3.2724    3.8506   -1.0279 H   0  0  0  0  0  0  0  0  0  0  0  0
   -2.2683    5.1262   -0.2767 H   0  0  0  0  0  0  0  0  0  0  0  0
   -0.8854    4.7326   -3.3957 H   0  0  0  0  0  0  0  0  0  0  0  0
    1.1772    3.5472   -3.9566 H   0  0  0  0  0  0  0  0  0  0  0  0
    2.9530    2.1305   -3.2042 H   0  0  0  0  0  0  0  0  0  0  0  0
    3.8486   -1.9990   -2.3119 H   0  0  0  0  0  0  0  0  0  0  0  0
    6.2227   -2.5904   -2.6670 H   0  0  0  0  0  0  0  0  0  0  0  0
    7.9509   -0.8324   -2.7430 H   0  0  0  0  0  0  0  0  0  0  0  0
    4.9483    2.1765   -2.0579 H   0  0  0  0  0  0  0  0  0  0  0  0
    0.9972    1.4646   -0.2030 H   0  0  0  0  0  0  0  0  0  0  0  0
   -2.2622    2.7376    0.7069 H   0  0  0  0  0  0  0  0  0  0  0  0
    2.8468    2.4211    3.8697 H   0  0  0  0  0  0  0  0  0  0  0  0
    2.6774    1.5830    6.2091 H   0  0  0  0  0  0  0  0  0  0  0  0
    0.5377    0.7136    7.0747 H   0  0  0  0  0  0  0  0  0  0  0  0
   -1.4815    0.6359    5.6347 H   0  0  0  0  0  0  0  0  0  0  0  0
   -1.8270   -0.9089    3.7721 H   0  0  0  0  0  0  0  0  0  0  0  0
   -3.1292   -2.9410    3.6837 H   0  0  0  0  0  0  0  0  0  0  0  0
   -4.7306   -4.2722    2.9493 H   0  0  0  0  0  0  0  0  0  0  0  0
   -5.2855   -3.1196    1.7537 H   0  0  0  0  0  0  0  0  0  0  0  0
   -2.7446   -4.8414    1.4528 H   0  0  0  0  0  0  0  0  0  0  0  0
   -4.3364   -5.3417    0.9113 H   0  0  0  0  0  0  0  0  0  0  0  0
   -3.1854   -4.4852   -1.0407 H   0  0  0  0  0  0  0  0  0  0  0  0
   -4.4805   -3.3447   -0.6040 H   0  0  0  0  0  0  0  0  0  0  0  0
   -2.7406   -2.1741    0.6440 H   0  0  0  0  0  0  0  0  0  0  0  0
   -0.6178   -2.4477    0.6721 H   0  0  0  0  0  0  0  0  0  0  0  0
   -1.0169   -4.1207    0.2162 H   0  0  0  0  0  0  0  0  0  0  0  0
   -0.6792   -3.5526   -2.2055 H   0  0  0  0  0  0  0  0  0  0  0  0
    0.8023   -3.1399   -1.2980 H   0  0  0  0  0  0  0  0  0  0  0  0
    0.5137   -0.9679   -1.5735 H   0  0  0  0  0  0  0  0  0  0  0  0
    0.0137   -0.3500   -3.7275 H   0  0  0  0  0  0  0  0  0  0  0  0
   -0.9298   -1.8673   -3.9574 H   0  0  0  0  0  0  0  0  0  0  0  0
    0.8476   -1.9351   -3.6659 H   0  0  0  0  0  0  0  0  0  0  0  0
   -1.2781   -0.2280   -0.5565 H   0  0  0  0  0  0  0  0  0  0  0  0
   -1.7340    0.1031   -2.2495 H   0  0  0  0  0  0  0  0  0  0  0  0
   -2.9613   -2.1663   -2.2664 H   0  0  0  0  0  0  0  0  0  0  0  0
   -3.6538   -1.0521   -1.0558 H   0  0  0  0  0  0  0  0  0  0  0  0
   -5.1791    0.8743    0.7647 H   0  0  0  0  0  0  0  0  0  0  0  0
  1  2  1  0
  2  3  2  0
  3  4  1  0
  4  5  2  0
  5  6  1  0
  6  7  1  0
  7  8  2  0
  7  9  1  0
  9 10  2  0
 10 11  1  0
 11 12  2  0
 12 13  1  0
 13 14  1  0
 14 15  1  0
 14 16  1  0
 14 17  1  0
 13 18  2  0
  5 19  1  0
 19 20  2  0
 20 21  1  0
 21 22  1  0
 22 23  2  0
 23 24  1  0
 24 25  2  0
 25 26  1  0
 26 27  2  0
 27 28  1  0
 28 29  2  0
 29 30  1  0
 30 31  1  0
 31 32  2  0
 32 33  1  0
 33 34  1  0
 34 35  1  0
 35 36  1  0
 36 37  1  0
 37 38  1  0
 38 39  1  0
 39 40  1  0
 40 41  1  0
 41 42  1  0
 41 43  1  0
 43 44  1  0
 33 45  2  0
 45 46  1  0
 46 47  2  0
 20  2  1  0
 30 22  1  0
 47 31  1  0
 18  9  1  0
 29 24  1  0
 44 38  1  0
  1 48  1  0
  1 49  1  0
  1 50  1  0
  3 51  1  0
  4 52  1  0
  6 53  1  0
 10 54  1  0
 11 55  1  0
 12 56  1  0
 18 57  1  0
 19 58  1  0
 21 59  1  0
 25 60  1  0
 26 61  1  0
 27 62  1  0
 28 63  1  0
 32 64  1  0
 34 65  1  0
 35 66  1  0
 35 67  1  0
 36 68  1  0
 36 69  1  0
 37 70  1  0
 37 71  1  0
 38 72  1  0
 39 73  1  0
 39 74  1  0
 40 75  1  0
 40 76  1  0
 41 77  1  0
 42 78  1  0
 42 79  1  0
 42 80  1  0
 43 81  1  0
 43 82  1  0
 44 83  1  0
 44 84  1  0
 46 85  1  0
M  CHG  2  38   1  41   1
M  END
$$$$
