
     RDKit          3D

 32 33  0  0  0  0  0  0  0  0999 V2000
   -4.1385   -0.3162    0.5572 C   0  0  0  0  0  0  0  0  0  0  0  0
   -2.6536   -0.2752    0.3782 N   0  0  0  0  0  0  0  0  0  0  0  0
   -2.2533    0.3332   -0.9420 C   0  0  0  0  0  0  0  0  0  0  0  0
   -0.7717    0.4587   -1.0685 C   0  0  0  0  0  0  0  0  0  0  0  0
    0.0653    0.3682   -0.0197 C   0  0  0  0  0  0  0  0  0  0  0  0
    1.5219    0.4080   -0.2271 C   0  0  0  0  0  0  0  0  0  0  0  0
    2.2044    1.5972    0.0720 C   0  0  0  0  0  0  0  0  0  0  0  0
    3.5837    1.6896   -0.1135 C   0  0  0  0  0  0  0  0  0  0  0  0
    4.2951    0.5985   -0.6017 C   0  0  0  0  0  0  0  0  0  0  0  0
    3.6289   -0.5885   -0.9053 C   0  0  0  0  0  0  0  0  0  0  0  0
    2.2387   -0.7039   -0.7195 C   0  0  0  0  0  0  0  0  0  0  0  0
    1.5503   -2.0017   -1.0679 C   0  0  0  0  0  0  0  0  0  0  0  0
    0.7942   -1.9037   -2.1993 F   0  0  0  0  0  0  0  0  0  0  0  0
    0.6874   -2.4271   -0.0957 F   0  0  0  0  0  0  0  0  0  0  0  0
    2.4019   -3.0419   -1.2782 F   0  0  0  0  0  0  0  0  0  0  0  0
   -0.4273    0.2050    1.3968 C   0  0  0  0  0  0  0  0  0  0  0  0
   -1.9424    0.4040    1.5267 C   0  0  0  0  0  0  0  0  0  0  0  0
   -4.5686   -0.8583   -0.2890 H   0  0  0  0  0  0  0  0  0  0  0  0
   -4.3533   -0.8483    1.4876 H   0  0  0  0  0  0  0  0  0  0  0  0
   -4.5155    0.7092    0.5979 H   0  0  0  0  0  0  0  0  0  0  0  0
   -2.3205   -1.2489    0.3532 H   0  0  0  0  0  0  0  0  0  0  0  0
   -2.7334    1.3143   -1.0262 H   0  0  0  0  0  0  0  0  0  0  0  0
   -2.6425   -0.3312   -1.7205 H   0  0  0  0  0  0  0  0  0  0  0  0
   -0.3826    0.5979   -2.0773 H   0  0  0  0  0  0  0  0  0  0  0  0
    1.6703    2.4685    0.4457 H   0  0  0  0  0  0  0  0  0  0  0  0
    4.1053    2.6158    0.1191 H   0  0  0  0  0  0  0  0  0  0  0  0
    5.3711    0.6725   -0.7491 H   0  0  0  0  0  0  0  0  0  0  0  0
    4.2062   -1.4298   -1.2899 H   0  0  0  0  0  0  0  0  0  0  0  0
   -0.1692   -0.8030    1.7453 H   0  0  0  0  0  0  0  0  0  0  0  0
    0.0733    0.9134    2.0673 H   0  0  0  0  0  0  0  0  0  0  0  0
   -2.2171    1.4651    1.5004 H   0  0  0  0  0  0  0  0  0  0  0  0
   -2.3087   -0.0411    2.4579 H   0  0  0  0  0  0  0  0  0  0  0  0
  1  2  1  0
  2  3  1  0
  3  4  1  0
  4  5  2  0
  5  6  1  0
  6  7  2  0
  7  8  1  0
  8  9  2  0
  9 10  1  0
 10 11  2  0
 11 12  1  0
 12 13  1  0
 12 14  1  0
 12 15  1  0
  5 16  1  0
 16 17  1  0
 17  2  1  0
 11  6  1  0
  1 18  1  0
  1 19  1  0
  1 20  1  0
  2 21  1  0
  3 22  1  0
  3 23  1  0
  4 24  1  0
  7 25  1  0
  8 26  1  0
  9 27  1  0
 10 28  1  0
 16 29  1  0
 16 30  1  0
 17 31  1  0
 17 32  1  0
M  CHG  1   2   1
M  END
$$$$
