
     RDKit          3D

 88 95  0  0  0  0  0  0  0  0999 V2000
    0.2642    4.9593    2.0309 C   0  0  0  0  0  0  0  0  0  0  0  0
   -0.1442    4.2384    0.7832 C   0  0  0  0  0  0  0  0  0  0  0  0
   -0.7455    4.7528   -0.1486 O   0  0  0  0  0  0  0  0  0  0  0  0
    0.2554    2.9381    0.8482 O   0  0  0  0  0  0  0  0  0  0  0  0
   -0.0979    2.0985   -0.2760 C   0  0  2  0  0  0  0  0  0  0  0  0
   -1.6050    1.7375   -0.1828 C   0  0  0  0  0  0  0  0  0  0  0  0
   -1.9774    0.2773    0.1120 C   0  0  1  0  0  0  0  0  0  0  0  0
   -2.5221   -0.0294    1.4968 C   0  0  0  0  0  0  0  0  0  0  0  0
   -3.4836   -0.0373    0.3350 C   0  0  1  0  0  0  0  0  0  0  0  0
   -4.5032    1.1008    0.2836 C   0  0  0  0  0  0  0  0  0  0  0  0
   -5.9499    0.6075    0.3828 C   0  0  0  0  0  0  0  0  0  0  0  0
   -6.0728   -0.6197    1.2850 C   0  0  2  0  0  0  0  0  0  0  0  0
   -5.6355   -0.2339    2.5899 O   0  0  0  0  0  0  0  0  0  0  0  0
   -5.2733   -1.8428    0.7141 C   0  0  0  0  0  0  0  0  0  0  0  0
   -4.8407   -2.7895    1.8520 C   0  0  0  0  0  0  0  0  0  0  0  0
   -6.2354   -2.6480   -0.1983 C   0  0  0  0  0  0  0  0  0  0  0  0
   -4.0656   -1.3558   -0.1752 C   0  0  2  0  0  0  0  0  0  0  0  0
   -3.0032   -2.4240   -0.4724 C   0  0  0  0  0  0  0  0  0  0  0  0
   -1.8808   -1.8306   -1.3213 C   0  0  0  0  0  0  0  0  0  0  0  0
   -1.0728   -0.8202   -0.4939 C   0  0  1  0  0  0  0  0  0  0  0  0
    0.1566   -0.2309   -1.2339 C   0  0  2  0  0  0  0  0  0  0  0  0
   -0.2434    0.2548   -2.6622 C   0  0  0  0  0  0  0  0  0  0  0  0
    1.3115   -1.2352   -1.4199 C   0  0  0  0  0  0  0  0  0  0  0  0
    2.5798   -0.3711   -1.5418 C   0  0  2  0  0  0  0  0  0  0  0  0
    3.5918   -0.9527   -0.7303 O   0  0  0  0  0  0  0  0  0  0  0  0
    4.8453   -0.2631   -0.7538 C   0  0  2  0  0  0  0  0  0  0  0  0
    5.7762   -0.9328   -1.7951 C   0  0  0  0  0  0  0  0  0  0  0  0
    6.3927   -2.1335   -1.0536 C   0  0  0  0  0  0  0  0  0  0  0  0
    6.4487   -1.7054    0.3804 C   0  0  1  0  0  0  0  0  0  0  0  0
    6.7195   -2.6882    1.4565 C   0  0  0  0  0  0  0  0  0  0  0  0
    6.9465   -0.3804    0.6196 O   0  0  0  0  0  0  0  0  0  0  0  0
    5.5207   -0.5555    0.5675 C   0  0  1  0  0  0  0  0  0  0  0  0
    4.6959    1.2459   -0.9881 C   0  0  0  0  0  0  0  0  0  0  0  0
    3.3865    1.7705   -0.3744 C   0  0  1  0  0  0  0  0  0  0  0  0
    3.3343    3.2902   -0.5342 C   0  0  0  0  0  0  0  0  0  0  0  0
    2.2016    1.0654   -1.0738 C   0  0  2  0  0  0  0  0  0  0  0  0
    0.8370    0.8643   -0.3240 C   0  0  1  0  0  0  0  0  0  0  0  0
    1.1190    0.3718    1.1319 C   0  0  0  0  0  0  0  0  0  0  0  0
   -0.2160    4.4992    2.8981 H   0  0  0  0  0  0  0  0  0  0  0  0
    1.3518    4.9346    2.1346 H   0  0  0  0  0  0  0  0  0  0  0  0
   -0.0562    6.0031    1.9676 H   0  0  0  0  0  0  0  0  0  0  0  0
    0.0566    2.6852   -1.1916 H   0  0  0  0  0  0  0  0  0  0  0  0
   -2.0748    2.0032   -1.1372 H   0  0  0  0  0  0  0  0  0  0  0  0
   -2.0841    2.3877    0.5591 H   0  0  0  0  0  0  0  0  0  0  0  0
   -2.5889    0.7747    2.2240 H   0  0  0  0  0  0  0  0  0  0  0  0
   -2.2609   -0.9689    1.9710 H   0  0  0  0  0  0  0  0  0  0  0  0
   -4.3202    1.8138    1.0967 H   0  0  0  0  0  0  0  0  0  0  0  0
   -4.3929    1.6562   -0.6550 H   0  0  0  0  0  0  0  0  0  0  0  0
   -6.3312    0.3721   -0.6180 H   0  0  0  0  0  0  0  0  0  0  0  0
   -6.5686    1.4268    0.7688 H   0  0  0  0  0  0  0  0  0  0  0  0
   -7.1351   -0.8749    1.3827 H   0  0  0  0  0  0  0  0  0  0  0  0
   -5.9287   -0.9167    3.2157 H   0  0  0  0  0  0  0  0  0  0  0  0
   -5.6977   -3.0622    2.4792 H   0  0  0  0  0  0  0  0  0  0  0  0
   -4.4267   -3.7272    1.4659 H   0  0  0  0  0  0  0  0  0  0  0  0
   -4.0867   -2.3331    2.4995 H   0  0  0  0  0  0  0  0  0  0  0  0
   -5.7406   -3.5226   -0.6336 H   0  0  0  0  0  0  0  0  0  0  0  0
   -7.1011   -3.0125    0.3670 H   0  0  0  0  0  0  0  0  0  0  0  0
   -6.6155   -2.0352   -1.0230 H   0  0  0  0  0  0  0  0  0  0  0  0
   -4.4815   -1.1004   -1.1630 H   0  0  0  0  0  0  0  0  0  0  0  0
   -2.5743   -2.8367    0.4471 H   0  0  0  0  0  0  0  0  0  0  0  0
   -3.4571   -3.2591   -1.0173 H   0  0  0  0  0  0  0  0  0  0  0  0
   -1.2254   -2.6396   -1.6637 H   0  0  0  0  0  0  0  0  0  0  0  0
   -2.3183   -1.3632   -2.2105 H   0  0  0  0  0  0  0  0  0  0  0  0
   -0.6762   -1.3993    0.3523 H   0  0  0  0  0  0  0  0  0  0  0  0
    0.5584    0.7876   -3.1790 H   0  0  0  0  0  0  0  0  0  0  0  0
   -0.4921   -0.5965   -3.3070 H   0  0  0  0  0  0  0  0  0  0  0  0
   -1.1152    0.9104   -2.6639 H   0  0  0  0  0  0  0  0  0  0  0  0
    1.1839   -1.8613   -2.3107 H   0  0  0  0  0  0  0  0  0  0  0  0
    1.3878   -1.9296   -0.5745 H   0  0  0  0  0  0  0  0  0  0  0  0
    2.9191   -0.3565   -2.5852 H   0  0  0  0  0  0  0  0  0  0  0  0
    6.5818   -0.2469   -2.0867 H   0  0  0  0  0  0  0  0  0  0  0  0
    5.2525   -1.2552   -2.7001 H   0  0  0  0  0  0  0  0  0  0  0  0
    7.3826   -2.3793   -1.4497 H   0  0  0  0  0  0  0  0  0  0  0  0
    5.7462   -3.0120   -1.1591 H   0  0  0  0  0  0  0  0  0  0  0  0
    6.7278   -2.2173    2.4453 H   0  0  0  0  0  0  0  0  0  0  0  0
    7.6929   -3.1643    1.3021 H   0  0  0  0  0  0  0  0  0  0  0  0
    5.9537   -3.4702    1.4630 H   0  0  0  0  0  0  0  0  0  0  0  0
    4.9264   -0.4455    1.4594 H   0  0  0  0  0  0  0  0  0  0  0  0
    5.5603    1.7863   -0.5823 H   0  0  0  0  0  0  0  0  0  0  0  0
    4.6826    1.4531   -2.0673 H   0  0  0  0  0  0  0  0  0  0  0  0
    3.4118    1.5458    0.6950 H   0  0  0  0  0  0  0  0  0  0  0  0
    3.3327    3.5822   -1.5899 H   0  0  0  0  0  0  0  0  0  0  0  0
    2.4466    3.7134   -0.0667 H   0  0  0  0  0  0  0  0  0  0  0  0
    4.2045    3.7578   -0.0607 H   0  0  0  0  0  0  0  0  0  0  0  0
    1.9947    1.6451   -1.9828 H   0  0  0  0  0  0  0  0  0  0  0  0
    1.6510    1.1254    1.7210 H   0  0  0  0  0  0  0  0  0  0  0  0
    1.7259   -0.5370    1.1618 H   0  0  0  0  0  0  0  0  0  0  0  0
    0.2036    0.1663    1.6906 H   0  0  0  0  0  0  0  0  0  0  0  0
  1  2  1  0
  2  3  2  0
  2  4  1  0
  4  5  1  0
  5  6  1  0
  7  6  1  1
  7  8  1  0
  9  8  1  1
  9 10  1  0
 10 11  1  0
 11 12  1  0
 12 13  1  0
 12 14  1  0
 14 15  1  0
 14 16  1  0
 14 17  1  0
 17 18  1  0
 18 19  1  0
 19 20  1  0
 20 21  1  0
 21 22  1  6
 21 23  1  0
 23 24  1  0
 24 25  1  0
 26 25  1  1
 26 27  1  0
 27 28  1  0
 28 29  1  0
 29 30  1  1
 29 31  1  0
 31 32  1  0
 26 33  1  0
 33 34  1  0
 34 35  1  0
 34 36  1  0
 36 37  1  0
 37 38  1  1
 37  5  1  0
  9  7  1  0
 37 21  1  0
 20  7  1  0
 36 24  1  0
 17  9  1  0
 32 26  1  0
 32 29  1  0
  1 39  1  0
  1 40  1  0
  1 41  1  0
  5 42  1  6
  6 43  1  0
  6 44  1  0
  8 45  1  0
  8 46  1  0
 10 47  1  0
 10 48  1  0
 11 49  1  0
 11 50  1  0
 12 51  1  1
 13 52  1  0
 15 53  1  0
 15 54  1  0
 15 55  1  0
 16 56  1  0
 16 57  1  0
 16 58  1  0
 17 59  1  6
 18 60  1  0
 18 61  1  0
 19 62  1  0
 19 63  1  0
 20 64  1  1
 22 65  1  0
 22 66  1  0
 22 67  1  0
 23 68  1  0
 23 69  1  0
 24 70  1  6
 27 71  1  0
 27 72  1  0
 28 73  1  0
 28 74  1  0
 30 75  1  0
 30 76  1  0
 30 77  1  0
 32 78  1  1
 33 79  1  0
 33 80  1  0
 34 81  1  1
 35 82  1  0
 35 83  1  0
 35 84  1  0
 36 85  1  6
 38 86  1  0
 38 87  1  0
 38 88  1  0
M  END
$$$$
