
     RDKit          3D

 86 90  0  0  0  0  0  0  0  0999 V2000
   -4.0705    3.2387   -1.1838 C   0  0  0  0  0  0  0  0  0  0  0  0
   -3.4329    2.1069   -1.9280 C   0  0  0  0  0  0  0  0  0  0  0  0
   -3.7396    1.7551   -3.0591 O   0  0  0  0  0  0  0  0  0  0  0  0
   -2.4384    1.5558   -1.1813 O   0  0  0  0  0  0  0  0  0  0  0  0
   -1.7805    0.4066   -1.7633 C   0  0  1  0  0  0  0  0  0  0  0  0
   -0.3533    0.2930   -1.1742 C   0  0  2  0  0  0  0  0  0  0  0  0
    0.3828    1.5070   -1.4792 O   0  0  0  0  0  0  0  0  0  0  0  0
    0.3867    2.4751   -0.5278 C   0  0  0  0  0  0  0  0  0  0  0  0
   -0.1800    2.4300    0.5517 O   0  0  0  0  0  0  0  0  0  0  0  0
    1.2144    3.6314   -0.9624 C   0  0  0  0  0  0  0  0  0  0  0  0
    1.3838    4.6947   -0.0643 C   0  0  0  0  0  0  0  0  0  0  0  0
    2.1542    5.8028   -0.4213 C   0  0  0  0  0  0  0  0  0  0  0  0
    2.7594    5.8551   -1.6760 C   0  0  0  0  0  0  0  0  0  0  0  0
    2.5959    4.8019   -2.5754 C   0  0  0  0  0  0  0  0  0  0  0  0
    1.8254    3.6912   -2.2222 C   0  0  0  0  0  0  0  0  0  0  0  0
    0.4431   -0.9243   -1.7680 C   0  0  1  0  0  0  0  0  0  0  0  0
    0.7705   -0.6500   -3.2687 C   0  0  0  0  0  0  0  0  0  0  0  0
    1.8592   -1.0642   -1.0809 C   0  0  1  0  0  0  0  0  0  0  0  0
    1.8301   -0.5159    0.2505 O   0  0  0  0  0  0  0  0  0  0  0  0
    2.9792    0.0360    0.7127 C   0  0  0  0  0  0  0  0  0  0  0  0
    4.0476    0.0695    0.1199 O   0  0  0  0  0  0  0  0  0  0  0  0
    2.8193    0.5964    2.0692 C   0  0  0  0  0  0  0  0  0  0  0  0
    1.6507    0.6616    2.7260 C   0  0  0  0  0  0  0  0  0  0  0  0
    1.4991    1.2106    4.0805 C   0  0  0  0  0  0  0  0  0  0  0  0
    0.5436    0.6418    4.9330 C   0  0  0  0  0  0  0  0  0  0  0  0
    0.3478    1.1460    6.2212 C   0  0  0  0  0  0  0  0  0  0  0  0
    1.0975    2.2324    6.6660 C   0  0  0  0  0  0  0  0  0  0  0  0
    2.0377    2.8188    5.8215 C   0  0  0  0  0  0  0  0  0  0  0  0
    2.2339    2.3145    4.5330 C   0  0  0  0  0  0  0  0  0  0  0  0
    2.4141   -2.5189   -1.0507 C   0  0  0  0  0  0  0  0  0  0  0  0
    1.3592   -3.6495   -0.9136 C   0  0  2  0  0  0  0  0  0  0  0  0
    0.3755   -3.4654   -2.0609 C   0  0  1  0  0  0  0  0  0  0  0  0
   -0.4323   -4.6220   -2.2595 O   0  0  0  0  0  0  0  0  0  0  0  0
   -0.4093   -2.2361   -1.5375 C   0  0  1  0  0  0  0  0  0  0  0  0
   -0.4383   -2.4283   -0.0657 O   0  0  0  0  0  0  0  0  0  0  0  0
    0.4407   -3.5059    0.3119 C   0  0  0  0  0  0  0  0  0  0  0  0
    1.1600   -3.2066    1.6336 C   0  0  0  0  0  0  0  0  0  0  0  0
   -0.4170   -4.7536    0.6151 C   0  0  0  0  0  0  0  0  0  0  0  0
   -1.9062   -2.1364   -2.0369 C   0  0  1  0  0  0  0  0  0  0  0  0
   -2.0934   -2.1969   -3.5645 C   0  0  0  0  0  0  0  0  0  0  0  0
   -2.6532   -3.2834   -1.5629 O   0  0  0  0  0  0  0  0  0  0  0  0
   -2.6044   -0.8657   -1.4734 C   0  0  1  0  0  0  0  0  0  0  0  0
   -2.7429   -1.0065   -0.0342 O   0  0  0  0  0  0  0  0  0  0  0  0
   -3.8779   -0.5431    0.5437 C   0  0  0  0  0  0  0  0  0  0  0  0
   -3.8354   -0.8074    2.0176 C   0  0  0  0  0  0  0  0  0  0  0  0
   -4.7990    0.0237   -0.0275 O   0  0  0  0  0  0  0  0  0  0  0  0
   -3.3660    4.0701   -1.1041 H   0  0  0  0  0  0  0  0  0  0  0  0
   -4.3830    2.9052   -0.1909 H   0  0  0  0  0  0  0  0  0  0  0  0
   -4.9588    3.5739   -1.7267 H   0  0  0  0  0  0  0  0  0  0  0  0
   -1.6919    0.5860   -2.8392 H   0  0  0  0  0  0  0  0  0  0  0  0
   -0.4379    0.1847   -0.0862 H   0  0  0  0  0  0  0  0  0  0  0  0
    0.9158    4.6626    0.9182 H   0  0  0  0  0  0  0  0  0  0  0  0
    2.2813    6.6240    0.2798 H   0  0  0  0  0  0  0  0  0  0  0  0
    3.3597    6.7183   -1.9535 H   0  0  0  0  0  0  0  0  0  0  0  0
    3.0695    4.8455   -3.5533 H   0  0  0  0  0  0  0  0  0  0  0  0
    1.7118    2.8834   -2.9396 H   0  0  0  0  0  0  0  0  0  0  0  0
    1.3828    0.2538   -3.3781 H   0  0  0  0  0  0  0  0  0  0  0  0
   -0.1058   -0.4805   -3.8868 H   0  0  0  0  0  0  0  0  0  0  0  0
    1.3503   -1.4541   -3.7285 H   0  0  0  0  0  0  0  0  0  0  0  0
    2.5745   -0.4586   -1.6536 H   0  0  0  0  0  0  0  0  0  0  0  0
    3.7447    0.9548    2.5052 H   0  0  0  0  0  0  0  0  0  0  0  0
    0.7342    0.2885    2.2719 H   0  0  0  0  0  0  0  0  0  0  0  0
   -0.0556   -0.2038    4.6019 H   0  0  0  0  0  0  0  0  0  0  0  0
   -0.3932    0.6922    6.8739 H   0  0  0  0  0  0  0  0  0  0  0  0
    0.9432    2.6270    7.6668 H   0  0  0  0  0  0  0  0  0  0  0  0
    2.6142    3.6751    6.1619 H   0  0  0  0  0  0  0  0  0  0  0  0
    2.9561    2.8053    3.8858 H   0  0  0  0  0  0  0  0  0  0  0  0
    2.9482   -2.6887   -1.9956 H   0  0  0  0  0  0  0  0  0  0  0  0
    3.1637   -2.6260   -0.2586 H   0  0  0  0  0  0  0  0  0  0  0  0
    1.8518   -4.6277   -0.9306 H   0  0  0  0  0  0  0  0  0  0  0  0
    0.8680   -3.2968   -3.0191 H   0  0  0  0  0  0  0  0  0  0  0  0
    0.1618   -5.3655   -2.4726 H   0  0  0  0  0  0  0  0  0  0  0  0
    1.7402   -4.0734    1.9696 H   0  0  0  0  0  0  0  0  0  0  0  0
    1.8482   -2.3693    1.5874 H   0  0  0  0  0  0  0  0  0  0  0  0
    0.4370   -2.9472    2.4163 H   0  0  0  0  0  0  0  0  0  0  0  0
   -1.1899   -4.9578   -0.1234 H   0  0  0  0  0  0  0  0  0  0  0  0
    0.2083   -5.6463    0.7225 H   0  0  0  0  0  0  0  0  0  0  0  0
   -0.9722   -4.6167    1.5519 H   0  0  0  0  0  0  0  0  0  0  0  0
   -1.4485   -2.9501   -4.0263 H   0  0  0  0  0  0  0  0  0  0  0  0
   -1.9278   -1.2464   -4.0698 H   0  0  0  0  0  0  0  0  0  0  0  0
   -3.1216   -2.4949   -3.8079 H   0  0  0  0  0  0  0  0  0  0  0  0
   -2.1084   -4.0684   -1.7810 H   0  0  0  0  0  0  0  0  0  0  0  0
   -3.6064   -0.7880   -1.9130 H   0  0  0  0  0  0  0  0  0  0  0  0
   -4.7701   -0.4694    2.4739 H   0  0  0  0  0  0  0  0  0  0  0  0
   -3.0056   -0.2568    2.4680 H   0  0  0  0  0  0  0  0  0  0  0  0
   -3.7292   -1.8800    2.1993 H   0  0  0  0  0  0  0  0  0  0  0  0
  1  2  1  0
  2  3  2  0
  2  4  1  0
  4  5  1  0
  5  6  1  0
  6  7  1  0
  7  8  1  0
  8  9  2  0
  8 10  1  0
 10 11  2  0
 11 12  1  0
 12 13  2  0
 13 14  1  0
 14 15  2  0
  6 16  1  0
 16 17  1  6
 16 18  1  0
 18 19  1  0
 19 20  1  0
 20 21  2  0
 20 22  1  0
 22 23  2  0
 23 24  1  0
 24 25  2  0
 25 26  1  0
 26 27  2  0
 27 28  1  0
 28 29  2  0
 18 30  1  0
 30 31  1  0
 31 32  1  0
 32 33  1  0
 32 34  1  0
 34 35  1  1
 35 36  1  0
 36 37  1  0
 36 38  1  0
 34 39  1  0
 39 40  1  0
 39 41  1  1
 39 42  1  0
 42 43  1  0
 43 44  1  0
 44 45  1  0
 44 46  2  0
 42  5  1  0
 15 10  1  0
 34 16  1  0
 29 24  1  0
 36 31  1  0
  1 47  1  0
  1 48  1  0
  1 49  1  0
  5 50  1  6
  6 51  1  1
 11 52  1  0
 12 53  1  0
 13 54  1  0
 14 55  1  0
 15 56  1  0
 17 57  1  0
 17 58  1  0
 17 59  1  0
 18 60  1  6
 22 61  1  0
 23 62  1  0
 25 63  1  0
 26 64  1  0
 27 65  1  0
 28 66  1  0
 29 67  1  0
 30 68  1  0
 30 69  1  0
 31 70  1  6
 32 71  1  6
 33 72  1  0
 37 73  1  0
 37 74  1  0
 37 75  1  0
 38 76  1  0
 38 77  1  0
 38 78  1  0
 40 79  1  0
 40 80  1  0
 40 81  1  0
 41 82  1  0
 42 83  1  6
 45 84  1  0
 45 85  1  0
 45 86  1  0
M  END
$$$$
