
     RDKit          3D

 35 37  0  0  0  0  0  0  0  0999 V2000
    6.5734    0.5345    0.8949 C   0  0  0  0  0  0  0  0  0  0  0  0
    5.4641    1.2376    0.3501 O   0  0  0  0  0  0  0  0  0  0  0  0
    4.2377    0.6349    0.4273 C   0  0  0  0  0  0  0  0  0  0  0  0
    3.9866   -0.5790    1.0739 C   0  0  0  0  0  0  0  0  0  0  0  0
    2.6889   -1.1063    1.1105 C   0  0  0  0  0  0  0  0  0  0  0  0
    1.6273   -0.4254    0.5049 C   0  0  0  0  0  0  0  0  0  0  0  0
    0.1762   -1.0326    0.5539 C   0  0  0  0  0  0  0  0  0  0  0  0
   -0.1538   -2.1992    1.1521 N   0  0  0  0  0  0  0  0  0  0  0  0
   -1.4973   -2.3691    0.9713 N   0  0  0  0  0  0  0  0  0  0  0  0
   -1.9384   -1.2990    0.2695 C   0  0  0  0  0  0  0  0  0  0  0  0
   -3.4298   -1.0651   -0.1703 C   0  0  0  0  0  0  0  0  0  0  0  0
   -4.4060   -1.9968    0.1606 C   0  0  0  0  0  0  0  0  0  0  0  0
   -5.6993   -1.7412   -0.2510 C   0  0  0  0  0  0  0  0  0  0  0  0
   -6.0709   -0.6445   -0.9530 N   0  0  0  0  0  0  0  0  0  0  0  0
   -5.0976    0.2491   -1.2625 C   0  0  0  0  0  0  0  0  0  0  0  0
   -5.5013    1.4656   -2.0390 C   0  0  0  0  0  0  0  0  0  0  0  0
   -3.7704    0.0761   -0.8912 C   0  0  0  0  0  0  0  0  0  0  0  0
   -0.9132   -0.4664    0.0042 N   0  0  0  0  0  0  0  0  0  0  0  0
    1.8499    0.7869   -0.1431 C   0  0  0  0  0  0  0  0  0  0  0  0
    3.1519    1.2917   -0.1725 C   0  0  0  0  0  0  0  0  0  0  0  0
    3.3712    2.5437   -0.8591 N   0  0  0  0  0  0  0  0  0  0  0  0
    3.0116    3.5786   -0.2786 O   0  0  0  0  0  0  0  0  0  0  0  0
    3.8834    2.4926   -1.9874 O   0  0  0  0  0  0  0  0  0  0  0  0
    7.4703    1.1348    0.7143 H   0  0  0  0  0  0  0  0  0  0  0  0
    6.7139   -0.4309    0.3976 H   0  0  0  0  0  0  0  0  0  0  0  0
    6.4684    0.4120    1.9779 H   0  0  0  0  0  0  0  0  0  0  0  0
    4.7687   -1.1474    1.5658 H   0  0  0  0  0  0  0  0  0  0  0  0
    2.4975   -2.0529    1.6146 H   0  0  0  0  0  0  0  0  0  0  0  0
   -4.1566   -2.8905    0.7217 H   0  0  0  0  0  0  0  0  0  0  0  0
   -6.5007   -2.4357   -0.0196 H   0  0  0  0  0  0  0  0  0  0  0  0
   -5.2788    2.3713   -1.4663 H   0  0  0  0  0  0  0  0  0  0  0  0
   -6.5750    1.4530   -2.2526 H   0  0  0  0  0  0  0  0  0  0  0  0
   -4.9649    1.5015   -2.9923 H   0  0  0  0  0  0  0  0  0  0  0  0
   -3.0089    0.8046   -1.1499 H   0  0  0  0  0  0  0  0  0  0  0  0
    1.0219    1.3132   -0.6115 H   0  0  0  0  0  0  0  0  0  0  0  0
  1  2  1  0
  2  3  1  0
  3  4  2  0
  4  5  1  0
  5  6  2  0
  6  7  1  0
  7  8  2  0
  8  9  1  0
  9 10  1  0
 10 11  1  0
 11 12  2  0
 12 13  1  0
 13 14  2  0
 14 15  1  0
 15 16  1  0
 15 17  2  0
 10 18  2  0
  6 19  1  0
 19 20  2  0
 20 21  1  0
 21 22  2  0
 21 23  1  0
 20  3  1  0
 18  7  1  0
 17 11  1  0
  1 24  1  0
  1 25  1  0
  1 26  1  0
  4 27  1  0
  5 28  1  0
 12 29  1  0
 13 30  1  0
 16 31  1  0
 16 32  1  0
 16 33  1  0
 17 34  1  0
 19 35  1  0
M  CHG  3   9  -1  21   1  23  -1
M  END
$$$$
