
     RDKit          3D

 53 56  0  0  0  0  0  0  0  0999 V2000
    5.0379   -1.6704    0.0330 C   0  0  0  0  0  0  0  0  0  0  0  0
    5.5571   -0.2659    0.2263 C   0  0  0  0  0  0  0  0  0  0  0  0
    6.7661   -0.0553    0.1841 O   0  0  0  0  0  0  0  0  0  0  0  0
    4.6194    0.7947    0.4026 N   0  0  0  0  0  0  0  0  0  0  0  0
    3.2620    0.4431    0.6989 C   0  0  0  0  0  0  0  0  0  0  0  0
    2.3380    0.3632   -0.3420 C   0  0  0  0  0  0  0  0  0  0  0  0
    1.0146    0.0025   -0.0724 C   0  0  0  0  0  0  0  0  0  0  0  0
    0.5976   -0.2899    1.2331 C   0  0  0  0  0  0  0  0  0  0  0  0
   -0.7349   -0.6061    1.5442 N   0  0  0  0  0  0  0  0  0  0  0  0
   -1.8826   -0.5775    0.7084 C   0  0  0  0  0  0  0  0  0  0  0  0
   -2.4105    0.6561    0.2450 C   0  0  0  0  0  0  0  0  0  0  0  0
   -1.8761    1.9286    0.5719 C   0  0  0  0  0  0  0  0  0  0  0  0
   -2.4422    3.1030    0.0781 C   0  0  0  0  0  0  0  0  0  0  0  0
   -3.5618    3.0127   -0.7459 C   0  0  0  0  0  0  0  0  0  0  0  0
   -4.1762    4.2330   -1.2792 N   0  0  0  0  0  0  0  0  0  0  0  0
   -3.6838    5.3193   -0.9433 O   0  0  0  0  0  0  0  0  0  0  0  0
   -5.1501    4.1070   -2.0344 O   0  0  0  0  0  0  0  0  0  0  0  0
   -4.1089    1.7650   -1.0637 C   0  0  0  0  0  0  0  0  0  0  0  0
   -3.5513    0.5936   -0.5743 C   0  0  0  0  0  0  0  0  0  0  0  0
   -4.1452   -0.5574   -0.9062 N   0  0  0  0  0  0  0  0  0  0  0  0
   -3.6658   -1.7301   -0.4537 C   0  0  0  0  0  0  0  0  0  0  0  0
   -4.3173   -2.9197   -0.8091 C   0  0  0  0  0  0  0  0  0  0  0  0
   -5.5442   -2.8702   -1.6829 C   0  0  0  0  0  0  0  0  0  0  0  0
   -3.8428   -4.1645   -0.3668 C   0  0  0  0  0  0  0  0  0  0  0  0
   -2.7113   -4.2365    0.4311 C   0  0  0  0  0  0  0  0  0  0  0  0
   -2.0554   -3.0642    0.7925 C   0  0  0  0  0  0  0  0  0  0  0  0
   -2.5225   -1.7978    0.3662 C   0  0  0  0  0  0  0  0  0  0  0  0
    1.5384   -0.2012    2.2681 C   0  0  0  0  0  0  0  0  0  0  0  0
    2.8640    0.1567    2.0064 C   0  0  0  0  0  0  0  0  0  0  0  0
    5.0991    2.3102    0.9866 S   0  0  0  0  0  0  0  0  0  0  0  0
    6.2627    2.8658   -0.2445 C   0  0  0  0  0  0  0  0  0  0  0  0
    3.9637    3.2115    0.9019 O   0  0  0  0  0  0  0  0  0  0  0  0
    5.7824    2.1239    2.2502 O   0  0  0  0  0  0  0  0  0  0  0  0
    5.8803   -2.3412   -0.1638 H   0  0  0  0  0  0  0  0  0  0  0  0
    4.3649   -1.7138   -0.8268 H   0  0  0  0  0  0  0  0  0  0  0  0
    4.5333   -2.0220    0.9358 H   0  0  0  0  0  0  0  0  0  0  0  0
    2.6320    0.5930   -1.3625 H   0  0  0  0  0  0  0  0  0  0  0  0
    0.3111   -0.0483   -0.9000 H   0  0  0  0  0  0  0  0  0  0  0  0
   -0.8990   -1.0166    2.4567 H   0  0  0  0  0  0  0  0  0  0  0  0
   -1.0070    2.0099    1.2226 H   0  0  0  0  0  0  0  0  0  0  0  0
   -2.0015    4.0614    0.3452 H   0  0  0  0  0  0  0  0  0  0  0  0
   -4.9896    1.6876   -1.6991 H   0  0  0  0  0  0  0  0  0  0  0  0
   -5.9491   -3.8714   -1.8647 H   0  0  0  0  0  0  0  0  0  0  0  0
   -6.3301   -2.2792   -1.2012 H   0  0  0  0  0  0  0  0  0  0  0  0
   -5.3000   -2.4303   -2.6553 H   0  0  0  0  0  0  0  0  0  0  0  0
   -4.3548   -5.0816   -0.6500 H   0  0  0  0  0  0  0  0  0  0  0  0
   -2.3377   -5.2003    0.7670 H   0  0  0  0  0  0  0  0  0  0  0  0
   -1.1601   -3.1459    1.4044 H   0  0  0  0  0  0  0  0  0  0  0  0
    1.2441   -0.3960    3.2968 H   0  0  0  0  0  0  0  0  0  0  0  0
    3.5716    0.2266    2.8299 H   0  0  0  0  0  0  0  0  0  0  0  0
    7.1898    2.2990   -0.1728 H   0  0  0  0  0  0  0  0  0  0  0  0
    6.4738    3.9195   -0.0456 H   0  0  0  0  0  0  0  0  0  0  0  0
    5.8078    2.7667   -1.2318 H   0  0  0  0  0  0  0  0  0  0  0  0
  1  2  1  0
  2  3  2  0
  2  4  1  0
  4  5  1  0
  5  6  2  0
  6  7  1  0
  7  8  2  0
  8  9  1  0
  9 10  1  0
 10 11  1  0
 11 12  2  0
 12 13  1  0
 13 14  2  0
 14 15  1  0
 15 16  2  0
 15 17  1  0
 14 18  1  0
 18 19  2  0
 19 20  1  0
 20 21  2  0
 21 22  1  0
 22 23  1  0
 22 24  2  0
 24 25  1  0
 25 26  2  0
 26 27  1  0
  8 28  1  0
 28 29  2  0
  4 30  1  0
 30 31  1  0
 30 32  2  0
 30 33  2  0
 29  5  1  0
 27 10  2  0
 19 11  1  0
 27 21  1  0
  1 34  1  0
  1 35  1  0
  1 36  1  0
  6 37  1  0
  7 38  1  0
  9 39  1  0
 12 40  1  0
 13 41  1  0
 18 42  1  0
 23 43  1  0
 23 44  1  0
 23 45  1  0
 24 46  1  0
 25 47  1  0
 26 48  1  0
 28 49  1  0
 29 50  1  0
 31 51  1  0
 31 52  1  0
 31 53  1  0
M  CHG  2  15   1  17  -1
M  END
$$$$
