
     RDKit          3D

 55 59  0  0  0  0  0  0  0  0999 V2000
   -7.9560    1.5878    1.7734 N   0  0  0  0  0  0  0  0  0  0  0  0
   -8.4953    0.4292    1.2891 C   0  0  0  0  0  0  0  0  0  0  0  0
   -9.7072    0.2525    1.2904 O   0  0  0  0  0  0  0  0  0  0  0  0
   -7.5561   -0.6141    0.7999 C   0  0  0  0  0  0  0  0  0  0  0  0
   -7.9902   -1.9440    0.7882 C   0  0  0  0  0  0  0  0  0  0  0  0
   -7.1362   -2.9540    0.3489 C   0  0  0  0  0  0  0  0  0  0  0  0
   -5.8468   -2.6377   -0.0858 C   0  0  0  0  0  0  0  0  0  0  0  0
   -5.3990   -1.3081   -0.0949 C   0  0  0  0  0  0  0  0  0  0  0  0
   -4.0593   -0.9941   -0.5704 C   0  0  0  0  0  0  0  0  0  0  0  0
   -3.2877   -1.6268   -1.5646 C   0  0  0  0  0  0  0  0  0  0  0  0
   -2.0871   -1.0789   -1.7317 N   0  0  0  0  0  0  0  0  0  0  0  0
   -2.0393   -0.0659   -0.8221 N   0  0  0  0  0  0  0  0  0  0  0  0
   -0.9773    0.8264   -0.5658 C   0  0  0  0  0  0  0  0  0  0  0  0
    0.2971    0.7762   -1.3165 C   0  0  0  0  0  0  0  0  0  0  0  0
    0.3018    0.7836   -2.7168 C   0  0  0  0  0  0  0  0  0  0  0  0
    1.5046    0.7371   -3.4204 C   0  0  0  0  0  0  0  0  0  0  0  0
    2.7164    0.6897   -2.7306 C   0  0  0  0  0  0  0  0  0  0  0  0
    2.7390    0.6903   -1.3316 C   0  0  0  0  0  0  0  0  0  0  0  0
    4.0032    0.6408   -0.7059 N   0  0  0  0  0  0  0  0  0  0  0  0
    4.2706    0.7544    0.6467 C   0  0  0  0  0  0  0  0  0  0  0  0
    3.4708    1.0341    1.5317 O   0  0  0  0  0  0  0  0  0  0  0  0
    5.7004    0.5610    1.0222 C   0  0  0  0  0  0  0  0  0  0  0  0
    6.2241    1.3227    2.0729 C   0  0  0  0  0  0  0  0  0  0  0  0
    7.5553    1.1653    2.4580 C   0  0  0  0  0  0  0  0  0  0  0  0
    8.3676    0.2399    1.8011 C   0  0  0  0  0  0  0  0  0  0  0  0
    7.8573   -0.5416    0.7526 C   0  0  0  0  0  0  0  0  0  0  0  0
    8.7240   -1.5717    0.0688 C   0  0  0  0  0  0  0  0  0  0  0  0
    8.4106   -1.7264   -1.2483 F   0  0  0  0  0  0  0  0  0  0  0  0
    8.6051   -2.8044    0.6305 F   0  0  0  0  0  0  0  0  0  0  0  0
   10.0500   -1.2656    0.1016 F   0  0  0  0  0  0  0  0  0  0  0  0
    6.5118   -0.3820    0.3755 C   0  0  0  0  0  0  0  0  0  0  0  0
    1.5273    0.7228   -0.6353 C   0  0  0  0  0  0  0  0  0  0  0  0
   -1.1326    1.7662    0.3859 C   0  0  0  0  0  0  0  0  0  0  0  0
   -2.4333    1.7685    1.0969 C   0  0  0  0  0  0  0  0  0  0  0  0
   -3.4300    0.9668    0.8823 N   0  0  0  0  0  0  0  0  0  0  0  0
   -3.2434    0.0203   -0.0950 C   0  0  0  0  0  0  0  0  0  0  0  0
   -6.2701   -0.2993    0.3409 C   0  0  0  0  0  0  0  0  0  0  0  0
   -8.5976    2.2903    2.1157 H   0  0  0  0  0  0  0  0  0  0  0  0
   -6.9646    1.7475    1.8802 H   0  0  0  0  0  0  0  0  0  0  0  0
   -8.9933   -2.1942    1.1287 H   0  0  0  0  0  0  0  0  0  0  0  0
   -7.4732   -3.9877    0.3496 H   0  0  0  0  0  0  0  0  0  0  0  0
   -5.1954   -3.4470   -0.4085 H   0  0  0  0  0  0  0  0  0  0  0  0
   -3.5588   -2.4712   -2.1857 H   0  0  0  0  0  0  0  0  0  0  0  0
   -0.6331    0.8143   -3.2736 H   0  0  0  0  0  0  0  0  0  0  0  0
    1.4948    0.7338   -4.5075 H   0  0  0  0  0  0  0  0  0  0  0  0
    3.6383    0.6555   -3.3051 H   0  0  0  0  0  0  0  0  0  0  0  0
    4.7956    0.5665   -1.3303 H   0  0  0  0  0  0  0  0  0  0  0  0
    5.5929    2.0399    2.5951 H   0  0  0  0  0  0  0  0  0  0  0  0
    7.9568    1.7602    3.2757 H   0  0  0  0  0  0  0  0  0  0  0  0
    9.4039    0.1233    2.1181 H   0  0  0  0  0  0  0  0  0  0  0  0
    6.1007   -1.0211   -0.4044 H   0  0  0  0  0  0  0  0  0  0  0  0
    1.5177    0.6855    0.4499 H   0  0  0  0  0  0  0  0  0  0  0  0
   -0.3910    2.5050    0.6587 H   0  0  0  0  0  0  0  0  0  0  0  0
   -2.5356    2.5417    1.8768 H   0  0  0  0  0  0  0  0  0  0  0  0
   -5.9483    0.7366    0.2951 H   0  0  0  0  0  0  0  0  0  0  0  0
  1  2  1  0
  2  3  2  0
  2  4  1  0
  4  5  2  0
  5  6  1  0
  6  7  2  0
  7  8  1  0
  8  9  1  0
  9 10  1  0
 10 11  2  0
 11 12  1  0
 12 13  1  0
 13 14  1  0
 14 15  2  0
 15 16  1  0
 16 17  2  0
 17 18  1  0
 18 19  1  0
 19 20  1  0
 20 21  2  0
 20 22  1  0
 22 23  2  0
 23 24  1  0
 24 25  2  0
 25 26  1  0
 26 27  1  0
 27 28  1  0
 27 29  1  0
 27 30  1  0
 26 31  2  0
 18 32  2  0
 13 33  2  0
 33 34  1  0
 34 35  2  0
 35 36  1  0
  8 37  2  0
 37  4  1  0
 36  9  2  0
 36 12  1  0
 32 14  1  0
 31 22  1  0
  1 38  1  0
  1 39  1  0
  5 40  1  0
  6 41  1  0
  7 42  1  0
 10 43  1  0
 15 44  1  0
 16 45  1  0
 17 46  1  0
 19 47  1  0
 23 48  1  0
 24 49  1  0
 25 50  1  0
 31 51  1  0
 32 52  1  0
 33 53  1  0
 34 54  1  0
 37 55  1  0
M  END
$$$$
