
     RDKit          3D

 63 67  0  0  0  0  0  0  0  0999 V2000
   -3.2442    5.0226    2.1580 C   0  0  0  0  0  0  0  0  0  0  0  0
   -3.1134    4.2356    0.8638 C   0  0  0  0  0  0  0  0  0  0  0  0
   -3.5592    2.8195    1.0356 C   0  0  0  0  0  0  0  0  0  0  0  0
   -4.7783    2.3951    0.7832 N   0  0  0  0  0  0  0  0  0  0  0  0
   -4.7860    1.0689    1.1066 C   0  0  0  0  0  0  0  0  0  0  0  0
   -6.0920    0.2354    1.0148 C   0  0  0  0  0  0  0  0  0  0  0  0
   -6.6688   -0.3930    2.2570 C   0  0  0  0  0  0  0  0  0  0  0  0
   -7.3412    0.7991    1.6445 C   0  0  0  0  0  0  0  0  0  0  0  0
   -3.5476    0.6319    1.5400 C   0  0  0  0  0  0  0  0  0  0  0  0
   -3.0943   -0.6577    1.9944 C   0  0  0  0  0  0  0  0  0  0  0  0
   -3.6976   -1.7443    1.4367 N   0  0  0  0  0  0  0  0  0  0  0  0
   -2.1940   -0.8292    2.8111 O   0  0  0  0  0  0  0  0  0  0  0  0
   -2.7664    1.7797    1.4806 N   0  0  0  0  0  0  0  0  0  0  0  0
   -1.3516    1.8661    1.8278 C   0  0  0  0  0  0  0  0  0  0  0  0
   -0.4619    1.2006    0.7977 C   0  0  0  0  0  0  0  0  0  0  0  0
   -0.4636    1.6212   -0.5434 C   0  0  0  0  0  0  0  0  0  0  0  0
    0.3602    1.0223   -1.5030 C   0  0  0  0  0  0  0  0  0  0  0  0
    1.1832   -0.0076   -1.0604 C   0  0  0  0  0  0  0  0  0  0  0  0
    2.0481   -0.7069   -1.8373 O   0  0  0  0  0  0  0  0  0  0  0  0
    2.6610   -1.6361   -1.0444 C   0  0  0  0  0  0  0  0  0  0  0  0
    3.6215   -2.4981   -1.7380 C   0  0  0  0  0  0  0  0  0  0  0  0
    3.6957   -3.8604   -1.4037 C   0  0  0  0  0  0  0  0  0  0  0  0
    4.6098   -4.7078   -2.0354 C   0  0  0  0  0  0  0  0  0  0  0  0
    5.4592   -4.2099   -3.0179 C   0  0  0  0  0  0  0  0  0  0  0  0
    5.3953   -2.8644   -3.3739 C   0  0  0  0  0  0  0  0  0  0  0  0
    4.4860   -2.0084   -2.7442 C   0  0  0  0  0  0  0  0  0  0  0  0
    4.4695   -0.6250   -3.1277 N   0  0  0  0  0  0  0  0  0  0  0  0
    5.8031    0.3458   -2.7027 S   0  0  0  0  0  0  0  0  0  0  0  0
    6.9843   -0.2295   -3.3231 O   0  0  0  0  0  0  0  0  0  0  0  0
    5.3929    1.6912   -3.0737 O   0  0  0  0  0  0  0  0  0  0  0  0
    5.9195    0.2251   -0.8451 C   0  0  0  0  0  0  0  0  0  0  0  0
    6.2322   -1.0328   -0.4244 F   0  0  0  0  0  0  0  0  0  0  0  0
    4.7376    0.5515   -0.2449 F   0  0  0  0  0  0  0  0  0  0  0  0
    6.8647    1.0610   -0.3314 F   0  0  0  0  0  0  0  0  0  0  0  0
    2.2101   -1.5132    0.2636 C   0  0  0  0  0  0  0  0  0  0  0  0
    2.6539   -2.2934    1.4388 C   0  0  0  0  0  0  0  0  0  0  0  0
    3.9970   -2.4931    1.4370 F   0  0  0  0  0  0  0  0  0  0  0  0
    2.3589   -1.6887    2.6173 F   0  0  0  0  0  0  0  0  0  0  0  0
    2.0753   -3.5210    1.4712 F   0  0  0  0  0  0  0  0  0  0  0  0
    1.2373   -0.4621    0.2478 C   0  0  0  0  0  0  0  0  0  0  0  0
    0.4018    0.1587    1.1979 C   0  0  0  0  0  0  0  0  0  0  0  0
   -4.2801    5.0271    2.5144 H   0  0  0  0  0  0  0  0  0  0  0  0
   -2.6203    4.5966    2.9507 H   0  0  0  0  0  0  0  0  0  0  0  0
   -2.9341    6.0609    2.0031 H   0  0  0  0  0  0  0  0  0  0  0  0
   -3.7373    4.7095    0.0962 H   0  0  0  0  0  0  0  0  0  0  0  0
   -2.0848    4.2860    0.4934 H   0  0  0  0  0  0  0  0  0  0  0  0
   -6.2276   -0.2754    0.0680 H   0  0  0  0  0  0  0  0  0  0  0  0
   -6.1572   -0.2483    3.2020 H   0  0  0  0  0  0  0  0  0  0  0  0
   -7.1564   -1.3555    2.1600 H   0  0  0  0  0  0  0  0  0  0  0  0
   -8.2789    0.6503    1.1230 H   0  0  0  0  0  0  0  0  0  0  0  0
   -7.2681    1.7510    2.1594 H   0  0  0  0  0  0  0  0  0  0  0  0
   -4.4007   -1.6728    0.7184 H   0  0  0  0  0  0  0  0  0  0  0  0
   -3.3910   -2.6580    1.7376 H   0  0  0  0  0  0  0  0  0  0  0  0
   -1.2321    1.4305    2.8253 H   0  0  0  0  0  0  0  0  0  0  0  0
   -1.0635    2.9169    1.9234 H   0  0  0  0  0  0  0  0  0  0  0  0
   -1.1217    2.4267   -0.8662 H   0  0  0  0  0  0  0  0  0  0  0  0
    0.3556    1.3396   -2.5393 H   0  0  0  0  0  0  0  0  0  0  0  0
    3.0332   -4.2924   -0.6570 H   0  0  0  0  0  0  0  0  0  0  0  0
    4.6532   -5.7601   -1.7629 H   0  0  0  0  0  0  0  0  0  0  0  0
    6.1682   -4.8689   -3.5136 H   0  0  0  0  0  0  0  0  0  0  0  0
    6.0531   -2.4926   -4.1571 H   0  0  0  0  0  0  0  0  0  0  0  0
    3.5825   -0.1444   -2.9401 H   0  0  0  0  0  0  0  0  0  0  0  0
    0.4098   -0.1758    2.2344 H   0  0  0  0  0  0  0  0  0  0  0  0
  1  2  1  0
  2  3  1  0
  3  4  2  0
  4  5  1  0
  5  6  1  0
  6  7  1  0
  7  8  1  0
  5  9  2  0
  9 10  1  0
 10 11  1  0
 10 12  2  0
  9 13  1  0
 13 14  1  0
 14 15  1  0
 15 16  2  0
 16 17  1  0
 17 18  2  0
 18 19  1  0
 19 20  1  0
 20 21  1  0
 21 22  2  0
 22 23  1  0
 23 24  2  0
 24 25  1  0
 25 26  2  0
 26 27  1  0
 27 28  1  0
 28 29  2  0
 28 30  2  0
 28 31  1  0
 31 32  1  0
 31 33  1  0
 31 34  1  0
 20 35  2  0
 35 36  1  0
 36 37  1  0
 36 38  1  0
 36 39  1  0
 35 40  1  0
 40 41  2  0
 13  3  1  0
 41 15  1  0
  8  6  1  0
 40 18  1  0
 26 21  1  0
  1 42  1  0
  1 43  1  0
  1 44  1  0
  2 45  1  0
  2 46  1  0
  6 47  1  0
  7 48  1  0
  7 49  1  0
  8 50  1  0
  8 51  1  0
 11 52  1  0
 11 53  1  0
 14 54  1  0
 14 55  1  0
 16 56  1  0
 17 57  1  0
 22 58  1  0
 23 59  1  0
 24 60  1  0
 25 61  1  0
 27 62  1  0
 41 63  1  0
M  END
$$$$
