
     RDKit          3D

 69 71  0  0  0  0  0  0  0  0999 V2000
    8.0966   -0.5689   -2.2137 C   0  0  0  0  0  0  0  0  0  0  0  0
    7.2820   -0.1995   -0.9842 C   0  0  0  0  0  0  0  0  0  0  0  0
    6.2364    0.8692   -1.3052 C   0  0  0  0  0  0  0  0  0  0  0  0
    5.4182    1.2331   -0.0646 C   0  0  0  0  0  0  0  0  0  0  0  0
    4.4251    2.3743   -0.3040 C   0  0  0  0  0  0  0  0  0  0  0  0
    3.3608    2.1166   -1.3756 C   0  0  0  0  0  0  0  0  0  0  0  0
    2.5042    0.8631   -1.1745 C   0  0  0  0  0  0  0  0  0  0  0  0
    1.7071    0.8751    0.1314 C   0  0  0  0  0  0  0  0  0  0  0  0
    0.7909   -0.3480    0.2321 C   0  0  0  0  0  0  0  0  0  0  0  0
   -0.0066   -0.3342    1.5427 C   0  0  0  0  0  0  0  0  0  0  0  0
   -0.9545   -1.5435    1.7142 C   0  0  0  0  0  0  0  0  0  0  0  0
   -1.9935   -1.5925    0.5638 C   0  0  0  0  0  0  0  0  0  0  0  0
   -1.9607   -2.4784   -0.2846 O   0  0  0  0  0  0  0  0  0  0  0  0
   -2.8671   -0.5252    0.5609 N   0  0  0  0  0  0  0  0  0  0  0  0
   -3.9894   -0.2824   -0.2668 C   0  0  0  0  0  0  0  0  0  0  0  0
   -4.7999   -1.2522   -0.8865 C   0  0  0  0  0  0  0  0  0  0  0  0
   -4.6729   -2.7366   -0.6820 C   0  0  0  0  0  0  0  0  0  0  0  0
   -5.8473   -0.8249   -1.7321 C   0  0  0  0  0  0  0  0  0  0  0  0
   -6.1390    0.5270   -1.9078 C   0  0  0  0  0  0  0  0  0  0  0  0
   -5.3802    1.4795   -1.2366 C   0  0  0  0  0  0  0  0  0  0  0  0
   -4.3095    1.0850   -0.4316 C   0  0  0  0  0  0  0  0  0  0  0  0
   -3.5207    1.9966    0.2454 O   0  0  0  0  0  0  0  0  0  0  0  0
   -3.4915    3.2747   -0.3980 C   0  0  0  0  0  0  0  0  0  0  0  0
   -4.8825    3.8566   -0.5226 C   0  0  0  0  0  0  0  0  0  0  0  0
   -5.7153    2.9140   -1.3432 C   0  0  0  0  0  0  0  0  0  0  0  0
   -6.6588    3.2964   -2.0271 O   0  0  0  0  0  0  0  0  0  0  0  0
   -0.1768   -2.8694    1.8211 C   0  0  0  0  0  0  0  0  0  0  0  0
   -1.1046   -3.8236    2.5730 C   0  0  0  0  0  0  0  0  0  0  0  0
   -2.1014   -2.9466    3.3260 C   0  0  0  0  0  0  0  0  0  0  0  0
   -1.6566   -1.5075    3.0849 C   0  0  0  0  0  0  0  0  0  0  0  0
    8.8379   -1.3336   -1.9615 H   0  0  0  0  0  0  0  0  0  0  0  0
    8.6284    0.3028   -2.6083 H   0  0  0  0  0  0  0  0  0  0  0  0
    7.4537   -0.9670   -3.0053 H   0  0  0  0  0  0  0  0  0  0  0  0
    6.7885   -1.0983   -0.5964 H   0  0  0  0  0  0  0  0  0  0  0  0
    7.9580    0.1633   -0.2013 H   0  0  0  0  0  0  0  0  0  0  0  0
    5.5755    0.4970   -2.0960 H   0  0  0  0  0  0  0  0  0  0  0  0
    6.7348    1.7659   -1.6929 H   0  0  0  0  0  0  0  0  0  0  0  0
    6.1018    1.5423    0.7362 H   0  0  0  0  0  0  0  0  0  0  0  0
    4.8915    0.3469    0.3073 H   0  0  0  0  0  0  0  0  0  0  0  0
    4.9840    3.2758   -0.5858 H   0  0  0  0  0  0  0  0  0  0  0  0
    3.9328    2.6134    0.6462 H   0  0  0  0  0  0  0  0  0  0  0  0
    3.8429    2.0557   -2.3586 H   0  0  0  0  0  0  0  0  0  0  0  0
    2.7006    2.9921   -1.4206 H   0  0  0  0  0  0  0  0  0  0  0  0
    1.8064    0.7914   -2.0184 H   0  0  0  0  0  0  0  0  0  0  0  0
    3.1322   -0.0339   -1.2193 H   0  0  0  0  0  0  0  0  0  0  0  0
    1.1050    1.7901    0.1856 H   0  0  0  0  0  0  0  0  0  0  0  0
    2.3894    0.8825    0.9887 H   0  0  0  0  0  0  0  0  0  0  0  0
    0.1071   -0.3548   -0.6243 H   0  0  0  0  0  0  0  0  0  0  0  0
    1.3975   -1.2588    0.1721 H   0  0  0  0  0  0  0  0  0  0  0  0
    0.7023   -0.3086    2.3812 H   0  0  0  0  0  0  0  0  0  0  0  0
   -0.5728    0.6031    1.6043 H   0  0  0  0  0  0  0  0  0  0  0  0
   -2.5909    0.2897    1.0990 H   0  0  0  0  0  0  0  0  0  0  0  0
   -5.6468   -3.2271   -0.7994 H   0  0  0  0  0  0  0  0  0  0  0  0
   -4.3469   -2.9758    0.3343 H   0  0  0  0  0  0  0  0  0  0  0  0
   -3.9948   -3.1706   -1.4218 H   0  0  0  0  0  0  0  0  0  0  0  0
   -6.4696   -1.5611   -2.2407 H   0  0  0  0  0  0  0  0  0  0  0  0
   -6.9697    0.8259   -2.5436 H   0  0  0  0  0  0  0  0  0  0  0  0
   -2.9955    3.1792   -1.3731 H   0  0  0  0  0  0  0  0  0  0  0  0
   -2.8699    3.9335    0.2175 H   0  0  0  0  0  0  0  0  0  0  0  0
   -4.8389    4.8294   -1.0216 H   0  0  0  0  0  0  0  0  0  0  0  0
   -5.3602    3.9672    0.4564 H   0  0  0  0  0  0  0  0  0  0  0  0
    0.7391   -2.7299    2.4099 H   0  0  0  0  0  0  0  0  0  0  0  0
    0.1215   -3.2878    0.8543 H   0  0  0  0  0  0  0  0  0  0  0  0
   -0.5363   -4.4650    3.2545 H   0  0  0  0  0  0  0  0  0  0  0  0
   -1.6358   -4.4800    1.8745 H   0  0  0  0  0  0  0  0  0  0  0  0
   -3.1103   -3.1048    2.9270 H   0  0  0  0  0  0  0  0  0  0  0  0
   -2.1309   -3.1848    4.3939 H   0  0  0  0  0  0  0  0  0  0  0  0
   -0.9490   -1.2149    3.8715 H   0  0  0  0  0  0  0  0  0  0  0  0
   -2.5049   -0.8185    3.1388 H   0  0  0  0  0  0  0  0  0  0  0  0
  1  2  1  0
  2  3  1  0
  3  4  1  0
  4  5  1  0
  5  6  1  0
  6  7  1  0
  7  8  1  0
  8  9  1  0
  9 10  1  0
 10 11  1  0
 11 12  1  0
 12 13  2  0
 12 14  1  0
 14 15  1  0
 15 16  2  0
 16 17  1  0
 16 18  1  0
 18 19  2  0
 19 20  1  0
 20 21  2  0
 21 22  1  0
 22 23  1  0
 23 24  1  0
 24 25  1  0
 25 26  2  0
 11 27  1  0
 27 28  1  0
 28 29  1  0
 29 30  1  0
 30 11  1  0
 21 15  1  0
 25 20  1  0
  1 31  1  0
  1 32  1  0
  1 33  1  0
  2 34  1  0
  2 35  1  0
  3 36  1  0
  3 37  1  0
  4 38  1  0
  4 39  1  0
  5 40  1  0
  5 41  1  0
  6 42  1  0
  6 43  1  0
  7 44  1  0
  7 45  1  0
  8 46  1  0
  8 47  1  0
  9 48  1  0
  9 49  1  0
 10 50  1  0
 10 51  1  0
 14 52  1  0
 17 53  1  0
 17 54  1  0
 17 55  1  0
 18 56  1  0
 19 57  1  0
 23 58  1  0
 23 59  1  0
 24 60  1  0
 24 61  1  0
 27 62  1  0
 27 63  1  0
 28 64  1  0
 28 65  1  0
 29 66  1  0
 29 67  1  0
 30 68  1  0
 30 69  1  0
M  END
$$$$
