
     RDKit          3D

 51 54  0  0  0  0  0  0  0  0999 V2000
    7.1741    1.7119    0.9964 C   0  0  0  0  0  0  0  0  0  0  0  0
    5.8886    1.4999    0.3007 C   0  0  0  0  0  0  0  0  0  0  0  0
    4.9923    0.5502    0.7351 N   0  0  0  0  0  0  0  0  0  0  0  0
    3.9820    0.6428   -0.1090 C   0  0  0  0  0  0  0  0  0  0  0  0
    2.7351   -0.1167   -0.1433 C   0  0  0  0  0  0  0  0  0  0  0  0
    1.7613    0.0957   -1.1272 C   0  0  0  0  0  0  0  0  0  0  0  0
    0.5753   -0.6480   -1.1328 C   0  0  0  0  0  0  0  0  0  0  0  0
    0.3203   -1.6138   -0.1466 C   0  0  0  0  0  0  0  0  0  0  0  0
   -0.9263   -2.3931   -0.1708 C   0  0  0  0  0  0  0  0  0  0  0  0
   -1.0578   -3.3787   -1.1718 C   0  0  0  0  0  0  0  0  0  0  0  0
   -2.2119   -4.1564   -1.2907 C   0  0  0  0  0  0  0  0  0  0  0  0
   -3.2688   -3.9690   -0.4091 C   0  0  0  0  0  0  0  0  0  0  0  0
   -3.1712   -3.0048    0.5916 C   0  0  0  0  0  0  0  0  0  0  0  0
   -2.0113   -2.2174    0.7138 C   0  0  0  0  0  0  0  0  0  0  0  0
   -1.9883   -1.0116    2.0342 S   0  0  0  0  0  0  0  0  0  0  0  0
   -0.8158   -1.2662    2.8425 O   0  0  0  0  0  0  0  0  0  0  0  0
   -3.3003   -1.0040    2.6524 O   0  0  0  0  0  0  0  0  0  0  0  0
   -1.7707    0.4830    1.2720 N   0  0  0  0  0  0  0  0  0  0  0  0
   -2.7285    0.7579    0.2144 C   0  0  0  0  0  0  0  0  0  0  0  0
   -2.4402    0.6410   -1.1070 O   0  0  0  0  0  0  0  0  0  0  0  0
   -3.5480    0.9745   -1.8584 N   0  0  0  0  0  0  0  0  0  0  0  0
   -4.4898    1.3241   -0.9746 C   0  0  0  0  0  0  0  0  0  0  0  0
   -5.8262    1.7600   -1.4438 C   0  0  0  0  0  0  0  0  0  0  0  0
   -4.0149    1.2263    0.3635 C   0  0  0  0  0  0  0  0  0  0  0  0
   -4.7473    1.5567    1.6073 C   0  0  0  0  0  0  0  0  0  0  0  0
    1.3064   -1.8412    0.8208 C   0  0  0  0  0  0  0  0  0  0  0  0
    2.4923   -1.0971    0.8277 C   0  0  0  0  0  0  0  0  0  0  0  0
    4.1528    1.5980   -1.0779 O   0  0  0  0  0  0  0  0  0  0  0  0
    5.3771    2.1409   -0.8070 C   0  0  0  0  0  0  0  0  0  0  0  0
    5.8419    3.2155   -1.6990 C   0  0  0  0  0  0  0  0  0  0  0  0
    7.2437    2.7382    1.3698 H   0  0  0  0  0  0  0  0  0  0  0  0
    7.2759    1.0327    1.8486 H   0  0  0  0  0  0  0  0  0  0  0  0
    8.0126    1.5321    0.3166 H   0  0  0  0  0  0  0  0  0  0  0  0
    1.9179    0.8382   -1.9077 H   0  0  0  0  0  0  0  0  0  0  0  0
   -0.1514   -0.4671   -1.9245 H   0  0  0  0  0  0  0  0  0  0  0  0
   -0.2431   -3.5482   -1.8759 H   0  0  0  0  0  0  0  0  0  0  0  0
   -2.2814   -4.9077   -2.0738 H   0  0  0  0  0  0  0  0  0  0  0  0
   -4.1683   -4.5733   -0.4985 H   0  0  0  0  0  0  0  0  0  0  0  0
   -4.0087   -2.8760    1.2752 H   0  0  0  0  0  0  0  0  0  0  0  0
   -0.7937    0.5990    1.0009 H   0  0  0  0  0  0  0  0  0  0  0  0
   -6.6156    1.2387   -0.8930 H   0  0  0  0  0  0  0  0  0  0  0  0
   -5.9499    2.8364   -1.2885 H   0  0  0  0  0  0  0  0  0  0  0  0
   -5.9673    1.5512   -2.5094 H   0  0  0  0  0  0  0  0  0  0  0  0
   -4.0632    1.7513    2.4391 H   0  0  0  0  0  0  0  0  0  0  0  0
   -5.3585    2.4547    1.4695 H   0  0  0  0  0  0  0  0  0  0  0  0
   -5.4112    0.7334    1.8886 H   0  0  0  0  0  0  0  0  0  0  0  0
    1.1597   -2.5981    1.5906 H   0  0  0  0  0  0  0  0  0  0  0  0
    3.2331   -1.2903    1.6031 H   0  0  0  0  0  0  0  0  0  0  0  0
    6.8288    3.5805   -1.3988 H   0  0  0  0  0  0  0  0  0  0  0  0
    5.9123    2.8541   -2.7294 H   0  0  0  0  0  0  0  0  0  0  0  0
    5.1461    4.0597   -1.6763 H   0  0  0  0  0  0  0  0  0  0  0  0
  1  2  1  0
  2  3  1  0
  3  4  2  0
  4  5  1  0
  5  6  2  0
  6  7  1  0
  7  8  2  0
  8  9  1  0
  9 10  2  0
 10 11  1  0
 11 12  2  0
 12 13  1  0
 13 14  2  0
 14 15  1  0
 15 16  2  0
 15 17  2  0
 15 18  1  0
 18 19  1  0
 19 20  1  0
 20 21  1  0
 21 22  2  0
 22 23  1  0
 22 24  1  0
 24 25  1  0
  8 26  1  0
 26 27  2  0
  4 28  1  0
 28 29  1  0
 29 30  1  0
 29  2  2  0
 27  5  1  0
 14  9  1  0
 24 19  2  0
  1 31  1  0
  1 32  1  0
  1 33  1  0
  6 34  1  0
  7 35  1  0
 10 36  1  0
 11 37  1  0
 12 38  1  0
 13 39  1  0
 18 40  1  0
 23 41  1  0
 23 42  1  0
 23 43  1  0
 25 44  1  0
 25 45  1  0
 25 46  1  0
 26 47  1  0
 27 48  1  0
 30 49  1  0
 30 50  1  0
 30 51  1  0
M  END
$$$$
