
     RDKit          3D

 57 58  0  0  0  0  0  0  0  0999 V2000
    2.7284    4.0493   -2.7524 C   0  0  0  0  0  0  0  0  0  0  0  0
    1.2651    4.1708   -2.3544 C   0  0  0  0  0  0  0  0  0  0  0  0
    0.8041    3.0714   -1.3955 C   0  0  0  0  0  0  0  0  0  0  0  0
    0.7876    1.6811   -2.0367 C   0  0  0  0  0  0  0  0  0  0  0  0
    0.2802    0.6336   -1.0727 C   0  0  0  0  0  0  0  0  0  0  0  0
   -1.0616    0.4240   -1.1192 N   0  0  0  0  0  0  0  0  0  0  0  0
   -1.6261   -0.4508   -0.2442 C   0  0  0  0  0  0  0  0  0  0  0  0
   -3.0826   -0.6076   -0.4112 C   0  0  0  0  0  0  0  0  0  0  0  0
   -3.9239    0.5186   -0.3909 C   0  0  0  0  0  0  0  0  0  0  0  0
   -5.3073    0.3904   -0.5385 C   0  0  0  0  0  0  0  0  0  0  0  0
   -5.8743   -0.8684   -0.7179 C   0  0  0  0  0  0  0  0  0  0  0  0
   -5.0592   -1.9967   -0.7575 C   0  0  0  0  0  0  0  0  0  0  0  0
   -3.6752   -1.8669   -0.6107 C   0  0  0  0  0  0  0  0  0  0  0  0
   -0.8617   -1.1103    0.7235 C   0  0  0  0  0  0  0  0  0  0  0  0
   -1.5408   -1.9728    1.6999 C   0  0  0  0  0  0  0  0  0  0  0  0
   -1.5076   -3.1897    1.6786 O   0  0  0  0  0  0  0  0  0  0  0  0
   -2.1537   -1.1755    2.6055 O   0  0  0  0  0  0  0  0  0  0  0  0
   -2.8954   -1.8890    3.6010 C   0  0  0  0  0  0  0  0  0  0  0  0
   -3.5949   -0.8752    4.4847 C   0  0  0  0  0  0  0  0  0  0  0  0
    0.5345   -0.9145    0.7854 C   0  0  0  0  0  0  0  0  0  0  0  0
    1.3749   -1.6163    1.8324 C   0  0  0  0  0  0  0  0  0  0  0  0
    1.8434   -2.9953    1.3892 C   0  0  0  0  0  0  0  0  0  0  0  0
    1.1038   -0.0324   -0.1565 C   0  0  0  0  0  0  0  0  0  0  0  0
    2.5466    0.2625   -0.1363 C   0  0  0  0  0  0  0  0  0  0  0  0
    3.0029    1.1007    0.6272 O   0  0  0  0  0  0  0  0  0  0  0  0
    3.5284   -0.6687   -1.2541 S   0  0  0  0  0  0  0  0  0  0  0  0
    5.1434    0.0952   -0.9293 C   0  0  0  0  0  0  0  0  0  0  0  0
    6.2041   -0.5376   -1.8122 C   0  0  0  0  0  0  0  0  0  0  0  0
    2.9091    3.1533   -3.3531 H   0  0  0  0  0  0  0  0  0  0  0  0
    3.0271    4.9150   -3.3522 H   0  0  0  0  0  0  0  0  0  0  0  0
    3.3742    4.0099   -1.8694 H   0  0  0  0  0  0  0  0  0  0  0  0
    0.6391    4.1709   -3.2542 H   0  0  0  0  0  0  0  0  0  0  0  0
    1.1180    5.1414   -1.8656 H   0  0  0  0  0  0  0  0  0  0  0  0
    1.4427    3.0758   -0.5042 H   0  0  0  0  0  0  0  0  0  0  0  0
   -0.2074    3.3193   -1.0482 H   0  0  0  0  0  0  0  0  0  0  0  0
    0.1255    1.6966   -2.9124 H   0  0  0  0  0  0  0  0  0  0  0  0
    1.7727    1.4060   -2.4206 H   0  0  0  0  0  0  0  0  0  0  0  0
   -3.4951    1.5108   -0.2591 H   0  0  0  0  0  0  0  0  0  0  0  0
   -5.9385    1.2749   -0.5176 H   0  0  0  0  0  0  0  0  0  0  0  0
   -6.9500   -0.9693   -0.8356 H   0  0  0  0  0  0  0  0  0  0  0  0
   -5.4977   -2.9799   -0.9084 H   0  0  0  0  0  0  0  0  0  0  0  0
   -3.0615   -2.7650   -0.6623 H   0  0  0  0  0  0  0  0  0  0  0  0
   -3.6386   -2.5353    3.1203 H   0  0  0  0  0  0  0  0  0  0  0  0
   -2.2108   -2.4975    4.2022 H   0  0  0  0  0  0  0  0  0  0  0  0
   -2.8665   -0.2078    4.9571 H   0  0  0  0  0  0  0  0  0  0  0  0
   -4.1764   -1.3732    5.2655 H   0  0  0  0  0  0  0  0  0  0  0  0
   -4.2658   -0.2452    3.8911 H   0  0  0  0  0  0  0  0  0  0  0  0
    0.8101   -1.7048    2.7682 H   0  0  0  0  0  0  0  0  0  0  0  0
    2.2451   -1.0065    2.0993 H   0  0  0  0  0  0  0  0  0  0  0  0
    1.0029   -3.6573    1.1623 H   0  0  0  0  0  0  0  0  0  0  0  0
    2.4684   -2.9415    0.4940 H   0  0  0  0  0  0  0  0  0  0  0  0
    2.4347   -3.4634    2.1829 H   0  0  0  0  0  0  0  0  0  0  0  0
    5.0867    1.1692   -1.1343 H   0  0  0  0  0  0  0  0  0  0  0  0
    5.4087   -0.0449    0.1234 H   0  0  0  0  0  0  0  0  0  0  0  0
    6.3027   -1.6109   -1.6167 H   0  0  0  0  0  0  0  0  0  0  0  0
    7.1769   -0.0751   -1.6145 H   0  0  0  0  0  0  0  0  0  0  0  0
    5.9806   -0.3954   -2.8750 H   0  0  0  0  0  0  0  0  0  0  0  0
  1  2  1  0
  2  3  1  0
  3  4  1  0
  4  5  1  0
  5  6  2  0
  6  7  1  0
  7  8  1  0
  8  9  2  0
  9 10  1  0
 10 11  2  0
 11 12  1  0
 12 13  2  0
  7 14  2  0
 14 15  1  0
 15 16  2  0
 15 17  1  0
 17 18  1  0
 18 19  1  0
 14 20  1  0
 20 21  1  0
 21 22  1  0
 20 23  2  0
 23 24  1  0
 24 25  2  0
 24 26  1  0
 26 27  1  0
 27 28  1  0
 23  5  1  0
 13  8  1  0
  1 29  1  0
  1 30  1  0
  1 31  1  0
  2 32  1  0
  2 33  1  0
  3 34  1  0
  3 35  1  0
  4 36  1  0
  4 37  1  0
  9 38  1  0
 10 39  1  0
 11 40  1  0
 12 41  1  0
 13 42  1  0
 18 43  1  0
 18 44  1  0
 19 45  1  0
 19 46  1  0
 19 47  1  0
 21 48  1  0
 21 49  1  0
 22 50  1  0
 22 51  1  0
 22 52  1  0
 27 53  1  0
 27 54  1  0
 28 55  1  0
 28 56  1  0
 28 57  1  0
M  END
$$$$
