
     RDKit          3D

 85 90  0  0  0  0  0  0  0  0999 V2000
    4.5483    2.0803    3.6940 C   0  0  0  0  0  0  0  0  0  0  0  0
    3.2419    1.5640    3.1484 C   0  0  0  0  0  0  0  0  0  0  0  0
    2.0503    2.0017    3.7523 C   0  0  0  0  0  0  0  0  0  0  0  0
    0.8065    1.5680    3.2920 C   0  0  0  0  0  0  0  0  0  0  0  0
    0.7353    0.6855    2.2216 C   0  0  0  0  0  0  0  0  0  0  0  0
   -0.4688    0.2010    1.6809 N   0  0  0  0  0  0  0  0  0  0  0  0
   -1.7556    0.5324    2.0307 C   0  0  0  0  0  0  0  0  0  0  0  0
   -2.1264    1.3429    2.8718 O   0  0  0  0  0  0  0  0  0  0  0  0
   -2.7586   -0.1474    1.1917 C   0  0  0  0  0  0  0  0  0  0  0  0
   -4.1608   -0.0860    1.3474 C   0  0  0  0  0  0  0  0  0  0  0  0
   -4.6885   -0.6404    0.1945 C   0  0  0  0  0  0  0  0  0  0  0  0
   -6.0684   -0.5593   -0.3287 C   0  0  0  0  0  0  0  0  0  0  0  0
   -6.4355    0.8462   -0.8334 N   0  0  0  0  0  0  0  0  0  0  0  0
   -6.5738    1.9109    0.2620 C   0  0  0  0  0  0  0  0  0  0  0  0
   -5.4111    2.9348    0.2671 C   0  0  0  0  0  0  0  0  0  0  0  0
   -5.2275    3.6197   -1.0890 N   0  0  0  0  0  0  0  0  0  0  0  0
   -5.7468    5.0412   -1.1082 C   0  0  0  0  0  0  0  0  0  0  0  0
   -5.7259    2.8137   -2.2849 C   0  0  0  0  0  0  0  0  0  0  0  0
   -5.6011    1.2928   -2.0384 C   0  0  0  0  0  0  0  0  0  0  0  0
   -3.6233   -1.3388   -0.3579 N   0  0  0  0  0  0  0  0  0  0  0  0
   -3.5872   -2.4556   -1.3325 C   0  0  0  0  0  0  0  0  0  0  0  0
   -4.5712   -3.5683   -0.9196 C   0  0  0  0  0  0  0  0  0  0  0  0
   -3.9064   -1.9449   -2.7471 C   0  0  0  0  0  0  0  0  0  0  0  0
   -2.1811   -3.1115   -1.3823 C   0  0  0  0  0  0  0  0  0  0  0  0
   -2.4514   -0.8252    0.0759 N   0  0  0  0  0  0  0  0  0  0  0  0
    1.9231    0.2385    1.6253 C   0  0  0  0  0  0  0  0  0  0  0  0
    3.1899    0.6583    2.0641 C   0  0  0  0  0  0  0  0  0  0  0  0
    4.3842    0.2284    1.4473 N   0  0  0  0  0  0  0  0  0  0  0  0
    4.5695   -0.4984    0.3130 C   0  0  0  0  0  0  0  0  0  0  0  0
    3.6596   -0.9465   -0.5268 N   0  0  0  0  0  0  0  0  0  0  0  0
    4.3402   -1.5606   -1.5358 C   0  0  0  0  0  0  0  0  0  0  0  0
    3.8213   -2.1619   -2.6944 C   0  0  0  0  0  0  0  0  0  0  0  0
    4.7028   -2.6702   -3.6512 C   0  0  0  0  0  0  0  0  0  0  0  0
    6.0776   -2.5624   -3.4668 C   0  0  0  0  0  0  0  0  0  0  0  0
    6.6112   -1.9733   -2.3136 C   0  0  0  0  0  0  0  0  0  0  0  0
    5.7170   -1.5113   -1.3294 C   0  0  0  0  0  0  0  0  0  0  0  0
    5.8585   -0.9046   -0.0808 N   0  0  0  0  0  0  0  0  0  0  0  0
    7.0558   -0.7130    0.6892 C   0  0  0  0  0  0  0  0  0  0  0  0
    8.1659   -1.5076    0.4781 C   0  0  0  0  0  0  0  0  0  0  0  0
    9.2744   -1.2540    1.2577 C   0  0  0  0  0  0  0  0  0  0  0  0
   10.4390   -1.9705    1.0832 N   0  0  0  0  0  0  0  0  0  0  0  0
    9.3064   -0.2782    2.1681 N   0  0  0  0  0  0  0  0  0  0  0  0
    8.1802    0.4197    2.3320 C   0  0  0  0  0  0  0  0  0  0  0  0
    7.0367    0.2418    1.6535 N   0  0  0  0  0  0  0  0  0  0  0  0
    4.3918    2.8031    4.5019 H   0  0  0  0  0  0  0  0  0  0  0  0
    5.1148    2.5899    2.9079 H   0  0  0  0  0  0  0  0  0  0  0  0
    5.1412    1.2550    4.1011 H   0  0  0  0  0  0  0  0  0  0  0  0
    2.0851    2.6897    4.5955 H   0  0  0  0  0  0  0  0  0  0  0  0
   -0.0786    1.9327    3.8015 H   0  0  0  0  0  0  0  0  0  0  0  0
   -0.3905   -0.4667    0.9166 H   0  0  0  0  0  0  0  0  0  0  0  0
   -4.6772    0.4288    2.1477 H   0  0  0  0  0  0  0  0  0  0  0  0
   -6.2611   -1.2207   -1.1728 H   0  0  0  0  0  0  0  0  0  0  0  0
   -6.7987   -0.8038    0.4508 H   0  0  0  0  0  0  0  0  0  0  0  0
   -7.3959    0.7064   -1.1831 H   0  0  0  0  0  0  0  0  0  0  0  0
   -6.6831    1.4070    1.2263 H   0  0  0  0  0  0  0  0  0  0  0  0
   -7.5153    2.4295    0.0466 H   0  0  0  0  0  0  0  0  0  0  0  0
   -4.4547    2.4512    0.4770 H   0  0  0  0  0  0  0  0  0  0  0  0
   -5.5746    3.7109    1.0215 H   0  0  0  0  0  0  0  0  0  0  0  0
   -4.2044    3.7286   -1.2037 H   0  0  0  0  0  0  0  0  0  0  0  0
   -6.8243    5.0142   -0.9277 H   0  0  0  0  0  0  0  0  0  0  0  0
   -5.2276    5.5992   -0.3249 H   0  0  0  0  0  0  0  0  0  0  0  0
   -5.5195    5.4679   -2.0884 H   0  0  0  0  0  0  0  0  0  0  0  0
   -6.7750    3.0854   -2.4475 H   0  0  0  0  0  0  0  0  0  0  0  0
   -5.1289    3.1265   -3.1471 H   0  0  0  0  0  0  0  0  0  0  0  0
   -4.5555    1.0389   -1.8438 H   0  0  0  0  0  0  0  0  0  0  0  0
   -5.9651    0.7236   -2.8989 H   0  0  0  0  0  0  0  0  0  0  0  0
   -5.6146   -3.2465   -0.9567 H   0  0  0  0  0  0  0  0  0  0  0  0
   -4.3712   -3.9101    0.1028 H   0  0  0  0  0  0  0  0  0  0  0  0
   -4.4858   -4.4360   -1.5842 H   0  0  0  0  0  0  0  0  0  0  0  0
   -3.2370   -1.1247   -3.0314 H   0  0  0  0  0  0  0  0  0  0  0  0
   -3.7910   -2.7430   -3.4896 H   0  0  0  0  0  0  0  0  0  0  0  0
   -4.9309   -1.5759   -2.8349 H   0  0  0  0  0  0  0  0  0  0  0  0
   -1.8761   -3.4779   -0.3948 H   0  0  0  0  0  0  0  0  0  0  0  0
   -2.1671   -3.9656   -2.0697 H   0  0  0  0  0  0  0  0  0  0  0  0
   -1.4165   -2.4066   -1.7299 H   0  0  0  0  0  0  0  0  0  0  0  0
    1.8560   -0.4627    0.7997 H   0  0  0  0  0  0  0  0  0  0  0  0
    5.2346    0.5136    1.9348 H   0  0  0  0  0  0  0  0  0  0  0  0
    2.7489   -2.2100   -2.8450 H   0  0  0  0  0  0  0  0  0  0  0  0
    4.3128   -3.1314   -4.5554 H   0  0  0  0  0  0  0  0  0  0  0  0
    6.7523   -2.9333   -4.2372 H   0  0  0  0  0  0  0  0  0  0  0  0
    7.6872   -1.8644   -2.2287 H   0  0  0  0  0  0  0  0  0  0  0  0
    8.1911   -2.3307   -0.2186 H   0  0  0  0  0  0  0  0  0  0  0  0
   10.3909   -2.9576    0.8791 H   0  0  0  0  0  0  0  0  0  0  0  0
   11.1924   -1.6678    1.6906 H   0  0  0  0  0  0  0  0  0  0  0  0
    8.1951    1.2010    3.0845 H   0  0  0  0  0  0  0  0  0  0  0  0
  1  2  1  0
  2  3  2  0
  3  4  1  0
  4  5  2  0
  5  6  1  0
  6  7  1  0
  7  8  2  0
  7  9  1  0
  9 10  1  0
 10 11  2  0
 11 12  1  0
 12 13  1  0
 13 14  1  0
 14 15  1  0
 15 16  1  0
 16 17  1  0
 16 18  1  0
 18 19  1  0
 11 20  1  0
 20 21  1  0
 21 22  1  0
 21 23  1  0
 21 24  1  0
 20 25  1  0
  5 26  1  0
 26 27  2  0
 27 28  1  0
 28 29  1  0
 29 30  2  0
 30 31  1  0
 31 32  2  0
 32 33  1  0
 33 34  2  0
 34 35  1  0
 35 36  2  0
 36 37  1  0
 37 38  1  0
 38 39  2  0
 39 40  1  0
 40 41  1  0
 40 42  2  0
 42 43  1  0
 43 44  2  0
 27  2  1  0
 37 29  1  0
 44 38  1  0
 25  9  2  0
 36 31  1  0
 19 13  1  0
  1 45  1  0
  1 46  1  0
  1 47  1  0
  3 48  1  0
  4 49  1  0
  6 50  1  0
 10 51  1  0
 12 52  1  0
 12 53  1  0
 13 54  1  0
 14 55  1  0
 14 56  1  0
 15 57  1  0
 15 58  1  0
 16 59  1  0
 17 60  1  0
 17 61  1  0
 17 62  1  0
 18 63  1  0
 18 64  1  0
 19 65  1  0
 19 66  1  0
 22 67  1  0
 22 68  1  0
 22 69  1  0
 23 70  1  0
 23 71  1  0
 23 72  1  0
 24 73  1  0
 24 74  1  0
 24 75  1  0
 26 76  1  0
 28 77  1  0
 32 78  1  0
 33 79  1  0
 34 80  1  0
 35 81  1  0
 39 82  1  0
 41 83  1  0
 41 84  1  0
 43 85  1  0
M  CHG  2  13   1  16   1
M  END
$$$$
