
     RDKit          3D

 54 57  0  0  0  0  0  0  0  0999 V2000
   -2.3964   -3.7916    3.2196 O   0  0  0  0  0  0  0  0  0  0  0  0
   -2.1534   -2.5927    3.3321 C   0  0  0  0  0  0  0  0  0  0  0  0
   -1.0240   -2.0633    4.2176 C   0  0  0  0  0  0  0  0  0  0  0  0
    0.1334   -1.8281    3.3576 N   0  0  0  0  0  0  0  0  0  0  0  0
    1.0661   -2.7932    3.0391 C   0  0  0  0  0  0  0  0  0  0  0  0
    0.9954   -4.3167    3.8318 Cl  0  0  0  0  0  0  0  0  0  0  0  0
    2.0211   -2.5509    2.1288 C   0  0  0  0  0  0  0  0  0  0  0  0
    2.1720   -1.3872    1.4159 N   0  0  0  0  0  0  0  0  0  0  0  0
    1.3217   -0.4296    1.6643 C   0  0  0  0  0  0  0  0  0  0  0  0
    1.3508    0.7659    0.9851 N   0  0  0  0  0  0  0  0  0  0  0  0
    2.0955    0.9720   -0.2529 C   0  0  0  0  0  0  0  0  0  0  0  0
    2.0411    2.4411   -0.7363 C   0  0  0  0  0  0  0  0  0  0  0  0
    0.7620    2.9059   -0.6059 F   0  0  0  0  0  0  0  0  0  0  0  0
    2.7569    3.1861    0.1713 F   0  0  0  0  0  0  0  0  0  0  0  0
    2.5767    2.6256   -2.1221 C   0  0  0  0  0  0  0  0  0  0  0  0
    3.7591    3.3385   -2.3928 C   0  0  0  0  0  0  0  0  0  0  0  0
    4.1986    3.4989   -3.7033 C   0  0  0  0  0  0  0  0  0  0  0  0
    3.4637    2.9566   -4.7479 C   0  0  0  0  0  0  0  0  0  0  0  0
    2.2940    2.2566   -4.4644 C   0  0  0  0  0  0  0  0  0  0  0  0
    1.8396    2.0830   -3.1636 N   0  0  0  0  0  0  0  0  0  0  0  0
    0.7763    1.4167   -2.9574 O   0  0  0  0  0  0  0  0  0  0  0  0
    0.2008   -0.5954    2.7191 C   0  0  0  0  0  0  0  0  0  0  0  0
   -0.5799    0.3369    2.8863 O   0  0  0  0  0  0  0  0  0  0  0  0
   -2.7847   -1.6173    2.5895 N   0  0  0  0  0  0  0  0  0  0  0  0
   -3.6297   -1.9352    1.4643 C   0  0  0  0  0  0  0  0  0  0  0  0
   -2.7985   -1.9886    0.1958 C   0  0  0  0  0  0  0  0  0  0  0  0
   -2.4463   -3.2821   -0.2531 C   0  0  0  0  0  0  0  0  0  0  0  0
   -1.6518   -3.4768   -1.3800 C   0  0  0  0  0  0  0  0  0  0  0  0
   -1.1818   -2.3802   -2.0849 C   0  0  0  0  0  0  0  0  0  0  0  0
   -1.4997   -1.0887   -1.6607 C   0  0  0  0  0  0  0  0  0  0  0  0
   -2.2999   -0.8686   -0.5194 C   0  0  0  0  0  0  0  0  0  0  0  0
   -2.5565    0.4801   -0.1335 N   0  0  0  0  0  0  0  0  0  0  0  0
   -2.1407    1.6519   -0.7265 C   0  0  0  0  0  0  0  0  0  0  0  0
   -2.6022    2.6794   -0.0503 N   0  0  0  0  0  0  0  0  0  0  0  0
   -3.3137    2.1488    0.9860 N   0  0  0  0  0  0  0  0  0  0  0  0
   -3.2940    0.8259    0.9463 N   0  0  0  0  0  0  0  0  0  0  0  0
   -0.8081   -2.7653    5.0269 H   0  0  0  0  0  0  0  0  0  0  0  0
   -1.3476   -1.1254    4.6839 H   0  0  0  0  0  0  0  0  0  0  0  0
    2.7496   -3.3233    1.8925 H   0  0  0  0  0  0  0  0  0  0  0  0
    0.6533    1.4676    1.2412 H   0  0  0  0  0  0  0  0  0  0  0  0
    1.6843    0.2878   -1.0005 H   0  0  0  0  0  0  0  0  0  0  0  0
    3.1450    0.6945   -0.0965 H   0  0  0  0  0  0  0  0  0  0  0  0
    4.3319    3.7774   -1.5764 H   0  0  0  0  0  0  0  0  0  0  0  0
    5.1125    4.0541   -3.9084 H   0  0  0  0  0  0  0  0  0  0  0  0
    3.7925    3.0769   -5.7769 H   0  0  0  0  0  0  0  0  0  0  0  0
    1.6561    1.7994   -5.2063 H   0  0  0  0  0  0  0  0  0  0  0  0
   -2.5275   -0.6387    2.7137 H   0  0  0  0  0  0  0  0  0  0  0  0
   -4.4440   -1.2100    1.3919 H   0  0  0  0  0  0  0  0  0  0  0  0
   -4.1197   -2.9003    1.6425 H   0  0  0  0  0  0  0  0  0  0  0  0
   -2.7831   -4.1600    0.3002 H   0  0  0  0  0  0  0  0  0  0  0  0
   -1.3957   -4.4844   -1.6971 H   0  0  0  0  0  0  0  0  0  0  0  0
   -0.5567   -2.5234   -2.9631 H   0  0  0  0  0  0  0  0  0  0  0  0
   -1.0882   -0.2741   -2.2522 H   0  0  0  0  0  0  0  0  0  0  0  0
   -1.5260    1.7107   -1.6108 H   0  0  0  0  0  0  0  0  0  0  0  0
  1  2  2  0
  2  3  1  0
  3  4  1  0
  4  5  1  0
  5  6  1  0
  5  7  2  0
  7  8  1  0
  8  9  2  0
  9 10  1  0
 10 11  1  0
 11 12  1  0
 12 13  1  0
 12 14  1  0
 12 15  1  0
 15 16  2  0
 16 17  1  0
 17 18  2  0
 18 19  1  0
 19 20  2  0
 20 21  1  0
  9 22  1  0
 22 23  2  0
  2 24  1  0
 24 25  1  0
 25 26  1  0
 26 27  2  0
 27 28  1  0
 28 29  2  0
 29 30  1  0
 30 31  2  0
 31 32  1  0
 32 33  1  0
 33 34  2  0
 34 35  1  0
 35 36  2  0
 22  4  1  0
 31 26  1  0
 36 32  1  0
 20 15  1  0
  3 37  1  0
  3 38  1  0
  7 39  1  0
 10 40  1  0
 11 41  1  0
 11 42  1  0
 16 43  1  0
 17 44  1  0
 18 45  1  0
 19 46  1  0
 24 47  1  0
 25 48  1  0
 25 49  1  0
 27 50  1  0
 28 51  1  0
 29 52  1  0
 30 53  1  0
 33 54  1  0
M  CHG  2  20   1  21  -1
M  END
$$$$
