
     RDKit          3D

 61 62  0  0  0  0  0  0  0  0999 V2000
   -4.9611    3.2886    0.0395 C   0  0  0  0  0  0  0  0  0  0  0  0
   -3.7278    3.9879    0.2191 O   0  0  0  0  0  0  0  0  0  0  0  0
   -2.7990    3.2972    0.9352 C   0  0  0  0  0  0  0  0  0  0  0  0
   -2.9719    2.1945    1.4366 O   0  0  0  0  0  0  0  0  0  0  0  0
   -1.5166    4.0941    1.0281 C   0  0  0  0  0  0  0  0  0  0  0  0
   -0.2840    3.1977    0.9113 C   0  0  0  0  0  0  0  0  0  0  0  0
   -0.1381    2.6111   -0.4963 C   0  0  0  0  0  0  0  0  0  0  0  0
    0.9436    1.5635   -0.5644 C   0  0  0  0  0  0  0  0  0  0  0  0
    0.8125    0.2350   -0.3458 C   0  0  0  0  0  0  0  0  0  0  0  0
    2.0276   -0.6110   -0.4539 C   0  0  0  0  0  0  0  0  0  0  0  0
    2.0128   -1.7550   -1.2633 C   0  0  0  0  0  0  0  0  0  0  0  0
    3.1473   -2.5666   -1.3709 C   0  0  0  0  0  0  0  0  0  0  0  0
    3.0584   -3.9578   -2.3913 Cl  0  0  0  0  0  0  0  0  0  0  0  0
    4.3166   -2.2476   -0.6715 C   0  0  0  0  0  0  0  0  0  0  0  0
    5.4297   -3.0393   -0.7893 O   0  0  0  0  0  0  0  0  0  0  0  0
    6.2884   -2.5533   -1.8240 C   0  0  0  0  0  0  0  0  0  0  0  0
    4.3136   -1.1430    0.1865 C   0  0  0  0  0  0  0  0  0  0  0  0
    5.4879   -0.7723    0.9934 C   0  0  0  0  0  0  0  0  0  0  0  0
    6.0337    0.3101    0.8230 O   0  0  0  0  0  0  0  0  0  0  0  0
    5.9640   -1.9053    2.2449 S   0  0  0  0  0  0  0  0  0  0  0  0
    7.4626   -1.0858    2.8273 C   0  0  0  0  0  0  0  0  0  0  0  0
    3.1854   -0.3151    0.2775 C   0  0  0  0  0  0  0  0  0  0  0  0
   -0.5070   -0.3196    0.0332 C   0  0  0  0  0  0  0  0  0  0  0  0
   -0.7340   -0.7157    1.3572 C   0  0  0  0  0  0  0  0  0  0  0  0
   -1.9871   -1.1972    1.7488 C   0  0  0  0  0  0  0  0  0  0  0  0
   -2.1776   -1.7148    3.3862 Cl  0  0  0  0  0  0  0  0  0  0  0  0
   -3.0356   -1.2710    0.8249 C   0  0  0  0  0  0  0  0  0  0  0  0
   -4.2661   -1.7586    1.1855 O   0  0  0  0  0  0  0  0  0  0  0  0
   -5.0734   -0.7123    1.7354 C   0  0  0  0  0  0  0  0  0  0  0  0
   -2.7888   -0.9311   -0.5099 C   0  0  0  0  0  0  0  0  0  0  0  0
   -3.8585   -1.0387   -1.5157 C   0  0  0  0  0  0  0  0  0  0  0  0
   -4.8102   -0.2705   -1.5232 O   0  0  0  0  0  0  0  0  0  0  0  0
   -3.6320   -2.3044   -2.7134 S   0  0  0  0  0  0  0  0  0  0  0  0
   -5.2619   -2.2595   -3.4887 C   0  0  0  0  0  0  0  0  0  0  0  0
   -1.5331   -0.4526   -0.9080 C   0  0  0  0  0  0  0  0  0  0  0  0
   -5.6347    3.9315   -0.5336 H   0  0  0  0  0  0  0  0  0  0  0  0
   -4.7964    2.3671   -0.5262 H   0  0  0  0  0  0  0  0  0  0  0  0
   -5.4260    3.0737    1.0068 H   0  0  0  0  0  0  0  0  0  0  0  0
   -1.4931    4.8545    0.2391 H   0  0  0  0  0  0  0  0  0  0  0  0
   -1.5200    4.6113    1.9935 H   0  0  0  0  0  0  0  0  0  0  0  0
    0.6097    3.7877    1.1497 H   0  0  0  0  0  0  0  0  0  0  0  0
   -0.3400    2.3964    1.6580 H   0  0  0  0  0  0  0  0  0  0  0  0
    0.1155    3.4137   -1.2007 H   0  0  0  0  0  0  0  0  0  0  0  0
   -1.0908    2.2102   -0.8534 H   0  0  0  0  0  0  0  0  0  0  0  0
    1.9221    1.9652   -0.8297 H   0  0  0  0  0  0  0  0  0  0  0  0
    1.1167   -2.0157   -1.8232 H   0  0  0  0  0  0  0  0  0  0  0  0
    5.7739   -2.5152   -2.7901 H   0  0  0  0  0  0  0  0  0  0  0  0
    7.1285   -3.2483   -1.9142 H   0  0  0  0  0  0  0  0  0  0  0  0
    6.6905   -1.5665   -1.5718 H   0  0  0  0  0  0  0  0  0  0  0  0
    7.2285   -0.0985    3.2348 H   0  0  0  0  0  0  0  0  0  0  0  0
    8.1855   -0.9824    2.0134 H   0  0  0  0  0  0  0  0  0  0  0  0
    7.9173   -1.6870    3.6192 H   0  0  0  0  0  0  0  0  0  0  0  0
    3.2116    0.5519    0.9365 H   0  0  0  0  0  0  0  0  0  0  0  0
    0.0648   -0.6382    2.0919 H   0  0  0  0  0  0  0  0  0  0  0  0
   -6.0873   -1.1052    1.8570 H   0  0  0  0  0  0  0  0  0  0  0  0
   -4.7103   -0.4068    2.7213 H   0  0  0  0  0  0  0  0  0  0  0  0
   -5.1258    0.1565    1.0714 H   0  0  0  0  0  0  0  0  0  0  0  0
   -5.3141   -3.0308   -4.2618 H   0  0  0  0  0  0  0  0  0  0  0  0
   -6.0444   -2.4557   -2.7506 H   0  0  0  0  0  0  0  0  0  0  0  0
   -5.4386   -1.2879   -3.9582 H   0  0  0  0  0  0  0  0  0  0  0  0
   -1.3631   -0.1629   -1.9431 H   0  0  0  0  0  0  0  0  0  0  0  0
  1  2  1  0
  2  3  1  0
  3  4  2  0
  3  5  1  0
  5  6  1  0
  6  7  1  0
  7  8  1  0
  8  9  2  3
  9 10  1  0
 10 11  2  0
 11 12  1  0
 12 13  1  0
 12 14  2  0
 14 15  1  0
 15 16  1  0
 14 17  1  0
 17 18  1  0
 18 19  2  0
 18 20  1  0
 20 21  1  0
 17 22  2  0
  9 23  1  0
 23 24  2  0
 24 25  1  0
 25 26  1  0
 25 27  2  0
 27 28  1  0
 28 29  1  0
 27 30  1  0
 30 31  1  0
 31 32  2  0
 31 33  1  0
 33 34  1  0
 30 35  2  0
 22 10  1  0
 35 23  1  0
  1 36  1  0
  1 37  1  0
  1 38  1  0
  5 39  1  0
  5 40  1  0
  6 41  1  0
  6 42  1  0
  7 43  1  0
  7 44  1  0
  8 45  1  0
 11 46  1  0
 16 47  1  0
 16 48  1  0
 16 49  1  0
 21 50  1  0
 21 51  1  0
 21 52  1  0
 22 53  1  0
 24 54  1  0
 29 55  1  0
 29 56  1  0
 29 57  1  0
 34 58  1  0
 34 59  1  0
 34 60  1  0
 35 61  1  0
M  END
$$$$
