
     RDKit          3D

 59 62  0  0  0  0  0  0  0  0999 V2000
   -6.8947    1.9981   -0.5078 C   0  0  0  0  0  0  0  0  0  0  0  0
   -5.5940    2.5970    0.0295 C   0  0  0  0  0  0  0  0  0  0  0  0
   -5.8889    3.4377    1.2741 C   0  0  0  0  0  0  0  0  0  0  0  0
   -4.5485    1.5181    0.3642 C   0  0  0  0  0  0  0  0  0  0  0  0
   -4.0667    0.7358   -0.8637 C   0  0  0  0  0  0  0  0  0  0  0  0
   -2.9994   -0.2077   -0.5261 N   0  0  0  0  0  0  0  0  0  0  0  0
   -1.6947    0.2140   -0.6634 C   0  0  0  0  0  0  0  0  0  0  0  0
   -1.3677    1.3491   -1.0346 O   0  0  0  0  0  0  0  0  0  0  0  0
   -0.6009   -0.7396   -0.3487 C   0  0  0  0  0  0  0  0  0  0  0  0
    0.8910   -0.1983   -0.5687 C   0  0  0  0  0  0  0  0  0  0  0  0
    1.0773    1.0357   -0.9498 N   0  0  0  0  0  0  0  0  0  0  0  0
    2.5057    1.6872   -1.1608 S   0  0  0  0  0  0  0  0  0  0  0  0
    2.7224    2.0089   -2.5552 O   0  0  0  0  0  0  0  0  0  0  0  0
    2.7618    2.6874   -0.1431 O   0  0  0  0  0  0  0  0  0  0  0  0
    3.6665    0.4215   -0.8076 C   0  0  0  0  0  0  0  0  0  0  0  0
    5.0450    0.6805   -0.8802 C   0  0  0  0  0  0  0  0  0  0  0  0
    5.9585   -0.3381   -0.5787 C   0  0  0  0  0  0  0  0  0  0  0  0
    7.4479   -0.0894   -0.6512 C   0  0  0  0  0  0  0  0  0  0  0  0
    7.9906    0.7328    0.5217 C   0  0  0  0  0  0  0  0  0  0  0  0
    7.8319    0.0022    1.8077 N   0  0  0  0  0  0  0  0  0  0  0  0
    5.4613   -1.5990   -0.2222 C   0  0  0  0  0  0  0  0  0  0  0  0
    4.0800   -1.8247   -0.1501 C   0  0  0  0  0  0  0  0  0  0  0  0
    3.1653   -0.8083   -0.4390 C   0  0  0  0  0  0  0  0  0  0  0  0
    1.8549   -1.0637   -0.3317 N   0  0  0  0  0  0  0  0  0  0  0  0
   -0.7844   -2.0034    0.1112 C   0  0  0  0  0  0  0  0  0  0  0  0
    0.1574   -2.8139    0.3883 O   0  0  0  0  0  0  0  0  0  0  0  0
   -2.2328   -2.3918    0.2794 C   0  0  0  0  0  0  0  0  0  0  0  0
   -2.5533   -3.6796    0.7651 C   0  0  0  0  0  0  0  0  0  0  0  0
   -3.8721   -4.0945    0.9441 C   0  0  0  0  0  0  0  0  0  0  0  0
   -4.9074   -3.2257    0.6415 C   0  0  0  0  0  0  0  0  0  0  0  0
   -4.6206   -1.9475    0.1587 C   0  0  0  0  0  0  0  0  0  0  0  0
   -3.2931   -1.5144   -0.0317 C   0  0  0  0  0  0  0  0  0  0  0  0
   -7.3155    1.2694    0.1933 H   0  0  0  0  0  0  0  0  0  0  0  0
   -6.7371    1.4967   -1.4672 H   0  0  0  0  0  0  0  0  0  0  0  0
   -7.6437    2.7806   -0.6714 H   0  0  0  0  0  0  0  0  0  0  0  0
   -5.1799    3.2649   -0.7364 H   0  0  0  0  0  0  0  0  0  0  0  0
   -6.3100    2.8241    2.0779 H   0  0  0  0  0  0  0  0  0  0  0  0
   -6.6045    4.2346    1.0454 H   0  0  0  0  0  0  0  0  0  0  0  0
   -4.9753    3.9098    1.6506 H   0  0  0  0  0  0  0  0  0  0  0  0
   -4.9554    0.8295    1.1149 H   0  0  0  0  0  0  0  0  0  0  0  0
   -3.6802    1.9980    0.8349 H   0  0  0  0  0  0  0  0  0  0  0  0
   -3.6832    1.4520   -1.6014 H   0  0  0  0  0  0  0  0  0  0  0  0
   -4.8769    0.2089   -1.3757 H   0  0  0  0  0  0  0  0  0  0  0  0
    0.2436    1.5947   -1.1083 H   0  0  0  0  0  0  0  0  0  0  0  0
    5.3864    1.6689   -1.1898 H   0  0  0  0  0  0  0  0  0  0  0  0
    7.9829   -1.0458   -0.7117 H   0  0  0  0  0  0  0  0  0  0  0  0
    7.6659    0.4356   -1.5899 H   0  0  0  0  0  0  0  0  0  0  0  0
    9.0616    0.9211    0.4023 H   0  0  0  0  0  0  0  0  0  0  0  0
    7.4669    1.6867    0.6368 H   0  0  0  0  0  0  0  0  0  0  0  0
    8.2020    0.5539    2.5942 H   0  0  0  0  0  0  0  0  0  0  0  0
    6.8429   -0.1924    2.0180 H   0  0  0  0  0  0  0  0  0  0  0  0
    8.3329   -0.8965    1.8078 H   0  0  0  0  0  0  0  0  0  0  0  0
    6.1306   -2.4351   -0.0193 H   0  0  0  0  0  0  0  0  0  0  0  0
    3.7121   -2.8147    0.1253 H   0  0  0  0  0  0  0  0  0  0  0  0
    1.4795   -1.9937   -0.0251 H   0  0  0  0  0  0  0  0  0  0  0  0
   -1.7551   -4.3784    1.0103 H   0  0  0  0  0  0  0  0  0  0  0  0
   -4.0795   -5.0926    1.3194 H   0  0  0  0  0  0  0  0  0  0  0  0
   -5.9388   -3.5384    0.7802 H   0  0  0  0  0  0  0  0  0  0  0  0
   -5.4705   -1.3081   -0.0535 H   0  0  0  0  0  0  0  0  0  0  0  0
  1  2  1  0
  2  3  1  0
  2  4  1  0
  4  5  1  0
  5  6  1  0
  6  7  1  0
  7  8  2  0
  7  9  1  0
  9 10  1  0
 10 11  2  0
 11 12  1  0
 12 13  2  0
 12 14  2  0
 12 15  1  0
 15 16  2  0
 16 17  1  0
 17 18  1  0
 18 19  1  0
 19 20  1  0
 17 21  2  0
 21 22  1  0
 22 23  2  0
 23 24  1  0
  9 25  2  0
 25 26  1  0
 25 27  1  0
 27 28  2  0
 28 29  1  0
 29 30  2  0
 30 31  1  0
 31 32  2  0
 32  6  1  0
 24 10  1  0
 32 27  1  0
 23 15  1  0
  1 33  1  0
  1 34  1  0
  1 35  1  0
  2 36  1  0
  3 37  1  0
  3 38  1  0
  3 39  1  0
  4 40  1  0
  4 41  1  0
  5 42  1  0
  5 43  1  0
 11 44  1  0
 16 45  1  0
 18 46  1  0
 18 47  1  0
 19 48  1  0
 19 49  1  0
 20 50  1  0
 20 51  1  0
 20 52  1  0
 21 53  1  0
 22 54  1  0
 24 55  1  0
 28 56  1  0
 29 57  1  0
 30 58  1  0
 31 59  1  0
M  CHG  3  11   1  20   1  26  -1
M  END
$$$$
