
     RDKit          3D

 44 46  0  0  0  0  0  0  0  0999 V2000
   -3.1055    2.5264   -3.4711 C   0  0  0  0  0  0  0  0  0  0  0  0
   -3.7748    2.1102   -2.1710 C   0  0  0  0  0  0  0  0  0  0  0  0
   -3.2923    0.7355   -1.7077 C   0  0  0  0  0  0  0  0  0  0  0  0
   -3.9696    0.3216   -0.3978 C   0  0  0  0  0  0  0  0  0  0  0  0
   -3.5284   -1.0657    0.0685 C   0  0  0  0  0  0  0  0  0  0  0  0
   -2.1299   -1.0311    0.3537 O   0  0  0  0  0  0  0  0  0  0  0  0
   -1.6044   -2.2454    0.7741 C   0  0  0  0  0  0  0  0  0  0  0  0
   -2.4411   -3.2942    0.9061 N   0  0  0  0  0  0  0  0  0  0  0  0
   -1.8885   -4.4290    1.3131 C   0  0  0  0  0  0  0  0  0  0  0  0
   -2.7015   -5.5121    1.4584 N   0  0  0  0  0  0  0  0  0  0  0  0
   -0.5993   -4.5841    1.5889 N   0  0  0  0  0  0  0  0  0  0  0  0
    0.2018   -3.5326    1.4503 C   0  0  0  0  0  0  0  0  0  0  0  0
    1.4978   -3.7155    1.7348 N   0  0  0  0  0  0  0  0  0  0  0  0
    2.3336   -2.6565    1.5999 C   0  0  0  0  0  0  0  0  0  0  0  0
    1.8926   -1.4194    1.1854 C   0  0  0  0  0  0  0  0  0  0  0  0
    2.7647   -0.3032    1.0408 C   0  0  0  0  0  0  0  0  0  0  0  0
    3.4966    0.6415    0.9167 C   0  0  0  0  0  0  0  0  0  0  0  0
    4.3567    1.7738    0.7642 C   0  0  0  0  0  0  0  0  0  0  0  0
    5.7153    1.6701    1.0719 C   0  0  0  0  0  0  0  0  0  0  0  0
    6.5519    2.7781    0.9216 C   0  0  0  0  0  0  0  0  0  0  0  0
    6.0316    3.9887    0.4641 C   0  0  0  0  0  0  0  0  0  0  0  0
    4.6752    4.0938    0.1564 C   0  0  0  0  0  0  0  0  0  0  0  0
    3.8374    2.9870    0.3062 C   0  0  0  0  0  0  0  0  0  0  0  0
    0.6002   -1.1985    0.8915 N   0  0  0  0  0  0  0  0  0  0  0  0
   -0.2419   -2.2713    1.0290 C   0  0  0  0  0  0  0  0  0  0  0  0
   -2.0187    2.5834   -3.3521 H   0  0  0  0  0  0  0  0  0  0  0  0
   -3.4651    3.5116   -3.7841 H   0  0  0  0  0  0  0  0  0  0  0  0
   -3.3268    1.8137   -4.2720 H   0  0  0  0  0  0  0  0  0  0  0  0
   -4.8614    2.0946   -2.3150 H   0  0  0  0  0  0  0  0  0  0  0  0
   -3.5602    2.8594   -1.4001 H   0  0  0  0  0  0  0  0  0  0  0  0
   -3.5081   -0.0097   -2.4830 H   0  0  0  0  0  0  0  0  0  0  0  0
   -2.2040    0.7578   -1.5754 H   0  0  0  0  0  0  0  0  0  0  0  0
   -3.7234    1.0582    0.3768 H   0  0  0  0  0  0  0  0  0  0  0  0
   -5.0581    0.3257   -0.5273 H   0  0  0  0  0  0  0  0  0  0  0  0
   -3.7429   -1.8006   -0.7175 H   0  0  0  0  0  0  0  0  0  0  0  0
   -4.0884   -1.3231    0.9760 H   0  0  0  0  0  0  0  0  0  0  0  0
   -3.6802   -5.4108    1.2549 H   0  0  0  0  0  0  0  0  0  0  0  0
   -2.2880   -6.3753    1.7677 H   0  0  0  0  0  0  0  0  0  0  0  0
    3.3740   -2.8463    1.8396 H   0  0  0  0  0  0  0  0  0  0  0  0
    6.1305    0.7312    1.4292 H   0  0  0  0  0  0  0  0  0  0  0  0
    7.6091    2.6970    1.1611 H   0  0  0  0  0  0  0  0  0  0  0  0
    6.6833    4.8510    0.3472 H   0  0  0  0  0  0  0  0  0  0  0  0
    4.2694    5.0371   -0.2000 H   0  0  0  0  0  0  0  0  0  0  0  0
    2.7808    3.0771    0.0643 H   0  0  0  0  0  0  0  0  0  0  0  0
  1  2  1  0
  2  3  1  0
  3  4  1  0
  4  5  1  0
  5  6  1  0
  6  7  1  0
  7  8  2  0
  8  9  1  0
  9 10  1  0
  9 11  2  0
 11 12  1  0
 12 13  2  0
 13 14  1  0
 14 15  2  0
 15 16  1  0
 16 17  3  0
 17 18  1  0
 18 19  2  0
 19 20  1  0
 20 21  2  0
 21 22  1  0
 22 23  2  0
 15 24  1  0
 24 25  2  0
 25  7  1  0
 25 12  1  0
 23 18  1  0
  1 26  1  0
  1 27  1  0
  1 28  1  0
  2 29  1  0
  2 30  1  0
  3 31  1  0
  3 32  1  0
  4 33  1  0
  4 34  1  0
  5 35  1  0
  5 36  1  0
 10 37  1  0
 10 38  1  0
 14 39  1  0
 19 40  1  0
 20 41  1  0
 21 42  1  0
 22 43  1  0
 23 44  1  0
M  END
$$$$
