
     RDKit          3D

 84 90  0  0  0  0  0  0  0  0999 V2000
   -1.7507   -3.0104    4.4265 N   0  0  0  0  0  0  0  0  0  0  0  0
   -1.7525   -3.4617    3.1140 C   0  0  0  0  0  0  0  0  0  0  0  0
   -2.4902   -4.5868    2.7523 C   0  0  0  0  0  0  0  0  0  0  0  0
   -2.5309   -5.0075    1.4246 C   0  0  0  0  0  0  0  0  0  0  0  0
   -1.8772   -4.2695    0.4392 C   0  0  0  0  0  0  0  0  0  0  0  0
   -1.1939   -3.0848    0.7602 C   0  0  0  0  0  0  0  0  0  0  0  0
   -0.5528   -2.3071   -0.3704 C   0  0  0  0  0  0  0  0  0  0  0  0
   -0.3002   -0.8246   -0.1792 N   0  0  0  0  0  0  0  0  0  0  0  0
    0.2907   -0.2748   -1.3669 C   0  0  0  0  0  0  0  0  0  0  0  0
   -0.3312   -0.3979   -2.4065 O   0  0  0  0  0  0  0  0  0  0  0  0
    1.4700    0.5629   -1.3663 N   0  0  0  0  0  0  0  0  0  0  0  0
    2.1438    0.5204   -2.7496 C   0  0  0  0  0  0  0  0  0  0  0  0
    2.6441   -0.8614   -3.0910 C   0  0  0  0  0  0  0  0  0  0  0  0
    1.9795   -1.7124   -4.0053 C   0  0  0  0  0  0  0  0  0  0  0  0
    1.9901   -3.1157   -3.8381 C   0  0  0  0  0  0  0  0  0  0  0  0
    2.5139   -3.5904   -2.6209 C   0  0  0  0  0  0  0  0  0  0  0  0
    2.3528   -4.7578   -1.9600 N   0  0  0  0  0  0  0  0  0  0  0  0
    2.7534   -4.5491   -0.6661 N   0  0  0  0  0  0  0  0  0  0  0  0
    3.0373   -3.2362   -0.5839 C   0  0  0  0  0  0  0  0  0  0  0  0
    2.7339   -2.2691    0.6755 C   0  0  0  0  0  0  0  0  0  0  0  0
    2.6229   -2.6450    1.9837 C   0  0  0  0  0  0  0  0  0  0  0  0
    2.1336   -1.4964    2.5536 C   0  0  0  0  0  0  0  0  0  0  0  0
    1.7589   -0.5725    1.6295 N   0  0  0  0  0  0  0  0  0  0  0  0
    2.3381   -0.9559    0.5026 N   0  0  0  0  0  0  0  0  0  0  0  0
    3.2237   -2.6988   -1.8323 C   0  0  0  0  0  0  0  0  0  0  0  0
    3.5397   -1.3950   -2.1634 C   0  0  0  0  0  0  0  0  0  0  0  0
    1.3072    1.9521   -0.8087 C   0  0  2  0  0  0  0  0  0  0  0  0
    2.6915    2.4797   -0.3298 C   0  0  0  0  0  0  0  0  0  0  0  0
    2.7270    3.9865   -0.2196 C   0  0  0  0  0  0  0  0  0  0  0  0
    2.5956    4.6062    1.0305 C   0  0  0  0  0  0  0  0  0  0  0  0
    2.6037    5.9973    1.1338 C   0  0  0  0  0  0  0  0  0  0  0  0
    2.7463    6.7813   -0.0088 C   0  0  0  0  0  0  0  0  0  0  0  0
    2.8845    6.1755   -1.2560 C   0  0  0  0  0  0  0  0  0  0  0  0
    2.8757    4.7839   -1.3633 C   0  0  0  0  0  0  0  0  0  0  0  0
    0.2404    2.1167    0.3326 C   0  0  2  0  0  0  0  0  0  0  0  0
    0.6402    1.7466    1.6407 O   0  0  0  0  0  0  0  0  0  0  0  0
   -1.1650    1.5789    0.0364 C   0  0  1  0  0  0  0  0  0  0  0  0
   -1.4778    1.9072   -1.3223 O   0  0  0  0  0  0  0  0  0  0  0  0
   -1.4110    0.0567    0.3411 C   0  0  1  0  0  0  0  0  0  0  0  0
   -2.8026   -0.3817   -0.2059 C   0  0  0  0  0  0  0  0  0  0  0  0
   -3.9597    0.4205    0.3466 C   0  0  0  0  0  0  0  0  0  0  0  0
   -4.2383    0.4147    1.7212 C   0  0  0  0  0  0  0  0  0  0  0  0
   -5.2972    1.1678    2.2292 C   0  0  0  0  0  0  0  0  0  0  0  0
   -6.0945    1.9212    1.3706 C   0  0  0  0  0  0  0  0  0  0  0  0
   -5.8423    1.9136    0.0005 C   0  0  0  0  0  0  0  0  0  0  0  0
   -4.7841    1.1621   -0.5117 C   0  0  0  0  0  0  0  0  0  0  0  0
   -1.1266   -2.7132    2.1110 C   0  0  0  0  0  0  0  0  0  0  0  0
   -2.0773   -3.6417    5.1481 H   0  0  0  0  0  0  0  0  0  0  0  0
   -1.0522   -2.3339    4.7066 H   0  0  0  0  0  0  0  0  0  0  0  0
   -3.0138   -5.1675    3.5066 H   0  0  0  0  0  0  0  0  0  0  0  0
   -3.0619   -5.9182    1.1590 H   0  0  0  0  0  0  0  0  0  0  0  0
   -1.8969   -4.6374   -0.5867 H   0  0  0  0  0  0  0  0  0  0  0  0
   -1.2054   -2.3920   -1.2492 H   0  0  0  0  0  0  0  0  0  0  0  0
    0.3926   -2.7765   -0.6295 H   0  0  0  0  0  0  0  0  0  0  0  0
    0.5177   -0.8318    0.5034 H   0  0  0  0  0  0  0  0  0  0  0  0
    2.0640    0.0337   -0.6655 H   0  0  0  0  0  0  0  0  0  0  0  0
    2.9956    1.2059   -2.7372 H   0  0  0  0  0  0  0  0  0  0  0  0
    1.4311    0.9041   -3.4894 H   0  0  0  0  0  0  0  0  0  0  0  0
    1.3395   -1.3012   -4.7842 H   0  0  0  0  0  0  0  0  0  0  0  0
    1.4540   -3.7989   -4.4831 H   0  0  0  0  0  0  0  0  0  0  0  0
    2.8638   -3.5972    2.4259 H   0  0  0  0  0  0  0  0  0  0  0  0
    1.9507   -1.3503    3.6136 H   0  0  0  0  0  0  0  0  0  0  0  0
    4.1116   -0.7951   -1.4630 H   0  0  0  0  0  0  0  0  0  0  0  0
    0.9646    2.5508   -1.6634 H   0  0  0  0  0  0  0  0  0  0  0  0
    3.4983    2.1916   -1.0116 H   0  0  0  0  0  0  0  0  0  0  0  0
    2.9732    2.0300    0.6296 H   0  0  0  0  0  0  0  0  0  0  0  0
    2.4860    4.0098    1.9361 H   0  0  0  0  0  0  0  0  0  0  0  0
    2.5050    6.4692    2.1085 H   0  0  0  0  0  0  0  0  0  0  0  0
    2.7599    7.8653    0.0750 H   0  0  0  0  0  0  0  0  0  0  0  0
    3.0089    6.7909   -2.1439 H   0  0  0  0  0  0  0  0  0  0  0  0
    3.0009    4.3357   -2.3458 H   0  0  0  0  0  0  0  0  0  0  0  0
    0.0977    3.2042    0.3981 H   0  0  0  0  0  0  0  0  0  0  0  0
    1.2247    0.9375    1.6371 H   0  0  0  0  0  0  0  0  0  0  0  0
   -1.8563    2.1446    0.6760 H   0  0  0  0  0  0  0  0  0  0  0  0
   -2.3571    2.3394   -1.3236 H   0  0  0  0  0  0  0  0  0  0  0  0
   -1.3883   -0.0595    1.4286 H   0  0  0  0  0  0  0  0  0  0  0  0
   -2.8064   -0.3309   -1.3018 H   0  0  0  0  0  0  0  0  0  0  0  0
   -3.0255   -1.4230    0.0394 H   0  0  0  0  0  0  0  0  0  0  0  0
   -3.6494   -0.1879    2.4118 H   0  0  0  0  0  0  0  0  0  0  0  0
   -5.5097    1.1556    3.2960 H   0  0  0  0  0  0  0  0  0  0  0  0
   -6.9251    2.4994    1.7685 H   0  0  0  0  0  0  0  0  0  0  0  0
   -6.4823    2.4832   -0.6695 H   0  0  0  0  0  0  0  0  0  0  0  0
   -4.6231    1.1514   -1.5879 H   0  0  0  0  0  0  0  0  0  0  0  0
   -0.5685   -1.8355    2.4144 H   0  0  0  0  0  0  0  0  0  0  0  0
  1  2  1  0
  2  3  2  0
  3  4  1  0
  4  5  2  0
  5  6  1  0
  6  7  1  0
  7  8  1  0
  8  9  1  0
  9 10  2  0
  9 11  1  0
 11 12  1  0
 12 13  1  0
 13 14  2  0
 14 15  1  0
 15 16  2  0
 16 17  1  0
 17 18  1  0
 18 19  2  0
 19 20  1  0
 20 21  1  0
 21 22  2  0
 22 23  1  0
 23 24  1  0
 19 25  1  0
 25 26  2  0
 11 27  1  0
 27 28  1  0
 28 29  1  0
 29 30  2  0
 30 31  1  0
 31 32  2  0
 32 33  1  0
 33 34  2  0
 27 35  1  0
 35 36  1  0
 35 37  1  0
 37 38  1  0
 37 39  1  0
 39 40  1  0
 40 41  1  0
 41 42  2  0
 42 43  1  0
 43 44  2  0
 44 45  1  0
 45 46  2  0
  6 47  2  0
 47  2  1  0
 39  8  1  0
 46 41  1  0
 26 13  1  0
 34 29  1  0
 25 16  1  0
 24 20  2  0
  1 48  1  0
  1 49  1  0
  3 50  1  0
  4 51  1  0
  5 52  1  0
  7 53  1  0
  7 54  1  0
  8 55  1  0
 11 56  1  0
 12 57  1  0
 12 58  1  0
 14 59  1  0
 15 60  1  0
 21 61  1  0
 22 62  1  0
 26 63  1  0
 27 64  1  6
 28 65  1  0
 28 66  1  0
 30 67  1  0
 31 68  1  0
 32 69  1  0
 33 70  1  0
 34 71  1  0
 35 72  1  1
 36 73  1  0
 37 74  1  1
 38 75  1  0
 39 76  1  1
 40 77  1  0
 40 78  1  0
 42 79  1  0
 43 80  1  0
 44 81  1  0
 45 82  1  0
 46 83  1  0
 47 84  1  0
M  CHG  4   8   1  11   1  17  -1  23  -1
M  END
$$$$
