
     RDKit          3D

 45 48  0  0  0  0  0  0  0  0999 V2000
    4.3813   -0.2573    2.4663 O   0  0  0  0  0  0  0  0  0  0  0  0
    3.6156   -1.2075    2.7999 C   0  0  0  0  0  0  0  0  0  0  0  0
    3.3227   -1.6252    3.9573 O   0  0  0  0  0  0  0  0  0  0  0  0
    2.9952   -1.9988    1.6408 C   0  0  0  0  0  0  0  0  0  0  0  0
    1.8711   -1.2385    0.9927 C   0  0  0  0  0  0  0  0  0  0  0  0
    0.3578   -1.1222    1.7982 S   0  0  0  0  0  0  0  0  0  0  0  0
   -0.3186   -0.2158    0.4753 C   0  0  0  0  0  0  0  0  0  0  0  0
   -1.6287    0.2472    0.4730 N   0  0  0  0  0  0  0  0  0  0  0  0
   -2.2336    0.6957    1.6989 C   0  0  0  0  0  0  0  0  0  0  0  0
   -1.5464    1.5367    2.5919 C   0  0  0  0  0  0  0  0  0  0  0  0
   -2.1462    1.9688    3.7776 C   0  0  0  0  0  0  0  0  0  0  0  0
   -3.4452    1.5734    4.0881 C   0  0  0  0  0  0  0  0  0  0  0  0
   -4.1465    0.7458    3.2146 C   0  0  0  0  0  0  0  0  0  0  0  0
   -3.5461    0.3116    2.0299 C   0  0  0  0  0  0  0  0  0  0  0  0
   -2.3392    0.3240   -0.7797 C   0  0  0  0  0  0  0  0  0  0  0  0
   -3.2626    1.3584   -1.0263 C   0  0  0  0  0  0  0  0  0  0  0  0
   -3.9686    1.4319   -2.2312 C   0  0  0  0  0  0  0  0  0  0  0  0
   -3.7663    0.4710   -3.2175 C   0  0  0  0  0  0  0  0  0  0  0  0
   -2.8570   -0.5603   -3.0009 C   0  0  0  0  0  0  0  0  0  0  0  0
   -2.1516   -0.6320   -1.7954 C   0  0  0  0  0  0  0  0  0  0  0  0
    0.5224   -0.0886   -0.5354 N   0  0  0  0  0  0  0  0  0  0  0  0
    1.7737   -0.6093   -0.2357 C   0  0  0  0  0  0  0  0  0  0  0  0
    2.8295   -0.5271   -1.2363 C   0  0  0  0  0  0  0  0  0  0  0  0
    4.1158   -0.0723   -0.9185 C   0  0  0  0  0  0  0  0  0  0  0  0
    5.1022    0.0098   -1.9049 C   0  0  0  0  0  0  0  0  0  0  0  0
    4.7967   -0.3490   -3.2116 C   0  0  0  0  0  0  0  0  0  0  0  0
    5.7407   -0.2675   -4.1594 F   0  0  0  0  0  0  0  0  0  0  0  0
    3.5216   -0.7836   -3.5538 C   0  0  0  0  0  0  0  0  0  0  0  0
    2.5370   -0.8675   -2.5669 C   0  0  0  0  0  0  0  0  0  0  0  0
    3.7807   -2.2369    0.9154 H   0  0  0  0  0  0  0  0  0  0  0  0
    2.6265   -2.9651    2.0084 H   0  0  0  0  0  0  0  0  0  0  0  0
   -0.5337    1.8679    2.3673 H   0  0  0  0  0  0  0  0  0  0  0  0
   -1.5897    2.6077    4.4586 H   0  0  0  0  0  0  0  0  0  0  0  0
   -3.9053    1.9042    5.0150 H   0  0  0  0  0  0  0  0  0  0  0  0
   -5.1563    0.4278    3.4576 H   0  0  0  0  0  0  0  0  0  0  0  0
   -4.0998   -0.3505    1.3685 H   0  0  0  0  0  0  0  0  0  0  0  0
   -3.4216    2.1362   -0.2831 H   0  0  0  0  0  0  0  0  0  0  0  0
   -4.6678    2.2465   -2.3976 H   0  0  0  0  0  0  0  0  0  0  0  0
   -4.3097    0.5296   -4.1561 H   0  0  0  0  0  0  0  0  0  0  0  0
   -2.6883   -1.3112   -3.7677 H   0  0  0  0  0  0  0  0  0  0  0  0
   -1.4521   -1.4526   -1.6520 H   0  0  0  0  0  0  0  0  0  0  0  0
    4.3592    0.2324    0.0983 H   0  0  0  0  0  0  0  0  0  0  0  0
    6.0985    0.3559   -1.6508 H   0  0  0  0  0  0  0  0  0  0  0  0
    3.2988   -1.0487   -4.5810 H   0  0  0  0  0  0  0  0  0  0  0  0
    1.5341   -1.1950   -2.8318 H   0  0  0  0  0  0  0  0  0  0  0  0
  1  2  2  0
  2  3  1  0
  2  4  1  0
  4  5  1  0
  5  6  1  0
  6  7  1  0
  7  8  1  0
  8  9  1  0
  9 10  2  0
 10 11  1  0
 11 12  2  0
 12 13  1  0
 13 14  2  0
  8 15  1  0
 15 16  2  0
 16 17  1  0
 17 18  2  0
 18 19  1  0
 19 20  2  0
  7 21  2  0
 21 22  1  0
 22 23  1  0
 23 24  2  0
 24 25  1  0
 25 26  2  0
 26 27  1  0
 26 28  1  0
 28 29  2  0
 22  5  2  0
 29 23  1  0
 14  9  1  0
 20 15  1  0
  4 30  1  0
  4 31  1  0
 10 32  1  0
 11 33  1  0
 12 34  1  0
 13 35  1  0
 14 36  1  0
 16 37  1  0
 17 38  1  0
 18 39  1  0
 19 40  1  0
 20 41  1  0
 24 42  1  0
 25 43  1  0
 28 44  1  0
 29 45  1  0
M  CHG  1   3  -1
M  END
$$$$
