
     RDKit          3D

 25 26  0  0  0  0  0  0  0  0999 V2000
   -0.5156    1.5090   -1.7182 N   0  0  0  0  0  0  0  0  0  0  0  0
   -1.7877    0.9888   -1.0852 C   0  0  0  0  0  0  0  0  0  0  0  0
   -1.2686    0.0078   -0.0756 C   0  0  1  0  0  0  0  0  0  0  0  0
   -1.9260   -0.9884    0.8205 C   0  0  0  0  0  0  0  0  0  0  0  0
   -0.6286   -1.6903    1.3238 C   0  0  0  0  0  0  0  0  0  0  0  0
    0.4213   -1.4411    0.2096 C   0  0  2  0  0  0  0  0  0  0  0  0
    1.4872   -0.3984    0.4916 C   0  0  0  0  0  0  0  0  0  0  0  0
    2.5344   -0.4339    1.3879 C   0  0  0  0  0  0  0  0  0  0  0  0
    3.1910    0.7372    1.3027 N   0  0  0  0  0  0  0  0  0  0  0  0
    2.6183    1.4771    0.3430 C   0  0  0  0  0  0  0  0  0  0  0  0
    1.5342    0.8335   -0.1561 N   0  0  0  0  0  0  0  0  0  0  0  0
   -0.4045   -0.8843   -0.8303 O   0  0  0  0  0  0  0  0  0  0  0  0
   -0.1177    0.7758   -2.3206 H   0  0  0  0  0  0  0  0  0  0  0  0
   -0.5144    2.4194   -2.1693 H   0  0  0  0  0  0  0  0  0  0  0  0
    0.2843    1.4895   -1.0002 H   0  0  0  0  0  0  0  0  0  0  0  0
   -2.3714    0.5360   -1.8899 H   0  0  0  0  0  0  0  0  0  0  0  0
   -2.3102    1.8368   -0.6374 H   0  0  0  0  0  0  0  0  0  0  0  0
   -0.7283    0.6591    0.6298 H   0  0  0  0  0  0  0  0  0  0  0  0
   -2.5087   -0.5479    1.6329 H   0  0  0  0  0  0  0  0  0  0  0  0
   -2.5461   -1.6973    0.2616 H   0  0  0  0  0  0  0  0  0  0  0  0
   -0.3027   -1.2905    2.2904 H   0  0  0  0  0  0  0  0  0  0  0  0
   -0.8177   -2.7614    1.4537 H   0  0  0  0  0  0  0  0  0  0  0  0
    0.8924   -2.3626   -0.1448 H   0  0  0  0  0  0  0  0  0  0  0  0
    2.8133   -1.2273    2.0664 H   0  0  0  0  0  0  0  0  0  0  0  0
    2.9719    2.4533    0.0332 H   0  0  0  0  0  0  0  0  0  0  0  0
  1  2  1  0
  2  3  1  0
  3  4  1  0
  4  5  1  0
  5  6  1  0
  6  7  1  0
  7  8  2  0
  8  9  1  0
  9 10  1  0
 10 11  2  0
  6 12  1  0
 12  3  1  0
 11  7  1  0
  1 13  1  0
  1 14  1  0
  1 15  1  0
  2 16  1  0
  2 17  1  0
  3 18  1  1
  4 19  1  0
  4 20  1  0
  5 21  1  0
  5 22  1  0
  6 23  1  6
  8 24  1  0
 10 25  1  0
M  CHG  2   1   1   9  -1
M  END
$$$$
