
     RDKit          3D

 28 30  0  0  0  0  0  0  0  0999 V2000
   -0.9822   -3.2380    1.2414 O   0  0  0  0  0  0  0  0  0  0  0  0
   -0.8006   -2.0601    1.5574 C   0  0  0  0  0  0  0  0  0  0  0  0
   -1.7451   -1.2095    1.9895 N   0  0  0  0  0  0  0  0  0  0  0  0
   -2.3138   -0.4306    1.0346 C   0  0  0  0  0  0  0  0  0  0  0  0
   -3.5759    0.1256    1.3362 C   0  0  0  0  0  0  0  0  0  0  0  0
   -4.2742    0.9122    0.4192 C   0  0  0  0  0  0  0  0  0  0  0  0
   -5.8189    1.5597    0.8321 Cl  0  0  0  0  0  0  0  0  0  0  0  0
   -3.7348    1.1756   -0.8323 C   0  0  0  0  0  0  0  0  0  0  0  0
   -2.4826    0.6549   -1.1535 C   0  0  0  0  0  0  0  0  0  0  0  0
   -1.7594   -0.1327   -0.2318 C   0  0  0  0  0  0  0  0  0  0  0  0
   -0.4041   -0.5757   -0.6920 C   0  0  0  0  0  0  0  0  0  0  0  0
   -0.2008   -0.7069   -1.9066 O   0  0  0  0  0  0  0  0  0  0  0  0
    0.7152   -0.7105    0.3049 C   0  0  0  0  0  0  0  0  0  0  0  0
    1.9972   -0.0681   -0.0842 C   0  0  0  0  0  0  0  0  0  0  0  0
    3.2028   -0.7707   -0.0378 C   0  0  0  0  0  0  0  0  0  0  0  0
    4.3805   -0.1502   -0.4482 C   0  0  0  0  0  0  0  0  0  0  0  0
    4.3299    1.1574   -0.9083 C   0  0  0  0  0  0  0  0  0  0  0  0
    3.0974    1.7880   -0.9399 C   0  0  0  0  0  0  0  0  0  0  0  0
    1.9405    1.2153   -0.5525 N   0  0  0  0  0  0  0  0  0  0  0  0
    0.5902   -1.4203    1.4624 C   0  0  0  0  0  0  0  0  0  0  0  0
    1.4110   -1.6819    2.4044 O   0  0  0  0  0  0  0  0  0  0  0  0
   -4.0125   -0.0851    2.3106 H   0  0  0  0  0  0  0  0  0  0  0  0
   -4.2676    1.7822   -1.5541 H   0  0  0  0  0  0  0  0  0  0  0  0
   -2.0451    0.8710   -2.1246 H   0  0  0  0  0  0  0  0  0  0  0  0
    3.2107   -1.7918    0.3342 H   0  0  0  0  0  0  0  0  0  0  0  0
    5.3176   -0.6920   -0.3952 H   0  0  0  0  0  0  0  0  0  0  0  0
    5.2247    1.6728   -1.2300 H   0  0  0  0  0  0  0  0  0  0  0  0
    2.9998    2.8095   -1.2905 H   0  0  0  0  0  0  0  0  0  0  0  0
  1  2  2  0
  2  3  1  0
  3  4  1  0
  4  5  2  0
  5  6  1  0
  6  7  1  0
  6  8  2  0
  8  9  1  0
  9 10  2  0
 10 11  1  0
 11 12  2  0
 11 13  1  0
 13 14  1  0
 14 15  2  0
 15 16  1  0
 16 17  2  0
 17 18  1  0
 18 19  2  0
 13 20  2  0
 20 21  1  0
 20  2  1  0
 10  4  1  0
 19 14  1  0
  5 22  1  0
  8 23  1  0
  9 24  1  0
 15 25  1  0
 16 26  1  0
 17 27  1  0
 18 28  1  0
M  CHG  2   3  -1  21  -1
M  END
$$$$
