
     RDKit          3D

 54 57  0  0  0  0  0  0  0  0999 V2000
   -6.3340    0.1324   -3.1441 C   0  0  0  0  0  0  0  0  0  0  0  0
   -6.0833    0.7955   -1.9107 O   0  0  0  0  0  0  0  0  0  0  0  0
   -4.7904    0.9164   -1.4820 C   0  0  0  0  0  0  0  0  0  0  0  0
   -3.6963    0.3659   -2.1700 C   0  0  0  0  0  0  0  0  0  0  0  0
   -2.3900    0.4591   -1.6994 C   0  0  0  0  0  0  0  0  0  0  0  0
   -1.3990   -0.0857   -2.4137 N   0  0  0  0  0  0  0  0  0  0  0  0
   -0.1598    0.0224   -1.9307 C   0  0  0  0  0  0  0  0  0  0  0  0
    0.1971    0.5865   -0.7632 N   0  0  0  0  0  0  0  0  0  0  0  0
   -0.8162    1.1616   -0.0699 C   0  0  0  0  0  0  0  0  0  0  0  0
   -0.4704    1.7674    1.1426 N   0  0  0  0  0  0  0  0  0  0  0  0
   -0.5816    0.8948    2.3255 C   0  0  0  0  0  0  0  0  0  0  0  0
    0.6627   -0.0212    2.4606 C   0  0  0  0  0  0  0  0  0  0  0  0
    1.7524    0.4296    1.5165 N   0  0  0  0  0  0  0  0  0  0  0  0
    2.9586   -0.3399    1.6564 C   0  0  0  0  0  0  0  0  0  0  0  0
    3.5714   -0.1017    2.6774 O   0  0  0  0  0  0  0  0  0  0  0  0
    3.2416   -1.2176    0.6514 N   0  0  0  0  0  0  0  0  0  0  0  0
    4.3658   -2.0700    0.5702 C   0  0  0  0  0  0  0  0  0  0  0  0
    4.4539   -2.9058   -0.5521 C   0  0  0  0  0  0  0  0  0  0  0  0
    5.5355   -3.7805   -0.7101 C   0  0  0  0  0  0  0  0  0  0  0  0
    6.5445   -3.8303    0.2535 C   0  0  0  0  0  0  0  0  0  0  0  0
    7.6537   -4.7250    0.0946 C   0  0  0  0  0  0  0  0  0  0  0  0
    8.5493   -5.4498   -0.0373 N   0  0  0  0  0  0  0  0  0  0  0  0
    6.4623   -2.9999    1.3732 C   0  0  0  0  0  0  0  0  0  0  0  0
    5.3793   -2.1244    1.5312 C   0  0  0  0  0  0  0  0  0  0  0  0
    1.9900    1.9167    1.5744 C   0  0  0  0  0  0  0  0  0  0  0  0
    0.7072    2.6577    1.1236 C   0  0  0  0  0  0  0  0  0  0  0  0
   -2.1567    1.1177   -0.4929 C   0  0  0  0  0  0  0  0  0  0  0  0
   -3.2438    1.6913    0.2011 C   0  0  0  0  0  0  0  0  0  0  0  0
   -4.5530    1.6030   -0.2844 C   0  0  0  0  0  0  0  0  0  0  0  0
   -5.4564    2.2106    0.5452 O   0  0  0  0  0  0  0  0  0  0  0  0
   -6.7330    2.5500    0.0184 C   0  0  0  0  0  0  0  0  0  0  0  0
   -6.0318   -0.9186   -3.0943 H   0  0  0  0  0  0  0  0  0  0  0  0
   -7.4131    0.1599   -3.3239 H   0  0  0  0  0  0  0  0  0  0  0  0
   -5.8449    0.6489   -3.9765 H   0  0  0  0  0  0  0  0  0  0  0  0
   -3.8369   -0.1659   -3.1070 H   0  0  0  0  0  0  0  0  0  0  0  0
    0.6304   -0.3986   -2.5449 H   0  0  0  0  0  0  0  0  0  0  0  0
   -0.6463    1.5321    3.2162 H   0  0  0  0  0  0  0  0  0  0  0  0
   -1.4990    0.2940    2.3157 H   0  0  0  0  0  0  0  0  0  0  0  0
    1.0508   -0.0050    3.4851 H   0  0  0  0  0  0  0  0  0  0  0  0
    0.4121   -1.0509    2.1825 H   0  0  0  0  0  0  0  0  0  0  0  0
    1.3765    0.2808    0.5702 H   0  0  0  0  0  0  0  0  0  0  0  0
    2.5962   -1.2914   -0.1227 H   0  0  0  0  0  0  0  0  0  0  0  0
    3.6894   -2.8994   -1.3260 H   0  0  0  0  0  0  0  0  0  0  0  0
    5.5846   -4.4221   -1.5895 H   0  0  0  0  0  0  0  0  0  0  0  0
    7.2420   -3.0266    2.1345 H   0  0  0  0  0  0  0  0  0  0  0  0
    5.3750   -1.5048    2.4236 H   0  0  0  0  0  0  0  0  0  0  0  0
    2.2512    2.1751    2.6069 H   0  0  0  0  0  0  0  0  0  0  0  0
    2.8286    2.1589    0.9125 H   0  0  0  0  0  0  0  0  0  0  0  0
    0.8525    3.1013    0.1302 H   0  0  0  0  0  0  0  0  0  0  0  0
    0.5276    3.4980    1.8048 H   0  0  0  0  0  0  0  0  0  0  0  0
   -3.0734    2.2301    1.1317 H   0  0  0  0  0  0  0  0  0  0  0  0
   -7.2045    3.2440    0.7216 H   0  0  0  0  0  0  0  0  0  0  0  0
   -6.6531    3.0670   -0.9436 H   0  0  0  0  0  0  0  0  0  0  0  0
   -7.3753    1.6666   -0.0429 H   0  0  0  0  0  0  0  0  0  0  0  0
  1  2  1  0
  2  3  1  0
  3  4  2  0
  4  5  1  0
  5  6  2  0
  6  7  1  0
  7  8  2  0
  8  9  1  0
  9 10  1  0
 10 11  1  0
 11 12  1  0
 12 13  1  0
 13 14  1  0
 14 15  2  0
 14 16  1  0
 16 17  1  0
 17 18  2  0
 18 19  1  0
 19 20  2  0
 20 21  1  0
 21 22  3  0
 20 23  1  0
 23 24  2  0
 13 25  1  0
 25 26  1  0
  9 27  2  0
 27 28  1  0
 28 29  2  0
 29 30  1  0
 30 31  1  0
 29  3  1  0
 27  5  1  0
 26 10  1  0
 24 17  1  0
  1 32  1  0
  1 33  1  0
  1 34  1  0
  4 35  1  0
  7 36  1  0
 11 37  1  0
 11 38  1  0
 12 39  1  0
 12 40  1  0
 13 41  1  0
 16 42  1  0
 18 43  1  0
 19 44  1  0
 23 45  1  0
 24 46  1  0
 25 47  1  0
 25 48  1  0
 26 49  1  0
 26 50  1  0
 28 51  1  0
 31 52  1  0
 31 53  1  0
 31 54  1  0
M  CHG  1  13   1
M  END
$$$$
