
     RDKit          3D

 71 75  0  0  0  0  0  0  0  0999 V2000
    5.5593   -2.6807    4.7474 C   0  0  0  0  0  0  0  0  0  0  0  0
    5.9762   -1.4364    3.9840 C   0  0  0  0  0  0  0  0  0  0  0  0
    4.8167   -0.9088    3.3405 O   0  0  0  0  0  0  0  0  0  0  0  0
    4.9750    0.2209    2.5684 C   0  0  0  0  0  0  0  0  0  0  0  0
    6.1799    0.9109    2.3941 C   0  0  0  0  0  0  0  0  0  0  0  0
    6.2333    2.0543    1.5876 C   0  0  0  0  0  0  0  0  0  0  0  0
    7.3623    2.7930    1.3584 O   0  0  0  0  0  0  0  0  0  0  0  0
    8.5846    2.3686    1.9585 C   0  0  0  0  0  0  0  0  0  0  0  0
    9.6730    3.3395    1.5375 C   0  0  0  0  0  0  0  0  0  0  0  0
    5.0703    2.5151    0.9510 C   0  0  0  0  0  0  0  0  0  0  0  0
    5.1098    3.7487    0.0813 C   0  0  0  0  0  0  0  0  0  0  0  0
    5.9552    3.6277   -0.9813 F   0  0  0  0  0  0  0  0  0  0  0  0
    3.8979    4.0679   -0.4609 F   0  0  0  0  0  0  0  0  0  0  0  0
    5.5022    4.8663    0.7567 F   0  0  0  0  0  0  0  0  0  0  0  0
    3.8608    1.8174    1.1297 C   0  0  0  0  0  0  0  0  0  0  0  0
    3.8047    0.6760    1.9291 C   0  0  0  0  0  0  0  0  0  0  0  0
    2.6265   -0.0706    2.1547 N   0  0  0  0  0  0  0  0  0  0  0  0
    1.3666    0.1184    1.6158 C   0  0  0  0  0  0  0  0  0  0  0  0
    1.0848    0.9734    0.7865 O   0  0  0  0  0  0  0  0  0  0  0  0
    0.4691   -0.7915    2.1557 N   0  0  0  0  0  0  0  0  0  0  0  0
   -0.8830   -0.9854    1.8007 C   0  0  0  0  0  0  0  0  0  0  0  0
   -1.6273   -1.8742    2.5848 C   0  0  0  0  0  0  0  0  0  0  0  0
   -2.9692   -2.1222    2.2963 C   0  0  0  0  0  0  0  0  0  0  0  0
   -3.5796   -1.4801    1.2197 C   0  0  0  0  0  0  0  0  0  0  0  0
   -2.8601   -0.5822    0.4186 C   0  0  0  0  0  0  0  0  0  0  0  0
   -3.5320    0.0765   -0.7307 C   0  0  0  0  0  0  0  0  0  0  0  0
   -3.2414    1.3590   -1.0371 C   0  0  0  0  0  0  0  0  0  0  0  0
   -3.8922    1.9407   -2.1029 N   0  0  0  0  0  0  0  0  0  0  0  0
   -3.8209    3.1886   -2.6585 C   0  0  0  0  0  0  0  0  0  0  0  0
   -4.7199    3.1662   -3.7048 C   0  0  0  0  0  0  0  0  0  0  0  0
   -5.3409    1.9430   -3.8043 N   0  0  0  0  0  0  0  0  0  0  0  0
   -4.8140    1.2368   -2.8245 C   0  0  0  0  0  0  0  0  0  0  0  0
   -5.1045   -0.1363   -2.4539 C   0  0  0  0  0  0  0  0  0  0  0  0
   -6.0283   -0.8651   -3.1606 N   0  0  0  0  0  0  0  0  0  0  0  0
   -6.3596   -2.2346   -2.8833 C   0  0  0  0  0  0  0  0  0  0  0  0
   -7.4086   -2.7072   -3.8557 C   0  0  0  0  0  0  0  0  0  0  0  0
   -8.7683   -2.5287   -3.5834 C   0  0  0  0  0  0  0  0  0  0  0  0
   -9.6950   -2.9572   -4.5205 C   0  0  0  0  0  0  0  0  0  0  0  0
   -9.3637   -3.5361   -5.6941 N   0  0  0  0  0  0  0  0  0  0  0  0
   -8.0459   -3.6852   -5.9460 C   0  0  0  0  0  0  0  0  0  0  0  0
   -7.0444   -3.2896   -5.0735 C   0  0  0  0  0  0  0  0  0  0  0  0
   -4.4740   -0.6726   -1.4328 N   0  0  0  0  0  0  0  0  0  0  0  0
   -1.5027   -0.3585    0.7150 C   0  0  0  0  0  0  0  0  0  0  0  0
    4.7879   -2.4392    5.4863 H   0  0  0  0  0  0  0  0  0  0  0  0
    6.4145   -3.1272    5.2624 H   0  0  0  0  0  0  0  0  0  0  0  0
    5.1281   -3.4234    4.0679 H   0  0  0  0  0  0  0  0  0  0  0  0
    6.3848   -0.7044    4.6899 H   0  0  0  0  0  0  0  0  0  0  0  0
    6.7332   -1.7104    3.2403 H   0  0  0  0  0  0  0  0  0  0  0  0
    7.0768    0.5604    2.8872 H   0  0  0  0  0  0  0  0  0  0  0  0
    8.4957    2.3822    3.0508 H   0  0  0  0  0  0  0  0  0  0  0  0
    8.8487    1.3627    1.6129 H   0  0  0  0  0  0  0  0  0  0  0  0
    9.7701    3.3602    0.4469 H   0  0  0  0  0  0  0  0  0  0  0  0
   10.6360    3.0585    1.9728 H   0  0  0  0  0  0  0  0  0  0  0  0
    9.4248    4.3578    1.8545 H   0  0  0  0  0  0  0  0  0  0  0  0
    2.9707    2.1927    0.6309 H   0  0  0  0  0  0  0  0  0  0  0  0
    2.7688   -0.8682    2.7600 H   0  0  0  0  0  0  0  0  0  0  0  0
    0.8036   -1.3379    2.9337 H   0  0  0  0  0  0  0  0  0  0  0  0
   -1.1765   -2.3848    3.4315 H   0  0  0  0  0  0  0  0  0  0  0  0
   -3.5412   -2.8148    2.9079 H   0  0  0  0  0  0  0  0  0  0  0  0
   -4.6268   -1.6830    1.0036 H   0  0  0  0  0  0  0  0  0  0  0  0
   -2.5316    1.9740   -0.4994 H   0  0  0  0  0  0  0  0  0  0  0  0
   -3.1614    3.9562   -2.2807 H   0  0  0  0  0  0  0  0  0  0  0  0
   -4.9523    3.9695   -4.3928 H   0  0  0  0  0  0  0  0  0  0  0  0
   -6.4780   -0.3981   -3.9421 H   0  0  0  0  0  0  0  0  0  0  0  0
   -5.4695   -2.8703   -2.9639 H   0  0  0  0  0  0  0  0  0  0  0  0
   -6.7354   -2.3409   -1.8584 H   0  0  0  0  0  0  0  0  0  0  0  0
   -9.1022   -2.0610   -2.6627 H   0  0  0  0  0  0  0  0  0  0  0  0
  -10.7609   -2.8392   -4.3476 H   0  0  0  0  0  0  0  0  0  0  0  0
   -7.8065   -4.1436   -6.9012 H   0  0  0  0  0  0  0  0  0  0  0  0
   -6.0023   -3.4299   -5.3424 H   0  0  0  0  0  0  0  0  0  0  0  0
   -0.9315    0.2966    0.0654 H   0  0  0  0  0  0  0  0  0  0  0  0
  1  2  1  0
  2  3  1  0
  3  4  1  0
  4  5  2  0
  5  6  1  0
  6  7  1  0
  7  8  1  0
  8  9  1  0
  6 10  2  0
 10 11  1  0
 11 12  1  0
 11 13  1  0
 11 14  1  0
 10 15  1  0
 15 16  2  0
 16 17  1  0
 17 18  1  0
 18 19  2  0
 18 20  1  0
 20 21  1  0
 21 22  2  0
 22 23  1  0
 23 24  2  0
 24 25  1  0
 25 26  1  0
 26 27  2  0
 27 28  1  0
 28 29  1  0
 29 30  2  0
 30 31  1  0
 31 32  2  0
 32 33  1  0
 33 34  1  0
 34 35  1  0
 35 36  1  0
 36 37  2  0
 37 38  1  0
 38 39  2  0
 39 40  1  0
 40 41  2  0
 33 42  2  0
 25 43  2  0
 16  4  1  0
 43 21  1  0
 42 26  1  0
 32 28  1  0
 41 36  1  0
  1 44  1  0
  1 45  1  0
  1 46  1  0
  2 47  1  0
  2 48  1  0
  5 49  1  0
  8 50  1  0
  8 51  1  0
  9 52  1  0
  9 53  1  0
  9 54  1  0
 15 55  1  0
 17 56  1  0
 20 57  1  0
 22 58  1  0
 23 59  1  0
 24 60  1  0
 27 61  1  0
 29 62  1  0
 30 63  1  0
 34 64  1  0
 35 65  1  0
 35 66  1  0
 37 67  1  0
 38 68  1  0
 40 69  1  0
 41 70  1  0
 43 71  1  0
M  END
$$$$
