
     RDKit          3D

 56 59  0  0  0  0  0  0  0  0999 V2000
   -0.3259    2.4626   -2.1565 C   0  0  0  0  0  0  0  0  0  0  0  0
   -1.7709    2.1938   -1.7711 C   0  0  2  0  0  0  0  0  0  0  0  0
   -2.0883    3.0076   -0.6350 O   0  0  0  0  0  0  0  0  0  0  0  0
   -2.0038    0.7120   -1.4280 C   0  0  0  0  0  0  0  0  0  0  0  0
   -3.3936    0.5173   -1.0655 N   0  0  0  0  0  0  0  0  0  0  0  0
   -3.8135   -0.6393   -0.4689 C   0  0  0  0  0  0  0  0  0  0  0  0
   -5.1348   -0.7783   -0.3374 N   0  0  0  0  0  0  0  0  0  0  0  0
   -5.5721   -1.8876    0.2803 C   0  0  0  0  0  0  0  0  0  0  0  0
   -4.7397   -2.8628    0.7731 C   0  0  0  0  0  0  0  0  0  0  0  0
   -3.3896   -2.6488    0.5830 C   0  0  0  0  0  0  0  0  0  0  0  0
   -2.4361   -3.5911    1.0829 N   0  0  0  0  0  0  0  0  0  0  0  0
   -2.6923   -4.6324    1.9575 C   0  0  0  0  0  0  0  0  0  0  0  0
   -1.4770   -5.1909    2.2596 C   0  0  0  0  0  0  0  0  0  0  0  0
   -0.4793   -4.5654    1.5775 N   0  0  0  0  0  0  0  0  0  0  0  0
   -1.0615   -3.6382    0.8328 C   0  0  0  0  0  0  0  0  0  0  0  0
   -0.3279   -2.8313   -0.1422 C   0  0  0  0  0  0  0  0  0  0  0  0
   -0.4756   -3.0635   -1.5135 C   0  0  0  0  0  0  0  0  0  0  0  0
    0.2576   -2.3138   -2.4314 C   0  0  0  0  0  0  0  0  0  0  0  0
    1.1410   -1.3262   -1.9866 C   0  0  0  0  0  0  0  0  0  0  0  0
    1.3070   -1.0867   -0.6212 C   0  0  0  0  0  0  0  0  0  0  0  0
    2.1568   -0.0913   -0.0929 N   0  0  0  0  0  0  0  0  0  0  0  0
    2.9617    0.7832   -0.7984 C   0  0  0  0  0  0  0  0  0  0  0  0
    3.1509    0.8030   -2.0081 O   0  0  0  0  0  0  0  0  0  0  0  0
    3.6801    1.7874    0.0358 C   0  0  0  0  0  0  0  0  0  0  0  0
    4.9750    2.1588   -0.3352 C   0  0  0  0  0  0  0  0  0  0  0  0
    5.6720    3.1066    0.4155 C   0  0  0  0  0  0  0  0  0  0  0  0
    5.0769    3.6981    1.5351 C   0  0  0  0  0  0  0  0  0  0  0  0
    6.0065    4.8611    2.4079 Cl  0  0  0  0  0  0  0  0  0  0  0  0
    3.7725    3.3531    1.9137 C   0  0  0  0  0  0  0  0  0  0  0  0
    3.1070    3.9898    3.1057 C   0  0  0  0  0  0  0  0  0  0  0  0
    2.9605    5.3359    2.9828 F   0  0  0  0  0  0  0  0  0  0  0  0
    1.8501    3.5052    3.3276 F   0  0  0  0  0  0  0  0  0  0  0  0
    3.7809    3.7745    4.2682 F   0  0  0  0  0  0  0  0  0  0  0  0
    3.0766    2.3938    1.1468 C   0  0  0  0  0  0  0  0  0  0  0  0
    0.5778   -1.8556    0.2962 C   0  0  0  0  0  0  0  0  0  0  0  0
   -2.9269   -1.5442   -0.0396 N   0  0  0  0  0  0  0  0  0  0  0  0
   -0.0228    1.8602   -3.0180 H   0  0  0  0  0  0  0  0  0  0  0  0
    0.3471    2.2483   -1.3200 H   0  0  0  0  0  0  0  0  0  0  0  0
   -0.1878    3.5207   -2.4040 H   0  0  0  0  0  0  0  0  0  0  0  0
   -2.4345    2.5001   -2.5876 H   0  0  0  0  0  0  0  0  0  0  0  0
   -2.8328    2.5619   -0.1863 H   0  0  0  0  0  0  0  0  0  0  0  0
   -1.3616    0.4513   -0.5791 H   0  0  0  0  0  0  0  0  0  0  0  0
   -1.7462    0.0781   -2.2826 H   0  0  0  0  0  0  0  0  0  0  0  0
   -4.1372    1.0554   -1.4859 H   0  0  0  0  0  0  0  0  0  0  0  0
   -6.6515   -1.9698    0.3725 H   0  0  0  0  0  0  0  0  0  0  0  0
   -5.1613   -3.7320    1.2552 H   0  0  0  0  0  0  0  0  0  0  0  0
   -3.6771   -4.8671    2.3297 H   0  0  0  0  0  0  0  0  0  0  0  0
   -1.2701   -6.0108    2.9357 H   0  0  0  0  0  0  0  0  0  0  0  0
   -1.1533   -3.8339   -1.8724 H   0  0  0  0  0  0  0  0  0  0  0  0
    0.1451   -2.4970   -3.4970 H   0  0  0  0  0  0  0  0  0  0  0  0
    1.6880   -0.7630   -2.7361 H   0  0  0  0  0  0  0  0  0  0  0  0
    2.1863   -0.0424    0.9173 H   0  0  0  0  0  0  0  0  0  0  0  0
    5.4433    1.7116   -1.2109 H   0  0  0  0  0  0  0  0  0  0  0  0
    6.6811    3.3839    0.1168 H   0  0  0  0  0  0  0  0  0  0  0  0
    2.0463    2.1510    1.4061 H   0  0  0  0  0  0  0  0  0  0  0  0
    0.6973   -1.7031    1.3662 H   0  0  0  0  0  0  0  0  0  0  0  0
  1  2  1  0
  2  3  1  0
  2  4  1  0
  4  5  1  0
  5  6  1  0
  6  7  2  0
  7  8  1  0
  8  9  2  0
  9 10  1  0
 10 11  1  0
 11 12  1  0
 12 13  2  0
 13 14  1  0
 14 15  2  0
 15 16  1  0
 16 17  2  0
 17 18  1  0
 18 19  2  0
 19 20  1  0
 20 21  1  0
 21 22  1  0
 22 23  2  0
 22 24  1  0
 24 25  2  0
 25 26  1  0
 26 27  2  0
 27 28  1  0
 27 29  1  0
 29 30  1  0
 30 31  1  0
 30 32  1  0
 30 33  1  0
 29 34  2  0
 20 35  2  0
 10 36  2  0
 36  6  1  0
 15 11  1  0
 35 16  1  0
 34 24  1  0
  1 37  1  0
  1 38  1  0
  1 39  1  0
  2 40  1  6
  3 41  1  0
  4 42  1  0
  4 43  1  0
  5 44  1  0
  8 45  1  0
  9 46  1  0
 12 47  1  0
 13 48  1  0
 17 49  1  0
 18 50  1  0
 19 51  1  0
 21 52  1  0
 25 53  1  0
 26 54  1  0
 34 55  1  0
 35 56  1  0
M  END
$$$$
