
     RDKit          3D

 86 91  0  0  0  0  0  0  0  0999 V2000
    5.4398    0.6352    0.8145 C   0  0  0  0  0  0  0  0  0  0  0  0
    5.2585    0.6476   -0.6932 C   0  0  0  0  0  0  0  0  0  0  0  0
    4.1886   -0.3358   -1.0965 N   0  0  0  0  0  0  0  0  0  0  0  0
    4.7180   -1.7687   -1.1761 C   0  0  0  0  0  0  0  0  0  0  0  0
    3.6296   -2.7568   -0.7414 C   0  0  0  0  0  0  0  0  0  0  0  0
    2.8849   -2.1630    0.3335 O   0  0  0  0  0  0  0  0  0  0  0  0
    2.2726   -3.1746    1.1610 C   0  0  0  0  0  0  0  0  0  0  0  0
    1.0475   -2.5999    1.8843 C   0  0  0  0  0  0  0  0  0  0  0  0
   -0.1526   -2.7880    1.0873 N   0  0  0  0  0  0  0  0  0  0  0  0
   -0.6419   -2.0216    0.0461 C   0  0  0  0  0  0  0  0  0  0  0  0
   -1.7260   -2.5475   -0.5647 C   0  0  0  0  0  0  0  0  0  0  0  0
   -1.9486   -3.8251    0.1418 C   0  0  0  0  0  0  0  0  0  0  0  0
   -2.9001   -4.8153   -0.0333 C   0  0  0  0  0  0  0  0  0  0  0  0
   -2.8520   -5.9258    0.8120 C   0  0  0  0  0  0  0  0  0  0  0  0
   -1.8674   -6.0279    1.8089 C   0  0  0  0  0  0  0  0  0  0  0  0
   -0.9097   -5.0225    1.9808 C   0  0  0  0  0  0  0  0  0  0  0  0
   -0.9575   -3.9238    1.1448 C   0  0  0  0  0  0  0  0  0  0  0  0
   -2.4458   -1.9933   -1.6727 C   0  0  0  0  0  0  0  0  0  0  0  0
   -2.9639   -0.7646   -1.8421 C   0  0  0  0  0  0  0  0  0  0  0  0
   -3.5088   -0.7203   -3.2238 C   0  0  0  0  0  0  0  0  0  0  0  0
   -3.9309    0.2722   -3.7887 O   0  0  0  0  0  0  0  0  0  0  0  0
   -3.3711   -1.9474   -3.7578 N   0  0  0  0  0  0  0  0  0  0  0  0
   -2.6888   -2.7530   -2.9225 C   0  0  0  0  0  0  0  0  0  0  0  0
   -2.2850   -3.8723   -3.1729 O   0  0  0  0  0  0  0  0  0  0  0  0
   -3.0041    0.3664   -0.9546 C   0  0  0  0  0  0  0  0  0  0  0  0
   -2.8352    1.6547   -1.3249 C   0  0  0  0  0  0  0  0  0  0  0  0
   -2.9050    2.5678   -0.2856 N   0  0  0  0  0  0  0  0  0  0  0  0
   -3.2371    1.8322    0.8464 C   0  0  0  0  0  0  0  0  0  0  0  0
   -3.4994    2.2458    2.1389 C   0  0  0  0  0  0  0  0  0  0  0  0
   -3.8169    1.2734    3.0917 C   0  0  0  0  0  0  0  0  0  0  0  0
   -3.8813   -0.0847    2.7419 C   0  0  0  0  0  0  0  0  0  0  0  0
   -3.6301   -0.5002    1.4321 C   0  0  0  0  0  0  0  0  0  0  0  0
   -3.2927    0.4597    0.4942 C   0  0  0  0  0  0  0  0  0  0  0  0
   -2.8073    4.0172   -0.3811 C   0  0  0  0  0  0  0  0  0  0  0  0
   -1.3274    4.4219   -0.5633 C   0  0  0  0  0  0  0  0  0  0  0  0
   -0.4564    3.7811    0.5276 N   0  0  0  0  0  0  0  0  0  0  0  0
   -0.3110    4.6348    1.7692 C   0  0  0  0  0  0  0  0  0  0  0  0
    0.6448    5.7967    1.5649 C   0  0  0  0  0  0  0  0  0  0  0  0
    0.8409    3.1655    0.0350 C   0  0  0  0  0  0  0  0  0  0  0  0
    0.6005    1.8050   -0.6443 C   0  0  0  0  0  0  0  0  0  0  0  0
    1.8006    1.0363   -0.8019 O   0  0  0  0  0  0  0  0  0  0  0  0
    2.4728    1.2543   -2.0497 C   0  0  0  0  0  0  0  0  0  0  0  0
    3.4132    0.0647   -2.3361 C   0  0  0  0  0  0  0  0  0  0  0  0
    4.5059    0.8950    1.3242 H   0  0  0  0  0  0  0  0  0  0  0  0
    6.1964    1.3709    1.1054 H   0  0  0  0  0  0  0  0  0  0  0  0
    5.7673   -0.3415    1.1820 H   0  0  0  0  0  0  0  0  0  0  0  0
    6.1784    0.3861   -1.2264 H   0  0  0  0  0  0  0  0  0  0  0  0
    4.9461    1.6464   -1.0091 H   0  0  0  0  0  0  0  0  0  0  0  0
    3.4733   -0.3776   -0.3416 H   0  0  0  0  0  0  0  0  0  0  0  0
    5.0911   -1.9551   -2.1880 H   0  0  0  0  0  0  0  0  0  0  0  0
    5.5540   -1.8401   -0.4736 H   0  0  0  0  0  0  0  0  0  0  0  0
    4.0992   -3.6980   -0.4324 H   0  0  0  0  0  0  0  0  0  0  0  0
    2.9365   -2.9606   -1.5641 H   0  0  0  0  0  0  0  0  0  0  0  0
    3.0252   -3.4732    1.8989 H   0  0  0  0  0  0  0  0  0  0  0  0
    2.0007   -4.0535    0.5636 H   0  0  0  0  0  0  0  0  0  0  0  0
    1.1917   -1.5295    2.0752 H   0  0  0  0  0  0  0  0  0  0  0  0
    0.9323   -3.0834    2.8606 H   0  0  0  0  0  0  0  0  0  0  0  0
   -0.1313   -1.1040   -0.1982 H   0  0  0  0  0  0  0  0  0  0  0  0
   -3.6577   -4.7525   -0.8068 H   0  0  0  0  0  0  0  0  0  0  0  0
   -3.5822   -6.7248    0.6955 H   0  0  0  0  0  0  0  0  0  0  0  0
   -1.8526   -6.9045    2.4545 H   0  0  0  0  0  0  0  0  0  0  0  0
   -0.1640   -5.1238    2.7598 H   0  0  0  0  0  0  0  0  0  0  0  0
   -3.6522   -2.2036   -4.6911 H   0  0  0  0  0  0  0  0  0  0  0  0
   -2.6660    2.0186   -2.3329 H   0  0  0  0  0  0  0  0  0  0  0  0
   -3.5038    3.2895    2.4286 H   0  0  0  0  0  0  0  0  0  0  0  0
   -4.0495    1.5683    4.1142 H   0  0  0  0  0  0  0  0  0  0  0  0
   -4.1571   -0.8219    3.4953 H   0  0  0  0  0  0  0  0  0  0  0  0
   -3.7260   -1.5498    1.1771 H   0  0  0  0  0  0  0  0  0  0  0  0
   -3.2214    4.5104    0.5045 H   0  0  0  0  0  0  0  0  0  0  0  0
   -3.3874    4.3758   -1.2395 H   0  0  0  0  0  0  0  0  0  0  0  0
   -1.1983    5.5065   -0.5287 H   0  0  0  0  0  0  0  0  0  0  0  0
   -0.9555    4.0588   -1.5271 H   0  0  0  0  0  0  0  0  0  0  0  0
   -1.0301    2.9792    0.8415 H   0  0  0  0  0  0  0  0  0  0  0  0
    0.0462    3.9724    2.5650 H   0  0  0  0  0  0  0  0  0  0  0  0
   -1.3113    4.9869    2.0405 H   0  0  0  0  0  0  0  0  0  0  0  0
    0.3191    6.4629    0.7616 H   0  0  0  0  0  0  0  0  0  0  0  0
    0.7023    6.3912    2.4826 H   0  0  0  0  0  0  0  0  0  0  0  0
    1.6578    5.4534    1.3346 H   0  0  0  0  0  0  0  0  0  0  0  0
    1.4885    3.0174    0.9066 H   0  0  0  0  0  0  0  0  0  0  0  0
    1.3285    3.8793   -0.6372 H   0  0  0  0  0  0  0  0  0  0  0  0
    0.0808    1.9160   -1.6011 H   0  0  0  0  0  0  0  0  0  0  0  0
   -0.0425    1.2062    0.0074 H   0  0  0  0  0  0  0  0  0  0  0  0
    3.0274    2.1955   -1.9879 H   0  0  0  0  0  0  0  0  0  0  0  0
    1.7529    1.3323   -2.8723 H   0  0  0  0  0  0  0  0  0  0  0  0
    4.1255    0.2797   -3.1388 H   0  0  0  0  0  0  0  0  0  0  0  0
    2.8041   -0.8022   -2.6125 H   0  0  0  0  0  0  0  0  0  0  0  0
  1  2  1  0
  2  3  1  0
  3  4  1  0
  4  5  1  0
  5  6  1  0
  6  7  1  0
  7  8  1  0
  8  9  1  0
  9 10  1  0
 10 11  2  0
 11 12  1  0
 12 13  2  0
 13 14  1  0
 14 15  2  0
 15 16  1  0
 16 17  2  0
 11 18  1  0
 18 19  2  0
 19 20  1  0
 20 21  2  0
 20 22  1  0
 22 23  1  0
 23 24  2  0
 19 25  1  0
 25 26  2  0
 26 27  1  0
 27 28  1  0
 28 29  2  0
 29 30  1  0
 30 31  2  0
 31 32  1  0
 32 33  2  0
 27 34  1  0
 34 35  1  0
 35 36  1  0
 36 37  1  0
 37 38  1  0
 36 39  1  0
 39 40  1  0
 40 41  1  0
 41 42  1  0
 42 43  1  0
 43  3  1  0
 17  9  1  0
 23 18  1  0
 33 25  1  0
 17 12  1  0
 33 28  1  0
  1 44  1  0
  1 45  1  0
  1 46  1  0
  2 47  1  0
  2 48  1  0
  3 49  1  0
  4 50  1  0
  4 51  1  0
  5 52  1  0
  5 53  1  0
  7 54  1  0
  7 55  1  0
  8 56  1  0
  8 57  1  0
 10 58  1  0
 13 59  1  0
 14 60  1  0
 15 61  1  0
 16 62  1  0
 22 63  1  0
 26 64  1  0
 29 65  1  0
 30 66  1  0
 31 67  1  0
 32 68  1  0
 34 69  1  0
 34 70  1  0
 35 71  1  0
 35 72  1  0
 36 73  1  0
 37 74  1  0
 37 75  1  0
 38 76  1  0
 38 77  1  0
 38 78  1  0
 39 79  1  0
 39 80  1  0
 40 81  1  0
 40 82  1  0
 42 83  1  0
 42 84  1  0
 43 85  1  0
 43 86  1  0
M  CHG  2   3   1  36   1
M  END
$$$$
