LIB_OJUNZBGNMUTVGC__M_PUB_ALL__e8__s20260927
     RDKit          3D

 51 54  0  0  0  0  0  0  0  0999 V2000
  -11.1850  -18.0370   10.6810 C   0  0  0  0  0  0  0  0  0  0  0  0
  -10.8030  -17.0600    9.6410 C   0  0  0  0  0  0  0  0  0  0  0  0
   -9.6030  -17.1620    8.9740 N   0  0  0  0  0  0  0  0  0  0  0  0
   -9.6050  -16.1410    8.1380 C   0  0  0  0  0  0  0  0  0  0  0  0
   -8.5880  -15.7400    7.1690 C   0  0  0  0  0  0  0  0  0  0  0  0
   -7.5470  -14.8650    7.5030 C   0  0  0  0  0  0  0  0  0  0  0  0
   -6.5870  -14.4980    6.5520 C   0  0  0  0  0  0  0  0  0  0  0  0
   -6.6500  -14.9810    5.2360 C   0  0  0  0  0  0  0  0  0  0  0  0
   -5.6310  -14.5930    4.2500 C   0  0  0  0  0  0  0  0  0  0  0  0
   -5.8740  -13.4340    3.4830 C   0  0  0  0  0  0  0  0  0  0  0  0
   -4.9770  -12.9960    2.5070 C   0  0  0  0  0  0  0  0  0  0  0  0
   -3.8070  -13.7070    2.2710 C   0  0  0  0  0  0  0  0  0  0  0  0
   -3.5350  -14.8550    3.0110 C   0  0  0  0  0  0  0  0  0  0  0  0
   -4.4380  -15.3020    3.9940 C   0  0  0  0  0  0  0  0  0  0  0  0
   -3.9900  -16.7840    4.8880 S   0  0  0  0  0  0  0  0  0  0  0  0
   -4.7930  -17.8710    4.3700 O   0  0  0  0  0  0  0  0  0  0  0  0
   -4.0250  -16.4770    6.3050 O   0  0  0  0  0  0  0  0  0  0  0  0
   -2.3800  -17.0910    4.4690 N   0  0  0  0  0  0  0  0  0  0  0  0
   -1.8000  -18.2450    5.1360 C   0  0  0  0  0  0  0  0  0  0  0  0
   -1.9680  -19.5220    4.7060 O   0  0  0  0  0  0  0  0  0  0  0  0
   -1.3020  -20.3880    5.5470 N   0  0  0  0  0  0  0  0  0  0  0  0
   -0.7630  -19.6210    6.5020 C   0  0  0  0  0  0  0  0  0  0  0  0
    0.0230  -20.2370    7.5970 C   0  0  0  0  0  0  0  0  0  0  0  0
   -1.0670  -18.2450    6.3010 C   0  0  0  0  0  0  0  0  0  0  0  0
   -0.6800  -17.1020    7.1580 C   0  0  0  0  0  0  0  0  0  0  0  0
   -7.6780  -15.8740    4.9110 C   0  0  0  0  0  0  0  0  0  0  0  0
   -8.6390  -16.2410    5.8620 C   0  0  0  0  0  0  0  0  0  0  0  0
  -10.7350  -15.3670    8.2090 O   0  0  0  0  0  0  0  0  0  0  0  0
  -11.4950  -15.9640    9.1740 C   0  0  0  0  0  0  0  0  0  0  0  0
  -12.7950  -15.3430    9.4770 C   0  0  0  0  0  0  0  0  0  0  0  0
  -11.0139  -17.5995   11.6756 H   0  0  0  0  0  0  0  0  0  0  0  0
  -12.2492  -18.2925   10.5709 H   0  0  0  0  0  0  0  0  0  0  0  0
  -10.5763  -18.9466   10.5709 H   0  0  0  0  0  0  0  0  0  0  0  0
   -7.4827  -14.4613    8.5242 H   0  0  0  0  0  0  0  0  0  0  0  0
   -5.7703  -13.8202    6.8412 H   0  0  0  0  0  0  0  0  0  0  0  0
   -6.7956  -12.8597    3.6589 H   0  0  0  0  0  0  0  0  0  0  0  0
   -5.1965  -12.0886    1.9253 H   0  0  0  0  0  0  0  0  0  0  0  0
   -3.0982  -13.3645    1.5026 H   0  0  0  0  0  0  0  0  0  0  0  0
   -2.6075  -15.4167    2.8259 H   0  0  0  0  0  0  0  0  0  0  0  0
   -1.8300  -16.2350    4.5450 H   0  0  0  0  0  0  0  0  0  0  0  0
   -0.3857  -19.9167    8.5668 H   0  0  0  0  0  0  0  0  0  0  0  0
   -0.0350  -21.3327    7.5185 H   0  0  0  0  0  0  0  0  0  0  0  0
    1.0731  -19.9188    7.5185 H   0  0  0  0  0  0  0  0  0  0  0  0
   -0.7767  -17.3876    8.2159 H   0  0  0  0  0  0  0  0  0  0  0  0
    0.3629  -16.8225    6.9475 H   0  0  0  0  0  0  0  0  0  0  0  0
   -1.3385  -16.2464    6.9475 H   0  0  0  0  0  0  0  0  0  0  0  0
   -7.7319  -16.2931    3.8954 H   0  0  0  0  0  0  0  0  0  0  0  0
   -9.4456  -16.9329    5.5781 H   0  0  0  0  0  0  0  0  0  0  0  0
  -12.9262  -15.2803   10.5674 H   0  0  0  0  0  0  0  0  0  0  0  0
  -12.8279  -14.3319    9.0450 H   0  0  0  0  0  0  0  0  0  0  0  0
  -13.6022  -15.9528    9.0450 H   0  0  0  0  0  0  0  0  0  0  0  0
  1  2  1  0
  2  3  1  0
  3  4  2  0
  4  5  1  0
  5  6  2  0
  6  7  1  0
  7  8  2  0
  8  9  1  0
  9 10  2  0
 10 11  1  0
 11 12  2  0
 12 13  1  0
 13 14  2  0
 14 15  1  0
 15 16  2  0
 15 17  2  0
 15 18  1  0
 18 19  1  0
 19 20  1  0
 20 21  1  0
 21 22  2  0
 22 23  1  0
 22 24  1  0
 24 25  1  0
  8 26  1  0
 26 27  2  0
  4 28  1  0
 28 29  1  0
 29 30  1  0
 29  2  2  0
 27  5  1  0
 14  9  1  0
 24 19  2  0
  1 31  1  0
  1 32  1  0
  1 33  1  0
  6 34  1  0
  7 35  1  0
 10 36  1  0
 11 37  1  0
 12 38  1  0
 13 39  1  0
 18 40  1  0
 23 41  1  0
 23 42  1  0
 23 43  1  0
 25 44  1  0
 25 45  1  0
 25 46  1  0
 26 47  1  0
 27 48  1  0
 30 49  1  0
 30 50  1  0
 30 51  1  0
M  END
>  <meeko>  (1) 
{"is_sidechain": [false], "free_energy": -8.668, "intermolecular_energy": -11.202, "internal_energy": -0.933}

$$$$
LIB_OJUNZBGNMUTVGC__M_PUB_ALL__e8__s20260927
     RDKit          3D

 51 54  0  0  0  0  0  0  0  0999 V2000
   -1.9270   -9.2340    1.8570 C   0  0  0  0  0  0  0  0  0  0  0  0
   -0.9630  -10.2490    1.3880 C   0  0  0  0  0  0  0  0  0  0  0  0
   -0.2740  -10.0860    0.2070 N   0  0  0  0  0  0  0  0  0  0  0  0
    0.4790  -11.1660    0.1150 C   0  0  0  0  0  0  0  0  0  0  0  0
    1.4270  -11.5430   -0.9300 C   0  0  0  0  0  0  0  0  0  0  0  0
    2.0500  -12.7980   -0.9510 C   0  0  0  0  0  0  0  0  0  0  0  0
    2.9550  -13.1300   -1.9660 C   0  0  0  0  0  0  0  0  0  0  0  0
    3.2780  -12.2140   -2.9790 C   0  0  0  0  0  0  0  0  0  0  0  0
    4.2240  -12.5800   -4.0420 C   0  0  0  0  0  0  0  0  0  0  0  0
    3.6900  -12.8770   -5.3150 C   0  0  0  0  0  0  0  0  0  0  0  0
    4.5040  -13.2560   -6.3840 C   0  0  0  0  0  0  0  0  0  0  0  0
    5.8800  -13.3480   -6.2100 C   0  0  0  0  0  0  0  0  0  0  0  0
    6.4400  -13.0600   -4.9670 C   0  0  0  0  0  0  0  0  0  0  0  0
    5.6220  -12.6810   -3.8860 C   0  0  0  0  0  0  0  0  0  0  0  0
    6.4430  -12.3320   -2.3360 S   0  0  0  0  0  0  0  0  0  0  0  0
    6.2540  -13.4750   -1.4700 O   0  0  0  0  0  0  0  0  0  0  0  0
    6.0190  -11.0170   -1.8950 O   0  0  0  0  0  0  0  0  0  0  0  0
    8.0900  -12.2400   -2.7130 N   0  0  0  0  0  0  0  0  0  0  0  0
    8.9730  -12.4130   -1.5710 C   0  0  0  0  0  0  0  0  0  0  0  0
    8.5980  -12.1700   -0.2900 O   0  0  0  0  0  0  0  0  0  0  0  0
    9.6530  -12.4210    0.5610 N   0  0  0  0  0  0  0  0  0  0  0  0
   10.6730  -12.7830   -0.2260 C   0  0  0  0  0  0  0  0  0  0  0  0
   11.9890  -13.1170    0.3660 C   0  0  0  0  0  0  0  0  0  0  0  0
   10.3010  -12.7750   -1.6010 C   0  0  0  0  0  0  0  0  0  0  0  0
   11.1570  -13.0820   -2.7680 C   0  0  0  0  0  0  0  0  0  0  0  0
    2.6350  -10.9690   -2.9680 C   0  0  0  0  0  0  0  0  0  0  0  0
    1.7300  -10.6360   -1.9530 C   0  0  0  0  0  0  0  0  0  0  0  0
    0.3320  -12.0370    1.1630 O   0  0  0  0  0  0  0  0  0  0  0  0
   -0.5940  -11.4410    1.9730 C   0  0  0  0  0  0  0  0  0  0  0  0
   -0.9630  -12.1580    3.2040 C   0  0  0  0  0  0  0  0  0  0  0  0
   -1.9395   -9.2208    2.9568 H   0  0  0  0  0  0  0  0  0  0  0  0
   -1.6286   -8.2439    1.4818 H   0  0  0  0  0  0  0  0  0  0  0  0
   -2.9311   -9.4810    1.4818 H   0  0  0  0  0  0  0  0  0  0  0  0
    1.8255  -13.5302   -0.1614 H   0  0  0  0  0  0  0  0  0  0  0  0
    3.4212  -14.1263   -1.9697 H   0  0  0  0  0  0  0  0  0  0  0  0
    2.6030  -12.8079   -5.4686 H   0  0  0  0  0  0  0  0  0  0  0  0
    4.0568  -13.4817   -7.3633 H   0  0  0  0  0  0  0  0  0  0  0  0
    6.5242  -13.6469   -7.0501 H   0  0  0  0  0  0  0  0  0  0  0  0
    7.5292  -13.1293   -4.8295 H   0  0  0  0  0  0  0  0  0  0  0  0
    8.2750  -11.4060   -3.2700 H   0  0  0  0  0  0  0  0  0  0  0  0
   11.9130  -13.0977    1.4632 H   0  0  0  0  0  0  0  0  0  0  0  0
   12.2947  -14.1212    0.0372 H   0  0  0  0  0  0  0  0  0  0  0  0
   12.7366  -12.3801    0.0372 H   0  0  0  0  0  0  0  0  0  0  0  0
   12.1392  -13.4342   -2.4198 H   0  0  0  0  0  0  0  0  0  0  0  0
   10.6809  -13.8654   -3.3760 H   0  0  0  0  0  0  0  0  0  0  0  0
   11.2873  -12.1746   -3.3760 H   0  0  0  0  0  0  0  0  0  0  0  0
    2.8442  -10.2434   -3.7678 H   0  0  0  0  0  0  0  0  0  0  0  0
    1.2495   -9.6465   -1.9592 H   0  0  0  0  0  0  0  0  0  0  0  0
   -0.6580  -11.5653    4.0790 H   0  0  0  0  0  0  0  0  0  0  0  0
   -2.0520  -12.3113    3.2266 H   0  0  0  0  0  0  0  0  0  0  0  0
   -0.4548  -13.1333    3.2266 H   0  0  0  0  0  0  0  0  0  0  0  0
  1  2  1  0
  2  3  1  0
  3  4  2  0
  4  5  1  0
  5  6  2  0
  6  7  1  0
  7  8  2  0
  8  9  1  0
  9 10  2  0
 10 11  1  0
 11 12  2  0
 12 13  1  0
 13 14  2  0
 14 15  1  0
 15 16  2  0
 15 17  2  0
 15 18  1  0
 18 19  1  0
 19 20  1  0
 20 21  1  0
 21 22  2  0
 22 23  1  0
 22 24  1  0
 24 25  1  0
  8 26  1  0
 26 27  2  0
  4 28  1  0
 28 29  1  0
 29 30  1  0
 29  2  2  0
 27  5  1  0
 14  9  1  0
 24 19  2  0
  1 31  1  0
  1 32  1  0
  1 33  1  0
  6 34  1  0
  7 35  1  0
 10 36  1  0
 11 37  1  0
 12 38  1  0
 13 39  1  0
 18 40  1  0
 23 41  1  0
 23 42  1  0
 23 43  1  0
 25 44  1  0
 25 45  1  0
 25 46  1  0
 26 47  1  0
 27 48  1  0
 30 49  1  0
 30 50  1  0
 30 51  1  0
M  END
>  <meeko>  (2) 
{"is_sidechain": [false], "free_energy": -7.823, "intermolecular_energy": -10.351, "internal_energy": -0.693}

$$$$
LIB_OJUNZBGNMUTVGC__M_PUB_ALL__e8__s20260927
     RDKit          3D

 51 54  0  0  0  0  0  0  0  0999 V2000
   -1.2430  -11.8570    3.3440 C   0  0  0  0  0  0  0  0  0  0  0  0
   -0.7800  -11.4750    1.9950 C   0  0  0  0  0  0  0  0  0  0  0  0
    0.2730  -12.1260    1.3930 N   0  0  0  0  0  0  0  0  0  0  0  0
    0.4010  -11.5290    0.2230 C   0  0  0  0  0  0  0  0  0  0  0  0
    1.3550  -11.7970   -0.8500 C   0  0  0  0  0  0  0  0  0  0  0  0
    1.9860  -13.0400   -0.9910 C   0  0  0  0  0  0  0  0  0  0  0  0
    2.8960  -13.2670   -2.0300 C   0  0  0  0  0  0  0  0  0  0  0  0
    3.2150  -12.2540   -2.9490 C   0  0  0  0  0  0  0  0  0  0  0  0
    4.1660  -12.5100   -4.0390 C   0  0  0  0  0  0  0  0  0  0  0  0
    3.6360  -12.7160   -5.3310 C   0  0  0  0  0  0  0  0  0  0  0  0
    4.4560  -12.9880   -6.4280 C   0  0  0  0  0  0  0  0  0  0  0  0
    5.8340  -13.0590   -6.2640 C   0  0  0  0  0  0  0  0  0  0  0  0
    6.3910  -12.8590   -5.0030 C   0  0  0  0  0  0  0  0  0  0  0  0
    5.5680  -12.5880   -3.8930 C   0  0  0  0  0  0  0  0  0  0  0  0
    6.3850  -12.3450   -2.3220 S   0  0  0  0  0  0  0  0  0  0  0  0
    6.2040  -13.5490   -1.5400 O   0  0  0  0  0  0  0  0  0  0  0  0
    5.9500  -11.0690   -1.7880 O   0  0  0  0  0  0  0  0  0  0  0  0
    8.0310  -12.2140   -2.6880 N   0  0  0  0  0  0  0  0  0  0  0  0
    8.9110  -12.3560   -1.5400 C   0  0  0  0  0  0  0  0  0  0  0  0
    8.5010  -12.1880   -0.2570 O   0  0  0  0  0  0  0  0  0  0  0  0
    9.5630  -12.3840    0.6010 N   0  0  0  0  0  0  0  0  0  0  0  0
   10.6180  -12.6360   -0.1830 C   0  0  0  0  0  0  0  0  0  0  0  0
   11.9500  -12.8840    0.4170 C   0  0  0  0  0  0  0  0  0  0  0  0
   10.2640  -12.6090   -1.5620 C   0  0  0  0  0  0  0  0  0  0  0  0
   11.1570  -12.8060   -2.7260 C   0  0  0  0  0  0  0  0  0  0  0  0
    2.5650  -11.0210   -2.8190 C   0  0  0  0  0  0  0  0  0  0  0  0
    1.6550  -10.7930   -1.7800 C   0  0  0  0  0  0  0  0  0  0  0  0
   -0.5030  -10.5200    0.0120 O   0  0  0  0  0  0  0  0  0  0  0  0
   -1.2550  -10.4940    1.1520 C   0  0  0  0  0  0  0  0  0  0  0  0
   -2.3300   -9.4910    1.2190 C   0  0  0  0  0  0  0  0  0  0  0  0
   -0.6271  -11.3488    4.1006 H   0  0  0  0  0  0  0  0  0  0  0  0
   -2.2950  -11.5606    3.4682 H   0  0  0  0  0  0  0  0  0  0  0  0
   -1.1518  -12.9462    3.4682 H   0  0  0  0  0  0  0  0  0  0  0  0
    1.7637  -13.8467   -0.2770 H   0  0  0  0  0  0  0  0  0  0  0  0
    3.3691  -14.2552   -2.1284 H   0  0  0  0  0  0  0  0  0  0  0  0
    2.5472  -12.6607   -5.4776 H   0  0  0  0  0  0  0  0  0  0  0  0
    4.0113  -13.1460   -7.4216 H   0  0  0  0  0  0  0  0  0  0  0  0
    6.4825  -13.2723   -7.1266 H   0  0  0  0  0  0  0  0  0  0  0  0
    7.4820  -12.9132   -4.8733 H   0  0  0  0  0  0  0  0  0  0  0  0
    8.1990  -11.3790   -3.2510 H   0  0  0  0  0  0  0  0  0  0  0  0
   11.8668  -12.8685    1.5137 H   0  0  0  0  0  0  0  0  0  0  0  0
   12.3216  -13.8668    0.0913 H   0  0  0  0  0  0  0  0  0  0  0  0
   12.6504  -12.1008    0.0913 H   0  0  0  0  0  0  0  0  0  0  0  0
   12.1746  -13.0305   -2.3736 H   0  0  0  0  0  0  0  0  0  0  0  0
   10.7865  -13.6440   -3.3347 H   0  0  0  0  0  0  0  0  0  0  0  0
   11.1735  -11.8899   -3.3347 H   0  0  0  0  0  0  0  0  0  0  0  0
    2.7723  -10.2198   -3.5437 H   0  0  0  0  0  0  0  0  0  0  0  0
    1.1680   -9.8106   -1.6924 H   0  0  0  0  0  0  0  0  0  0  0  0
   -2.5633   -9.2733    2.2717 H   0  0  0  0  0  0  0  0  0  0  0  0
   -2.0024   -8.5683    0.7177 H   0  0  0  0  0  0  0  0  0  0  0  0
   -3.2278   -9.8817    0.7177 H   0  0  0  0  0  0  0  0  0  0  0  0
  1  2  1  0
  2  3  1  0
  3  4  2  0
  4  5  1  0
  5  6  2  0
  6  7  1  0
  7  8  2  0
  8  9  1  0
  9 10  2  0
 10 11  1  0
 11 12  2  0
 12 13  1  0
 13 14  2  0
 14 15  1  0
 15 16  2  0
 15 17  2  0
 15 18  1  0
 18 19  1  0
 19 20  1  0
 20 21  1  0
 21 22  2  0
 22 23  1  0
 22 24  1  0
 24 25  1  0
  8 26  1  0
 26 27  2  0
  4 28  1  0
 28 29  1  0
 29 30  1  0
 29  2  2  0
 27  5  1  0
 14  9  1  0
 24 19  2  0
  1 31  1  0
  1 32  1  0
  1 33  1  0
  6 34  1  0
  7 35  1  0
 10 36  1  0
 11 37  1  0
 12 38  1  0
 13 39  1  0
 18 40  1  0
 23 41  1  0
 23 42  1  0
 23 43  1  0
 25 44  1  0
 25 45  1  0
 25 46  1  0
 26 47  1  0
 27 48  1  0
 30 49  1  0
 30 50  1  0
 30 51  1  0
M  END
>  <meeko>  (3) 
{"is_sidechain": [false], "free_energy": -7.729, "intermolecular_energy": -10.216, "internal_energy": -0.704}

$$$$
LIB_OJUNZBGNMUTVGC__M_PUB_ALL__e8__s20260927
     RDKit          3D

 51 54  0  0  0  0  0  0  0  0999 V2000
    1.3710  -21.5310    6.5460 C   0  0  0  0  0  0  0  0  0  0  0  0
    0.2430  -20.5840    6.4520 C   0  0  0  0  0  0  0  0  0  0  0  0
    0.1200  -19.7260    5.3820 N   0  0  0  0  0  0  0  0  0  0  0  0
   -0.9830  -19.0450    5.6330 C   0  0  0  0  0  0  0  0  0  0  0  0
   -1.6170  -17.9930    4.8440 C   0  0  0  0  0  0  0  0  0  0  0  0
   -2.7860  -18.2180    4.1060 C   0  0  0  0  0  0  0  0  0  0  0  0
   -3.3700  -17.1890    3.3580 C   0  0  0  0  0  0  0  0  0  0  0  0
   -2.7950  -15.9100    3.3110 C   0  0  0  0  0  0  0  0  0  0  0  0
   -3.4240  -14.8370    2.5280 C   0  0  0  0  0  0  0  0  0  0  0  0
   -4.4530  -14.0960    3.1490 C   0  0  0  0  0  0  0  0  0  0  0  0
   -5.1270  -13.0720    2.4800 C   0  0  0  0  0  0  0  0  0  0  0  0
   -4.7890  -12.7580    1.1700 C   0  0  0  0  0  0  0  0  0  0  0  0
   -3.7770  -13.4690    0.5280 C   0  0  0  0  0  0  0  0  0  0  0  0
   -3.0970  -14.5040    1.1970 C   0  0  0  0  0  0  0  0  0  0  0  0
   -1.8140  -15.3500    0.2830 S   0  0  0  0  0  0  0  0  0  0  0  0
   -1.8170  -14.8290   -1.0670 O   0  0  0  0  0  0  0  0  0  0  0  0
   -1.9750  -16.7740    0.5050 O   0  0  0  0  0  0  0  0  0  0  0  0
   -0.3610  -14.8790    1.0110 N   0  0  0  0  0  0  0  0  0  0  0  0
    0.0670  -13.5320    0.6720 C   0  0  0  0  0  0  0  0  0  0  0  0
    0.7820  -13.2320   -0.4420 O   0  0  0  0  0  0  0  0  0  0  0  0
    1.0380  -11.8770   -0.4810 N   0  0  0  0  0  0  0  0  0  0  0  0
    0.4990  -11.3760    0.6370 C   0  0  0  0  0  0  0  0  0  0  0  0
    0.6030   -9.9280    0.9300 C   0  0  0  0  0  0  0  0  0  0  0  0
   -0.1160  -12.3930    1.4220 C   0  0  0  0  0  0  0  0  0  0  0  0
   -0.7840  -12.2380    2.7340 C   0  0  0  0  0  0  0  0  0  0  0  0
   -1.6400  -15.6810    4.0690 C   0  0  0  0  0  0  0  0  0  0  0  0
   -1.0540  -16.7100    4.8170 C   0  0  0  0  0  0  0  0  0  0  0  0
   -1.6010  -19.4000    6.8040 O   0  0  0  0  0  0  0  0  0  0  0  0
   -0.8090  -20.3860    7.3210 C   0  0  0  0  0  0  0  0  0  0  0  0
   -1.2270  -20.9740    8.6030 C   0  0  0  0  0  0  0  0  0  0  0  0
    1.6007  -21.7238    7.6043 H   0  0  0  0  0  0  0  0  0  0  0  0
    1.0991  -22.4754    6.0519 H   0  0  0  0  0  0  0  0  0  0  0  0
    2.2540  -21.0997    6.0519 H   0  0  0  0  0  0  0  0  0  0  0  0
   -3.2506  -19.2150    4.1143 H   0  0  0  0  0  0  0  0  0  0  0  0
   -4.2956  -17.3865    2.7974 H   0  0  0  0  0  0  0  0  0  0  0  0
   -4.7311  -14.3314    4.1869 H   0  0  0  0  0  0  0  0  0  0  0  0
   -5.9257  -12.5141    2.9907 H   0  0  0  0  0  0  0  0  0  0  0  0
   -5.3180  -11.9513    0.6414 H   0  0  0  0  0  0  0  0  0  0  0  0
   -3.5077  -13.2196   -0.5090 H   0  0  0  0  0  0  0  0  0  0  0  0
    0.3490  -15.5980    0.8720 H   0  0  0  0  0  0  0  0  0  0  0  0
    0.6140   -9.7742    2.0191 H   0  0  0  0  0  0  0  0  0  0  0  0
    1.5319   -9.5315    0.4942 H   0  0  0  0  0  0  0  0  0  0  0  0
   -0.2597   -9.4028    0.4942 H   0  0  0  0  0  0  0  0  0  0  0  0
   -0.0541  -12.4074    3.5394 H   0  0  0  0  0  0  0  0  0  0  0  0
   -1.1941  -11.2208    2.8188 H   0  0  0  0  0  0  0  0  0  0  0  0
   -1.6001  -12.9706    2.8188 H   0  0  0  0  0  0  0  0  0  0  0  0
   -1.1866  -14.6788    4.0771 H   0  0  0  0  0  0  0  0  0  0  0  0
   -0.1382  -16.5080    5.3918 H   0  0  0  0  0  0  0  0  0  0  0  0
   -0.8075  -20.3839    9.4312 H   0  0  0  0  0  0  0  0  0  0  0  0
   -2.3250  -20.9685    8.6682 H   0  0  0  0  0  0  0  0  0  0  0  0
   -0.8610  -22.0093    8.6682 H   0  0  0  0  0  0  0  0  0  0  0  0
  1  2  1  0
  2  3  1  0
  3  4  2  0
  4  5  1  0
  5  6  2  0
  6  7  1  0
  7  8  2  0
  8  9  1  0
  9 10  2  0
 10 11  1  0
 11 12  2  0
 12 13  1  0
 13 14  2  0
 14 15  1  0
 15 16  2  0
 15 17  2  0
 15 18  1  0
 18 19  1  0
 19 20  1  0
 20 21  1  0
 21 22  2  0
 22 23  1  0
 22 24  1  0
 24 25  1  0
  8 26  1  0
 26 27  2  0
  4 28  1  0
 28 29  1  0
 29 30  1  0
 29  2  2  0
 27  5  1  0
 14  9  1  0
 24 19  2  0
  1 31  1  0
  1 32  1  0
  1 33  1  0
  6 34  1  0
  7 35  1  0
 10 36  1  0
 11 37  1  0
 12 38  1  0
 13 39  1  0
 18 40  1  0
 23 41  1  0
 23 42  1  0
 23 43  1  0
 25 44  1  0
 25 45  1  0
 25 46  1  0
 26 47  1  0
 27 48  1  0
 30 49  1  0
 30 50  1  0
 30 51  1  0
M  END
>  <meeko>  (4) 
{"is_sidechain": [false], "free_energy": -7.559, "intermolecular_energy": -9.376, "internal_energy": -1.326}

$$$$
LIB_OJUNZBGNMUTVGC__M_PUB_ALL__e8__s20260927
     RDKit          3D

 51 54  0  0  0  0  0  0  0  0999 V2000
    1.5340  -13.7600   -4.5780 C   0  0  0  0  0  0  0  0  0  0  0  0
    2.9060  -13.2900   -4.3020 C   0  0  0  0  0  0  0  0  0  0  0  0
    3.9970  -14.0950   -4.5420 N   0  0  0  0  0  0  0  0  0  0  0  0
    5.0320  -13.3590   -4.1840 C   0  0  0  0  0  0  0  0  0  0  0  0
    6.4550  -13.6880   -4.2200 C   0  0  0  0  0  0  0  0  0  0  0  0
    6.9120  -14.9770   -4.5250 C   0  0  0  0  0  0  0  0  0  0  0  0
    8.2830  -15.2620   -4.5510 C   0  0  0  0  0  0  0  0  0  0  0  0
    9.2350  -14.2740   -4.2560 C   0  0  0  0  0  0  0  0  0  0  0  0
   10.6710  -14.5860   -4.2950 C   0  0  0  0  0  0  0  0  0  0  0  0
   11.2900  -14.6420   -5.5620 C   0  0  0  0  0  0  0  0  0  0  0  0
   12.6440  -14.9520   -5.7050 C   0  0  0  0  0  0  0  0  0  0  0  0
   13.4190  -15.2150   -4.5820 C   0  0  0  0  0  0  0  0  0  0  0  0
   12.8390  -15.1670   -3.3160 C   0  0  0  0  0  0  0  0  0  0  0  0
   11.4740  -14.8580   -3.1670 C   0  0  0  0  0  0  0  0  0  0  0  0
   10.8310  -14.8200   -1.4990 S   0  0  0  0  0  0  0  0  0  0  0  0
   11.9380  -15.0440   -0.5950 O   0  0  0  0  0  0  0  0  0  0  0  0
    9.6740  -15.6930   -1.4490 O   0  0  0  0  0  0  0  0  0  0  0  0
   10.2890  -13.2350   -1.2640 N   0  0  0  0  0  0  0  0  0  0  0  0
   11.3530  -12.2610   -1.0850 C   0  0  0  0  0  0  0  0  0  0  0  0
   12.2010  -11.8870   -2.0760 O   0  0  0  0  0  0  0  0  0  0  0  0
   13.0980  -10.9560   -1.5960 N   0  0  0  0  0  0  0  0  0  0  0  0
   12.8000  -10.8020   -0.3010 C   0  0  0  0  0  0  0  0  0  0  0  0
   13.5870   -9.8710    0.5400 C   0  0  0  0  0  0  0  0  0  0  0  0
   11.7060  -11.6280    0.0860 C   0  0  0  0  0  0  0  0  0  0  0  0
   11.1090  -11.7610    1.4340 C   0  0  0  0  0  0  0  0  0  0  0  0
    8.7750  -12.9810   -3.9750 C   0  0  0  0  0  0  0  0  0  0  0  0
    7.4050  -12.6950   -3.9490 C   0  0  0  0  0  0  0  0  0  0  0  0
    4.6950  -12.1130   -3.7210 O   0  0  0  0  0  0  0  0  0  0  0  0
    3.3320  -12.0790   -3.8000 C   0  0  0  0  0  0  0  0  0  0  0  0
    2.6700  -10.8410   -3.3600 C   0  0  0  0  0  0  0  0  0  0  0  0
    1.0098  -13.9396   -3.6277 H   0  0  0  0  0  0  0  0  0  0  0  0
    0.9939  -12.9956   -5.1560 H   0  0  0  0  0  0  0  0  0  0  0  0
    1.5760  -14.6950   -5.1560 H   0  0  0  0  0  0  0  0  0  0  0  0
    6.1863  -15.7735   -4.7464 H   0  0  0  0  0  0  0  0  0  0  0  0
    8.6193  -16.2776   -4.8070 H   0  0  0  0  0  0  0  0  0  0  0  0
   10.6900  -14.4360   -6.4607 H   0  0  0  0  0  0  0  0  0  0  0  0
   13.0971  -14.9880   -6.7067 H   0  0  0  0  0  0  0  0  0  0  0  0
   14.4857  -15.4600   -4.6920 H   0  0  0  0  0  0  0  0  0  0  0  0
   13.4525  -15.3721   -2.4263 H   0  0  0  0  0  0  0  0  0  0  0  0
    9.5690  -13.2150   -0.5410 H   0  0  0  0  0  0  0  0  0  0  0  0
   13.4017  -10.0903    1.6019 H   0  0  0  0  0  0  0  0  0  0  0  0
   14.6578   -9.9954    0.3214 H   0  0  0  0  0  0  0  0  0  0  0  0
   13.2860   -8.8358    0.3214 H   0  0  0  0  0  0  0  0  0  0  0  0
   11.8829  -11.5886    2.1964 H   0  0  0  0  0  0  0  0  0  0  0  0
   10.3049  -11.0200    1.5536 H   0  0  0  0  0  0  0  0  0  0  0  0
   10.6955  -12.7733    1.5536 H   0  0  0  0  0  0  0  0  0  0  0  0
    9.5004  -12.1794   -3.7720 H   0  0  0  0  0  0  0  0  0  0  0  0
    7.0693  -11.6746   -3.7121 H   0  0  0  0  0  0  0  0  0  0  0  0
    2.6513  -10.8060   -2.2607 H   0  0  0  0  0  0  0  0  0  0  0  0
    3.2239   -9.9722   -3.7452 H   0  0  0  0  0  0  0  0  0  0  0  0
    1.6399  -10.8192   -3.7452 H   0  0  0  0  0  0  0  0  0  0  0  0
  1  2  1  0
  2  3  1  0
  3  4  2  0
  4  5  1  0
  5  6  2  0
  6  7  1  0
  7  8  2  0
  8  9  1  0
  9 10  2  0
 10 11  1  0
 11 12  2  0
 12 13  1  0
 13 14  2  0
 14 15  1  0
 15 16  2  0
 15 17  2  0
 15 18  1  0
 18 19  1  0
 19 20  1  0
 20 21  1  0
 21 22  2  0
 22 23  1  0
 22 24  1  0
 24 25  1  0
  8 26  1  0
 26 27  2  0
  4 28  1  0
 28 29  1  0
 29 30  1  0
 29  2  2  0
 27  5  1  0
 14  9  1  0
 24 19  2  0
  1 31  1  0
  1 32  1  0
  1 33  1  0
  6 34  1  0
  7 35  1  0
 10 36  1  0
 11 37  1  0
 12 38  1  0
 13 39  1  0
 18 40  1  0
 23 41  1  0
 23 42  1  0
 23 43  1  0
 25 44  1  0
 25 45  1  0
 25 46  1  0
 26 47  1  0
 27 48  1  0
 30 49  1  0
 30 50  1  0
 30 51  1  0
M  END
>  <meeko>  (5) 
{"is_sidechain": [false], "free_energy": -7.486, "intermolecular_energy": -9.836, "internal_energy": -0.77}

$$$$
LIB_OJUNZBGNMUTVGC__M_PUB_ALL__e8__s20260927
     RDKit          3D

 51 54  0  0  0  0  0  0  0  0999 V2000
   14.1640  -11.6400   -2.9490 C   0  0  0  0  0  0  0  0  0  0  0  0
   13.0200  -11.9090   -2.0550 C   0  0  0  0  0  0  0  0  0  0  0  0
   12.0160  -12.7750   -2.4240 N   0  0  0  0  0  0  0  0  0  0  0  0
   11.1830  -12.7660   -1.4000 C   0  0  0  0  0  0  0  0  0  0  0  0
    9.9330  -13.5000   -1.2210 C   0  0  0  0  0  0  0  0  0  0  0  0
    9.8160  -14.8590   -1.5390 C   0  0  0  0  0  0  0  0  0  0  0  0
    8.6040  -15.5360   -1.3570 C   0  0  0  0  0  0  0  0  0  0  0  0
    7.4690  -14.8700   -0.8680 C   0  0  0  0  0  0  0  0  0  0  0  0
    6.2050  -15.5950   -0.6750 C   0  0  0  0  0  0  0  0  0  0  0  0
    5.8860  -16.0090    0.6360 C   0  0  0  0  0  0  0  0  0  0  0  0
    4.7200  -16.7220    0.9190 C   0  0  0  0  0  0  0  0  0  0  0  0
    3.8360  -17.0420   -0.1050 C   0  0  0  0  0  0  0  0  0  0  0  0
    4.1200  -16.6480   -1.4100 C   0  0  0  0  0  0  0  0  0  0  0  0
    5.2960  -15.9310   -1.7010 C   0  0  0  0  0  0  0  0  0  0  0  0
    5.5620  -15.4720   -3.4080 S   0  0  0  0  0  0  0  0  0  0  0  0
    6.0870  -16.6290   -4.0990 O   0  0  0  0  0  0  0  0  0  0  0  0
    6.3050  -14.2260   -3.4230 O   0  0  0  0  0  0  0  0  0  0  0  0
    4.0210  -15.1570   -4.0320 N   0  0  0  0  0  0  0  0  0  0  0  0
    3.7290  -13.7450   -4.2160 C   0  0  0  0  0  0  0  0  0  0  0  0
    3.9980  -13.0680   -5.3610 O   0  0  0  0  0  0  0  0  0  0  0  0
    3.6110  -11.7510   -5.2250 N   0  0  0  0  0  0  0  0  0  0  0  0
    3.1410  -11.6400   -3.9770 C   0  0  0  0  0  0  0  0  0  0  0  0
    2.6460  -10.3350   -3.4810 C   0  0  0  0  0  0  0  0  0  0  0  0
    3.2120  -12.8790   -3.2790 C   0  0  0  0  0  0  0  0  0  0  0  0
    2.8200  -13.1480   -1.8770 C   0  0  0  0  0  0  0  0  0  0  0  0
    7.5950  -13.5170   -0.5290 C   0  0  0  0  0  0  0  0  0  0  0  0
    8.8070  -12.8400   -0.7120 C   0  0  0  0  0  0  0  0  0  0  0  0
   11.5730  -11.9460   -0.3730 O   0  0  0  0  0  0  0  0  0  0  0  0
   12.7510  -11.4010   -0.8020 C   0  0  0  0  0  0  0  0  0  0  0  0
   13.4200  -10.4590    0.1090 C   0  0  0  0  0  0  0  0  0  0  0  0
   15.0593  -11.4295   -2.3456 H   0  0  0  0  0  0  0  0  0  0  0  0
   14.3480  -12.5194   -3.5837 H   0  0  0  0  0  0  0  0  0  0  0  0
   13.9369  -10.7708   -3.5837 H   0  0  0  0  0  0  0  0  0  0  0  0
   10.6868  -15.4010   -1.9365 H   0  0  0  0  0  0  0  0  0  0  0  0
    8.5401  -16.6067   -1.6010 H   0  0  0  0  0  0  0  0  0  0  0  0
    6.5752  -15.7630    1.4573 H   0  0  0  0  0  0  0  0  0  0  0  0
    4.5007  -17.0306    1.9518 H   0  0  0  0  0  0  0  0  0  0  0  0
    2.9162  -17.6040    0.1146 H   0  0  0  0  0  0  0  0  0  0  0  0
    3.4196  -16.8991   -2.2202 H   0  0  0  0  0  0  0  0  0  0  0  0
    3.3170  -15.6710   -3.5010 H   0  0  0  0  0  0  0  0  0  0  0  0
    2.6466  -10.3367   -2.3810 H   0  0  0  0  0  0  0  0  0  0  0  0
    3.3016   -9.5311   -3.8468 H   0  0  0  0  0  0  0  0  0  0  0  0
    1.6221  -10.1681   -3.8468 H   0  0  0  0  0  0  0  0  0  0  0  0
    3.5327  -12.6589   -1.1967 H   0  0  0  0  0  0  0  0  0  0  0  0
    1.8098  -12.7519   -1.6963 H   0  0  0  0  0  0  0  0  0  0  0  0
    2.8262  -14.2330   -1.6963 H   0  0  0  0  0  0  0  0  0  0  0  0
    6.7303  -12.9789   -0.1134 H   0  0  0  0  0  0  0  0  0  0  0  0
    8.8760  -11.7734   -0.4521 H   0  0  0  0  0  0  0  0  0  0  0  0
   13.2149  -10.7478    1.1504 H   0  0  0  0  0  0  0  0  0  0  0  0
   14.5049  -10.4825   -0.0712 H   0  0  0  0  0  0  0  0  0  0  0  0
   13.0404   -9.4424   -0.0712 H   0  0  0  0  0  0  0  0  0  0  0  0
  1  2  1  0
  2  3  1  0
  3  4  2  0
  4  5  1  0
  5  6  2  0
  6  7  1  0
  7  8  2  0
  8  9  1  0
  9 10  2  0
 10 11  1  0
 11 12  2  0
 12 13  1  0
 13 14  2  0
 14 15  1  0
 15 16  2  0
 15 17  2  0
 15 18  1  0
 18 19  1  0
 19 20  1  0
 20 21  1  0
 21 22  2  0
 22 23  1  0
 22 24  1  0
 24 25  1  0
  8 26  1  0
 26 27  2  0
  4 28  1  0
 28 29  1  0
 29 30  1  0
 29  2  2  0
 27  5  1  0
 14  9  1  0
 24 19  2  0
  1 31  1  0
  1 32  1  0
  1 33  1  0
  6 34  1  0
  7 35  1  0
 10 36  1  0
 11 37  1  0
 12 38  1  0
 13 39  1  0
 18 40  1  0
 23 41  1  0
 23 42  1  0
 23 43  1  0
 25 44  1  0
 25 45  1  0
 25 46  1  0
 26 47  1  0
 27 48  1  0
 30 49  1  0
 30 50  1  0
 30 51  1  0
M  END
>  <meeko>  (6) 
{"is_sidechain": [false], "free_energy": -7.337, "intermolecular_energy": -9.488, "internal_energy": -0.926}

$$$$
LIB_OJUNZBGNMUTVGC__M_PUB_ALL__e8__s20260927
     RDKit          3D

 51 54  0  0  0  0  0  0  0  0999 V2000
    6.7480  -13.1210   -9.3150 C   0  0  0  0  0  0  0  0  0  0  0  0
    6.3330  -13.3520   -7.9170 C   0  0  0  0  0  0  0  0  0  0  0  0
    5.4370  -12.5140   -7.2920 N   0  0  0  0  0  0  0  0  0  0  0  0
    5.3070  -13.0190   -6.0800 C   0  0  0  0  0  0  0  0  0  0  0  0
    4.4810  -12.5510   -4.9690 C   0  0  0  0  0  0  0  0  0  0  0  0
    5.0100  -11.7890   -3.9190 C   0  0  0  0  0  0  0  0  0  0  0  0
    4.1940  -11.3560   -2.8680 C   0  0  0  0  0  0  0  0  0  0  0  0
    2.8300  -11.6840   -2.8260 C   0  0  0  0  0  0  0  0  0  0  0  0
    1.9830  -11.2140   -1.7200 C   0  0  0  0  0  0  0  0  0  0  0  0
    1.1330  -10.1170   -1.9720 C   0  0  0  0  0  0  0  0  0  0  0  0
    0.3070   -9.5840   -0.9800 C   0  0  0  0  0  0  0  0  0  0  0  0
    0.3080  -10.1360    0.2950 C   0  0  0  0  0  0  0  0  0  0  0  0
    1.1340  -11.2210    0.5770 C   0  0  0  0  0  0  0  0  0  0  0  0
    1.9710  -11.7600   -0.4190 C   0  0  0  0  0  0  0  0  0  0  0  0
    2.9890  -13.1530    0.0480 S   0  0  0  0  0  0  0  0  0  0  0  0
    4.3380  -12.6690    0.2430 O   0  0  0  0  0  0  0  0  0  0  0  0
    2.7390  -14.2240   -0.8980 O   0  0  0  0  0  0  0  0  0  0  0  0
    2.4010  -13.6530    1.5540 N   0  0  0  0  0  0  0  0  0  0  0  0
    1.7340  -14.9440    1.5360 C   0  0  0  0  0  0  0  0  0  0  0  0
    2.3910  -16.1280    1.6360 O   0  0  0  0  0  0  0  0  0  0  0  0
    1.4870  -17.1680    1.5830 N   0  0  0  0  0  0  0  0  0  0  0  0
    0.2890  -16.5970    1.4150 C   0  0  0  0  0  0  0  0  0  0  0  0
   -0.9270  -17.4360    1.3010 C   0  0  0  0  0  0  0  0  0  0  0  0
    0.3890  -15.1780    1.3560 C   0  0  0  0  0  0  0  0  0  0  0  0
   -0.7060  -14.2040    1.1480 C   0  0  0  0  0  0  0  0  0  0  0  0
    2.2990  -12.4240   -3.8890 C   0  0  0  0  0  0  0  0  0  0  0  0
    3.1150  -12.8590   -4.9410 C   0  0  0  0  0  0  0  0  0  0  0  0
    6.0610  -14.1430   -5.8610 O   0  0  0  0  0  0  0  0  0  0  0  0
    6.7140  -14.3480   -7.0440 C   0  0  0  0  0  0  0  0  0  0  0  0
    7.6180  -15.5070   -7.1130 C   0  0  0  0  0  0  0  0  0  0  0  0
    7.7091  -12.5860   -9.3286 H   0  0  0  0  0  0  0  0  0  0  0  0
    6.8589  -14.0872   -9.8290 H   0  0  0  0  0  0  0  0  0  0  0  0
    5.9852  -12.5177   -9.8290 H   0  0  0  0  0  0  0  0  0  0  0  0
    6.0786  -11.5282   -3.9209 H   0  0  0  0  0  0  0  0  0  0  0  0
    4.6290  -10.7482   -2.0609 H   0  0  0  0  0  0  0  0  0  0  0  0
    1.1204   -9.6693   -2.9767 H   0  0  0  0  0  0  0  0  0  0  0  0
   -0.3442   -8.7273   -1.2081 H   0  0  0  0  0  0  0  0  0  0  0  0
   -0.3410   -9.7177    1.0784 H   0  0  0  0  0  0  0  0  0  0  0  0
    1.1327  -11.6604    1.5854 H   0  0  0  0  0  0  0  0  0  0  0  0
    1.8610  -12.9020    1.9850 H   0  0  0  0  0  0  0  0  0  0  0  0
   -1.2936  -17.6889    2.3068 H   0  0  0  0  0  0  0  0  0  0  0  0
   -1.7051  -16.8817    0.7558 H   0  0  0  0  0  0  0  0  0  0  0  0
   -0.6850  -18.3602    0.7558 H   0  0  0  0  0  0  0  0  0  0  0  0
   -1.0861  -13.8659    2.1233 H   0  0  0  0  0  0  0  0  0  0  0  0
   -0.3259  -13.3401    0.5831 H   0  0  0  0  0  0  0  0  0  0  0  0
   -1.5197  -14.6822    0.5831 H   0  0  0  0  0  0  0  0  0  0  0  0
    1.2263  -12.6672   -3.8982 H   0  0  0  0  0  0  0  0  0  0  0  0
    2.6764  -13.4514   -5.7575 H   0  0  0  0  0  0  0  0  0  0  0  0
    7.8732  -15.8341   -6.0942 H   0  0  0  0  0  0  0  0  0  0  0  0
    7.1201  -16.3290   -7.6482 H   0  0  0  0  0  0  0  0  0  0  0  0
    8.5365  -15.2243   -7.6482 H   0  0  0  0  0  0  0  0  0  0  0  0
  1  2  1  0
  2  3  1  0
  3  4  2  0
  4  5  1  0
  5  6  2  0
  6  7  1  0
  7  8  2  0
  8  9  1  0
  9 10  2  0
 10 11  1  0
 11 12  2  0
 12 13  1  0
 13 14  2  0
 14 15  1  0
 15 16  2  0
 15 17  2  0
 15 18  1  0
 18 19  1  0
 19 20  1  0
 20 21  1  0
 21 22  2  0
 22 23  1  0
 22 24  1  0
 24 25  1  0
  8 26  1  0
 26 27  2  0
  4 28  1  0
 28 29  1  0
 29 30  1  0
 29  2  2  0
 27  5  1  0
 14  9  1  0
 24 19  2  0
  1 31  1  0
  1 32  1  0
  1 33  1  0
  6 34  1  0
  7 35  1  0
 10 36  1  0
 11 37  1  0
 12 38  1  0
 13 39  1  0
 18 40  1  0
 23 41  1  0
 23 42  1  0
 23 43  1  0
 25 44  1  0
 25 45  1  0
 25 46  1  0
 26 47  1  0
 27 48  1  0
 30 49  1  0
 30 50  1  0
 30 51  1  0
M  END
>  <meeko>  (7) 
{"is_sidechain": [false], "free_energy": -7.271, "intermolecular_energy": -9.191, "internal_energy": -1.139}

$$$$
LIB_OJUNZBGNMUTVGC__M_PUB_ALL__e8__s20260927
     RDKit          3D

 51 54  0  0  0  0  0  0  0  0999 V2000
   14.4960  -11.5950   -3.1510 C   0  0  0  0  0  0  0  0  0  0  0  0
   13.2850  -11.9270   -2.3740 C   0  0  0  0  0  0  0  0  0  0  0  0
   12.3220  -12.7700   -2.8810 N   0  0  0  0  0  0  0  0  0  0  0  0
   11.4080  -12.8320   -1.9310 C   0  0  0  0  0  0  0  0  0  0  0  0
   10.1540  -13.5800   -1.9050 C   0  0  0  0  0  0  0  0  0  0  0  0
    9.7860  -14.4510   -2.9390 C   0  0  0  0  0  0  0  0  0  0  0  0
    8.5760  -15.1540   -2.8860 C   0  0  0  0  0  0  0  0  0  0  0  0
    7.6920  -14.9950   -1.8080 C   0  0  0  0  0  0  0  0  0  0  0  0
    6.4300  -15.7470   -1.7620 C   0  0  0  0  0  0  0  0  0  0  0  0
    6.4760  -17.0680   -1.2680 C   0  0  0  0  0  0  0  0  0  0  0  0
    5.3350  -17.8700   -1.2050 C   0  0  0  0  0  0  0  0  0  0  0  0
    4.1110  -17.3710   -1.6340 C   0  0  0  0  0  0  0  0  0  0  0  0
    4.0300  -16.0700   -2.1260 C   0  0  0  0  0  0  0  0  0  0  0  0
    5.1780  -15.2590   -2.1940 C   0  0  0  0  0  0  0  0  0  0  0  0
    4.9620  -13.6060   -2.8380 S   0  0  0  0  0  0  0  0  0  0  0  0
    5.7580  -13.4930   -4.0410 O   0  0  0  0  0  0  0  0  0  0  0  0
    5.1720  -12.6720   -1.7480 O   0  0  0  0  0  0  0  0  0  0  0  0
    3.3340  -13.5100   -3.2890 N   0  0  0  0  0  0  0  0  0  0  0  0
    2.5000  -12.7680   -2.3580 C   0  0  0  0  0  0  0  0  0  0  0  0
    1.8550  -13.3420   -1.3100 O   0  0  0  0  0  0  0  0  0  0  0  0
    1.1440  -12.3830   -0.6190 N   0  0  0  0  0  0  0  0  0  0  0  0
    1.3420  -11.2390   -1.2830 C   0  0  0  0  0  0  0  0  0  0  0  0
    0.7020   -9.9860   -0.8170 C   0  0  0  0  0  0  0  0  0  0  0  0
    2.1830  -11.4300   -2.4170 C   0  0  0  0  0  0  0  0  0  0  0  0
    2.6020  -10.4160   -3.4100 C   0  0  0  0  0  0  0  0  0  0  0  0
    8.0740  -14.1430   -0.7650 C   0  0  0  0  0  0  0  0  0  0  0  0
    9.2830  -13.4390   -0.8170 C   0  0  0  0  0  0  0  0  0  0  0  0
   11.7050  -12.0810   -0.8230 O   0  0  0  0  0  0  0  0  0  0  0  0
   12.9090  -11.5050   -1.1170 C   0  0  0  0  0  0  0  0  0  0  0  0
   13.4930  -10.6230   -0.0940 C   0  0  0  0  0  0  0  0  0  0  0  0
   15.3230  -11.3683   -2.4620 H   0  0  0  0  0  0  0  0  0  0  0  0
   14.7710  -12.4509   -3.7849 H   0  0  0  0  0  0  0  0  0  0  0  0
   14.2961  -10.7185   -3.7849 H   0  0  0  0  0  0  0  0  0  0  0  0
   10.4550  -14.5841   -3.8020 H   0  0  0  0  0  0  0  0  0  0  0  0
    8.3142  -15.8423   -3.7031 H   0  0  0  0  0  0  0  0  0  0  0  0
    7.4371  -17.4770   -0.9231 H   0  0  0  0  0  0  0  0  0  0  0  0
    5.4048  -18.8965   -0.8159 H   0  0  0  0  0  0  0  0  0  0  0  0
    3.2101  -18.0003   -1.5854 H   0  0  0  0  0  0  0  0  0  0  0  0
    3.0611  -15.6737   -2.4639 H   0  0  0  0  0  0  0  0  0  0  0  0
    2.9820  -14.4370   -3.5290 H   0  0  0  0  0  0  0  0  0  0  0  0
    0.6920   -9.9664    0.2828 H   0  0  0  0  0  0  0  0  0  0  0  0
    1.2694   -9.1223   -1.1940 H   0  0  0  0  0  0  0  0  0  0  0  0
   -0.3303   -9.9394   -1.1940 H   0  0  0  0  0  0  0  0  0  0  0  0
    2.9716   -9.5216   -2.8871 H   0  0  0  0  0  0  0  0  0  0  0  0
    3.4030  -10.8293   -4.0405 H   0  0  0  0  0  0  0  0  0  0  0  0
    1.7429  -10.1433   -4.0405 H   0  0  0  0  0  0  0  0  0  0  0  0
    7.4149  -14.0250    0.1078 H   0  0  0  0  0  0  0  0  0  0  0  0
    9.5531  -12.7648    0.0092 H   0  0  0  0  0  0  0  0  0  0  0  0
   13.2405  -11.0044    0.9064 H   0  0  0  0  0  0  0  0  0  0  0  0
   14.5864  -10.5985   -0.2119 H   0  0  0  0  0  0  0  0  0  0  0  0
   13.0887   -9.6068   -0.2119 H   0  0  0  0  0  0  0  0  0  0  0  0
  1  2  1  0
  2  3  1  0
  3  4  2  0
  4  5  1  0
  5  6  2  0
  6  7  1  0
  7  8  2  0
  8  9  1  0
  9 10  2  0
 10 11  1  0
 11 12  2  0
 12 13  1  0
 13 14  2  0
 14 15  1  0
 15 16  2  0
 15 17  2  0
 15 18  1  0
 18 19  1  0
 19 20  1  0
 20 21  1  0
 21 22  2  0
 22 23  1  0
 22 24  1  0
 24 25  1  0
  8 26  1  0
 26 27  2  0
  4 28  1  0
 28 29  1  0
 29 30  1  0
 29  2  2  0
 27  5  1  0
 14  9  1  0
 24 19  2  0
  1 31  1  0
  1 32  1  0
  1 33  1  0
  6 34  1  0
  7 35  1  0
 10 36  1  0
 11 37  1  0
 12 38  1  0
 13 39  1  0
 18 40  1  0
 23 41  1  0
 23 42  1  0
 23 43  1  0
 25 44  1  0
 25 45  1  0
 25 46  1  0
 26 47  1  0
 27 48  1  0
 30 49  1  0
 30 50  1  0
 30 51  1  0
M  END
>  <meeko>  (8) 
{"is_sidechain": [false], "free_energy": -7.248, "intermolecular_energy": -9.219, "internal_energy": -1.081}

$$$$
LIB_OJUNZBGNMUTVGC__M_PUB_ALL__e8__s20260927
     RDKit          3D

 51 54  0  0  0  0  0  0  0  0999 V2000
    2.8850  -10.3450   -4.0880 C   0  0  0  0  0  0  0  0  0  0  0  0
    3.1730  -11.1710   -2.8980 C   0  0  0  0  0  0  0  0  0  0  0  0
    2.1700  -11.5540   -2.0360 N   0  0  0  0  0  0  0  0  0  0  0  0
    2.7860  -12.2650   -1.1120 C   0  0  0  0  0  0  0  0  0  0  0  0
    2.2290  -12.9330    0.0620 C   0  0  0  0  0  0  0  0  0  0  0  0
    0.8620  -12.8850    0.3670 C   0  0  0  0  0  0  0  0  0  0  0  0
    0.3580  -13.5350    1.4990 C   0  0  0  0  0  0  0  0  0  0  0  0
    1.2060  -14.2390    2.3690 C   0  0  0  0  0  0  0  0  0  0  0  0
    0.6610  -14.9230    3.5500 C   0  0  0  0  0  0  0  0  0  0  0  0
    0.5020  -14.1630    4.7280 C   0  0  0  0  0  0  0  0  0  0  0  0
    0.0130  -14.7280    5.9070 C   0  0  0  0  0  0  0  0  0  0  0  0
   -0.3330  -16.0730    5.9410 C   0  0  0  0  0  0  0  0  0  0  0  0
   -0.1910  -16.8520    4.7960 C   0  0  0  0  0  0  0  0  0  0  0  0
    0.3050  -16.2880    3.6050 C   0  0  0  0  0  0  0  0  0  0  0  0
    0.4460  -17.3750    2.1930 S   0  0  0  0  0  0  0  0  0  0  0  0
    1.0460  -18.6110    2.6460 O   0  0  0  0  0  0  0  0  0  0  0  0
    1.0660  -16.6280    1.1160 O   0  0  0  0  0  0  0  0  0  0  0  0
   -1.1450  -17.7170    1.7310 N   0  0  0  0  0  0  0  0  0  0  0  0
   -1.8210  -16.6180    1.0620 C   0  0  0  0  0  0  0  0  0  0  0  0
   -1.6540  -16.3240   -0.2520 O   0  0  0  0  0  0  0  0  0  0  0  0
   -2.4230  -15.2290   -0.5870 N   0  0  0  0  0  0  0  0  0  0  0  0
   -3.0240  -14.8500    0.5460 C   0  0  0  0  0  0  0  0  0  0  0  0
   -3.9270  -13.6760    0.5550 C   0  0  0  0  0  0  0  0  0  0  0  0
   -2.6590  -15.6890    1.6380 C   0  0  0  0  0  0  0  0  0  0  0  0
   -3.0880  -15.5700    3.0490 C   0  0  0  0  0  0  0  0  0  0  0  0
    2.5670  -14.3050    2.0480 C   0  0  0  0  0  0  0  0  0  0  0  0
    3.0720  -13.6550    0.9160 C   0  0  0  0  0  0  0  0  0  0  0  0
    4.1380  -12.3790   -1.3070 O   0  0  0  0  0  0  0  0  0  0  0  0
    4.3760  -11.6750   -2.4530 C   0  0  0  0  0  0  0  0  0  0  0  0
    5.7700  -11.6170   -2.9230 C   0  0  0  0  0  0  0  0  0  0  0  0
    2.5384   -9.3509   -3.7692 H   0  0  0  0  0  0  0  0  0  0  0  0
    3.7991  -10.2388   -4.6906 H   0  0  0  0  0  0  0  0  0  0  0  0
    2.1030  -10.8301   -4.6906 H   0  0  0  0  0  0  0  0  0  0  0  0
    0.1773  -12.3299   -0.2911 H   0  0  0  0  0  0  0  0  0  0  0  0
   -0.7206  -13.4938    1.7109 H   0  0  0  0  0  0  0  0  0  0  0  0
    0.7707  -13.0964    4.7170 H   0  0  0  0  0  0  0  0  0  0  0  0
   -0.0984  -14.1084    6.8090 H   0  0  0  0  0  0  0  0  0  0  0  0
   -0.7177  -16.5208    6.8692 H   0  0  0  0  0  0  0  0  0  0  0  0
   -0.4684  -17.9161    4.8219 H   0  0  0  0  0  0  0  0  0  0  0  0
   -1.6590  -18.1170    2.5160 H   0  0  0  0  0  0  0  0  0  0  0  0
   -4.1467  -13.3904    1.5943 H   0  0  0  0  0  0  0  0  0  0  0  0
   -3.4406  -12.8353    0.0387 H   0  0  0  0  0  0  0  0  0  0  0  0
   -4.8644  -13.9304    0.0387 H   0  0  0  0  0  0  0  0  0  0  0  0
   -2.2413  -15.8049    3.7107 H   0  0  0  0  0  0  0  0  0  0  0  0
   -3.4308  -14.5429    3.2426 H   0  0  0  0  0  0  0  0  0  0  0  0
   -3.9109  -16.2738    3.2426 H   0  0  0  0  0  0  0  0  0  0  0  0
    3.2494  -14.8760    2.6948 H   0  0  0  0  0  0  0  0  0  0  0  0
    4.1478  -13.7121    0.6937 H   0  0  0  0  0  0  0  0  0  0  0  0
    6.4480  -11.5888   -2.0572 H   0  0  0  0  0  0  0  0  0  0  0  0
    5.9891  -12.5068   -3.5315 H   0  0  0  0  0  0  0  0  0  0  0  0
    5.9144  -10.7121   -3.5315 H   0  0  0  0  0  0  0  0  0  0  0  0
  1  2  1  0
  2  3  1  0
  3  4  2  0
  4  5  1  0
  5  6  2  0
  6  7  1  0
  7  8  2  0
  8  9  1  0
  9 10  2  0
 10 11  1  0
 11 12  2  0
 12 13  1  0
 13 14  2  0
 14 15  1  0
 15 16  2  0
 15 17  2  0
 15 18  1  0
 18 19  1  0
 19 20  1  0
 20 21  1  0
 21 22  2  0
 22 23  1  0
 22 24  1  0
 24 25  1  0
  8 26  1  0
 26 27  2  0
  4 28  1  0
 28 29  1  0
 29 30  1  0
 29  2  2  0
 27  5  1  0
 14  9  1  0
 24 19  2  0
  1 31  1  0
  1 32  1  0
  1 33  1  0
  6 34  1  0
  7 35  1  0
 10 36  1  0
 11 37  1  0
 12 38  1  0
 13 39  1  0
 18 40  1  0
 23 41  1  0
 23 42  1  0
 23 43  1  0
 25 44  1  0
 25 45  1  0
 25 46  1  0
 26 47  1  0
 27 48  1  0
 30 49  1  0
 30 50  1  0
 30 51  1  0
M  END
>  <meeko>  (9) 
{"is_sidechain": [false], "free_energy": -7.169, "intermolecular_energy": -9.36, "internal_energy": -0.838}

$$$$
