LIB_OHXCLBVZKIOYOG__M_PUB_ALL__e8__s20260927
     RDKit          3D

 62 66  0  0  0  0  0  0  0  0999 V2000
   12.5770  -13.6580   -1.8780 O   0  0  0  0  0  0  0  0  0  0  0  0
   12.3050  -12.3400   -1.3700 S   0  0  0  0  0  0  0  0  0  0  0  0
   12.7160  -11.1130   -1.9970 O   0  0  0  0  0  0  0  0  0  0  0  0
   12.5070  -12.2830    0.4080 C   0  0  0  0  0  0  0  0  0  0  0  0
   11.1170  -11.8870    0.8800 C   0  0  0  0  0  0  0  0  0  0  0  0
   10.1280  -12.5170   -0.1030 C   0  0  0  0  0  0  0  0  0  0  0  0
   10.6170  -12.1850   -1.4760 N   0  0  0  0  0  0  0  0  0  0  0  0
   10.0640  -12.9500   -2.6370 C   0  0  0  0  0  0  0  0  0  0  0  0
    8.7320  -13.6210   -2.2390 C   0  0  2  0  0  0  0  0  0  0  0  0
    8.8290  -15.1450   -2.3370 C   0  0  0  0  0  0  0  0  0  0  0  0
    7.5910  -15.7740   -1.7090 C   0  0  0  0  0  0  0  0  0  0  0  0
    6.3200  -15.2900   -2.3930 C   0  0  0  0  0  0  0  0  0  0  0  0
    6.1570  -13.7430   -2.4690 C   0  0  1  0  0  0  0  0  0  0  0  0
    4.6340  -13.4000   -3.5260 S   0  0  0  0  0  0  0  0  0  0  0  0
    3.7340  -14.5340   -3.4580 O   0  0  0  0  0  0  0  0  0  0  0  0
    4.1360  -12.0690   -3.2390 O   0  0  0  0  0  0  0  0  0  0  0  0
    5.2240  -13.3560   -5.2150 C   0  0  0  0  0  0  0  0  0  0  0  0
    4.9510  -12.2410   -6.0130 C   0  0  0  0  0  0  0  0  0  0  0  0
    5.4290  -12.1970   -7.3260 C   0  0  0  0  0  0  0  0  0  0  0  0
    6.2090  -13.2450   -7.8380 C   0  0  0  0  0  0  0  0  0  0  0  0
    6.7050  -13.2090   -9.2670 C   0  0  0  0  0  0  0  0  0  0  0  0
    7.9780  -13.6820   -9.3660 F   0  0  0  0  0  0  0  0  0  0  0  0
    6.7280  -11.9540   -9.7900 F   0  0  0  0  0  0  0  0  0  0  0  0
    5.9560  -13.9630  -10.1150 F   0  0  0  0  0  0  0  0  0  0  0  0
    6.5060  -14.3400   -7.0110 C   0  0  0  0  0  0  0  0  0  0  0  0
    6.0310  -14.3910   -5.6980 C   0  0  0  0  0  0  0  0  0  0  0  0
    5.8580  -13.0200   -1.1470 C   0  0  0  0  0  0  0  0  0  0  0  0
    4.9400  -13.5200   -0.2090 C   0  0  0  0  0  0  0  0  0  0  0  0
    4.2930  -14.6670   -0.4430 F   0  0  0  0  0  0  0  0  0  0  0  0
    4.6750  -12.8630    0.9940 C   0  0  0  0  0  0  0  0  0  0  0  0
    5.3340  -11.6770    1.3000 C   0  0  0  0  0  0  0  0  0  0  0  0
    6.2400  -11.1540    0.3880 C   0  0  0  0  0  0  0  0  0  0  0  0
    6.9120  -10.0360    0.7000 F   0  0  0  0  0  0  0  0  0  0  0  0
    6.4850  -11.7930   -0.8330 C   0  0  0  0  0  0  0  0  0  0  0  0
    7.4250  -11.1810   -1.6400 O   0  0  0  0  0  0  0  0  0  0  0  0
    7.3490  -11.6000   -3.0000 C   0  0  0  0  0  0  0  0  0  0  0  0
    7.4690  -13.1210   -3.0560 C   0  0  1  0  0  0  0  0  0  0  0  0
   12.7983  -13.2656    0.8074 H   0  0  0  0  0  0  0  0  0  0  0  0
   13.2975  -11.5936    0.7394 H   0  0  0  0  0  0  0  0  0  0  0  0
   10.9378  -12.2684    1.8961 H   0  0  0  0  0  0  0  0  0  0  0  0
   11.0043  -10.7932    0.9113 H   0  0  0  0  0  0  0  0  0  0  0  0
   10.0986  -13.6078    0.0355 H   0  0  0  0  0  0  0  0  0  0  0  0
    9.1102  -12.1323    0.0584 H   0  0  0  0  0  0  0  0  0  0  0  0
   10.5340  -11.1730   -1.6310 H   0  0  0  0  0  0  0  0  0  0  0  0
    9.8887  -12.2616   -3.4769 H   0  0  0  0  0  0  0  0  0  0  0  0
   10.7847  -13.7256   -2.9354 H   0  0  0  0  0  0  0  0  0  0  0  0
    8.5705  -13.3145   -1.1950 H   0  0  0  0  0  0  0  0  0  0  0  0
    8.8945  -15.4411   -3.3944 H   0  0  0  0  0  0  0  0  0  0  0  0
    9.7267  -15.4905   -1.8034 H   0  0  0  0  0  0  0  0  0  0  0  0
    7.6561  -16.8678   -1.8056 H   0  0  0  0  0  0  0  0  0  0  0  0
    7.5501  -15.4797   -0.6499 H   0  0  0  0  0  0  0  0  0  0  0  0
    6.3150  -15.6838   -3.4201 H   0  0  0  0  0  0  0  0  0  0  0  0
    5.4840  -15.6557   -1.7787 H   0  0  0  0  0  0  0  0  0  0  0  0
    4.3634  -11.4030   -5.6100 H   0  0  0  0  0  0  0  0  0  0  0  0
    5.1914  -11.3328   -7.9637 H   0  0  0  0  0  0  0  0  0  0  0  0
    7.1189  -15.1661   -7.4007 H   0  0  0  0  0  0  0  0  0  0  0  0
    6.2902  -15.2399   -5.0483 H   0  0  0  0  0  0  0  0  0  0  0  0
    3.9443  -13.2837    1.7005 H   0  0  0  0  0  0  0  0  0  0  0  0
    5.1398  -11.1607    2.2517 H   0  0  0  0  0  0  0  0  0  0  0  0
    6.3847  -11.2896   -3.4287 H   0  0  0  0  0  0  0  0  0  0  0  0
    8.1642  -11.1402   -3.5779 H   0  0  0  0  0  0  0  0  0  0  0  0
    7.6036  -13.4405   -4.0999 H   0  0  0  0  0  0  0  0  0  0  0  0
  1  2  2  0
  2  3  2  0
  2  4  1  0
  4  5  1  0
  5  6  1  0
  6  7  1  0
  7  8  1  0
  8  9  1  0
  9 10  1  0
 10 11  1  0
 11 12  1  0
 12 13  1  0
 13 14  1  6
 14 15  2  0
 14 16  2  0
 14 17  1  0
 17 18  2  0
 18 19  1  0
 19 20  2  0
 20 21  1  0
 21 22  1  0
 21 23  1  0
 21 24  1  0
 20 25  1  0
 25 26  2  0
 13 27  1  0
 27 28  2  0
 28 29  1  0
 28 30  1  0
 30 31  2  0
 31 32  1  0
 32 33  1  0
 32 34  2  0
 34 35  1  0
 35 36  1  0
 36 37  1  0
  7  2  1  0
 37  9  1  0
 37 13  1  0
 26 17  1  0
 34 27  1  0
  4 38  1  0
  4 39  1  0
  5 40  1  0
  5 41  1  0
  6 42  1  0
  6 43  1  0
  7 44  1  0
  8 45  1  0
  8 46  1  0
  9 47  1  1
 10 48  1  0
 10 49  1  0
 11 50  1  0
 11 51  1  0
 12 52  1  0
 12 53  1  0
 18 54  1  0
 19 55  1  0
 25 56  1  0
 26 57  1  0
 30 58  1  0
 31 59  1  0
 36 60  1  0
 36 61  1  0
 37 62  1  6
M  CHG  1   7   1
M  END
>  <meeko>  (1) 
{"is_sidechain": [false], "free_energy": -8.755, "intermolecular_energy": -11.315, "internal_energy": -1.642}

$$$$
LIB_OHXCLBVZKIOYOG__M_PUB_ALL__e8__s20260927
     RDKit          3D

 62 66  0  0  0  0  0  0  0  0999 V2000
   -2.4370  -10.0240    0.9680 O   0  0  0  0  0  0  0  0  0  0  0  0
   -1.1850   -9.7270    1.6120 S   0  0  0  0  0  0  0  0  0  0  0  0
   -1.0250   -8.8420    2.7350 O   0  0  0  0  0  0  0  0  0  0  0  0
    0.1240   -9.5240    0.4080 C   0  0  0  0  0  0  0  0  0  0  0  0
    1.0960  -10.6250    0.7970 C   0  0  0  0  0  0  0  0  0  0  0  0
    0.2500  -11.7840    1.3290 C   0  0  0  0  0  0  0  0  0  0  0  0
   -0.7100  -11.1990    2.3140 N   0  0  0  0  0  0  0  0  0  0  0  0
   -1.8890  -12.0160    2.7370 C   0  0  0  0  0  0  0  0  0  0  0  0
   -1.7950  -13.4310    2.1280 C   0  0  2  0  0  0  0  0  0  0  0  0
   -2.8950  -13.6620    1.0900 C   0  0  0  0  0  0  0  0  0  0  0  0
   -2.6230  -14.9630    0.3440 C   0  0  0  0  0  0  0  0  0  0  0  0
   -2.5570  -16.1450    1.3020 C   0  0  0  0  0  0  0  0  0  0  0  0
   -1.5550  -15.9840    2.4820 C   0  0  1  0  0  0  0  0  0  0  0  0
   -1.8040  -17.4630    3.6240 S   0  0  0  0  0  0  0  0  0  0  0  0
   -2.3220  -18.5810    2.8590 O   0  0  0  0  0  0  0  0  0  0  0  0
   -0.6240  -17.6430    4.4480 O   0  0  0  0  0  0  0  0  0  0  0  0
   -3.1220  -16.9920    4.7380 C   0  0  0  0  0  0  0  0  0  0  0  0
   -4.4440  -16.9960    4.2850 C   0  0  0  0  0  0  0  0  0  0  0  0
   -5.4760  -16.6470    5.1600 C   0  0  0  0  0  0  0  0  0  0  0  0
   -5.2010  -16.3270    6.4990 C   0  0  0  0  0  0  0  0  0  0  0  0
   -6.3150  -15.9250    7.4400 C   0  0  0  0  0  0  0  0  0  0  0  0
   -7.0500  -17.0010    7.8330 F   0  0  0  0  0  0  0  0  0  0  0  0
   -7.1950  -15.0510    6.8810 F   0  0  0  0  0  0  0  0  0  0  0  0
   -5.8670  -15.3370    8.5820 F   0  0  0  0  0  0  0  0  0  0  0  0
   -3.8700  -16.3640    6.9480 C   0  0  0  0  0  0  0  0  0  0  0  0
   -2.8340  -16.7110    6.0770 C   0  0  0  0  0  0  0  0  0  0  0  0
   -0.0610  -16.0410    2.1260 C   0  0  0  0  0  0  0  0  0  0  0  0
    0.4590  -16.9820    1.2240 C   0  0  0  0  0  0  0  0  0  0  0  0
   -0.3480  -17.8690    0.6330 F   0  0  0  0  0  0  0  0  0  0  0  0
    1.8160  -17.0280    0.8990 C   0  0  0  0  0  0  0  0  0  0  0  0
    2.7000  -16.1170    1.4670 C   0  0  0  0  0  0  0  0  0  0  0  0
    2.2160  -15.1800    2.3690 C   0  0  0  0  0  0  0  0  0  0  0  0
    3.0550  -14.2700    2.8830 F   0  0  0  0  0  0  0  0  0  0  0  0
    0.8620  -15.1510    2.7230 C   0  0  0  0  0  0  0  0  0  0  0  0
    0.5050  -14.1570    3.6120 O   0  0  0  0  0  0  0  0  0  0  0  0
   -0.7430  -14.4040    4.2550 C   0  0  0  0  0  0  0  0  0  0  0  0
   -1.8150  -14.6090    3.1880 C   0  0  1  0  0  0  0  0  0  0  0  0
   -0.2511   -9.6674   -0.6161 H   0  0  0  0  0  0  0  0  0  0  0  0
    0.5725   -8.5196    0.4104 H   0  0  0  0  0  0  0  0  0  0  0  0
    1.6746  -10.9486   -0.0808 H   0  0  0  0  0  0  0  0  0  0  0  0
    1.8115  -10.2742    1.5553 H   0  0  0  0  0  0  0  0  0  0  0  0
   -0.2980  -12.2630    0.5042 H   0  0  0  0  0  0  0  0  0  0  0  0
    0.8820  -12.5510    1.8004 H   0  0  0  0  0  0  0  0  0  0  0  0
   -0.1910  -10.8540    3.1310 H   0  0  0  0  0  0  0  0  0  0  0  0
   -1.9051  -12.0918    3.8343 H   0  0  0  0  0  0  0  0  0  0  0  0
   -2.8107  -11.5307    2.3835 H   0  0  0  0  0  0  0  0  0  0  0  0
   -0.8059  -13.4591    1.6475 H   0  0  0  0  0  0  0  0  0  0  0  0
   -3.8695  -13.7262    1.5962 H   0  0  0  0  0  0  0  0  0  0  0  0
   -2.9077  -12.8252    0.3761 H   0  0  0  0  0  0  0  0  0  0  0  0
   -3.4305  -15.1352   -0.3828 H   0  0  0  0  0  0  0  0  0  0  0  0
   -1.6528  -14.8747   -0.1669 H   0  0  0  0  0  0  0  0  0  0  0  0
   -3.5607  -16.2966    1.7257 H   0  0  0  0  0  0  0  0  0  0  0  0
   -2.1976  -16.9994    0.7097 H   0  0  0  0  0  0  0  0  0  0  0  0
   -4.6710  -17.2725    3.2448 H   0  0  0  0  0  0  0  0  0  0  0  0
   -6.5138  -16.6228    4.7962 H   0  0  0  0  0  0  0  0  0  0  0  0
   -3.6414  -16.1174    7.9954 H   0  0  0  0  0  0  0  0  0  0  0  0
   -1.7978  -16.7628    6.4426 H   0  0  0  0  0  0  0  0  0  0  0  0
    2.1864  -17.7857    0.1928 H   0  0  0  0  0  0  0  0  0  0  0  0
    3.7681  -16.1388    1.2049 H   0  0  0  0  0  0  0  0  0  0  0  0
   -0.6651  -15.3067    4.8788 H   0  0  0  0  0  0  0  0  0  0  0  0
   -1.0100  -13.5487    4.8930 H   0  0  0  0  0  0  0  0  0  0  0  0
   -2.8078  -14.6094    3.6616 H   0  0  0  0  0  0  0  0  0  0  0  0
  1  2  2  0
  2  3  2  0
  2  4  1  0
  4  5  1  0
  5  6  1  0
  6  7  1  0
  7  8  1  0
  8  9  1  0
  9 10  1  0
 10 11  1  0
 11 12  1  0
 12 13  1  0
 13 14  1  1
 14 15  2  0
 14 16  2  0
 14 17  1  0
 17 18  2  0
 18 19  1  0
 19 20  2  0
 20 21  1  0
 21 22  1  0
 21 23  1  0
 21 24  1  0
 20 25  1  0
 25 26  2  0
 13 27  1  0
 27 28  2  0
 28 29  1  0
 28 30  1  0
 30 31  2  0
 31 32  1  0
 32 33  1  0
 32 34  2  0
 34 35  1  0
 35 36  1  0
 36 37  1  0
  7  2  1  0
 37  9  1  0
 37 13  1  0
 26 17  1  0
 34 27  1  0
  4 38  1  0
  4 39  1  0
  5 40  1  0
  5 41  1  0
  6 42  1  0
  6 43  1  0
  7 44  1  0
  8 45  1  0
  8 46  1  0
  9 47  1  6
 10 48  1  0
 10 49  1  0
 11 50  1  0
 11 51  1  0
 12 52  1  0
 12 53  1  0
 18 54  1  0
 19 55  1  0
 25 56  1  0
 26 57  1  0
 30 58  1  0
 31 59  1  0
 36 60  1  0
 36 61  1  0
 37 62  1  1
M  CHG  1   7   1
M  END
>  <meeko>  (2) 
{"is_sidechain": [false], "free_energy": -8.726, "intermolecular_energy": -11.116, "internal_energy": -1.802}

$$$$
LIB_OHXCLBVZKIOYOG__M_PUB_ALL__e8__s20260927
     RDKit          3D

 62 66  0  0  0  0  0  0  0  0999 V2000
    4.5680  -14.6840   -0.8890 O   0  0  0  0  0  0  0  0  0  0  0  0
    4.5850  -13.3580   -0.3300 S   0  0  0  0  0  0  0  0  0  0  0  0
    3.8650  -12.2310   -0.8580 O   0  0  0  0  0  0  0  0  0  0  0  0
    6.2340  -12.9080    0.2050 C   0  0  0  0  0  0  0  0  0  0  0  0
    6.0390  -12.6730    1.6940 C   0  0  0  0  0  0  0  0  0  0  0  0
    4.9540  -13.6520    2.1500 C   0  0  0  0  0  0  0  0  0  0  0  0
    3.8250  -13.5250    1.1790 N   0  0  0  0  0  0  0  0  0  0  0  0
    2.7780  -14.5930    1.1550 C   0  0  0  0  0  0  0  0  0  0  0  0
    1.5050  -14.0980    1.8750 C   0  0  2  0  0  0  0  0  0  0  0  0
    1.3570  -14.7520    3.2510 C   0  0  0  0  0  0  0  0  0  0  0  0
    0.2370  -14.0630    4.0220 C   0  0  0  0  0  0  0  0  0  0  0  0
   -1.0820  -14.1420    3.2650 C   0  0  0  0  0  0  0  0  0  0  0  0
   -1.0370  -13.6170    1.8000 C   0  0  1  0  0  0  0  0  0  0  0  0
   -2.7090  -14.0080    1.0220 S   0  0  0  0  0  0  0  0  0  0  0  0
   -3.1910  -12.8440    0.3040 O   0  0  0  0  0  0  0  0  0  0  0  0
   -2.6420  -15.2910    0.3490 O   0  0  0  0  0  0  0  0  0  0  0  0
   -3.8370  -14.2260    2.3940 C   0  0  0  0  0  0  0  0  0  0  0  0
   -4.8840  -13.3190    2.5790 C   0  0  0  0  0  0  0  0  0  0  0  0
   -5.7760  -13.5000    3.6390 C   0  0  0  0  0  0  0  0  0  0  0  0
   -5.6520  -14.6030    4.4980 C   0  0  0  0  0  0  0  0  0  0  0  0
   -6.6030  -14.7860    5.6610 C   0  0  0  0  0  0  0  0  0  0  0  0
   -6.1710  -15.7570    6.5120 F   0  0  0  0  0  0  0  0  0  0  0  0
   -7.8530  -15.1560    5.2710 F   0  0  0  0  0  0  0  0  0  0  0  0
   -6.7540  -13.6630    6.4130 F   0  0  0  0  0  0  0  0  0  0  0  0
   -4.6160  -15.5250    4.2760 C   0  0  0  0  0  0  0  0  0  0  0  0
   -3.7200  -15.3490    3.2190 C   0  0  0  0  0  0  0  0  0  0  0  0
   -0.8930  -12.0980    1.6200 C   0  0  0  0  0  0  0  0  0  0  0  0
   -1.6110  -11.1790    2.4020 C   0  0  0  0  0  0  0  0  0  0  0  0
   -2.4520  -11.6090    3.3480 F   0  0  0  0  0  0  0  0  0  0  0  0
   -1.4730   -9.7990    2.2400 C   0  0  0  0  0  0  0  0  0  0  0  0
   -0.5970   -9.2940    1.2850 C   0  0  0  0  0  0  0  0  0  0  0  0
    0.1190  -10.1780    0.4920 C   0  0  0  0  0  0  0  0  0  0  0  0
    1.0000   -9.6960   -0.3970 F   0  0  0  0  0  0  0  0  0  0  0  0
   -0.0390  -11.5620    0.6290 C   0  0  0  0  0  0  0  0  0  0  0  0
    0.7480  -12.3320   -0.2050 O   0  0  0  0  0  0  0  0  0  0  0  0
    0.2780  -13.6720   -0.3360 C   0  0  0  0  0  0  0  0  0  0  0  0
    0.1640  -14.2920    1.0530 C   0  0  1  0  0  0  0  0  0  0  0  0
    6.9489  -13.7234    0.0207 H   0  0  0  0  0  0  0  0  0  0  0  0
    6.6478  -12.0390   -0.3274 H   0  0  0  0  0  0  0  0  0  0  0  0
    6.9769  -12.8661    2.2353 H   0  0  0  0  0  0  0  0  0  0  0  0
    5.7468  -11.6322    1.8976 H   0  0  0  0  0  0  0  0  0  0  0  0
    5.3447  -14.6803    2.1446 H   0  0  0  0  0  0  0  0  0  0  0  0
    4.6223  -13.4259    3.1741 H   0  0  0  0  0  0  0  0  0  0  0  0
    3.3980  -12.5960    1.2750 H   0  0  0  0  0  0  0  0  0  0  0  0
    2.5337  -14.8408    0.1115 H   0  0  0  0  0  0  0  0  0  0  0  0
    3.1607  -15.4866    1.6698 H   0  0  0  0  0  0  0  0  0  0  0  0
    1.6525  -13.0132    1.9823 H   0  0  0  0  0  0  0  0  0  0  0  0
    1.1150  -15.8178    3.1265 H   0  0  0  0  0  0  0  0  0  0  0  0
    2.3006  -14.6534    3.8077 H   0  0  0  0  0  0  0  0  0  0  0  0
    0.1197  -14.5537    4.9995 H   0  0  0  0  0  0  0  0  0  0  0  0
    0.5026  -13.0032    4.1495 H   0  0  0  0  0  0  0  0  0  0  0  0
   -1.3974  -15.1955    3.2396 H   0  0  0  0  0  0  0  0  0  0  0  0
   -1.7829  -13.4868    3.8031 H   0  0  0  0  0  0  0  0  0  0  0  0
   -5.0052  -12.4671    1.8937 H   0  0  0  0  0  0  0  0  0  0  0  0
   -6.5834  -12.7709    3.8019 H   0  0  0  0  0  0  0  0  0  0  0  0
   -4.5092  -16.3945    4.9413 H   0  0  0  0  0  0  0  0  0  0  0  0
   -2.9271  -16.0893    3.0367 H   0  0  0  0  0  0  0  0  0  0  0  0
   -2.0576   -9.1107    2.8682 H   0  0  0  0  0  0  0  0  0  0  0  0
   -0.4738   -8.2080    1.1604 H   0  0  0  0  0  0  0  0  0  0  0  0
   -0.7085  -13.6717   -0.8226 H   0  0  0  0  0  0  0  0  0  0  0  0
    0.9805  -14.2558   -0.9489 H   0  0  0  0  0  0  0  0  0  0  0  0
   -0.0103  -15.3739    0.9575 H   0  0  0  0  0  0  0  0  0  0  0  0
  1  2  2  0
  2  3  2  0
  2  4  1  0
  4  5  1  0
  5  6  1  0
  6  7  1  0
  7  8  1  0
  8  9  1  0
  9 10  1  0
 10 11  1  0
 11 12  1  0
 12 13  1  0
 13 14  1  6
 14 15  2  0
 14 16  2  0
 14 17  1  0
 17 18  2  0
 18 19  1  0
 19 20  2  0
 20 21  1  0
 21 22  1  0
 21 23  1  0
 21 24  1  0
 20 25  1  0
 25 26  2  0
 13 27  1  0
 27 28  2  0
 28 29  1  0
 28 30  1  0
 30 31  2  0
 31 32  1  0
 32 33  1  0
 32 34  2  0
 34 35  1  0
 35 36  1  0
 36 37  1  0
  7  2  1  0
 37  9  1  0
 37 13  1  0
 26 17  1  0
 34 27  1  0
  4 38  1  0
  4 39  1  0
  5 40  1  0
  5 41  1  0
  6 42  1  0
  6 43  1  0
  7 44  1  0
  8 45  1  0
  8 46  1  0
  9 47  1  1
 10 48  1  0
 10 49  1  0
 11 50  1  0
 11 51  1  0
 12 52  1  0
 12 53  1  0
 18 54  1  0
 19 55  1  0
 25 56  1  0
 26 57  1  0
 30 58  1  0
 31 59  1  0
 36 60  1  0
 36 61  1  0
 37 62  1  6
M  CHG  1   7   1
M  END
>  <meeko>  (3) 
{"is_sidechain": [false], "free_energy": -8.66, "intermolecular_energy": -11.778, "internal_energy": -1.055}

$$$$
LIB_OHXCLBVZKIOYOG__M_PUB_ALL__e8__s20260927
     RDKit          3D

 62 66  0  0  0  0  0  0  0  0999 V2000
    4.8140  -16.2280    1.2390 O   0  0  0  0  0  0  0  0  0  0  0  0
    3.6400  -17.0600    1.2000 S   0  0  0  0  0  0  0  0  0  0  0  0
    2.9860  -17.6170    2.3530 O   0  0  0  0  0  0  0  0  0  0  0  0
    3.7280  -18.2320   -0.1500 C   0  0  0  0  0  0  0  0  0  0  0  0
    2.5160  -17.8550   -0.9870 C   0  0  0  0  0  0  0  0  0  0  0  0
    2.3430  -16.3410   -0.8430 C   0  0  0  0  0  0  0  0  0  0  0  0
    2.4150  -16.0380    0.6190 N   0  0  0  0  0  0  0  0  0  0  0  0
    2.6300  -14.6200    1.0460 C   0  0  0  0  0  0  0  0  0  0  0  0
    1.3840  -14.1020    1.7970 C   0  0  2  0  0  0  0  0  0  0  0  0
    1.2430  -14.7740    3.1650 C   0  0  0  0  0  0  0  0  0  0  0  0
    0.1560  -14.0680    3.9660 C   0  0  0  0  0  0  0  0  0  0  0  0
   -1.1780  -14.0970    3.2330 C   0  0  0  0  0  0  0  0  0  0  0  0
   -1.1440  -13.5490    1.7760 C   0  0  1  0  0  0  0  0  0  0  0  0
   -2.8410  -13.8800    1.0230 S   0  0  0  0  0  0  0  0  0  0  0  0
   -3.3220  -12.6770    0.3710 O   0  0  0  0  0  0  0  0  0  0  0  0
   -2.8090  -15.1310    0.2890 O   0  0  0  0  0  0  0  0  0  0  0  0
   -3.9370  -14.1460    2.4110 C   0  0  0  0  0  0  0  0  0  0  0  0
   -5.0020  -13.2670    2.6290 C   0  0  0  0  0  0  0  0  0  0  0  0
   -5.8710  -13.4870    3.7010 C   0  0  0  0  0  0  0  0  0  0  0  0
   -5.7050  -14.6000    4.5400 C   0  0  0  0  0  0  0  0  0  0  0  0
   -6.6310  -14.8240    5.7150 C   0  0  0  0  0  0  0  0  0  0  0  0
   -6.7660  -13.6970    6.4670 F   0  0  0  0  0  0  0  0  0  0  0  0
   -6.1880  -15.7910    6.5630 F   0  0  0  0  0  0  0  0  0  0  0  0
   -7.8890  -15.1860    5.3480 F   0  0  0  0  0  0  0  0  0  0  0  0
   -4.6530  -15.4940    4.2840 C   0  0  0  0  0  0  0  0  0  0  0  0
   -3.7800  -15.2800    3.2140 C   0  0  0  0  0  0  0  0  0  0  0  0
   -0.9610  -12.0320    1.6190 C   0  0  0  0  0  0  0  0  0  0  0  0
   -1.6380  -11.1070    2.4280 C   0  0  0  0  0  0  0  0  0  0  0  0
   -2.4740  -11.5290    3.3820 F   0  0  0  0  0  0  0  0  0  0  0  0
   -1.4640   -9.7290    2.2860 C   0  0  0  0  0  0  0  0  0  0  0  0
   -0.5920   -9.2320    1.3240 C   0  0  0  0  0  0  0  0  0  0  0  0
    0.0850  -10.1230    0.5030 C   0  0  0  0  0  0  0  0  0  0  0  0
    0.9630   -9.6500   -0.3940 F   0  0  0  0  0  0  0  0  0  0  0  0
   -0.1100  -11.5040    0.6210 C   0  0  0  0  0  0  0  0  0  0  0  0
    0.6400  -12.2810   -0.2400 O   0  0  0  0  0  0  0  0  0  0  0  0
    0.1310  -13.6040   -0.3850 C   0  0  0  0  0  0  0  0  0  0  0  0
    0.0230  -14.2450    0.9970 C   0  0  1  0  0  0  0  0  0  0  0  0
    4.6599  -18.1115   -0.7218 H   0  0  0  0  0  0  0  0  0  0  0  0
    3.7271  -19.2820    0.1779 H   0  0  0  0  0  0  0  0  0  0  0  0
    2.6849  -18.1197   -2.0412 H   0  0  0  0  0  0  0  0  0  0  0  0
    1.6171  -18.3921   -0.6502 H   0  0  0  0  0  0  0  0  0  0  0  0
    3.1465  -15.8148   -1.3793 H   0  0  0  0  0  0  0  0  0  0  0  0
    1.3845  -16.0098   -1.2692 H   0  0  0  0  0  0  0  0  0  0  0  0
    1.5970  -16.4420    1.0910 H   0  0  0  0  0  0  0  0  0  0  0  0
    3.5045  -14.5681    1.7113 H   0  0  0  0  0  0  0  0  0  0  0  0
    2.8017  -13.9962    0.1564 H   0  0  0  0  0  0  0  0  0  0  0  0
    1.5634  -13.0235    1.9183 H   0  0  0  0  0  0  0  0  0  0  0  0
    0.9703  -15.8309    3.0284 H   0  0  0  0  0  0  0  0  0  0  0  0
    2.1985  -14.7098    3.7062 H   0  0  0  0  0  0  0  0  0  0  0  0
    0.0422  -14.5717    4.9373 H   0  0  0  0  0  0  0  0  0  0  0  0
    0.4533  -13.0181    4.1047 H   0  0  0  0  0  0  0  0  0  0  0  0
   -1.5239  -15.1405    3.1964 H   0  0  0  0  0  0  0  0  0  0  0  0
   -1.8502  -13.4316    3.7946 H   0  0  0  0  0  0  0  0  0  0  0  0
   -5.1551  -12.4070    1.9604 H   0  0  0  0  0  0  0  0  0  0  0  0
   -6.6933  -12.7810    3.8892 H   0  0  0  0  0  0  0  0  0  0  0  0
   -4.5146  -16.3718    4.9323 H   0  0  0  0  0  0  0  0  0  0  0  0
   -2.9743  -15.9991    3.0047 H   0  0  0  0  0  0  0  0  0  0  0  0
   -2.0176   -9.0356    2.9362 H   0  0  0  0  0  0  0  0  0  0  0  0
   -0.4408   -8.1479    1.2151 H   0  0  0  0  0  0  0  0  0  0  0  0
   -0.8632  -13.5681   -0.8544 H   0  0  0  0  0  0  0  0  0  0  0  0
    0.8065  -14.1965   -1.0196 H   0  0  0  0  0  0  0  0  0  0  0  0
   -0.1845  -15.3197    0.8876 H   0  0  0  0  0  0  0  0  0  0  0  0
  1  2  2  0
  2  3  2  0
  2  4  1  0
  4  5  1  0
  5  6  1  0
  6  7  1  0
  7  8  1  0
  8  9  1  0
  9 10  1  0
 10 11  1  0
 11 12  1  0
 12 13  1  0
 13 14  1  6
 14 15  2  0
 14 16  2  0
 14 17  1  0
 17 18  2  0
 18 19  1  0
 19 20  2  0
 20 21  1  0
 21 22  1  0
 21 23  1  0
 21 24  1  0
 20 25  1  0
 25 26  2  0
 13 27  1  0
 27 28  2  0
 28 29  1  0
 28 30  1  0
 30 31  2  0
 31 32  1  0
 32 33  1  0
 32 34  2  0
 34 35  1  0
 35 36  1  0
 36 37  1  0
  7  2  1  0
 37  9  1  0
 37 13  1  0
 26 17  1  0
 34 27  1  0
  4 38  1  0
  4 39  1  0
  5 40  1  0
  5 41  1  0
  6 42  1  0
  6 43  1  0
  7 44  1  0
  8 45  1  0
  8 46  1  0
  9 47  1  1
 10 48  1  0
 10 49  1  0
 11 50  1  0
 11 51  1  0
 12 52  1  0
 12 53  1  0
 18 54  1  0
 19 55  1  0
 25 56  1  0
 26 57  1  0
 30 58  1  0
 31 59  1  0
 36 60  1  0
 36 61  1  0
 37 62  1  6
M  CHG  1   7   1
M  END
>  <meeko>  (4) 
{"is_sidechain": [false], "free_energy": -8.267, "intermolecular_energy": -11.459, "internal_energy": -0.867}

$$$$
LIB_OHXCLBVZKIOYOG__M_PUB_ALL__e8__s20260927
     RDKit          3D

 62 66  0  0  0  0  0  0  0  0999 V2000
   -2.2010  -10.2330    0.8770 O   0  0  0  0  0  0  0  0  0  0  0  0
   -0.8140   -9.9710    1.1540 S   0  0  0  0  0  0  0  0  0  0  0  0
   -0.3150   -8.8010    1.8260 O   0  0  0  0  0  0  0  0  0  0  0  0
    0.2180  -10.4370   -0.2330 C   0  0  0  0  0  0  0  0  0  0  0  0
    1.1190  -11.4980    0.3760 C   0  0  0  0  0  0  0  0  0  0  0  0
    0.2820  -12.2280    1.4290 C   0  0  0  0  0  0  0  0  0  0  0  0
   -0.3690  -11.1740    2.2660 N   0  0  0  0  0  0  0  0  0  0  0  0
   -1.5140  -11.5650    3.1450 C   0  0  0  0  0  0  0  0  0  0  0  0
   -1.3880  -13.0510    3.5450 C   0  0  2  0  0  0  0  0  0  0  0  0
   -0.0420  -13.3310    4.2170 C   0  0  0  0  0  0  0  0  0  0  0  0
   -0.0540  -14.7340    4.8110 C   0  0  0  0  0  0  0  0  0  0  0  0
   -0.3300  -15.7840    3.7420 C   0  0  0  0  0  0  0  0  0  0  0  0
   -1.6170  -15.5460    2.8980 C   0  0  1  0  0  0  0  0  0  0  0  0
   -1.6250  -16.8420    1.5290 S   0  0  0  0  0  0  0  0  0  0  0  0
   -0.8530  -17.9940    1.9500 O   0  0  0  0  0  0  0  0  0  0  0  0
   -2.9800  -17.0240    1.0440 O   0  0  0  0  0  0  0  0  0  0  0  0
   -0.7070  -16.1150    0.1760 C   0  0  0  0  0  0  0  0  0  0  0  0
    0.6760  -15.9510    0.2900 C   0  0  0  0  0  0  0  0  0  0  0  0
    1.3970  -15.4020   -0.7740 C   0  0  0  0  0  0  0  0  0  0  0  0
    0.7500  -15.0470   -1.9680 C   0  0  0  0  0  0  0  0  0  0  0  0
    1.5260  -14.4300   -3.1110 C   0  0  0  0  0  0  0  0  0  0  0  0
    0.9410  -14.6910   -4.3120 F   0  0  0  0  0  0  0  0  0  0  0  0
    2.8000  -14.8980   -3.2030 F   0  0  0  0  0  0  0  0  0  0  0  0
    1.6240  -13.0760   -3.0250 F   0  0  0  0  0  0  0  0  0  0  0  0
   -0.6340  -15.2530   -2.0800 C   0  0  0  0  0  0  0  0  0  0  0  0
   -1.3610  -15.8010   -1.0190 C   0  0  0  0  0  0  0  0  0  0  0  0
   -2.9570  -15.7610    3.6180 C   0  0  0  0  0  0  0  0  0  0  0  0
   -3.1810  -16.8490    4.4770 C   0  0  0  0  0  0  0  0  0  0  0  0
   -2.2120  -17.7410    4.7030 F   0  0  0  0  0  0  0  0  0  0  0  0
   -4.3980  -17.0380    5.1340 C   0  0  0  0  0  0  0  0  0  0  0  0
   -5.4360  -16.1300    4.9530 C   0  0  0  0  0  0  0  0  0  0  0  0
   -5.2470  -15.0500    4.1020 C   0  0  0  0  0  0  0  0  0  0  0  0
   -6.2280  -14.1470    3.9610 F   0  0  0  0  0  0  0  0  0  0  0  0
   -4.0390  -14.8740    3.4170 C   0  0  0  0  0  0  0  0  0  0  0  0
   -3.9720  -13.7480    2.6200 O   0  0  0  0  0  0  0  0  0  0  0  0
   -2.9330  -13.8150    1.6460 C   0  0  0  0  0  0  0  0  0  0  0  0
   -1.6070  -14.0760    2.3570 C   0  0  1  0  0  0  0  0  0  0  0  0
   -0.3836  -10.8499   -1.0562 H   0  0  0  0  0  0  0  0  0  0  0  0
    0.7679   -9.5935   -0.6759 H   0  0  0  0  0  0  0  0  0  0  0  0
    1.4532  -12.2032   -0.3993 H   0  0  0  0  0  0  0  0  0  0  0  0
    2.0167  -11.0474    0.8244 H   0  0  0  0  0  0  0  0  0  0  0  0
   -0.4824  -12.8505    0.9410 H   0  0  0  0  0  0  0  0  0  0  0  0
    0.9092  -12.8903    2.0438 H   0  0  0  0  0  0  0  0  0  0  0  0
    0.3500  -10.6730    2.8020 H   0  0  0  0  0  0  0  0  0  0  0  0
   -1.5070  -10.9418    4.0514 H   0  0  0  0  0  0  0  0  0  0  0  0
   -2.4567  -11.4166    2.5980 H   0  0  0  0  0  0  0  0  0  0  0  0
   -2.2111  -13.2162    4.2558 H   0  0  0  0  0  0  0  0  0  0  0  0
    0.7631  -13.2552    3.4713 H   0  0  0  0  0  0  0  0  0  0  0  0
    0.1291  -12.5953    5.0167 H   0  0  0  0  0  0  0  0  0  0  0  0
    0.9250  -14.9377    5.2694 H   0  0  0  0  0  0  0  0  0  0  0  0
   -0.8540  -14.7859    5.5642 H   0  0  0  0  0  0  0  0  0  0  0  0
    0.5289  -15.8047    3.0550 H   0  0  0  0  0  0  0  0  0  0  0  0
   -0.4861  -16.7321    4.2774 H   0  0  0  0  0  0  0  0  0  0  0  0
    1.1944  -16.2524    1.2122 H   0  0  0  0  0  0  0  0  0  0  0  0
    2.4815  -15.2467   -0.6748 H   0  0  0  0  0  0  0  0  0  0  0  0
   -1.1516  -14.9806   -3.0116 H   0  0  0  0  0  0  0  0  0  0  0  0
   -2.4406  -15.9839   -1.1238 H   0  0  0  0  0  0  0  0  0  0  0  0
   -4.5363  -17.9059    5.7955 H   0  0  0  0  0  0  0  0  0  0  0  0
   -6.3935  -16.2660    5.4771 H   0  0  0  0  0  0  0  0  0  0  0  0
   -3.1407  -14.6323    0.9397 H   0  0  0  0  0  0  0  0  0  0  0  0
   -2.8791  -12.8664    1.0916 H   0  0  0  0  0  0  0  0  0  0  0  0
   -0.7773  -13.9402    1.6477 H   0  0  0  0  0  0  0  0  0  0  0  0
  1  2  2  0
  2  3  2  0
  2  4  1  0
  4  5  1  0
  5  6  1  0
  6  7  1  0
  7  8  1  0
  8  9  1  0
  9 10  1  0
 10 11  1  0
 11 12  1  0
 12 13  1  0
 13 14  1  6
 14 15  2  0
 14 16  2  0
 14 17  1  0
 17 18  2  0
 18 19  1  0
 19 20  2  0
 20 21  1  0
 21 22  1  0
 21 23  1  0
 21 24  1  0
 20 25  1  0
 25 26  2  0
 13 27  1  0
 27 28  2  0
 28 29  1  0
 28 30  1  0
 30 31  2  0
 31 32  1  0
 32 33  1  0
 32 34  2  0
 34 35  1  0
 35 36  1  0
 36 37  1  0
  7  2  1  0
 37  9  1  0
 37 13  1  0
 26 17  1  0
 34 27  1  0
  4 38  1  0
  4 39  1  0
  5 40  1  0
  5 41  1  0
  6 42  1  0
  6 43  1  0
  7 44  1  0
  8 45  1  0
  8 46  1  0
  9 47  1  1
 10 48  1  0
 10 49  1  0
 11 50  1  0
 11 51  1  0
 12 52  1  0
 12 53  1  0
 18 54  1  0
 19 55  1  0
 25 56  1  0
 26 57  1  0
 30 58  1  0
 31 59  1  0
 36 60  1  0
 36 61  1  0
 37 62  1  6
M  CHG  1   7   1
M  END
>  <meeko>  (5) 
{"is_sidechain": [false], "free_energy": -8.144, "intermolecular_energy": -11.266, "internal_energy": -0.9}

$$$$
LIB_OHXCLBVZKIOYOG__M_PUB_ALL__e8__s20260927
     RDKit          3D

 62 66  0  0  0  0  0  0  0  0999 V2000
    6.6480  -10.8420   -0.6580 O   0  0  0  0  0  0  0  0  0  0  0  0
    6.8990  -11.9390    0.2390 S   0  0  0  0  0  0  0  0  0  0  0  0
    6.6750  -11.9100    1.6590 O   0  0  0  0  0  0  0  0  0  0  0  0
    8.4250  -12.7760   -0.1810 C   0  0  0  0  0  0  0  0  0  0  0  0
    7.9460  -14.1840   -0.4960 C   0  0  0  0  0  0  0  0  0  0  0  0
    6.5540  -14.0400   -1.1160 C   0  0  0  0  0  0  0  0  0  0  0  0
    5.7780  -13.1280   -0.2220 N   0  0  0  0  0  0  0  0  0  0  0  0
    4.5120  -12.5230   -0.7420 C   0  0  0  0  0  0  0  0  0  0  0  0
    3.4730  -13.6310   -1.0180 C   0  0  2  0  0  0  0  0  0  0  0  0
    2.7540  -13.3960   -2.3490 C   0  0  0  0  0  0  0  0  0  0  0  0
    1.9230  -14.6250   -2.6990 C   0  0  0  0  0  0  0  0  0  0  0  0
    0.9080  -14.9340   -1.6070 C   0  0  0  0  0  0  0  0  0  0  0  0
    1.5000  -15.0770   -0.1750 C   0  0  1  0  0  0  0  0  0  0  0  0
    0.0430  -15.2480    1.0100 S   0  0  0  0  0  0  0  0  0  0  0  0
   -1.0940  -15.8020    0.3000 O   0  0  0  0  0  0  0  0  0  0  0  0
    0.4910  -15.8680    2.2420 O   0  0  0  0  0  0  0  0  0  0  0  0
   -0.4260  -13.5750    1.4370 C   0  0  0  0  0  0  0  0  0  0  0  0
   -0.8250  -12.6910    0.4310 C   0  0  0  0  0  0  0  0  0  0  0  0
   -1.2100  -11.3910    0.7660 C   0  0  0  0  0  0  0  0  0  0  0  0
   -1.2340  -10.9750    2.1070 C   0  0  0  0  0  0  0  0  0  0  0  0
   -1.6280   -9.5600    2.4680 C   0  0  0  0  0  0  0  0  0  0  0  0
   -2.0020   -9.4630    3.7740 F   0  0  0  0  0  0  0  0  0  0  0  0
   -2.6800   -9.0980    1.7390 F   0  0  0  0  0  0  0  0  0  0  0  0
   -0.6210   -8.6610    2.2960 F   0  0  0  0  0  0  0  0  0  0  0  0
   -0.8660  -11.8880    3.1090 C   0  0  0  0  0  0  0  0  0  0  0  0
   -0.4790  -13.1890    2.7800 C   0  0  0  0  0  0  0  0  0  0  0  0
    2.3440  -16.3320    0.0960 C   0  0  0  0  0  0  0  0  0  0  0  0
    1.9630  -17.6050   -0.3590 C   0  0  0  0  0  0  0  0  0  0  0  0
    0.8360  -17.7610   -1.0600 F   0  0  0  0  0  0  0  0  0  0  0  0
    2.7350  -18.7420   -0.1160 C   0  0  0  0  0  0  0  0  0  0  0  0
    3.9280  -18.6360    0.5910 C   0  0  0  0  0  0  0  0  0  0  0  0
    4.3260  -17.3930    1.0600 C   0  0  0  0  0  0  0  0  0  0  0  0
    5.4980  -17.2780    1.7010 F   0  0  0  0  0  0  0  0  0  0  0  0
    3.5390  -16.2550    0.8470 C   0  0  0  0  0  0  0  0  0  0  0  0
    4.0590  -15.0760    1.3460 O   0  0  0  0  0  0  0  0  0  0  0  0
    3.0800  -14.0490    1.4820 C   0  0  0  0  0  0  0  0  0  0  0  0
    2.4010  -13.8330    0.1320 C   0  0  1  0  0  0  0  0  0  0  0  0
    8.9053  -12.3135   -1.0559 H   0  0  0  0  0  0  0  0  0  0  0  0
    9.1828  -12.7363    0.6154 H   0  0  0  0  0  0  0  0  0  0  0  0
    8.6309  -14.6683   -1.2076 H   0  0  0  0  0  0  0  0  0  0  0  0
    7.9157  -14.8064    0.4105 H   0  0  0  0  0  0  0  0  0  0  0  0
    6.6310  -13.6072   -2.1243 H   0  0  0  0  0  0  0  0  0  0  0  0
    6.0592  -15.0180   -1.2091 H   0  0  0  0  0  0  0  0  0  0  0  0
    5.6180  -13.5910    0.6810 H   0  0  0  0  0  0  0  0  0  0  0  0
    4.1089  -11.8232    0.0048 H   0  0  0  0  0  0  0  0  0  0  0  0
    4.7256  -11.9864   -1.6782 H   0  0  0  0  0  0  0  0  0  0  0  0
    4.0628  -14.5585   -1.0615 H   0  0  0  0  0  0  0  0  0  0  0  0
    2.0945  -12.5201   -2.2603 H   0  0  0  0  0  0  0  0  0  0  0  0
    3.4960  -13.2163   -3.1409 H   0  0  0  0  0  0  0  0  0  0  0  0
    1.3892  -14.4400   -3.6428 H   0  0  0  0  0  0  0  0  0  0  0  0
    2.6003  -15.4861   -2.7981 H   0  0  0  0  0  0  0  0  0  0  0  0
    0.1680  -14.1203   -1.5898 H   0  0  0  0  0  0  0  0  0  0  0  0
    0.4768  -15.9141   -1.8589 H   0  0  0  0  0  0  0  0  0  0  0  0
   -0.8358  -13.0174   -0.6194 H   0  0  0  0  0  0  0  0  0  0  0  0
   -1.4972  -10.6862   -0.0282 H   0  0  0  0  0  0  0  0  0  0  0  0
   -0.8828  -11.5752    4.1634 H   0  0  0  0  0  0  0  0  0  0  0  0
   -0.2175  -13.9057    3.5725 H   0  0  0  0  0  0  0  0  0  0  0  0
    2.3996  -19.7229   -0.4840 H   0  0  0  0  0  0  0  0  0  0  0  0
    4.5475  -19.5260    0.7757 H   0  0  0  0  0  0  0  0  0  0  0  0
    2.3303  -14.3497    2.2287 H   0  0  0  0  0  0  0  0  0  0  0  0
    3.5610  -13.1162    1.8114 H   0  0  0  0  0  0  0  0  0  0  0  0
    1.7858  -12.9221    0.1738 H   0  0  0  0  0  0  0  0  0  0  0  0
  1  2  2  0
  2  3  2  0
  2  4  1  0
  4  5  1  0
  5  6  1  0
  6  7  1  0
  7  8  1  0
  8  9  1  0
  9 10  1  0
 10 11  1  0
 11 12  1  0
 12 13  1  0
 13 14  1  1
 14 15  2  0
 14 16  2  0
 14 17  1  0
 17 18  2  0
 18 19  1  0
 19 20  2  0
 20 21  1  0
 21 22  1  0
 21 23  1  0
 21 24  1  0
 20 25  1  0
 25 26  2  0
 13 27  1  0
 27 28  2  0
 28 29  1  0
 28 30  1  0
 30 31  2  0
 31 32  1  0
 32 33  1  0
 32 34  2  0
 34 35  1  0
 35 36  1  0
 36 37  1  0
  7  2  1  0
 37  9  1  0
 37 13  1  0
 26 17  1  0
 34 27  1  0
  4 38  1  0
  4 39  1  0
  5 40  1  0
  5 41  1  0
  6 42  1  0
  6 43  1  0
  7 44  1  0
  8 45  1  0
  8 46  1  0
  9 47  1  6
 10 48  1  0
 10 49  1  0
 11 50  1  0
 11 51  1  0
 12 52  1  0
 12 53  1  0
 18 54  1  0
 19 55  1  0
 25 56  1  0
 26 57  1  0
 30 58  1  0
 31 59  1  0
 36 60  1  0
 36 61  1  0
 37 62  1  1
M  CHG  1   7   1
M  END
>  <meeko>  (6) 
{"is_sidechain": [false], "free_energy": -8.017, "intermolecular_energy": -10.317, "internal_energy": -1.685}

$$$$
LIB_OHXCLBVZKIOYOG__M_PUB_ALL__e8__s20260927
     RDKit          3D

 62 66  0  0  0  0  0  0  0  0999 V2000
    6.4720  -13.7440   -7.2030 O   0  0  0  0  0  0  0  0  0  0  0  0
    7.1850  -14.6990   -6.3970 S   0  0  0  0  0  0  0  0  0  0  0  0
    8.5090  -14.5070   -5.8700 O   0  0  0  0  0  0  0  0  0  0  0  0
    6.9440  -16.3630   -7.0100 C   0  0  0  0  0  0  0  0  0  0  0  0
    6.2840  -17.0520   -5.8270 C   0  0  0  0  0  0  0  0  0  0  0  0
    5.4270  -15.9920   -5.1300 C   0  0  0  0  0  0  0  0  0  0  0  0
    6.2920  -14.7870   -4.9560 N   0  0  0  0  0  0  0  0  0  0  0  0
    5.6420  -13.4800   -4.6270 C   0  0  0  0  0  0  0  0  0  0  0  0
    4.3270  -13.7250   -3.8560 C   0  0  2  0  0  0  0  0  0  0  0  0
    3.1430  -13.0530   -4.5530 C   0  0  0  0  0  0  0  0  0  0  0  0
    1.8440  -13.5170   -3.9050 C   0  0  0  0  0  0  0  0  0  0  0  0
    1.8230  -13.1930   -2.4170 C   0  0  0  0  0  0  0  0  0  0  0  0
    3.0440  -13.7200   -1.6080 C   0  0  1  0  0  0  0  0  0  0  0  0
    2.8920  -13.0240    0.1370 S   0  0  0  0  0  0  0  0  0  0  0  0
    2.8440  -14.1150    1.0900 O   0  0  0  0  0  0  0  0  0  0  0  0
    3.8560  -11.9550    0.3170 O   0  0  0  0  0  0  0  0  0  0  0  0
    1.2780  -12.2540    0.2070 C   0  0  0  0  0  0  0  0  0  0  0  0
    0.2010  -12.9570    0.7540 C   0  0  0  0  0  0  0  0  0  0  0  0
   -1.0560  -12.3490    0.8260 C   0  0  0  0  0  0  0  0  0  0  0  0
   -1.2380  -11.0280    0.3880 C   0  0  0  0  0  0  0  0  0  0  0  0
   -2.6030  -10.3780    0.4440 C   0  0  0  0  0  0  0  0  0  0  0  0
   -3.0690  -10.0860   -0.8020 F   0  0  0  0  0  0  0  0  0  0  0  0
   -2.6050   -9.2040    1.1310 F   0  0  0  0  0  0  0  0  0  0  0  0
   -3.5480  -11.1630    1.0270 F   0  0  0  0  0  0  0  0  0  0  0  0
   -0.1360  -10.3230   -0.1240 C   0  0  0  0  0  0  0  0  0  0  0  0
    1.1220  -10.9260   -0.2010 C   0  0  0  0  0  0  0  0  0  0  0  0
    3.1200  -15.2390   -1.3930 C   0  0  0  0  0  0  0  0  0  0  0  0
    1.9930  -16.0050   -1.0520 C   0  0  0  0  0  0  0  0  0  0  0  0
    0.7990  -15.4230   -0.9080 F   0  0  0  0  0  0  0  0  0  0  0  0
    2.0650  -17.3870   -0.8630 C   0  0  0  0  0  0  0  0  0  0  0  0
    3.2770  -18.0500   -1.0190 C   0  0  0  0  0  0  0  0  0  0  0  0
    4.4090  -17.3180   -1.3480 C   0  0  0  0  0  0  0  0  0  0  0  0
    5.5700  -17.9580   -1.5470 F   0  0  0  0  0  0  0  0  0  0  0  0
    4.3490  -15.9280   -1.5070 C   0  0  0  0  0  0  0  0  0  0  0  0
    5.5400  -15.3220   -1.8560 O   0  0  0  0  0  0  0  0  0  0  0  0
    5.5460  -13.9180   -1.6070 C   0  0  0  0  0  0  0  0  0  0  0  0
    4.3620  -13.2840   -2.3340 C   0  0  1  0  0  0  0  0  0  0  0  0
    6.2876  -16.3711   -7.8926 H   0  0  0  0  0  0  0  0  0  0  0  0
    7.8736  -16.8495   -7.3403 H   0  0  0  0  0  0  0  0  0  0  0  0
    5.6525  -17.8828   -6.1749 H   0  0  0  0  0  0  0  0  0  0  0  0
    7.0348  -17.4710   -5.1409 H   0  0  0  0  0  0  0  0  0  0  0  0
    4.5523  -15.7445   -5.7493 H   0  0  0  0  0  0  0  0  0  0  0  0
    5.0574  -16.3570   -4.1604 H   0  0  0  0  0  0  0  0  0  0  0  0
    7.0420  -15.0000   -4.2870 H   0  0  0  0  0  0  0  0  0  0  0  0
    6.3230  -12.8806   -4.0049 H   0  0  0  0  0  0  0  0  0  0  0  0
    5.4192  -12.9419   -5.5602 H   0  0  0  0  0  0  0  0  0  0  0  0
    4.2027  -14.8179   -3.8624 H   0  0  0  0  0  0  0  0  0  0  0  0
    3.2318  -11.9609   -4.4561 H   0  0  0  0  0  0  0  0  0  0  0  0
    3.1403  -13.3268   -5.6184 H   0  0  0  0  0  0  0  0  0  0  0  0
    0.9986  -13.0110   -4.3941 H   0  0  0  0  0  0  0  0  0  0  0  0
    1.7659  -14.6077   -4.0246 H   0  0  0  0  0  0  0  0  0  0  0  0
    1.7882  -12.0991   -2.3071 H   0  0  0  0  0  0  0  0  0  0  0  0
    0.9399  -13.7036   -2.0053 H   0  0  0  0  0  0  0  0  0  0  0  0
    0.3415  -13.9827    1.1257 H   0  0  0  0  0  0  0  0  0  0  0  0
   -1.9107  -12.9115    1.2299 H   0  0  0  0  0  0  0  0  0  0  0  0
   -0.2648   -9.2860   -0.4677 H   0  0  0  0  0  0  0  0  0  0  0  0
    1.9848  -10.3590   -0.5805 H   0  0  0  0  0  0  0  0  0  0  0  0
    1.1613  -17.9517   -0.5903 H   0  0  0  0  0  0  0  0  0  0  0  0
    3.3378  -19.1399   -0.8835 H   0  0  0  0  0  0  0  0  0  0  0  0
    5.4577  -13.7339   -0.5261 H   0  0  0  0  0  0  0  0  0  0  0  0
    6.4865  -13.4781   -1.9702 H   0  0  0  0  0  0  0  0  0  0  0  0
    4.4613  -12.1887   -2.3105 H   0  0  0  0  0  0  0  0  0  0  0  0
  1  2  2  0
  2  3  2  0
  2  4  1  0
  4  5  1  0
  5  6  1  0
  6  7  1  0
  7  8  1  0
  8  9  1  0
  9 10  1  0
 10 11  1  0
 11 12  1  0
 12 13  1  0
 13 14  1  1
 14 15  2  0
 14 16  2  0
 14 17  1  0
 17 18  2  0
 18 19  1  0
 19 20  2  0
 20 21  1  0
 21 22  1  0
 21 23  1  0
 21 24  1  0
 20 25  1  0
 25 26  2  0
 13 27  1  0
 27 28  2  0
 28 29  1  0
 28 30  1  0
 30 31  2  0
 31 32  1  0
 32 33  1  0
 32 34  2  0
 34 35  1  0
 35 36  1  0
 36 37  1  0
  7  2  1  0
 37  9  1  0
 37 13  1  0
 26 17  1  0
 34 27  1  0
  4 38  1  0
  4 39  1  0
  5 40  1  0
  5 41  1  0
  6 42  1  0
  6 43  1  0
  7 44  1  0
  8 45  1  0
  8 46  1  0
  9 47  1  1
 10 48  1  0
 10 49  1  0
 11 50  1  0
 11 51  1  0
 12 52  1  0
 12 53  1  0
 18 54  1  0
 19 55  1  0
 25 56  1  0
 26 57  1  0
 30 58  1  0
 31 59  1  0
 36 60  1  0
 36 61  1  0
 37 62  1  6
M  CHG  1   7   1
M  END
>  <meeko>  (7) 
{"is_sidechain": [false], "free_energy": -7.937, "intermolecular_energy": -10.525, "internal_energy": -1.374}

$$$$
LIB_OHXCLBVZKIOYOG__M_PUB_ALL__e8__s20260927
     RDKit          3D

 62 66  0  0  0  0  0  0  0  0999 V2000
    9.8720  -13.7060   -0.2270 O   0  0  0  0  0  0  0  0  0  0  0  0
    9.9010  -13.8970   -1.6530 S   0  0  0  0  0  0  0  0  0  0  0  0
   10.3320  -15.0990   -2.3140 O   0  0  0  0  0  0  0  0  0  0  0  0
   10.4900  -12.4260   -2.4860 C   0  0  0  0  0  0  0  0  0  0  0  0
    9.3050  -12.0520   -3.3610 C   0  0  0  0  0  0  0  0  0  0  0  0
    8.0480  -12.4600   -2.5870 C   0  0  0  0  0  0  0  0  0  0  0  0
    8.2680  -13.8610   -2.1180 N   0  0  0  0  0  0  0  0  0  0  0  0
    7.3770  -14.4070   -1.0480 C   0  0  0  0  0  0  0  0  0  0  0  0
    6.1220  -13.5180   -0.9040 C   0  0  2  0  0  0  0  0  0  0  0  0
    6.0960  -12.8140    0.4540 C   0  0  0  0  0  0  0  0  0  0  0  0
    4.9870  -11.7690    0.4620 C   0  0  0  0  0  0  0  0  0  0  0  0
    3.6310  -12.4030    0.1790 C   0  0  0  0  0  0  0  0  0  0  0  0
    3.5570  -13.2540   -1.1220 C   0  0  1  0  0  0  0  0  0  0  0  0
    1.8660  -14.0870   -1.1410 S   0  0  0  0  0  0  0  0  0  0  0  0
    1.1960  -13.7900   -2.3920 O   0  0  0  0  0  0  0  0  0  0  0  0
    2.0010  -15.4650   -0.7090 O   0  0  0  0  0  0  0  0  0  0  0  0
    0.9110  -13.2610    0.1250 C   0  0  0  0  0  0  0  0  0  0  0  0
    0.2060  -12.0960   -0.1910 C   0  0  0  0  0  0  0  0  0  0  0  0
   -0.5560  -11.4610    0.7930 C   0  0  0  0  0  0  0  0  0  0  0  0
   -0.6500  -12.0010    2.0850 C   0  0  0  0  0  0  0  0  0  0  0  0
   -1.4550  -11.3010    3.1570 C   0  0  0  0  0  0  0  0  0  0  0  0
   -1.3400   -9.9470    3.0660 F   0  0  0  0  0  0  0  0  0  0  0  0
   -1.0610  -11.6290    4.4180 F   0  0  0  0  0  0  0  0  0  0  0  0
   -2.7870  -11.5710    3.0920 F   0  0  0  0  0  0  0  0  0  0  0  0
    0.0340  -13.1930    2.3760 C   0  0  0  0  0  0  0  0  0  0  0  0
    0.7990  -13.8320    1.3970 C   0  0  0  0  0  0  0  0  0  0  0  0
    3.6020  -12.4820   -2.4500 C   0  0  0  0  0  0  0  0  0  0  0  0
    2.8810  -11.2940   -2.6510 C   0  0  0  0  0  0  0  0  0  0  0  0
    2.1250  -10.7890   -1.6720 F   0  0  0  0  0  0  0  0  0  0  0  0
    2.9290  -10.5920   -3.8570 C   0  0  0  0  0  0  0  0  0  0  0  0
    3.7140  -11.0590   -4.9050 C   0  0  0  0  0  0  0  0  0  0  0  0
    4.4320  -12.2350   -4.7380 C   0  0  0  0  0  0  0  0  0  0  0  0
    5.2280  -12.6640   -5.7280 F   0  0  0  0  0  0  0  0  0  0  0  0
    4.3620  -12.9590   -3.5420 C   0  0  0  0  0  0  0  0  0  0  0  0
    5.1410  -14.0990   -3.4960 O   0  0  0  0  0  0  0  0  0  0  0  0
    4.7420  -15.0060   -2.4710 C   0  0  0  0  0  0  0  0  0  0  0  0
    4.7480  -14.2720   -1.1330 C   0  0  1  0  0  0  0  0  0  0  0  0
   10.7218  -11.6268   -1.7666 H   0  0  0  0  0  0  0  0  0  0  0  0
   11.4215  -12.5825   -3.0498 H   0  0  0  0  0  0  0  0  0  0  0  0
    9.2996  -10.9685   -3.5508 H   0  0  0  0  0  0  0  0  0  0  0  0
    9.3543  -12.5590   -4.3359 H   0  0  0  0  0  0  0  0  0  0  0  0
    7.8990  -11.7912   -1.7265 H   0  0  0  0  0  0  0  0  0  0  0  0
    7.1527  -12.3917   -3.2224 H   0  0  0  0  0  0  0  0  0  0  0  0
    8.2940  -14.4920   -2.9300 H   0  0  0  0  0  0  0  0  0  0  0  0
    7.0710  -15.4294   -1.3148 H   0  0  0  0  0  0  0  0  0  0  0  0
    7.9234  -14.4193   -0.0934 H   0  0  0  0  0  0  0  0  0  0  0  0
    6.2118  -12.7801   -1.7148 H   0  0  0  0  0  0  0  0  0  0  0  0
    5.9093  -13.5532    1.2469 H   0  0  0  0  0  0  0  0  0  0  0  0
    7.0642  -12.3232    0.6317 H   0  0  0  0  0  0  0  0  0  0  0  0
    4.9576  -11.2845    1.4491 H   0  0  0  0  0  0  0  0  0  0  0  0
    5.1979  -11.0311   -0.3260 H   0  0  0  0  0  0  0  0  0  0  0  0
    3.3764  -13.0552    1.0274 H   0  0  0  0  0  0  0  0  0  0  0  0
    2.9270  -11.5694    0.0395 H   0  0  0  0  0  0  0  0  0  0  0  0
    0.2509  -11.6814   -1.2089 H   0  0  0  0  0  0  0  0  0  0  0  0
   -1.0876  -10.5285    0.5526 H   0  0  0  0  0  0  0  0  0  0  0  0
   -0.0333  -13.6275    3.3843 H   0  0  0  0  0  0  0  0  0  0  0  0
    1.3103  -14.7788    1.6252 H   0  0  0  0  0  0  0  0  0  0  0  0
    2.3447   -9.6679   -3.9781 H   0  0  0  0  0  0  0  0  0  0  0  0
    3.7654  -10.5042   -5.8534 H   0  0  0  0  0  0  0  0  0  0  0  0
    3.7295  -15.3803   -2.6825 H   0  0  0  0  0  0  0  0  0  0  0  0
    5.4388  -15.8563   -2.4332 H   0  0  0  0  0  0  0  0  0  0  0  0
    4.6315  -14.9988   -0.3156 H   0  0  0  0  0  0  0  0  0  0  0  0
  1  2  2  0
  2  3  2  0
  2  4  1  0
  4  5  1  0
  5  6  1  0
  6  7  1  0
  7  8  1  0
  8  9  1  0
  9 10  1  0
 10 11  1  0
 11 12  1  0
 12 13  1  0
 13 14  1  1
 14 15  2  0
 14 16  2  0
 14 17  1  0
 17 18  2  0
 18 19  1  0
 19 20  2  0
 20 21  1  0
 21 22  1  0
 21 23  1  0
 21 24  1  0
 20 25  1  0
 25 26  2  0
 13 27  1  0
 27 28  2  0
 28 29  1  0
 28 30  1  0
 30 31  2  0
 31 32  1  0
 32 33  1  0
 32 34  2  0
 34 35  1  0
 35 36  1  0
 36 37  1  0
  7  2  1  0
 37  9  1  0
 37 13  1  0
 26 17  1  0
 34 27  1  0
  4 38  1  0
  4 39  1  0
  5 40  1  0
  5 41  1  0
  6 42  1  0
  6 43  1  0
  7 44  1  0
  8 45  1  0
  8 46  1  0
  9 47  1  6
 10 48  1  0
 10 49  1  0
 11 50  1  0
 11 51  1  0
 12 52  1  0
 12 53  1  0
 18 54  1  0
 19 55  1  0
 25 56  1  0
 26 57  1  0
 30 58  1  0
 31 59  1  0
 36 60  1  0
 36 61  1  0
 37 62  1  1
M  CHG  1   7   1
M  END
>  <meeko>  (8) 
{"is_sidechain": [false], "free_energy": -7.914, "intermolecular_energy": -10.64, "internal_energy": -1.229}

$$$$
LIB_OHXCLBVZKIOYOG__M_PUB_ALL__e8__s20260927
     RDKit          3D

 62 66  0  0  0  0  0  0  0  0999 V2000
    6.4890  -17.8030   -7.7940 O   0  0  0  0  0  0  0  0  0  0  0  0
    7.3850  -16.6800   -7.8710 S   0  0  0  0  0  0  0  0  0  0  0  0
    7.1900  -15.5250   -8.7060 O   0  0  0  0  0  0  0  0  0  0  0  0
    9.0930  -17.2190   -7.8640 C   0  0  0  0  0  0  0  0  0  0  0  0
    9.6380  -16.5520   -6.6120 C   0  0  0  0  0  0  0  0  0  0  0  0
    8.4850  -16.5080   -5.6060 C   0  0  0  0  0  0  0  0  0  0  0  0
    7.3000  -15.9630   -6.3340 N   0  0  0  0  0  0  0  0  0  0  0  0
    5.9450  -16.1280   -5.7220 C   0  0  0  0  0  0  0  0  0  0  0  0
    5.4480  -14.7740   -5.1720 C   0  0  2  0  0  0  0  0  0  0  0  0
    5.5910  -13.6650   -6.2160 C   0  0  0  0  0  0  0  0  0  0  0  0
    4.8720  -12.4130   -5.7280 C   0  0  0  0  0  0  0  0  0  0  0  0
    5.4290  -11.9420   -4.3910 C   0  0  0  0  0  0  0  0  0  0  0  0
    5.4520  -13.0200   -3.2680 C   0  0  1  0  0  0  0  0  0  0  0  0
    6.3620  -12.2670   -1.7990 S   0  0  0  0  0  0  0  0  0  0  0  0
    6.2050  -10.8260   -1.8210 O   0  0  0  0  0  0  0  0  0  0  0  0
    6.0330  -13.0070   -0.5950 O   0  0  0  0  0  0  0  0  0  0  0  0
    8.0990  -12.5660   -2.1070 C   0  0  0  0  0  0  0  0  0  0  0  0
    8.7840  -13.5100   -1.3380 C   0  0  0  0  0  0  0  0  0  0  0  0
   10.1360  -13.7590   -1.5910 C   0  0  0  0  0  0  0  0  0  0  0  0
   10.8020  -13.0940   -2.6330 C   0  0  0  0  0  0  0  0  0  0  0  0
   12.2720  -13.3450   -2.8920 C   0  0  0  0  0  0  0  0  0  0  0  0
   13.0420  -12.3230   -2.4270 F   0  0  0  0  0  0  0  0  0  0  0  0
   12.5650  -13.4670   -4.2150 F   0  0  0  0  0  0  0  0  0  0  0  0
   12.7390  -14.4720   -2.2920 F   0  0  0  0  0  0  0  0  0  0  0  0
   10.0890  -12.1760   -3.4200 C   0  0  0  0  0  0  0  0  0  0  0  0
    8.7380  -11.9220   -3.1710 C   0  0  0  0  0  0  0  0  0  0  0  0
    4.0910  -13.4330   -2.6860 C   0  0  0  0  0  0  0  0  0  0  0  0
    3.0890  -12.4960   -2.3870 C   0  0  0  0  0  0  0  0  0  0  0  0
    3.2930  -11.1940   -2.6100 F   0  0  0  0  0  0  0  0  0  0  0  0
    1.8510  -12.8760   -1.8630 C   0  0  0  0  0  0  0  0  0  0  0  0
    1.5750  -14.2180   -1.6290 C   0  0  0  0  0  0  0  0  0  0  0  0
    2.5500  -15.1660   -1.9080 C   0  0  0  0  0  0  0  0  0  0  0  0
    2.2720  -16.4650   -1.7290 F   0  0  0  0  0  0  0  0  0  0  0  0
    3.8040  -14.7880   -2.4030 C   0  0  0  0  0  0  0  0  0  0  0  0
    4.6750  -15.8280   -2.6590 O   0  0  0  0  0  0  0  0  0  0  0  0
    6.0340  -15.4070   -2.7560 C   0  0  0  0  0  0  0  0  0  0  0  0
    6.1370  -14.3170   -3.8200 C   0  0  1  0  0  0  0  0  0  0  0  0
    9.1647  -18.3145   -7.7951 H   0  0  0  0  0  0  0  0  0  0  0  0
    9.6424  -16.9535   -8.7792 H   0  0  0  0  0  0  0  0  0  0  0  0
   10.4760  -17.1363   -6.2042 H   0  0  0  0  0  0  0  0  0  0  0  0
   10.0137  -15.5416   -6.8310 H   0  0  0  0  0  0  0  0  0  0  0  0
    8.2684  -17.5200   -5.2333 H   0  0  0  0  0  0  0  0  0  0  0  0
    8.7399  -15.8801   -4.7395 H   0  0  0  0  0  0  0  0  0  0  0  0
    7.4740  -14.9800   -6.5790 H   0  0  0  0  0  0  0  0  0  0  0  0
    5.2418  -16.4916   -6.4857 H   0  0  0  0  0  0  0  0  0  0  0  0
    6.0062  -16.8532   -4.8972 H   0  0  0  0  0  0  0  0  0  0  0  0
    4.3862  -14.9440   -4.9402 H   0  0  0  0  0  0  0  0  0  0  0  0
    6.6569  -13.4399   -6.3684 H   0  0  0  0  0  0  0  0  0  0  0  0
    5.1470  -13.9962   -7.1663 H   0  0  0  0  0  0  0  0  0  0  0  0
    5.0005  -11.6129   -6.4718 H   0  0  0  0  0  0  0  0  0  0  0  0
    3.8067  -12.6531   -5.5957 H   0  0  0  0  0  0  0  0  0  0  0  0
    6.4610  -11.5979   -4.5541 H   0  0  0  0  0  0  0  0  0  0  0  0
    4.7527  -11.1487   -4.0400 H   0  0  0  0  0  0  0  0  0  0  0  0
    8.2620  -14.0546   -0.5374 H   0  0  0  0  0  0  0  0  0  0  0  0
   10.6830  -14.4823   -0.9683 H   0  0  0  0  0  0  0  0  0  0  0  0
   10.5992  -11.6513   -4.2412 H   0  0  0  0  0  0  0  0  0  0  0  0
    8.1804  -11.2197   -3.8081 H   0  0  0  0  0  0  0  0  0  0  0  0
    1.0933  -12.1118   -1.6352 H   0  0  0  0  0  0  0  0  0  0  0  0
    0.5976  -14.5246   -1.2283 H   0  0  0  0  0  0  0  0  0  0  0  0
    6.3680  -15.0096   -1.7862 H   0  0  0  0  0  0  0  0  0  0  0  0
    6.6706  -16.2604   -3.0325 H   0  0  0  0  0  0  0  0  0  0  0  0
    7.1964  -14.1199   -4.0411 H   0  0  0  0  0  0  0  0  0  0  0  0
  1  2  2  0
  2  3  2  0
  2  4  1  0
  4  5  1  0
  5  6  1  0
  6  7  1  0
  7  8  1  0
  8  9  1  0
  9 10  1  0
 10 11  1  0
 11 12  1  0
 12 13  1  0
 13 14  1  1
 14 15  2  0
 14 16  2  0
 14 17  1  0
 17 18  2  0
 18 19  1  0
 19 20  2  0
 20 21  1  0
 21 22  1  0
 21 23  1  0
 21 24  1  0
 20 25  1  0
 25 26  2  0
 13 27  1  0
 27 28  2  0
 28 29  1  0
 28 30  1  0
 30 31  2  0
 31 32  1  0
 32 33  1  0
 32 34  2  0
 34 35  1  0
 35 36  1  0
 36 37  1  0
  7  2  1  0
 37  9  1  0
 37 13  1  0
 26 17  1  0
 34 27  1  0
  4 38  1  0
  4 39  1  0
  5 40  1  0
  5 41  1  0
  6 42  1  0
  6 43  1  0
  7 44  1  0
  8 45  1  0
  8 46  1  0
  9 47  1  1
 10 48  1  0
 10 49  1  0
 11 50  1  0
 11 51  1  0
 12 52  1  0
 12 53  1  0
 18 54  1  0
 19 55  1  0
 25 56  1  0
 26 57  1  0
 30 58  1  0
 31 59  1  0
 36 60  1  0
 36 61  1  0
 37 62  1  6
M  CHG  1   7   1
M  END
>  <meeko>  (9) 
{"is_sidechain": [false], "free_energy": -7.906, "intermolecular_energy": -10.086, "internal_energy": -1.773}

$$$$
