LIB_UWNNVZFYCYTDAH__M_PUB_ALL__e8__s20260927
     RDKit          3D

 28 29  0  0  0  0  0  0  0  0999 V2000
  -14.8030  -17.2820   -3.9990 C   0  0  0  0  0  0  0  0  0  0  0  0
  -14.0390  -17.1820   -5.3110 C   0  0  0  0  0  0  0  0  0  0  0  0
  -12.7560  -16.3600   -5.1970 C   0  0  0  0  0  0  0  0  0  0  0  0
  -12.3120  -15.8850   -6.4910 N   0  0  0  0  0  0  0  0  0  0  0  0
  -13.2350  -15.3300   -7.3870 N   0  0  0  0  0  0  0  0  0  0  0  0
  -12.5370  -15.0360   -8.4530 C   0  0  0  0  0  0  0  0  0  0  0  0
  -11.1150  -15.3830   -8.3250 C   0  0  0  0  0  0  0  0  0  0  0  0
  -10.0180  -15.3030   -9.0790 C   0  0  0  0  0  0  0  0  0  0  0  0
  -10.0520  -14.7780  -10.3440 N   0  0  0  0  0  0  0  0  0  0  0  0
   -8.8420  -15.7850   -8.5050 N   0  0  0  0  0  0  0  0  0  0  0  0
   -7.5960  -15.7380   -9.2560 C   0  0  0  0  0  0  0  0  0  0  0  0
   -8.7910  -16.3330   -7.1990 C   0  0  0  0  0  0  0  0  0  0  0  0
   -7.7350  -16.7490   -6.7280 O   0  0  0  0  0  0  0  0  0  0  0  0
   -9.9440  -16.3980   -6.4490 N   0  0  0  0  0  0  0  0  0  0  0  0
  -11.0200  -15.9530   -6.9820 C   0  0  0  0  0  0  0  0  0  0  0  0
  -14.1004  -17.1900   -3.1576 H   0  0  0  0  0  0  0  0  0  0  0  0
  -15.5470  -16.4736   -3.9454 H   0  0  0  0  0  0  0  0  0  0  0  0
  -15.3139  -18.2547   -3.9454 H   0  0  0  0  0  0  0  0  0  0  0  0
  -13.7757  -18.1978   -5.6410 H   0  0  0  0  0  0  0  0  0  0  0  0
  -14.6928  -16.6707   -6.0328 H   0  0  0  0  0  0  0  0  0  0  0  0
  -12.9428  -15.4949   -4.5438 H   0  0  0  0  0  0  0  0  0  0  0  0
  -11.9695  -17.0050   -4.7782 H   0  0  0  0  0  0  0  0  0  0  0  0
  -12.9701  -14.5760   -9.3534 H   0  0  0  0  0  0  0  0  0  0  0  0
  -10.4740  -13.8770  -10.5280 H   0  0  0  0  0  0  0  0  0  0  0  0
   -9.6520  -15.2870  -11.1200 H   0  0  0  0  0  0  0  0  0  0  0  0
   -6.7474  -15.7060   -8.5568 H   0  0  0  0  0  0  0  0  0  0  0  0
   -7.5156  -16.6338   -9.8894 H   0  0  0  0  0  0  0  0  0  0  0  0
   -7.5833  -14.8387   -9.8894 H   0  0  0  0  0  0  0  0  0  0  0  0
  1  2  1  0
  2  3  1  0
  3  4  1  0
  4  5  1  0
  5  6  2  0
  6  7  1  0
  7  8  2  0
  8  9  1  0
  8 10  1  0
 10 11  1  0
 10 12  1  0
 12 13  2  0
 12 14  1  0
 14 15  2  0
 15  4  1  0
 15  7  1  0
  1 16  1  0
  1 17  1  0
  1 18  1  0
  2 19  1  0
  2 20  1  0
  3 21  1  0
  3 22  1  0
  6 23  1  0
  9 24  1  0
  9 25  1  0
 11 26  1  0
 11 27  1  0
 11 28  1  0
M  END
>  <meeko>  (1) 
{"is_sidechain": [false], "free_energy": -5.78, "intermolecular_energy": -6.624, "internal_energy": -0.138}

$$$$
LIB_UWNNVZFYCYTDAH__M_PUB_ALL__e8__s20260927
     RDKit          3D

 28 29  0  0  0  0  0  0  0  0999 V2000
    7.0500  -11.2250   -1.4760 C   0  0  0  0  0  0  0  0  0  0  0  0
    7.1250  -12.1840   -0.2970 C   0  0  0  0  0  0  0  0  0  0  0  0
    8.2150  -13.2440   -0.4530 C   0  0  0  0  0  0  0  0  0  0  0  0
    9.5300  -12.6960   -0.2000 N   0  0  0  0  0  0  0  0  0  0  0  0
    9.8470  -12.1950    1.0700 N   0  0  0  0  0  0  0  0  0  0  0  0
   11.0740  -11.7530    0.9630 C   0  0  0  0  0  0  0  0  0  0  0  0
   11.6360  -11.9330   -0.3820 C   0  0  0  0  0  0  0  0  0  0  0  0
   12.7860  -11.6680   -1.0030 C   0  0  0  0  0  0  0  0  0  0  0  0
   13.8330  -11.0700   -0.3540 N   0  0  0  0  0  0  0  0  0  0  0  0
   12.8550  -12.0350   -2.3470 N   0  0  0  0  0  0  0  0  0  0  0  0
   14.0730  -11.7840   -3.1050 C   0  0  0  0  0  0  0  0  0  0  0  0
   11.7800  -12.6520   -3.0340 C   0  0  0  0  0  0  0  0  0  0  0  0
   11.8790  -12.9590   -4.2200 O   0  0  0  0  0  0  0  0  0  0  0  0
   10.6080  -12.9100   -2.3590 N   0  0  0  0  0  0  0  0  0  0  0  0
   10.5510  -12.5720   -1.1260 C   0  0  0  0  0  0  0  0  0  0  0  0
    6.9693  -10.1928   -1.1045 H   0  0  0  0  0  0  0  0  0  0  0  0
    7.9587  -11.3244   -2.0879 H   0  0  0  0  0  0  0  0  0  0  0  0
    6.1678  -11.4645   -2.0879 H   0  0  0  0  0  0  0  0  0  0  0  0
    7.3300  -11.6028    0.6142 H   0  0  0  0  0  0  0  0  0  0  0  0
    6.1611  -12.7112   -0.2419 H   0  0  0  0  0  0  0  0  0  0  0  0
    8.0247  -14.0596    0.2602 H   0  0  0  0  0  0  0  0  0  0  0  0
    8.1896  -13.6143   -1.4885 H   0  0  0  0  0  0  0  0  0  0  0  0
   11.6278  -11.2937    1.7951 H   0  0  0  0  0  0  0  0  0  0  0  0
   14.2440  -10.2120   -0.6990 H   0  0  0  0  0  0  0  0  0  0  0  0
   14.2160  -11.4790    0.4870 H   0  0  0  0  0  0  0  0  0  0  0  0
   14.9083  -11.6119   -2.4103 H   0  0  0  0  0  0  0  0  0  0  0  0
   14.2966  -12.6549   -3.7386 H   0  0  0  0  0  0  0  0  0  0  0  0
   13.9340  -10.8956   -3.7386 H   0  0  0  0  0  0  0  0  0  0  0  0
  1  2  1  0
  2  3  1  0
  3  4  1  0
  4  5  1  0
  5  6  2  0
  6  7  1  0
  7  8  2  0
  8  9  1  0
  8 10  1  0
 10 11  1  0
 10 12  1  0
 12 13  2  0
 12 14  1  0
 14 15  2  0
 15  4  1  0
 15  7  1  0
  1 16  1  0
  1 17  1  0
  1 18  1  0
  2 19  1  0
  2 20  1  0
  3 21  1  0
  3 22  1  0
  6 23  1  0
  9 24  1  0
  9 25  1  0
 11 26  1  0
 11 27  1  0
 11 28  1  0
M  END
>  <meeko>  (2) 
{"is_sidechain": [false], "free_energy": -5.456, "intermolecular_energy": -6.152, "internal_energy": -0.24}

$$$$
LIB_UWNNVZFYCYTDAH__M_PUB_ALL__e8__s20260927
     RDKit          3D

 28 29  0  0  0  0  0  0  0  0999 V2000
   13.6870  -15.9740   -3.9080 C   0  0  0  0  0  0  0  0  0  0  0  0
   13.4860  -15.0120   -5.0690 C   0  0  0  0  0  0  0  0  0  0  0  0
   12.3630  -14.0040   -4.8270 C   0  0  0  0  0  0  0  0  0  0  0  0
   12.7160  -13.0520   -3.7950 N   0  0  0  0  0  0  0  0  0  0  0  0
   13.8110  -12.1960   -3.9780 N   0  0  0  0  0  0  0  0  0  0  0  0
   13.8820  -11.4980   -2.8740 C   0  0  0  0  0  0  0  0  0  0  0  0
   12.8420  -11.8540   -1.8990 C   0  0  0  0  0  0  0  0  0  0  0  0
   12.4810  -11.4720   -0.6740 C   0  0  0  0  0  0  0  0  0  0  0  0
   13.1560  -10.4900    0.0020 N   0  0  0  0  0  0  0  0  0  0  0  0
   11.3810  -12.1310   -0.1250 N   0  0  0  0  0  0  0  0  0  0  0  0
   10.9150  -11.7790    1.2090 C   0  0  0  0  0  0  0  0  0  0  0  0
   10.6730  -13.1510   -0.8100 C   0  0  0  0  0  0  0  0  0  0  0  0
    9.7090  -13.7100   -0.2930 O   0  0  0  0  0  0  0  0  0  0  0  0
   11.0750  -13.5180   -2.0750 N   0  0  0  0  0  0  0  0  0  0  0  0
   12.0860  -12.9080   -2.5720 C   0  0  0  0  0  0  0  0  0  0  0  0
   13.5736  -15.4311   -2.9581 H   0  0  0  0  0  0  0  0  0  0  0  0
   12.9372  -16.7770   -3.9632 H   0  0  0  0  0  0  0  0  0  0  0  0
   14.6956  -16.4096   -3.9632 H   0  0  0  0  0  0  0  0  0  0  0  0
   14.4231  -14.4593   -5.2315 H   0  0  0  0  0  0  0  0  0  0  0  0
   13.2034  -15.6124   -5.9463 H   0  0  0  0  0  0  0  0  0  0  0  0
   12.1639  -13.4598   -5.7620 H   0  0  0  0  0  0  0  0  0  0  0  0
   11.4705  -14.5554   -4.4963 H   0  0  0  0  0  0  0  0  0  0  0  0
   14.6424  -10.7238   -2.6940 H   0  0  0  0  0  0  0  0  0  0  0  0
   12.6740   -9.6810    0.3740 H   0  0  0  0  0  0  0  0  0  0  0  0
   14.1540  -10.5580    0.1430 H   0  0  0  0  0  0  0  0  0  0  0  0
   11.5557  -12.2630    1.9608 H   0  0  0  0  0  0  0  0  0  0  0  0
   10.9600  -10.6874    1.3369 H   0  0  0  0  0  0  0  0  0  0  0  0
    9.8773  -12.1207    1.3369 H   0  0  0  0  0  0  0  0  0  0  0  0
  1  2  1  0
  2  3  1  0
  3  4  1  0
  4  5  1  0
  5  6  2  0
  6  7  1  0
  7  8  2  0
  8  9  1  0
  8 10  1  0
 10 11  1  0
 10 12  1  0
 12 13  2  0
 12 14  1  0
 14 15  2  0
 15  4  1  0
 15  7  1  0
  1 16  1  0
  1 17  1  0
  1 18  1  0
  2 19  1  0
  2 20  1  0
  3 21  1  0
  3 22  1  0
  6 23  1  0
  9 24  1  0
  9 25  1  0
 11 26  1  0
 11 27  1  0
 11 28  1  0
M  END
>  <meeko>  (3) 
{"is_sidechain": [false], "free_energy": -5.4, "intermolecular_energy": -6.085, "internal_energy": -0.242}

$$$$
LIB_UWNNVZFYCYTDAH__M_PUB_ALL__e8__s20260927
     RDKit          3D

 28 29  0  0  0  0  0  0  0  0999 V2000
   12.8970   -9.7620    0.5180 C   0  0  0  0  0  0  0  0  0  0  0  0
   13.2440  -11.0650   -0.1860 C   0  0  0  0  0  0  0  0  0  0  0  0
   12.1070  -11.6000   -1.0560 C   0  0  0  0  0  0  0  0  0  0  0  0
   12.6090  -12.3250   -2.2030 N   0  0  0  0  0  0  0  0  0  0  0  0
   13.0850  -11.6240   -3.3200 N   0  0  0  0  0  0  0  0  0  0  0  0
   13.4290  -12.5490   -4.1780 C   0  0  0  0  0  0  0  0  0  0  0  0
   13.1980  -13.9120   -3.6800 C   0  0  0  0  0  0  0  0  0  0  0  0
   13.3620  -15.1570   -4.1300 C   0  0  0  0  0  0  0  0  0  0  0  0
   13.8770  -15.4110   -5.3740 N   0  0  0  0  0  0  0  0  0  0  0  0
   12.9780  -16.1780   -3.2610 N   0  0  0  0  0  0  0  0  0  0  0  0
   13.1220  -17.5690   -3.6680 C   0  0  0  0  0  0  0  0  0  0  0  0
   12.4420  -15.9320   -1.9720 C   0  0  0  0  0  0  0  0  0  0  0  0
   12.1140  -16.8590   -1.2360 O   0  0  0  0  0  0  0  0  0  0  0  0
   12.2880  -14.6330   -1.5420 N   0  0  0  0  0  0  0  0  0  0  0  0
   12.6430  -13.7010   -2.3450 C   0  0  0  0  0  0  0  0  0  0  0  0
   12.9369   -9.9117    1.6070 H   0  0  0  0  0  0  0  0  0  0  0  0
   13.6195   -8.9849    0.2280 H   0  0  0  0  0  0  0  0  0  0  0  0
   11.8837   -9.4471    0.2280 H   0  0  0  0  0  0  0  0  0  0  0  0
   14.1227  -10.8939   -0.8252 H   0  0  0  0  0  0  0  0  0  0  0  0
   13.4404  -11.8158    0.5936 H   0  0  0  0  0  0  0  0  0  0  0  0
   11.4830  -12.2753   -0.4521 H   0  0  0  0  0  0  0  0  0  0  0  0
   11.5207  -10.7435   -1.4203 H   0  0  0  0  0  0  0  0  0  0  0  0
   13.8484  -12.3292   -5.1709 H   0  0  0  0  0  0  0  0  0  0  0  0
   14.7510  -15.0000   -5.6750 H   0  0  0  0  0  0  0  0  0  0  0  0
   13.3880  -16.0180   -6.0160 H   0  0  0  0  0  0  0  0  0  0  0  0
   13.1881  -18.2075   -2.7747 H   0  0  0  0  0  0  0  0  0  0  0  0
   12.2500  -17.8675   -4.2684 H   0  0  0  0  0  0  0  0  0  0  0  0
   14.0367  -17.6826   -4.2684 H   0  0  0  0  0  0  0  0  0  0  0  0
  1  2  1  0
  2  3  1  0
  3  4  1  0
  4  5  1  0
  5  6  2  0
  6  7  1  0
  7  8  2  0
  8  9  1  0
  8 10  1  0
 10 11  1  0
 10 12  1  0
 12 13  2  0
 12 14  1  0
 14 15  2  0
 15  4  1  0
 15  7  1  0
  1 16  1  0
  1 17  1  0
  1 18  1  0
  2 19  1  0
  2 20  1  0
  3 21  1  0
  3 22  1  0
  6 23  1  0
  9 24  1  0
  9 25  1  0
 11 26  1  0
 11 27  1  0
 11 28  1  0
M  END
>  <meeko>  (4) 
{"is_sidechain": [false], "free_energy": -5.021, "intermolecular_energy": -5.745, "internal_energy": -0.148}

$$$$
LIB_UWNNVZFYCYTDAH__M_PUB_ALL__e8__s20260927
     RDKit          3D

 28 29  0  0  0  0  0  0  0  0999 V2000
  -14.7040  -17.8080   -8.8000 C   0  0  0  0  0  0  0  0  0  0  0  0
  -15.0420  -16.4960   -8.1080 C   0  0  0  0  0  0  0  0  0  0  0  0
  -14.0050  -15.4010   -8.3570 C   0  0  0  0  0  0  0  0  0  0  0  0
  -12.7620  -15.6790   -7.6690 N   0  0  0  0  0  0  0  0  0  0  0  0
  -12.7690  -15.9470   -6.2930 N   0  0  0  0  0  0  0  0  0  0  0  0
  -11.5120  -16.1200   -5.9770 C   0  0  0  0  0  0  0  0  0  0  0  0
  -10.6030  -15.9730   -7.1220 C   0  0  0  0  0  0  0  0  0  0  0  0
   -9.2900  -16.0410   -7.3410 C   0  0  0  0  0  0  0  0  0  0  0  0
   -8.4050  -16.3160   -6.3320 N   0  0  0  0  0  0  0  0  0  0  0  0
   -8.8740  -15.8140   -8.6530 N   0  0  0  0  0  0  0  0  0  0  0  0
   -7.4580  -15.8690   -8.9850 C   0  0  0  0  0  0  0  0  0  0  0  0
   -9.7760  -15.5260   -9.7080 C   0  0  0  0  0  0  0  0  0  0  0  0
   -9.3710  -15.3310  -10.8510 O   0  0  0  0  0  0  0  0  0  0  0  0
  -11.1260  -15.4650   -9.4430 N   0  0  0  0  0  0  0  0  0  0  0  0
  -11.5000  -15.6740   -8.2370 C   0  0  0  0  0  0  0  0  0  0  0  0
  -14.5049  -18.5810   -8.0432 H   0  0  0  0  0  0  0  0  0  0  0  0
  -15.5511  -18.1199   -9.4286 H   0  0  0  0  0  0  0  0  0  0  0  0
  -13.8116  -17.6717   -9.4286 H   0  0  0  0  0  0  0  0  0  0  0  0
  -16.0166  -16.1458   -8.4788 H   0  0  0  0  0  0  0  0  0  0  0  0
  -15.0586  -16.6914   -7.0256 H   0  0  0  0  0  0  0  0  0  0  0  0
  -13.8082  -15.3345   -9.4372 H   0  0  0  0  0  0  0  0  0  0  0  0
  -14.4069  -14.4521   -7.9722 H   0  0  0  0  0  0  0  0  0  0  0  0
  -11.1699  -16.3520   -4.9576 H   0  0  0  0  0  0  0  0  0  0  0  0
   -7.7510  -17.0850   -6.4020 H   0  0  0  0  0  0  0  0  0  0  0  0
   -8.3910  -15.7510   -5.4940 H   0  0  0  0  0  0  0  0  0  0  0  0
   -6.8649  -15.8920   -8.0589 H   0  0  0  0  0  0  0  0  0  0  0  0
   -7.2543  -16.7757   -9.5735 H   0  0  0  0  0  0  0  0  0  0  0  0
   -7.1846  -14.9808   -9.5735 H   0  0  0  0  0  0  0  0  0  0  0  0
  1  2  1  0
  2  3  1  0
  3  4  1  0
  4  5  1  0
  5  6  2  0
  6  7  1  0
  7  8  2  0
  8  9  1  0
  8 10  1  0
 10 11  1  0
 10 12  1  0
 12 13  2  0
 12 14  1  0
 14 15  2  0
 15  4  1  0
 15  7  1  0
  1 16  1  0
  1 17  1  0
  1 18  1  0
  2 19  1  0
  2 20  1  0
  3 21  1  0
  3 22  1  0
  6 23  1  0
  9 24  1  0
  9 25  1  0
 11 26  1  0
 11 27  1  0
 11 28  1  0
M  END
>  <meeko>  (5) 
{"is_sidechain": [false], "free_energy": -4.957, "intermolecular_energy": -5.597, "internal_energy": -0.222}

$$$$
LIB_UWNNVZFYCYTDAH__M_PUB_ALL__e8__s20260927
     RDKit          3D

 28 29  0  0  0  0  0  0  0  0999 V2000
   14.1740  -14.9980   -5.9730 C   0  0  0  0  0  0  0  0  0  0  0  0
   13.0430  -13.9820   -5.9080 C   0  0  0  0  0  0  0  0  0  0  0  0
   13.1650  -13.0210   -4.7270 C   0  0  0  0  0  0  0  0  0  0  0  0
   12.1440  -13.2690   -3.7310 N   0  0  0  0  0  0  0  0  0  0  0  0
   11.0990  -14.1610   -4.0080 N   0  0  0  0  0  0  0  0  0  0  0  0
   10.3440  -14.1380   -2.9400 C   0  0  0  0  0  0  0  0  0  0  0  0
   10.8430  -13.2290   -1.9000 C   0  0  0  0  0  0  0  0  0  0  0  0
   10.4720  -12.8450   -0.6780 C   0  0  0  0  0  0  0  0  0  0  0  0
    9.3420  -13.3380   -0.0820 N   0  0  0  0  0  0  0  0  0  0  0  0
   11.2990  -11.9140   -0.0500 N   0  0  0  0  0  0  0  0  0  0  0  0
   10.9710  -11.4380    1.2870 C   0  0  0  0  0  0  0  0  0  0  0  0
   12.4710  -11.3930   -0.6540 C   0  0  0  0  0  0  0  0  0  0  0  0
   13.1740  -10.5730   -0.0680 O   0  0  0  0  0  0  0  0  0  0  0  0
   12.8230  -11.8140   -1.9170 N   0  0  0  0  0  0  0  0  0  0  0  0
   12.0590  -12.6680   -2.4870 C   0  0  0  0  0  0  0  0  0  0  0  0
   14.4795  -15.2724   -4.9525 H   0  0  0  0  0  0  0  0  0  0  0  0
   13.8298  -15.8962   -6.5067 H   0  0  0  0  0  0  0  0  0  0  0  0
   15.0303  -14.5599   -6.5067 H   0  0  0  0  0  0  0  0  0  0  0  0
   13.0464  -13.3950   -6.8383 H   0  0  0  0  0  0  0  0  0  0  0  0
   12.1061  -14.5435   -5.7773 H   0  0  0  0  0  0  0  0  0  0  0  0
   14.1544  -13.1486   -4.2635 H   0  0  0  0  0  0  0  0  0  0  0  0
   13.0370  -11.9953   -5.1032 H   0  0  0  0  0  0  0  0  0  0  0  0
    9.4286  -14.7383   -2.8319 H   0  0  0  0  0  0  0  0  0  0  0  0
    9.1450  -14.3300   -0.0680 H   0  0  0  0  0  0  0  0  0  0  0  0
    8.6800  -12.7130    0.3590 H   0  0  0  0  0  0  0  0  0  0  0  0
   11.4286  -12.1020    2.0351 H   0  0  0  0  0  0  0  0  0  0  0  0
   11.3579  -10.4166    1.4178 H   0  0  0  0  0  0  0  0  0  0  0  0
    9.8788  -11.4359    1.4178 H   0  0  0  0  0  0  0  0  0  0  0  0
  1  2  1  0
  2  3  1  0
  3  4  1  0
  4  5  1  0
  5  6  2  0
  6  7  1  0
  7  8  2  0
  8  9  1  0
  8 10  1  0
 10 11  1  0
 10 12  1  0
 12 13  2  0
 12 14  1  0
 14 15  2  0
 15  4  1  0
 15  7  1  0
  1 16  1  0
  1 17  1  0
  1 18  1  0
  2 19  1  0
  2 20  1  0
  3 21  1  0
  3 22  1  0
  6 23  1  0
  9 24  1  0
  9 25  1  0
 11 26  1  0
 11 27  1  0
 11 28  1  0
M  END
>  <meeko>  (6) 
{"is_sidechain": [false], "free_energy": -4.805, "intermolecular_energy": -5.486, "internal_energy": -0.16}

$$$$
LIB_UWNNVZFYCYTDAH__M_PUB_ALL__e8__s20260927
     RDKit          3D

 28 29  0  0  0  0  0  0  0  0999 V2000
    7.9830  -17.6490   -1.1600 C   0  0  0  0  0  0  0  0  0  0  0  0
    9.1510  -16.8060   -1.6480 C   0  0  0  0  0  0  0  0  0  0  0  0
    9.0610  -15.3440   -1.2110 C   0  0  0  0  0  0  0  0  0  0  0  0
   10.2200  -14.5890   -1.6360 N   0  0  0  0  0  0  0  0  0  0  0  0
   10.9170  -14.9680   -2.7920 N   0  0  0  0  0  0  0  0  0  0  0  0
   11.9100  -14.1220   -2.8810 C   0  0  0  0  0  0  0  0  0  0  0  0
   11.9290  -13.1380   -1.7900 C   0  0  0  0  0  0  0  0  0  0  0  0
   12.6880  -12.1070   -1.4180 C   0  0  0  0  0  0  0  0  0  0  0  0
   13.7870  -11.7250   -2.1410 N   0  0  0  0  0  0  0  0  0  0  0  0
   12.2970  -11.4450   -0.2540 N   0  0  0  0  0  0  0  0  0  0  0  0
   13.0670  -10.3070    0.2270 C   0  0  0  0  0  0  0  0  0  0  0  0
   11.1640  -11.8290    0.5060 C   0  0  0  0  0  0  0  0  0  0  0  0
   10.8510  -11.2220    1.5270 O   0  0  0  0  0  0  0  0  0  0  0  0
   10.4030  -12.8990    0.0900 N   0  0  0  0  0  0  0  0  0  0  0  0
   10.7680  -13.5010   -0.9790 C   0  0  0  0  0  0  0  0  0  0  0  0
    7.9712  -17.6575   -0.0601 H   0  0  0  0  0  0  0  0  0  0  0  0
    7.0409  -17.2213   -1.5335 H   0  0  0  0  0  0  0  0  0  0  0  0
    8.0921  -18.6779   -1.5335 H   0  0  0  0  0  0  0  0  0  0  0  0
   10.0823  -17.2339   -1.2484 H   0  0  0  0  0  0  0  0  0  0  0  0
    9.1286  -16.8210   -2.7477 H   0  0  0  0  0  0  0  0  0  0  0  0
    8.1599  -14.8940   -1.6532 H   0  0  0  0  0  0  0  0  0  0  0  0
    9.0155  -15.3153   -0.1123 H   0  0  0  0  0  0  0  0  0  0  0  0
   12.6550  -14.1446   -3.6900 H   0  0  0  0  0  0  0  0  0  0  0  0
   14.3440  -10.9250   -1.8680 H   0  0  0  0  0  0  0  0  0  0  0  0
   14.0630  -12.2410   -2.9650 H   0  0  0  0  0  0  0  0  0  0  0  0
   13.0689  -10.3042    1.3270 H   0  0  0  0  0  0  0  0  0  0  0  0
   14.1008  -10.3818   -0.1413 H   0  0  0  0  0  0  0  0  0  0  0  0
   12.6131   -9.3752   -0.1413 H   0  0  0  0  0  0  0  0  0  0  0  0
  1  2  1  0
  2  3  1  0
  3  4  1  0
  4  5  1  0
  5  6  2  0
  6  7  1  0
  7  8  2  0
  8  9  1  0
  8 10  1  0
 10 11  1  0
 10 12  1  0
 12 13  2  0
 12 14  1  0
 14 15  2  0
 15  4  1  0
 15  7  1  0
  1 16  1  0
  1 17  1  0
  1 18  1  0
  2 19  1  0
  2 20  1  0
  3 21  1  0
  3 22  1  0
  6 23  1  0
  9 24  1  0
  9 25  1  0
 11 26  1  0
 11 27  1  0
 11 28  1  0
M  END
>  <meeko>  (7) 
{"is_sidechain": [false], "free_energy": -4.797, "intermolecular_energy": -5.504, "internal_energy": -0.132}

$$$$
LIB_UWNNVZFYCYTDAH__M_PUB_ALL__e8__s20260927
     RDKit          3D

 28 29  0  0  0  0  0  0  0  0999 V2000
  -16.1570  -17.4390   -8.0080 C   0  0  0  0  0  0  0  0  0  0  0  0
  -14.6510  -17.3760   -7.8000 C   0  0  0  0  0  0  0  0  0  0  0  0
  -14.1640  -16.0010   -7.3460 C   0  0  0  0  0  0  0  0  0  0  0  0
  -12.7260  -15.8820   -7.4560 N   0  0  0  0  0  0  0  0  0  0  0  0
  -11.9000  -16.4540   -6.4780 N   0  0  0  0  0  0  0  0  0  0  0  0
  -10.6820  -16.1480   -6.8430 C   0  0  0  0  0  0  0  0  0  0  0  0
  -10.6330  -15.3560   -8.0790 C   0  0  0  0  0  0  0  0  0  0  0  0
   -9.6940  -14.8050   -8.8490 C   0  0  0  0  0  0  0  0  0  0  0  0
   -8.3620  -14.9150   -8.5490 N   0  0  0  0  0  0  0  0  0  0  0  0
  -10.1490  -14.1120   -9.9710 N   0  0  0  0  0  0  0  0  0  0  0  0
   -9.1940  -13.4780  -10.8680 C   0  0  0  0  0  0  0  0  0  0  0  0
  -11.5230  -13.9870  -10.2940 C   0  0  0  0  0  0  0  0  0  0  0  0
  -11.8850  -13.3670  -11.2910 O   0  0  0  0  0  0  0  0  0  0  0  0
  -12.4640  -14.5700   -9.4760 N   0  0  0  0  0  0  0  0  0  0  0  0
  -12.0390  -15.2050   -8.4480 C   0  0  0  0  0  0  0  0  0  0  0  0
  -16.6615  -17.4601   -7.0308 H   0  0  0  0  0  0  0  0  0  0  0  0
  -16.4866  -16.5539   -8.5718 H   0  0  0  0  0  0  0  0  0  0  0  0
  -16.4115  -18.3486   -8.5718 H   0  0  0  0  0  0  0  0  0  0  0  0
  -14.3723  -18.1158   -7.0352 H   0  0  0  0  0  0  0  0  0  0  0  0
  -14.1775  -17.5869   -8.7702 H   0  0  0  0  0  0  0  0  0  0  0  0
  -14.6350  -15.2303   -7.9738 H   0  0  0  0  0  0  0  0  0  0  0  0
  -14.4402  -15.8699   -6.2893 H   0  0  0  0  0  0  0  0  0  0  0  0
   -9.7862  -16.4525   -6.2819 H   0  0  0  0  0  0  0  0  0  0  0  0
   -8.0060  -15.6980   -8.0160 H   0  0  0  0  0  0  0  0  0  0  0  0
   -7.7070  -14.2100   -8.8580 H   0  0  0  0  0  0  0  0  0  0  0  0
   -8.4210  -12.9648  -10.2772 H   0  0  0  0  0  0  0  0  0  0  0  0
   -8.7229  -14.2433  -11.5023 H   0  0  0  0  0  0  0  0  0  0  0  0
   -9.7164  -12.7468  -11.5023 H   0  0  0  0  0  0  0  0  0  0  0  0
  1  2  1  0
  2  3  1  0
  3  4  1  0
  4  5  1  0
  5  6  2  0
  6  7  1  0
  7  8  2  0
  8  9  1  0
  8 10  1  0
 10 11  1  0
 10 12  1  0
 12 13  2  0
 12 14  1  0
 14 15  2  0
 15  4  1  0
 15  7  1  0
  1 16  1  0
  1 17  1  0
  1 18  1  0
  2 19  1  0
  2 20  1  0
  3 21  1  0
  3 22  1  0
  6 23  1  0
  9 24  1  0
  9 25  1  0
 11 26  1  0
 11 27  1  0
 11 28  1  0
M  END
>  <meeko>  (8) 
{"is_sidechain": [false], "free_energy": -4.749, "intermolecular_energy": -5.44, "internal_energy": -0.142}

$$$$
LIB_UWNNVZFYCYTDAH__M_PUB_ALL__e8__s20260927
     RDKit          3D

 28 29  0  0  0  0  0  0  0  0999 V2000
   14.4820  -11.7500   -3.1730 C   0  0  0  0  0  0  0  0  0  0  0  0
   13.0660  -12.1350   -3.5730 C   0  0  0  0  0  0  0  0  0  0  0  0
   12.5940  -13.4400   -2.9340 C   0  0  0  0  0  0  0  0  0  0  0  0
   11.7900  -13.1960   -1.7560 N   0  0  0  0  0  0  0  0  0  0  0  0
   12.3200  -13.4450   -0.4830 N   0  0  0  0  0  0  0  0  0  0  0  0
   11.3510  -13.1600    0.3490 C   0  0  0  0  0  0  0  0  0  0  0  0
   10.1260  -12.7120   -0.3260 C   0  0  0  0  0  0  0  0  0  0  0  0
    8.9020  -12.3200    0.0310 C   0  0  0  0  0  0  0  0  0  0  0  0
    8.5200  -12.2610    1.3450 N   0  0  0  0  0  0  0  0  0  0  0  0
    8.0400  -11.9780   -1.0100 N   0  0  0  0  0  0  0  0  0  0  0  0
    6.6830  -11.5390   -0.7140 C   0  0  0  0  0  0  0  0  0  0  0  0
    8.4180  -12.0360   -2.3750 C   0  0  0  0  0  0  0  0  0  0  0  0
    7.6290  -11.7270   -3.2640 O   0  0  0  0  0  0  0  0  0  0  0  0
    9.6910  -12.4440   -2.7050 N   0  0  0  0  0  0  0  0  0  0  0  0
   10.4780  -12.7560   -1.7440 C   0  0  0  0  0  0  0  0  0  0  0  0
   14.5602  -11.7287   -2.0760 H   0  0  0  0  0  0  0  0  0  0  0  0
   15.1906  -12.4881   -3.5769 H   0  0  0  0  0  0  0  0  0  0  0  0
   14.7193  -10.7547   -3.5769 H   0  0  0  0  0  0  0  0  0  0  0  0
   12.3842  -11.3284   -3.2653 H   0  0  0  0  0  0  0  0  0  0  0  0
   13.0634  -12.2849   -4.6627 H   0  0  0  0  0  0  0  0  0  0  0  0
   11.9935  -13.9994   -3.6665 H   0  0  0  0  0  0  0  0  0  0  0  0
   13.4813  -14.0157   -2.6318 H   0  0  0  0  0  0  0  0  0  0  0  0
   11.4444  -13.2470    1.4416 H   0  0  0  0  0  0  0  0  0  0  0  0
    9.0120  -11.6770    2.0100 H   0  0  0  0  0  0  0  0  0  0  0  0
    7.7350  -12.8040    1.6760 H   0  0  0  0  0  0  0  0  0  0  0  0
    6.5419  -11.4934    0.3760 H   0  0  0  0  0  0  0  0  0  0  0  0
    6.5176  -10.5415   -1.1472 H   0  0  0  0  0  0  0  0  0  0  0  0
    5.9647  -12.2506   -1.1472 H   0  0  0  0  0  0  0  0  0  0  0  0
  1  2  1  0
  2  3  1  0
  3  4  1  0
  4  5  1  0
  5  6  2  0
  6  7  1  0
  7  8  2  0
  8  9  1  0
  8 10  1  0
 10 11  1  0
 10 12  1  0
 12 13  2  0
 12 14  1  0
 14 15  2  0
 15  4  1  0
 15  7  1  0
  1 16  1  0
  1 17  1  0
  1 18  1  0
  2 19  1  0
  2 20  1  0
  3 21  1  0
  3 22  1  0
  6 23  1  0
  9 24  1  0
  9 25  1  0
 11 26  1  0
 11 27  1  0
 11 28  1  0
M  END
>  <meeko>  (9) 
{"is_sidechain": [false], "free_energy": -4.504, "intermolecular_energy": -5.154, "internal_energy": -0.146}

$$$$
