LIB_HRXLCWSIQGZEGT__M_PUB_ALL__e8__s20260927
     RDKit          3D

 84 90  0  0  0  0  0  0  0  0999 V2000
   -1.8990  -12.1280    2.3070 N   0  0  0  0  0  0  0  0  0  0  0  0
   -1.0580  -11.6330    1.3210 C   0  0  0  0  0  0  0  0  0  0  0  0
   -1.3650  -10.4480    0.6550 C   0  0  0  0  0  0  0  0  0  0  0  0
   -0.4930   -9.9270   -0.2970 C   0  0  0  0  0  0  0  0  0  0  0  0
    0.7230  -10.5600   -0.5500 C   0  0  0  0  0  0  0  0  0  0  0  0
    1.0990  -11.7090    0.1640 C   0  0  0  0  0  0  0  0  0  0  0  0
    2.4570  -12.3120   -0.1260 C   0  0  0  0  0  0  0  0  0  0  0  0
    2.7210  -12.8770   -1.5070 N   0  0  0  0  0  0  0  0  0  0  0  0
    3.9210  -13.6670   -1.4890 C   0  0  0  0  0  0  0  0  0  0  0  0
    4.0240  -14.5000   -0.6070 O   0  0  0  0  0  0  0  0  0  0  0  0
    4.9070  -13.6590   -2.5470 N   0  0  0  0  0  0  0  0  0  0  0  0
    6.0540  -14.6270   -2.2010 C   0  0  0  0  0  0  0  0  0  0  0  0
    7.3990  -13.9470   -2.2470 C   0  0  0  0  0  0  0  0  0  0  0  0
    8.6000  -14.6440   -2.5120 C   0  0  0  0  0  0  0  0  0  0  0  0
    9.8230  -14.2470   -1.9230 C   0  0  0  0  0  0  0  0  0  0  0  0
    9.7340  -13.2660   -0.9180 C   0  0  0  0  0  0  0  0  0  0  0  0
   10.5680  -12.9250    0.0900 N   0  0  0  0  0  0  0  0  0  0  0  0
    9.8360  -12.1960    0.9910 N   0  0  0  0  0  0  0  0  0  0  0  0
    8.5710  -12.2220    0.5330 C   0  0  0  0  0  0  0  0  0  0  0  0
    7.2320  -12.3300    1.4310 C   0  0  0  0  0  0  0  0  0  0  0  0
    6.6350  -13.4780    1.8710 C   0  0  0  0  0  0  0  0  0  0  0  0
    5.4450  -12.9950    2.3560 C   0  0  0  0  0  0  0  0  0  0  0  0
    5.2370  -11.6910    2.0280 N   0  0  0  0  0  0  0  0  0  0  0  0
    6.4250  -11.2330    1.6660 N   0  0  0  0  0  0  0  0  0  0  0  0
    8.5390  -12.5760   -0.7910 C   0  0  0  0  0  0  0  0  0  0  0  0
    7.4370  -12.7020   -1.6160 C   0  0  0  0  0  0  0  0  0  0  0  0
    4.3870  -13.8040   -3.9520 C   0  0  2  0  0  0  0  0  0  0  0  0
    5.5380  -13.5130   -4.9590 C   0  0  0  0  0  0  0  0  0  0  0  0
    5.9770  -14.7500   -5.7060 C   0  0  0  0  0  0  0  0  0  0  0  0
    6.7770  -14.6350   -6.8530 C   0  0  0  0  0  0  0  0  0  0  0  0
    7.1640  -15.7740   -7.5600 C   0  0  0  0  0  0  0  0  0  0  0  0
    6.7600  -17.0350   -7.1280 C   0  0  0  0  0  0  0  0  0  0  0  0
    5.9710  -17.1600   -5.9860 C   0  0  0  0  0  0  0  0  0  0  0  0
    5.5810  -16.0240   -5.2770 C   0  0  0  0  0  0  0  0  0  0  0  0
    3.1220  -12.9450   -4.3120 C   0  0  2  0  0  0  0  0  0  0  0  0
    3.2150  -11.5470   -4.0990 O   0  0  0  0  0  0  0  0  0  0  0  0
    1.7740  -13.4700   -3.8030 C   0  0  1  0  0  0  0  0  0  0  0  0
    1.5160  -14.7150   -4.4600 O   0  0  0  0  0  0  0  0  0  0  0  0
    1.6090  -13.5840   -2.2450 C   0  0  1  0  0  0  0  0  0  0  0  0
    1.4820  -15.0760   -1.8120 C   0  0  0  0  0  0  0  0  0  0  0  0
    0.3490  -15.3390   -0.8440 C   0  0  0  0  0  0  0  0  0  0  0  0
   -0.9370  -14.8430   -1.1020 C   0  0  0  0  0  0  0  0  0  0  0  0
   -1.9820  -15.0990   -0.2150 C   0  0  0  0  0  0  0  0  0  0  0  0
   -1.7520  -15.8400    0.9420 C   0  0  0  0  0  0  0  0  0  0  0  0
   -0.4720  -16.3160    1.2200 C   0  0  0  0  0  0  0  0  0  0  0  0
    0.5770  -16.0610    0.3350 C   0  0  0  0  0  0  0  0  0  0  0  0
    0.1790  -12.2410    1.0810 C   0  0  0  0  0  0  0  0  0  0  0  0
   -2.7490  -12.5970    2.0170 H   0  0  0  0  0  0  0  0  0  0  0  0
   -1.4940  -12.4380    3.1810 H   0  0  0  0  0  0  0  0  0  0  0  0
   -2.3030   -9.9206    0.8831 H   0  0  0  0  0  0  0  0  0  0  0  0
   -0.7637   -9.0154   -0.8499 H   0  0  0  0  0  0  0  0  0  0  0  0
    1.3967  -10.1540   -1.3190 H   0  0  0  0  0  0  0  0  0  0  0  0
    3.2053  -11.5253    0.0507 H   0  0  0  0  0  0  0  0  0  0  0  0
    2.5074  -13.1890    0.5361 H   0  0  0  0  0  0  0  0  0  0  0  0
    3.0270  -12.0080   -2.0410 H   0  0  0  0  0  0  0  0  0  0  0  0
    5.2500  -12.6600   -2.4630 H   0  0  0  0  0  0  0  0  0  0  0  0
    5.8908  -15.0236   -1.1880 H   0  0  0  0  0  0  0  0  0  0  0  0
    6.0551  -15.4341   -2.9484 H   0  0  0  0  0  0  0  0  0  0  0  0
    8.5830  -15.5110   -3.1887 H   0  0  0  0  0  0  0  0  0  0  0  0
   10.7862  -14.6792   -2.2320 H   0  0  0  0  0  0  0  0  0  0  0  0
    7.0082  -14.5124    1.8438 H   0  0  0  0  0  0  0  0  0  0  0  0
    4.7371  -13.5964    2.9453 H   0  0  0  0  0  0  0  0  0  0  0  0
    6.6809  -11.9159   -1.7583 H   0  0  0  0  0  0  0  0  0  0  0  0
    4.0367  -14.8442   -4.0240 H   0  0  0  0  0  0  0  0  0  0  0  0
    5.1896  -12.7658   -5.6872 H   0  0  0  0  0  0  0  0  0  0  0  0
    6.4007  -13.1448   -4.3844 H   0  0  0  0  0  0  0  0  0  0  0  0
    7.1008  -13.6415   -7.1967 H   0  0  0  0  0  0  0  0  0  0  0  0
    7.7890  -15.6759   -8.4598 H   0  0  0  0  0  0  0  0  0  0  0  0
    7.0636  -17.9318   -7.6879 H   0  0  0  0  0  0  0  0  0  0  0  0
    5.6553  -18.1564   -5.6432 H   0  0  0  0  0  0  0  0  0  0  0  0
    4.9590  -16.1287   -4.3758 H   0  0  0  0  0  0  0  0  0  0  0  0
    3.1344  -13.0941   -5.4018 H   0  0  0  0  0  0  0  0  0  0  0  0
    4.1260  -11.2770   -3.7900 H   0  0  0  0  0  0  0  0  0  0  0  0
    1.0214  -12.7092   -4.0576 H   0  0  0  0  0  0  0  0  0  0  0  0
    0.6830  -15.0750   -4.0900 H   0  0  0  0  0  0  0  0  0  0  0  0
    0.6755  -13.0723   -1.9681 H   0  0  0  0  0  0  0  0  0  0  0  0
    1.3164  -15.6852   -2.7128 H   0  0  0  0  0  0  0  0  0  0  0  0
    2.4146  -15.3378   -1.2908 H   0  0  0  0  0  0  0  0  0  0  0  0
   -1.1224  -14.2488   -2.0089 H   0  0  0  0  0  0  0  0  0  0  0  0
   -2.9903  -14.7150   -0.4293 H   0  0  0  0  0  0  0  0  0  0  0  0
   -2.5798  -16.0492    1.6355 H   0  0  0  0  0  0  0  0  0  0  0  0
   -0.2881  -16.8934    2.1380 H   0  0  0  0  0  0  0  0  0  0  0  0
    1.5880  -16.4288    0.5644 H   0  0  0  0  0  0  0  0  0  0  0  0
    0.4376  -13.1610    1.6257 H   0  0  0  0  0  0  0  0  0  0  0  0
  1  2  1  0
  2  3  2  0
  3  4  1  0
  4  5  2  0
  5  6  1  0
  6  7  1  0
  7  8  1  0
  8  9  1  0
  9 10  2  0
  9 11  1  0
 11 12  1  0
 12 13  1  0
 13 14  2  0
 14 15  1  0
 15 16  2  0
 16 17  1  0
 17 18  1  0
 18 19  2  0
 19 20  1  0
 20 21  1  0
 21 22  2  0
 22 23  1  0
 23 24  1  0
 19 25  1  0
 25 26  2  0
 11 27  1  0
 27 28  1  0
 28 29  1  0
 29 30  2  0
 30 31  1  0
 31 32  2  0
 32 33  1  0
 33 34  2  0
 27 35  1  0
 35 36  1  0
 35 37  1  0
 37 38  1  0
 37 39  1  0
 39 40  1  0
 40 41  1  0
 41 42  2  0
 42 43  1  0
 43 44  2  0
 44 45  1  0
 45 46  2  0
  6 47  2  0
 47  2  1  0
 39  8  1  0
 46 41  1  0
 26 13  1  0
 34 29  1  0
 25 16  1  0
 24 20  2  0
  1 48  1  0
  1 49  1  0
  3 50  1  0
  4 51  1  0
  5 52  1  0
  7 53  1  0
  7 54  1  0
  8 55  1  0
 11 56  1  0
 12 57  1  0
 12 58  1  0
 14 59  1  0
 15 60  1  0
 21 61  1  0
 22 62  1  0
 26 63  1  0
 27 64  1  1
 28 65  1  0
 28 66  1  0
 30 67  1  0
 31 68  1  0
 32 69  1  0
 33 70  1  0
 34 71  1  0
 35 72  1  6
 36 73  1  0
 37 74  1  6
 38 75  1  0
 39 76  1  1
 40 77  1  0
 40 78  1  0
 42 79  1  0
 43 80  1  0
 44 81  1  0
 45 82  1  0
 46 83  1  0
 47 84  1  0
M  CHG  4   8   1  11   1  17  -1  23  -1
M  END
>  <meeko>  (1) 
{"is_sidechain": [false], "free_energy": -7.314, "intermolecular_energy": -14.37, "internal_energy": -3.199}

$$$$
LIB_HRXLCWSIQGZEGT__M_PUB_ALL__e8__s20260927
     RDKit          3D

 84 90  0  0  0  0  0  0  0  0999 V2000
   12.7060  -12.3780   -0.0530 N   0  0  0  0  0  0  0  0  0  0  0  0
   12.0930  -12.3760   -1.2980 C   0  0  0  0  0  0  0  0  0  0  0  0
   12.8490  -12.5090   -2.4610 C   0  0  0  0  0  0  0  0  0  0  0  0
   12.2260  -12.5600   -3.7050 C   0  0  0  0  0  0  0  0  0  0  0  0
   10.8350  -12.5330   -3.7910 C   0  0  0  0  0  0  0  0  0  0  0  0
   10.0430  -12.4820   -2.6320 C   0  0  0  0  0  0  0  0  0  0  0  0
    8.5380  -12.5110   -2.7990 C   0  0  0  0  0  0  0  0  0  0  0  0
    7.7800  -13.7400   -2.3390 N   0  0  0  0  0  0  0  0  0  0  0  0
    6.8340  -14.1330   -3.3460 C   0  0  0  0  0  0  0  0  0  0  0  0
    7.2430  -14.2250   -4.4880 O   0  0  0  0  0  0  0  0  0  0  0  0
    5.4960  -14.5980   -3.0550 N   0  0  0  0  0  0  0  0  0  0  0  0
    4.7720  -14.9630   -4.3650 C   0  0  0  0  0  0  0  0  0  0  0  0
    4.0130  -13.7920   -4.9350 C   0  0  0  0  0  0  0  0  0  0  0  0
    4.6200  -12.8110   -5.7540 C   0  0  0  0  0  0  0  0  0  0  0  0
    4.1900  -11.4650   -5.7240 C   0  0  0  0  0  0  0  0  0  0  0  0
    3.2820  -11.1280   -4.7030 C   0  0  0  0  0  0  0  0  0  0  0  0
    2.9580   -9.9450   -4.1340 N   0  0  0  0  0  0  0  0  0  0  0  0
    2.3330  -10.2250   -2.9470 N   0  0  0  0  0  0  0  0  0  0  0  0
    2.4040  -11.5620   -2.8090 C   0  0  0  0  0  0  0  0  0  0  0  0
    2.6480  -12.3690   -1.4300 C   0  0  0  0  0  0  0  0  0  0  0  0
    1.6910  -12.9330   -0.6340 C   0  0  0  0  0  0  0  0  0  0  0  0
    2.4230  -13.2540    0.4820 C   0  0  0  0  0  0  0  0  0  0  0  0
    3.6730  -12.7180    0.4590 N   0  0  0  0  0  0  0  0  0  0  0  0
    3.8800  -12.3770   -0.8020 N   0  0  0  0  0  0  0  0  0  0  0  0
    2.6730  -12.1630   -4.0120 C   0  0  0  0  0  0  0  0  0  0  0  0
    2.8110  -13.5110   -4.2820 C   0  0  0  0  0  0  0  0  0  0  0  0
    5.3650  -15.6390   -1.9750 C   0  0  2  0  0  0  0  0  0  0  0  0
    3.8620  -15.8180   -1.6120 C   0  0  0  0  0  0  0  0  0  0  0  0
    3.6310  -16.9750   -0.6680 C   0  0  0  0  0  0  0  0  0  0  0  0
    4.0450  -18.2670   -1.0210 C   0  0  0  0  0  0  0  0  0  0  0  0
    3.8120  -19.3420   -0.1630 C   0  0  0  0  0  0  0  0  0  0  0  0
    3.1650  -19.1370    1.0540 C   0  0  0  0  0  0  0  0  0  0  0  0
    2.7560  -17.8550    1.4170 C   0  0  0  0  0  0  0  0  0  0  0  0
    2.9870  -16.7780    0.5620 C   0  0  0  0  0  0  0  0  0  0  0  0
    6.2110  -15.3920   -0.6730 C   0  0  2  0  0  0  0  0  0  0  0  0
    6.0310  -14.1480   -0.0190 O   0  0  0  0  0  0  0  0  0  0  0  0
    7.7030  -15.7380   -0.7540 C   0  0  1  0  0  0  0  0  0  0  0  0
    7.8110  -17.1510   -0.9560 O   0  0  0  0  0  0  0  0  0  0  0  0
    8.5450  -14.9300   -1.8090 C   0  0  1  0  0  0  0  0  0  0  0  0
    9.0460  -15.8550   -2.9590 C   0  0  0  0  0  0  0  0  0  0  0  0
   10.5510  -16.0060   -3.0130 C   0  0  0  0  0  0  0  0  0  0  0  0
   11.3090  -16.0030   -1.8340 C   0  0  0  0  0  0  0  0  0  0  0  0
   12.6950  -16.1570   -1.8870 C   0  0  0  0  0  0  0  0  0  0  0  0
   13.3360  -16.3020   -3.1150 C   0  0  0  0  0  0  0  0  0  0  0  0
   12.5940  -16.2810   -4.2940 C   0  0  0  0  0  0  0  0  0  0  0  0
   11.2080  -16.1270   -4.2460 C   0  0  0  0  0  0  0  0  0  0  0  0
   10.6980  -12.3820   -1.3950 C   0  0  0  0  0  0  0  0  0  0  0  0
   12.1910  -11.9980    0.7330 H   0  0  0  0  0  0  0  0  0  0  0  0
   13.3700  -13.1120    0.1610 H   0  0  0  0  0  0  0  0  0  0  0  0
   13.9451  -12.5741   -2.3957 H   0  0  0  0  0  0  0  0  0  0  0  0
   12.8320  -12.6217   -4.6209 H   0  0  0  0  0  0  0  0  0  0  0  0
   10.3515  -12.5519   -4.7788 H   0  0  0  0  0  0  0  0  0  0  0  0
    8.1335  -11.6532   -2.2417 H   0  0  0  0  0  0  0  0  0  0  0  0
    8.3891  -12.4967   -3.8888 H   0  0  0  0  0  0  0  0  0  0  0  0
    7.1530  -13.3340   -1.5800 H   0  0  0  0  0  0  0  0  0  0  0  0
    5.0800  -13.7090   -2.6570 H   0  0  0  0  0  0  0  0  0  0  0  0
    5.5176  -15.2959   -5.1021 H   0  0  0  0  0  0  0  0  0  0  0  0
    4.0487  -15.7614   -4.1428 H   0  0  0  0  0  0  0  0  0  0  0  0
    5.4412  -13.1010   -6.4260 H   0  0  0  0  0  0  0  0  0  0  0  0
    4.5443  -10.7242   -6.4559 H   0  0  0  0  0  0  0  0  0  0  0  0
    0.6205  -13.0882   -0.8340 H   0  0  0  0  0  0  0  0  0  0  0  0
    2.0407  -13.8763    1.3045 H   0  0  0  0  0  0  0  0  0  0  0  0
    2.0632  -14.2721   -4.0145 H   0  0  0  0  0  0  0  0  0  0  0  0
    5.7912  -16.5571   -2.4057 H   0  0  0  0  0  0  0  0  0  0  0  0
    3.5017  -14.8950   -1.1343 H   0  0  0  0  0  0  0  0  0  0  0  0
    3.3153  -16.0303   -2.5426 H   0  0  0  0  0  0  0  0  0  0  0  0
    4.5567  -18.4341   -1.9803 H   0  0  0  0  0  0  0  0  0  0  0  0
    4.1395  -20.3528   -0.4475 H   0  0  0  0  0  0  0  0  0  0  0  0
    2.9772  -19.9861    1.7276 H   0  0  0  0  0  0  0  0  0  0  0  0
    2.2499  -17.6925    2.3800 H   0  0  0  0  0  0  0  0  0  0  0  0
    2.6623  -15.7684    0.8539 H   0  0  0  0  0  0  0  0  0  0  0  0
    5.7398  -16.1506   -0.0307 H   0  0  0  0  0  0  0  0  0  0  0  0
    5.1610  -14.1070    0.4710 H   0  0  0  0  0  0  0  0  0  0  0  0
    8.1574  -15.4269    0.1983 H   0  0  0  0  0  0  0  0  0  0  0  0
    8.7520  -17.3490   -1.1440 H   0  0  0  0  0  0  0  0  0  0  0  0
    9.4332  -14.5361   -1.2934 H   0  0  0  0  0  0  0  0  0  0  0  0
    8.6027  -16.8520   -2.8196 H   0  0  0  0  0  0  0  0  0  0  0  0
    8.7382  -15.3844   -3.9044 H   0  0  0  0  0  0  0  0  0  0  0  0
   10.8089  -15.8786   -0.8622 H   0  0  0  0  0  0  0  0  0  0  0  0
   13.2824  -16.1639   -0.9570 H   0  0  0  0  0  0  0  0  0  0  0  0
   14.4275  -16.4330   -3.1540 H   0  0  0  0  0  0  0  0  0  0  0  0
   13.1016  -16.3860   -5.2642 H   0  0  0  0  0  0  0  0  0  0  0  0
   10.6277  -16.1004   -5.1801 H   0  0  0  0  0  0  0  0  0  0  0  0
   10.0976  -12.3063   -0.4764 H   0  0  0  0  0  0  0  0  0  0  0  0
  1  2  1  0
  2  3  2  0
  3  4  1  0
  4  5  2  0
  5  6  1  0
  6  7  1  0
  7  8  1  0
  8  9  1  0
  9 10  2  0
  9 11  1  0
 11 12  1  0
 12 13  1  0
 13 14  2  0
 14 15  1  0
 15 16  2  0
 16 17  1  0
 17 18  1  0
 18 19  2  0
 19 20  1  0
 20 21  1  0
 21 22  2  0
 22 23  1  0
 23 24  1  0
 19 25  1  0
 25 26  2  0
 11 27  1  0
 27 28  1  0
 28 29  1  0
 29 30  2  0
 30 31  1  0
 31 32  2  0
 32 33  1  0
 33 34  2  0
 27 35  1  0
 35 36  1  0
 35 37  1  0
 37 38  1  0
 37 39  1  0
 39 40  1  0
 40 41  1  0
 41 42  2  0
 42 43  1  0
 43 44  2  0
 44 45  1  0
 45 46  2  0
  6 47  2  0
 47  2  1  0
 39  8  1  0
 46 41  1  0
 26 13  1  0
 34 29  1  0
 25 16  1  0
 24 20  2  0
  1 48  1  0
  1 49  1  0
  3 50  1  0
  4 51  1  0
  5 52  1  0
  7 53  1  0
  7 54  1  0
  8 55  1  0
 11 56  1  0
 12 57  1  0
 12 58  1  0
 14 59  1  0
 15 60  1  0
 21 61  1  0
 22 62  1  0
 26 63  1  0
 27 64  1  6
 28 65  1  0
 28 66  1  0
 30 67  1  0
 31 68  1  0
 32 69  1  0
 33 70  1  0
 34 71  1  0
 35 72  1  1
 36 73  1  0
 37 74  1  1
 38 75  1  0
 39 76  1  1
 40 77  1  0
 40 78  1  0
 42 79  1  0
 43 80  1  0
 44 81  1  0
 45 82  1  0
 46 83  1  0
 47 84  1  0
M  CHG  4   8   1  11   1  17  -1  23  -1
M  END
>  <meeko>  (2) 
{"is_sidechain": [false], "free_energy": -7.255, "intermolecular_energy": -13.19, "internal_energy": -4.262}

$$$$
LIB_HRXLCWSIQGZEGT__M_PUB_ALL__e8__s20260927
     RDKit          3D

 84 90  0  0  0  0  0  0  0  0999 V2000
    1.5250  -18.2080   -0.0410 N   0  0  0  0  0  0  0  0  0  0  0  0
    1.1460  -17.0450   -0.6970 C   0  0  0  0  0  0  0  0  0  0  0  0
   -0.1970  -16.6860   -0.7860 C   0  0  0  0  0  0  0  0  0  0  0  0
   -0.5700  -15.4930   -1.3980 C   0  0  0  0  0  0  0  0  0  0  0  0
    0.4070  -14.6200   -1.8780 C   0  0  0  0  0  0  0  0  0  0  0  0
    1.7710  -14.9150   -1.7290 C   0  0  0  0  0  0  0  0  0  0  0  0
    2.7750  -13.8960   -2.2250 C   0  0  0  0  0  0  0  0  0  0  0  0
    3.9320  -13.5170   -1.3220 N   0  0  0  0  0  0  0  0  0  0  0  0
    4.7590  -12.5400   -1.9740 C   0  0  0  0  0  0  0  0  0  0  0  0
    4.2050  -11.5510   -2.4190 O   0  0  0  0  0  0  0  0  0  0  0  0
    6.2050  -12.5740   -1.9670 N   0  0  0  0  0  0  0  0  0  0  0  0
    6.7520  -11.8490   -3.2100 C   0  0  0  0  0  0  0  0  0  0  0  0
    6.8600  -12.7710   -4.3980 C   0  0  0  0  0  0  0  0  0  0  0  0
    5.9530  -12.7340   -5.4830 C   0  0  0  0  0  0  0  0  0  0  0  0
    5.6090  -13.9080   -6.1910 C   0  0  0  0  0  0  0  0  0  0  0  0
    6.0560  -15.1200   -5.6320 C   0  0  0  0  0  0  0  0  0  0  0  0
    5.6340  -16.3960   -5.7800 N   0  0  0  0  0  0  0  0  0  0  0  0
    6.1410  -17.1150   -4.7300 N   0  0  0  0  0  0  0  0  0  0  0  0
    6.7580  -16.2150   -3.9410 C   0  0  0  0  0  0  0  0  0  0  0  0
    6.7800  -16.2170   -2.3250 C   0  0  0  0  0  0  0  0  0  0  0  0
    7.7210  -16.7990   -1.5230 C   0  0  0  0  0  0  0  0  0  0  0  0
    7.1230  -16.7010   -0.2920 C   0  0  0  0  0  0  0  0  0  0  0  0
    5.8250  -16.3020   -0.3710 N   0  0  0  0  0  0  0  0  0  0  0  0
    5.6940  -15.7910   -1.5840 N   0  0  0  0  0  0  0  0  0  0  0  0
    7.0120  -15.0570   -4.6300 C   0  0  0  0  0  0  0  0  0  0  0  0
    7.6360  -13.9110   -4.1750 C   0  0  0  0  0  0  0  0  0  0  0  0
    6.8800  -12.1770   -0.6820 C   0  0  2  0  0  0  0  0  0  0  0  0
    7.9120  -13.2720   -0.2820 C   0  0  0  0  0  0  0  0  0  0  0  0
    9.3330  -12.7630   -0.3100 C   0  0  0  0  0  0  0  0  0  0  0  0
    9.8570  -12.0690    0.7910 C   0  0  0  0  0  0  0  0  0  0  0  0
   11.1610  -11.5760    0.7590 C   0  0  0  0  0  0  0  0  0  0  0  0
   11.9550  -11.7740   -0.3680 C   0  0  0  0  0  0  0  0  0  0  0  0
   11.4480  -12.4680   -1.4640 C   0  0  0  0  0  0  0  0  0  0  0  0
   10.1430  -12.9630   -1.4370 C   0  0  0  0  0  0  0  0  0  0  0  0
    5.9290  -11.8610    0.5290 C   0  0  2  0  0  0  0  0  0  0  0  0
    6.5200  -11.2590    1.6670 O   0  0  0  0  0  0  0  0  0  0  0  0
    4.9760  -12.9840    0.9580 C   0  0  1  0  0  0  0  0  0  0  0  0
    4.6960  -12.8080    2.3510 O   0  0  0  0  0  0  0  0  0  0  0  0
    3.6590  -13.1360    0.1140 C   0  0  1  0  0  0  0  0  0  0  0  0
    2.8000  -11.8390    0.2160 C   0  0  0  0  0  0  0  0  0  0  0  0
    1.3680  -12.0840    0.6370 C   0  0  0  0  0  0  0  0  0  0  0  0
    0.3690  -11.1450    0.3440 C   0  0  0  0  0  0  0  0  0  0  0  0
   -0.9530  -11.3810    0.7220 C   0  0  0  0  0  0  0  0  0  0  0  0
   -1.2870  -12.5460    1.4070 C   0  0  0  0  0  0  0  0  0  0  0  0
   -0.2970  -13.4750    1.7260 C   0  0  0  0  0  0  0  0  0  0  0  0
    1.0260  -13.2420    1.3490 C   0  0  0  0  0  0  0  0  0  0  0  0
    2.1170  -16.1470   -1.1530 C   0  0  0  0  0  0  0  0  0  0  0  0
    1.1560  -18.3730    0.8880 H   0  0  0  0  0  0  0  0  0  0  0  0
    1.7300  -19.0320   -0.5920 H   0  0  0  0  0  0  0  0  0  0  0  0
   -0.9684  -17.3504   -0.3695 H   0  0  0  0  0  0  0  0  0  0  0  0
   -1.6349  -15.2383   -1.5033 H   0  0  0  0  0  0  0  0  0  0  0  0
    0.1043  -13.6889   -2.3795 H   0  0  0  0  0  0  0  0  0  0  0  0
    3.2068  -14.2929   -3.1556 H   0  0  0  0  0  0  0  0  0  0  0  0
    2.1916  -12.9679   -2.3165 H   0  0  0  0  0  0  0  0  0  0  0  0
    4.5350  -14.3940   -1.3650 H   0  0  0  0  0  0  0  0  0  0  0  0
    6.3590  -13.6180   -2.0690 H   0  0  0  0  0  0  0  0  0  0  0  0
    6.0755  -11.0197   -3.4641 H   0  0  0  0  0  0  0  0  0  0  0  0
    7.7608  -11.4802   -2.9725 H   0  0  0  0  0  0  0  0  0  0  0  0
    5.5071  -11.7737   -5.7812 H   0  0  0  0  0  0  0  0  0  0  0  0
    5.0265  -13.8764   -7.1236 H   0  0  0  0  0  0  0  0  0  0  0  0
    8.6964  -17.2304   -1.7922 H   0  0  0  0  0  0  0  0  0  0  0  0
    7.6371  -16.9210    0.6553 H   0  0  0  0  0  0  0  0  0  0  0  0
    8.6255  -13.8980   -3.6946 H   0  0  0  0  0  0  0  0  0  0  0  0
    7.3699  -11.2164   -0.8994 H   0  0  0  0  0  0  0  0  0  0  0  0
    7.6814  -13.6194    0.7359 H   0  0  0  0  0  0  0  0  0  0  0  0
    7.8344  -14.0889   -1.0146 H   0  0  0  0  0  0  0  0  0  0  0  0
    9.2354  -11.9128    1.6850 H   0  0  0  0  0  0  0  0  0  0  0  0
   11.5631  -11.0299    1.6251 H   0  0  0  0  0  0  0  0  0  0  0  0
   12.9826  -11.3823   -0.3925 H   0  0  0  0  0  0  0  0  0  0  0  0
   12.0770  -12.6263   -2.3524 H   0  0  0  0  0  0  0  0  0  0  0  0
    9.7481  -13.5127   -2.3041 H   0  0  0  0  0  0  0  0  0  0  0  0
    5.3153  -11.0834    0.0507 H   0  0  0  0  0  0  0  0  0  0  0  0
    7.1410  -11.8840    2.1390 H   0  0  0  0  0  0  0  0  0  0  0  0
    5.4931  -13.9349    0.7620 H   0  0  0  0  0  0  0  0  0  0  0  0
    5.5380  -12.9260    2.8360 H   0  0  0  0  0  0  0  0  0  0  0  0
    3.0829  -13.9692    0.5429 H   0  0  0  0  0  0  0  0  0  0  0  0
    3.2683  -11.1705    0.9534 H   0  0  0  0  0  0  0  0  0  0  0  0
    2.7658  -11.3986   -0.7914 H   0  0  0  0  0  0  0  0  0  0  0  0
    0.6289  -10.2172   -0.1868 H   0  0  0  0  0  0  0  0  0  0  0  0
   -1.7332  -10.6449    0.4782 H   0  0  0  0  0  0  0  0  0  0  0  0
   -2.3315  -12.7337    1.6966 H   0  0  0  0  0  0  0  0  0  0  0  0
   -0.5592  -14.3915    2.2749 H   0  0  0  0  0  0  0  0  0  0  0  0
    1.8058  -13.9718    1.6122 H   0  0  0  0  0  0  0  0  0  0  0  0
    3.1799  -16.4137   -1.0575 H   0  0  0  0  0  0  0  0  0  0  0  0
  1  2  1  0
  2  3  2  0
  3  4  1  0
  4  5  2  0
  5  6  1  0
  6  7  1  0
  7  8  1  0
  8  9  1  0
  9 10  2  0
  9 11  1  0
 11 12  1  0
 12 13  1  0
 13 14  2  0
 14 15  1  0
 15 16  2  0
 16 17  1  0
 17 18  1  0
 18 19  2  0
 19 20  1  0
 20 21  1  0
 21 22  2  0
 22 23  1  0
 23 24  1  0
 19 25  1  0
 25 26  2  0
 11 27  1  0
 27 28  1  0
 28 29  1  0
 29 30  2  0
 30 31  1  0
 31 32  2  0
 32 33  1  0
 33 34  2  0
 27 35  1  0
 35 36  1  0
 35 37  1  0
 37 38  1  0
 37 39  1  0
 39 40  1  0
 40 41  1  0
 41 42  2  0
 42 43  1  0
 43 44  2  0
 44 45  1  0
 45 46  2  0
  6 47  2  0
 47  2  1  0
 39  8  1  0
 46 41  1  0
 26 13  1  0
 34 29  1  0
 25 16  1  0
 24 20  2  0
  1 48  1  0
  1 49  1  0
  3 50  1  0
  4 51  1  0
  5 52  1  0
  7 53  1  0
  7 54  1  0
  8 55  1  0
 11 56  1  0
 12 57  1  0
 12 58  1  0
 14 59  1  0
 15 60  1  0
 21 61  1  0
 22 62  1  0
 26 63  1  0
 27 64  1  6
 28 65  1  0
 28 66  1  0
 30 67  1  0
 31 68  1  0
 32 69  1  0
 33 70  1  0
 34 71  1  0
 35 72  1  6
 36 73  1  0
 37 74  1  1
 38 75  1  0
 39 76  1  1
 40 77  1  0
 40 78  1  0
 42 79  1  0
 43 80  1  0
 44 81  1  0
 45 82  1  0
 46 83  1  0
 47 84  1  0
M  CHG  4   8   1  11   1  17  -1  23  -1
M  END
>  <meeko>  (3) 
{"is_sidechain": [false], "free_energy": -7.23, "intermolecular_energy": -12.613, "internal_energy": -4.79}

$$$$
LIB_HRXLCWSIQGZEGT__M_PUB_ALL__e8__s20260927
     RDKit          3D

 84 90  0  0  0  0  0  0  0  0999 V2000
   -4.6420  -10.8320   -0.9400 N   0  0  0  0  0  0  0  0  0  0  0  0
   -3.4930  -10.9440   -0.1700 C   0  0  0  0  0  0  0  0  0  0  0  0
   -2.9050   -9.8150    0.3950 C   0  0  0  0  0  0  0  0  0  0  0  0
   -1.7820   -9.9370    1.2100 C   0  0  0  0  0  0  0  0  0  0  0  0
   -1.2730  -11.1990    1.5120 C   0  0  0  0  0  0  0  0  0  0  0  0
   -1.8930  -12.3610    1.0250 C   0  0  0  0  0  0  0  0  0  0  0  0
   -1.3160  -13.6990    1.4370 C   0  0  0  0  0  0  0  0  0  0  0  0
   -1.8910  -14.9590    0.8200 N   0  0  0  0  0  0  0  0  0  0  0  0
   -1.0240  -15.4290   -0.2240 C   0  0  0  0  0  0  0  0  0  0  0  0
   -1.5240  -15.6220   -1.3170 O   0  0  0  0  0  0  0  0  0  0  0  0
    0.4150  -15.5050   -0.1020 N   0  0  0  0  0  0  0  0  0  0  0  0
    0.9800  -14.1310    0.3030 C   0  0  0  0  0  0  0  0  0  0  0  0
    1.5200  -13.3720   -0.8820 C   0  0  0  0  0  0  0  0  0  0  0  0
    1.4580  -13.8700   -2.2040 C   0  0  0  0  0  0  0  0  0  0  0  0
    2.4700  -13.5760   -3.1460 C   0  0  0  0  0  0  0  0  0  0  0  0
    3.6210  -12.9440   -2.6390 C   0  0  0  0  0  0  0  0  0  0  0  0
    4.8860  -12.8550   -3.1090 N   0  0  0  0  0  0  0  0  0  0  0  0
    5.6820  -12.4800   -2.0580 N   0  0  0  0  0  0  0  0  0  0  0  0
    4.8740  -12.4630   -0.9820 C   0  0  0  0  0  0  0  0  0  0  0  0
    5.2650  -12.9280    0.5150 C   0  0  0  0  0  0  0  0  0  0  0  0
    5.0940  -14.1730    1.0540 C   0  0  0  0  0  0  0  0  0  0  0  0
    5.3630  -13.9330    2.3780 C   0  0  0  0  0  0  0  0  0  0  0  0
    5.4630  -12.6060    2.6600 N   0  0  0  0  0  0  0  0  0  0  0  0
    5.6300  -12.0160    1.4870 N   0  0  0  0  0  0  0  0  0  0  0  0
    3.5570  -12.4110   -1.3620 C   0  0  0  0  0  0  0  0  0  0  0  0
    2.4350  -12.3690   -0.5550 C   0  0  0  0  0  0  0  0  0  0  0  0
    0.9610  -16.6530    0.7050 C   0  0  2  0  0  0  0  0  0  0  0  0
    1.2860  -17.8420   -0.2460 C   0  0  0  0  0  0  0  0  0  0  0  0
    2.7440  -17.8870   -0.6370 C   0  0  0  0  0  0  0  0  0  0  0  0
    3.5600  -18.9400   -0.1990 C   0  0  0  0  0  0  0  0  0  0  0  0
    4.9130  -18.9720   -0.5360 C   0  0  0  0  0  0  0  0  0  0  0  0
    5.4630  -17.9570   -1.3160 C   0  0  0  0  0  0  0  0  0  0  0  0
    4.6590  -16.9100   -1.7620 C   0  0  0  0  0  0  0  0  0  0  0  0
    3.3050  -16.8740   -1.4260 C   0  0  0  0  0  0  0  0  0  0  0  0
    0.0670  -17.1440    1.9000 C   0  0  2  0  0  0  0  0  0  0  0  0
    0.5730  -18.2120    2.6810 O   0  0  0  0  0  0  0  0  0  0  0  0
   -1.4190  -17.3690    1.5920 C   0  0  1  0  0  0  0  0  0  0  0  0
   -1.8730  -18.4510    2.4110 O   0  0  0  0  0  0  0  0  0  0  0  0
   -2.3330  -16.0900    1.7190 C   0  0  1  0  0  0  0  0  0  0  0  0
   -2.4270  -15.6430    3.2090 C   0  0  0  0  0  0  0  0  0  0  0  0
   -3.8160  -15.2270    3.6380 C   0  0  0  0  0  0  0  0  0  0  0  0
   -4.3770  -14.0310    3.1690 C   0  0  0  0  0  0  0  0  0  0  0  0
   -5.6650  -13.6570    3.5560 C   0  0  0  0  0  0  0  0  0  0  0  0
   -6.3970  -14.4640    4.4230 C   0  0  0  0  0  0  0  0  0  0  0  0
   -5.8390  -15.6430    4.9150 C   0  0  0  0  0  0  0  0  0  0  0  0
   -4.5510  -16.0200    4.5310 C   0  0  0  0  0  0  0  0  0  0  0  0
   -2.9910  -12.2070    0.1660 C   0  0  0  0  0  0  0  0  0  0  0  0
   -4.5360  -10.6380   -1.9280 H   0  0  0  0  0  0  0  0  0  0  0  0
   -5.4590  -11.3690   -0.6750 H   0  0  0  0  0  0  0  0  0  0  0  0
   -3.3303   -8.8202    0.1963 H   0  0  0  0  0  0  0  0  0  0  0  0
   -1.2966   -9.0370    1.6155 H   0  0  0  0  0  0  0  0  0  0  0  0
   -0.3740  -11.2858    2.1399 H   0  0  0  0  0  0  0  0  0  0  0  0
   -0.2437  -13.6786    1.1926 H   0  0  0  0  0  0  0  0  0  0  0  0
   -1.5700  -13.7832    2.5040 H   0  0  0  0  0  0  0  0  0  0  0  0
   -2.7200  -14.5720    0.2750 H   0  0  0  0  0  0  0  0  0  0  0  0
    0.6680  -15.7090   -1.1110 H   0  0  0  0  0  0  0  0  0  0  0  0
    0.1773  -13.5397    0.7679 H   0  0  0  0  0  0  0  0  0  0  0  0
    1.8090  -14.2980    1.0065 H   0  0  0  0  0  0  0  0  0  0  0  0
    0.6064  -14.4979   -2.5049 H   0  0  0  0  0  0  0  0  0  0  0  0
    2.3643  -13.8262   -4.2119 H   0  0  0  0  0  0  0  0  0  0  0  0
    4.8154  -15.1149    0.5588 H   0  0  0  0  0  0  0  0  0  0  0  0
    5.4845  -14.7271    3.1294 H   0  0  0  0  0  0  0  0  0  0  0  0
    2.2815  -11.6335    0.2484 H   0  0  0  0  0  0  0  0  0  0  0  0
    1.8671  -16.2596    1.1890 H   0  0  0  0  0  0  0  0  0  0  0  0
    1.0281  -18.7821    0.2636 H   0  0  0  0  0  0  0  0  0  0  0  0
    0.6972  -17.7059   -1.1651 H   0  0  0  0  0  0  0  0  0  0  0  0
    3.1303  -19.7458    0.4142 H   0  0  0  0  0  0  0  0  0  0  0  0
    5.5468  -19.7999   -0.1854 H   0  0  0  0  0  0  0  0  0  0  0  0
    6.5307  -17.9821   -1.5794 H   0  0  0  0  0  0  0  0  0  0  0  0
    5.0925  -16.1101   -2.3803 H   0  0  0  0  0  0  0  0  0  0  0  0
    2.6747  -16.0459   -1.7825 H   0  0  0  0  0  0  0  0  0  0  0  0
    0.1319  -16.2432    2.5280 H   0  0  0  0  0  0  0  0  0  0  0  0
   -0.0460  -18.4540    3.4270 H   0  0  0  0  0  0  0  0  0  0  0  0
   -1.5087  -17.6208    0.5250 H   0  0  0  0  0  0  0  0  0  0  0  0
   -1.4300  -18.3670    3.2800 H   0  0  0  0  0  0  0  0  0  0  0  0
   -3.3389  -16.3681    1.3714 H   0  0  0  0  0  0  0  0  0  0  0  0
   -2.1056  -16.4823    3.8432 H   0  0  0  0  0  0  0  0  0  0  0  0
   -1.7812  -14.7592    3.3183 H   0  0  0  0  0  0  0  0  0  0  0  0
   -3.7993  -13.3839    2.4926 H   0  0  0  0  0  0  0  0  0  0  0  0
   -6.1027  -12.7225    3.1751 H   0  0  0  0  0  0  0  0  0  0  0  0
   -7.4151  -14.1714    4.7196 H   0  0  0  0  0  0  0  0  0  0  0  0
   -6.4141  -16.2766    5.6063 H   0  0  0  0  0  0  0  0  0  0  0  0
   -4.1099  -16.9448    4.9313 H   0  0  0  0  0  0  0  0  0  0  0  0
   -3.4707  -13.1028   -0.2551 H   0  0  0  0  0  0  0  0  0  0  0  0
  1  2  1  0
  2  3  2  0
  3  4  1  0
  4  5  2  0
  5  6  1  0
  6  7  1  0
  7  8  1  0
  8  9  1  0
  9 10  2  0
  9 11  1  0
 11 12  1  0
 12 13  1  0
 13 14  2  0
 14 15  1  0
 15 16  2  0
 16 17  1  0
 17 18  1  0
 18 19  2  0
 19 20  1  0
 20 21  1  0
 21 22  2  0
 22 23  1  0
 23 24  1  0
 19 25  1  0
 25 26  2  0
 11 27  1  0
 27 28  1  0
 28 29  1  0
 29 30  2  0
 30 31  1  0
 31 32  2  0
 32 33  1  0
 33 34  2  0
 27 35  1  0
 35 36  1  0
 35 37  1  0
 37 38  1  0
 37 39  1  0
 39 40  1  0
 40 41  1  0
 41 42  2  0
 42 43  1  0
 43 44  2  0
 44 45  1  0
 45 46  2  0
  6 47  2  0
 47  2  1  0
 39  8  1  0
 46 41  1  0
 26 13  1  0
 34 29  1  0
 25 16  1  0
 24 20  2  0
  1 48  1  0
  1 49  1  0
  3 50  1  0
  4 51  1  0
  5 52  1  0
  7 53  1  0
  7 54  1  0
  8 55  1  0
 11 56  1  0
 12 57  1  0
 12 58  1  0
 14 59  1  0
 15 60  1  0
 21 61  1  0
 22 62  1  0
 26 63  1  0
 27 64  1  1
 28 65  1  0
 28 66  1  0
 30 67  1  0
 31 68  1  0
 32 69  1  0
 33 70  1  0
 34 71  1  0
 35 72  1  1
 36 73  1  0
 37 74  1  6
 38 75  1  0
 39 76  1  6
 40 77  1  0
 40 78  1  0
 42 79  1  0
 43 80  1  0
 44 81  1  0
 45 82  1  0
 46 83  1  0
 47 84  1  0
M  CHG  4   8   1  11   1  17  -1  23  -1
M  END
>  <meeko>  (4) 
{"is_sidechain": [false], "free_energy": -7.179, "intermolecular_energy": -15.346, "internal_energy": -1.956}

$$$$
LIB_HRXLCWSIQGZEGT__M_PUB_ALL__e8__s20260927
     RDKit          3D

 84 90  0  0  0  0  0  0  0  0999 V2000
   13.3070  -12.3400   -3.4980 N   0  0  0  0  0  0  0  0  0  0  0  0
   13.1330  -13.3790   -4.4000 C   0  0  0  0  0  0  0  0  0  0  0  0
   14.0350  -14.4400   -4.4430 C   0  0  0  0  0  0  0  0  0  0  0  0
   13.8290  -15.5070   -5.3140 C   0  0  0  0  0  0  0  0  0  0  0  0
   12.6850  -15.5470   -6.1100 C   0  0  0  0  0  0  0  0  0  0  0  0
   11.7160  -14.5340   -6.0290 C   0  0  0  0  0  0  0  0  0  0  0  0
   10.4730  -14.6700   -6.8840 C   0  0  0  0  0  0  0  0  0  0  0  0
    9.3330  -15.5300   -6.3760 N   0  0  0  0  0  0  0  0  0  0  0  0
    8.8340  -14.9950   -5.1390 C   0  0  0  0  0  0  0  0  0  0  0  0
    8.4800  -13.8310   -5.1400 O   0  0  0  0  0  0  0  0  0  0  0  0
    8.5590  -15.7980   -3.9680 N   0  0  0  0  0  0  0  0  0  0  0  0
    8.3250  -14.8840   -2.7510 C   0  0  0  0  0  0  0  0  0  0  0  0
    9.5970  -14.2190   -2.2910 C   0  0  0  0  0  0  0  0  0  0  0  0
   10.7640  -14.9460   -1.9580 C   0  0  0  0  0  0  0  0  0  0  0  0
   11.6460  -14.4930   -0.9500 C   0  0  0  0  0  0  0  0  0  0  0  0
   11.1940  -13.4080   -0.1750 C   0  0  0  0  0  0  0  0  0  0  0  0
   11.5460  -12.9640    1.0530 N   0  0  0  0  0  0  0  0  0  0  0  0
   10.5410  -12.1390    1.4870 N   0  0  0  0  0  0  0  0  0  0  0  0
    9.5830  -12.2100    0.5450 C   0  0  0  0  0  0  0  0  0  0  0  0
    7.9880  -12.2140    0.8010 C   0  0  0  0  0  0  0  0  0  0  0  0
    7.1030  -11.2340    0.4530 C   0  0  0  0  0  0  0  0  0  0  0  0
    5.9710  -11.6450    1.1120 C   0  0  0  0  0  0  0  0  0  0  0  0
    6.2120  -12.6660    1.9780 N   0  0  0  0  0  0  0  0  0  0  0  0
    7.3870  -13.1560    1.6150 N   0  0  0  0  0  0  0  0  0  0  0  0
   10.0910  -12.7040   -0.6300 C   0  0  0  0  0  0  0  0  0  0  0  0
    9.4300  -12.9140   -1.8250 C   0  0  0  0  0  0  0  0  0  0  0  0
    7.5280  -16.8840   -4.1240 C   0  0  2  0  0  0  0  0  0  0  0  0
    8.2290  -18.2720   -4.0500 C   0  0  0  0  0  0  0  0  0  0  0  0
    9.4230  -18.2670   -3.1260 C   0  0  0  0  0  0  0  0  0  0  0  0
   10.7220  -18.2000   -3.6510 C   0  0  0  0  0  0  0  0  0  0  0  0
   11.8290  -18.2200   -2.8020 C   0  0  0  0  0  0  0  0  0  0  0  0
   11.6500  -18.3040   -1.4230 C   0  0  0  0  0  0  0  0  0  0  0  0
   10.3630  -18.3650   -0.8910 C   0  0  0  0  0  0  0  0  0  0  0  0
    9.2540  -18.3450   -1.7370 C   0  0  0  0  0  0  0  0  0  0  0  0
    6.6260  -16.8000   -5.4080 C   0  0  2  0  0  0  0  0  0  0  0  0
    5.3740  -17.4610   -5.3550 O   0  0  0  0  0  0  0  0  0  0  0  0
    7.3180  -17.0820   -6.7470 C   0  0  1  0  0  0  0  0  0  0  0  0
    6.3160  -17.5190   -7.6710 O   0  0  0  0  0  0  0  0  0  0  0  0
    8.2050  -15.8960   -7.3110 C   0  0  1  0  0  0  0  0  0  0  0  0
    7.2990  -14.6690   -7.6330 C   0  0  0  0  0  0  0  0  0  0  0  0
    7.5650  -14.0500   -8.9880 C   0  0  0  0  0  0  0  0  0  0  0  0
    6.7770  -12.9870   -9.4510 C   0  0  0  0  0  0  0  0  0  0  0  0
    7.0340  -12.4090  -10.6950 C   0  0  0  0  0  0  0  0  0  0  0  0
    8.0690  -12.8940  -11.4910 C   0  0  0  0  0  0  0  0  0  0  0  0
    8.8420  -13.9670  -11.0500 C   0  0  0  0  0  0  0  0  0  0  0  0
    8.5880  -14.5480   -9.8070 C   0  0  0  0  0  0  0  0  0  0  0  0
   11.9740  -13.4460   -5.1810 C   0  0  0  0  0  0  0  0  0  0  0  0
   12.5200  -11.7270   -3.3190 H   0  0  0  0  0  0  0  0  0  0  0  0
   13.9590  -12.4640   -2.7330 H   0  0  0  0  0  0  0  0  0  0  0  0
   14.9160  -14.4349   -3.7844 H   0  0  0  0  0  0  0  0  0  0  0  0
   14.5692  -16.3185   -5.3740 H   0  0  0  0  0  0  0  0  0  0  0  0
   12.5397  -16.3827   -6.8103 H   0  0  0  0  0  0  0  0  0  0  0  0
   10.0720  -13.6571   -7.0364 H   0  0  0  0  0  0  0  0  0  0  0  0
   10.8236  -15.1947   -7.7850 H   0  0  0  0  0  0  0  0  0  0  0  0
    9.8490  -16.4050   -6.0560 H   0  0  0  0  0  0  0  0  0  0  0  0
    9.4920  -16.2910   -3.8660 H   0  0  0  0  0  0  0  0  0  0  0  0
    7.5971  -14.1064   -3.0257 H   0  0  0  0  0  0  0  0  0  0  0  0
    7.9497  -15.5069   -1.9256 H   0  0  0  0  0  0  0  0  0  0  0  0
   10.9893  -15.8804   -2.4928 H   0  0  0  0  0  0  0  0  0  0  0  0
   12.6273  -14.9606   -0.7813 H   0  0  0  0  0  0  0  0  0  0  0  0
    7.2562  -10.3511   -0.1850 H   0  0  0  0  0  0  0  0  0  0  0  0
    4.9781  -11.1978    0.9568 H   0  0  0  0  0  0  0  0  0  0  0  0
    8.8422  -12.1445   -2.3469 H   0  0  0  0  0  0  0  0  0  0  0  0
    6.8255  -16.7377   -3.2902 H   0  0  0  0  0  0  0  0  0  0  0  0
    7.5039  -19.0147   -3.6857 H   0  0  0  0  0  0  0  0  0  0  0  0
    8.5882  -18.5198   -5.0597 H   0  0  0  0  0  0  0  0  0  0  0  0
   10.8689  -18.1313   -4.7390 H   0  0  0  0  0  0  0  0  0  0  0  0
   12.8444  -18.1694   -3.2220 H   0  0  0  0  0  0  0  0  0  0  0  0
   12.5234  -18.3222   -0.7546 H   0  0  0  0  0  0  0  0  0  0  0  0
   10.2216  -18.4290    0.1980 H   0  0  0  0  0  0  0  0  0  0  0  0
    8.2408  -18.3907   -1.3113 H   0  0  0  0  0  0  0  0  0  0  0  0
    6.4092  -15.7220   -5.3793 H   0  0  0  0  0  0  0  0  0  0  0  0
    5.3750  -18.3050   -5.8890 H   0  0  0  0  0  0  0  0  0  0  0  0
    8.0647  -17.8733   -6.5852 H   0  0  0  0  0  0  0  0  0  0  0  0
    6.3530  -16.9220   -8.4470 H   0  0  0  0  0  0  0  0  0  0  0  0
    8.6822  -16.2365   -8.2418 H   0  0  0  0  0  0  0  0  0  0  0  0
    6.2491  -14.9958   -7.6014 H   0  0  0  0  0  0  0  0  0  0  0  0
    7.5242  -13.8992   -6.8802 H   0  0  0  0  0  0  0  0  0  0  0  0
    5.9520  -12.6066   -8.8307 H   0  0  0  0  0  0  0  0  0  0  0  0
    6.4179  -11.5687  -11.0476 H   0  0  0  0  0  0  0  0  0  0  0  0
    8.2763  -12.4307  -12.4669 H   0  0  0  0  0  0  0  0  0  0  0  0
    9.6533  -14.3562  -11.6827 H   0  0  0  0  0  0  0  0  0  0  0  0
    9.1937  -15.4013   -9.4680 H   0  0  0  0  0  0  0  0  0  0  0  0
   11.2453  -12.6236   -5.1289 H   0  0  0  0  0  0  0  0  0  0  0  0
  1  2  1  0
  2  3  2  0
  3  4  1  0
  4  5  2  0
  5  6  1  0
  6  7  1  0
  7  8  1  0
  8  9  1  0
  9 10  2  0
  9 11  1  0
 11 12  1  0
 12 13  1  0
 13 14  2  0
 14 15  1  0
 15 16  2  0
 16 17  1  0
 17 18  1  0
 18 19  2  0
 19 20  1  0
 20 21  1  0
 21 22  2  0
 22 23  1  0
 23 24  1  0
 19 25  1  0
 25 26  2  0
 11 27  1  0
 27 28  1  0
 28 29  1  0
 29 30  2  0
 30 31  1  0
 31 32  2  0
 32 33  1  0
 33 34  2  0
 27 35  1  0
 35 36  1  0
 35 37  1  0
 37 38  1  0
 37 39  1  0
 39 40  1  0
 40 41  1  0
 41 42  2  0
 42 43  1  0
 43 44  2  0
 44 45  1  0
 45 46  2  0
  6 47  2  0
 47  2  1  0
 39  8  1  0
 46 41  1  0
 26 13  1  0
 34 29  1  0
 25 16  1  0
 24 20  2  0
  1 48  1  0
  1 49  1  0
  3 50  1  0
  4 51  1  0
  5 52  1  0
  7 53  1  0
  7 54  1  0
  8 55  1  0
 11 56  1  0
 12 57  1  0
 12 58  1  0
 14 59  1  0
 15 60  1  0
 21 61  1  0
 22 62  1  0
 26 63  1  0
 27 64  1  1
 28 65  1  0
 28 66  1  0
 30 67  1  0
 31 68  1  0
 32 69  1  0
 33 70  1  0
 34 71  1  0
 35 72  1  6
 36 73  1  0
 37 74  1  1
 38 75  1  0
 39 76  1  6
 40 77  1  0
 40 78  1  0
 42 79  1  0
 43 80  1  0
 44 81  1  0
 45 82  1  0
 46 83  1  0
 47 84  1  0
M  CHG  4   8   1  11   1  17  -1  23  -1
M  END
>  <meeko>  (5) 
{"is_sidechain": [false], "free_energy": -7.108, "intermolecular_energy": -13.81, "internal_energy": -3.352}

$$$$
LIB_HRXLCWSIQGZEGT__M_PUB_ALL__e8__s20260927
     RDKit          3D

 84 90  0  0  0  0  0  0  0  0999 V2000
   -1.4250   -8.9030    3.8200 N   0  0  0  0  0  0  0  0  0  0  0  0
   -1.7470   -9.8320    2.8400 C   0  0  0  0  0  0  0  0  0  0  0  0
   -2.1790   -9.4160    1.5830 C   0  0  0  0  0  0  0  0  0  0  0  0
   -2.4500  -10.3490    0.5860 C   0  0  0  0  0  0  0  0  0  0  0  0
   -2.2360  -11.7070    0.8230 C   0  0  0  0  0  0  0  0  0  0  0  0
   -1.7230  -12.1500    2.0530 C   0  0  0  0  0  0  0  0  0  0  0  0
   -1.4650  -13.6330    2.2200 C   0  0  0  0  0  0  0  0  0  0  0  0
   -0.3770  -14.2800    1.3870 N   0  0  0  0  0  0  0  0  0  0  0  0
    0.9050  -14.0360    1.9870 C   0  0  0  0  0  0  0  0  0  0  0  0
    0.9890  -14.1720    3.1940 O   0  0  0  0  0  0  0  0  0  0  0  0
    2.1210  -13.8260    1.2320 N   0  0  0  0  0  0  0  0  0  0  0  0
    3.3280  -14.3670    2.0210 C   0  0  0  0  0  0  0  0  0  0  0  0
    4.5980  -13.6290    1.6840 C   0  0  0  0  0  0  0  0  0  0  0  0
    4.6120  -12.2760    1.2710 C   0  0  0  0  0  0  0  0  0  0  0  0
    5.5770  -11.8010    0.3530 C   0  0  0  0  0  0  0  0  0  0  0  0
    6.3760  -12.7800   -0.2660 C   0  0  0  0  0  0  0  0  0  0  0  0
    7.0950  -12.7690   -1.4110 N   0  0  0  0  0  0  0  0  0  0  0  0
    7.3490  -14.0750   -1.7410 N   0  0  0  0  0  0  0  0  0  0  0  0
    6.6800  -14.8120   -0.8350 C   0  0  0  0  0  0  0  0  0  0  0  0
    5.9040  -16.2010   -1.1180 C   0  0  0  0  0  0  0  0  0  0  0  0
    6.2160  -17.4290   -0.6060 C   0  0  0  0  0  0  0  0  0  0  0  0
    5.4050  -18.2470   -1.3530 C   0  0  0  0  0  0  0  0  0  0  0  0
    4.8190  -17.5940   -2.3920 N   0  0  0  0  0  0  0  0  0  0  0  0
    4.9450  -16.3080   -2.1080 N   0  0  0  0  0  0  0  0  0  0  0  0
    6.3600  -14.0590    0.2650 C   0  0  0  0  0  0  0  0  0  0  0  0
    5.6890  -14.4560    1.4060 C   0  0  0  0  0  0  0  0  0  0  0  0
    2.0960  -14.2490   -0.2130 C   0  0  2  0  0  0  0  0  0  0  0  0
    1.1940  -13.2710   -1.0200 C   0  0  0  0  0  0  0  0  0  0  0  0
    1.9340  -12.6140   -2.1620 C   0  0  0  0  0  0  0  0  0  0  0  0
    2.7060  -11.4660   -1.9360 C   0  0  0  0  0  0  0  0  0  0  0  0
    3.3710  -10.8430   -2.9920 C   0  0  0  0  0  0  0  0  0  0  0  0
    3.2730  -11.3610   -4.2820 C   0  0  0  0  0  0  0  0  0  0  0  0
    2.5130  -12.5050   -4.5160 C   0  0  0  0  0  0  0  0  0  0  0  0
    1.8470  -13.1310   -3.4630 C   0  0  0  0  0  0  0  0  0  0  0  0
    1.6660  -15.7360   -0.4890 C   0  0  2  0  0  0  0  0  0  0  0  0
    2.2210  -16.3600   -1.6340 O   0  0  0  0  0  0  0  0  0  0  0  0
    0.1660  -16.0400   -0.3930 C   0  0  1  0  0  0  0  0  0  0  0  0
   -0.0250  -17.4060   -0.7780 O   0  0  0  0  0  0  0  0  0  0  0  0
   -0.5220  -15.7240    0.9680 C   0  0  1  0  0  0  0  0  0  0  0  0
   -0.0050  -16.7010    2.0670 C   0  0  0  0  0  0  0  0  0  0  0  0
   -1.0930  -17.2360    2.9720 C   0  0  0  0  0  0  0  0  0  0  0  0
   -0.8360  -17.4720    4.3300 C   0  0  0  0  0  0  0  0  0  0  0  0
   -1.8450  -17.9520    5.1650 C   0  0  0  0  0  0  0  0  0  0  0  0
   -3.1130  -18.2130    4.6520 C   0  0  0  0  0  0  0  0  0  0  0  0
   -3.3720  -18.0050    3.2980 C   0  0  0  0  0  0  0  0  0  0  0  0
   -2.3650  -17.5260    2.4590 C   0  0  0  0  0  0  0  0  0  0  0  0
   -1.5060  -11.1930    3.0560 C   0  0  0  0  0  0  0  0  0  0  0  0
   -0.5320   -8.9950    4.2900 H   0  0  0  0  0  0  0  0  0  0  0  0
   -1.7910   -7.9630    3.7370 H   0  0  0  0  0  0  0  0  0  0  0  0
   -2.3069   -8.3431    1.3767 H   0  0  0  0  0  0  0  0  0  0  0  0
   -2.8332  -10.0151   -0.3895 H   0  0  0  0  0  0  0  0  0  0  0  0
   -2.4719  -12.4396    0.0371 H   0  0  0  0  0  0  0  0  0  0  0  0
   -1.2068  -13.7999    3.2762 H   0  0  0  0  0  0  0  0  0  0  0  0
   -2.3916  -14.1073    1.8645 H   0  0  0  0  0  0  0  0  0  0  0  0
   -0.3550  -13.6460    0.5320 H   0  0  0  0  0  0  0  0  0  0  0  0
    2.1470  -12.7670    1.2270 H   0  0  0  0  0  0  0  0  0  0  0  0
    3.1276  -14.2565    3.0969 H   0  0  0  0  0  0  0  0  0  0  0  0
    3.4662  -15.4239    1.7491 H   0  0  0  0  0  0  0  0  0  0  0  0
    3.8589  -11.5812    1.6711 H   0  0  0  0  0  0  0  0  0  0  0  0
    5.6961  -10.7293    0.1356 H   0  0  0  0  0  0  0  0  0  0  0  0
    6.9268  -17.6918    0.1913 H   0  0  0  0  0  0  0  0  0  0  0  0
    5.2466  -19.3135   -1.1350 H   0  0  0  0  0  0  0  0  0  0  0  0
    5.9793  -15.3200    2.0218 H   0  0  0  0  0  0  0  0  0  0  0  0
    3.1436  -14.2035   -0.5454 H   0  0  0  0  0  0  0  0  0  0  0  0
    0.3410  -13.8328   -1.4285 H   0  0  0  0  0  0  0  0  0  0  0  0
    0.8627  -12.4772   -0.3343 H   0  0  0  0  0  0  0  0  0  0  0  0
    2.7879  -11.0539   -0.9194 H   0  0  0  0  0  0  0  0  0  0  0  0
    3.9736   -9.9417   -2.8063 H   0  0  0  0  0  0  0  0  0  0  0  0
    3.7952  -10.8671   -5.1147 H   0  0  0  0  0  0  0  0  0  0  0  0
    2.4382  -12.9153   -5.5339 H   0  0  0  0  0  0  0  0  0  0  0  0
    1.2502  -14.0351   -3.6536 H   0  0  0  0  0  0  0  0  0  0  0  0
    2.1449  -16.2059    0.3827 H   0  0  0  0  0  0  0  0  0  0  0  0
    2.7430  -15.7170   -2.1940 H   0  0  0  0  0  0  0  0  0  0  0  0
   -0.3418  -15.3435   -1.0764 H   0  0  0  0  0  0  0  0  0  0  0  0
    0.3720  -17.9660   -0.0800 H   0  0  0  0  0  0  0  0  0  0  0  0
   -1.6024  -15.8809    0.8331 H   0  0  0  0  0  0  0  0  0  0  0  0
    0.4833  -17.5529    1.5713 H   0  0  0  0  0  0  0  0  0  0  0  0
    0.6871  -16.1293    2.7028 H   0  0  0  0  0  0  0  0  0  0  0  0
    0.1665  -17.2776    4.7390 H   0  0  0  0  0  0  0  0  0  0  0  0
   -1.6385  -18.1248    6.2315 H   0  0  0  0  0  0  0  0  0  0  0  0
   -3.9095  -18.5829    5.3144 H   0  0  0  0  0  0  0  0  0  0  0  0
   -4.3712  -18.2187    2.8906 H   0  0  0  0  0  0  0  0  0  0  0  0
   -2.5705  -17.3751    1.3890 H   0  0  0  0  0  0  0  0  0  0  0  0
   -1.1365  -11.5218    4.0385 H   0  0  0  0  0  0  0  0  0  0  0  0
  1  2  1  0
  2  3  2  0
  3  4  1  0
  4  5  2  0
  5  6  1  0
  6  7  1  0
  7  8  1  0
  8  9  1  0
  9 10  2  0
  9 11  1  0
 11 12  1  0
 12 13  1  0
 13 14  2  0
 14 15  1  0
 15 16  2  0
 16 17  1  0
 17 18  1  0
 18 19  2  0
 19 20  1  0
 20 21  1  0
 21 22  2  0
 22 23  1  0
 23 24  1  0
 19 25  1  0
 25 26  2  0
 11 27  1  0
 27 28  1  0
 28 29  1  0
 29 30  2  0
 30 31  1  0
 31 32  2  0
 32 33  1  0
 33 34  2  0
 27 35  1  0
 35 36  1  0
 35 37  1  0
 37 38  1  0
 37 39  1  0
 39 40  1  0
 40 41  1  0
 41 42  2  0
 42 43  1  0
 43 44  2  0
 44 45  1  0
 45 46  2  0
  6 47  2  0
 47  2  1  0
 39  8  1  0
 46 41  1  0
 26 13  1  0
 34 29  1  0
 25 16  1  0
 24 20  2  0
  1 48  1  0
  1 49  1  0
  3 50  1  0
  4 51  1  0
  5 52  1  0
  7 53  1  0
  7 54  1  0
  8 55  1  0
 11 56  1  0
 12 57  1  0
 12 58  1  0
 14 59  1  0
 15 60  1  0
 21 61  1  0
 22 62  1  0
 26 63  1  0
 27 64  1  6
 28 65  1  0
 28 66  1  0
 30 67  1  0
 31 68  1  0
 32 69  1  0
 33 70  1  0
 34 71  1  0
 35 72  1  1
 36 73  1  0
 37 74  1  6
 38 75  1  0
 39 76  1  6
 40 77  1  0
 40 78  1  0
 42 79  1  0
 43 80  1  0
 44 81  1  0
 45 82  1  0
 46 83  1  0
 47 84  1  0
M  CHG  4   8   1  11   1  17  -1  23  -1
M  END
>  <meeko>  (6) 
{"is_sidechain": [false], "free_energy": -7.083, "intermolecular_energy": -13.997, "internal_energy": -3.117}

$$$$
LIB_HRXLCWSIQGZEGT__M_PUB_ALL__e8__s20260927
     RDKit          3D

 84 90  0  0  0  0  0  0  0  0999 V2000
   12.0970  -16.5020  -11.3970 N   0  0  0  0  0  0  0  0  0  0  0  0
   11.7220  -15.3200  -10.7750 C   0  0  0  0  0  0  0  0  0  0  0  0
   11.5790  -14.1450  -11.5110 C   0  0  0  0  0  0  0  0  0  0  0  0
   11.1510  -12.9730  -10.8930 C   0  0  0  0  0  0  0  0  0  0  0  0
   10.8080  -12.9810   -9.5420 C   0  0  0  0  0  0  0  0  0  0  0  0
   10.8620  -14.1680   -8.7930 C   0  0  0  0  0  0  0  0  0  0  0  0
   10.4230  -14.1130   -7.3450 C   0  0  0  0  0  0  0  0  0  0  0  0
    9.4930  -15.1920   -6.8260 N   0  0  0  0  0  0  0  0  0  0  0  0
    9.0580  -14.8620   -5.4980 C   0  0  0  0  0  0  0  0  0  0  0  0
    8.5350  -13.7750   -5.3380 O   0  0  0  0  0  0  0  0  0  0  0  0
    9.0350  -15.8050   -4.4010 N   0  0  0  0  0  0  0  0  0  0  0  0
    8.8340  -15.0550   -3.0710 C   0  0  0  0  0  0  0  0  0  0  0  0
   10.1280  -14.4970   -2.5370 C   0  0  0  0  0  0  0  0  0  0  0  0
   11.1980  -15.3180   -2.1090 C   0  0  0  0  0  0  0  0  0  0  0  0
   12.0480  -14.9210   -1.0510 C   0  0  0  0  0  0  0  0  0  0  0  0
   11.6460  -13.7810   -0.3300 C   0  0  0  0  0  0  0  0  0  0  0  0
   11.9530  -13.3400    0.9110 N   0  0  0  0  0  0  0  0  0  0  0  0
   11.0020  -12.4170    1.2590 N   0  0  0  0  0  0  0  0  0  0  0  0
   10.1080  -12.4240    0.2530 C   0  0  0  0  0  0  0  0  0  0  0  0
    8.5050  -12.2770    0.3980 C   0  0  0  0  0  0  0  0  0  0  0  0
    7.8060  -11.1190    0.5880 C   0  0  0  0  0  0  0  0  0  0  0  0
    6.5540  -11.6040    0.8770 C   0  0  0  0  0  0  0  0  0  0  0  0
    6.5480  -12.9490    1.0750 N   0  0  0  0  0  0  0  0  0  0  0  0
    7.6870  -13.3800    0.5580 N   0  0  0  0  0  0  0  0  0  0  0  0
   10.6460  -12.9910   -0.8740 C   0  0  0  0  0  0  0  0  0  0  0  0
   10.0510  -13.1700   -2.1080 C   0  0  0  0  0  0  0  0  0  0  0  0
    8.1450  -17.0070   -4.5650 C   0  0  2  0  0  0  0  0  0  0  0  0
    9.0230  -18.2880   -4.6660 C   0  0  0  0  0  0  0  0  0  0  0  0
    9.7370  -18.6010   -3.3720 C   0  0  0  0  0  0  0  0  0  0  0  0
    9.0250  -18.6380   -2.1640 C   0  0  0  0  0  0  0  0  0  0  0  0
    9.6850  -18.9030   -0.9640 C   0  0  0  0  0  0  0  0  0  0  0  0
   11.0580  -19.1360   -0.9590 C   0  0  0  0  0  0  0  0  0  0  0  0
   11.7730  -19.1090   -2.1540 C   0  0  0  0  0  0  0  0  0  0  0  0
   11.1170  -18.8440   -3.3570 C   0  0  0  0  0  0  0  0  0  0  0  0
    7.1260  -16.9530   -5.7610 C   0  0  2  0  0  0  0  0  0  0  0  0
    6.0040  -17.8150   -5.6850 O   0  0  0  0  0  0  0  0  0  0  0  0
    7.7280  -16.9890   -7.1710 C   0  0  1  0  0  0  0  0  0  0  0  0
    6.7170  -17.4700   -8.0630 O   0  0  0  0  0  0  0  0  0  0  0  0
    8.3390  -15.6530   -7.6850 C   0  0  1  0  0  0  0  0  0  0  0  0
    7.2310  -14.5620   -7.8000 C   0  0  0  0  0  0  0  0  0  0  0  0
    7.2730  -13.7790   -9.0940 C   0  0  0  0  0  0  0  0  0  0  0  0
    7.0290  -12.3990   -9.0990 C   0  0  0  0  0  0  0  0  0  0  0  0
    7.0820  -11.6780  -10.2920 C   0  0  0  0  0  0  0  0  0  0  0  0
    7.3640  -12.3290  -11.4910 C   0  0  0  0  0  0  0  0  0  0  0  0
    7.5840  -13.7060  -11.5000 C   0  0  0  0  0  0  0  0  0  0  0  0
    7.5310  -14.4300  -10.3090 C   0  0  0  0  0  0  0  0  0  0  0  0
   11.3440  -15.3220   -9.4280 C   0  0  0  0  0  0  0  0  0  0  0  0
   11.4600  -17.2880  -11.3500 H   0  0  0  0  0  0  0  0  0  0  0  0
   12.6870  -16.4530  -12.2190 H   0  0  0  0  0  0  0  0  0  0  0  0
   11.8058  -14.1436  -12.5874 H   0  0  0  0  0  0  0  0  0  0  0  0
   11.0835  -12.0398  -11.4715 H   0  0  0  0  0  0  0  0  0  0  0  0
   10.4911  -12.0462   -9.0564 H   0  0  0  0  0  0  0  0  0  0  0  0
   11.3336  -14.1462   -6.7288 H   0  0  0  0  0  0  0  0  0  0  0  0
    9.8258  -13.1915   -7.2812 H   0  0  0  0  0  0  0  0  0  0  0  0
   10.1710  -15.9960   -6.6540 H   0  0  0  0  0  0  0  0  0  0  0  0
   10.0300  -16.1660   -4.4570 H   0  0  0  0  0  0  0  0  0  0  0  0
    8.1299  -14.2257   -3.2337 H   0  0  0  0  0  0  0  0  0  0  0  0
    8.4421  -15.7705   -2.3331 H   0  0  0  0  0  0  0  0  0  0  0  0
   11.3717  -16.2826   -2.6084 H   0  0  0  0  0  0  0  0  0  0  0  0
   12.9688  -15.4705   -0.8060 H   0  0  0  0  0  0  0  0  0  0  0  0
    8.1529  -10.0770    0.5261 H   0  0  0  0  0  0  0  0  0  0  0  0
    5.6549  -10.9735    0.9412 H   0  0  0  0  0  0  0  0  0  0  0  0
    9.5736  -12.3636   -2.6840 H   0  0  0  0  0  0  0  0  0  0  0  0
    7.5093  -17.0197   -3.6674 H   0  0  0  0  0  0  0  0  0  0  0  0
    8.3771  -19.1391   -4.9278 H   0  0  0  0  0  0  0  0  0  0  0  0
    9.7879  -18.1102   -5.4363 H   0  0  0  0  0  0  0  0  0  0  0  0
    7.9400  -18.4570   -2.1630 H   0  0  0  0  0  0  0  0  0  0  0  0
    9.1202  -18.9280   -0.0204 H   0  0  0  0  0  0  0  0  0  0  0  0
   11.5777  -19.3413   -0.0115 H   0  0  0  0  0  0  0  0  0  0  0  0
   12.8568  -19.2969   -2.1496 H   0  0  0  0  0  0  0  0  0  0  0  0
   11.6861  -18.8258   -4.2982 H   0  0  0  0  0  0  0  0  0  0  0  0
    6.7452  -15.9336   -5.6002 H   0  0  0  0  0  0  0  0  0  0  0  0
    5.2400  -17.4820   -6.2360 H   0  0  0  0  0  0  0  0  0  0  0  0
    8.5977  -17.6612   -7.1292 H   0  0  0  0  0  0  0  0  0  0  0  0
    5.9260  -17.6770   -7.5250 H   0  0  0  0  0  0  0  0  0  0  0  0
    8.7518  -15.8312   -8.6889 H   0  0  0  0  0  0  0  0  0  0  0  0
    6.2505  -15.0550   -7.7253 H   0  0  0  0  0  0  0  0  0  0  0  0
    7.4055  -13.8429   -6.9861 H   0  0  0  0  0  0  0  0  0  0  0  0
    6.7944  -11.8816   -8.1571 H   0  0  0  0  0  0  0  0  0  0  0  0
    6.9007  -10.5931  -10.2860 H   0  0  0  0  0  0  0  0  0  0  0  0
    7.4131  -11.7574  -12.4296 H   0  0  0  0  0  0  0  0  0  0  0  0
    7.7996  -14.2218  -12.4474 H   0  0  0  0  0  0  0  0  0  0  0  0
    7.6925  -15.5180  -10.3228 H   0  0  0  0  0  0  0  0  0  0  0  0
   11.4271  -16.2547   -8.8508 H   0  0  0  0  0  0  0  0  0  0  0  0
  1  2  1  0
  2  3  2  0
  3  4  1  0
  4  5  2  0
  5  6  1  0
  6  7  1  0
  7  8  1  0
  8  9  1  0
  9 10  2  0
  9 11  1  0
 11 12  1  0
 12 13  1  0
 13 14  2  0
 14 15  1  0
 15 16  2  0
 16 17  1  0
 17 18  1  0
 18 19  2  0
 19 20  1  0
 20 21  1  0
 21 22  2  0
 22 23  1  0
 23 24  1  0
 19 25  1  0
 25 26  2  0
 11 27  1  0
 27 28  1  0
 28 29  1  0
 29 30  2  0
 30 31  1  0
 31 32  2  0
 32 33  1  0
 33 34  2  0
 27 35  1  0
 35 36  1  0
 35 37  1  0
 37 38  1  0
 37 39  1  0
 39 40  1  0
 40 41  1  0
 41 42  2  0
 42 43  1  0
 43 44  2  0
 44 45  1  0
 45 46  2  0
  6 47  2  0
 47  2  1  0
 39  8  1  0
 46 41  1  0
 26 13  1  0
 34 29  1  0
 25 16  1  0
 24 20  2  0
  1 48  1  0
  1 49  1  0
  3 50  1  0
  4 51  1  0
  5 52  1  0
  7 53  1  0
  7 54  1  0
  8 55  1  0
 11 56  1  0
 12 57  1  0
 12 58  1  0
 14 59  1  0
 15 60  1  0
 21 61  1  0
 22 62  1  0
 26 63  1  0
 27 64  1  1
 28 65  1  0
 28 66  1  0
 30 67  1  0
 31 68  1  0
 32 69  1  0
 33 70  1  0
 34 71  1  0
 35 72  1  6
 36 73  1  0
 37 74  1  1
 38 75  1  0
 39 76  1  6
 40 77  1  0
 40 78  1  0
 42 79  1  0
 43 80  1  0
 44 81  1  0
 45 82  1  0
 46 83  1  0
 47 84  1  0
M  CHG  4   8   1  11   1  17  -1  23  -1
M  END
>  <meeko>  (7) 
{"is_sidechain": [false], "free_energy": -7.047, "intermolecular_energy": -13.357, "internal_energy": -3.686}

$$$$
LIB_HRXLCWSIQGZEGT__M_PUB_ALL__e8__s20260927
     RDKit          3D

 84 90  0  0  0  0  0  0  0  0999 V2000
   13.1400  -10.7070  -10.7020 N   0  0  0  0  0  0  0  0  0  0  0  0
   12.5310  -11.9540  -10.7220 C   0  0  0  0  0  0  0  0  0  0  0  0
   12.7000  -12.8080  -11.8100 C   0  0  0  0  0  0  0  0  0  0  0  0
   12.1320  -14.0790  -11.8040 C   0  0  0  0  0  0  0  0  0  0  0  0
   11.4350  -14.5260  -10.6830 C   0  0  0  0  0  0  0  0  0  0  0  0
   11.3180  -13.7210   -9.5390 C   0  0  0  0  0  0  0  0  0  0  0  0
   10.5940  -14.2930   -8.3380 C   0  0  0  0  0  0  0  0  0  0  0  0
   11.1980  -14.0930   -6.9630 N   0  0  0  0  0  0  0  0  0  0  0  0
   10.5010  -14.9040   -6.0030 C   0  0  0  0  0  0  0  0  0  0  0  0
   10.4020  -16.0920   -6.2460 O   0  0  0  0  0  0  0  0  0  0  0  0
   10.0830  -14.4300   -4.7020 N   0  0  0  0  0  0  0  0  0  0  0  0
    8.9960  -15.3590   -4.1310 C   0  0  0  0  0  0  0  0  0  0  0  0
    7.7900  -14.5900   -3.6550 C   0  0  0  0  0  0  0  0  0  0  0  0
    6.8330  -15.1370   -2.7690 C   0  0  0  0  0  0  0  0  0  0  0  0
    5.4690  -14.7740   -2.8490 C   0  0  0  0  0  0  0  0  0  0  0  0
    5.0970  -14.0100   -3.9710 C   0  0  0  0  0  0  0  0  0  0  0  0
    3.9040  -13.8080   -4.5740 N   0  0  0  0  0  0  0  0  0  0  0  0
    4.1620  -13.3160   -5.8270 N   0  0  0  0  0  0  0  0  0  0  0  0
    5.5020  -13.3450   -5.9560 C   0  0  0  0  0  0  0  0  0  0  0  0
    6.3250  -13.7160   -7.2970 C   0  0  0  0  0  0  0  0  0  0  0  0
    6.3550  -12.9990   -8.4600 C   0  0  0  0  0  0  0  0  0  0  0  0
    6.9890  -13.8780   -9.3020 C   0  0  0  0  0  0  0  0  0  0  0  0
    7.1260  -15.1170   -8.7580 N   0  0  0  0  0  0  0  0  0  0  0  0
    6.9280  -14.9490   -7.4610 N   0  0  0  0  0  0  0  0  0  0  0  0
    6.1080  -13.4420   -4.7300 C   0  0  0  0  0  0  0  0  0  0  0  0
    7.4600  -13.4880   -4.4460 C   0  0  0  0  0  0  0  0  0  0  0  0
   11.1780  -14.0980   -3.7230 C   0  0  2  0  0  0  0  0  0  0  0  0
   11.0950  -12.5890   -3.3500 C   0  0  0  0  0  0  0  0  0  0  0  0
   11.1160  -12.3630   -1.8570 C   0  0  0  0  0  0  0  0  0  0  0  0
   12.2610  -11.8400   -1.2380 C   0  0  0  0  0  0  0  0  0  0  0  0
   12.2940  -11.6530    0.1440 C   0  0  0  0  0  0  0  0  0  0  0  0
   11.1850  -11.9810    0.9190 C   0  0  0  0  0  0  0  0  0  0  0  0
   10.0390  -12.4940    0.3140 C   0  0  0  0  0  0  0  0  0  0  0  0
   10.0030  -12.6840   -1.0680 C   0  0  0  0  0  0  0  0  0  0  0  0
   12.6390  -14.4650   -4.1720 C   0  0  2  0  0  0  0  0  0  0  0  0
   13.6230  -14.5340   -3.1540 O   0  0  0  0  0  0  0  0  0  0  0  0
   13.1870  -13.7110   -5.3900 C   0  0  1  0  0  0  0  0  0  0  0  0
   14.6160  -13.7140   -5.2960 O   0  0  0  0  0  0  0  0  0  0  0  0
   12.6950  -14.1980   -6.7870 C   0  0  1  0  0  0  0  0  0  0  0  0
   13.2110  -15.6430   -7.0610 C   0  0  0  0  0  0  0  0  0  0  0  0
   13.9450  -15.7920   -8.3760 C   0  0  0  0  0  0  0  0  0  0  0  0
   14.7920  -14.7760   -8.8370 C   0  0  0  0  0  0  0  0  0  0  0  0
   15.4790  -14.9230  -10.0430 C   0  0  0  0  0  0  0  0  0  0  0  0
   15.3150  -16.0780  -10.8040 C   0  0  0  0  0  0  0  0  0  0  0  0
   14.4550  -17.0840  -10.3660 C   0  0  0  0  0  0  0  0  0  0  0  0
   13.7670  -16.9400   -9.1610 C   0  0  0  0  0  0  0  0  0  0  0  0
   11.8570  -12.4270   -9.5910 C   0  0  0  0  0  0  0  0  0  0  0  0
   13.4480  -10.3410   -9.8090 H   0  0  0  0  0  0  0  0  0  0  0  0
   13.6700  -10.4110  -11.5120 H   0  0  0  0  0  0  0  0  0  0  0  0
   13.2861  -12.4757  -12.6795 H   0  0  0  0  0  0  0  0  0  0  0  0
   12.2334  -14.7307  -12.6844 H   0  0  0  0  0  0  0  0  0  0  0  0
   10.9703  -15.5230  -10.6948 H   0  0  0  0  0  0  0  0  0  0  0  0
    9.5906  -13.8427   -8.3198 H   0  0  0  0  0  0  0  0  0  0  0  0
   10.6361  -15.3812   -8.4932 H   0  0  0  0  0  0  0  0  0  0  0  0
   10.8640  -13.1110   -6.7210 H   0  0  0  0  0  0  0  0  0  0  0  0
    9.6480  -13.5050   -4.9800 H   0  0  0  0  0  0  0  0  0  0  0  0
    8.6816  -16.0625   -4.9160 H   0  0  0  0  0  0  0  0  0  0  0  0
    9.4225  -15.8911   -3.2679 H   0  0  0  0  0  0  0  0  0  0  0  0
    7.1558  -15.8581   -2.0036 H   0  0  0  0  0  0  0  0  0  0  0  0
    4.7412  -15.0712   -2.0796 H   0  0  0  0  0  0  0  0  0  0  0  0
    5.9733  -11.9882   -8.6661 H   0  0  0  0  0  0  0  0  0  0  0  0
    7.3472  -13.6098  -10.3069 H   0  0  0  0  0  0  0  0  0  0  0  0
    8.1891  -12.7448   -4.8010 H   0  0  0  0  0  0  0  0  0  0  0  0
   10.9915  -14.7431   -2.8518 H   0  0  0  0  0  0  0  0  0  0  0  0
   11.9529  -12.0666   -3.7985 H   0  0  0  0  0  0  0  0  0  0  0  0
   10.1405  -12.2005   -3.7346 H   0  0  0  0  0  0  0  0  0  0  0  0
   13.1385  -11.5756   -1.8463 H   0  0  0  0  0  0  0  0  0  0  0  0
   13.1973  -11.2459    0.6219 H   0  0  0  0  0  0  0  0  0  0  0  0
   11.2132  -11.8353    2.0089 H   0  0  0  0  0  0  0  0  0  0  0  0
    9.1618  -12.7494    0.9266 H   0  0  0  0  0  0  0  0  0  0  0  0
    9.0958  -13.0881   -1.5409 H   0  0  0  0  0  0  0  0  0  0  0  0
   12.4522  -15.5004   -4.4929 H   0  0  0  0  0  0  0  0  0  0  0  0
   14.2680  -15.2800   -3.3090 H   0  0  0  0  0  0  0  0  0  0  0  0
   12.7760  -12.6917   -5.3442 H   0  0  0  0  0  0  0  0  0  0  0  0
   14.8700  -13.0070   -4.6670 H   0  0  0  0  0  0  0  0  0  0  0  0
   13.1236  -13.5190   -7.5389 H   0  0  0  0  0  0  0  0  0  0  0  0
   13.8956  -15.9265   -6.2480 H   0  0  0  0  0  0  0  0  0  0  0  0
   12.3259  -16.2940   -7.1134 H   0  0  0  0  0  0  0  0  0  0  0  0
   14.9164  -13.8571   -8.2452 H   0  0  0  0  0  0  0  0  0  0  0  0
   16.1510  -14.1255  -10.3930 H   0  0  0  0  0  0  0  0  0  0  0  0
   15.8637  -16.1963  -11.7500 H   0  0  0  0  0  0  0  0  0  0  0  0
   14.3188  -17.9924  -10.9712 H   0  0  0  0  0  0  0  0  0  0  0  0
   13.0811  -17.7315   -8.8249 H   0  0  0  0  0  0  0  0  0  0  0  0
   11.7467  -11.7661   -8.7186 H   0  0  0  0  0  0  0  0  0  0  0  0
  1  2  1  0
  2  3  2  0
  3  4  1  0
  4  5  2  0
  5  6  1  0
  6  7  1  0
  7  8  1  0
  8  9  1  0
  9 10  2  0
  9 11  1  0
 11 12  1  0
 12 13  1  0
 13 14  2  0
 14 15  1  0
 15 16  2  0
 16 17  1  0
 17 18  1  0
 18 19  2  0
 19 20  1  0
 20 21  1  0
 21 22  2  0
 22 23  1  0
 23 24  1  0
 19 25  1  0
 25 26  2  0
 11 27  1  0
 27 28  1  0
 28 29  1  0
 29 30  2  0
 30 31  1  0
 31 32  2  0
 32 33  1  0
 33 34  2  0
 27 35  1  0
 35 36  1  0
 35 37  1  0
 37 38  1  0
 37 39  1  0
 39 40  1  0
 40 41  1  0
 41 42  2  0
 42 43  1  0
 43 44  2  0
 44 45  1  0
 45 46  2  0
  6 47  2  0
 47  2  1  0
 39  8  1  0
 46 41  1  0
 26 13  1  0
 34 29  1  0
 25 16  1  0
 24 20  2  0
  1 48  1  0
  1 49  1  0
  3 50  1  0
  4 51  1  0
  5 52  1  0
  7 53  1  0
  7 54  1  0
  8 55  1  0
 11 56  1  0
 12 57  1  0
 12 58  1  0
 14 59  1  0
 15 60  1  0
 21 61  1  0
 22 62  1  0
 26 63  1  0
 27 64  1  1
 28 65  1  0
 28 66  1  0
 30 67  1  0
 31 68  1  0
 32 69  1  0
 33 70  1  0
 34 71  1  0
 35 72  1  6
 36 73  1  0
 37 74  1  1
 38 75  1  0
 39 76  1  6
 40 77  1  0
 40 78  1  0
 42 79  1  0
 43 80  1  0
 44 81  1  0
 45 82  1  0
 46 83  1  0
 47 84  1  0
M  CHG  4   8   1  11   1  17  -1  23  -1
M  END
>  <meeko>  (8) 
{"is_sidechain": [false], "free_energy": -6.907, "intermolecular_energy": -12.986, "internal_energy": -3.783}

$$$$
LIB_HRXLCWSIQGZEGT__M_PUB_ALL__e8__s20260927
     RDKit          3D

 84 90  0  0  0  0  0  0  0  0999 V2000
    0.2180  -17.8270    1.1230 N   0  0  0  0  0  0  0  0  0  0  0  0
    0.2350  -16.8700    0.1190 C   0  0  0  0  0  0  0  0  0  0  0  0
   -0.9110  -16.1360   -0.1810 C   0  0  0  0  0  0  0  0  0  0  0  0
   -0.8760  -15.1400   -1.1530 C   0  0  0  0  0  0  0  0  0  0  0  0
    0.3230  -14.8320   -1.7940 C   0  0  0  0  0  0  0  0  0  0  0  0
    1.5130  -15.4960   -1.4550 C   0  0  0  0  0  0  0  0  0  0  0  0
    2.7870  -15.0720   -2.1540 C   0  0  0  0  0  0  0  0  0  0  0  0
    3.9300  -14.5330   -1.3160 N   0  0  0  0  0  0  0  0  0  0  0  0
    4.8060  -13.7450   -2.1370 C   0  0  0  0  0  0  0  0  0  0  0  0
    4.2890  -12.9270   -2.8760 O   0  0  0  0  0  0  0  0  0  0  0  0
    6.2460  -13.7390   -2.0030 N   0  0  0  0  0  0  0  0  0  0  0  0
    6.8130  -12.4000   -2.5120 C   0  0  0  0  0  0  0  0  0  0  0  0
    7.9360  -12.6020   -3.4970 C   0  0  0  0  0  0  0  0  0  0  0  0
    8.0450  -13.7560   -4.3080 C   0  0  0  0  0  0  0  0  0  0  0  0
    9.3080  -14.2750   -4.6780 C   0  0  0  0  0  0  0  0  0  0  0  0
   10.4220  -13.7060   -4.0330 C   0  0  0  0  0  0  0  0  0  0  0  0
   11.6800  -14.1580   -3.8330 N   0  0  0  0  0  0  0  0  0  0  0  0
   12.2260  -13.4040   -2.8280 N   0  0  0  0  0  0  0  0  0  0  0  0
   11.2340  -12.6020   -2.3990 C   0  0  0  0  0  0  0  0  0  0  0  0
   10.9480  -12.1680   -0.8680 C   0  0  0  0  0  0  0  0  0  0  0  0
   11.8830  -11.9210    0.0970 C   0  0  0  0  0  0  0  0  0  0  0  0
   11.0970  -11.8410    1.2190 C   0  0  0  0  0  0  0  0  0  0  0  0
    9.8170  -12.2380    0.9900 N   0  0  0  0  0  0  0  0  0  0  0  0
    9.6780  -12.2150   -0.3260 N   0  0  0  0  0  0  0  0  0  0  0  0
   10.2310  -12.5260   -3.3320 C   0  0  0  0  0  0  0  0  0  0  0  0
    9.0560  -11.8010   -3.2670 C   0  0  0  0  0  0  0  0  0  0  0  0
    6.7980  -14.1690   -0.6700 C   0  0  2  0  0  0  0  0  0  0  0  0
    6.6800  -15.7150   -0.5390 C   0  0  0  0  0  0  0  0  0  0  0  0
    7.9380  -16.4290   -0.9740 C   0  0  0  0  0  0  0  0  0  0  0  0
    7.9280  -17.8170   -1.1770 C   0  0  0  0  0  0  0  0  0  0  0  0
    9.0940  -18.4830   -1.5550 C   0  0  0  0  0  0  0  0  0  0  0  0
   10.2780  -17.7710   -1.7360 C   0  0  0  0  0  0  0  0  0  0  0  0
   10.2970  -16.3910   -1.5430 C   0  0  0  0  0  0  0  0  0  0  0  0
    9.1330  -15.7210   -1.1650 C   0  0  0  0  0  0  0  0  0  0  0  0
    6.1780  -13.4690    0.5930 C   0  0  2  0  0  0  0  0  0  0  0  0
    7.0300  -13.2940    1.7110 O   0  0  0  0  0  0  0  0  0  0  0  0
    4.8040  -13.9770    1.0470 C   0  0  1  0  0  0  0  0  0  0  0  0
    4.4870  -13.3260    2.2820 O   0  0  0  0  0  0  0  0  0  0  0  0
    3.6280  -13.8380   -0.0090 C   0  0  1  0  0  0  0  0  0  0  0  0
    3.2610  -12.3380   -0.2220 C   0  0  0  0  0  0  0  0  0  0  0  0
    1.8230  -12.0050    0.1100 C   0  0  0  0  0  0  0  0  0  0  0  0
    1.1680  -10.9510   -0.5410 C   0  0  0  0  0  0  0  0  0  0  0  0
   -0.1620  -10.6560   -0.2420 C   0  0  0  0  0  0  0  0  0  0  0  0
   -0.8460  -11.4000    0.7170 C   0  0  0  0  0  0  0  0  0  0  0  0
   -0.1950  -12.4350    1.3870 C   0  0  0  0  0  0  0  0  0  0  0  0
    1.1360  -12.7330    1.0920 C   0  0  0  0  0  0  0  0  0  0  0  0
    1.4380  -16.5290   -0.5080 C   0  0  0  0  0  0  0  0  0  0  0  0
   -0.6080  -17.8890    1.7080 H   0  0  0  0  0  0  0  0  0  0  0  0
    0.7320  -18.6880    0.9840 H   0  0  0  0  0  0  0  0  0  0  0  0
   -1.8493  -16.3450    0.3537 H   0  0  0  0  0  0  0  0  0  0  0  0
   -1.7951  -14.5956   -1.4154 H   0  0  0  0  0  0  0  0  0  0  0  0
    0.3371  -14.0584   -2.5759 H   0  0  0  0  0  0  0  0  0  0  0  0
    3.1679  -15.9508   -2.6949 H   0  0  0  0  0  0  0  0  0  0  0  0
    2.4810  -14.2155   -2.7727 H   0  0  0  0  0  0  0  0  0  0  0  0
    4.5050  -15.4130   -1.1440 H   0  0  0  0  0  0  0  0  0  0  0  0
    6.4920  -14.5100   -2.6860 H   0  0  0  0  0  0  0  0  0  0  0  0
    6.0063  -11.8363   -3.0034 H   0  0  0  0  0  0  0  0  0  0  0  0
    7.2130  -11.8492   -1.6479 H   0  0  0  0  0  0  0  0  0  0  0  0
    7.1311  -14.2589   -4.6572 H   0  0  0  0  0  0  0  0  0  0  0  0
    9.4131  -15.0754   -5.4252 H   0  0  0  0  0  0  0  0  0  0  0  0
   12.9736  -11.8147    0.0005 H   0  0  0  0  0  0  0  0  0  0  0  0
   11.4625  -11.4937    2.1966 H   0  0  0  0  0  0  0  0  0  0  0  0
    9.0090  -10.7219   -3.0589 H   0  0  0  0  0  0  0  0  0  0  0  0
    7.8476  -13.8398   -0.6731 H   0  0  0  0  0  0  0  0  0  0  0  0
    6.4776  -15.9657    0.5128 H   0  0  0  0  0  0  0  0  0  0  0  0
    5.8630  -16.0453   -1.1974 H   0  0  0  0  0  0  0  0  0  0  0  0
    6.9955  -18.3834   -1.0373 H   0  0  0  0  0  0  0  0  0  0  0  0
    9.0787  -19.5719   -1.7104 H   0  0  0  0  0  0  0  0  0  0  0  0
   11.1973  -18.2980   -2.0311 H   0  0  0  0  0  0  0  0  0  0  0  0
   11.2313  -15.8290   -1.6889 H   0  0  0  0  0  0  0  0  0  0  0  0
    9.1530  -14.6313   -1.0160 H   0  0  0  0  0  0  0  0  0  0  0  0
    6.0247  -12.4687    0.1617 H   0  0  0  0  0  0  0  0  0  0  0  0
    7.9140  -13.7420    1.5800 H   0  0  0  0  0  0  0  0  0  0  0  0
    4.8872  -15.0669    1.1704 H   0  0  0  0  0  0  0  0  0  0  0  0
    5.1040  -13.6690    2.9610 H   0  0  0  0  0  0  0  0  0  0  0  0
    2.7507  -14.3534    0.4090 H   0  0  0  0  0  0  0  0  0  0  0  0
    3.9145  -11.7274    0.4183 H   0  0  0  0  0  0  0  0  0  0  0  0
    3.3990  -12.1247   -1.2923 H   0  0  0  0  0  0  0  0  0  0  0  0
    1.7056  -10.3532   -1.2917 H   0  0  0  0  0  0  0  0  0  0  0  0
   -0.6723   -9.8336   -0.7648 H   0  0  0  0  0  0  0  0  0  0  0  0
   -1.8975  -11.1713    0.9451 H   0  0  0  0  0  0  0  0  0  0  0  0
   -0.7318  -13.0180    2.1499 H   0  0  0  0  0  0  0  0  0  0  0  0
    1.6485  -13.5426    1.6322 H   0  0  0  0  0  0  0  0  0  0  0  0
    2.3511  -17.0863   -0.2515 H   0  0  0  0  0  0  0  0  0  0  0  0
  1  2  1  0
  2  3  2  0
  3  4  1  0
  4  5  2  0
  5  6  1  0
  6  7  1  0
  7  8  1  0
  8  9  1  0
  9 10  2  0
  9 11  1  0
 11 12  1  0
 12 13  1  0
 13 14  2  0
 14 15  1  0
 15 16  2  0
 16 17  1  0
 17 18  1  0
 18 19  2  0
 19 20  1  0
 20 21  1  0
 21 22  2  0
 22 23  1  0
 23 24  1  0
 19 25  1  0
 25 26  2  0
 11 27  1  0
 27 28  1  0
 28 29  1  0
 29 30  2  0
 30 31  1  0
 31 32  2  0
 32 33  1  0
 33 34  2  0
 27 35  1  0
 35 36  1  0
 35 37  1  0
 37 38  1  0
 37 39  1  0
 39 40  1  0
 40 41  1  0
 41 42  2  0
 42 43  1  0
 43 44  2  0
 44 45  1  0
 45 46  2  0
  6 47  2  0
 47  2  1  0
 39  8  1  0
 46 41  1  0
 26 13  1  0
 34 29  1  0
 25 16  1  0
 24 20  2  0
  1 48  1  0
  1 49  1  0
  3 50  1  0
  4 51  1  0
  5 52  1  0
  7 53  1  0
  7 54  1  0
  8 55  1  0
 11 56  1  0
 12 57  1  0
 12 58  1  0
 14 59  1  0
 15 60  1  0
 21 61  1  0
 22 62  1  0
 26 63  1  0
 27 64  1  6
 28 65  1  0
 28 66  1  0
 30 67  1  0
 31 68  1  0
 32 69  1  0
 33 70  1  0
 34 71  1  0
 35 72  1  6
 36 73  1  0
 37 74  1  1
 38 75  1  0
 39 76  1  1
 40 77  1  0
 40 78  1  0
 42 79  1  0
 43 80  1  0
 44 81  1  0
 45 82  1  0
 46 83  1  0
 47 84  1  0
M  CHG  4   8   1  11   1  17  -1  23  -1
M  END
>  <meeko>  (9) 
{"is_sidechain": [false], "free_energy": -6.887, "intermolecular_energy": -12.965, "internal_energy": -3.763}

$$$$
