LIB_CXRYSQNWQCVBQV__M_PUB_ALL__e8__s20260927
     RDKit          3D

 60 64  0  0  0  0  0  0  0  0999 V2000
    7.9110  -16.3320  -10.2900 C   0  0  0  0  0  0  0  0  0  0  0  0
    7.4380  -15.4180   -9.1910 C   0  0  0  0  0  0  0  0  0  0  0  0
    7.4080  -15.8930   -7.8730 C   0  0  0  0  0  0  0  0  0  0  0  0
    6.9810  -15.0700   -6.8280 C   0  0  0  0  0  0  0  0  0  0  0  0
    6.5750  -13.7560   -7.0730 C   0  0  0  0  0  0  0  0  0  0  0  0
    6.1610  -12.9940   -5.9590 N   0  0  0  0  0  0  0  0  0  0  0  0
    4.8660  -12.7920   -5.5000 C   0  0  0  0  0  0  0  0  0  0  0  0
    3.8690  -13.3340   -5.9590 O   0  0  0  0  0  0  0  0  0  0  0  0
    4.8640  -11.8840   -4.4510 N   0  0  0  0  0  0  0  0  0  0  0  0
    3.7710  -11.5140   -3.6360 C   0  0  0  0  0  0  0  0  0  0  0  0
    3.0480  -10.3780   -4.0150 C   0  0  0  0  0  0  0  0  0  0  0  0
    1.9580   -9.9470   -3.2580 C   0  0  0  0  0  0  0  0  0  0  0  0
    1.5830  -10.6500   -2.1150 C   0  0  0  0  0  0  0  0  0  0  0  0
    2.2880  -11.7930   -1.7120 C   0  0  0  0  0  0  0  0  0  0  0  0
    1.8750  -12.5140   -0.4820 C   0  0  0  0  0  0  0  0  0  0  0  0
    2.4930  -13.6640   -0.1350 C   0  0  0  0  0  0  0  0  0  0  0  0
    2.0760  -14.3130    1.0060 N   0  0  0  0  0  0  0  0  0  0  0  0
    2.4900  -15.4640    1.6170 C   0  0  0  0  0  0  0  0  0  0  0  0
    1.6830  -15.5900    2.7290 C   0  0  0  0  0  0  0  0  0  0  0  0
    0.7850  -14.5510    2.8150 N   0  0  0  0  0  0  0  0  0  0  0  0
    1.0570  -13.8070    1.7620 C   0  0  0  0  0  0  0  0  0  0  0  0
    0.4130  -12.5740    1.3470 C   0  0  0  0  0  0  0  0  0  0  0  0
   -0.6160  -12.0450    2.0870 N   0  0  0  0  0  0  0  0  0  0  0  0
   -1.2950  -10.8210    1.7680 C   0  0  0  0  0  0  0  0  0  0  0  0
   -2.5590  -11.1270    1.0090 C   0  0  0  0  0  0  0  0  0  0  0  0
   -3.3730  -12.2020    1.3800 C   0  0  0  0  0  0  0  0  0  0  0  0
   -4.5400  -12.4270    0.6680 C   0  0  0  0  0  0  0  0  0  0  0  0
   -4.9480  -11.6630   -0.3670 N   0  0  0  0  0  0  0  0  0  0  0  0
   -4.1570  -10.6200   -0.6990 C   0  0  0  0  0  0  0  0  0  0  0  0
   -2.9730  -10.3130   -0.0500 C   0  0  0  0  0  0  0  0  0  0  0  0
    0.8230  -11.9720    0.2530 N   0  0  0  0  0  0  0  0  0  0  0  0
    3.3950  -12.2030   -2.4790 C   0  0  0  0  0  0  0  0  0  0  0  0
    6.6140  -13.2750   -8.3820 C   0  0  0  0  0  0  0  0  0  0  0  0
    7.0450  -14.0880   -9.4520 C   0  0  0  0  0  0  0  0  0  0  0  0
    7.0680  -13.5170  -10.8540 C   0  0  0  0  0  0  0  0  0  0  0  0
    6.8250  -12.1750  -10.8750 F   0  0  0  0  0  0  0  0  0  0  0  0
    8.2550  -13.6840  -11.5020 F   0  0  0  0  0  0  0  0  0  0  0  0
    6.1280  -14.0770  -11.6660 F   0  0  0  0  0  0  0  0  0  0  0  0
    8.3741  -17.2269   -9.8488 H   0  0  0  0  0  0  0  0  0  0  0  0
    7.0546  -16.6312  -10.9121 H   0  0  0  0  0  0  0  0  0  0  0  0
    8.6499  -15.8056  -10.9121 H   0  0  0  0  0  0  0  0  0  0  0  0
    7.7240  -16.9247   -7.6590 H   0  0  0  0  0  0  0  0  0  0  0  0
    6.9643  -15.4613   -5.8001 H   0  0  0  0  0  0  0  0  0  0  0  0
    6.8990  -12.6040   -5.3950 H   0  0  0  0  0  0  0  0  0  0  0  0
    5.7160  -11.3680   -4.3010 H   0  0  0  0  0  0  0  0  0  0  0  0
    3.3410   -9.8202   -4.9167 H   0  0  0  0  0  0  0  0  0  0  0  0
    1.3951   -9.0527   -3.5634 H   0  0  0  0  0  0  0  0  0  0  0  0
    0.7237  -10.3042   -1.5217 H   0  0  0  0  0  0  0  0  0  0  0  0
    3.3095  -14.0722   -0.7488 H   0  0  0  0  0  0  0  0  0  0  0  0
    3.2926  -16.1425    1.2923 H   0  0  0  0  0  0  0  0  0  0  0  0
    1.7490  -16.4150    3.4536 H   0  0  0  0  0  0  0  0  0  0  0  0
   -0.8860  -12.5540    2.9230 H   0  0  0  0  0  0  0  0  0  0  0  0
   -1.5459  -10.2887    2.6974 H   0  0  0  0  0  0  0  0  0  0  0  0
   -0.6402  -10.1911    1.1479 H   0  0  0  0  0  0  0  0  0  0  0  0
   -3.0926  -12.8552    2.2195 H   0  0  0  0  0  0  0  0  0  0  0  0
   -5.1710  -13.2782    0.9636 H   0  0  0  0  0  0  0  0  0  0  0  0
   -4.4717   -9.9766   -1.5339 H   0  0  0  0  0  0  0  0  0  0  0  0
   -2.3706   -9.4468   -0.3610 H   0  0  0  0  0  0  0  0  0  0  0  0
    3.9752  -13.0821   -2.1620 H   0  0  0  0  0  0  0  0  0  0  0  0
    6.3021  -12.2398   -8.5844 H   0  0  0  0  0  0  0  0  0  0  0  0
  1  2  1  0
  2  3  2  0
  3  4  1  0
  4  5  2  0
  5  6  1  0
  6  7  1  0
  7  8  2  0
  7  9  1  0
  9 10  1  0
 10 11  2  0
 11 12  1  0
 12 13  2  0
 13 14  1  0
 14 15  1  0
 15 16  2  0
 16 17  1  0
 17 18  1  0
 18 19  2  0
 19 20  1  0
 20 21  2  0
 21 22  1  0
 22 23  1  0
 23 24  1  0
 24 25  1  0
 25 26  2  0
 26 27  1  0
 27 28  2  0
 28 29  1  0
 29 30  2  0
 22 31  2  0
 14 32  2  0
  5 33  1  0
 33 34  2  0
 34 35  1  0
 35 36  1  0
 35 37  1  0
 35 38  1  0
 34  2  1  0
 32 10  1  0
 31 15  1  0
 21 17  1  0
 30 25  1  0
  1 39  1  0
  1 40  1  0
  1 41  1  0
  3 42  1  0
  4 43  1  0
  6 44  1  0
  9 45  1  0
 11 46  1  0
 12 47  1  0
 13 48  1  0
 16 49  1  0
 18 50  1  0
 19 51  1  0
 23 52  1  0
 24 53  1  0
 24 54  1  0
 26 55  1  0
 27 56  1  0
 29 57  1  0
 30 58  1  0
 32 59  1  0
 33 60  1  0
M  END
>  <meeko>  (1) 
{"is_sidechain": [false], "free_energy": -9.788, "intermolecular_energy": -13.222, "internal_energy": -1.103}

$$$$
LIB_CXRYSQNWQCVBQV__M_PUB_ALL__e8__s20260927
     RDKit          3D

 60 64  0  0  0  0  0  0  0  0999 V2000
   13.4220  -12.0160   -2.1980 C   0  0  0  0  0  0  0  0  0  0  0  0
   11.9340  -12.2380   -2.1500 C   0  0  0  0  0  0  0  0  0  0  0  0
   11.2160  -12.3250   -3.3500 C   0  0  0  0  0  0  0  0  0  0  0  0
    9.8350  -12.5370   -3.3420 C   0  0  0  0  0  0  0  0  0  0  0  0
    9.1390  -12.6670   -2.1380 C   0  0  0  0  0  0  0  0  0  0  0  0
    7.7460  -12.8820   -2.2220 N   0  0  0  0  0  0  0  0  0  0  0  0
    6.7320  -11.9400   -2.1140 C   0  0  0  0  0  0  0  0  0  0  0  0
    6.9070  -10.7330   -2.0130 O   0  0  0  0  0  0  0  0  0  0  0  0
    5.4930  -12.5630   -2.1310 N   0  0  0  0  0  0  0  0  0  0  0  0
    4.2220  -11.9490   -2.1720 C   0  0  0  0  0  0  0  0  0  0  0  0
    3.8550  -11.3200   -3.3680 C   0  0  0  0  0  0  0  0  0  0  0  0
    2.6170  -10.6870   -3.4840 C   0  0  0  0  0  0  0  0  0  0  0  0
    1.7360  -10.6770   -2.4040 C   0  0  0  0  0  0  0  0  0  0  0  0
    2.0760  -11.3000   -1.1950 C   0  0  0  0  0  0  0  0  0  0  0  0
    1.1240  -11.2620   -0.0570 C   0  0  0  0  0  0  0  0  0  0  0  0
    0.3250  -10.1860    0.1180 C   0  0  0  0  0  0  0  0  0  0  0  0
   -0.5380  -10.1800    1.1910 N   0  0  0  0  0  0  0  0  0  0  0  0
   -1.4560   -9.2670    1.6310 C   0  0  0  0  0  0  0  0  0  0  0  0
   -2.0100   -9.8320    2.7620 C   0  0  0  0  0  0  0  0  0  0  0  0
   -1.4550  -11.0630    3.0280 N   0  0  0  0  0  0  0  0  0  0  0  0
   -0.5770  -11.2330    2.0600 C   0  0  0  0  0  0  0  0  0  0  0  0
    0.3060  -12.3640    1.8410 C   0  0  0  0  0  0  0  0  0  0  0  0
    0.2880  -13.4350    2.7000 N   0  0  0  0  0  0  0  0  0  0  0  0
    1.1060  -14.6050    2.5500 C   0  0  0  0  0  0  0  0  0  0  0  0
    1.1330  -15.3740    3.8450 C   0  0  0  0  0  0  0  0  0  0  0  0
    0.7350  -14.7710    5.0420 C   0  0  0  0  0  0  0  0  0  0  0  0
    0.7530  -15.5270    6.2040 C   0  0  0  0  0  0  0  0  0  0  0  0
    1.1270  -16.8230    6.2510 N   0  0  0  0  0  0  0  0  0  0  0  0
    1.4930  -17.3910    5.0820 C   0  0  0  0  0  0  0  0  0  0  0  0
    1.5090  -16.7200    3.8700 C   0  0  0  0  0  0  0  0  0  0  0  0
    1.1240  -12.3510    0.8120 N   0  0  0  0  0  0  0  0  0  0  0  0
    3.3350  -11.9190   -1.0910 C   0  0  0  0  0  0  0  0  0  0  0  0
    9.8500  -12.5930   -0.9400 C   0  0  0  0  0  0  0  0  0  0  0  0
   11.2460  -12.3830   -0.9260 C   0  0  0  0  0  0  0  0  0  0  0  0
   11.9700  -12.3100    0.4020 C   0  0  0  0  0  0  0  0  0  0  0  0
   12.7630  -13.3970    0.6230 F   0  0  0  0  0  0  0  0  0  0  0  0
   12.7870  -11.2280    0.5300 F   0  0  0  0  0  0  0  0  0  0  0  0
   11.1180  -12.2500    1.4630 F   0  0  0  0  0  0  0  0  0  0  0  0
   13.8172  -11.9570   -1.1731 H   0  0  0  0  0  0  0  0  0  0  0  0
   13.9006  -12.8527   -2.7280 H   0  0  0  0  0  0  0  0  0  0  0  0
   13.6356  -11.0760   -2.7280 H   0  0  0  0  0  0  0  0  0  0  0  0
   11.7454  -12.2253   -4.3090 H   0  0  0  0  0  0  0  0  0  0  0  0
    9.2895  -12.6023   -4.2950 H   0  0  0  0  0  0  0  0  0  0  0  0
    7.4600  -13.8200   -2.4520 H   0  0  0  0  0  0  0  0  0  0  0  0
    5.4910  -13.5650   -2.0220 H   0  0  0  0  0  0  0  0  0  0  0  0
    4.5478  -11.3250   -4.2224 H   0  0  0  0  0  0  0  0  0  0  0  0
    2.3364  -10.1960   -4.4275 H   0  0  0  0  0  0  0  0  0  0  0  0
    0.7624  -10.1743   -2.5014 H   0  0  0  0  0  0  0  0  0  0  0  0
    0.3632   -9.3362   -0.5794 H   0  0  0  0  0  0  0  0  0  0  0  0
   -1.7001   -8.2933    1.1811 H   0  0  0  0  0  0  0  0  0  0  0  0
   -2.7939   -9.3594    3.3720 H   0  0  0  0  0  0  0  0  0  0  0  0
   -0.3680  -13.3890    3.4740 H   0  0  0  0  0  0  0  0  0  0  0  0
    0.6911  -15.2419    1.7549 H   0  0  0  0  0  0  0  0  0  0  0  0
    2.1296  -14.3026    2.2841 H   0  0  0  0  0  0  0  0  0  0  0  0
    0.4144  -13.7189    5.0614 H   0  0  0  0  0  0  0  0  0  0  0  0
    0.4446  -15.0425    7.1421 H   0  0  0  0  0  0  0  0  0  0  0  0
    1.7962  -18.4483    5.0926 H   0  0  0  0  0  0  0  0  0  0  0  0
    1.8113  -17.2358    2.9466 H   0  0  0  0  0  0  0  0  0  0  0  0
    3.6277  -12.3888   -0.1404 H   0  0  0  0  0  0  0  0  0  0  0  0
    9.3118  -12.7005    0.0133 H   0  0  0  0  0  0  0  0  0  0  0  0
  1  2  1  0
  2  3  2  0
  3  4  1  0
  4  5  2  0
  5  6  1  0
  6  7  1  0
  7  8  2  0
  7  9  1  0
  9 10  1  0
 10 11  2  0
 11 12  1  0
 12 13  2  0
 13 14  1  0
 14 15  1  0
 15 16  2  0
 16 17  1  0
 17 18  1  0
 18 19  2  0
 19 20  1  0
 20 21  2  0
 21 22  1  0
 22 23  1  0
 23 24  1  0
 24 25  1  0
 25 26  2  0
 26 27  1  0
 27 28  2  0
 28 29  1  0
 29 30  2  0
 22 31  2  0
 14 32  2  0
  5 33  1  0
 33 34  2  0
 34 35  1  0
 35 36  1  0
 35 37  1  0
 35 38  1  0
 34  2  1  0
 32 10  1  0
 31 15  1  0
 21 17  1  0
 30 25  1  0
  1 39  1  0
  1 40  1  0
  1 41  1  0
  3 42  1  0
  4 43  1  0
  6 44  1  0
  9 45  1  0
 11 46  1  0
 12 47  1  0
 13 48  1  0
 16 49  1  0
 18 50  1  0
 19 51  1  0
 23 52  1  0
 24 53  1  0
 24 54  1  0
 26 55  1  0
 27 56  1  0
 29 57  1  0
 30 58  1  0
 32 59  1  0
 33 60  1  0
M  END
>  <meeko>  (2) 
{"is_sidechain": [false], "free_energy": -9.492, "intermolecular_energy": -13.043, "internal_energy": -0.882}

$$$$
LIB_CXRYSQNWQCVBQV__M_PUB_ALL__e8__s20260927
     RDKit          3D

 60 64  0  0  0  0  0  0  0  0999 V2000
   13.5160  -12.0080   -2.3920 C   0  0  0  0  0  0  0  0  0  0  0  0
   12.0340  -12.2510   -2.2790 C   0  0  0  0  0  0  0  0  0  0  0  0
   11.2690  -12.3650   -3.4460 C   0  0  0  0  0  0  0  0  0  0  0  0
    9.8920  -12.5960   -3.3780 C   0  0  0  0  0  0  0  0  0  0  0  0
    9.2480  -12.7190   -2.1450 C   0  0  0  0  0  0  0  0  0  0  0  0
    7.8570  -12.9540   -2.1680 N   0  0  0  0  0  0  0  0  0  0  0  0
    6.8350  -12.0160   -2.1270 C   0  0  0  0  0  0  0  0  0  0  0  0
    6.9970  -10.8030   -2.1540 O   0  0  0  0  0  0  0  0  0  0  0  0
    5.6030  -12.6500   -2.0460 N   0  0  0  0  0  0  0  0  0  0  0  0
    4.3240  -12.0550   -2.1140 C   0  0  0  0  0  0  0  0  0  0  0  0
    3.9640  -11.4500   -3.3240 C   0  0  0  0  0  0  0  0  0  0  0  0
    2.7190  -10.8370   -3.4670 C   0  0  0  0  0  0  0  0  0  0  0  0
    1.8230  -10.8240   -2.3990 C   0  0  0  0  0  0  0  0  0  0  0  0
    2.1550  -11.4240   -1.1760 C   0  0  0  0  0  0  0  0  0  0  0  0
    1.1870  -11.3820   -0.0520 C   0  0  0  0  0  0  0  0  0  0  0  0
    0.4350  -10.2780    0.1500 C   0  0  0  0  0  0  0  0  0  0  0  0
   -0.4450  -10.2710    1.2100 N   0  0  0  0  0  0  0  0  0  0  0  0
   -1.3280   -9.3340    1.6690 C   0  0  0  0  0  0  0  0  0  0  0  0
   -1.9250   -9.9120    2.7700 C   0  0  0  0  0  0  0  0  0  0  0  0
   -1.4310  -11.1760    3.0000 N   0  0  0  0  0  0  0  0  0  0  0  0
   -0.5460  -11.3520    2.0390 C   0  0  0  0  0  0  0  0  0  0  0  0
    0.2890  -12.5130    1.7930 C   0  0  0  0  0  0  0  0  0  0  0  0
    0.2090  -13.6120    2.6130 N   0  0  0  0  0  0  0  0  0  0  0  0
    0.9760  -14.8120    2.4320 C   0  0  0  0  0  0  0  0  0  0  0  0
    0.0550  -16.0030    2.4150 C   0  0  0  0  0  0  0  0  0  0  0  0
   -0.1660  -16.7540    3.5730 C   0  0  0  0  0  0  0  0  0  0  0  0
   -1.0430  -17.8250    3.5130 C   0  0  0  0  0  0  0  0  0  0  0  0
   -1.7090  -18.1890    2.3970 N   0  0  0  0  0  0  0  0  0  0  0  0
   -1.4950  -17.4420    1.2930 C   0  0  0  0  0  0  0  0  0  0  0  0
   -0.6390  -16.3540    1.2520 C   0  0  0  0  0  0  0  0  0  0  0  0
    1.1240  -12.5000    0.7780 N   0  0  0  0  0  0  0  0  0  0  0  0
    3.4220  -12.0220   -1.0450 C   0  0  0  0  0  0  0  0  0  0  0  0
   10.0080  -12.6180   -0.9780 C   0  0  0  0  0  0  0  0  0  0  0  0
   11.3990  -12.3880   -1.0250 C   0  0  0  0  0  0  0  0  0  0  0  0
   12.1770  -12.2860    0.2700 C   0  0  0  0  0  0  0  0  0  0  0  0
   12.8630  -13.4290    0.5580 F   0  0  0  0  0  0  0  0  0  0  0  0
   13.1050  -11.2890    0.2840 F   0  0  0  0  0  0  0  0  0  0  0  0
   11.3760  -12.0520    1.3470 F   0  0  0  0  0  0  0  0  0  0  0  0
   13.9536  -11.9362   -1.3853 H   0  0  0  0  0  0  0  0  0  0  0  0
   13.9837  -12.8414   -2.9366 H   0  0  0  0  0  0  0  0  0  0  0  0
   13.6931  -11.0688   -2.9366 H   0  0  0  0  0  0  0  0  0  0  0  0
   11.7570  -12.2717   -4.4274 H   0  0  0  0  0  0  0  0  0  0  0  0
    9.3088  -12.6819   -4.3067 H   0  0  0  0  0  0  0  0  0  0  0  0
    7.5760  -13.9140   -2.2930 H   0  0  0  0  0  0  0  0  0  0  0  0
    5.6170  -13.6350   -1.8360 H   0  0  0  0  0  0  0  0  0  0  0  0
    4.6684  -11.4580   -4.1688 H   0  0  0  0  0  0  0  0  0  0  0  0
    2.4445  -10.3643   -4.4216 H   0  0  0  0  0  0  0  0  0  0  0  0
    0.8437  -10.3371   -2.5172 H   0  0  0  0  0  0  0  0  0  0  0  0
    0.5231   -9.4064   -0.5153 H   0  0  0  0  0  0  0  0  0  0  0  0
   -1.5208   -8.3350    1.2508 H   0  0  0  0  0  0  0  0  0  0  0  0
   -2.6965   -9.4255    3.3850 H   0  0  0  0  0  0  0  0  0  0  0  0
   -0.4570  -13.5640    3.3770 H   0  0  0  0  0  0  0  0  0  0  0  0
    1.5214  -14.7574    1.4783 H   0  0  0  0  0  0  0  0  0  0  0  0
    1.6921  -14.9160    3.2605 H   0  0  0  0  0  0  0  0  0  0  0  0
    0.3459  -16.4999    4.5129 H   0  0  0  0  0  0  0  0  0  0  0  0
   -1.2059  -18.4129    4.4283 H   0  0  0  0  0  0  0  0  0  0  0  0
   -2.0319  -17.7134    0.3721 H   0  0  0  0  0  0  0  0  0  0  0  0
   -0.5075  -15.7778    0.3243 H   0  0  0  0  0  0  0  0  0  0  0  0
    3.7089  -12.4723   -0.0833 H   0  0  0  0  0  0  0  0  0  0  0  0
    9.5117  -12.7199   -0.0016 H   0  0  0  0  0  0  0  0  0  0  0  0
  1  2  1  0
  2  3  2  0
  3  4  1  0
  4  5  2  0
  5  6  1  0
  6  7  1  0
  7  8  2  0
  7  9  1  0
  9 10  1  0
 10 11  2  0
 11 12  1  0
 12 13  2  0
 13 14  1  0
 14 15  1  0
 15 16  2  0
 16 17  1  0
 17 18  1  0
 18 19  2  0
 19 20  1  0
 20 21  2  0
 21 22  1  0
 22 23  1  0
 23 24  1  0
 24 25  1  0
 25 26  2  0
 26 27  1  0
 27 28  2  0
 28 29  1  0
 29 30  2  0
 22 31  2  0
 14 32  2  0
  5 33  1  0
 33 34  2  0
 34 35  1  0
 35 36  1  0
 35 37  1  0
 35 38  1  0
 34  2  1  0
 32 10  1  0
 31 15  1  0
 21 17  1  0
 30 25  1  0
  1 39  1  0
  1 40  1  0
  1 41  1  0
  3 42  1  0
  4 43  1  0
  6 44  1  0
  9 45  1  0
 11 46  1  0
 12 47  1  0
 13 48  1  0
 16 49  1  0
 18 50  1  0
 19 51  1  0
 23 52  1  0
 24 53  1  0
 24 54  1  0
 26 55  1  0
 27 56  1  0
 29 57  1  0
 30 58  1  0
 32 59  1  0
 33 60  1  0
M  END
>  <meeko>  (3) 
{"is_sidechain": [false], "free_energy": -9.338, "intermolecular_energy": -12.88, "internal_energy": -0.837}

$$$$
LIB_CXRYSQNWQCVBQV__M_PUB_ALL__e8__s20260927
     RDKit          3D

 60 64  0  0  0  0  0  0  0  0999 V2000
   13.3510  -11.3770    0.0940 C   0  0  0  0  0  0  0  0  0  0  0  0
   11.9310  -11.7710   -0.2130 C   0  0  0  0  0  0  0  0  0  0  0  0
   10.9720  -11.7200    0.8080 C   0  0  0  0  0  0  0  0  0  0  0  0
    9.6440  -12.0720    0.5570 C   0  0  0  0  0  0  0  0  0  0  0  0
    9.2410  -12.4820   -0.7160 C   0  0  0  0  0  0  0  0  0  0  0  0
    7.8800  -12.8170   -0.8820 N   0  0  0  0  0  0  0  0  0  0  0  0
    6.8320  -11.9750   -1.2290 C   0  0  0  0  0  0  0  0  0  0  0  0
    6.9550  -10.7960   -1.5360 O   0  0  0  0  0  0  0  0  0  0  0  0
    5.6260  -12.6590   -1.1720 N   0  0  0  0  0  0  0  0  0  0  0  0
    4.3540  -12.1930   -1.5740 C   0  0  0  0  0  0  0  0  0  0  0  0
    4.2020  -11.8310   -2.9170 C   0  0  0  0  0  0  0  0  0  0  0  0
    2.9770  -11.3570   -3.3880 C   0  0  0  0  0  0  0  0  0  0  0  0
    1.8940  -11.2430   -2.5180 C   0  0  0  0  0  0  0  0  0  0  0  0
    2.0170  -11.6000   -1.1680 C   0  0  0  0  0  0  0  0  0  0  0  0
    0.8510  -11.4540   -0.2610 C   0  0  0  0  0  0  0  0  0  0  0  0
    0.7240  -10.3450    0.5000 C   0  0  0  0  0  0  0  0  0  0  0  0
   -0.3650  -10.2490    1.3380 N   0  0  0  0  0  0  0  0  0  0  0  0
   -0.7740   -9.2790    2.2110 C   0  0  0  0  0  0  0  0  0  0  0  0
   -1.9430   -9.7630    2.7620 C   0  0  0  0  0  0  0  0  0  0  0  0
   -2.2600  -11.0010    2.2530 N   0  0  0  0  0  0  0  0  0  0  0  0
   -1.2870  -11.2550    1.4010 C   0  0  0  0  0  0  0  0  0  0  0  0
   -1.1060  -12.4330    0.5740 C   0  0  0  0  0  0  0  0  0  0  0  0
   -2.0170  -13.4600    0.6190 N   0  0  0  0  0  0  0  0  0  0  0  0
   -1.9330  -14.6500   -0.1790 C   0  0  0  0  0  0  0  0  0  0  0  0
   -1.6030  -15.8270    0.7010 C   0  0  0  0  0  0  0  0  0  0  0  0
   -2.5960  -16.4550    1.4580 C   0  0  0  0  0  0  0  0  0  0  0  0
   -2.2470  -17.5500    2.2330 C   0  0  0  0  0  0  0  0  0  0  0  0
   -0.9980  -18.0570    2.2970 N   0  0  0  0  0  0  0  0  0  0  0  0
   -0.0560  -17.4470    1.5460 C   0  0  0  0  0  0  0  0  0  0  0  0
   -0.3060  -16.3480    0.7410 C   0  0  0  0  0  0  0  0  0  0  0  0
   -0.0600  -12.5080   -0.2180 N   0  0  0  0  0  0  0  0  0  0  0  0
    3.2650  -12.0590   -0.7070 C   0  0  0  0  0  0  0  0  0  0  0  0
   10.1890  -12.5230   -1.7390 C   0  0  0  0  0  0  0  0  0  0  0  0
   11.5350  -12.1690   -1.5080 C   0  0  0  0  0  0  0  0  0  0  0  0
   12.5250  -12.2310   -2.6520 C   0  0  0  0  0  0  0  0  0  0  0  0
   11.9120  -12.2690   -3.8700 F   0  0  0  0  0  0  0  0  0  0  0  0
   13.3800  -11.1720   -2.7060 F   0  0  0  0  0  0  0  0  0  0  0  0
   13.3190  -13.3370   -2.6020 F   0  0  0  0  0  0  0  0  0  0  0  0
   13.4931  -11.3376    1.1841 H   0  0  0  0  0  0  0  0  0  0  0  0
   14.0389  -12.1182   -0.3389 H   0  0  0  0  0  0  0  0  0  0  0  0
   13.5587  -10.3873   -0.3389 H   0  0  0  0  0  0  0  0  0  0  0  0
   11.2685  -11.3994    1.8176 H   0  0  0  0  0  0  0  0  0  0  0  0
    8.9064  -12.0258    1.3718 H   0  0  0  0  0  0  0  0  0  0  0  0
    7.6560  -13.7960   -0.8020 H   0  0  0  0  0  0  0  0  0  0  0  0
    5.6400  -13.5590   -0.7210 H   0  0  0  0  0  0  0  0  0  0  0  0
    5.0544  -11.9207   -3.6065 H   0  0  0  0  0  0  0  0  0  0  0  0
    2.8661  -11.0735   -4.4450 H   0  0  0  0  0  0  0  0  0  0  0  0
    0.9311  -10.8683   -2.8953 H   0  0  0  0  0  0  0  0  0  0  0  0
    1.4712   -9.5392    0.4517 H   0  0  0  0  0  0  0  0  0  0  0  0
   -0.2787   -8.3209    2.4271 H   0  0  0  0  0  0  0  0  0  0  0  0
   -2.5440   -9.2277    3.5118 H   0  0  0  0  0  0  0  0  0  0  0  0
   -2.8060  -13.3430    1.2470 H   0  0  0  0  0  0  0  0  0  0  0  0
   -2.8977  -14.8250   -0.6777 H   0  0  0  0  0  0  0  0  0  0  0  0
   -1.1439  -14.5273   -0.9355 H   0  0  0  0  0  0  0  0  0  0  0  0
   -3.6328  -16.0880    1.4392 H   0  0  0  0  0  0  0  0  0  0  0  0
   -3.0338  -18.0337    2.8305 H   0  0  0  0  0  0  0  0  0  0  0  0
    0.9687  -17.8458    1.5752 H   0  0  0  0  0  0  0  0  0  0  0  0
    0.4996  -15.8941    0.1451 H   0  0  0  0  0  0  0  0  0  0  0  0
    3.3861  -12.3172    0.3554 H   0  0  0  0  0  0  0  0  0  0  0  0
    9.8804  -12.8379   -2.7468 H   0  0  0  0  0  0  0  0  0  0  0  0
  1  2  1  0
  2  3  2  0
  3  4  1  0
  4  5  2  0
  5  6  1  0
  6  7  1  0
  7  8  2  0
  7  9  1  0
  9 10  1  0
 10 11  2  0
 11 12  1  0
 12 13  2  0
 13 14  1  0
 14 15  1  0
 15 16  2  0
 16 17  1  0
 17 18  1  0
 18 19  2  0
 19 20  1  0
 20 21  2  0
 21 22  1  0
 22 23  1  0
 23 24  1  0
 24 25  1  0
 25 26  2  0
 26 27  1  0
 27 28  2  0
 28 29  1  0
 29 30  2  0
 22 31  2  0
 14 32  2  0
  5 33  1  0
 33 34  2  0
 34 35  1  0
 35 36  1  0
 35 37  1  0
 35 38  1  0
 34  2  1  0
 32 10  1  0
 31 15  1  0
 21 17  1  0
 30 25  1  0
  1 39  1  0
  1 40  1  0
  1 41  1  0
  3 42  1  0
  4 43  1  0
  6 44  1  0
  9 45  1  0
 11 46  1  0
 12 47  1  0
 13 48  1  0
 16 49  1  0
 18 50  1  0
 19 51  1  0
 23 52  1  0
 24 53  1  0
 24 54  1  0
 26 55  1  0
 27 56  1  0
 29 57  1  0
 30 58  1  0
 32 59  1  0
 33 60  1  0
M  END
>  <meeko>  (4) 
{"is_sidechain": [false], "free_energy": -9.095, "intermolecular_energy": -12.541, "internal_energy": -0.847}

$$$$
LIB_CXRYSQNWQCVBQV__M_PUB_ALL__e8__s20260927
     RDKit          3D

 60 64  0  0  0  0  0  0  0  0999 V2000
   10.1440  -14.1240  -10.1120 C   0  0  0  0  0  0  0  0  0  0  0  0
    8.8350  -13.8490   -9.4230 C   0  0  0  0  0  0  0  0  0  0  0  0
    8.5140  -14.5570   -8.2570 C   0  0  0  0  0  0  0  0  0  0  0  0
    7.3100  -14.3220   -7.5880 C   0  0  0  0  0  0  0  0  0  0  0  0
    6.3990  -13.3770   -8.0650 C   0  0  0  0  0  0  0  0  0  0  0  0
    5.2090  -13.2020   -7.3270 N   0  0  0  0  0  0  0  0  0  0  0  0
    5.0730  -12.7050   -6.0380 C   0  0  0  0  0  0  0  0  0  0  0  0
    5.9880  -12.2510   -5.3630 O   0  0  0  0  0  0  0  0  0  0  0  0
    3.7530  -12.8030   -5.6210 N   0  0  0  0  0  0  0  0  0  0  0  0
    3.1860  -12.2930   -4.4320 C   0  0  0  0  0  0  0  0  0  0  0  0
    2.9740  -10.9110   -4.3680 C   0  0  0  0  0  0  0  0  0  0  0  0
    2.4230  -10.3320   -3.2240 C   0  0  0  0  0  0  0  0  0  0  0  0
    2.0790  -11.1310   -2.1360 C   0  0  0  0  0  0  0  0  0  0  0  0
    2.2790  -12.5180   -2.1730 C   0  0  0  0  0  0  0  0  0  0  0  0
    1.9170  -13.3430   -0.9930 C   0  0  0  0  0  0  0  0  0  0  0  0
    2.8070  -14.2260   -0.4890 C   0  0  0  0  0  0  0  0  0  0  0  0
    2.4330  -14.9840    0.5990 N   0  0  0  0  0  0  0  0  0  0  0  0
    3.0880  -15.9370    1.3280 C   0  0  0  0  0  0  0  0  0  0  0  0
    2.1860  -16.3310    2.2950 C   0  0  0  0  0  0  0  0  0  0  0  0
    0.9970  -15.6470    2.1780 N   0  0  0  0  0  0  0  0  0  0  0  0
    1.1900  -14.8480    1.1480 C   0  0  0  0  0  0  0  0  0  0  0  0
    0.2610  -13.8950    0.5680 C   0  0  0  0  0  0  0  0  0  0  0  0
   -0.9970  -13.7410    1.0990 N   0  0  0  0  0  0  0  0  0  0  0  0
   -1.9720  -12.8080    0.6090 C   0  0  0  0  0  0  0  0  0  0  0  0
   -1.9280  -11.5500    1.4350 C   0  0  0  0  0  0  0  0  0  0  0  0
   -1.5870  -11.5960    2.7900 C   0  0  0  0  0  0  0  0  0  0  0  0
   -1.5360  -10.4070    3.5020 C   0  0  0  0  0  0  0  0  0  0  0  0
   -1.7890   -9.1970    2.9620 N   0  0  0  0  0  0  0  0  0  0  0  0
   -2.1000   -9.1720    1.6490 C   0  0  0  0  0  0  0  0  0  0  0  0
   -2.1780  -10.3030    0.8530 C   0  0  0  0  0  0  0  0  0  0  0  0
    0.6350  -13.1840   -0.4710 N   0  0  0  0  0  0  0  0  0  0  0  0
    2.8520  -13.0830   -3.3280 C   0  0  0  0  0  0  0  0  0  0  0  0
    6.7190  -12.6610   -9.2190 C   0  0  0  0  0  0  0  0  0  0  0  0
    7.9310  -12.8800   -9.9080 C   0  0  0  0  0  0  0  0  0  0  0  0
    8.2290  -12.0760  -11.1560 C   0  0  0  0  0  0  0  0  0  0  0  0
    8.3360  -12.8580  -12.2680 F   0  0  0  0  0  0  0  0  0  0  0  0
    7.2820  -11.1430  -11.4560 F   0  0  0  0  0  0  0  0  0  0  0  0
    9.4020  -11.3880  -11.0710 F   0  0  0  0  0  0  0  0  0  0  0  0
   10.9278  -14.2887   -9.3579 H   0  0  0  0  0  0  0  0  0  0  0  0
   10.0460  -15.0212  -10.7409 H   0  0  0  0  0  0  0  0  0  0  0  0
   10.4153  -13.2632  -10.7409 H   0  0  0  0  0  0  0  0  0  0  0  0
    9.2175  -15.3059   -7.8642 H   0  0  0  0  0  0  0  0  0  0  0  0
    7.0768  -14.8883   -6.6743 H   0  0  0  0  0  0  0  0  0  0  0  0
    4.3530  -13.4010   -7.8200 H   0  0  0  0  0  0  0  0  0  0  0  0
    3.1430  -13.3680   -6.1890 H   0  0  0  0  0  0  0  0  0  0  0  0
    3.2436  -10.2768   -5.2254 H   0  0  0  0  0  0  0  0  0  0  0  0
    2.2604   -9.2449   -3.1814 H   0  0  0  0  0  0  0  0  0  0  0  0
    1.6453  -10.6681   -1.2373 H   0  0  0  0  0  0  0  0  0  0  0  0
    3.8057  -14.3369   -0.9364 H   0  0  0  0  0  0  0  0  0  0  0  0
    4.1120  -16.3091    1.1766 H   0  0  0  0  0  0  0  0  0  0  0  0
    2.3906  -17.0936    3.0609 H   0  0  0  0  0  0  0  0  0  0  0  0
   -1.2260  -14.3160    1.9040 H   0  0  0  0  0  0  0  0  0  0  0  0
   -1.7504  -12.5646   -0.4406 H   0  0  0  0  0  0  0  0  0  0  0  0
   -2.9740  -13.2563    0.6798 H   0  0  0  0  0  0  0  0  0  0  0  0
   -1.3639  -12.5548    3.2809 H   0  0  0  0  0  0  0  0  0  0  0  0
   -1.2740  -10.4533    4.5693 H   0  0  0  0  0  0  0  0  0  0  0  0
   -2.3035   -8.1963    1.1836 H   0  0  0  0  0  0  0  0  0  0  0  0
   -2.4312  -10.2221   -0.2144 H   0  0  0  0  0  0  0  0  0  0  0  0
    3.0405  -14.1662   -3.3625 H   0  0  0  0  0  0  0  0  0  0  0  0
    6.0115  -11.9098   -9.5999 H   0  0  0  0  0  0  0  0  0  0  0  0
  1  2  1  0
  2  3  2  0
  3  4  1  0
  4  5  2  0
  5  6  1  0
  6  7  1  0
  7  8  2  0
  7  9  1  0
  9 10  1  0
 10 11  2  0
 11 12  1  0
 12 13  2  0
 13 14  1  0
 14 15  1  0
 15 16  2  0
 16 17  1  0
 17 18  1  0
 18 19  2  0
 19 20  1  0
 20 21  2  0
 21 22  1  0
 22 23  1  0
 23 24  1  0
 24 25  1  0
 25 26  2  0
 26 27  1  0
 27 28  2  0
 28 29  1  0
 29 30  2  0
 22 31  2  0
 14 32  2  0
  5 33  1  0
 33 34  2  0
 34 35  1  0
 35 36  1  0
 35 37  1  0
 35 38  1  0
 34  2  1  0
 32 10  1  0
 31 15  1  0
 21 17  1  0
 30 25  1  0
  1 39  1  0
  1 40  1  0
  1 41  1  0
  3 42  1  0
  4 43  1  0
  6 44  1  0
  9 45  1  0
 11 46  1  0
 12 47  1  0
 13 48  1  0
 16 49  1  0
 18 50  1  0
 19 51  1  0
 23 52  1  0
 24 53  1  0
 24 54  1  0
 26 55  1  0
 27 56  1  0
 29 57  1  0
 30 58  1  0
 32 59  1  0
 33 60  1  0
M  END
>  <meeko>  (5) 
{"is_sidechain": [false], "free_energy": -9.041, "intermolecular_energy": -12.376, "internal_energy": -0.939}

$$$$
LIB_CXRYSQNWQCVBQV__M_PUB_ALL__e8__s20260927
     RDKit          3D

 60 64  0  0  0  0  0  0  0  0999 V2000
    1.8630  -11.0660   -2.4020 C   0  0  0  0  0  0  0  0  0  0  0  0
    2.7580  -11.5370   -3.5180 C   0  0  0  0  0  0  0  0  0  0  0  0
    3.1960  -10.6150   -4.4790 C   0  0  0  0  0  0  0  0  0  0  0  0
    4.0320  -11.0170   -5.5230 C   0  0  0  0  0  0  0  0  0  0  0  0
    4.4510  -12.3450   -5.6340 C   0  0  0  0  0  0  0  0  0  0  0  0
    5.2960  -12.6630   -6.7180 N   0  0  0  0  0  0  0  0  0  0  0  0
    6.2520  -13.6670   -6.7860 C   0  0  0  0  0  0  0  0  0  0  0  0
    6.4460  -14.5080   -5.9170 O   0  0  0  0  0  0  0  0  0  0  0  0
    6.9580  -13.5800   -7.9780 N   0  0  0  0  0  0  0  0  0  0  0  0
    7.9170  -14.4890   -8.4770 C   0  0  0  0  0  0  0  0  0  0  0  0
    7.4670  -15.4630   -9.3750 C   0  0  0  0  0  0  0  0  0  0  0  0
    8.3540  -16.3990   -9.9080 C   0  0  0  0  0  0  0  0  0  0  0  0
    9.7000  -16.3680   -9.5460 C   0  0  0  0  0  0  0  0  0  0  0  0
   10.1790  -15.4020   -8.6500 C   0  0  0  0  0  0  0  0  0  0  0  0
   11.6140  -15.4010   -8.2710 C   0  0  0  0  0  0  0  0  0  0  0  0
   12.5640  -15.5210   -9.2250 C   0  0  0  0  0  0  0  0  0  0  0  0
   13.8850  -15.5280   -8.8360 N   0  0  0  0  0  0  0  0  0  0  0  0
   15.0530  -15.6270   -9.5390 C   0  0  0  0  0  0  0  0  0  0  0  0
   16.0500  -15.5750   -8.5880 C   0  0  0  0  0  0  0  0  0  0  0  0
   15.5260  -15.4500   -7.3210 N   0  0  0  0  0  0  0  0  0  0  0  0
   14.2230  -15.4240   -7.5170 C   0  0  0  0  0  0  0  0  0  0  0  0
   13.1710  -15.3080   -6.5230 C   0  0  0  0  0  0  0  0  0  0  0  0
   13.4840  -15.2050   -5.1900 N   0  0  0  0  0  0  0  0  0  0  0  0
   12.5140  -15.0620   -4.1420 C   0  0  0  0  0  0  0  0  0  0  0  0
   12.7180  -13.7450   -3.4400 C   0  0  0  0  0  0  0  0  0  0  0  0
   11.9080  -13.3760   -2.3620 C   0  0  0  0  0  0  0  0  0  0  0  0
   12.1520  -12.1660   -1.7320 C   0  0  0  0  0  0  0  0  0  0  0  0
   13.1360  -11.3160   -2.0940 N   0  0  0  0  0  0  0  0  0  0  0  0
   13.9180  -11.6970   -3.1270 C   0  0  0  0  0  0  0  0  0  0  0  0
   13.7540  -12.8860   -3.8200 C   0  0  0  0  0  0  0  0  0  0  0  0
   11.9170  -15.3060   -6.9140 N   0  0  0  0  0  0  0  0  0  0  0  0
    9.2670  -14.4770   -8.1090 C   0  0  0  0  0  0  0  0  0  0  0  0
    4.0280  -13.2640   -4.6740 C   0  0  0  0  0  0  0  0  0  0  0  0
    3.1860  -12.8790   -3.6090 C   0  0  0  0  0  0  0  0  0  0  0  0
    2.7550  -13.9160   -2.5930 C   0  0  0  0  0  0  0  0  0  0  0  0
    3.2540  -13.6670   -1.3490 F   0  0  0  0  0  0  0  0  0  0  0  0
    1.4050  -14.0100   -2.4340 F   0  0  0  0  0  0  0  0  0  0  0  0
    3.1710  -15.1730   -2.9160 F   0  0  0  0  0  0  0  0  0  0  0  0
    2.3252  -11.3092   -1.4339 H   0  0  0  0  0  0  0  0  0  0  0  0
    1.7234   -9.9776   -2.4785 H   0  0  0  0  0  0  0  0  0  0  0  0
    0.8868  -11.5672   -2.4785 H   0  0  0  0  0  0  0  0  0  0  0  0
    2.8780   -9.5642   -4.4100 H   0  0  0  0  0  0  0  0  0  0  0  0
    4.3647  -10.2786   -6.2673 H   0  0  0  0  0  0  0  0  0  0  0  0
    5.1410  -12.1380   -7.5650 H   0  0  0  0  0  0  0  0  0  0  0  0
    6.8350  -12.7360   -8.5130 H   0  0  0  0  0  0  0  0  0  0  0  0
    6.4058  -15.4911   -9.6630 H   0  0  0  0  0  0  0  0  0  0  0  0
    7.9914  -17.1611  -10.6135 H   0  0  0  0  0  0  0  0  0  0  0  0
   10.3939  -17.1098   -9.9681 H   0  0  0  0  0  0  0  0  0  0  0  0
   12.2887  -15.6109  -10.2862 H   0  0  0  0  0  0  0  0  0  0  0  0
   15.1719  -15.7266  -10.6280 H   0  0  0  0  0  0  0  0  0  0  0  0
   17.1256  -15.6267   -8.8127 H   0  0  0  0  0  0  0  0  0  0  0  0
   14.4710  -15.2090   -4.9510 H   0  0  0  0  0  0  0  0  0  0  0  0
   11.5024  -15.0942   -4.5728 H   0  0  0  0  0  0  0  0  0  0  0  0
   12.6333  -15.8830   -3.4197 H   0  0  0  0  0  0  0  0  0  0  0  0
   11.0939  -14.0324   -2.0209 H   0  0  0  0  0  0  0  0  0  0  0  0
   11.5063  -11.8818   -0.8880 H   0  0  0  0  0  0  0  0  0  0  0  0
   14.7321  -11.0249   -3.4362 H   0  0  0  0  0  0  0  0  0  0  0  0
   14.4247  -13.1485   -4.6515 H   0  0  0  0  0  0  0  0  0  0  0  0
    9.6219  -13.7305   -7.3832 H   0  0  0  0  0  0  0  0  0  0  0  0
    4.3576  -14.3108   -4.7485 H   0  0  0  0  0  0  0  0  0  0  0  0
  1  2  1  0
  2  3  2  0
  3  4  1  0
  4  5  2  0
  5  6  1  0
  6  7  1  0
  7  8  2  0
  7  9  1  0
  9 10  1  0
 10 11  2  0
 11 12  1  0
 12 13  2  0
 13 14  1  0
 14 15  1  0
 15 16  2  0
 16 17  1  0
 17 18  1  0
 18 19  2  0
 19 20  1  0
 20 21  2  0
 21 22  1  0
 22 23  1  0
 23 24  1  0
 24 25  1  0
 25 26  2  0
 26 27  1  0
 27 28  2  0
 28 29  1  0
 29 30  2  0
 22 31  2  0
 14 32  2  0
  5 33  1  0
 33 34  2  0
 34 35  1  0
 35 36  1  0
 35 37  1  0
 35 38  1  0
 34  2  1  0
 32 10  1  0
 31 15  1  0
 21 17  1  0
 30 25  1  0
  1 39  1  0
  1 40  1  0
  1 41  1  0
  3 42  1  0
  4 43  1  0
  6 44  1  0
  9 45  1  0
 11 46  1  0
 12 47  1  0
 13 48  1  0
 16 49  1  0
 18 50  1  0
 19 51  1  0
 23 52  1  0
 24 53  1  0
 24 54  1  0
 26 55  1  0
 27 56  1  0
 29 57  1  0
 30 58  1  0
 32 59  1  0
 33 60  1  0
M  END
>  <meeko>  (6) 
{"is_sidechain": [false], "free_energy": -8.857, "intermolecular_energy": -12.345, "internal_energy": -0.721}

$$$$
LIB_CXRYSQNWQCVBQV__M_PUB_ALL__e8__s20260927
     RDKit          3D

 60 64  0  0  0  0  0  0  0  0999 V2000
   13.1080  -13.0650   -2.6990 C   0  0  0  0  0  0  0  0  0  0  0  0
   11.6780  -12.7100   -2.3940 C   0  0  0  0  0  0  0  0  0  0  0  0
   10.8020  -12.4290   -3.4520 C   0  0  0  0  0  0  0  0  0  0  0  0
    9.4670  -12.1020   -3.2050 C   0  0  0  0  0  0  0  0  0  0  0  0
    8.9730  -12.0470   -1.8990 C   0  0  0  0  0  0  0  0  0  0  0  0
    7.6120  -11.7120   -1.7410 N   0  0  0  0  0  0  0  0  0  0  0  0
    6.5150  -12.5620   -1.7820 C   0  0  0  0  0  0  0  0  0  0  0  0
    6.5780  -13.7800   -1.8790 O   0  0  0  0  0  0  0  0  0  0  0  0
    5.3370  -11.8320   -1.7040 N   0  0  0  0  0  0  0  0  0  0  0  0
    4.0220  -12.3330   -1.5850 C   0  0  0  0  0  0  0  0  0  0  0  0
    3.2990  -12.5150   -2.7700 C   0  0  0  0  0  0  0  0  0  0  0  0
    1.9920  -13.0020   -2.7350 C   0  0  0  0  0  0  0  0  0  0  0  0
    1.3970  -13.3100   -1.5130 C   0  0  0  0  0  0  0  0  0  0  0  0
    2.0980  -13.1400   -0.3100 C   0  0  0  0  0  0  0  0  0  0  0  0
    1.4340  -13.4630    0.9780 C   0  0  0  0  0  0  0  0  0  0  0  0
    1.8050  -14.5630    1.6700 C   0  0  0  0  0  0  0  0  0  0  0  0
    1.1590  -14.8380    2.8550 N   0  0  0  0  0  0  0  0  0  0  0  0
    1.3000  -15.8440    3.7700 C   0  0  0  0  0  0  0  0  0  0  0  0
    0.3650  -15.5730    4.7480 C   0  0  0  0  0  0  0  0  0  0  0  0
   -0.3460  -14.4310    4.4560 N   0  0  0  0  0  0  0  0  0  0  0  0
    0.1640  -14.0210    3.3130 C   0  0  0  0  0  0  0  0  0  0  0  0
   -0.2100  -12.8560    2.5320 C   0  0  0  0  0  0  0  0  0  0  0  0
   -1.2090  -12.0200    2.9680 N   0  0  0  0  0  0  0  0  0  0  0  0
   -1.6280  -10.8340    2.2760 C   0  0  0  0  0  0  0  0  0  0  0  0
   -2.7830  -11.1610    1.3670 C   0  0  0  0  0  0  0  0  0  0  0  0
   -2.9760  -10.4580    0.1740 C   0  0  0  0  0  0  0  0  0  0  0  0
   -4.0390  -10.8140   -0.6420 C   0  0  0  0  0  0  0  0  0  0  0  0
   -4.9030  -11.8100   -0.3580 N   0  0  0  0  0  0  0  0  0  0  0  0
   -4.6910  -12.4880    0.7900 C   0  0  0  0  0  0  0  0  0  0  0  0
   -3.6580  -12.2080    1.6710 C   0  0  0  0  0  0  0  0  0  0  0  0
    0.4160  -12.6120    1.4030 N   0  0  0  0  0  0  0  0  0  0  0  0
    3.4090  -12.6320   -0.3640 C   0  0  0  0  0  0  0  0  0  0  0  0
    9.8370  -12.3370   -0.8430 C   0  0  0  0  0  0  0  0  0  0  0  0
   11.1890  -12.6730   -1.0700 C   0  0  0  0  0  0  0  0  0  0  0  0
   12.0850  -12.9790    0.1120 C   0  0  0  0  0  0  0  0  0  0  0  0
   13.1720  -12.1570    0.1690 F   0  0  0  0  0  0  0  0  0  0  0  0
   11.4700  -12.8570    1.3210 F   0  0  0  0  0  0  0  0  0  0  0  0
   12.5800  -14.2480    0.0820 F   0  0  0  0  0  0  0  0  0  0  0  0
   13.6605  -13.2022   -1.7578 H   0  0  0  0  0  0  0  0  0  0  0  0
   13.1381  -13.9979   -3.2811 H   0  0  0  0  0  0  0  0  0  0  0  0
   13.5709  -12.2545   -3.2811 H   0  0  0  0  0  0  0  0  0  0  0  0
   11.1703  -12.4665   -4.4878 H   0  0  0  0  0  0  0  0  0  0  0  0
    8.7959  -11.8850   -4.0491 H   0  0  0  0  0  0  0  0  0  0  0  0
    7.4210  -10.7500   -1.5070 H   0  0  0  0  0  0  0  0  0  0  0  0
    5.4170  -10.8350   -1.8240 H   0  0  0  0  0  0  0  0  0  0  0  0
    3.7651  -12.2721   -3.7363 H   0  0  0  0  0  0  0  0  0  0  0  0
    1.4317  -13.1427   -3.6711 H   0  0  0  0  0  0  0  0  0  0  0  0
    0.3653  -13.6910   -1.4916 H   0  0  0  0  0  0  0  0  0  0  0  0
    2.6026  -15.2220    1.2964 H   0  0  0  0  0  0  0  0  0  0  0  0
    2.0059  -16.6869    3.7343 H   0  0  0  0  0  0  0  0  0  0  0  0
    0.2081  -16.1899    5.6451 H   0  0  0  0  0  0  0  0  0  0  0  0
   -1.6520  -12.2590    3.8490 H   0  0  0  0  0  0  0  0  0  0  0  0
   -1.9415  -10.0747    3.0076 H   0  0  0  0  0  0  0  0  0  0  0  0
   -0.7909  -10.4452    1.6776 H   0  0  0  0  0  0  0  0  0  0  0  0
   -2.2987   -9.6396   -0.1113 H   0  0  0  0  0  0  0  0  0  0  0  0
   -4.1863  -10.2512   -1.5756 H   0  0  0  0  0  0  0  0  0  0  0  0
   -5.3776  -13.3100    1.0408 H   0  0  0  0  0  0  0  0  0  0  0  0
   -3.5294  -12.7977    2.5906 H   0  0  0  0  0  0  0  0  0  0  0  0
    3.9625  -12.4668    0.5722 H   0  0  0  0  0  0  0  0  0  0  0  0
    9.4566  -12.3031    0.1886 H   0  0  0  0  0  0  0  0  0  0  0  0
  1  2  1  0
  2  3  2  0
  3  4  1  0
  4  5  2  0
  5  6  1  0
  6  7  1  0
  7  8  2  0
  7  9  1  0
  9 10  1  0
 10 11  2  0
 11 12  1  0
 12 13  2  0
 13 14  1  0
 14 15  1  0
 15 16  2  0
 16 17  1  0
 17 18  1  0
 18 19  2  0
 19 20  1  0
 20 21  2  0
 21 22  1  0
 22 23  1  0
 23 24  1  0
 24 25  1  0
 25 26  2  0
 26 27  1  0
 27 28  2  0
 28 29  1  0
 29 30  2  0
 22 31  2  0
 14 32  2  0
  5 33  1  0
 33 34  2  0
 34 35  1  0
 35 36  1  0
 35 37  1  0
 35 38  1  0
 34  2  1  0
 32 10  1  0
 31 15  1  0
 21 17  1  0
 30 25  1  0
  1 39  1  0
  1 40  1  0
  1 41  1  0
  3 42  1  0
  4 43  1  0
  6 44  1  0
  9 45  1  0
 11 46  1  0
 12 47  1  0
 13 48  1  0
 16 49  1  0
 18 50  1  0
 19 51  1  0
 23 52  1  0
 24 53  1  0
 24 54  1  0
 26 55  1  0
 27 56  1  0
 29 57  1  0
 30 58  1  0
 32 59  1  0
 33 60  1  0
M  END
>  <meeko>  (7) 
{"is_sidechain": [false], "free_energy": -8.694, "intermolecular_energy": -11.828, "internal_energy": -1.018}

$$$$
LIB_CXRYSQNWQCVBQV__M_PUB_ALL__e8__s20260927
     RDKit          3D

 60 64  0  0  0  0  0  0  0  0999 V2000
   11.5450  -12.3750    0.7780 C   0  0  0  0  0  0  0  0  0  0  0  0
   10.1780  -12.3040    0.1530 C   0  0  0  0  0  0  0  0  0  0  0  0
    9.0860  -11.9140    0.9400 C   0  0  0  0  0  0  0  0  0  0  0  0
    7.8040  -11.8310    0.3910 C   0  0  0  0  0  0  0  0  0  0  0  0
    7.5810  -12.1350   -0.9540 C   0  0  0  0  0  0  0  0  0  0  0  0
    6.2560  -12.0220   -1.4270 N   0  0  0  0  0  0  0  0  0  0  0  0
    5.3670  -13.0480   -1.7200 C   0  0  0  0  0  0  0  0  0  0  0  0
    5.5810  -14.2370   -1.5220 O   0  0  0  0  0  0  0  0  0  0  0  0
    4.2040  -12.5320   -2.2740 N   0  0  0  0  0  0  0  0  0  0  0  0
    3.0170  -13.2310   -2.5860 C   0  0  0  0  0  0  0  0  0  0  0  0
    2.7130  -13.4000   -3.9420 C   0  0  0  0  0  0  0  0  0  0  0  0
    1.5560  -14.0760   -4.3300 C   0  0  0  0  0  0  0  0  0  0  0  0
    0.6930  -14.5890   -3.3640 C   0  0  0  0  0  0  0  0  0  0  0  0
    0.9730  -14.4370   -1.9980 C   0  0  0  0  0  0  0  0  0  0  0  0
    0.0280  -14.9810   -0.9900 C   0  0  0  0  0  0  0  0  0  0  0  0
    0.3040  -16.1480   -0.3680 C   0  0  0  0  0  0  0  0  0  0  0  0
   -0.6010  -16.6280    0.5530 N   0  0  0  0  0  0  0  0  0  0  0  0
   -0.6120  -17.7480    1.3370 C   0  0  0  0  0  0  0  0  0  0  0  0
   -1.7910  -17.6750    2.0500 C   0  0  0  0  0  0  0  0  0  0  0  0
   -2.5030  -16.5430    1.7220 N   0  0  0  0  0  0  0  0  0  0  0  0
   -1.7520  -15.9440    0.8210 C   0  0  0  0  0  0  0  0  0  0  0  0
   -2.0140  -14.6990    0.1220 C   0  0  0  0  0  0  0  0  0  0  0  0
   -3.1650  -13.9920    0.3710 N   0  0  0  0  0  0  0  0  0  0  0  0
   -3.4970  -12.7430   -0.2540 C   0  0  0  0  0  0  0  0  0  0  0  0
   -3.0280  -11.6040    0.6130 C   0  0  0  0  0  0  0  0  0  0  0  0
   -2.9720  -10.3000    0.1120 C   0  0  0  0  0  0  0  0  0  0  0  0
   -2.5580   -9.2820    0.9560 C   0  0  0  0  0  0  0  0  0  0  0  0
   -2.2080   -9.4710    2.2450 N   0  0  0  0  0  0  0  0  0  0  0  0
   -2.2850  -10.7350    2.7160 C   0  0  0  0  0  0  0  0  0  0  0  0
   -2.6860  -11.8180    1.9510 C   0  0  0  0  0  0  0  0  0  0  0  0
   -1.1400  -14.2580   -0.7550 N   0  0  0  0  0  0  0  0  0  0  0  0
    2.1350  -13.7370   -1.6260 C   0  0  0  0  0  0  0  0  0  0  0  0
    8.6670  -12.5130   -1.7450 C   0  0  0  0  0  0  0  0  0  0  0  0
    9.9700  -12.6000   -1.2110 C   0  0  0  0  0  0  0  0  0  0  0  0
   11.1130  -13.0150   -2.1130 C   0  0  0  0  0  0  0  0  0  0  0  0
   11.7320  -14.1510   -1.6810 F   0  0  0  0  0  0  0  0  0  0  0  0
   10.7430  -13.2670   -3.4000 F   0  0  0  0  0  0  0  0  0  0  0  0
   12.0900  -12.0680   -2.1940 F   0  0  0  0  0  0  0  0  0  0  0  0
   11.4479  -12.3700    1.8737 H   0  0  0  0  0  0  0  0  0  0  0  0
   12.0466  -13.3004    0.4586 H   0  0  0  0  0  0  0  0  0  0  0  0
   12.1398  -11.5065    0.4586 H   0  0  0  0  0  0  0  0  0  0  0  0
    9.2399  -11.6706    2.0016 H   0  0  0  0  0  0  0  0  0  0  0  0
    6.9601  -11.5225    1.0255 H   0  0  0  0  0  0  0  0  0  0  0  0
    5.8930  -11.0850   -1.4980 H   0  0  0  0  0  0  0  0  0  0  0  0
    4.2320  -11.5670   -2.5620 H   0  0  0  0  0  0  0  0  0  0  0  0
    3.3919  -12.9965   -4.7077 H   0  0  0  0  0  0  0  0  0  0  0  0
    1.3252  -14.2039   -5.3979 H   0  0  0  0  0  0  0  0  0  0  0  0
   -0.2187  -15.1195   -3.6762 H   0  0  0  0  0  0  0  0  0  0  0  0
    1.2282  -16.7011   -0.5914 H   0  0  0  0  0  0  0  0  0  0  0  0
    0.1533  -18.5365    1.3883 H   0  0  0  0  0  0  0  0  0  0  0  0
   -2.1196  -18.4242    2.7853 H   0  0  0  0  0  0  0  0  0  0  0  0
   -3.8000  -14.3820    1.0610 H   0  0  0  0  0  0  0  0  0  0  0  0
   -3.0046  -12.6826   -1.2358 H   0  0  0  0  0  0  0  0  0  0  0  0
   -4.5873  -12.6781   -0.3844 H   0  0  0  0  0  0  0  0  0  0  0  0
   -3.2508  -10.0866   -0.9305 H   0  0  0  0  0  0  0  0  0  0  0  0
   -2.5121   -8.2602    0.5513 H   0  0  0  0  0  0  0  0  0  0  0  0
   -2.0138  -10.9143    3.7669 H   0  0  0  0  0  0  0  0  0  0  0  0
   -2.7343  -12.8263    2.3880 H   0  0  0  0  0  0  0  0  0  0  0  0
    2.3542  -13.5846   -0.5589 H   0  0  0  0  0  0  0  0  0  0  0  0
    8.5036  -12.7480   -2.8071 H   0  0  0  0  0  0  0  0  0  0  0  0
  1  2  1  0
  2  3  2  0
  3  4  1  0
  4  5  2  0
  5  6  1  0
  6  7  1  0
  7  8  2  0
  7  9  1  0
  9 10  1  0
 10 11  2  0
 11 12  1  0
 12 13  2  0
 13 14  1  0
 14 15  1  0
 15 16  2  0
 16 17  1  0
 17 18  1  0
 18 19  2  0
 19 20  1  0
 20 21  2  0
 21 22  1  0
 22 23  1  0
 23 24  1  0
 24 25  1  0
 25 26  2  0
 26 27  1  0
 27 28  2  0
 28 29  1  0
 29 30  2  0
 22 31  2  0
 14 32  2  0
  5 33  1  0
 33 34  2  0
 34 35  1  0
 35 36  1  0
 35 37  1  0
 35 38  1  0
 34  2  1  0
 32 10  1  0
 31 15  1  0
 21 17  1  0
 30 25  1  0
  1 39  1  0
  1 40  1  0
  1 41  1  0
  3 42  1  0
  4 43  1  0
  6 44  1  0
  9 45  1  0
 11 46  1  0
 12 47  1  0
 13 48  1  0
 16 49  1  0
 18 50  1  0
 19 51  1  0
 23 52  1  0
 24 53  1  0
 24 54  1  0
 26 55  1  0
 27 56  1  0
 29 57  1  0
 30 58  1  0
 32 59  1  0
 33 60  1  0
M  END
>  <meeko>  (8) 
{"is_sidechain": [false], "free_energy": -8.677, "intermolecular_energy": -11.854, "internal_energy": -0.97}

$$$$
LIB_CXRYSQNWQCVBQV__M_PUB_ALL__e8__s20260927
     RDKit          3D

 60 64  0  0  0  0  0  0  0  0999 V2000
   13.5050  -11.6980   -2.2870 C   0  0  0  0  0  0  0  0  0  0  0  0
   12.0540  -12.1000   -2.3020 C   0  0  0  0  0  0  0  0  0  0  0  0
   11.4510  -12.4390   -3.5200 C   0  0  0  0  0  0  0  0  0  0  0  0
   10.1090  -12.8230   -3.5690 C   0  0  0  0  0  0  0  0  0  0  0  0
    9.3370  -12.8780   -2.4060 C   0  0  0  0  0  0  0  0  0  0  0  0
    7.9910  -13.2780   -2.5460 N   0  0  0  0  0  0  0  0  0  0  0  0
    6.8610  -12.6580   -2.0320 C   0  0  0  0  0  0  0  0  0  0  0  0
    6.8610  -11.5890   -1.4350 O   0  0  0  0  0  0  0  0  0  0  0  0
    5.7330  -13.4240   -2.2870 N   0  0  0  0  0  0  0  0  0  0  0  0
    4.3860  -13.0800   -2.0410 C   0  0  0  0  0  0  0  0  0  0  0  0
    3.8550  -12.0120   -2.7750 C   0  0  0  0  0  0  0  0  0  0  0  0
    2.5340  -11.6090   -2.5850 C   0  0  0  0  0  0  0  0  0  0  0  0
    1.7300  -12.2710   -1.6580 C   0  0  0  0  0  0  0  0  0  0  0  0
    2.2340  -13.3450   -0.9100 C   0  0  0  0  0  0  0  0  0  0  0  0
    1.3600  -14.0230    0.0800 C   0  0  0  0  0  0  0  0  0  0  0  0
    1.8250  -15.0840    0.7750 C   0  0  0  0  0  0  0  0  0  0  0  0
    0.9820  -15.6950    1.6770 N   0  0  0  0  0  0  0  0  0  0  0  0
    1.1480  -16.7610    2.5170 C   0  0  0  0  0  0  0  0  0  0  0  0
   -0.0600  -16.8930    3.1710 C   0  0  0  0  0  0  0  0  0  0  0  0
   -0.9610  -15.9390    2.7530 N   0  0  0  0  0  0  0  0  0  0  0  0
   -0.2930  -15.2410    1.8570 C   0  0  0  0  0  0  0  0  0  0  0  0
   -0.7550  -14.1040    1.0830 C   0  0  0  0  0  0  0  0  0  0  0  0
   -2.0340  -13.6290    1.2430 N   0  0  0  0  0  0  0  0  0  0  0  0
   -2.5690  -12.4980    0.5400 C   0  0  0  0  0  0  0  0  0  0  0  0
   -2.0720  -11.2260    1.1760 C   0  0  0  0  0  0  0  0  0  0  0  0
   -2.4530  -10.8800    2.4750 C   0  0  0  0  0  0  0  0  0  0  0  0
   -1.9490   -9.7120    3.0260 C   0  0  0  0  0  0  0  0  0  0  0  0
   -1.0990   -8.8850    2.3830 N   0  0  0  0  0  0  0  0  0  0  0  0
   -0.7290   -9.2450    1.1350 C   0  0  0  0  0  0  0  0  0  0  0  0
   -1.1790  -10.3900    0.4990 C   0  0  0  0  0  0  0  0  0  0  0  0
    0.0630  -13.5360    0.2250 N   0  0  0  0  0  0  0  0  0  0  0  0
    3.5750  -13.7260   -1.1030 C   0  0  0  0  0  0  0  0  0  0  0  0
    9.9360  -12.5520   -1.1880 C   0  0  0  0  0  0  0  0  0  0  0  0
   11.2910  -12.1650   -1.1160 C   0  0  0  0  0  0  0  0  0  0  0  0
   11.8920  -11.8210    0.2310 C   0  0  0  0  0  0  0  0  0  0  0  0
   12.8900  -12.6780    0.5900 F   0  0  0  0  0  0  0  0  0  0  0  0
   12.4390  -10.5750    0.2930 F   0  0  0  0  0  0  0  0  0  0  0  0
   10.9800  -11.8680    1.2420 F   0  0  0  0  0  0  0  0  0  0  0  0
   13.8484  -11.6029   -1.2463 H   0  0  0  0  0  0  0  0  0  0  0  0
   14.1031  -12.4643   -2.8019 H   0  0  0  0  0  0  0  0  0  0  0  0
   13.6235  -10.7332   -2.8019 H   0  0  0  0  0  0  0  0  0  0  0  0
   12.0407  -12.4024   -4.4479 H   0  0  0  0  0  0  0  0  0  0  0  0
    9.6542  -13.0854   -4.5356 H   0  0  0  0  0  0  0  0  0  0  0  0
    7.8300  -14.0730   -3.1450 H   0  0  0  0  0  0  0  0  0  0  0  0
    5.8920  -14.3650   -2.6100 H   0  0  0  0  0  0  0  0  0  0  0  0
    4.4855  -11.4868   -3.5075 H   0  0  0  0  0  0  0  0  0  0  0  0
    2.1261  -10.7689   -3.1663 H   0  0  0  0  0  0  0  0  0  0  0  0
    0.6889  -11.9474   -1.5117 H   0  0  0  0  0  0  0  0  0  0  0  0
    2.8510  -15.4508    0.6244 H   0  0  0  0  0  0  0  0  0  0  0  0
    2.0489  -17.3792    2.6439 H   0  0  0  0  0  0  0  0  0  0  0  0
   -0.2754  -17.6611    3.9284 H   0  0  0  0  0  0  0  0  0  0  0  0
   -2.6170  -14.1070    1.9230 H   0  0  0  0  0  0  0  0  0  0  0  0
   -2.2446  -12.5330   -0.5105 H   0  0  0  0  0  0  0  0  0  0  0  0
   -3.6677  -12.5249    0.5873 H   0  0  0  0  0  0  0  0  0  0  0  0
   -3.1386  -11.5211    3.0485 H   0  0  0  0  0  0  0  0  0  0  0  0
   -2.2602   -9.4441    4.0465 H   0  0  0  0  0  0  0  0  0  0  0  0
   -0.0301   -8.5913    0.5926 H   0  0  0  0  0  0  0  0  0  0  0  0
   -0.8407  -10.6367   -0.5182 H   0  0  0  0  0  0  0  0  0  0  0  0
    3.9934  -14.5483   -0.5040 H   0  0  0  0  0  0  0  0  0  0  0  0
    9.3392  -12.5978   -0.2651 H   0  0  0  0  0  0  0  0  0  0  0  0
  1  2  1  0
  2  3  2  0
  3  4  1  0
  4  5  2  0
  5  6  1  0
  6  7  1  0
  7  8  2  0
  7  9  1  0
  9 10  1  0
 10 11  2  0
 11 12  1  0
 12 13  2  0
 13 14  1  0
 14 15  1  0
 15 16  2  0
 16 17  1  0
 17 18  1  0
 18 19  2  0
 19 20  1  0
 20 21  2  0
 21 22  1  0
 22 23  1  0
 23 24  1  0
 24 25  1  0
 25 26  2  0
 26 27  1  0
 27 28  2  0
 28 29  1  0
 29 30  2  0
 22 31  2  0
 14 32  2  0
  5 33  1  0
 33 34  2  0
 34 35  1  0
 35 36  1  0
 35 37  1  0
 35 38  1  0
 34  2  1  0
 32 10  1  0
 31 15  1  0
 21 17  1  0
 30 25  1  0
  1 39  1  0
  1 40  1  0
  1 41  1  0
  3 42  1  0
  4 43  1  0
  6 44  1  0
  9 45  1  0
 11 46  1  0
 12 47  1  0
 13 48  1  0
 16 49  1  0
 18 50  1  0
 19 51  1  0
 23 52  1  0
 24 53  1  0
 24 54  1  0
 26 55  1  0
 27 56  1  0
 29 57  1  0
 30 58  1  0
 32 59  1  0
 33 60  1  0
M  END
>  <meeko>  (9) 
{"is_sidechain": [false], "free_energy": -8.507, "intermolecular_energy": -11.77, "internal_energy": -0.824}

$$$$
