LIB_KRKNYBCHXYNGOX__M_PUB_ALL__e8__s20260927
     RDKit          3D

 18 17  0  0  0  0  0  0  0  0999 V2000
   11.7290   -0.6550  -10.1510 O   0  0  0  0  0  0  0  0  0  0  0  0
   12.0820   -0.2090  -11.2930 C   0  0  0  0  0  0  0  0  0  0  0  0
   12.3240    1.0000  -11.5820 O   0  0  0  0  0  0  0  0  0  0  0  0
   12.3880   -1.2730  -12.3560 C   0  0  0  0  0  0  0  0  0  0  0  0
   11.4750   -2.4820  -12.6660 C   0  0  0  0  0  0  0  0  0  0  0  0
   10.9180   -2.9680  -11.4120 O   0  0  0  0  0  0  0  0  0  0  0  0
   10.3210   -2.1820  -13.6330 C   0  0  0  0  0  0  0  0  0  0  0  0
    8.9030   -2.5270  -13.1510 C   0  0  0  0  0  0  0  0  0  0  0  0
    8.6630   -3.7440  -12.8820 O   0  0  0  0  0  0  0  0  0  0  0  0
    8.1240   -1.5350  -12.9720 O   0  0  0  0  0  0  0  0  0  0  0  0
   12.4650   -3.5750  -13.2930 C   0  0  0  0  0  0  0  0  0  0  0  0
   12.0750   -4.7890  -13.2620 O   0  0  0  0  0  0  0  0  0  0  0  0
   13.5930   -3.1550  -13.7120 O   0  0  0  0  0  0  0  0  0  0  0  0
   12.4871   -0.7250  -13.3046 H   0  0  0  0  0  0  0  0  0  0  0  0
   13.2515   -1.7786  -11.8991 H   0  0  0  0  0  0  0  0  0  0  0  0
   11.2510   -2.2850  -10.7810 H   0  0  0  0  0  0  0  0  0  0  0  0
   10.3440   -1.1047  -13.8540 H   0  0  0  0  0  0  0  0  0  0  0  0
   10.4962   -2.8355  -14.5003 H   0  0  0  0  0  0  0  0  0  0  0  0
  1  2  2  0
  2  3  1  0
  2  4  1  0
  4  5  1  0
  5  6  1  0
  5  7  1  0
  7  8  1  0
  8  9  2  0
  8 10  1  0
  5 11  1  0
 11 12  2  0
 11 13  1  0
  4 14  1  0
  4 15  1  0
  6 16  1  0
  7 17  1  0
  7 18  1  0
M  CHG  3   3  -1  10  -1  13  -1
M  END
>  <meeko>  (1) 
{"is_sidechain": [false], "free_energy": -5.815, "intermolecular_energy": -7.685, "internal_energy": -0.661}

$$$$
LIB_KRKNYBCHXYNGOX__M_PUB_ALL__e8__s20260927
     RDKit          3D

 18 17  0  0  0  0  0  0  0  0999 V2000
   13.0400   -5.8620  -12.8360 O   0  0  0  0  0  0  0  0  0  0  0  0
   11.9610   -5.2070  -12.6500 C   0  0  0  0  0  0  0  0  0  0  0  0
   10.9500   -5.6010  -11.9970 O   0  0  0  0  0  0  0  0  0  0  0  0
   11.9750   -3.7510  -13.1370 C   0  0  0  0  0  0  0  0  0  0  0  0
   11.4550   -2.5520  -12.3120 C   0  0  0  0  0  0  0  0  0  0  0  0
   10.7730   -3.0690  -11.1340 O   0  0  0  0  0  0  0  0  0  0  0  0
   12.5410   -1.5670  -11.8590 C   0  0  0  0  0  0  0  0  0  0  0  0
   12.0680   -0.2910  -11.1450 C   0  0  0  0  0  0  0  0  0  0  0  0
   11.5660   -0.4270   -9.9860 O   0  0  0  0  0  0  0  0  0  0  0  0
   12.3170    0.8040  -11.7470 O   0  0  0  0  0  0  0  0  0  0  0  0
   10.4080   -1.8270  -13.2850 C   0  0  0  0  0  0  0  0  0  0  0  0
   10.8090   -1.5630  -14.4670 O   0  0  0  0  0  0  0  0  0  0  0  0
    9.2810   -1.5100  -12.7830 O   0  0  0  0  0  0  0  0  0  0  0  0
   13.0276   -3.5230  -13.3608 H   0  0  0  0  0  0  0  0  0  0  0  0
   11.2205   -3.7938  -13.9363 H   0  0  0  0  0  0  0  0  0  0  0  0
   11.3960   -3.7820  -10.8540 H   0  0  0  0  0  0  0  0  0  0  0  0
   13.2107   -2.1039  -11.1711 H   0  0  0  0  0  0  0  0  0  0  0  0
   13.0160   -1.2169  -12.7873 H   0  0  0  0  0  0  0  0  0  0  0  0
  1  2  2  0
  2  3  1  0
  2  4  1  0
  4  5  1  0
  5  6  1  0
  5  7  1  0
  7  8  1  0
  8  9  2  0
  8 10  1  0
  5 11  1  0
 11 12  2  0
 11 13  1  0
  4 14  1  0
  4 15  1  0
  6 16  1  0
  7 17  1  0
  7 18  1  0
M  CHG  3   3  -1  10  -1  13  -1
M  END
>  <meeko>  (2) 
{"is_sidechain": [false], "free_energy": -5.441, "intermolecular_energy": -7.197, "internal_energy": -0.655}

$$$$
LIB_KRKNYBCHXYNGOX__M_PUB_ALL__e8__s20260927
     RDKit          3D

 18 17  0  0  0  0  0  0  0  0999 V2000
   12.6840   -9.6180    0.4760 O   0  0  0  0  0  0  0  0  0  0  0  0
   12.1180  -10.7560    0.5770 C   0  0  0  0  0  0  0  0  0  0  0  0
   11.0430  -11.0050    1.2010 O   0  0  0  0  0  0  0  0  0  0  0  0
   12.7270  -11.8800   -0.2730 C   0  0  0  0  0  0  0  0  0  0  0  0
   11.9670  -12.6410   -1.3840 C   0  0  0  0  0  0  0  0  0  0  0  0
   10.8630  -11.8070   -1.8370 O   0  0  0  0  0  0  0  0  0  0  0  0
   12.8230  -13.0240   -2.5990 C   0  0  0  0  0  0  0  0  0  0  0  0
   13.6630  -11.9070   -3.2370 C   0  0  0  0  0  0  0  0  0  0  0  0
   14.8980  -12.1410   -3.4180 O   0  0  0  0  0  0  0  0  0  0  0  0
   13.0160  -10.8780   -3.6190 O   0  0  0  0  0  0  0  0  0  0  0  0
   11.4080  -13.9530   -0.6530 C   0  0  0  0  0  0  0  0  0  0  0  0
   12.1890  -14.9600   -0.6020 O   0  0  0  0  0  0  0  0  0  0  0  0
   10.2030  -13.9100   -0.2400 O   0  0  0  0  0  0  0  0  0  0  0  0
   13.6061  -11.4375   -0.7643 H   0  0  0  0  0  0  0  0  0  0  0  0
   12.8369  -12.6727    0.4817 H   0  0  0  0  0  0  0  0  0  0  0  0
   11.1510  -10.9200   -1.5120 H   0  0  0  0  0  0  0  0  0  0  0  0
   13.5136  -13.8192   -2.2816 H   0  0  0  0  0  0  0  0  0  0  0  0
   12.1025  -13.3203   -3.3756 H   0  0  0  0  0  0  0  0  0  0  0  0
  1  2  2  0
  2  3  1  0
  2  4  1  0
  4  5  1  0
  5  6  1  0
  5  7  1  0
  7  8  1  0
  8  9  2  0
  8 10  1  0
  5 11  1  0
 11 12  2  0
 11 13  1  0
  4 14  1  0
  4 15  1  0
  6 16  1  0
  7 17  1  0
  7 18  1  0
M  CHG  3   3  -1  10  -1  13  -1
M  END
>  <meeko>  (3) 
{"is_sidechain": [false], "free_energy": -5.01, "intermolecular_energy": -6.594, "internal_energy": -0.688}

$$$$
LIB_KRKNYBCHXYNGOX__M_PUB_ALL__e8__s20260927
     RDKit          3D

 18 17  0  0  0  0  0  0  0  0999 V2000
   12.7230  -11.3070   -3.7110 O   0  0  0  0  0  0  0  0  0  0  0  0
   13.6430  -11.5740   -2.8690 C   0  0  0  0  0  0  0  0  0  0  0  0
   14.8440  -11.8720   -3.1410 O   0  0  0  0  0  0  0  0  0  0  0  0
   13.2780  -11.3530   -1.3940 C   0  0  0  0  0  0  0  0  0  0  0  0
   12.0060  -11.9150   -0.7180 C   0  0  0  0  0  0  0  0  0  0  0  0
   10.8910  -11.7580   -1.6410 O   0  0  0  0  0  0  0  0  0  0  0  0
   12.0990  -13.3900   -0.3050 C   0  0  0  0  0  0  0  0  0  0  0  0
   11.1130  -14.3620   -0.9730 C   0  0  0  0  0  0  0  0  0  0  0  0
    9.9290  -14.3910   -0.5160 O   0  0  0  0  0  0  0  0  0  0  0  0
   11.5540  -14.9810   -1.9950 O   0  0  0  0  0  0  0  0  0  0  0  0
   11.7970  -10.9820    0.5680 C   0  0  0  0  0  0  0  0  0  0  0  0
   10.9400  -11.3730    1.4280 O   0  0  0  0  0  0  0  0  0  0  0  0
   12.4530   -9.8910    0.5990 O   0  0  0  0  0  0  0  0  0  0  0  0
   14.1234  -11.7542   -0.8157 H   0  0  0  0  0  0  0  0  0  0  0  0
   13.0514  -10.2766   -1.3968 H   0  0  0  0  0  0  0  0  0  0  0  0
   10.1400  -11.6360   -1.0100 H   0  0  0  0  0  0  0  0  0  0  0  0
   13.1167  -13.7368   -0.5375 H   0  0  0  0  0  0  0  0  0  0  0  0
   11.8384  -13.4059    0.7636 H   0  0  0  0  0  0  0  0  0  0  0  0
  1  2  2  0
  2  3  1  0
  2  4  1  0
  4  5  1  0
  5  6  1  0
  5  7  1  0
  7  8  1  0
  8  9  2  0
  8 10  1  0
  5 11  1  0
 11 12  2  0
 11 13  1  0
  4 14  1  0
  4 15  1  0
  6 16  1  0
  7 17  1  0
  7 18  1  0
M  CHG  3   3  -1  10  -1  13  -1
M  END
>  <meeko>  (4) 
{"is_sidechain": [false], "free_energy": -4.918, "intermolecular_energy": -6.391, "internal_energy": -0.769}

$$$$
LIB_KRKNYBCHXYNGOX__M_PUB_ALL__e8__s20260927
     RDKit          3D

 18 17  0  0  0  0  0  0  0  0999 V2000
    9.8100  -13.9190   -0.3390 O   0  0  0  0  0  0  0  0  0  0  0  0
   10.6810  -14.5100   -1.0600 C   0  0  0  0  0  0  0  0  0  0  0  0
   10.4940  -15.5540   -1.7530 O   0  0  0  0  0  0  0  0  0  0  0  0
   12.0240  -13.7820   -1.2100 C   0  0  0  0  0  0  0  0  0  0  0  0
   12.1680  -12.2920   -1.5970 C   0  0  0  0  0  0  0  0  0  0  0  0
   10.8350  -11.7200   -1.7170 O   0  0  0  0  0  0  0  0  0  0  0  0
   12.9780  -11.4480   -0.6030 C   0  0  0  0  0  0  0  0  0  0  0  0
   12.1810  -10.6460    0.4380 C   0  0  0  0  0  0  0  0  0  0  0  0
   11.2570  -11.2570    1.0580 O   0  0  0  0  0  0  0  0  0  0  0  0
   12.5910   -9.4590    0.6530 O   0  0  0  0  0  0  0  0  0  0  0  0
   12.8900  -12.3230   -3.0270 C   0  0  0  0  0  0  0  0  0  0  0  0
   13.2810  -13.4610   -3.4500 O   0  0  0  0  0  0  0  0  0  0  0  0
   13.0770  -11.2010   -3.6010 O   0  0  0  0  0  0  0  0  0  0  0  0
   12.5284  -13.8864   -0.2381 H   0  0  0  0  0  0  0  0  0  0  0  0
   12.4229  -14.2689   -2.1121 H   0  0  0  0  0  0  0  0  0  0  0  0
   10.5150  -11.7910   -0.7850 H   0  0  0  0  0  0  0  0  0  0  0  0
   13.6473  -12.1289   -0.0568 H   0  0  0  0  0  0  0  0  0  0  0  0
   13.4892  -10.6924   -1.2177 H   0  0  0  0  0  0  0  0  0  0  0  0
  1  2  2  0
  2  3  1  0
  2  4  1  0
  4  5  1  0
  5  6  1  0
  5  7  1  0
  7  8  1  0
  8  9  2  0
  8 10  1  0
  5 11  1  0
 11 12  2  0
 11 13  1  0
  4 14  1  0
  4 15  1  0
  6 16  1  0
  7 17  1  0
  7 18  1  0
M  CHG  3   3  -1  10  -1  13  -1
M  END
>  <meeko>  (5) 
{"is_sidechain": [false], "free_energy": -4.75, "intermolecular_energy": -6.217, "internal_energy": -0.722}

$$$$
LIB_KRKNYBCHXYNGOX__M_PUB_ALL__e8__s20260927
     RDKit          3D

 18 17  0  0  0  0  0  0  0  0999 V2000
   14.6500  -12.5620   -3.5750 O   0  0  0  0  0  0  0  0  0  0  0  0
   13.4820  -12.1500   -3.2700 C   0  0  0  0  0  0  0  0  0  0  0  0
   12.9750  -11.0330   -3.5880 O   0  0  0  0  0  0  0  0  0  0  0  0
   12.5700  -13.1820   -2.5910 C   0  0  0  0  0  0  0  0  0  0  0  0
   11.5250  -12.8390   -1.5040 C   0  0  0  0  0  0  0  0  0  0  0  0
   11.6790  -11.4350   -1.1490 O   0  0  0  0  0  0  0  0  0  0  0  0
   10.0670  -13.0840   -1.9170 C   0  0  0  0  0  0  0  0  0  0  0  0
    9.6680  -12.6640   -3.3400 C   0  0  0  0  0  0  0  0  0  0  0  0
    9.2920  -13.5820   -4.1320 O   0  0  0  0  0  0  0  0  0  0  0  0
    9.6570  -11.4100   -3.5630 O   0  0  0  0  0  0  0  0  0  0  0  0
   11.9240  -13.7720   -0.2640 C   0  0  0  0  0  0  0  0  0  0  0  0
   12.2980  -14.9600   -0.5360 O   0  0  0  0  0  0  0  0  0  0  0  0
   11.7710  -13.2760    0.9000 O   0  0  0  0  0  0  0  0  0  0  0  0
   12.0055  -13.6604   -3.4050 H   0  0  0  0  0  0  0  0  0  0  0  0
   13.3043  -13.7485   -1.9995 H   0  0  0  0  0  0  0  0  0  0  0  0
   11.4060  -11.4500   -0.2000 H   0  0  0  0  0  0  0  0  0  0  0  0
    9.8712  -14.1622   -1.8215 H   0  0  0  0  0  0  0  0  0  0  0  0
    9.4689  -12.4448   -1.2509 H   0  0  0  0  0  0  0  0  0  0  0  0
  1  2  2  0
  2  3  1  0
  2  4  1  0
  4  5  1  0
  5  6  1  0
  5  7  1  0
  7  8  1  0
  8  9  2  0
  8 10  1  0
  5 11  1  0
 11 12  2  0
 11 13  1  0
  4 14  1  0
  4 15  1  0
  6 16  1  0
  7 17  1  0
  7 18  1  0
M  CHG  3   3  -1  10  -1  13  -1
M  END
>  <meeko>  (6) 
{"is_sidechain": [false], "free_energy": -4.624, "intermolecular_energy": -6.063, "internal_energy": -0.708}

$$$$
LIB_KRKNYBCHXYNGOX__M_PUB_ALL__e8__s20260927
     RDKit          3D

 18 17  0  0  0  0  0  0  0  0999 V2000
   14.5680  -12.5370   -3.5460 O   0  0  0  0  0  0  0  0  0  0  0  0
   13.4000  -12.1200   -3.2500 C   0  0  0  0  0  0  0  0  0  0  0  0
   12.8990  -11.0020   -3.5740 O   0  0  0  0  0  0  0  0  0  0  0  0
   12.4790  -13.1470   -2.5760 C   0  0  0  0  0  0  0  0  0  0  0  0
   11.4970  -12.8150   -1.4290 C   0  0  0  0  0  0  0  0  0  0  0  0
   11.6890  -11.4230   -1.0510 O   0  0  0  0  0  0  0  0  0  0  0  0
   10.0160  -13.0310   -1.7710 C   0  0  0  0  0  0  0  0  0  0  0  0
    9.0340  -13.1100   -0.5920 C   0  0  0  0  0  0  0  0  0  0  0  0
    8.7800  -12.0290    0.0230 O   0  0  0  0  0  0  0  0  0  0  0  0
    8.4880  -14.2450   -0.4030 O   0  0  0  0  0  0  0  0  0  0  0  0
   11.9450  -13.7820   -0.2320 C   0  0  0  0  0  0  0  0  0  0  0  0
   12.1940  -14.9960   -0.5360 O   0  0  0  0  0  0  0  0  0  0  0  0
   11.9510  -13.2810    0.9390 O   0  0  0  0  0  0  0  0  0  0  0  0
   11.8612  -13.5667   -3.3836 H   0  0  0  0  0  0  0  0  0  0  0  0
   13.2157  -13.7667   -2.0438 H   0  0  0  0  0  0  0  0  0  0  0  0
   10.7570  -11.0970   -1.0500 H   0  0  0  0  0  0  0  0  0  0  0  0
    9.6981  -12.1961   -2.4127 H   0  0  0  0  0  0  0  0  0  0  0  0
    9.9734  -14.0221   -2.2462 H   0  0  0  0  0  0  0  0  0  0  0  0
  1  2  2  0
  2  3  1  0
  2  4  1  0
  4  5  1  0
  5  6  1  0
  5  7  1  0
  7  8  1  0
  8  9  2  0
  8 10  1  0
  5 11  1  0
 11 12  2  0
 11 13  1  0
  4 14  1  0
  4 15  1  0
  6 16  1  0
  7 17  1  0
  7 18  1  0
M  CHG  3   3  -1  10  -1  13  -1
M  END
>  <meeko>  (7) 
{"is_sidechain": [false], "free_energy": -4.583, "intermolecular_energy": -6.081, "internal_energy": -0.636}

$$$$
LIB_KRKNYBCHXYNGOX__M_PUB_ALL__e8__s20260927
     RDKit          3D

 18 17  0  0  0  0  0  0  0  0999 V2000
    9.0730  -14.2520   -0.4690 O   0  0  0  0  0  0  0  0  0  0  0  0
   10.1920  -14.0880   -1.0580 C   0  0  0  0  0  0  0  0  0  0  0  0
   10.8140  -14.9560   -1.7400 O   0  0  0  0  0  0  0  0  0  0  0  0
   10.7380  -12.6530   -1.0600 C   0  0  0  0  0  0  0  0  0  0  0  0
   12.0380  -12.2150   -0.3460 C   0  0  0  0  0  0  0  0  0  0  0  0
   12.7230  -13.4090    0.1280 O   0  0  0  0  0  0  0  0  0  0  0  0
   13.0070  -11.4060   -1.2190 C   0  0  0  0  0  0  0  0  0  0  0  0
   13.1980  -11.8810   -2.6680 C   0  0  0  0  0  0  0  0  0  0  0  0
   13.4910  -13.1030   -2.8440 O   0  0  0  0  0  0  0  0  0  0  0  0
   12.9440  -11.0170   -3.5700 O   0  0  0  0  0  0  0  0  0  0  0  0
   11.5310  -11.3370    0.8950 C   0  0  0  0  0  0  0  0  0  0  0  0
   10.7220  -11.8990    1.7050 O   0  0  0  0  0  0  0  0  0  0  0  0
   11.9220  -10.1250    0.9390 O   0  0  0  0  0  0  0  0  0  0  0  0
   10.8779  -12.3901   -2.1189 H   0  0  0  0  0  0  0  0  0  0  0  0
    9.9825  -12.1441   -0.4434 H   0  0  0  0  0  0  0  0  0  0  0  0
   11.9840  -14.0630    0.1300 H   0  0  0  0  0  0  0  0  0  0  0  0
   12.6372  -10.3706   -1.2545 H   0  0  0  0  0  0  0  0  0  0  0  0
   13.9918  -11.5287   -0.7444 H   0  0  0  0  0  0  0  0  0  0  0  0
  1  2  2  0
  2  3  1  0
  2  4  1  0
  4  5  1  0
  5  6  1  0
  5  7  1  0
  7  8  1  0
  8  9  2  0
  8 10  1  0
  5 11  1  0
 11 12  2  0
 11 13  1  0
  4 14  1  0
  4 15  1  0
  6 16  1  0
  7 17  1  0
  7 18  1  0
M  CHG  3   3  -1  10  -1  13  -1
M  END
>  <meeko>  (8) 
{"is_sidechain": [false], "free_energy": -4.576, "intermolecular_energy": -6.017, "internal_energy": -0.692}

$$$$
LIB_KRKNYBCHXYNGOX__M_PUB_ALL__e8__s20260927
     RDKit          3D

 18 17  0  0  0  0  0  0  0  0999 V2000
   11.2710  -10.9390    1.1020 O   0  0  0  0  0  0  0  0  0  0  0  0
   11.8270  -11.9750    0.6080 C   0  0  0  0  0  0  0  0  0  0  0  0
   11.7530  -13.1540    1.0660 O   0  0  0  0  0  0  0  0  0  0  0  0
   12.5100  -11.7790   -0.7520 C   0  0  0  0  0  0  0  0  0  0  0  0
   12.2980  -12.7000   -1.9750 C   0  0  0  0  0  0  0  0  0  0  0  0
   12.6950  -14.0510   -1.6040 O   0  0  0  0  0  0  0  0  0  0  0  0
   10.8580  -12.7400   -2.5050 C   0  0  0  0  0  0  0  0  0  0  0  0
   10.0740  -14.0440   -2.2920 C   0  0  0  0  0  0  0  0  0  0  0  0
   10.1000  -14.8960   -3.2330 O   0  0  0  0  0  0  0  0  0  0  0  0
    9.5490  -14.1910   -1.1410 O   0  0  0  0  0  0  0  0  0  0  0  0
   13.2920  -12.1160   -3.0880 C   0  0  0  0  0  0  0  0  0  0  0  0
   13.0990  -10.9100   -3.4560 O   0  0  0  0  0  0  0  0  0  0  0  0
   14.1540  -12.9220   -3.5680 O   0  0  0  0  0  0  0  0  0  0  0  0
   12.2216  -10.7714   -1.0861 H   0  0  0  0  0  0  0  0  0  0  0  0
   13.5527  -12.0165   -0.4943 H   0  0  0  0  0  0  0  0  0  0  0  0
   12.3530  -14.5660   -2.3740 H   0  0  0  0  0  0  0  0  0  0  0  0
   10.2993  -11.9319   -2.0101 H   0  0  0  0  0  0  0  0  0  0  0  0
   10.9515  -12.6371   -3.5962 H   0  0  0  0  0  0  0  0  0  0  0  0
  1  2  2  0
  2  3  1  0
  2  4  1  0
  4  5  1  0
  5  6  1  0
  5  7  1  0
  7  8  1  0
  8  9  2  0
  8 10  1  0
  5 11  1  0
 11 12  2  0
 11 13  1  0
  4 14  1  0
  4 15  1  0
  6 16  1  0
  7 17  1  0
  7 18  1  0
M  CHG  3   3  -1  10  -1  13  -1
M  END
>  <meeko>  (9) 
{"is_sidechain": [false], "free_energy": -4.417, "intermolecular_energy": -5.65, "internal_energy": -0.848}

$$$$
