LIB_LVALRWDAOTYBNW__M_PUB_ALL__e8__s20260927
     RDKit          3D

 47 49  0  0  0  0  0  0  0  0999 V2000
    3.0090  -12.3360   -1.7470 C   0  0  0  0  0  0  0  0  0  0  0  0
    2.2220  -12.5250   -0.5330 N   0  0  0  0  0  0  0  0  0  0  0  0
    2.2750  -13.6440    0.3260 C   0  0  0  0  0  0  0  0  0  0  0  0
    3.1790  -14.8170    0.1470 C   0  0  0  0  0  0  0  0  0  0  0  0
    4.1920  -14.7650    1.1510 O   0  0  0  0  0  0  0  0  0  0  0  0
    5.3820  -14.1810    0.8110 C   0  0  0  0  0  0  0  0  0  0  0  0
    6.1260  -14.4360   -0.3410 C   0  0  0  0  0  0  0  0  0  0  0  0
    7.3360  -13.7620   -0.5630 C   0  0  0  0  0  0  0  0  0  0  0  0
    7.8030  -12.8300    0.3680 C   0  0  0  0  0  0  0  0  0  0  0  0
    9.0800  -12.1340    0.0990 C   0  0  0  0  0  0  0  0  0  0  0  0
   10.1050  -12.2250    0.8920 N   0  0  0  0  0  0  0  0  0  0  0  0
   11.2020  -11.5130    0.4860 N   0  0  0  0  0  0  0  0  0  0  0  0
   12.3330  -12.1980    0.1420 C   0  0  0  0  0  0  0  0  0  0  0  0
   13.4300  -11.5460   -0.2610 N   0  0  0  0  0  0  0  0  0  0  0  0
   12.3500  -13.5320    0.2060 N   0  0  0  0  0  0  0  0  0  0  0  0
    7.0650  -12.5740    1.5240 C   0  0  0  0  0  0  0  0  0  0  0  0
    5.8600  -13.2510    1.7400 C   0  0  0  0  0  0  0  0  0  0  0  0
    1.3390  -13.3980    1.3100 C   0  0  0  0  0  0  0  0  0  0  0  0
    0.7500  -12.1840    1.0320 N   0  0  0  0  0  0  0  0  0  0  0  0
   -0.2480  -11.5480    1.7540 C   0  0  0  0  0  0  0  0  0  0  0  0
   -0.7140  -10.3610    1.3090 C   0  0  0  0  0  0  0  0  0  0  0  0
   -1.7960   -9.6330    2.0580 C   0  0  0  0  0  0  0  0  0  0  0  0
   -1.2890   -8.7390    2.9420 F   0  0  0  0  0  0  0  0  0  0  0  0
   -2.5710  -10.4940    2.7600 F   0  0  0  0  0  0  0  0  0  0  0  0
   -2.6050   -8.9510    1.2150 F   0  0  0  0  0  0  0  0  0  0  0  0
   -0.2000   -9.7230    0.0870 C   0  0  0  0  0  0  0  0  0  0  0  0
    0.7680  -10.3130   -0.6360 C   0  0  0  0  0  0  0  0  0  0  0  0
    1.2850  -11.6770   -0.0920 C   0  0  0  0  0  0  0  0  0  0  0  0
    4.0458  -12.0870   -1.4768 H   0  0  0  0  0  0  0  0  0  0  0  0
    2.9970  -13.2626   -2.3397 H   0  0  0  0  0  0  0  0  0  0  0  0
    2.5775  -11.5159   -2.3397 H   0  0  0  0  0  0  0  0  0  0  0  0
    2.6029  -15.7485    0.2490 H   0  0  0  0  0  0  0  0  0  0  0  0
    3.6372  -14.7908   -0.8527 H   0  0  0  0  0  0  0  0  0  0  0  0
    5.7628  -15.1678   -1.0776 H   0  0  0  0  0  0  0  0  0  0  0  0
    7.9192  -13.9676   -1.4727 H   0  0  0  0  0  0  0  0  0  0  0  0
    9.1651  -11.5158   -0.8069 H   0  0  0  0  0  0  0  0  0  0  0  0
   11.2170  -10.4990    0.4310 H   0  0  0  0  0  0  0  0  0  0  0  0
   14.2700  -12.0510   -0.5170 H   0  0  0  0  0  0  0  0  0  0  0  0
   13.4640  -10.5380   -0.3250 H   0  0  0  0  0  0  0  0  0  0  0  0
   13.1520  -14.0930   -0.0340 H   0  0  0  0  0  0  0  0  0  0  0  0
   11.4970  -13.9840    0.5170 H   0  0  0  0  0  0  0  0  0  0  0  0
    7.4287  -11.8436    2.2617 H   0  0  0  0  0  0  0  0  0  0  0  0
    5.2805  -13.0492    2.6529 H   0  0  0  0  0  0  0  0  0  0  0  0
    1.1055  -14.0530    2.1623 H   0  0  0  0  0  0  0  0  0  0  0  0
   -0.6524  -12.0011    2.6712 H   0  0  0  0  0  0  0  0  0  0  0  0
   -0.6109   -8.7557   -0.2377 H   0  0  0  0  0  0  0  0  0  0  0  0
    1.1696   -9.8602   -1.5545 H   0  0  0  0  0  0  0  0  0  0  0  0
  1  2  1  0
  2  3  1  0
  3  4  1  0
  4  5  1  0
  5  6  1  0
  6  7  2  0
  7  8  1  0
  8  9  2  0
  9 10  1  0
 10 11  2  0
 11 12  1  0
 12 13  2  0
 13 14  1  0
 13 15  1  0
  9 16  1  0
 16 17  2  0
  3 18  2  0
 18 19  1  0
 19 20  1  0
 20 21  2  0
 21 22  1  0
 22 23  1  0
 22 24  1  0
 22 25  1  0
 21 26  1  0
 26 27  2  0
 27 28  1  0
 28  2  2  0
 17  6  1  0
 28 19  1  0
  1 29  1  0
  1 30  1  0
  1 31  1  0
  4 32  1  0
  4 33  1  0
  7 34  1  0
  8 35  1  0
 10 36  1  0
 12 37  1  0
 14 38  1  0
 14 39  1  0
 15 40  1  0
 15 41  1  0
 16 42  1  0
 17 43  1  0
 18 44  1  0
 20 45  1  0
 26 46  1  0
 27 47  1  0
M  CHG  2   2   1  12   1
M  END
>  <meeko>  (1) 
{"is_sidechain": [false], "free_energy": -7.652, "intermolecular_energy": -10.336, "internal_energy": -0.765}

$$$$
LIB_LVALRWDAOTYBNW__M_PUB_ALL__e8__s20260927
     RDKit          3D

 47 49  0  0  0  0  0  0  0  0999 V2000
    2.3010  -10.7720   -2.5930 C   0  0  0  0  0  0  0  0  0  0  0  0
    2.1140  -11.3770   -1.2790 N   0  0  0  0  0  0  0  0  0  0  0  0
    2.9760  -12.3120   -0.6650 C   0  0  0  0  0  0  0  0  0  0  0  0
    4.2500  -12.8160   -1.2530 C   0  0  0  0  0  0  0  0  0  0  0  0
    5.3350  -12.0960   -0.6680 O   0  0  0  0  0  0  0  0  0  0  0  0
    6.5360  -12.1330   -1.3220 C   0  0  0  0  0  0  0  0  0  0  0  0
    6.8480  -11.4730   -2.5120 C   0  0  0  0  0  0  0  0  0  0  0  0
    8.1260  -11.6010   -3.0750 C   0  0  0  0  0  0  0  0  0  0  0  0
    9.0960  -12.3890   -2.4480 C   0  0  0  0  0  0  0  0  0  0  0  0
   10.4340  -12.4970   -3.0670 C   0  0  0  0  0  0  0  0  0  0  0  0
   11.4580  -11.8200   -2.6400 N   0  0  0  0  0  0  0  0  0  0  0  0
   12.6160  -12.0450   -3.3330 N   0  0  0  0  0  0  0  0  0  0  0  0
   13.8080  -11.8170   -2.7030 C   0  0  0  0  0  0  0  0  0  0  0  0
   14.9670  -12.0230   -3.3390 N   0  0  0  0  0  0  0  0  0  0  0  0
   13.8210  -11.3850   -1.4400 N   0  0  0  0  0  0  0  0  0  0  0  0
    8.7880  -13.0540   -1.2610 C   0  0  0  0  0  0  0  0  0  0  0  0
    7.5110  -12.9240   -0.7050 C   0  0  0  0  0  0  0  0  0  0  0  0
    2.3800  -12.6250    0.5410 C   0  0  0  0  0  0  0  0  0  0  0  0
    1.2060  -11.9080    0.6250 N   0  0  0  0  0  0  0  0  0  0  0  0
    0.2860  -11.9190    1.6620 C   0  0  0  0  0  0  0  0  0  0  0  0
   -0.8220  -11.1560    1.5530 C   0  0  0  0  0  0  0  0  0  0  0  0
   -1.8490  -11.1360    2.6520 C   0  0  0  0  0  0  0  0  0  0  0  0
   -2.9900  -11.7730    2.2920 F   0  0  0  0  0  0  0  0  0  0  0  0
   -2.1860   -9.8680    2.9860 F   0  0  0  0  0  0  0  0  0  0  0  0
   -1.3850  -11.7420    3.7700 F   0  0  0  0  0  0  0  0  0  0  0  0
   -1.0860  -10.3180    0.3730 C   0  0  0  0  0  0  0  0  0  0  0  0
   -0.2140  -10.2840   -0.6490 C   0  0  0  0  0  0  0  0  0  0  0  0
    1.0540  -11.1710   -0.4880 C   0  0  0  0  0  0  0  0  0  0  0  0
    2.6239   -9.7273   -2.4731 H   0  0  0  0  0  0  0  0  0  0  0  0
    3.0682  -11.3314   -3.1484 H   0  0  0  0  0  0  0  0  0  0  0  0
    1.3520  -10.8010   -3.1484 H   0  0  0  0  0  0  0  0  0  0  0  0
    4.3585  -13.8894   -1.0386 H   0  0  0  0  0  0  0  0  0  0  0  0
    4.2454  -12.6704   -2.3433 H   0  0  0  0  0  0  0  0  0  0  0  0
    6.0893  -10.8509   -3.0094 H   0  0  0  0  0  0  0  0  0  0  0  0
    8.3662  -11.0796   -4.0133 H   0  0  0  0  0  0  0  0  0  0  0  0
   10.5681  -13.1763   -3.9217 H   0  0  0  0  0  0  0  0  0  0  0  0
   12.6350  -12.3710   -4.2950 H   0  0  0  0  0  0  0  0  0  0  0  0
   15.8510  -11.8540   -2.8750 H   0  0  0  0  0  0  0  0  0  0  0  0
   15.0050  -12.3490   -4.2950 H   0  0  0  0  0  0  0  0  0  0  0  0
   14.6660  -11.1980   -0.9210 H   0  0  0  0  0  0  0  0  0  0  0  0
   12.9200  -11.2420   -0.9970 H   0  0  0  0  0  0  0  0  0  0  0  0
    9.5459  -13.6778   -0.7645 H   0  0  0  0  0  0  0  0  0  0  0  0
    7.2702  -13.4509    0.2301 H   0  0  0  0  0  0  0  0  0  0  0  0
    2.7716  -13.3208    1.2977 H   0  0  0  0  0  0  0  0  0  0  0  0
    0.4556  -12.5373    2.5559 H   0  0  0  0  0  0  0  0  0  0  0  0
   -2.0045   -9.7144    0.3269 H   0  0  0  0  0  0  0  0  0  0  0  0
   -0.3860   -9.6675   -1.5436 H   0  0  0  0  0  0  0  0  0  0  0  0
  1  2  1  0
  2  3  1  0
  3  4  1  0
  4  5  1  0
  5  6  1  0
  6  7  2  0
  7  8  1  0
  8  9  2  0
  9 10  1  0
 10 11  2  0
 11 12  1  0
 12 13  2  0
 13 14  1  0
 13 15  1  0
  9 16  1  0
 16 17  2  0
  3 18  2  0
 18 19  1  0
 19 20  1  0
 20 21  2  0
 21 22  1  0
 22 23  1  0
 22 24  1  0
 22 25  1  0
 21 26  1  0
 26 27  2  0
 27 28  1  0
 28  2  2  0
 17  6  1  0
 28 19  1  0
  1 29  1  0
  1 30  1  0
  1 31  1  0
  4 32  1  0
  4 33  1  0
  7 34  1  0
  8 35  1  0
 10 36  1  0
 12 37  1  0
 14 38  1  0
 14 39  1  0
 15 40  1  0
 15 41  1  0
 16 42  1  0
 17 43  1  0
 18 44  1  0
 20 45  1  0
 26 46  1  0
 27 47  1  0
M  CHG  2   2   1  12   1
M  END
>  <meeko>  (2) 
{"is_sidechain": [false], "free_energy": -7.537, "intermolecular_energy": -10.399, "internal_energy": -0.547}

$$$$
LIB_LVALRWDAOTYBNW__M_PUB_ALL__e8__s20260927
     RDKit          3D

 47 49  0  0  0  0  0  0  0  0999 V2000
   14.7910  -21.9290   -5.5590 C   0  0  0  0  0  0  0  0  0  0  0  0
   15.0270  -21.8240   -4.1230 N   0  0  0  0  0  0  0  0  0  0  0  0
   14.3430  -20.9730   -3.2280 C   0  0  0  0  0  0  0  0  0  0  0  0
   13.2310  -20.0530   -3.6040 C   0  0  0  0  0  0  0  0  0  0  0  0
   13.7760  -18.7550   -3.8390 O   0  0  0  0  0  0  0  0  0  0  0  0
   13.2320  -17.7110   -3.1420 C   0  0  0  0  0  0  0  0  0  0  0  0
   12.2920  -17.8070   -2.1140 C   0  0  0  0  0  0  0  0  0  0  0  0
   11.8170  -16.6480   -1.4840 C   0  0  0  0  0  0  0  0  0  0  0  0
   12.2810  -15.3900   -1.8800 C   0  0  0  0  0  0  0  0  0  0  0  0
   11.7620  -14.1900   -1.1910 C   0  0  0  0  0  0  0  0  0  0  0  0
   12.2530  -13.0030   -1.3880 N   0  0  0  0  0  0  0  0  0  0  0  0
   11.6500  -12.0110   -0.6640 N   0  0  0  0  0  0  0  0  0  0  0  0
   12.4390  -11.0850   -0.0420 C   0  0  0  0  0  0  0  0  0  0  0  0
   11.8950  -10.0960    0.6770 N   0  0  0  0  0  0  0  0  0  0  0  0
   13.7680  -11.1630   -0.1490 N   0  0  0  0  0  0  0  0  0  0  0  0
   13.2170  -15.2880   -2.9100 C   0  0  0  0  0  0  0  0  0  0  0  0
   13.6860  -16.4490   -3.5360 C   0  0  0  0  0  0  0  0  0  0  0  0
   14.9260  -21.1900   -1.9950 C   0  0  0  0  0  0  0  0  0  0  0  0
   15.9230  -22.1260   -2.1640 N   0  0  0  0  0  0  0  0  0  0  0  0
   16.7700  -22.6370   -1.1930 C   0  0  0  0  0  0  0  0  0  0  0  0
   17.7040  -23.5410   -1.5580 C   0  0  0  0  0  0  0  0  0  0  0  0
   18.6460  -24.1230   -0.5400 C   0  0  0  0  0  0  0  0  0  0  0  0
   18.5910  -25.4770   -0.5140 F   0  0  0  0  0  0  0  0  0  0  0  0
   18.3530  -23.6860    0.7070 F   0  0  0  0  0  0  0  0  0  0  0  0
   19.9290  -23.7780   -0.8020 F   0  0  0  0  0  0  0  0  0  0  0  0
   17.8540  -23.9980   -2.9490 C   0  0  0  0  0  0  0  0  0  0  0  0
   17.0480  -23.5230   -3.9140 C   0  0  0  0  0  0  0  0  0  0  0  0
   15.9800  -22.4870   -3.4570 C   0  0  0  0  0  0  0  0  0  0  0  0
   13.7991  -22.3703   -5.7363 H   0  0  0  0  0  0  0  0  0  0  0  0
   14.8329  -20.9273   -6.0117 H   0  0  0  0  0  0  0  0  0  0  0  0
   15.5631  -22.5685   -6.0117 H   0  0  0  0  0  0  0  0  0  0  0  0
   12.7390  -20.4196   -4.5170 H   0  0  0  0  0  0  0  0  0  0  0  0
   12.4886  -20.0086   -2.7935 H   0  0  0  0  0  0  0  0  0  0  0  0
   11.9234  -18.7940   -1.7978 H   0  0  0  0  0  0  0  0  0  0  0  0
   11.0762  -16.7288   -0.6748 H   0  0  0  0  0  0  0  0  0  0  0  0
   10.9275  -14.3061   -0.4838 H   0  0  0  0  0  0  0  0  0  0  0  0
   10.6420  -11.9290   -0.5630 H   0  0  0  0  0  0  0  0  0  0  0  0
   12.4780   -9.4090    1.1390 H   0  0  0  0  0  0  0  0  0  0  0  0
   10.8950   -9.9970    0.7860 H   0  0  0  0  0  0  0  0  0  0  0  0
   14.4030  -10.5110    0.2850 H   0  0  0  0  0  0  0  0  0  0  0  0
   14.1370  -11.9280   -0.7020 H   0  0  0  0  0  0  0  0  0  0  0  0
   13.5841  -14.3011   -3.2282 H   0  0  0  0  0  0  0  0  0  0  0  0
   14.4221  -16.3670   -4.3493 H   0  0  0  0  0  0  0  0  0  0  0  0
   14.6453  -20.7036   -1.0492 H   0  0  0  0  0  0  0  0  0  0  0  0
   16.6829  -22.3124   -0.1456 H   0  0  0  0  0  0  0  0  0  0  0  0
   18.6318  -24.7340   -3.2008 H   0  0  0  0  0  0  0  0  0  0  0  0
   17.1375  -23.8463   -4.9616 H   0  0  0  0  0  0  0  0  0  0  0  0
  1  2  1  0
  2  3  1  0
  3  4  1  0
  4  5  1  0
  5  6  1  0
  6  7  2  0
  7  8  1  0
  8  9  2  0
  9 10  1  0
 10 11  2  0
 11 12  1  0
 12 13  2  0
 13 14  1  0
 13 15  1  0
  9 16  1  0
 16 17  2  0
  3 18  2  0
 18 19  1  0
 19 20  1  0
 20 21  2  0
 21 22  1  0
 22 23  1  0
 22 24  1  0
 22 25  1  0
 21 26  1  0
 26 27  2  0
 27 28  1  0
 28  2  2  0
 17  6  1  0
 28 19  1  0
  1 29  1  0
  1 30  1  0
  1 31  1  0
  4 32  1  0
  4 33  1  0
  7 34  1  0
  8 35  1  0
 10 36  1  0
 12 37  1  0
 14 38  1  0
 14 39  1  0
 15 40  1  0
 15 41  1  0
 16 42  1  0
 17 43  1  0
 18 44  1  0
 20 45  1  0
 26 46  1  0
 27 47  1  0
M  CHG  2   2   1  12   1
M  END
>  <meeko>  (3) 
{"is_sidechain": [false], "free_energy": -7.422, "intermolecular_energy": -10.139, "internal_energy": -0.651}

$$$$
LIB_LVALRWDAOTYBNW__M_PUB_ALL__e8__s20260927
     RDKit          3D

 47 49  0  0  0  0  0  0  0  0999 V2000
    0.3550  -15.7030    3.1180 C   0  0  0  0  0  0  0  0  0  0  0  0
    0.5750  -14.5500    2.2520 N   0  0  0  0  0  0  0  0  0  0  0  0
    1.4750  -14.4870    1.1660 C   0  0  0  0  0  0  0  0  0  0  0  0
    2.3360  -15.6120    0.7010 C   0  0  0  0  0  0  0  0  0  0  0  0
    3.4910  -15.6730    1.5370 O   0  0  0  0  0  0  0  0  0  0  0  0
    4.5480  -14.8700    1.2060 C   0  0  0  0  0  0  0  0  0  0  0  0
    5.2580  -14.8960    0.0050 C   0  0  0  0  0  0  0  0  0  0  0  0
    6.3260  -14.0110   -0.2020 C   0  0  0  0  0  0  0  0  0  0  0  0
    6.6860  -13.0970    0.7940 C   0  0  0  0  0  0  0  0  0  0  0  0
    7.8140  -12.1760    0.5400 C   0  0  0  0  0  0  0  0  0  0  0  0
    8.9300  -12.2390    1.2020 N   0  0  0  0  0  0  0  0  0  0  0  0
    9.8630  -11.3070    0.8350 N   0  0  0  0  0  0  0  0  0  0  0  0
   11.1610  -11.7070    0.6880 C   0  0  0  0  0  0  0  0  0  0  0  0
   12.1090  -10.8320    0.3290 N   0  0  0  0  0  0  0  0  0  0  0  0
   11.4950  -12.9810    0.9030 N   0  0  0  0  0  0  0  0  0  0  0  0
    5.9830  -13.0700    1.9980 C   0  0  0  0  0  0  0  0  0  0  0  0
    4.9190  -13.9570    2.1990 C   0  0  0  0  0  0  0  0  0  0  0  0
    1.3660  -13.2010    0.6730 C   0  0  0  0  0  0  0  0  0  0  0  0
    0.4450  -12.5330    1.4490 N   0  0  0  0  0  0  0  0  0  0  0  0
    0.0300  -11.2170    1.3150 C   0  0  0  0  0  0  0  0  0  0  0  0
   -0.8760  -10.7310    2.1910 C   0  0  0  0  0  0  0  0  0  0  0  0
   -1.3560   -9.3100    2.0870 C   0  0  0  0  0  0  0  0  0  0  0  0
   -2.4990   -9.2110    1.3640 F   0  0  0  0  0  0  0  0  0  0  0  0
   -0.4330   -8.5220    1.4870 F   0  0  0  0  0  0  0  0  0  0  0  0
   -1.6070   -8.7850    3.3090 F   0  0  0  0  0  0  0  0  0  0  0  0
   -1.4350  -11.5500    3.2790 C   0  0  0  0  0  0  0  0  0  0  0  0
   -1.0540  -12.8290    3.4350 C   0  0  0  0  0  0  0  0  0  0  0  0
   -0.0130  -13.3580    2.4060 C   0  0  0  0  0  0  0  0  0  0  0  0
    0.4151  -15.3880    4.1702 H   0  0  0  0  0  0  0  0  0  0  0  0
   -0.6402  -16.1269    2.9184 H   0  0  0  0  0  0  0  0  0  0  0  0
    1.1242  -16.4636    2.9184 H   0  0  0  0  0  0  0  0  0  0  0  0
    1.7788  -16.5581    0.7681 H   0  0  0  0  0  0  0  0  0  0  0  0
    2.6356  -15.4502   -0.3450 H   0  0  0  0  0  0  0  0  0  0  0  0
    4.9792  -15.6127   -0.7816 H   0  0  0  0  0  0  0  0  0  0  0  0
    6.8824  -14.0356   -1.1506 H   0  0  0  0  0  0  0  0  0  0  0  0
    7.7042  -11.4077   -0.2396 H   0  0  0  0  0  0  0  0  0  0  0  0
    9.6380  -10.3310    0.6670 H   0  0  0  0  0  0  0  0  0  0  0  0
   13.0720  -11.1240    0.2210 H   0  0  0  0  0  0  0  0  0  0  0  0
   11.9030   -9.8570    0.1570 H   0  0  0  0  0  0  0  0  0  0  0  0
   12.4340  -13.3370    0.8120 H   0  0  0  0  0  0  0  0  0  0  0  0
   10.7460  -13.6090    1.1730 H   0  0  0  0  0  0  0  0  0  0  0  0
    6.2632  -12.3553    2.7858 H   0  0  0  0  0  0  0  0  0  0  0  0
    4.3672  -13.9359    3.1504 H   0  0  0  0  0  0  0  0  0  0  0  0
    1.9156  -12.7856   -0.1845 H   0  0  0  0  0  0  0  0  0  0  0  0
    0.4305  -10.5814    0.5115 H   0  0  0  0  0  0  0  0  0  0  0  0
   -2.1703  -11.1115    3.9697 H   0  0  0  0  0  0  0  0  0  0  0  0
   -1.4532  -13.4631    4.2403 H   0  0  0  0  0  0  0  0  0  0  0  0
  1  2  1  0
  2  3  1  0
  3  4  1  0
  4  5  1  0
  5  6  1  0
  6  7  2  0
  7  8  1  0
  8  9  2  0
  9 10  1  0
 10 11  2  0
 11 12  1  0
 12 13  2  0
 13 14  1  0
 13 15  1  0
  9 16  1  0
 16 17  2  0
  3 18  2  0
 18 19  1  0
 19 20  1  0
 20 21  2  0
 21 22  1  0
 22 23  1  0
 22 24  1  0
 22 25  1  0
 21 26  1  0
 26 27  2  0
 27 28  1  0
 28  2  2  0
 17  6  1  0
 28 19  1  0
  1 29  1  0
  1 30  1  0
  1 31  1  0
  4 32  1  0
  4 33  1  0
  7 34  1  0
  8 35  1  0
 10 36  1  0
 12 37  1  0
 14 38  1  0
 14 39  1  0
 15 40  1  0
 15 41  1  0
 16 42  1  0
 17 43  1  0
 18 44  1  0
 20 45  1  0
 26 46  1  0
 27 47  1  0
M  CHG  2   2   1  12   1
M  END
>  <meeko>  (4) 
{"is_sidechain": [false], "free_energy": -7.384, "intermolecular_energy": -10.019, "internal_energy": -0.72}

$$$$
LIB_LVALRWDAOTYBNW__M_PUB_ALL__e8__s20260927
     RDKit          3D

 47 49  0  0  0  0  0  0  0  0999 V2000
    6.4250  -15.8980   -5.2180 C   0  0  0  0  0  0  0  0  0  0  0  0
    5.9920  -14.7360   -5.9870 N   0  0  0  0  0  0  0  0  0  0  0  0
    4.8690  -13.9270   -5.7090 C   0  0  0  0  0  0  0  0  0  0  0  0
    3.9480  -14.1110   -4.5510 C   0  0  0  0  0  0  0  0  0  0  0  0
    2.8940  -13.1540   -4.6540 O   0  0  0  0  0  0  0  0  0  0  0  0
    2.5030  -12.5270   -3.5030 C   0  0  0  0  0  0  0  0  0  0  0  0
    2.2650  -11.1610   -3.3480 C   0  0  0  0  0  0  0  0  0  0  0  0
    1.8680  -10.6510   -2.1030 C   0  0  0  0  0  0  0  0  0  0  0  0
    1.7060  -11.5080   -1.0100 C   0  0  0  0  0  0  0  0  0  0  0  0
    1.2810  -10.9370    0.2850 C   0  0  0  0  0  0  0  0  0  0  0  0
    0.3710  -10.0130    0.3770 N   0  0  0  0  0  0  0  0  0  0  0  0
    0.1050   -9.6020    1.6540 N   0  0  0  0  0  0  0  0  0  0  0  0
   -1.1940   -9.3670    2.0070 C   0  0  0  0  0  0  0  0  0  0  0  0
   -1.5040   -8.9640    3.2450 N   0  0  0  0  0  0  0  0  0  0  0  0
   -2.1690   -9.5380    1.1110 N   0  0  0  0  0  0  0  0  0  0  0  0
    1.9460  -12.8740   -1.1580 C   0  0  0  0  0  0  0  0  0  0  0  0
    2.3440  -13.3760   -2.4020 C   0  0  0  0  0  0  0  0  0  0  0  0
    4.8380  -12.9820   -6.7160 C   0  0  0  0  0  0  0  0  0  0  0  0
    5.8980  -13.2350   -7.5590 N   0  0  0  0  0  0  0  0  0  0  0  0
    6.2450  -12.5380   -8.7060 C   0  0  0  0  0  0  0  0  0  0  0  0
    7.3160  -12.9520   -9.4170 C   0  0  0  0  0  0  0  0  0  0  0  0
    7.7320  -12.2280  -10.6680 C   0  0  0  0  0  0  0  0  0  0  0  0
    7.1360  -11.0150  -10.7740 F   0  0  0  0  0  0  0  0  0  0  0  0
    7.4040  -12.9340  -11.7760 F   0  0  0  0  0  0  0  0  0  0  0  0
    9.0690  -12.0230  -10.6960 F   0  0  0  0  0  0  0  0  0  0  0  0
    8.1220  -14.1170   -9.0170 C   0  0  0  0  0  0  0  0  0  0  0  0
    7.8120  -14.8140   -7.9100 C   0  0  0  0  0  0  0  0  0  0  0  0
    6.5760  -14.3070   -7.1130 C   0  0  0  0  0  0  0  0  0  0  0  0
    6.3430  -15.6778   -4.1434 H   0  0  0  0  0  0  0  0  0  0  0  0
    5.7876  -16.7597   -5.4654 H   0  0  0  0  0  0  0  0  0  0  0  0
    7.4708  -16.1325   -5.4654 H   0  0  0  0  0  0  0  0  0  0  0  0
    3.5289  -15.1279   -4.5682 H   0  0  0  0  0  0  0  0  0  0  0  0
    4.4955  -13.9685   -3.6077 H   0  0  0  0  0  0  0  0  0  0  0  0
    2.3890  -10.4820   -4.2045 H   0  0  0  0  0  0  0  0  0  0  0  0
    1.6834   -9.5729   -1.9861 H   0  0  0  0  0  0  0  0  0  0  0  0
    1.7528  -11.3081    1.2068 H   0  0  0  0  0  0  0  0  0  0  0  0
    0.8270   -9.4610    2.3560 H   0  0  0  0  0  0  0  0  0  0  0  0
   -2.4650   -8.7870    3.5080 H   0  0  0  0  0  0  0  0  0  0  0  0
   -0.7990   -8.8200    3.9560 H   0  0  0  0  0  0  0  0  0  0  0  0
   -3.1450   -9.3800    1.3090 H   0  0  0  0  0  0  0  0  0  0  0  0
   -1.8890   -9.8430    0.1850 H   0  0  0  0  0  0  0  0  0  0  0  0
    1.8231  -13.5530   -0.3014 H   0  0  0  0  0  0  0  0  0  0  0  0
    2.5346  -14.4533   -2.5161 H   0  0  0  0  0  0  0  0  0  0  0  0
    4.1002  -12.1734   -6.8252 H   0  0  0  0  0  0  0  0  0  0  0  0
    5.6596  -11.6651   -9.0306 H   0  0  0  0  0  0  0  0  0  0  0  0
    8.9847  -14.4196   -9.6287 H   0  0  0  0  0  0  0  0  0  0  0  0
    8.3961  -15.6886   -7.5878 H   0  0  0  0  0  0  0  0  0  0  0  0
  1  2  1  0
  2  3  1  0
  3  4  1  0
  4  5  1  0
  5  6  1  0
  6  7  2  0
  7  8  1  0
  8  9  2  0
  9 10  1  0
 10 11  2  0
 11 12  1  0
 12 13  2  0
 13 14  1  0
 13 15  1  0
  9 16  1  0
 16 17  2  0
  3 18  2  0
 18 19  1  0
 19 20  1  0
 20 21  2  0
 21 22  1  0
 22 23  1  0
 22 24  1  0
 22 25  1  0
 21 26  1  0
 26 27  2  0
 27 28  1  0
 28  2  2  0
 17  6  1  0
 28 19  1  0
  1 29  1  0
  1 30  1  0
  1 31  1  0
  4 32  1  0
  4 33  1  0
  7 34  1  0
  8 35  1  0
 10 36  1  0
 12 37  1  0
 14 38  1  0
 14 39  1  0
 15 40  1  0
 15 41  1  0
 16 42  1  0
 17 43  1  0
 18 44  1  0
 20 45  1  0
 26 46  1  0
 27 47  1  0
M  CHG  2   2   1  12   1
M  END
>  <meeko>  (5) 
{"is_sidechain": [false], "free_energy": -7.177, "intermolecular_energy": -9.869, "internal_energy": -0.591}

$$$$
LIB_LVALRWDAOTYBNW__M_PUB_ALL__e8__s20260927
     RDKit          3D

 47 49  0  0  0  0  0  0  0  0999 V2000
    2.9170  -15.7460   -0.1810 C   0  0  0  0  0  0  0  0  0  0  0  0
    3.0000  -14.2920   -0.2600 N   0  0  0  0  0  0  0  0  0  0  0  0
    4.1090  -13.5470   -0.7170 C   0  0  0  0  0  0  0  0  0  0  0  0
    5.3810  -14.1330   -1.2290 C   0  0  0  0  0  0  0  0  0  0  0  0
    6.2700  -14.3200   -0.1280 O   0  0  0  0  0  0  0  0  0  0  0  0
    7.5640  -13.9070   -0.2890 C   0  0  0  0  0  0  0  0  0  0  0  0
    8.1050  -12.7000    0.1550 C   0  0  0  0  0  0  0  0  0  0  0  0
    9.4550  -12.4030   -0.0820 C   0  0  0  0  0  0  0  0  0  0  0  0
   10.2670  -13.3150   -0.7640 C   0  0  0  0  0  0  0  0  0  0  0  0
   11.6870  -12.9720   -0.9910 C   0  0  0  0  0  0  0  0  0  0  0  0
   12.0530  -11.9330   -1.6800 N   0  0  0  0  0  0  0  0  0  0  0  0
   13.4080  -11.7710   -1.7880 N   0  0  0  0  0  0  0  0  0  0  0  0
   13.9940  -11.9760   -3.0060 C   0  0  0  0  0  0  0  0  0  0  0  0
   15.3150  -11.8290   -3.1610 N   0  0  0  0  0  0  0  0  0  0  0  0
   13.2460  -12.3260   -4.0550 N   0  0  0  0  0  0  0  0  0  0  0  0
    9.7300  -14.5220   -1.2130 C   0  0  0  0  0  0  0  0  0  0  0  0
    8.3820  -14.8100   -0.9750 C   0  0  0  0  0  0  0  0  0  0  0  0
    3.7450  -12.2220   -0.5770 C   0  0  0  0  0  0  0  0  0  0  0  0
    2.4730  -12.1920   -0.0480 N   0  0  0  0  0  0  0  0  0  0  0  0
    1.7180  -11.0720    0.2630 C   0  0  0  0  0  0  0  0  0  0  0  0
    0.4890  -11.2460    0.7960 C   0  0  0  0  0  0  0  0  0  0  0  0
   -0.3670  -10.0620    1.1500 C   0  0  0  0  0  0  0  0  0  0  0  0
   -1.4290   -9.9370    0.3170 F   0  0  0  0  0  0  0  0  0  0  0  0
    0.3370   -8.9080    1.0780 F   0  0  0  0  0  0  0  0  0  0  0  0
   -0.8540  -10.1650    2.4090 F   0  0  0  0  0  0  0  0  0  0  0  0
   -0.0710  -12.5820    1.0580 C   0  0  0  0  0  0  0  0  0  0  0  0
    0.6350  -13.6880    0.7680 C   0  0  0  0  0  0  0  0  0  0  0  0
    2.0440  -13.4500    0.1510 C   0  0  0  0  0  0  0  0  0  0  0  0
    2.8993  -16.0554    0.8744 H   0  0  0  0  0  0  0  0  0  0  0  0
    1.9978  -16.0884   -0.6789 H   0  0  0  0  0  0  0  0  0  0  0  0
    3.7912  -16.1908   -0.6789 H   0  0  0  0  0  0  0  0  0  0  0  0
    5.1764  -15.1013   -1.7091 H   0  0  0  0  0  0  0  0  0  0  0  0
    5.8353  -13.4581   -1.9693 H   0  0  0  0  0  0  0  0  0  0  0  0
    7.4710  -11.9794    0.6924 H   0  0  0  0  0  0  0  0  0  0  0  0
    9.8766  -11.4498    0.2696 H   0  0  0  0  0  0  0  0  0  0  0  0
   12.4634  -13.6212   -0.5601 H   0  0  0  0  0  0  0  0  0  0  0  0
   14.0010  -11.5070   -1.0070 H   0  0  0  0  0  0  0  0  0  0  0  0
   15.7520  -11.9810   -4.0610 H   0  0  0  0  0  0  0  0  0  0  0  0
   15.9210  -11.5650   -2.3950 H   0  0  0  0  0  0  0  0  0  0  0  0
   13.6180  -12.4920   -4.9770 H   0  0  0  0  0  0  0  0  0  0  0  0
   12.2500  -12.4270   -3.8910 H   0  0  0  0  0  0  0  0  0  0  0  0
   10.3630  -15.2429   -1.7510 H   0  0  0  0  0  0  0  0  0  0  0  0
    7.9594  -15.7605   -1.3327 H   0  0  0  0  0  0  0  0  0  0  0  0
    4.3595  -11.3485   -0.8403 H   0  0  0  0  0  0  0  0  0  0  0  0
    2.1118  -10.0614    0.0794 H   0  0  0  0  0  0  0  0  0  0  0  0
   -1.0761  -12.6758    1.4950 H   0  0  0  0  0  0  0  0  0  0  0  0
    0.2418  -14.6982    0.9549 H   0  0  0  0  0  0  0  0  0  0  0  0
  1  2  1  0
  2  3  1  0
  3  4  1  0
  4  5  1  0
  5  6  1  0
  6  7  2  0
  7  8  1  0
  8  9  2  0
  9 10  1  0
 10 11  2  0
 11 12  1  0
 12 13  2  0
 13 14  1  0
 13 15  1  0
  9 16  1  0
 16 17  2  0
  3 18  2  0
 18 19  1  0
 19 20  1  0
 20 21  2  0
 21 22  1  0
 22 23  1  0
 22 24  1  0
 22 25  1  0
 21 26  1  0
 26 27  2  0
 27 28  1  0
 28  2  2  0
 17  6  1  0
 28 19  1  0
  1 29  1  0
  1 30  1  0
  1 31  1  0
  4 32  1  0
  4 33  1  0
  7 34  1  0
  8 35  1  0
 10 36  1  0
 12 37  1  0
 14 38  1  0
 14 39  1  0
 15 40  1  0
 15 41  1  0
 16 42  1  0
 17 43  1  0
 18 44  1  0
 20 45  1  0
 26 46  1  0
 27 47  1  0
M  CHG  2   2   1  12   1
M  END
>  <meeko>  (6) 
{"is_sidechain": [false], "free_energy": -6.918, "intermolecular_energy": -9.525, "internal_energy": -0.584}

$$$$
LIB_LVALRWDAOTYBNW__M_PUB_ALL__e8__s20260927
     RDKit          3D

 47 49  0  0  0  0  0  0  0  0999 V2000
    6.1350  -12.8920    1.7430 C   0  0  0  0  0  0  0  0  0  0  0  0
    6.3340  -12.3700    0.3960 N   0  0  0  0  0  0  0  0  0  0  0  0
    7.5590  -11.9300   -0.1520 C   0  0  0  0  0  0  0  0  0  0  0  0
    8.8710  -11.9570    0.5550 C   0  0  0  0  0  0  0  0  0  0  0  0
    9.5470  -13.1660    0.2110 O   0  0  0  0  0  0  0  0  0  0  0  0
   10.4130  -13.1210   -0.8460 C   0  0  0  0  0  0  0  0  0  0  0  0
   11.4840  -12.2380   -0.9980 C   0  0  0  0  0  0  0  0  0  0  0  0
   12.2940  -12.3030   -2.1410 C   0  0  0  0  0  0  0  0  0  0  0  0
   12.0360  -13.2530   -3.1340 C   0  0  0  0  0  0  0  0  0  0  0  0
   12.9140  -13.2960   -4.3230 C   0  0  0  0  0  0  0  0  0  0  0  0
   12.5140  -13.7550   -5.4710 N   0  0  0  0  0  0  0  0  0  0  0  0
   13.4600  -13.7190   -6.4580 N   0  0  0  0  0  0  0  0  0  0  0  0
   13.9100  -14.9020   -6.9740 C   0  0  0  0  0  0  0  0  0  0  0  0
   14.8340  -14.9180   -7.9410 N   0  0  0  0  0  0  0  0  0  0  0  0
   13.4250  -16.0570   -6.5120 N   0  0  0  0  0  0  0  0  0  0  0  0
   10.9640  -14.1340   -2.9900 C   0  0  0  0  0  0  0  0  0  0  0  0
   10.1580  -14.0630   -1.8480 C   0  0  0  0  0  0  0  0  0  0  0  0
    7.2560  -11.4950   -1.4280 C   0  0  0  0  0  0  0  0  0  0  0  0
    5.9020  -11.6630   -1.6150 N   0  0  0  0  0  0  0  0  0  0  0  0
    5.1650  -11.3530   -2.7480 C   0  0  0  0  0  0  0  0  0  0  0  0
    3.8330  -11.5740   -2.7360 C   0  0  0  0  0  0  0  0  0  0  0  0
    2.9910  -11.2530   -3.9400 C   0  0  0  0  0  0  0  0  0  0  0  0
    2.6130   -9.9520   -3.9630 F   0  0  0  0  0  0  0  0  0  0  0  0
    1.8620  -11.9990   -3.9630 F   0  0  0  0  0  0  0  0  0  0  0  0
    3.6640  -11.4960   -5.0890 F   0  0  0  0  0  0  0  0  0  0  0  0
    3.1400  -12.1310   -1.5630 C   0  0  0  0  0  0  0  0  0  0  0  0
    3.8250  -12.4430   -0.4490 C   0  0  0  0  0  0  0  0  0  0  0  0
    5.3580  -12.1790   -0.5000 C   0  0  0  0  0  0  0  0  0  0  0  0
    6.4262  -12.1281    2.4790 H   0  0  0  0  0  0  0  0  0  0  0  0
    5.0751  -13.1509    1.8830 H   0  0  0  0  0  0  0  0  0  0  0  0
    6.7536  -13.7908    1.8830 H   0  0  0  0  0  0  0  0  0  0  0  0
    9.4768  -11.0925    0.2458 H   0  0  0  0  0  0  0  0  0  0  0  0
    8.7136  -11.9100    1.6427 H   0  0  0  0  0  0  0  0  0  0  0  0
   11.6929  -11.4896   -0.2193 H   0  0  0  0  0  0  0  0  0  0  0  0
   13.1354  -11.6040   -2.2568 H   0  0  0  0  0  0  0  0  0  0  0  0
   13.9456  -12.9251   -4.2322 H   0  0  0  0  0  0  0  0  0  0  0  0
   13.8480  -12.8550   -6.8270 H   0  0  0  0  0  0  0  0  0  0  0  0
   15.1700  -15.7930   -8.3240 H   0  0  0  0  0  0  0  0  0  0  0  0
   15.2300  -14.0690   -8.3210 H   0  0  0  0  0  0  0  0  0  0  0  0
   13.7170  -16.9610   -6.8500 H   0  0  0  0  0  0  0  0  0  0  0  0
   12.7270  -15.9980   -5.7780 H   0  0  0  0  0  0  0  0  0  0  0  0
   10.7533  -14.8806   -3.7699 H   0  0  0  0  0  0  0  0  0  0  0  0
    9.3123  -14.7576   -1.7369 H   0  0  0  0  0  0  0  0  0  0  0  0
    7.9675  -11.0882   -2.1616 H   0  0  0  0  0  0  0  0  0  0  0  0
    5.6560  -10.9351   -3.6393 H   0  0  0  0  0  0  0  0  0  0  0  0
    2.0526  -12.2933   -1.5981 H   0  0  0  0  0  0  0  0  0  0  0  0
    3.3329  -12.8588    0.4426 H   0  0  0  0  0  0  0  0  0  0  0  0
  1  2  1  0
  2  3  1  0
  3  4  1  0
  4  5  1  0
  5  6  1  0
  6  7  2  0
  7  8  1  0
  8  9  2  0
  9 10  1  0
 10 11  2  0
 11 12  1  0
 12 13  2  0
 13 14  1  0
 13 15  1  0
  9 16  1  0
 16 17  2  0
  3 18  2  0
 18 19  1  0
 19 20  1  0
 20 21  2  0
 21 22  1  0
 22 23  1  0
 22 24  1  0
 22 25  1  0
 21 26  1  0
 26 27  2  0
 27 28  1  0
 28  2  2  0
 17  6  1  0
 28 19  1  0
  1 29  1  0
  1 30  1  0
  1 31  1  0
  4 32  1  0
  4 33  1  0
  7 34  1  0
  8 35  1  0
 10 36  1  0
 12 37  1  0
 14 38  1  0
 14 39  1  0
 15 40  1  0
 15 41  1  0
 16 42  1  0
 17 43  1  0
 18 44  1  0
 20 45  1  0
 26 46  1  0
 27 47  1  0
M  CHG  2   2   1  12   1
M  END
>  <meeko>  (7) 
{"is_sidechain": [false], "free_energy": -6.862, "intermolecular_energy": -9.324, "internal_energy": -0.711}

$$$$
LIB_LVALRWDAOTYBNW__M_PUB_ALL__e8__s20260927
     RDKit          3D

 47 49  0  0  0  0  0  0  0  0999 V2000
   -0.9910  -11.7950    2.3990 C   0  0  0  0  0  0  0  0  0  0  0  0
   -0.0920  -12.4480    1.4530 N   0  0  0  0  0  0  0  0  0  0  0  0
    0.4000  -13.7670    1.5490 C   0  0  0  0  0  0  0  0  0  0  0  0
    0.0520  -14.7330    2.6310 C   0  0  0  0  0  0  0  0  0  0  0  0
   -0.8550  -15.7000    2.1010 O   0  0  0  0  0  0  0  0  0  0  0  0
   -1.8880  -16.0970    2.9050 C   0  0  0  0  0  0  0  0  0  0  0  0
   -1.9740  -17.3050    3.5990 C   0  0  0  0  0  0  0  0  0  0  0  0
   -3.0990  -17.5830    4.3900 C   0  0  0  0  0  0  0  0  0  0  0  0
   -4.1390  -16.6540    4.4890 C   0  0  0  0  0  0  0  0  0  0  0  0
   -5.3060  -16.9790    5.3360 C   0  0  0  0  0  0  0  0  0  0  0  0
   -5.3610  -16.6710    6.5970 N   0  0  0  0  0  0  0  0  0  0  0  0
   -6.5170  -17.0500    7.2240 N   0  0  0  0  0  0  0  0  0  0  0  0
   -7.0330  -16.2330    8.1900 C   0  0  0  0  0  0  0  0  0  0  0  0
   -8.1610  -16.5610    8.8310 N   0  0  0  0  0  0  0  0  0  0  0  0
   -6.4090  -15.0940    8.5030 N   0  0  0  0  0  0  0  0  0  0  0  0
   -4.0590  -15.4470    3.7930 C   0  0  0  0  0  0  0  0  0  0  0  0
   -2.9360  -15.1760    3.0040 C   0  0  0  0  0  0  0  0  0  0  0  0
    1.2330  -13.9300    0.4600 C   0  0  0  0  0  0  0  0  0  0  0  0
    1.2380  -12.7450   -0.2420 N   0  0  0  0  0  0  0  0  0  0  0  0
    1.9430  -12.4570   -1.4010 C   0  0  0  0  0  0  0  0  0  0  0  0
    1.8330  -11.2220   -1.9370 C   0  0  0  0  0  0  0  0  0  0  0  0
    2.5780  -10.8630   -3.1920 C   0  0  0  0  0  0  0  0  0  0  0  0
    2.3190  -11.7290   -4.2020 F   0  0  0  0  0  0  0  0  0  0  0  0
    3.9160  -10.8730   -2.9890 F   0  0  0  0  0  0  0  0  0  0  0  0
    2.2410   -9.6260   -3.6280 F   0  0  0  0  0  0  0  0  0  0  0  0
    0.9940  -10.1750   -1.3320 C   0  0  0  0  0  0  0  0  0  0  0  0
    0.2980  -10.4220   -0.2080 C   0  0  0  0  0  0  0  0  0  0  0  0
    0.4440  -11.8560    0.3790 C   0  0  0  0  0  0  0  0  0  0  0  0
   -0.6729  -12.0260    3.4264 H   0  0  0  0  0  0  0  0  0  0  0  0
   -0.9610  -10.7067    2.2419 H   0  0  0  0  0  0  0  0  0  0  0  0
   -2.0167  -12.1600    2.2419 H   0  0  0  0  0  0  0  0  0  0  0  0
    0.9635  -15.2353    2.9871 H   0  0  0  0  0  0  0  0  0  0  0  0
   -0.4137  -14.2022    3.4745 H   0  0  0  0  0  0  0  0  0  0  0  0
   -1.1588  -18.0399    3.5257 H   0  0  0  0  0  0  0  0  0  0  0  0
   -3.1630  -18.5364    4.9348 H   0  0  0  0  0  0  0  0  0  0  0  0
   -6.1605  -17.5016    4.8813 H   0  0  0  0  0  0  0  0  0  0  0  0
   -7.0110  -17.9110    7.0080 H   0  0  0  0  0  0  0  0  0  0  0  0
   -8.5450  -15.9590    9.5490 H   0  0  0  0  0  0  0  0  0  0  0  0
   -8.6670  -17.4130    8.6290 H   0  0  0  0  0  0  0  0  0  0  0  0
   -6.7390  -14.4510    9.2060 H   0  0  0  0  0  0  0  0  0  0  0  0
   -5.5580  -14.8860    7.9930 H   0  0  0  0  0  0  0  0  0  0  0  0
   -4.8747  -14.7125    3.8644 H   0  0  0  0  0  0  0  0  0  0  0  0
   -2.8764  -14.2254    2.4538 H   0  0  0  0  0  0  0  0  0  0  0  0
    1.7915  -14.8413    0.2001 H   0  0  0  0  0  0  0  0  0  0  0  0
    2.5792  -13.2192   -1.8745 H   0  0  0  0  0  0  0  0  0  0  0  0
    0.9357   -9.1826   -1.8029 H   0  0  0  0  0  0  0  0  0  0  0  0
   -0.3351   -9.6580    0.2669 H   0  0  0  0  0  0  0  0  0  0  0  0
  1  2  1  0
  2  3  1  0
  3  4  1  0
  4  5  1  0
  5  6  1  0
  6  7  2  0
  7  8  1  0
  8  9  2  0
  9 10  1  0
 10 11  2  0
 11 12  1  0
 12 13  2  0
 13 14  1  0
 13 15  1  0
  9 16  1  0
 16 17  2  0
  3 18  2  0
 18 19  1  0
 19 20  1  0
 20 21  2  0
 21 22  1  0
 22 23  1  0
 22 24  1  0
 22 25  1  0
 21 26  1  0
 26 27  2  0
 27 28  1  0
 28  2  2  0
 17  6  1  0
 28 19  1  0
  1 29  1  0
  1 30  1  0
  1 31  1  0
  4 32  1  0
  4 33  1  0
  7 34  1  0
  8 35  1  0
 10 36  1  0
 12 37  1  0
 14 38  1  0
 14 39  1  0
 15 40  1  0
 15 41  1  0
 16 42  1  0
 17 43  1  0
 18 44  1  0
 20 45  1  0
 26 46  1  0
 27 47  1  0
M  CHG  2   2   1  12   1
M  END
>  <meeko>  (8) 
{"is_sidechain": [false], "free_energy": -6.838, "intermolecular_energy": -9.349, "internal_energy": -0.654}

$$$$
LIB_LVALRWDAOTYBNW__M_PUB_ALL__e8__s20260927
     RDKit          3D

 47 49  0  0  0  0  0  0  0  0999 V2000
    0.0470  -14.1210    5.0890 C   0  0  0  0  0  0  0  0  0  0  0  0
   -0.4420  -14.1430    3.7150 N   0  0  0  0  0  0  0  0  0  0  0  0
   -0.4330  -15.2570    2.8470 C   0  0  0  0  0  0  0  0  0  0  0  0
    0.0550  -16.6190    3.2090 C   0  0  0  0  0  0  0  0  0  0  0  0
   -1.0570  -17.5140    3.2040 O   0  0  0  0  0  0  0  0  0  0  0  0
   -2.1100  -17.2120    4.0230 C   0  0  0  0  0  0  0  0  0  0  0  0
   -3.4070  -16.8980    3.6160 C   0  0  0  0  0  0  0  0  0  0  0  0
   -4.3940  -16.6050    4.5700 C   0  0  0  0  0  0  0  0  0  0  0  0
   -4.0830  -16.6260    5.9330 C   0  0  0  0  0  0  0  0  0  0  0  0
   -5.1480  -16.3170    6.9100 C   0  0  0  0  0  0  0  0  0  0  0  0
   -6.2270  -15.6690    6.5860 N   0  0  0  0  0  0  0  0  0  0  0  0
   -7.1040  -15.4720    7.6190 N   0  0  0  0  0  0  0  0  0  0  0  0
   -8.4120  -15.8230    7.4390 C   0  0  0  0  0  0  0  0  0  0  0  0
   -9.3060  -15.6500    8.4200 N   0  0  0  0  0  0  0  0  0  0  0  0
   -8.8090  -16.3440    6.2760 N   0  0  0  0  0  0  0  0  0  0  0  0
   -2.7860  -16.9340    6.3450 C   0  0  0  0  0  0  0  0  0  0  0  0
   -1.8070  -17.2240    5.3880 C   0  0  0  0  0  0  0  0  0  0  0  0
   -0.9550  -14.7980    1.6540 C   0  0  0  0  0  0  0  0  0  0  0  0
   -1.2480  -13.4610    1.8130 N   0  0  0  0  0  0  0  0  0  0  0  0
   -1.7840  -12.6000    0.8680 C   0  0  0  0  0  0  0  0  0  0  0  0
   -1.9850  -11.3090    1.2080 C   0  0  0  0  0  0  0  0  0  0  0  0
   -2.5630  -10.3360    0.2180 C   0  0  0  0  0  0  0  0  0  0  0  0
   -1.6650   -9.9900   -0.7370 F   0  0  0  0  0  0  0  0  0  0  0  0
   -2.9620   -9.1940    0.8260 F   0  0  0  0  0  0  0  0  0  0  0  0
   -3.6400  -10.8590   -0.4140 F   0  0  0  0  0  0  0  0  0  0  0  0
   -1.6530  -10.7870    2.5440 C   0  0  0  0  0  0  0  0  0  0  0  0
   -1.1330  -11.5960    3.4830 C   0  0  0  0  0  0  0  0  0  0  0  0
   -0.9190  -13.0780    3.0590 C   0  0  0  0  0  0  0  0  0  0  0  0
   -0.8060  -14.1594    5.7824 H   0  0  0  0  0  0  0  0  0  0  0  0
    0.6983  -14.9908    5.2604 H   0  0  0  0  0  0  0  0  0  0  0  0
    0.6175  -13.1963    5.2604 H   0  0  0  0  0  0  0  0  0  0  0  0
    0.8032  -16.9525    2.4748 H   0  0  0  0  0  0  0  0  0  0  0  0
    0.5198  -16.6005    4.2058 H   0  0  0  0  0  0  0  0  0  0  0  0
   -3.6567  -16.8800    2.5449 H   0  0  0  0  0  0  0  0  0  0  0  0
   -5.4153  -16.3581    4.2443 H   0  0  0  0  0  0  0  0  0  0  0  0
   -5.0226  -16.6482    7.9514 H   0  0  0  0  0  0  0  0  0  0  0  0
   -6.8300  -15.0760    8.5130 H   0  0  0  0  0  0  0  0  0  0  0  0
  -10.2760  -15.9070    8.2900 H   0  0  0  0  0  0  0  0  0  0  0  0
   -9.0520  -15.2580    9.3170 H   0  0  0  0  0  0  0  0  0  0  0  0
   -9.7590  -16.6210    6.0820 H   0  0  0  0  0  0  0  0  0  0  0  0
   -8.0980  -16.4570    5.5610 H   0  0  0  0  0  0  0  0  0  0  0  0
   -2.5345  -16.9488    7.4158 H   0  0  0  0  0  0  0  0  0  0  0  0
   -0.7845  -17.4648    5.7143 H   0  0  0  0  0  0  0  0  0  0  0  0
   -1.1091  -15.3924    0.7413 H   0  0  0  0  0  0  0  0  0  0  0  0
   -2.0404  -12.9614   -0.1388 H   0  0  0  0  0  0  0  0  0  0  0  0
   -1.8319   -9.7266    2.7755 H   0  0  0  0  0  0  0  0  0  0  0  0
   -0.8747  -11.2331    4.4888 H   0  0  0  0  0  0  0  0  0  0  0  0
  1  2  1  0
  2  3  1  0
  3  4  1  0
  4  5  1  0
  5  6  1  0
  6  7  2  0
  7  8  1  0
  8  9  2  0
  9 10  1  0
 10 11  2  0
 11 12  1  0
 12 13  2  0
 13 14  1  0
 13 15  1  0
  9 16  1  0
 16 17  2  0
  3 18  2  0
 18 19  1  0
 19 20  1  0
 20 21  2  0
 21 22  1  0
 22 23  1  0
 22 24  1  0
 22 25  1  0
 21 26  1  0
 26 27  2  0
 27 28  1  0
 28  2  2  0
 17  6  1  0
 28 19  1  0
  1 29  1  0
  1 30  1  0
  1 31  1  0
  4 32  1  0
  4 33  1  0
  7 34  1  0
  8 35  1  0
 10 36  1  0
 12 37  1  0
 14 38  1  0
 14 39  1  0
 15 40  1  0
 15 41  1  0
 16 42  1  0
 17 43  1  0
 18 44  1  0
 20 45  1  0
 26 46  1  0
 27 47  1  0
M  CHG  2   2   1  12   1
M  END
>  <meeko>  (9) 
{"is_sidechain": [false], "free_energy": -6.824, "intermolecular_energy": -9.247, "internal_energy": -0.736}

$$$$
