LIB_DXIAHMIZSNQSST__M_PUB_ALL__e8__s20260927
     RDKit          3D

 43 46  0  0  0  0  0  0  0  0999 V2000
  -14.4170  -15.5570  -10.4190 N   0  0  0  0  0  0  0  0  0  0  0  0
  -14.6480  -15.3710   -8.9750 C   0  0  2  0  0  0  0  0  0  0  0  0
  -14.3240  -13.9070   -8.5510 C   0  0  0  0  0  0  0  0  0  0  0  0
  -13.7530  -13.0850   -9.6220 N   0  0  0  0  0  0  0  0  0  0  0  0
  -12.4560  -12.6860   -9.6410 C   0  0  0  0  0  0  0  0  0  0  0  0
  -11.7820  -12.2590   -8.5850 N   0  0  0  0  0  0  0  0  0  0  0  0
  -10.3990  -12.4010   -8.7750 N   0  0  0  0  0  0  0  0  0  0  0  0
  -10.1950  -13.2020   -9.8150 C   0  0  0  0  0  0  0  0  0  0  0  0
   -9.9310  -14.6720   -9.6910 C   0  0  0  0  0  0  0  0  0  0  0  0
   -8.6670  -15.0990  -10.1750 C   0  0  0  0  0  0  0  0  0  0  0  0
   -7.8240  -15.8910   -9.3830 C   0  0  0  0  0  0  0  0  0  0  0  0
   -8.2810  -16.1680   -8.0870 C   0  0  0  0  0  0  0  0  0  0  0  0
   -7.5890  -16.4640   -6.9580 N   0  0  0  0  0  0  0  0  0  0  0  0
   -8.4520  -16.3970   -5.9240 N   0  0  0  0  0  0  0  0  0  0  0  0
   -9.6880  -16.3550   -6.4700 C   0  0  0  0  0  0  0  0  0  0  0  0
   -9.6250  -15.9670   -7.7800 C   0  0  0  0  0  0  0  0  0  0  0  0
  -10.5490  -15.3740   -8.6310 C   0  0  0  0  0  0  0  0  0  0  0  0
  -11.3910  -12.7060  -11.0270 S   0  0  0  0  0  0  0  0  0  0  0  0
  -13.8310  -16.4330   -8.2190 C   0  0  0  0  0  0  0  0  0  0  0  0
  -14.3670  -16.7280   -6.8380 C   0  0  0  0  0  0  0  0  0  0  0  0
  -13.4880  -16.9230   -5.7600 C   0  0  0  0  0  0  0  0  0  0  0  0
  -13.9870  -17.1780   -4.4820 C   0  0  0  0  0  0  0  0  0  0  0  0
  -15.3610  -17.2410   -4.2810 C   0  0  0  0  0  0  0  0  0  0  0  0
  -15.8370  -17.4860   -3.0540 F   0  0  0  0  0  0  0  0  0  0  0  0
  -16.2460  -17.0550   -5.3350 C   0  0  0  0  0  0  0  0  0  0  0  0
  -15.7500  -16.7990   -6.6150 C   0  0  0  0  0  0  0  0  0  0  0  0
  -14.4480  -16.5120  -10.7850 H   0  0  0  0  0  0  0  0  0  0  0  0
  -14.8370  -14.9100  -11.0870 H   0  0  0  0  0  0  0  0  0  0  0  0
  -13.3830  -15.3480  -10.6860 H   0  0  0  0  0  0  0  0  0  0  0  0
  -15.7079  -15.5166   -8.7193 H   0  0  0  0  0  0  0  0  0  0  0  0
  -15.2559  -13.4319   -8.2107 H   0  0  0  0  0  0  0  0  0  0  0  0
  -13.5634  -13.9677   -7.7587 H   0  0  0  0  0  0  0  0  0  0  0  0
  -14.3620  -12.6810  -10.3260 H   0  0  0  0  0  0  0  0  0  0  0  0
   -8.3446  -14.8047  -11.1847 H   0  0  0  0  0  0  0  0  0  0  0  0
   -6.8619  -16.2721   -9.7560 H   0  0  0  0  0  0  0  0  0  0  0  0
  -10.6170  -16.5994   -5.9341 H   0  0  0  0  0  0  0  0  0  0  0  0
  -11.6384  -15.4429   -8.4954 H   0  0  0  0  0  0  0  0  0  0  0  0
  -13.8426  -17.3643   -8.8043 H   0  0  0  0  0  0  0  0  0  0  0  0
  -12.8135  -16.0339   -8.0951 H   0  0  0  0  0  0  0  0  0  0  0  0
  -12.4014  -16.8745   -5.9239 H   0  0  0  0  0  0  0  0  0  0  0  0
  -13.2971  -17.3283   -3.6386 H   0  0  0  0  0  0  0  0  0  0  0  0
  -17.3311  -17.1090   -5.1626 H   0  0  0  0  0  0  0  0  0  0  0  0
  -16.4475  -16.6522   -7.4528 H   0  0  0  0  0  0  0  0  0  0  0  0
  1  2  1  0
  2  3  1  0
  3  4  1  0
  4  5  1  0
  5  6  2  0
  6  7  1  0
  7  8  2  0
  8  9  1  0
  9 10  2  0
 10 11  1  0
 11 12  2  0
 12 13  1  0
 13 14  1  0
 14 15  2  0
 15 16  1  0
 16 17  2  0
  8 18  1  0
  2 19  1  0
 19 20  1  0
 20 21  2  0
 21 22  1  0
 22 23  2  0
 23 24  1  0
 23 25  1  0
 25 26  2  0
 18  5  1  0
 26 20  1  0
 17  9  1  0
 16 12  1  0
  1 27  1  0
  1 28  1  0
  1 29  1  0
  2 30  1  6
  3 31  1  0
  3 32  1  0
  4 33  1  0
 10 34  1  0
 11 35  1  0
 15 36  1  0
 17 37  1  0
 19 38  1  0
 19 39  1  0
 21 40  1  0
 22 41  1  0
 25 42  1  0
 26 43  1  0
M  CHG  2   1   1  13  -1
M  END
>  <meeko>  (1) 
{"is_sidechain": [false], "free_energy": -7.41, "intermolecular_energy": -10.225, "internal_energy": -0.995}

$$$$
LIB_DXIAHMIZSNQSST__M_PUB_ALL__e8__s20260927
     RDKit          3D

 43 46  0  0  0  0  0  0  0  0999 V2000
   -2.7220  -18.8190    2.9460 N   0  0  0  0  0  0  0  0  0  0  0  0
   -2.0670  -17.5570    2.5540 C   0  0  2  0  0  0  0  0  0  0  0  0
   -0.5740  -17.5530    3.0000 C   0  0  0  0  0  0  0  0  0  0  0  0
    0.3730  -17.2510    1.9220 N   0  0  0  0  0  0  0  0  0  0  0  0
    1.1770  -16.1570    1.9250 C   0  0  0  0  0  0  0  0  0  0  0  0
    1.8940  -15.7450    0.8910 N   0  0  0  0  0  0  0  0  0  0  0  0
    2.2040  -14.3810    1.0020 N   0  0  0  0  0  0  0  0  0  0  0  0
    1.4290  -13.8460    1.9380 C   0  0  0  0  0  0  0  0  0  0  0  0
    0.1480  -13.1270    1.6440 C   0  0  0  0  0  0  0  0  0  0  0  0
   -0.5820  -12.7050    2.7870 C   0  0  0  0  0  0  0  0  0  0  0  0
   -1.0250  -11.3810    2.9070 C   0  0  0  0  0  0  0  0  0  0  0  0
   -0.6490  -10.5110    1.8750 C   0  0  0  0  0  0  0  0  0  0  0  0
   -0.4850   -9.1640    1.8790 N   0  0  0  0  0  0  0  0  0  0  0  0
    0.1240   -8.8260    0.7240 N   0  0  0  0  0  0  0  0  0  0  0  0
    0.0510   -9.9150   -0.0710 C   0  0  0  0  0  0  0  0  0  0  0  0
   -0.1910  -11.0400    0.6700 C   0  0  0  0  0  0  0  0  0  0  0  0
    0.0580  -12.3870    0.4430 C   0  0  0  0  0  0  0  0  0  0  0  0
    1.3920  -15.0390    3.2510 S   0  0  0  0  0  0  0  0  0  0  0  0
   -2.8910  -16.3920    3.1280 C   0  0  0  0  0  0  0  0  0  0  0  0
   -3.1480  -15.2910    2.1280 C   0  0  0  0  0  0  0  0  0  0  0  0
   -2.7100  -15.4190    0.7990 C   0  0  0  0  0  0  0  0  0  0  0  0
   -2.9650  -14.4070   -0.1270 C   0  0  0  0  0  0  0  0  0  0  0  0
   -3.6530  -13.2680    0.2720 C   0  0  0  0  0  0  0  0  0  0  0  0
   -3.8970  -12.2990   -0.6180 F   0  0  0  0  0  0  0  0  0  0  0  0
   -4.0920  -13.1210    1.5820 C   0  0  0  0  0  0  0  0  0  0  0  0
   -3.8390  -14.1310    2.5110 C   0  0  0  0  0  0  0  0  0  0  0  0
   -2.1420  -19.6610    2.9910 H   0  0  0  0  0  0  0  0  0  0  0  0
   -3.4050  -18.8210    3.7040 H   0  0  0  0  0  0  0  0  0  0  0  0
   -3.4030  -19.1690    2.1730 H   0  0  0  0  0  0  0  0  0  0  0  0
   -2.0414  -17.4439    1.4601 H   0  0  0  0  0  0  0  0  0  0  0  0
   -0.4514  -16.7966    3.7892 H   0  0  0  0  0  0  0  0  0  0  0  0
   -0.3444  -18.5712    3.3473 H   0  0  0  0  0  0  0  0  0  0  0  0
    0.3580  -17.8000    1.0700 H   0  0  0  0  0  0  0  0  0  0  0  0
   -0.8023  -13.4263    3.5878 H   0  0  0  0  0  0  0  0  0  0  0  0
   -1.6318  -11.0447    3.7606 H   0  0  0  0  0  0  0  0  0  0  0  0
    0.1698   -9.9000   -1.1645 H   0  0  0  0  0  0  0  0  0  0  0  0
    0.1723  -12.8283   -0.5581 H   0  0  0  0  0  0  0  0  0  0  0  0
   -3.8595  -16.7852    3.4706 H   0  0  0  0  0  0  0  0  0  0  0  0
   -2.3062  -15.9543    3.9504 H   0  0  0  0  0  0  0  0  0  0  0  0
   -2.1635  -16.3213    0.4872 H   0  0  0  0  0  0  0  0  0  0  0  0
   -2.6231  -14.5105   -1.1674 H   0  0  0  0  0  0  0  0  0  0  0  0
   -4.6357  -12.2140    1.8849 H   0  0  0  0  0  0  0  0  0  0  0  0
   -4.1831  -14.0174    3.5496 H   0  0  0  0  0  0  0  0  0  0  0  0
  1  2  1  0
  2  3  1  0
  3  4  1  0
  4  5  1  0
  5  6  2  0
  6  7  1  0
  7  8  2  0
  8  9  1  0
  9 10  2  0
 10 11  1  0
 11 12  2  0
 12 13  1  0
 13 14  1  0
 14 15  2  0
 15 16  1  0
 16 17  2  0
  8 18  1  0
  2 19  1  0
 19 20  1  0
 20 21  2  0
 21 22  1  0
 22 23  2  0
 23 24  1  0
 23 25  1  0
 25 26  2  0
 18  5  1  0
 26 20  1  0
 17  9  1  0
 16 12  1  0
  1 27  1  0
  1 28  1  0
  1 29  1  0
  2 30  1  6
  3 31  1  0
  3 32  1  0
  4 33  1  0
 10 34  1  0
 11 35  1  0
 15 36  1  0
 17 37  1  0
 19 38  1  0
 19 39  1  0
 21 40  1  0
 22 41  1  0
 25 42  1  0
 26 43  1  0
M  CHG  2   1   1  13  -1
M  END
>  <meeko>  (2) 
{"is_sidechain": [false], "free_energy": -7.294, "intermolecular_energy": -8.733, "internal_energy": -2.326}

$$$$
LIB_DXIAHMIZSNQSST__M_PUB_ALL__e8__s20260927
     RDKit          3D

 43 46  0  0  0  0  0  0  0  0999 V2000
    7.0730  -10.3280   -1.4990 N   0  0  0  0  0  0  0  0  0  0  0  0
    6.7940  -11.7390   -1.8220 C   0  0  2  0  0  0  0  0  0  0  0  0
    7.9570  -12.6550   -1.3350 C   0  0  0  0  0  0  0  0  0  0  0  0
    8.1370  -12.6730    0.1200 N   0  0  0  0  0  0  0  0  0  0  0  0
    7.1010  -12.6550    0.9970 C   0  0  0  0  0  0  0  0  0  0  0  0
    6.6480  -11.5710    1.6070 N   0  0  0  0  0  0  0  0  0  0  0  0
    5.3210  -11.7440    2.0290 N   0  0  0  0  0  0  0  0  0  0  0  0
    4.8200  -12.8120    1.4190 C   0  0  0  0  0  0  0  0  0  0  0  0
    3.9980  -12.7440    0.1680 C   0  0  0  0  0  0  0  0  0  0  0  0
    3.9630  -13.9410   -0.5940 C   0  0  0  0  0  0  0  0  0  0  0  0
    2.7430  -14.4930   -1.0100 C   0  0  0  0  0  0  0  0  0  0  0  0
    1.5880  -13.8280   -0.5730 C   0  0  0  0  0  0  0  0  0  0  0  0
    0.3290  -14.2950   -0.3780 N   0  0  0  0  0  0  0  0  0  0  0  0
   -0.3580  -13.3410    0.2840 N   0  0  0  0  0  0  0  0  0  0  0  0
    0.3940  -12.2210    0.2150 C   0  0  0  0  0  0  0  0  0  0  0  0
    1.6930  -12.5280   -0.0830 C   0  0  0  0  0  0  0  0  0  0  0  0
    2.8920  -11.8650    0.1420 C   0  0  0  0  0  0  0  0  0  0  0  0
    6.1160  -14.0230    1.4590 S   0  0  0  0  0  0  0  0  0  0  0  0
    6.5150  -11.8380   -3.3320 C   0  0  0  0  0  0  0  0  0  0  0  0
    5.0830  -12.1940   -3.6540 C   0  0  0  0  0  0  0  0  0  0  0  0
    4.0420  -11.3030   -3.3460 C   0  0  0  0  0  0  0  0  0  0  0  0
    2.7220  -11.6280   -3.6610 C   0  0  0  0  0  0  0  0  0  0  0  0
    2.4420  -12.8400   -4.2800 C   0  0  0  0  0  0  0  0  0  0  0  0
    1.1740  -13.1490   -4.5820 F   0  0  0  0  0  0  0  0  0  0  0  0
    3.4570  -13.7350   -4.5900 C   0  0  0  0  0  0  0  0  0  0  0  0
    4.7790  -13.4140   -4.2770 C   0  0  0  0  0  0  0  0  0  0  0  0
    7.7390   -9.8280   -2.0940 H   0  0  0  0  0  0  0  0  0  0  0  0
    6.3080   -9.7090   -1.2290 H   0  0  0  0  0  0  0  0  0  0  0  0
    7.6320  -10.2370   -0.5700 H   0  0  0  0  0  0  0  0  0  0  0  0
    5.9015  -12.1000   -1.2898 H   0  0  0  0  0  0  0  0  0  0  0  0
    7.7509  -13.6822   -1.6701 H   0  0  0  0  0  0  0  0  0  0  0  0
    8.8835  -12.2455   -1.7638 H   0  0  0  0  0  0  0  0  0  0  0  0
    9.0650  -12.5720    0.5130 H   0  0  0  0  0  0  0  0  0  0  0  0
    4.9050  -14.4420   -0.8616 H   0  0  0  0  0  0  0  0  0  0  0  0
    2.6947  -15.3929   -1.6407 H   0  0  0  0  0  0  0  0  0  0  0  0
    0.0136  -11.2015    0.3764 H   0  0  0  0  0  0  0  0  0  0  0  0
    2.9720  -10.7772    0.2841 H   0  0  0  0  0  0  0  0  0  0  0  0
    6.7453  -10.8666   -3.7938 H   0  0  0  0  0  0  0  0  0  0  0  0
    7.1479  -12.6461   -3.7274 H   0  0  0  0  0  0  0  0  0  0  0  0
    4.2681  -10.3452   -2.8545 H   0  0  0  0  0  0  0  0  0  0  0  0
    1.9077  -10.9286   -3.4206 H   0  0  0  0  0  0  0  0  0  0  0  0
    3.2209  -14.6914   -5.0794 H   0  0  0  0  0  0  0  0  0  0  0  0
    5.5862  -14.1207   -4.5199 H   0  0  0  0  0  0  0  0  0  0  0  0
  1  2  1  0
  2  3  1  0
  3  4  1  0
  4  5  1  0
  5  6  2  0
  6  7  1  0
  7  8  2  0
  8  9  1  0
  9 10  2  0
 10 11  1  0
 11 12  2  0
 12 13  1  0
 13 14  1  0
 14 15  2  0
 15 16  1  0
 16 17  2  0
  8 18  1  0
  2 19  1  0
 19 20  1  0
 20 21  2  0
 21 22  1  0
 22 23  2  0
 23 24  1  0
 23 25  1  0
 25 26  2  0
 18  5  1  0
 26 20  1  0
 17  9  1  0
 16 12  1  0
  1 27  1  0
  1 28  1  0
  1 29  1  0
  2 30  1  1
  3 31  1  0
  3 32  1  0
  4 33  1  0
 10 34  1  0
 11 35  1  0
 15 36  1  0
 17 37  1  0
 19 38  1  0
 19 39  1  0
 21 40  1  0
 22 41  1  0
 25 42  1  0
 26 43  1  0
M  CHG  2   1   1  13  -1
M  END
>  <meeko>  (3) 
{"is_sidechain": [false], "free_energy": -7.258, "intermolecular_energy": -8.431, "internal_energy": -2.58}

$$$$
LIB_DXIAHMIZSNQSST__M_PUB_ALL__e8__s20260927
     RDKit          3D

 43 46  0  0  0  0  0  0  0  0999 V2000
   -2.9340  -18.9520    3.1440 N   0  0  0  0  0  0  0  0  0  0  0  0
   -1.9380  -17.8760    3.2970 C   0  0  2  0  0  0  0  0  0  0  0  0
   -1.4720  -17.7660    4.7800 C   0  0  0  0  0  0  0  0  0  0  0  0
   -0.0240  -17.6150    4.9440 N   0  0  0  0  0  0  0  0  0  0  0  0
    0.5880  -16.4100    5.0740 C   0  0  0  0  0  0  0  0  0  0  0  0
    1.8000  -16.1270    4.6230 N   0  0  0  0  0  0  0  0  0  0  0  0
    1.9640  -14.7450    4.4430 N   0  0  0  0  0  0  0  0  0  0  0  0
    0.7670  -14.1700    4.4760 C   0  0  0  0  0  0  0  0  0  0  0  0
   -0.0290  -13.8390    3.2490 C   0  0  0  0  0  0  0  0  0  0  0  0
   -1.1500  -12.9970    3.4690 C   0  0  0  0  0  0  0  0  0  0  0  0
   -1.3450  -11.8430    2.6970 C   0  0  0  0  0  0  0  0  0  0  0  0
   -0.3430  -11.5550    1.7600 C   0  0  0  0  0  0  0  0  0  0  0  0
    0.0350  -10.3710    1.2170 N   0  0  0  0  0  0  0  0  0  0  0  0
    1.1990  -10.5760    0.5680 N   0  0  0  0  0  0  0  0  0  0  0  0
    1.3490  -11.9150    0.4800 C   0  0  0  0  0  0  0  0  0  0  0  0
    0.5630  -12.5510    1.4020 C   0  0  0  0  0  0  0  0  0  0  0  0
    0.6450  -13.7980    2.0070 C   0  0  0  0  0  0  0  0  0  0  0  0
   -0.1010  -14.9760    5.7960 S   0  0  0  0  0  0  0  0  0  0  0  0
   -2.5460  -16.5780    2.7370 C   0  0  0  0  0  0  0  0  0  0  0  0
   -1.9890  -16.1900    1.3890 C   0  0  0  0  0  0  0  0  0  0  0  0
   -2.5000  -15.0770    0.7010 C   0  0  0  0  0  0  0  0  0  0  0  0
   -1.9710  -14.7100   -0.5370 C   0  0  0  0  0  0  0  0  0  0  0  0
   -0.9350  -15.4540   -1.0880 C   0  0  0  0  0  0  0  0  0  0  0  0
   -0.4280  -15.1000   -2.2760 F   0  0  0  0  0  0  0  0  0  0  0  0
   -0.4180  -16.5600   -0.4250 C   0  0  0  0  0  0  0  0  0  0  0  0
   -0.9450  -16.9290    0.8130 C   0  0  0  0  0  0  0  0  0  0  0  0
   -2.9910  -19.4190    2.2350 H   0  0  0  0  0  0  0  0  0  0  0  0
   -3.0680  -19.6290    3.8960 H   0  0  0  0  0  0  0  0  0  0  0  0
   -3.9480  -18.5590    3.1540 H   0  0  0  0  0  0  0  0  0  0  0  0
   -1.0246  -18.0940    2.7242 H   0  0  0  0  0  0  0  0  0  0  0  0
   -1.9636  -16.8921    5.2323 H   0  0  0  0  0  0  0  0  0  0  0  0
   -1.7491  -18.7112    5.2697 H   0  0  0  0  0  0  0  0  0  0  0  0
    0.5820  -18.4210    4.8380 H   0  0  0  0  0  0  0  0  0  0  0  0
   -1.8753  -13.2531    4.2554 H   0  0  0  0  0  0  0  0  0  0  0  0
   -2.2308  -11.2023    2.8192 H   0  0  0  0  0  0  0  0  0  0  0  0
    2.0120  -12.4246   -0.2347 H   0  0  0  0  0  0  0  0  0  0  0  0
    1.1746  -14.6570    1.5693 H   0  0  0  0  0  0  0  0  0  0  0  0
   -3.6329  -16.7157    2.6390 H   0  0  0  0  0  0  0  0  0  0  0  0
   -2.2917  -15.7702    3.4390 H   0  0  0  0  0  0  0  0  0  0  0  0
   -3.3213  -14.4918    1.1404 H   0  0  0  0  0  0  0  0  0  0  0  0
   -2.3717  -13.8372   -1.0733 H   0  0  0  0  0  0  0  0  0  0  0  0
    0.4015  -17.1410   -0.8732 H   0  0  0  0  0  0  0  0  0  0  0  0
   -0.5394  -17.8048    1.3406 H   0  0  0  0  0  0  0  0  0  0  0  0
  1  2  1  0
  2  3  1  0
  3  4  1  0
  4  5  1  0
  5  6  2  0
  6  7  1  0
  7  8  2  0
  8  9  1  0
  9 10  2  0
 10 11  1  0
 11 12  2  0
 12 13  1  0
 13 14  1  0
 14 15  2  0
 15 16  1  0
 16 17  2  0
  8 18  1  0
  2 19  1  0
 19 20  1  0
 20 21  2  0
 21 22  1  0
 22 23  2  0
 23 24  1  0
 23 25  1  0
 25 26  2  0
 18  5  1  0
 26 20  1  0
 17  9  1  0
 16 12  1  0
  1 27  1  0
  1 28  1  0
  1 29  1  0
  2 30  1  6
  3 31  1  0
  3 32  1  0
  4 33  1  0
 10 34  1  0
 11 35  1  0
 15 36  1  0
 17 37  1  0
 19 38  1  0
 19 39  1  0
 21 40  1  0
 22 41  1  0
 25 42  1  0
 26 43  1  0
M  CHG  2   1   1  13  -1
M  END
>  <meeko>  (4) 
{"is_sidechain": [false], "free_energy": -7.168, "intermolecular_energy": -8.533, "internal_energy": -2.354}

$$$$
LIB_DXIAHMIZSNQSST__M_PUB_ALL__e8__s20260927
     RDKit          3D

 43 46  0  0  0  0  0  0  0  0999 V2000
  -13.8380  -15.3550  -10.3810 N   0  0  0  0  0  0  0  0  0  0  0  0
  -13.9050  -15.2900   -8.9100 C   0  0  2  0  0  0  0  0  0  0  0  0
  -12.8670  -14.2690   -8.3570 C   0  0  0  0  0  0  0  0  0  0  0  0
  -12.9900  -12.9220   -8.9230 N   0  0  0  0  0  0  0  0  0  0  0  0
  -11.9200  -12.1640   -9.2750 C   0  0  0  0  0  0  0  0  0  0  0  0
  -10.9760  -11.7570   -8.4410 N   0  0  0  0  0  0  0  0  0  0  0  0
   -9.7920  -11.4490   -9.1270 N   0  0  0  0  0  0  0  0  0  0  0  0
   -9.8720  -11.9520  -10.3550 C   0  0  0  0  0  0  0  0  0  0  0  0
   -9.2910  -13.2760  -10.7480 C   0  0  0  0  0  0  0  0  0  0  0  0
   -9.2190  -14.2360   -9.7050 C   0  0  0  0  0  0  0  0  0  0  0  0
   -9.7310  -15.5290   -9.8810 C   0  0  0  0  0  0  0  0  0  0  0  0
  -10.3610  -15.7780  -11.1090 C   0  0  0  0  0  0  0  0  0  0  0  0
  -11.3240  -16.6760  -11.4340 N   0  0  0  0  0  0  0  0  0  0  0  0
  -11.7760  -16.3590  -12.6650 N   0  0  0  0  0  0  0  0  0  0  0  0
  -10.8900  -15.4750  -13.1730 C   0  0  0  0  0  0  0  0  0  0  0  0
  -10.1480  -14.9060  -12.1740 C   0  0  0  0  0  0  0  0  0  0  0  0
   -9.4540  -13.7060  -12.0850 C   0  0  0  0  0  0  0  0  0  0  0  0
  -11.5300  -11.6170  -10.8880 S   0  0  0  0  0  0  0  0  0  0  0  0
  -13.7290  -16.7160   -8.3590 C   0  0  0  0  0  0  0  0  0  0  0  0
  -14.2800  -16.8910   -6.9650 C   0  0  0  0  0  0  0  0  0  0  0  0
  -13.4130  -16.9900   -5.8640 C   0  0  0  0  0  0  0  0  0  0  0  0
  -13.9260  -17.1330   -4.5740 C   0  0  0  0  0  0  0  0  0  0  0  0
  -15.3010  -17.1820   -4.3840 C   0  0  0  0  0  0  0  0  0  0  0  0
  -15.7910  -17.3200   -3.1450 F   0  0  0  0  0  0  0  0  0  0  0  0
  -16.1750  -17.0890   -5.4590 C   0  0  0  0  0  0  0  0  0  0  0  0
  -15.6660  -16.9450   -6.7510 C   0  0  0  0  0  0  0  0  0  0  0  0
  -13.3970  -16.1780  -10.8000 H   0  0  0  0  0  0  0  0  0  0  0  0
  -14.6430  -15.0650  -10.9380 H   0  0  0  0  0  0  0  0  0  0  0  0
  -13.1460  -14.6170  -10.7800 H   0  0  0  0  0  0  0  0  0  0  0  0
  -14.8833  -14.9168   -8.5727 H   0  0  0  0  0  0  0  0  0  0  0  0
  -12.9988  -14.1988   -7.2672 H   0  0  0  0  0  0  0  0  0  0  0  0
  -11.8725  -14.6426   -8.6423 H   0  0  0  0  0  0  0  0  0  0  0  0
  -13.8950  -12.4680   -8.9480 H   0  0  0  0  0  0  0  0  0  0  0  0
   -8.7553  -13.9617   -8.7459 H   0  0  0  0  0  0  0  0  0  0  0  0
   -9.6439  -16.3017   -9.1029 H   0  0  0  0  0  0  0  0  0  0  0  0
  -10.7801  -15.2442  -14.2429 H   0  0  0  0  0  0  0  0  0  0  0  0
   -9.0741  -13.1527  -12.9565 H   0  0  0  0  0  0  0  0  0  0  0  0
  -14.2486  -17.4159   -9.0299 H   0  0  0  0  0  0  0  0  0  0  0  0
  -12.6482  -16.9141   -8.3087 H   0  0  0  0  0  0  0  0  0  0  0  0
  -12.3246  -16.9546   -6.0194 H   0  0  0  0  0  0  0  0  0  0  0  0
  -13.2455  -17.2065   -3.7129 H   0  0  0  0  0  0  0  0  0  0  0  0
  -17.2618  -17.1285   -5.2936 H   0  0  0  0  0  0  0  0  0  0  0  0
  -16.3548  -16.8735   -7.6057 H   0  0  0  0  0  0  0  0  0  0  0  0
  1  2  1  0
  2  3  1  0
  3  4  1  0
  4  5  1  0
  5  6  2  0
  6  7  1  0
  7  8  2  0
  8  9  1  0
  9 10  2  0
 10 11  1  0
 11 12  2  0
 12 13  1  0
 13 14  1  0
 14 15  2  0
 15 16  1  0
 16 17  2  0
  8 18  1  0
  2 19  1  0
 19 20  1  0
 20 21  2  0
 21 22  1  0
 22 23  2  0
 23 24  1  0
 23 25  1  0
 25 26  2  0
 18  5  1  0
 26 20  1  0
 17  9  1  0
 16 12  1  0
  1 27  1  0
  1 28  1  0
  1 29  1  0
  2 30  1  6
  3 31  1  0
  3 32  1  0
  4 33  1  0
 10 34  1  0
 11 35  1  0
 15 36  1  0
 17 37  1  0
 19 38  1  0
 19 39  1  0
 21 40  1  0
 22 41  1  0
 25 42  1  0
 26 43  1  0
M  CHG  2   1   1  13  -1
M  END
>  <meeko>  (5) 
{"is_sidechain": [false], "free_energy": -7.159, "intermolecular_energy": -9.524, "internal_energy": -1.351}

$$$$
LIB_DXIAHMIZSNQSST__M_PUB_ALL__e8__s20260927
     RDKit          3D

 43 46  0  0  0  0  0  0  0  0999 V2000
    2.4720  -14.3990    3.0990 N   0  0  0  0  0  0  0  0  0  0  0  0
    1.0630  -14.4310    2.6660 C   0  0  2  0  0  0  0  0  0  0  0  0
    0.5940  -15.8970    2.4310 C   0  0  0  0  0  0  0  0  0  0  0  0
   -0.6720  -16.0130    1.7000 N   0  0  0  0  0  0  0  0  0  0  0  0
   -1.6910  -16.8150    2.1010 C   0  0  0  0  0  0  0  0  0  0  0  0
   -1.7250  -18.1290    1.9400 N   0  0  0  0  0  0  0  0  0  0  0  0
   -2.6010  -18.7290    2.8570 N   0  0  0  0  0  0  0  0  0  0  0  0
   -2.8880  -17.8450    3.8070 C   0  0  0  0  0  0  0  0  0  0  0  0
   -2.1780  -17.7840    5.1250 C   0  0  0  0  0  0  0  0  0  0  0  0
   -1.1000  -18.6960    5.2710 C   0  0  0  0  0  0  0  0  0  0  0  0
    0.1610  -18.2560    5.6980 C   0  0  0  0  0  0  0  0  0  0  0  0
    0.2930  -16.8750    5.9010 C   0  0  0  0  0  0  0  0  0  0  0  0
    1.3920  -16.0820    5.8470 N   0  0  0  0  0  0  0  0  0  0  0  0
    0.9700  -14.8010    5.8640 N   0  0  0  0  0  0  0  0  0  0  0  0
   -0.3330  -14.8410    6.2220 C   0  0  0  0  0  0  0  0  0  0  0  0
   -0.8520  -16.0900    6.0170 C   0  0  0  0  0  0  0  0  0  0  0  0
   -2.1470  -16.5470    5.8100 C   0  0  0  0  0  0  0  0  0  0  0  0
   -3.1280  -16.3070    2.9560 S   0  0  0  0  0  0  0  0  0  0  0  0
    0.9210  -13.5260    1.4300 C   0  0  0  0  0  0  0  0  0  0  0  0
    0.1450  -12.2600    1.7010 C   0  0  0  0  0  0  0  0  0  0  0  0
   -0.8350  -12.2270    2.7070 C   0  0  0  0  0  0  0  0  0  0  0  0
   -1.5380  -11.0500    2.9670 C   0  0  0  0  0  0  0  0  0  0  0  0
   -1.2660   -9.9090    2.2220 C   0  0  0  0  0  0  0  0  0  0  0  0
   -1.9420   -8.7810    2.4740 F   0  0  0  0  0  0  0  0  0  0  0  0
   -0.3030   -9.9220    1.2210 C   0  0  0  0  0  0  0  0  0  0  0  0
    0.4020  -11.0980    0.9590 C   0  0  0  0  0  0  0  0  0  0  0  0
    3.1790  -14.1640    2.3960 H   0  0  0  0  0  0  0  0  0  0  0  0
    2.7170  -13.9830    3.9980 H   0  0  0  0  0  0  0  0  0  0  0  0
    2.8410  -15.3970    3.3260 H   0  0  0  0  0  0  0  0  0  0  0  0
    0.3971  -14.0382    3.4485 H   0  0  0  0  0  0  0  0  0  0  0  0
    1.3729  -16.4207    1.8573 H   0  0  0  0  0  0  0  0  0  0  0  0
    0.4271  -16.3387    3.4245 H   0  0  0  0  0  0  0  0  0  0  0  0
   -0.7670  -15.5800    0.7890 H   0  0  0  0  0  0  0  0  0  0  0  0
   -1.2559  -19.7615    5.0463 H   0  0  0  0  0  0  0  0  0  0  0  0
    0.9963  -18.9523    5.8637 H   0  0  0  0  0  0  0  0  0  0  0  0
   -0.8982  -13.9867    6.6230 H   0  0  0  0  0  0  0  0  0  0  0  0
   -3.0468  -16.0079    6.1413 H   0  0  0  0  0  0  0  0  0  0  0  0
    1.9274  -13.2505    1.0819 H   0  0  0  0  0  0  0  0  0  0  0  0
    0.3610  -14.0949    0.6732 H   0  0  0  0  0  0  0  0  0  0  0  0
   -1.0492  -13.1333    3.2925 H   0  0  0  0  0  0  0  0  0  0  0  0
   -2.3030  -11.0255    3.7571 H   0  0  0  0  0  0  0  0  0  0  0  0
   -0.0973   -9.0117    0.6387 H   0  0  0  0  0  0  0  0  0  0  0  0
    1.1638  -11.1134    0.1657 H   0  0  0  0  0  0  0  0  0  0  0  0
  1  2  1  0
  2  3  1  0
  3  4  1  0
  4  5  1  0
  5  6  2  0
  6  7  1  0
  7  8  2  0
  8  9  1  0
  9 10  2  0
 10 11  1  0
 11 12  2  0
 12 13  1  0
 13 14  1  0
 14 15  2  0
 15 16  1  0
 16 17  2  0
  8 18  1  0
  2 19  1  0
 19 20  1  0
 20 21  2  0
 21 22  1  0
 22 23  2  0
 23 24  1  0
 23 25  1  0
 25 26  2  0
 18  5  1  0
 26 20  1  0
 17  9  1  0
 16 12  1  0
  1 27  1  0
  1 28  1  0
  1 29  1  0
  2 30  1  1
  3 31  1  0
  3 32  1  0
  4 33  1  0
 10 34  1  0
 11 35  1  0
 15 36  1  0
 17 37  1  0
 19 38  1  0
 19 39  1  0
 21 40  1  0
 22 41  1  0
 25 42  1  0
 26 43  1  0
M  CHG  2   1   1  13  -1
M  END
>  <meeko>  (6) 
{"is_sidechain": [false], "free_energy": -6.996, "intermolecular_energy": -9.192, "internal_energy": -1.457}

$$$$
LIB_DXIAHMIZSNQSST__M_PUB_ALL__e8__s20260927
     RDKit          3D

 43 46  0  0  0  0  0  0  0  0999 V2000
    2.3260  -12.7020    0.9070 N   0  0  0  0  0  0  0  0  0  0  0  0
    2.1340  -11.8050   -0.2480 C   0  0  2  0  0  0  0  0  0  0  0  0
    1.0720  -10.7130    0.0760 C   0  0  0  0  0  0  0  0  0  0  0  0
    0.5670  -10.7550    1.4510 N   0  0  0  0  0  0  0  0  0  0  0  0
   -0.7550  -10.7140    1.7590 C   0  0  0  0  0  0  0  0  0  0  0  0
   -1.7170  -10.3860    0.9110 N   0  0  0  0  0  0  0  0  0  0  0  0
   -2.9550  -10.9010    1.3250 N   0  0  0  0  0  0  0  0  0  0  0  0
   -2.7390  -11.8180    2.2620 C   0  0  0  0  0  0  0  0  0  0  0  0
   -2.6640  -13.2880    1.9830 C   0  0  0  0  0  0  0  0  0  0  0  0
   -2.7460  -13.6450    0.6110 C   0  0  0  0  0  0  0  0  0  0  0  0
   -1.7940  -14.4970    0.0330 C   0  0  0  0  0  0  0  0  0  0  0  0
   -0.7470  -14.9070    0.8700 C   0  0  0  0  0  0  0  0  0  0  0  0
    0.5150  -15.3010    0.5660 N   0  0  0  0  0  0  0  0  0  0  0  0
    1.2130  -15.3500    1.7200 N   0  0  0  0  0  0  0  0  0  0  0  0
    0.3010  -15.2750    2.7130 C   0  0  0  0  0  0  0  0  0  0  0  0
   -0.8790  -14.7590    2.2490 C   0  0  0  0  0  0  0  0  0  0  0  0
   -1.9290  -14.1010    2.8750 C   0  0  0  0  0  0  0  0  0  0  0  0
   -1.4690  -11.1360    3.2970 S   0  0  0  0  0  0  0  0  0  0  0  0
    1.7850  -12.6700   -1.4720 C   0  0  0  0  0  0  0  0  0  0  0  0
    2.3740  -12.1490   -2.7600 C   0  0  0  0  0  0  0  0  0  0  0  0
    2.7810  -13.0380   -3.7680 C   0  0  0  0  0  0  0  0  0  0  0  0
    3.3080  -12.5510   -4.9650 C   0  0  0  0  0  0  0  0  0  0  0  0
    3.4320  -11.1800   -5.1540 C   0  0  0  0  0  0  0  0  0  0  0  0
    3.9380  -10.7160   -6.3030 F   0  0  0  0  0  0  0  0  0  0  0  0
    3.0380  -10.2850   -4.1680 C   0  0  0  0  0  0  0  0  0  0  0  0
    2.5100  -10.7680   -2.9700 C   0  0  0  0  0  0  0  0  0  0  0  0
    2.0370  -13.6780    0.8030 H   0  0  0  0  0  0  0  0  0  0  0  0
    3.1850  -12.6460    1.4550 H   0  0  0  0  0  0  0  0  0  0  0  0
    1.6500  -12.4510    1.7210 H   0  0  0  0  0  0  0  0  0  0  0  0
    3.0551  -11.2501   -0.4796 H   0  0  0  0  0  0  0  0  0  0  0  0
    1.5286   -9.7267   -0.0938 H   0  0  0  0  0  0  0  0  0  0  0  0
    0.2117  -10.9037   -0.5825 H   0  0  0  0  0  0  0  0  0  0  0  0
    1.2150  -10.6890    2.2280 H   0  0  0  0  0  0  0  0  0  0  0  0
   -3.5660  -13.2485   -0.0057 H   0  0  0  0  0  0  0  0  0  0  0  0
   -1.8646  -14.8241   -1.0149 H   0  0  0  0  0  0  0  0  0  0  0  0
    0.4816  -15.5860    3.7526 H   0  0  0  0  0  0  0  0  0  0  0  0
   -2.1626  -14.2012    3.9452 H   0  0  0  0  0  0  0  0  0  0  0  0
    2.1663  -13.6874   -1.3004 H   0  0  0  0  0  0  0  0  0  0  0  0
    0.6908  -12.6500   -1.5831 H   0  0  0  0  0  0  0  0  0  0  0  0
    2.6840  -14.1228   -3.6135 H   0  0  0  0  0  0  0  0  0  0  0  0
    3.6235  -13.2488   -5.7546 H   0  0  0  0  0  0  0  0  0  0  0  0
    3.1415   -9.2020   -4.3303 H   0  0  0  0  0  0  0  0  0  0  0  0
    2.1986  -10.0623   -2.1858 H   0  0  0  0  0  0  0  0  0  0  0  0
  1  2  1  0
  2  3  1  0
  3  4  1  0
  4  5  1  0
  5  6  2  0
  6  7  1  0
  7  8  2  0
  8  9  1  0
  9 10  2  0
 10 11  1  0
 11 12  2  0
 12 13  1  0
 13 14  1  0
 14 15  2  0
 15 16  1  0
 16 17  2  0
  8 18  1  0
  2 19  1  0
 19 20  1  0
 20 21  2  0
 21 22  1  0
 22 23  2  0
 23 24  1  0
 23 25  1  0
 25 26  2  0
 18  5  1  0
 26 20  1  0
 17  9  1  0
 16 12  1  0
  1 27  1  0
  1 28  1  0
  1 29  1  0
  2 30  1  6
  3 31  1  0
  3 32  1  0
  4 33  1  0
 10 34  1  0
 11 35  1  0
 15 36  1  0
 17 37  1  0
 19 38  1  0
 19 39  1  0
 21 40  1  0
 22 41  1  0
 25 42  1  0
 26 43  1  0
M  CHG  2   1   1  13  -1
M  END
>  <meeko>  (7) 
{"is_sidechain": [false], "free_energy": -6.977, "intermolecular_energy": -9.285, "internal_energy": -1.338}

$$$$
LIB_DXIAHMIZSNQSST__M_PUB_ALL__e8__s20260927
     RDKit          3D

 43 46  0  0  0  0  0  0  0  0999 V2000
    2.5040  -12.5800    0.9860 N   0  0  0  0  0  0  0  0  0  0  0  0
    1.2630  -12.5730    0.1890 C   0  0  2  0  0  0  0  0  0  0  0  0
    0.0530  -13.0370    1.0520 C   0  0  0  0  0  0  0  0  0  0  0  0
   -1.2110  -13.1260    0.3150 N   0  0  0  0  0  0  0  0  0  0  0  0
   -1.9860  -14.2410    0.3010 C   0  0  0  0  0  0  0  0  0  0  0  0
   -2.2850  -14.9370   -0.7850 N   0  0  0  0  0  0  0  0  0  0  0  0
   -2.6460  -16.2530   -0.4590 N   0  0  0  0  0  0  0  0  0  0  0  0
   -2.2780  -16.4940    0.7950 C   0  0  0  0  0  0  0  0  0  0  0  0
   -0.9940  -17.1710    1.1680 C   0  0  0  0  0  0  0  0  0  0  0  0
   -0.0400  -17.2690    0.1220 C   0  0  0  0  0  0  0  0  0  0  0  0
    1.2830  -16.8470    0.3140 C   0  0  0  0  0  0  0  0  0  0  0  0
    1.5700  -16.2770    1.5620 C   0  0  0  0  0  0  0  0  0  0  0  0
    2.5280  -15.3840    1.9190 N   0  0  0  0  0  0  0  0  0  0  0  0
    2.2380  -14.9550    3.1650 N   0  0  0  0  0  0  0  0  0  0  0  0
    1.2990  -15.8000    3.6430 C   0  0  0  0  0  0  0  0  0  0  0  0
    0.6850  -16.4700    2.6200 C   0  0  0  0  0  0  0  0  0  0  0  0
   -0.5570  -17.0820    2.5090 C   0  0  0  0  0  0  0  0  0  0  0  0
   -2.6950  -15.0220    1.6940 S   0  0  0  0  0  0  0  0  0  0  0  0
    1.4980  -13.4300   -1.0670 C   0  0  0  0  0  0  0  0  0  0  0  0
    2.0140  -12.6380   -2.2440 C   0  0  0  0  0  0  0  0  0  0  0  0
    2.1090  -11.2380   -2.1750 C   0  0  0  0  0  0  0  0  0  0  0  0
    2.6040  -10.5110   -3.2580 C   0  0  0  0  0  0  0  0  0  0  0  0
    3.0010  -11.1800   -4.4100 C   0  0  0  0  0  0  0  0  0  0  0  0
    3.4760  -10.4800   -5.4480 F   0  0  0  0  0  0  0  0  0  0  0  0
    2.9130  -12.5630   -4.4990 C   0  0  0  0  0  0  0  0  0  0  0  0
    2.4180  -13.2940   -3.4170 C   0  0  0  0  0  0  0  0  0  0  0  0
    2.4130  -12.6410    2.0040 H   0  0  0  0  0  0  0  0  0  0  0  0
    3.3060  -13.1260    0.6710 H   0  0  0  0  0  0  0  0  0  0  0  0
    3.0000  -11.6120    0.9560 H   0  0  0  0  0  0  0  0  0  0  0  0
    1.0062  -11.5554   -0.1404 H   0  0  0  0  0  0  0  0  0  0  0  0
    0.2834  -14.0309    1.4632 H   0  0  0  0  0  0  0  0  0  0  0  0
   -0.0891  -12.2755    1.8329 H   0  0  0  0  0  0  0  0  0  0  0  0
   -1.4790  -12.3800   -0.3160 H   0  0  0  0  0  0  0  0  0  0  0  0
   -0.3425  -17.6814   -0.8519 H   0  0  0  0  0  0  0  0  0  0  0  0
    2.0494  -16.9566   -0.4674 H   0  0  0  0  0  0  0  0  0  0  0  0
    1.0605  -15.9316    4.7087 H   0  0  0  0  0  0  0  0  0  0  0  0
   -1.1348  -17.4550    3.3675 H   0  0  0  0  0  0  0  0  0  0  0  0
    2.2326  -14.2117   -0.8235 H   0  0  0  0  0  0  0  0  0  0  0  0
    0.5250  -13.8513   -1.3600 H   0  0  0  0  0  0  0  0  0  0  0  0
    1.7915  -10.7123   -1.2624 H   0  0  0  0  0  0  0  0  0  0  0  0
    2.6797   -9.4151   -3.2006 H   0  0  0  0  0  0  0  0  0  0  0  0
    3.2313  -13.0797   -5.4164 H   0  0  0  0  0  0  0  0  0  0  0  0
    2.3444  -14.3895   -3.4845 H   0  0  0  0  0  0  0  0  0  0  0  0
  1  2  1  0
  2  3  1  0
  3  4  1  0
  4  5  1  0
  5  6  2  0
  6  7  1  0
  7  8  2  0
  8  9  1  0
  9 10  2  0
 10 11  1  0
 11 12  2  0
 12 13  1  0
 13 14  1  0
 14 15  2  0
 15 16  1  0
 16 17  2  0
  8 18  1  0
  2 19  1  0
 19 20  1  0
 20 21  2  0
 21 22  1  0
 22 23  2  0
 23 24  1  0
 23 25  1  0
 25 26  2  0
 18  5  1  0
 26 20  1  0
 17  9  1  0
 16 12  1  0
  1 27  1  0
  1 28  1  0
  1 29  1  0
  2 30  1  6
  3 31  1  0
  3 32  1  0
  4 33  1  0
 10 34  1  0
 11 35  1  0
 15 36  1  0
 17 37  1  0
 19 38  1  0
 19 39  1  0
 21 40  1  0
 22 41  1  0
 25 42  1  0
 26 43  1  0
M  CHG  2   1   1  13  -1
M  END
>  <meeko>  (8) 
{"is_sidechain": [false], "free_energy": -6.971, "intermolecular_energy": -8.938, "internal_energy": -1.676}

$$$$
LIB_DXIAHMIZSNQSST__M_PUB_ALL__e8__s20260927
     RDKit          3D

 43 46  0  0  0  0  0  0  0  0999 V2000
    1.0790  -10.7260    1.2730 N   0  0  0  0  0  0  0  0  0  0  0  0
   -0.1130  -11.5790    1.4380 C   0  0  2  0  0  0  0  0  0  0  0  0
    0.1890  -13.0380    0.9870 C   0  0  0  0  0  0  0  0  0  0  0  0
    1.4050  -13.6090    1.5750 N   0  0  0  0  0  0  0  0  0  0  0  0
    1.3880  -14.6200    2.4800 C   0  0  0  0  0  0  0  0  0  0  0  0
    0.7390  -14.5900    3.6330 N   0  0  0  0  0  0  0  0  0  0  0  0
    0.4820  -15.8860    4.1040 N   0  0  0  0  0  0  0  0  0  0  0  0
    0.6830  -16.7440    3.1110 C   0  0  0  0  0  0  0  0  0  0  0  0
   -0.4120  -17.2700    2.2330 C   0  0  0  0  0  0  0  0  0  0  0  0
   -1.7270  -17.0760    2.7310 C   0  0  0  0  0  0  0  0  0  0  0  0
   -2.7200  -16.4940    1.9300 C   0  0  0  0  0  0  0  0  0  0  0  0
   -2.3120  -16.0710    0.6570 C   0  0  0  0  0  0  0  0  0  0  0  0
   -2.8200  -15.1060   -0.1500 N   0  0  0  0  0  0  0  0  0  0  0  0
   -1.9350  -14.9050   -1.1480 N   0  0  0  0  0  0  0  0  0  0  0  0
   -1.0670  -15.9390   -1.0930 C   0  0  0  0  0  0  0  0  0  0  0  0
   -1.1090  -16.5410    0.1350 C   0  0  0  0  0  0  0  0  0  0  0  0
   -0.1890  -17.3080    0.8380 C   0  0  0  0  0  0  0  0  0  0  0  0
    2.1560  -16.1800    2.2990 S   0  0  0  0  0  0  0  0  0  0  0  0
   -1.2790  -10.9210    0.6810 C   0  0  0  0  0  0  0  0  0  0  0  0
   -2.6150  -11.5670    0.9620 C   0  0  0  0  0  0  0  0  0  0  0  0
   -2.8720  -12.1570    2.2100 C   0  0  0  0  0  0  0  0  0  0  0  0
   -4.1140  -12.7370    2.4730 C   0  0  0  0  0  0  0  0  0  0  0  0
   -5.0960  -12.7310    1.4900 C   0  0  0  0  0  0  0  0  0  0  0  0
   -6.2870  -13.2880    1.7440 F   0  0  0  0  0  0  0  0  0  0  0  0
   -4.8600  -12.1550    0.2480 C   0  0  0  0  0  0  0  0  0  0  0  0
   -3.6190  -11.5740   -0.0180 C   0  0  0  0  0  0  0  0  0  0  0  0
    1.2670  -10.0280    1.9980 H   0  0  0  0  0  0  0  0  0  0  0  0
    1.9540  -11.1370    0.9450 H   0  0  0  0  0  0  0  0  0  0  0  0
    0.9580  -10.0290    0.4470 H   0  0  0  0  0  0  0  0  0  0  0  0
   -0.4019  -11.6605    2.4962 H   0  0  0  0  0  0  0  0  0  0  0  0
   -0.6633  -13.6713    1.2741 H   0  0  0  0  0  0  0  0  0  0  0  0
    0.3486  -13.0061   -0.1009 H   0  0  0  0  0  0  0  0  0  0  0  0
    2.3010  -13.1660    1.4070 H   0  0  0  0  0  0  0  0  0  0  0  0
   -1.9701  -17.3861    3.7580 H   0  0  0  0  0  0  0  0  0  0  0  0
   -3.7564  -16.3764    2.2793 H   0  0  0  0  0  0  0  0  0  0  0  0
   -0.4158  -16.2537   -1.9218 H   0  0  0  0  0  0  0  0  0  0  0  0
    0.6214  -17.8802    0.3628 H   0  0  0  0  0  0  0  0  0  0  0  0
   -1.3340   -9.8628    0.9764 H   0  0  0  0  0  0  0  0  0  0  0  0
   -1.0787  -11.0418   -0.3938 H   0  0  0  0  0  0  0  0  0  0  0  0
   -2.0906  -12.1621    2.9842 H   0  0  0  0  0  0  0  0  0  0  0  0
   -4.3142  -13.1960    3.4524 H   0  0  0  0  0  0  0  0  0  0  0  0
   -5.6464  -12.1568   -0.5212 H   0  0  0  0  0  0  0  0  0  0  0  0
   -3.4272  -11.1193   -1.0011 H   0  0  0  0  0  0  0  0  0  0  0  0
  1  2  1  0
  2  3  1  0
  3  4  1  0
  4  5  1  0
  5  6  2  0
  6  7  1  0
  7  8  2  0
  8  9  1  0
  9 10  2  0
 10 11  1  0
 11 12  2  0
 12 13  1  0
 13 14  1  0
 14 15  2  0
 15 16  1  0
 16 17  2  0
  8 18  1  0
  2 19  1  0
 19 20  1  0
 20 21  2  0
 21 22  1  0
 22 23  2  0
 23 24  1  0
 23 25  1  0
 25 26  2  0
 18  5  1  0
 26 20  1  0
 17  9  1  0
 16 12  1  0
  1 27  1  0
  1 28  1  0
  1 29  1  0
  2 30  1  1
  3 31  1  0
  3 32  1  0
  4 33  1  0
 10 34  1  0
 11 35  1  0
 15 36  1  0
 17 37  1  0
 19 38  1  0
 19 39  1  0
 21 40  1  0
 22 41  1  0
 25 42  1  0
 26 43  1  0
M  CHG  2   1   1  13  -1
M  END
>  <meeko>  (9) 
{"is_sidechain": [false], "free_energy": -6.969, "intermolecular_energy": -9.078, "internal_energy": -1.534}

$$$$
