LIB_MARIUIDCPUZLKZ__M_PUB_ALL__e8__s20260927
     RDKit          3D

 67 70  0  0  0  0  0  0  0  0999 V2000
   11.9270  -12.9300   -1.4090 C   0  0  0  0  0  0  0  0  0  0  0  0
   11.5830  -11.7560   -0.5440 N   0  0  0  0  0  0  0  0  0  0  0  0
   12.7970  -10.9470   -0.1980 C   0  0  0  0  0  0  0  0  0  0  0  0
   10.7460  -12.1470    0.6580 C   0  0  0  0  0  0  0  0  0  0  0  0
    9.2550  -11.7790    0.4850 C   0  0  0  0  0  0  0  0  0  0  0  0
    8.3160  -12.8390    0.8350 N   0  0  0  0  0  0  0  0  0  0  0  0
    7.1320  -12.6250    1.4730 C   0  0  0  0  0  0  0  0  0  0  0  0
    6.7040  -11.4980    1.7000 O   0  0  0  0  0  0  0  0  0  0  0  0
    6.4750  -13.7760    1.7850 N   0  0  0  0  0  0  0  0  0  0  0  0
    5.1670  -13.7750    2.4250 C   0  0  0  0  0  0  0  0  0  0  0  0
    4.0540  -14.2330    1.4650 C   0  0  1  0  0  0  0  0  0  0  0  0
    2.7580  -14.5330    2.2260 C   0  0  0  0  0  0  0  0  0  0  0  0
    1.6090  -14.8580    1.2650 C   0  0  0  0  0  0  0  0  0  0  0  0
    1.4920  -13.8380    0.1130 C   0  0  2  0  0  0  0  0  0  0  0  0
    2.8770  -13.6200   -0.4970 C   0  0  2  0  0  0  0  0  0  0  0  0
    3.7940  -13.1800    0.5110 O   0  0  0  0  0  0  0  0  0  0  0  0
    2.7900  -12.5710   -1.5660 C   0  0  0  0  0  0  0  0  0  0  0  0
    3.4590  -12.6990   -2.7900 C   0  0  0  0  0  0  0  0  0  0  0  0
    3.3270  -11.7140   -3.7850 C   0  0  0  0  0  0  0  0  0  0  0  0
    4.0430  -11.8740   -5.1140 C   0  0  0  0  0  0  0  0  0  0  0  0
    5.3960  -11.8770   -4.9670 F   0  0  0  0  0  0  0  0  0  0  0  0
    3.7220  -13.0430   -5.7230 F   0  0  0  0  0  0  0  0  0  0  0  0
    3.7570  -10.8810   -5.9950 F   0  0  0  0  0  0  0  0  0  0  0  0
    2.5040  -10.6030   -3.5380 C   0  0  0  0  0  0  0  0  0  0  0  0
    1.8450  -10.4620   -2.3130 C   0  0  0  0  0  0  0  0  0  0  0  0
    1.9980  -11.4470   -1.3410 C   0  0  0  0  0  0  0  0  0  0  0  0
    1.4110  -11.2740   -0.0300 N   0  0  0  0  0  0  0  0  0  0  0  0
    0.8340  -12.5120    0.5920 C   0  0  1  0  0  0  0  0  0  0  0  0
   -0.6780  -12.5160    0.4570 C   0  0  0  0  0  0  0  0  0  0  0  0
   -1.3950  -11.3130    0.5610 C   0  0  0  0  0  0  0  0  0  0  0  0
   -2.7820  -11.2960    0.4100 C   0  0  0  0  0  0  0  0  0  0  0  0
   -3.4710  -12.4770    0.1510 C   0  0  0  0  0  0  0  0  0  0  0  0
   -2.7770  -13.6790    0.0430 C   0  0  0  0  0  0  0  0  0  0  0  0
   -1.3890  -13.7010    0.1930 C   0  0  0  0  0  0  0  0  0  0  0  0
   12.1795  -13.7919   -0.7739 H   0  0  0  0  0  0  0  0  0  0  0  0
   11.0651  -13.1826   -2.0441 H   0  0  0  0  0  0  0  0  0  0  0  0
   12.7889  -12.6775   -2.0441 H   0  0  0  0  0  0  0  0  0  0  0  0
   10.9850  -11.1340   -1.1300 H   0  0  0  0  0  0  0  0  0  0  0  0
   12.8947  -10.8819    0.8957 H   0  0  0  0  0  0  0  0  0  0  0  0
   13.6915  -11.4302   -0.6179 H   0  0  0  0  0  0  0  0  0  0  0  0
   12.6954   -9.9354   -0.6179 H   0  0  0  0  0  0  0  0  0  0  0  0
   10.8264  -13.2341    0.8054 H   0  0  0  0  0  0  0  0  0  0  0  0
   11.1289  -11.5920    1.5271 H   0  0  0  0  0  0  0  0  0  0  0  0
    9.0415  -10.9090    1.1233 H   0  0  0  0  0  0  0  0  0  0  0  0
    9.1090  -11.5791   -0.5868 H   0  0  0  0  0  0  0  0  0  0  0  0
    8.6120  -13.7960    0.6920 H   0  0  0  0  0  0  0  0  0  0  0  0
    6.9210  -14.6670    1.6290 H   0  0  0  0  0  0  0  0  0  0  0  0
    5.1937  -14.4562    3.2883 H   0  0  0  0  0  0  0  0  0  0  0  0
    4.9428  -12.7444    2.7376 H   0  0  0  0  0  0  0  0  0  0  0  0
    4.3881  -15.1500    0.9576 H   0  0  0  0  0  0  0  0  0  0  0  0
    2.9238  -15.3941    2.8901 H   0  0  0  0  0  0  0  0  0  0  0  0
    2.4823  -13.6403    2.8067 H   0  0  0  0  0  0  0  0  0  0  0  0
    1.7805  -15.8561    0.8357 H   0  0  0  0  0  0  0  0  0  0  0  0
    0.6724  -14.8192    1.8406 H   0  0  0  0  0  0  0  0  0  0  0  0
    0.8266  -14.2356   -0.6676 H   0  0  0  0  0  0  0  0  0  0  0  0
    3.2322  -14.5687   -0.9256 H   0  0  0  0  0  0  0  0  0  0  0  0
    4.0936  -13.5783   -2.9747 H   0  0  0  0  0  0  0  0  0  0  0  0
    2.3766   -9.8361   -4.3162 H   0  0  0  0  0  0  0  0  0  0  0  0
    1.2128   -9.5829   -2.1194 H   0  0  0  0  0  0  0  0  0  0  0  0
    2.1610  -10.9130    0.5750 H   0  0  0  0  0  0  0  0  0  0  0  0
    0.6850  -10.5460   -0.0620 H   0  0  0  0  0  0  0  0  0  0  0  0
    1.0830  -12.4724    1.6627 H   0  0  0  0  0  0  0  0  0  0  0  0
   -0.8578  -10.3747    0.7635 H   0  0  0  0  0  0  0  0  0  0  0  0
   -3.3319  -10.3472    0.4959 H   0  0  0  0  0  0  0  0  0  0  0  0
   -4.5644  -12.4608    0.0316 H   0  0  0  0  0  0  0  0  0  0  0  0
   -3.3226  -14.6122   -0.1607 H   0  0  0  0  0  0  0  0  0  0  0  0
   -0.8463  -14.6537    0.1039 H   0  0  0  0  0  0  0  0  0  0  0  0
  1  2  1  0
  2  3  1  0
  2  4  1  0
  4  5  1  0
  5  6  1  0
  6  7  1  0
  7  8  2  0
  7  9  1  0
  9 10  1  0
 10 11  1  0
 11 12  1  0
 12 13  1  0
 13 14  1  0
 14 15  1  0
 15 16  1  0
 15 17  1  0
 17 18  2  0
 18 19  1  0
 19 20  1  0
 20 21  1  0
 20 22  1  0
 20 23  1  0
 19 24  2  0
 24 25  1  0
 25 26  2  0
 26 27  1  0
 27 28  1  0
 28 29  1  0
 29 30  2  0
 30 31  1  0
 31 32  2  0
 32 33  1  0
 33 34  2  0
 16 11  1  0
 26 17  1  0
 34 29  1  0
 28 14  1  0
  1 35  1  0
  1 36  1  0
  1 37  1  0
  2 38  1  0
  3 39  1  0
  3 40  1  0
  3 41  1  0
  4 42  1  0
  4 43  1  0
  5 44  1  0
  5 45  1  0
  6 46  1  0
  9 47  1  0
 10 48  1  0
 10 49  1  0
 11 50  1  6
 12 51  1  0
 12 52  1  0
 13 53  1  0
 13 54  1  0
 14 55  1  6
 15 56  1  6
 18 57  1  0
 24 58  1  0
 25 59  1  0
 27 60  1  0
 27 61  1  0
 28 62  1  1
 30 63  1  0
 31 64  1  0
 32 65  1  0
 33 66  1  0
 34 67  1  0
M  CHG  2   2   1  27   1
M  END
>  <meeko>  (1) 
{"is_sidechain": [false], "free_energy": -8.421, "intermolecular_energy": -11.867, "internal_energy": -1.16}

$$$$
LIB_MARIUIDCPUZLKZ__M_PUB_ALL__e8__s20260927
     RDKit          3D

 67 70  0  0  0  0  0  0  0  0999 V2000
   12.0870  -14.7180   -1.2500 C   0  0  0  0  0  0  0  0  0  0  0  0
   12.5320  -13.3240   -0.9240 N   0  0  0  0  0  0  0  0  0  0  0  0
   12.3350  -13.0050    0.5270 C   0  0  0  0  0  0  0  0  0  0  0  0
   11.9410  -12.2920   -1.8630 C   0  0  0  0  0  0  0  0  0  0  0  0
   10.4480  -12.5530   -2.1630 C   0  0  0  0  0  0  0  0  0  0  0  0
    9.5220  -12.0630   -1.1470 N   0  0  0  0  0  0  0  0  0  0  0  0
    8.7140  -12.8690   -0.4040 C   0  0  0  0  0  0  0  0  0  0  0  0
    8.7890  -14.0930   -0.4490 O   0  0  0  0  0  0  0  0  0  0  0  0
    7.8650  -12.1790    0.4050 N   0  0  0  0  0  0  0  0  0  0  0  0
    6.9490  -12.8440    1.3210 C   0  0  0  0  0  0  0  0  0  0  0  0
    5.8590  -13.6350    0.5750 C   0  0  1  0  0  0  0  0  0  0  0  0
    4.7650  -14.1080    1.5370 C   0  0  0  0  0  0  0  0  0  0  0  0
    3.6100  -14.7780    0.7840 C   0  0  0  0  0  0  0  0  0  0  0  0
    3.1300  -13.9490   -0.4250 C   0  0  2  0  0  0  0  0  0  0  0  0
    4.3480  -13.5190   -1.2450 C   0  0  2  0  0  0  0  0  0  0  0  0
    5.2570  -12.7800   -0.4220 O   0  0  0  0  0  0  0  0  0  0  0  0
    3.9000  -12.6450   -2.3790 C   0  0  0  0  0  0  0  0  0  0  0  0
    4.4280  -12.7730   -3.6700 C   0  0  0  0  0  0  0  0  0  0  0  0
    3.9610  -11.9630   -4.7190 C   0  0  0  0  0  0  0  0  0  0  0  0
    4.5290  -12.1250   -6.1180 C   0  0  0  0  0  0  0  0  0  0  0  0
    4.2170  -11.0700   -6.9190 F   0  0  0  0  0  0  0  0  0  0  0  0
    5.8830  -12.2090   -6.1060 F   0  0  0  0  0  0  0  0  0  0  0  0
    4.0720  -13.2350   -6.7530 F   0  0  0  0  0  0  0  0  0  0  0  0
    2.9460  -11.0280   -4.4570 C   0  0  0  0  0  0  0  0  0  0  0  0
    2.4250  -10.8840   -3.1680 C   0  0  0  0  0  0  0  0  0  0  0  0
    2.9100  -11.6930   -2.1440 C   0  0  0  0  0  0  0  0  0  0  0  0
    2.4620  -11.4940   -0.7830 N   0  0  0  0  0  0  0  0  0  0  0  0
    2.2550  -12.7430    0.0230 C   0  0  1  0  0  0  0  0  0  0  0  0
    0.7770  -13.0800    0.1070 C   0  0  0  0  0  0  0  0  0  0  0  0
   -0.0900  -12.2540    0.8410 C   0  0  0  0  0  0  0  0  0  0  0  0
   -1.4560  -12.5340    0.9030 C   0  0  0  0  0  0  0  0  0  0  0  0
   -1.9740  -13.6390    0.2340 C   0  0  0  0  0  0  0  0  0  0  0  0
   -1.1290  -14.4670   -0.4990 C   0  0  0  0  0  0  0  0  0  0  0  0
    0.2380  -14.1920   -0.5650 C   0  0  0  0  0  0  0  0  0  0  0  0
   11.9096  -15.2738   -0.3175 H   0  0  0  0  0  0  0  0  0  0  0  0
   11.1568  -14.6784   -1.8359 H   0  0  0  0  0  0  0  0  0  0  0  0
   12.8681  -15.2247   -1.8359 H   0  0  0  0  0  0  0  0  0  0  0  0
   13.5630  -13.3090   -1.0800 H   0  0  0  0  0  0  0  0  0  0  0  0
   12.8144  -13.7813    1.1415 H   0  0  0  0  0  0  0  0  0  0  0  0
   12.7872  -12.0279    0.7523 H   0  0  0  0  0  0  0  0  0  0  0  0
   11.2588  -12.9717    0.7523 H   0  0  0  0  0  0  0  0  0  0  0  0
   12.0400  -11.2980   -1.4024 H   0  0  0  0  0  0  0  0  0  0  0  0
   12.4892  -12.3525   -2.8147 H   0  0  0  0  0  0  0  0  0  0  0  0
   10.2002  -12.0627   -3.1160 H   0  0  0  0  0  0  0  0  0  0  0  0
   10.3255  -13.6458   -2.1906 H   0  0  0  0  0  0  0  0  0  0  0  0
    9.3970  -11.0620   -1.0680 H   0  0  0  0  0  0  0  0  0  0  0  0
    7.8130  -11.1730    0.3370 H   0  0  0  0  0  0  0  0  0  0  0  0
    7.5214  -13.5384    1.9535 H   0  0  0  0  0  0  0  0  0  0  0  0
    6.4531  -12.0707    1.9260 H   0  0  0  0  0  0  0  0  0  0  0  0
    6.3260  -14.5148    0.1084 H   0  0  0  0  0  0  0  0  0  0  0  0
    5.1982  -14.8306    2.2443 H   0  0  0  0  0  0  0  0  0  0  0  0
    4.3688  -13.2307    2.0692 H   0  0  0  0  0  0  0  0  0  0  0  0
    3.9470  -15.7617    0.4252 H   0  0  0  0  0  0  0  0  0  0  0  0
    2.7650  -14.8686    1.4824 H   0  0  0  0  0  0  0  0  0  0  0  0
    2.4810  -14.5668   -1.0631 H   0  0  0  0  0  0  0  0  0  0  0  0
    4.8523  -14.4158   -1.6342 H   0  0  0  0  0  0  0  0  0  0  0  0
    5.2162  -13.5151   -3.8647 H   0  0  0  0  0  0  0  0  0  0  0  0
    2.5573  -10.4029   -5.2744 H   0  0  0  0  0  0  0  0  0  0  0  0
    1.6407  -10.1399   -2.9650 H   0  0  0  0  0  0  0  0  0  0  0  0
    3.1790  -10.9140   -0.3260 H   0  0  0  0  0  0  0  0  0  0  0  0
    1.5930  -10.9430   -0.7760 H   0  0  0  0  0  0  0  0  0  0  0  0
    2.6157  -12.5253    1.0391 H   0  0  0  0  0  0  0  0  0  0  0  0
    0.3113  -11.3782    1.3720 H   0  0  0  0  0  0  0  0  0  0  0  0
   -2.1246  -11.8799    1.4819 H   0  0  0  0  0  0  0  0  0  0  0  0
   -3.0508  -13.8578    0.2846 H   0  0  0  0  0  0  0  0  0  0  0  0
   -1.5392  -15.3401   -1.0275 H   0  0  0  0  0  0  0  0  0  0  0  0
    0.8993  -14.8504   -1.1474 H   0  0  0  0  0  0  0  0  0  0  0  0
  1  2  1  0
  2  3  1  0
  2  4  1  0
  4  5  1  0
  5  6  1  0
  6  7  1  0
  7  8  2  0
  7  9  1  0
  9 10  1  0
 10 11  1  0
 11 12  1  0
 12 13  1  0
 13 14  1  0
 14 15  1  0
 15 16  1  0
 15 17  1  0
 17 18  2  0
 18 19  1  0
 19 20  1  0
 20 21  1  0
 20 22  1  0
 20 23  1  0
 19 24  2  0
 24 25  1  0
 25 26  2  0
 26 27  1  0
 27 28  1  0
 28 29  1  0
 29 30  2  0
 30 31  1  0
 31 32  2  0
 32 33  1  0
 33 34  2  0
 16 11  1  0
 26 17  1  0
 34 29  1  0
 28 14  1  0
  1 35  1  0
  1 36  1  0
  1 37  1  0
  2 38  1  0
  3 39  1  0
  3 40  1  0
  3 41  1  0
  4 42  1  0
  4 43  1  0
  5 44  1  0
  5 45  1  0
  6 46  1  0
  9 47  1  0
 10 48  1  0
 10 49  1  0
 11 50  1  6
 12 51  1  0
 12 52  1  0
 13 53  1  0
 13 54  1  0
 14 55  1  6
 15 56  1  6
 18 57  1  0
 24 58  1  0
 25 59  1  0
 27 60  1  0
 27 61  1  0
 28 62  1  1
 30 63  1  0
 31 64  1  0
 32 65  1  0
 33 66  1  0
 34 67  1  0
M  CHG  2   2   1  27   1
M  END
>  <meeko>  (2) 
{"is_sidechain": [false], "free_energy": -8.036, "intermolecular_energy": -11.203, "internal_energy": -1.282}

$$$$
LIB_MARIUIDCPUZLKZ__M_PUB_ALL__e8__s20260927
     RDKit          3D

 67 70  0  0  0  0  0  0  0  0999 V2000
    5.9650   -6.8700    1.9890 C   0  0  0  0  0  0  0  0  0  0  0  0
    7.1360   -7.5340    2.6500 N   0  0  0  0  0  0  0  0  0  0  0  0
    7.7560   -6.6530    3.6920 C   0  0  0  0  0  0  0  0  0  0  0  0
    8.1300   -8.0870    1.6480 C   0  0  0  0  0  0  0  0  0  0  0  0
    7.4390   -8.7390    0.4280 C   0  0  0  0  0  0  0  0  0  0  0  0
    7.4630  -10.1970    0.4150 N   0  0  0  0  0  0  0  0  0  0  0  0
    6.6960  -10.9770    1.2260 C   0  0  0  0  0  0  0  0  0  0  0  0
    5.8280  -10.5090    1.9560 O   0  0  0  0  0  0  0  0  0  0  0  0
    6.9660  -12.3060    1.1050 N   0  0  0  0  0  0  0  0  0  0  0  0
    6.2270  -13.3200    1.8430 C   0  0  0  0  0  0  0  0  0  0  0  0
    5.1630  -14.0090    0.9710 C   0  0  1  0  0  0  0  0  0  0  0  0
    3.9790  -14.4870    1.8180 C   0  0  0  0  0  0  0  0  0  0  0  0
    2.8560  -15.0510    0.9410 C   0  0  0  0  0  0  0  0  0  0  0  0
    2.5050  -14.1260   -0.2420 C   0  0  2  0  0  0  0  0  0  0  0  0
    3.7990  -13.7060   -0.9420 C   0  0  2  0  0  0  0  0  0  0  0  0
    4.6760  -13.0650   -0.0090 O   0  0  0  0  0  0  0  0  0  0  0  0
    3.4770  -12.7420   -2.0460 C   0  0  0  0  0  0  0  0  0  0  0  0
    4.0940  -12.8160   -3.3010 C   0  0  0  0  0  0  0  0  0  0  0  0
    3.7430  -11.9200   -4.3260 C   0  0  0  0  0  0  0  0  0  0  0  0
    4.4070  -12.0220   -5.6880 C   0  0  0  0  0  0  0  0  0  0  0  0
    5.7620  -12.0890   -5.5900 F   0  0  0  0  0  0  0  0  0  0  0  0
    4.0160  -13.1360   -6.3560 F   0  0  0  0  0  0  0  0  0  0  0  0
    4.1330  -10.9640   -6.4940 F   0  0  0  0  0  0  0  0  0  0  0  0
    2.7540  -10.9540   -4.0770 C   0  0  0  0  0  0  0  0  0  0  0  0
    2.1440  -10.8660   -2.8220 C   0  0  0  0  0  0  0  0  0  0  0  0
    2.5150  -11.7600   -1.8210 C   0  0  0  0  0  0  0  0  0  0  0  0
    1.9750  -11.6230   -0.4860 N   0  0  0  0  0  0  0  0  0  0  0  0
    1.6530  -12.9080    0.2200 C   0  0  1  0  0  0  0  0  0  0  0  0
    0.1590  -13.1770    0.1750 C   0  0  0  0  0  0  0  0  0  0  0  0
   -0.3280  -14.3200   -0.4800 C   0  0  0  0  0  0  0  0  0  0  0  0
   -1.6960  -14.5970   -0.5050 C   0  0  0  0  0  0  0  0  0  0  0  0
   -2.5930  -13.7390    0.1240 C   0  0  0  0  0  0  0  0  0  0  0  0
   -2.1270  -12.6030    0.7800 C   0  0  0  0  0  0  0  0  0  0  0  0
   -0.7600  -12.3220    0.8080 C   0  0  0  0  0  0  0  0  0  0  0  0
    5.2811   -6.4822    2.7583 H   0  0  0  0  0  0  0  0  0  0  0  0
    6.3205   -6.0391    1.3619 H   0  0  0  0  0  0  0  0  0  0  0  0
    5.4345   -7.6017    1.3619 H   0  0  0  0  0  0  0  0  0  0  0  0
    6.7480   -8.3540    3.1640 H   0  0  0  0  0  0  0  0  0  0  0  0
    7.4927   -7.0271    4.6924 H   0  0  0  0  0  0  0  0  0  0  0  0
    8.8497   -6.6595    3.5742 H   0  0  0  0  0  0  0  0  0  0  0  0
    7.3807   -5.6257    3.5742 H   0  0  0  0  0  0  0  0  0  0  0  0
    8.7689   -7.2645    1.2939 H   0  0  0  0  0  0  0  0  0  0  0  0
    8.7183   -8.8659    2.1552 H   0  0  0  0  0  0  0  0  0  0  0  0
    6.3880   -8.4145    0.4169 H   0  0  0  0  0  0  0  0  0  0  0  0
    8.0049   -8.4134   -0.4573 H   0  0  0  0  0  0  0  0  0  0  0  0
    8.1680  -10.6510   -0.1530 H   0  0  0  0  0  0  0  0  0  0  0  0
    7.7410  -12.6110    0.5350 H   0  0  0  0  0  0  0  0  0  0  0  0
    6.9342  -14.0800    2.2067 H   0  0  0  0  0  0  0  0  0  0  0  0
    5.7113  -12.8232    2.6780 H   0  0  0  0  0  0  0  0  0  0  0  0
    5.6247  -14.8803    0.4835 H   0  0  0  0  0  0  0  0  0  0  0  0
    4.3250  -15.2727    2.5057 H   0  0  0  0  0  0  0  0  0  0  0  0
    3.5829  -13.6261    2.3766 H   0  0  0  0  0  0  0  0  0  0  0  0
    3.1755  -16.0255    0.5433 H   0  0  0  0  0  0  0  0  0  0  0  0
    1.9577  -15.1434    1.5691 H   0  0  0  0  0  0  0  0  0  0  0  0
    1.8787  -14.6704   -0.9640 H   0  0  0  0  0  0  0  0  0  0  0  0
    4.2904  -14.6008   -1.3517 H   0  0  0  0  0  0  0  0  0  0  0  0
    4.8607  -13.5826   -3.4866 H   0  0  0  0  0  0  0  0  0  0  0  0
    2.4566  -10.2601   -4.8771 H   0  0  0  0  0  0  0  0  0  0  0  0
    1.3797  -10.0992   -2.6276 H   0  0  0  0  0  0  0  0  0  0  0  0
    2.6810  -11.1090    0.0590 H   0  0  0  0  0  0  0  0  0  0  0  0
    1.1330  -11.0320   -0.5050 H   0  0  0  0  0  0  0  0  0  0  0  0
    1.9458  -12.7713    1.2715 H   0  0  0  0  0  0  0  0  0  0  0  0
    0.3753  -15.0035   -0.9781 H   0  0  0  0  0  0  0  0  0  0  0  0
   -2.0653  -15.4946   -1.0226 H   0  0  0  0  0  0  0  0  0  0  0  0
   -3.6707  -13.9585    0.1029 H   0  0  0  0  0  0  0  0  0  0  0  0
   -2.8371  -11.9258    1.2771 H   0  0  0  0  0  0  0  0  0  0  0  0
   -0.3987  -11.4237    1.3299 H   0  0  0  0  0  0  0  0  0  0  0  0
  1  2  1  0
  2  3  1  0
  2  4  1  0
  4  5  1  0
  5  6  1  0
  6  7  1  0
  7  8  2  0
  7  9  1  0
  9 10  1  0
 10 11  1  0
 11 12  1  0
 12 13  1  0
 13 14  1  0
 14 15  1  0
 15 16  1  0
 15 17  1  0
 17 18  2  0
 18 19  1  0
 19 20  1  0
 20 21  1  0
 20 22  1  0
 20 23  1  0
 19 24  2  0
 24 25  1  0
 25 26  2  0
 26 27  1  0
 27 28  1  0
 28 29  1  0
 29 30  2  0
 30 31  1  0
 31 32  2  0
 32 33  1  0
 33 34  2  0
 16 11  1  0
 26 17  1  0
 34 29  1  0
 28 14  1  0
  1 35  1  0
  1 36  1  0
  1 37  1  0
  2 38  1  0
  3 39  1  0
  3 40  1  0
  3 41  1  0
  4 42  1  0
  4 43  1  0
  5 44  1  0
  5 45  1  0
  6 46  1  0
  9 47  1  0
 10 48  1  0
 10 49  1  0
 11 50  1  6
 12 51  1  0
 12 52  1  0
 13 53  1  0
 13 54  1  0
 14 55  1  6
 15 56  1  6
 18 57  1  0
 24 58  1  0
 25 59  1  0
 27 60  1  0
 27 61  1  0
 28 62  1  1
 30 63  1  0
 31 64  1  0
 32 65  1  0
 33 66  1  0
 34 67  1  0
M  CHG  2   2   1  27   1
M  END
>  <meeko>  (3) 
{"is_sidechain": [false], "free_energy": -7.795, "intermolecular_energy": -10.689, "internal_energy": -1.455}

$$$$
LIB_MARIUIDCPUZLKZ__M_PUB_ALL__e8__s20260927
     RDKit          3D

 67 70  0  0  0  0  0  0  0  0999 V2000
    5.9210  -12.2070   -4.0940 C   0  0  0  0  0  0  0  0  0  0  0  0
    4.6330  -12.0010   -4.8320 N   0  0  0  0  0  0  0  0  0  0  0  0
    3.6770  -11.1510   -4.0520 C   0  0  0  0  0  0  0  0  0  0  0  0
    4.0330  -13.3030   -5.3250 C   0  0  0  0  0  0  0  0  0  0  0  0
    2.6360  -13.5740   -4.7220 C   0  0  0  0  0  0  0  0  0  0  0  0
    2.5540  -14.7560   -3.8700 N   0  0  0  0  0  0  0  0  0  0  0  0
    2.4920  -14.7090   -2.5100 C   0  0  0  0  0  0  0  0  0  0  0  0
    2.3800  -13.6530   -1.8950 O   0  0  0  0  0  0  0  0  0  0  0  0
    2.5260  -15.9390   -1.9280 N   0  0  0  0  0  0  0  0  0  0  0  0
    2.4210  -16.1220   -0.4880 C   0  0  0  0  0  0  0  0  0  0  0  0
    0.9570  -16.1630   -0.0150 C   0  0  1  0  0  0  0  0  0  0  0  0
    0.7300  -17.3070    0.9790 C   0  0  0  0  0  0  0  0  0  0  0  0
   -0.6890  -17.2710    1.5570 C   0  0  0  0  0  0  0  0  0  0  0  0
   -1.0970  -15.8650    2.0440 C   0  0  2  0  0  0  0  0  0  0  0  0
   -0.7560  -14.8460    0.9550 C   0  0  2  0  0  0  0  0  0  0  0  0
    0.6380  -14.9150    0.6380 O   0  0  0  0  0  0  0  0  0  0  0  0
   -1.0740  -13.4660    1.4490 C   0  0  0  0  0  0  0  0  0  0  0  0
   -1.6980  -12.5110    0.6360 C   0  0  0  0  0  0  0  0  0  0  0  0
   -2.0150  -11.2370    1.1410 C   0  0  0  0  0  0  0  0  0  0  0  0
   -2.7070  -10.2170    0.2540 C   0  0  0  0  0  0  0  0  0  0  0  0
   -2.9370   -9.0470    0.9090 F   0  0  0  0  0  0  0  0  0  0  0  0
   -1.9600   -9.9060   -0.8350 F   0  0  0  0  0  0  0  0  0  0  0  0
   -3.9120  -10.6410   -0.2050 F   0  0  0  0  0  0  0  0  0  0  0  0
   -1.7090  -10.9400    2.4790 C   0  0  0  0  0  0  0  0  0  0  0  0
   -1.0730  -11.8840    3.2910 C   0  0  0  0  0  0  0  0  0  0  0  0
   -0.7630  -13.1340    2.7660 C   0  0  0  0  0  0  0  0  0  0  0  0
   -0.0140  -14.0900    3.5530 N   0  0  0  0  0  0  0  0  0  0  0  0
   -0.4380  -15.5230    3.4100 C   0  0  1  0  0  0  0  0  0  0  0  0
   -1.2810  -15.9460    4.6000 C   0  0  0  0  0  0  0  0  0  0  0  0
   -0.7590  -15.8490    5.9000 C   0  0  0  0  0  0  0  0  0  0  0  0
   -1.5330  -16.2060    7.0060 C   0  0  0  0  0  0  0  0  0  0  0  0
   -2.8350  -16.6620    6.8290 C   0  0  0  0  0  0  0  0  0  0  0  0
   -3.3690  -16.7630    5.5470 C   0  0  0  0  0  0  0  0  0  0  0  0
   -2.6000  -16.4070    4.4380 C   0  0  0  0  0  0  0  0  0  0  0  0
    5.7318  -12.1767   -3.0108 H   0  0  0  0  0  0  0  0  0  0  0  0
    6.3464  -13.1846   -4.3648 H   0  0  0  0  0  0  0  0  0  0  0  0
    6.6301  -11.4109   -4.3648 H   0  0  0  0  0  0  0  0  0  0  0  0
    4.8760  -11.4480   -5.6830 H   0  0  0  0  0  0  0  0  0  0  0  0
    3.8465  -11.3017   -2.9756 H   0  0  0  0  0  0  0  0  0  0  0  0
    3.8381  -10.0924   -4.3038 H   0  0  0  0  0  0  0  0  0  0  0  0
    2.6445  -11.4348   -4.3038 H   0  0  0  0  0  0  0  0  0  0  0  0
    3.9422  -13.2576   -6.4203 H   0  0  0  0  0  0  0  0  0  0  0  0
    4.6987  -14.1197   -5.0090 H   0  0  0  0  0  0  0  0  0  0  0  0
    2.3474  -12.6989   -4.1213 H   0  0  0  0  0  0  0  0  0  0  0  0
    1.9632  -13.7590   -5.5724 H   0  0  0  0  0  0  0  0  0  0  0  0
    2.6580  -15.6610   -4.3100 H   0  0  0  0  0  0  0  0  0  0  0  0
    2.6890  -16.7590   -2.4950 H   0  0  0  0  0  0  0  0  0  0  0  0
    2.9089  -17.0691   -0.2143 H   0  0  0  0  0  0  0  0  0  0  0  0
    2.9105  -15.2657   -0.0011 H   0  0  0  0  0  0  0  0  0  0  0  0
    0.3131  -16.3225   -0.8925 H   0  0  0  0  0  0  0  0  0  0  0  0
    0.8818  -18.2660    0.4620 H   0  0  0  0  0  0  0  0  0  0  0  0
    1.4447  -17.1933    1.8074 H   0  0  0  0  0  0  0  0  0  0  0  0
   -1.3951  -17.5921    0.7771 H   0  0  0  0  0  0  0  0  0  0  0  0
   -0.7110  -17.9438    2.4270 H   0  0  0  0  0  0  0  0  0  0  0  0
   -2.1822  -15.8349    2.2213 H   0  0  0  0  0  0  0  0  0  0  0  0
   -1.3475  -15.0719    0.0555 H   0  0  0  0  0  0  0  0  0  0  0  0
   -1.9424  -12.7598   -0.4073 H   0  0  0  0  0  0  0  0  0  0  0  0
   -1.9722   -9.9551    2.8922 H   0  0  0  0  0  0  0  0  0  0  0  0
   -0.8206  -11.6407    4.3336 H   0  0  0  0  0  0  0  0  0  0  0  0
    0.9680  -13.9990    3.2580 H   0  0  0  0  0  0  0  0  0  0  0  0
   -0.0460  -13.8290    4.5480 H   0  0  0  0  0  0  0  0  0  0  0  0
    0.4823  -16.1255    3.4095 H   0  0  0  0  0  0  0  0  0  0  0  0
    0.2695  -15.4883    6.0485 H   0  0  0  0  0  0  0  0  0  0  0  0
   -1.1122  -16.1264    8.0192 H   0  0  0  0  0  0  0  0  0  0  0  0
   -3.4428  -16.9428    7.7017 H   0  0  0  0  0  0  0  0  0  0  0  0
   -4.3987  -17.1240    5.4080 H   0  0  0  0  0  0  0  0  0  0  0  0
   -3.0292  -16.4876    3.4284 H   0  0  0  0  0  0  0  0  0  0  0  0
  1  2  1  0
  2  3  1  0
  2  4  1  0
  4  5  1  0
  5  6  1  0
  6  7  1  0
  7  8  2  0
  7  9  1  0
  9 10  1  0
 10 11  1  0
 11 12  1  0
 12 13  1  0
 13 14  1  0
 14 15  1  0
 15 16  1  0
 15 17  1  0
 17 18  2  0
 18 19  1  0
 19 20  1  0
 20 21  1  0
 20 22  1  0
 20 23  1  0
 19 24  2  0
 24 25  1  0
 25 26  2  0
 26 27  1  0
 27 28  1  0
 28 29  1  0
 29 30  2  0
 30 31  1  0
 31 32  2  0
 32 33  1  0
 33 34  2  0
 16 11  1  0
 26 17  1  0
 34 29  1  0
 28 14  1  0
  1 35  1  0
  1 36  1  0
  1 37  1  0
  2 38  1  0
  3 39  1  0
  3 40  1  0
  3 41  1  0
  4 42  1  0
  4 43  1  0
  5 44  1  0
  5 45  1  0
  6 46  1  0
  9 47  1  0
 10 48  1  0
 10 49  1  0
 11 50  1  6
 12 51  1  0
 12 52  1  0
 13 53  1  0
 13 54  1  0
 14 55  1  1
 15 56  1  6
 18 57  1  0
 24 58  1  0
 25 59  1  0
 27 60  1  0
 27 61  1  0
 28 62  1  1
 30 63  1  0
 31 64  1  0
 32 65  1  0
 33 66  1  0
 34 67  1  0
M  CHG  2   2   1  27   1
M  END
>  <meeko>  (4) 
{"is_sidechain": [false], "free_energy": -7.787, "intermolecular_energy": -10.757, "internal_energy": -1.376}

$$$$
LIB_MARIUIDCPUZLKZ__M_PUB_ALL__e8__s20260927
     RDKit          3D

 67 70  0  0  0  0  0  0  0  0999 V2000
   12.7850  -11.0970   -0.0400 C   0  0  0  0  0  0  0  0  0  0  0  0
   12.6030  -12.4080   -0.7460 N   0  0  0  0  0  0  0  0  0  0  0  0
   12.6670  -12.2490   -2.2350 C   0  0  0  0  0  0  0  0  0  0  0  0
   11.3810  -13.1620   -0.2620 C   0  0  0  0  0  0  0  0  0  0  0  0
   10.2550  -12.2180    0.2160 C   0  0  0  0  0  0  0  0  0  0  0  0
    8.9840  -12.8750    0.5050 N   0  0  0  0  0  0  0  0  0  0  0  0
    7.8970  -12.2330    1.0150 C   0  0  0  0  0  0  0  0  0  0  0  0
    7.8630  -11.0150    1.1600 O   0  0  0  0  0  0  0  0  0  0  0  0
    6.8620  -13.0710    1.2970 N   0  0  0  0  0  0  0  0  0  0  0  0
    5.5850  -12.5880    1.8030 C   0  0  0  0  0  0  0  0  0  0  0  0
    4.7200  -11.9680    0.6900 C   0  0  1  0  0  0  0  0  0  0  0  0
    5.0470  -12.5870   -0.6730 C   0  0  0  0  0  0  0  0  0  0  0  0
    4.0980  -12.0730   -1.7610 C   0  0  0  0  0  0  0  0  0  0  0  0
    2.6180  -12.1330   -1.3340 C   0  0  2  0  0  0  0  0  0  0  0  0
    2.4800  -11.5230    0.0620 C   0  0  2  0  0  0  0  0  0  0  0  0
    3.3270  -12.2160    0.9850 O   0  0  0  0  0  0  0  0  0  0  0  0
    1.0570  -11.6490    0.5220 C   0  0  0  0  0  0  0  0  0  0  0  0
    0.3940  -10.6050    1.1790 C   0  0  0  0  0  0  0  0  0  0  0  0
   -0.9510  -10.7410    1.5650 C   0  0  0  0  0  0  0  0  0  0  0  0
   -1.6640   -9.5950    2.2610 C   0  0  0  0  0  0  0  0  0  0  0  0
   -2.4650  -10.0330    3.2700 F   0  0  0  0  0  0  0  0  0  0  0  0
   -0.7890   -8.7210    2.8190 F   0  0  0  0  0  0  0  0  0  0  0  0
   -2.4590   -8.8770    1.4270 F   0  0  0  0  0  0  0  0  0  0  0  0
   -1.6260  -11.9370    1.2690 C   0  0  0  0  0  0  0  0  0  0  0  0
   -0.9660  -12.9880    0.6260 C   0  0  0  0  0  0  0  0  0  0  0  0
    0.3680  -12.8310    0.2610 C   0  0  0  0  0  0  0  0  0  0  0  0
    1.1020  -13.9390   -0.3110 N   0  0  0  0  0  0  0  0  0  0  0  0
    2.0610  -13.5840   -1.4100 C   0  0  1  0  0  0  0  0  0  0  0  0
    1.4630  -13.9210   -2.7640 C   0  0  0  0  0  0  0  0  0  0  0  0
    2.1450  -13.5680   -3.9400 C   0  0  0  0  0  0  0  0  0  0  0  0
    1.6230  -13.8970   -5.1920 C   0  0  0  0  0  0  0  0  0  0  0  0
    0.4160  -14.5830   -5.2870 C   0  0  0  0  0  0  0  0  0  0  0  0
   -0.2730  -14.9420   -4.1310 C   0  0  0  0  0  0  0  0  0  0  0  0
    0.2450  -14.6160   -2.8770 C   0  0  0  0  0  0  0  0  0  0  0  0
   12.7624  -11.2600    1.0476 H   0  0  0  0  0  0  0  0  0  0  0  0
   13.7527  -10.6583   -0.3250 H   0  0  0  0  0  0  0  0  0  0  0  0
   11.9734  -10.4113   -0.3250 H   0  0  0  0  0  0  0  0  0  0  0  0
   13.4300  -12.9890   -0.4860 H   0  0  0  0  0  0  0  0  0  0  0  0
   13.0674  -11.2543   -2.4807 H   0  0  0  0  0  0  0  0  0  0  0  0
   13.3235  -13.0234   -2.6586 H   0  0  0  0  0  0  0  0  0  0  0  0
   11.6571  -12.3526   -2.6586 H   0  0  0  0  0  0  0  0  0  0  0  0
   10.9973  -13.7793   -1.0877 H   0  0  0  0  0  0  0  0  0  0  0  0
   11.6867  -13.7792    0.5957 H   0  0  0  0  0  0  0  0  0  0  0  0
   10.5964  -11.7158    1.1332 H   0  0  0  0  0  0  0  0  0  0  0  0
   10.0615  -11.5231   -0.6145 H   0  0  0  0  0  0  0  0  0  0  0  0
    8.9460  -13.8830    0.4240 H   0  0  0  0  0  0  0  0  0  0  0  0
    6.9880  -14.0700    1.2160 H   0  0  0  0  0  0  0  0  0  0  0  0
    5.0380  -13.4315    2.2494 H   0  0  0  0  0  0  0  0  0  0  0  0
    5.7893  -11.8062    2.5494 H   0  0  0  0  0  0  0  0  0  0  0  0
    4.9282  -10.8887    0.6488 H   0  0  0  0  0  0  0  0  0  0  0  0
    6.0801  -12.3261   -0.9463 H   0  0  0  0  0  0  0  0  0  0  0  0
    4.9281  -13.6778   -0.5961 H   0  0  0  0  0  0  0  0  0  0  0  0
    4.3567  -11.0285   -1.9893 H   0  0  0  0  0  0  0  0  0  0  0  0
    4.2173  -12.7223   -2.6408 H   0  0  0  0  0  0  0  0  0  0  0  0
    2.0076  -11.5431   -2.0336 H   0  0  0  0  0  0  0  0  0  0  0  0
    2.7719  -10.4633    0.0197 H   0  0  0  0  0  0  0  0  0  0  0  0
    0.9308   -9.6695    1.3951 H   0  0  0  0  0  0  0  0  0  0  0  0
   -2.6848  -12.0475    1.5461 H   0  0  0  0  0  0  0  0  0  0  0  0
   -1.4947  -13.9283    0.4109 H   0  0  0  0  0  0  0  0  0  0  0  0
    1.6240  -14.3690    0.4640 H   0  0  0  0  0  0  0  0  0  0  0  0
    0.4480  -14.6540   -0.6560 H   0  0  0  0  0  0  0  0  0  0  0  0
    2.9531  -14.2106   -1.2633 H   0  0  0  0  0  0  0  0  0  0  0  0
    3.1003  -13.0267   -3.8737 H   0  0  0  0  0  0  0  0  0  0  0  0
    2.1667  -13.6135   -6.1052 H   0  0  0  0  0  0  0  0  0  0  0  0
    0.0063  -14.8416   -6.2745 H   0  0  0  0  0  0  0  0  0  0  0  0
   -1.2274  -15.4836   -4.2067 H   0  0  0  0  0  0  0  0  0  0  0  0
   -0.3039  -14.9050   -1.9686 H   0  0  0  0  0  0  0  0  0  0  0  0
  1  2  1  0
  2  3  1  0
  2  4  1  0
  4  5  1  0
  5  6  1  0
  6  7  1  0
  7  8  2  0
  7  9  1  0
  9 10  1  0
 10 11  1  0
 11 12  1  0
 12 13  1  0
 13 14  1  0
 14 15  1  0
 15 16  1  0
 15 17  1  0
 17 18  2  0
 18 19  1  0
 19 20  1  0
 20 21  1  0
 20 22  1  0
 20 23  1  0
 19 24  2  0
 24 25  1  0
 25 26  2  0
 26 27  1  0
 27 28  1  0
 28 29  1  0
 29 30  2  0
 30 31  1  0
 31 32  2  0
 32 33  1  0
 33 34  2  0
 16 11  1  0
 26 17  1  0
 34 29  1  0
 28 14  1  0
  1 35  1  0
  1 36  1  0
  1 37  1  0
  2 38  1  0
  3 39  1  0
  3 40  1  0
  3 41  1  0
  4 42  1  0
  4 43  1  0
  5 44  1  0
  5 45  1  0
  6 46  1  0
  9 47  1  0
 10 48  1  0
 10 49  1  0
 11 50  1  6
 12 51  1  0
 12 52  1  0
 13 53  1  0
 13 54  1  0
 14 55  1  6
 15 56  1  6
 18 57  1  0
 24 58  1  0
 25 59  1  0
 27 60  1  0
 27 61  1  0
 28 62  1  1
 30 63  1  0
 31 64  1  0
 32 65  1  0
 33 66  1  0
 34 67  1  0
M  CHG  2   2   1  27   1
M  END
>  <meeko>  (5) 
{"is_sidechain": [false], "free_energy": -7.725, "intermolecular_energy": -11.358, "internal_energy": -0.688}

$$$$
LIB_MARIUIDCPUZLKZ__M_PUB_ALL__e8__s20260927
     RDKit          3D

 67 70  0  0  0  0  0  0  0  0999 V2000
   -0.8110  -19.4420    7.2800 C   0  0  0  0  0  0  0  0  0  0  0  0
   -0.8590  -17.9660    7.5390 N   0  0  0  0  0  0  0  0  0  0  0  0
   -1.7880  -17.2670    6.5920 C   0  0  0  0  0  0  0  0  0  0  0  0
    0.5210  -17.3440    7.6110 C   0  0  0  0  0  0  0  0  0  0  0  0
    1.5230  -18.0170    6.6450 C   0  0  0  0  0  0  0  0  0  0  0  0
    1.5970  -17.4130    5.3190 N   0  0  0  0  0  0  0  0  0  0  0  0
    1.6290  -18.1280    4.1600 C   0  0  0  0  0  0  0  0  0  0  0  0
    1.4770  -19.3450    4.1360 O   0  0  0  0  0  0  0  0  0  0  0  0
    1.8030  -17.3520    3.0550 N   0  0  0  0  0  0  0  0  0  0  0  0
    1.8160  -17.9060    1.7090 C   0  0  0  0  0  0  0  0  0  0  0  0
    0.7670  -17.2410    0.8000 C   0  0  1  0  0  0  0  0  0  0  0  0
   -0.6540  -17.5200    1.3000 C   0  0  0  0  0  0  0  0  0  0  0  0
   -1.6960  -16.7510    0.4810 C   0  0  0  0  0  0  0  0  0  0  0  0
   -1.3280  -15.2650    0.2970 C   0  0  2  0  0  0  0  0  0  0  0  0
    0.1300  -15.1680   -0.1530 C   0  0  2  0  0  0  0  0  0  0  0  0
    0.9820  -15.8120    0.8000 O   0  0  0  0  0  0  0  0  0  0  0  0
    0.5240  -13.7240   -0.2580 C   0  0  0  0  0  0  0  0  0  0  0  0
    1.2910  -13.2380   -1.3240 C   0  0  0  0  0  0  0  0  0  0  0  0
    1.6120  -11.8720   -1.4110 C   0  0  0  0  0  0  0  0  0  0  0  0
    2.4290  -11.3540   -2.5830 C   0  0  0  0  0  0  0  0  0  0  0  0
    2.1820  -12.0530   -3.7230 F   0  0  0  0  0  0  0  0  0  0  0  0
    2.1460  -10.0560   -2.8600 F   0  0  0  0  0  0  0  0  0  0  0  0
    3.7680  -11.4280   -2.3720 F   0  0  0  0  0  0  0  0  0  0  0  0
    1.1420  -10.9970   -0.4180 C   0  0  0  0  0  0  0  0  0  0  0  0
    0.3890  -11.4780    0.6570 C   0  0  0  0  0  0  0  0  0  0  0  0
    0.0910  -12.8360    0.7250 C   0  0  0  0  0  0  0  0  0  0  0  0
   -0.5980  -13.3750    1.8780 N   0  0  0  0  0  0  0  0  0  0  0  0
   -1.6100  -14.4450    1.5900 C   0  0  1  0  0  0  0  0  0  0  0  0
   -3.0150  -13.8710    1.6350 C   0  0  0  0  0  0  0  0  0  0  0  0
   -3.6060  -13.3710    0.4620 C   0  0  0  0  0  0  0  0  0  0  0  0
   -4.9070  -12.8670    0.4810 C   0  0  0  0  0  0  0  0  0  0  0  0
   -5.6350  -12.8570    1.6670 C   0  0  0  0  0  0  0  0  0  0  0  0
   -5.0650  -13.3500    2.8380 C   0  0  0  0  0  0  0  0  0  0  0  0
   -3.7640  -13.8550    2.8240 C   0  0  0  0  0  0  0  0  0  0  0  0
   -0.7934  -19.9820    8.2382 H   0  0  0  0  0  0  0  0  0  0  0  0
   -1.6998  -19.7426    6.7059 H   0  0  0  0  0  0  0  0  0  0  0  0
    0.0955  -19.6842    6.7059 H   0  0  0  0  0  0  0  0  0  0  0  0
   -1.2820  -17.8550    8.4850 H   0  0  0  0  0  0  0  0  0  0  0  0
   -2.5385  -16.7023    7.1645 H   0  0  0  0  0  0  0  0  0  0  0  0
   -1.2135  -16.5753    5.9584 H   0  0  0  0  0  0  0  0  0  0  0  0
   -2.2935  -18.0107    5.9584 H   0  0  0  0  0  0  0  0  0  0  0  0
    0.4418  -16.2780    7.3513 H   0  0  0  0  0  0  0  0  0  0  0  0
    0.8980  -17.4830    8.6350 H   0  0  0  0  0  0  0  0  0  0  0  0
    2.5232  -17.9663    7.1000 H   0  0  0  0  0  0  0  0  0  0  0  0
    1.1645  -19.0462    6.4960 H   0  0  0  0  0  0  0  0  0  0  0  0
    1.7420  -16.4130    5.2640 H   0  0  0  0  0  0  0  0  0  0  0  0
    1.9900  -16.3650    3.1590 H   0  0  0  0  0  0  0  0  0  0  0  0
    2.8134  -17.7520    1.2715 H   0  0  0  0  0  0  0  0  0  0  0  0
    1.5730  -18.9764    1.7805 H   0  0  0  0  0  0  0  0  0  0  0  0
    0.8744  -17.6551   -0.2134 H   0  0  0  0  0  0  0  0  0  0  0  0
   -0.8576  -18.5978    1.2166 H   0  0  0  0  0  0  0  0  0  0  0  0
   -0.7238  -17.1894    2.3468 H   0  0  0  0  0  0  0  0  0  0  0  0
   -1.7791  -17.2186   -0.5112 H   0  0  0  0  0  0  0  0  0  0  0  0
   -2.6479  -16.7925    1.0306 H   0  0  0  0  0  0  0  0  0  0  0  0
   -1.9633  -14.8204   -0.4832 H   0  0  0  0  0  0  0  0  0  0  0  0
    0.2352  -15.6611   -1.1306 H   0  0  0  0  0  0  0  0  0  0  0  0
    1.6457  -13.9315   -2.1006 H   0  0  0  0  0  0  0  0  0  0  0  0
    1.3686   -9.9228   -0.4869 H   0  0  0  0  0  0  0  0  0  0  0  0
    0.0359  -10.7911    1.4403 H   0  0  0  0  0  0  0  0  0  0  0  0
    0.1310  -13.7590    2.4940 H   0  0  0  0  0  0  0  0  0  0  0  0
   -1.0530  -12.6160    2.4020 H   0  0  0  0  0  0  0  0  0  0  0  0
   -1.5178  -15.1901    2.3940 H   0  0  0  0  0  0  0  0  0  0  0  0
   -3.0377  -13.3770   -0.4798 H   0  0  0  0  0  0  0  0  0  0  0  0
   -5.3581  -12.4768   -0.4433 H   0  0  0  0  0  0  0  0  0  0  0  0
   -6.6607  -12.4597    1.6795 H   0  0  0  0  0  0  0  0  0  0  0  0
   -5.6409  -13.3414    3.7752 H   0  0  0  0  0  0  0  0  0  0  0  0
   -3.3207  -14.2442    3.7524 H   0  0  0  0  0  0  0  0  0  0  0  0
  1  2  1  0
  2  3  1  0
  2  4  1  0
  4  5  1  0
  5  6  1  0
  6  7  1  0
  7  8  2  0
  7  9  1  0
  9 10  1  0
 10 11  1  0
 11 12  1  0
 12 13  1  0
 13 14  1  0
 14 15  1  0
 15 16  1  0
 15 17  1  0
 17 18  2  0
 18 19  1  0
 19 20  1  0
 20 21  1  0
 20 22  1  0
 20 23  1  0
 19 24  2  0
 24 25  1  0
 25 26  2  0
 26 27  1  0
 27 28  1  0
 28 29  1  0
 29 30  2  0
 30 31  1  0
 31 32  2  0
 32 33  1  0
 33 34  2  0
 16 11  1  0
 26 17  1  0
 34 29  1  0
 28 14  1  0
  1 35  1  0
  1 36  1  0
  1 37  1  0
  2 38  1  0
  3 39  1  0
  3 40  1  0
  3 41  1  0
  4 42  1  0
  4 43  1  0
  5 44  1  0
  5 45  1  0
  6 46  1  0
  9 47  1  0
 10 48  1  0
 10 49  1  0
 11 50  1  6
 12 51  1  0
 12 52  1  0
 13 53  1  0
 13 54  1  0
 14 55  1  6
 15 56  1  6
 18 57  1  0
 24 58  1  0
 25 59  1  0
 27 60  1  0
 27 61  1  0
 28 62  1  1
 30 63  1  0
 31 64  1  0
 32 65  1  0
 33 66  1  0
 34 67  1  0
M  CHG  2   2   1  27   1
M  END
>  <meeko>  (6) 
{"is_sidechain": [false], "free_energy": -7.723, "intermolecular_energy": -10.502, "internal_energy": -1.541}

$$$$
LIB_MARIUIDCPUZLKZ__M_PUB_ALL__e8__s20260927
     RDKit          3D

 67 70  0  0  0  0  0  0  0  0999 V2000
    0.2170  -14.8910   -1.4470 C   0  0  0  0  0  0  0  0  0  0  0  0
    0.2660  -15.6120   -0.1330 N   0  0  0  0  0  0  0  0  0  0  0  0
    0.0470  -17.0860   -0.3010 C   0  0  0  0  0  0  0  0  0  0  0  0
   -0.6300  -14.9760    0.9110 C   0  0  0  0  0  0  0  0  0  0  0  0
    0.0450  -14.8980    2.2990 C   0  0  0  0  0  0  0  0  0  0  0  0
    1.2590  -14.0900    2.3470 N   0  0  0  0  0  0  0  0  0  0  0  0
    2.5130  -14.5930    2.1780 C   0  0  0  0  0  0  0  0  0  0  0  0
    2.7130  -15.7590    1.8500 O   0  0  0  0  0  0  0  0  0  0  0  0
    3.4930  -13.6680    2.3680 N   0  0  0  0  0  0  0  0  0  0  0  0
    4.9040  -13.9810    2.1880 C   0  0  0  0  0  0  0  0  0  0  0  0
    5.6520  -12.8630    1.4400 C   0  0  1  0  0  0  0  0  0  0  0  0
    7.1340  -12.8330    1.8300 C   0  0  0  0  0  0  0  0  0  0  0  0
    7.9120  -11.8140    0.9910 C   0  0  0  0  0  0  0  0  0  0  0  0
    7.6170  -11.9380   -0.5170 C   0  0  2  0  0  0  0  0  0  0  0  0
    6.1020  -12.0050   -0.7210 C   0  0  2  0  0  0  0  0  0  0  0  0
    5.5560  -13.1020    0.0180 O   0  0  0  0  0  0  0  0  0  0  0  0
    5.8050  -12.2060   -2.1780 C   0  0  0  0  0  0  0  0  0  0  0  0
    4.7750  -11.5150   -2.8290 C   0  0  0  0  0  0  0  0  0  0  0  0
    4.5460  -11.6990   -4.2040 C   0  0  0  0  0  0  0  0  0  0  0  0
    3.4380  -10.9300   -4.9020 C   0  0  0  0  0  0  0  0  0  0  0  0
    3.1860   -9.7390   -4.2950 F   0  0  0  0  0  0  0  0  0  0  0  0
    3.7570  -10.6440   -6.1890 F   0  0  0  0  0  0  0  0  0  0  0  0
    2.2590  -11.6020   -4.9290 F   0  0  0  0  0  0  0  0  0  0  0  0
    5.3740  -12.5790   -4.9200 C   0  0  0  0  0  0  0  0  0  0  0  0
    6.3940  -13.2830   -4.2730 C   0  0  0  0  0  0  0  0  0  0  0  0
    6.5960  -13.0890   -2.9100 C   0  0  0  0  0  0  0  0  0  0  0  0
    7.5760  -13.8810   -2.1980 N   0  0  0  0  0  0  0  0  0  0  0  0
    8.3590  -13.1530   -1.1450 C   0  0  1  0  0  0  0  0  0  0  0  0
    9.7430  -12.8020   -1.6620 C   0  0  0  0  0  0  0  0  0  0  0  0
   10.8080  -12.6430   -0.7610 C   0  0  0  0  0  0  0  0  0  0  0  0
   12.0920  -12.3490   -1.2230 C   0  0  0  0  0  0  0  0  0  0  0  0
   12.3300  -12.2130   -2.5870 C   0  0  0  0  0  0  0  0  0  0  0  0
   11.2850  -12.3700   -3.4950 C   0  0  0  0  0  0  0  0  0  0  0  0
    9.9990  -12.6640   -3.0380 C   0  0  0  0  0  0  0  0  0  0  0  0
    0.1434  -13.8081   -1.2685 H   0  0  0  0  0  0  0  0  0  0  0  0
    1.1319  -15.1071   -2.0182 H   0  0  0  0  0  0  0  0  0  0  0  0
   -0.6603  -15.2289   -2.0182 H   0  0  0  0  0  0  0  0  0  0  0  0
    1.2430  -15.5080    0.2140 H   0  0  0  0  0  0  0  0  0  0  0  0
   -0.0236  -17.5613    0.6885 H   0  0  0  0  0  0  0  0  0  0  0  0
   -0.8864  -17.2570   -0.8574 H   0  0  0  0  0  0  0  0  0  0  0  0
    0.8904  -17.5209   -0.8574 H   0  0  0  0  0  0  0  0  0  0  0  0
   -0.8846  -13.9569    0.5844 H   0  0  0  0  0  0  0  0  0  0  0  0
   -1.5277  -15.6041    1.0097 H   0  0  0  0  0  0  0  0  0  0  0  0
   -0.6791  -14.4693    3.0075 H   0  0  0  0  0  0  0  0  0  0  0  0
    0.3473  -15.9246    2.5532 H   0  0  0  0  0  0  0  0  0  0  0  0
    1.1700  -13.1230    2.6300 H   0  0  0  0  0  0  0  0  0  0  0  0
    3.2550  -12.7460    2.7040 H   0  0  0  0  0  0  0  0  0  0  0  0
    5.3663  -14.1177    3.1767 H   0  0  0  0  0  0  0  0  0  0  0  0
    4.9742  -14.8986    1.5855 H   0  0  0  0  0  0  0  0  0  0  0  0
    5.1942  -11.8996    1.7090 H   0  0  0  0  0  0  0  0  0  0  0  0
    7.2191  -12.5614    2.8925 H   0  0  0  0  0  0  0  0  0  0  0  0
    7.5606  -13.8302    1.6469 H   0  0  0  0  0  0  0  0  0  0  0  0
    7.6364  -10.8017    1.3217 H   0  0  0  0  0  0  0  0  0  0  0  0
    8.9842  -12.0113    1.1378 H   0  0  0  0  0  0  0  0  0  0  0  0
    8.0006  -11.0512   -1.0429 H   0  0  0  0  0  0  0  0  0  0  0  0
    5.6517  -11.0653   -0.3686 H   0  0  0  0  0  0  0  0  0  0  0  0
    4.1391  -10.8217   -2.2589 H   0  0  0  0  0  0  0  0  0  0  0  0
    5.2184  -12.7156   -6.0003 H   0  0  0  0  0  0  0  0  0  0  0  0
    7.0299  -13.9826   -4.8353 H   0  0  0  0  0  0  0  0  0  0  0  0
    7.0560  -14.6530   -1.7570 H   0  0  0  0  0  0  0  0  0  0  0  0
    8.2310  -14.3130   -2.8640 H   0  0  0  0  0  0  0  0  0  0  0  0
    8.4743  -13.8492   -0.3012 H   0  0  0  0  0  0  0  0  0  0  0  0
   10.6289  -12.7511    0.3189 H   0  0  0  0  0  0  0  0  0  0  0  0
   12.9177  -12.2245   -0.5069 H   0  0  0  0  0  0  0  0  0  0  0  0
   13.3428  -11.9816   -2.9484 H   0  0  0  0  0  0  0  0  0  0  0  0
   11.4734  -12.2622   -4.5734 H   0  0  0  0  0  0  0  0  0  0  0  0
    9.1789  -12.7888   -3.7604 H   0  0  0  0  0  0  0  0  0  0  0  0
  1  2  1  0
  2  3  1  0
  2  4  1  0
  4  5  1  0
  5  6  1  0
  6  7  1  0
  7  8  2  0
  7  9  1  0
  9 10  1  0
 10 11  1  0
 11 12  1  0
 12 13  1  0
 13 14  1  0
 14 15  1  0
 15 16  1  0
 15 17  1  0
 17 18  2  0
 18 19  1  0
 19 20  1  0
 20 21  1  0
 20 22  1  0
 20 23  1  0
 19 24  2  0
 24 25  1  0
 25 26  2  0
 26 27  1  0
 27 28  1  0
 28 29  1  0
 29 30  2  0
 30 31  1  0
 31 32  2  0
 32 33  1  0
 33 34  2  0
 16 11  1  0
 26 17  1  0
 34 29  1  0
 28 14  1  0
  1 35  1  0
  1 36  1  0
  1 37  1  0
  2 38  1  0
  3 39  1  0
  3 40  1  0
  3 41  1  0
  4 42  1  0
  4 43  1  0
  5 44  1  0
  5 45  1  0
  6 46  1  0
  9 47  1  0
 10 48  1  0
 10 49  1  0
 11 50  1  6
 12 51  1  0
 12 52  1  0
 13 53  1  0
 13 54  1  0
 14 55  1  6
 15 56  1  1
 18 57  1  0
 24 58  1  0
 25 59  1  0
 27 60  1  0
 27 61  1  0
 28 62  1  1
 30 63  1  0
 31 64  1  0
 32 65  1  0
 33 66  1  0
 34 67  1  0
M  CHG  2   2   1  27   1
M  END
>  <meeko>  (7) 
{"is_sidechain": [false], "free_energy": -7.69, "intermolecular_energy": -10.57, "internal_energy": -1.427}

$$$$
LIB_MARIUIDCPUZLKZ__M_PUB_ALL__e8__s20260927
     RDKit          3D

 67 70  0  0  0  0  0  0  0  0999 V2000
    2.1700  -18.1660    8.5160 C   0  0  0  0  0  0  0  0  0  0  0  0
    2.5500  -19.5000    7.9460 N   0  0  0  0  0  0  0  0  0  0  0  0
    3.7600  -19.4020    7.0660 C   0  0  0  0  0  0  0  0  0  0  0  0
    1.3770  -20.2080    7.2970 C   0  0  0  0  0  0  0  0  0  0  0  0
    0.3710  -19.2240    6.6610 C   0  0  0  0  0  0  0  0  0  0  0  0
    0.4510  -19.1160    5.2080 N   0  0  0  0  0  0  0  0  0  0  0  0
    1.0800  -18.0990    4.5560 C   0  0  0  0  0  0  0  0  0  0  0  0
    1.7380  -17.2480    5.1480 O   0  0  0  0  0  0  0  0  0  0  0  0
    0.9350  -18.1570    3.2040 N   0  0  0  0  0  0  0  0  0  0  0  0
    1.5690  -17.1970    2.3110 C   0  0  0  0  0  0  0  0  0  0  0  0
    0.5370  -16.3940    1.5000 C   0  0  1  0  0  0  0  0  0  0  0  0
   -0.4820  -15.7140    2.4210 C   0  0  0  0  0  0  0  0  0  0  0  0
   -1.4280  -14.8040    1.6310 C   0  0  0  0  0  0  0  0  0  0  0  0
   -0.6810  -13.8750    0.6520 C   0  0  2  0  0  0  0  0  0  0  0  0
    0.3250  -14.7050   -0.1470 C   0  0  2  0  0  0  0  0  0  0  0  0
    1.2250  -15.3750    0.7420 O   0  0  0  0  0  0  0  0  0  0  0  0
    1.1140  -13.7990   -1.0460 C   0  0  0  0  0  0  0  0  0  0  0  0
    1.4150  -14.1430   -2.3700 C   0  0  0  0  0  0  0  0  0  0  0  0
    2.1250  -13.2560   -3.1970 C   0  0  0  0  0  0  0  0  0  0  0  0
    2.4290  -13.6330   -4.6370 C   0  0  0  0  0  0  0  0  0  0  0  0
    1.3200  -14.0690   -5.2930 F   0  0  0  0  0  0  0  0  0  0  0  0
    2.9030  -12.5780   -5.3450 F   0  0  0  0  0  0  0  0  0  0  0  0
    3.3510  -14.6240   -4.7440 F   0  0  0  0  0  0  0  0  0  0  0  0
    2.5210  -12.0110   -2.6790 C   0  0  0  0  0  0  0  0  0  0  0  0
    2.2370  -11.6680   -1.3540 C   0  0  0  0  0  0  0  0  0  0  0  0
    1.5390  -12.5670   -0.5540 C   0  0  0  0  0  0  0  0  0  0  0  0
    1.3240  -12.2790    0.8480 N   0  0  0  0  0  0  0  0  0  0  0  0
   -0.0140  -12.6820    1.3960 C   0  0  1  0  0  0  0  0  0  0  0  0
   -0.9240  -11.4720    1.5140 C   0  0  0  0  0  0  0  0  0  0  0  0
   -0.9970  -10.7650    2.7260 C   0  0  0  0  0  0  0  0  0  0  0  0
   -1.8050   -9.6340    2.8410 C   0  0  0  0  0  0  0  0  0  0  0  0
   -2.5500   -9.1920    1.7510 C   0  0  0  0  0  0  0  0  0  0  0  0
   -2.4880   -9.8810    0.5420 C   0  0  0  0  0  0  0  0  0  0  0  0
   -1.6810  -11.0130    0.4220 C   0  0  0  0  0  0  0  0  0  0  0  0
    2.1851  -18.2189    9.6146 H   0  0  0  0  0  0  0  0  0  0  0  0
    2.8869  -17.4042    8.1757 H   0  0  0  0  0  0  0  0  0  0  0  0
    1.1593  -17.8963    8.1757 H   0  0  0  0  0  0  0  0  0  0  0  0
    2.8360  -20.0870    8.7590 H   0  0  0  0  0  0  0  0  0  0  0  0
    4.6626  -19.3289    7.6905 H   0  0  0  0  0  0  0  0  0  0  0  0
    3.8251  -20.2978    6.4310 H   0  0  0  0  0  0  0  0  0  0  0  0
    3.6801  -18.5074    6.4310 H   0  0  0  0  0  0  0  0  0  0  0  0
    1.7593  -20.8778    6.5127 H   0  0  0  0  0  0  0  0  0  0  0  0
    0.8472  -20.7665    8.0828 H   0  0  0  0  0  0  0  0  0  0  0  0
   -0.6442  -19.5563    6.9234 H   0  0  0  0  0  0  0  0  0  0  0  0
    0.6202  -18.2289    7.0582 H   0  0  0  0  0  0  0  0  0  0  0  0
   -0.0830  -19.7750    4.6570 H   0  0  0  0  0  0  0  0  0  0  0  0
    0.3220  -18.8470    2.7940 H   0  0  0  0  0  0  0  0  0  0  0  0
    2.1708  -16.4982    2.9106 H   0  0  0  0  0  0  0  0  0  0  0  0
    2.1969  -17.7564    1.6019 H   0  0  0  0  0  0  0  0  0  0  0  0
    0.0039  -17.0876    0.8331 H   0  0  0  0  0  0  0  0  0  0  0  0
   -1.0735  -16.4871    2.9332 H   0  0  0  0  0  0  0  0  0  0  0  0
    0.0658  -15.0967    3.1482 H   0  0  0  0  0  0  0  0  0  0  0  0
   -2.1241  -15.4334    1.0571 H   0  0  0  0  0  0  0  0  0  0  0  0
   -1.9577  -14.1671    2.3547 H   0  0  0  0  0  0  0  0  0  0  0  0
   -1.3976  -13.4248   -0.0507 H   0  0  0  0  0  0  0  0  0  0  0  0
   -0.2206  -15.4500   -0.7447 H   0  0  0  0  0  0  0  0  0  0  0  0
    1.0924  -15.1171   -2.7663 H   0  0  0  0  0  0  0  0  0  0  0  0
    3.0596  -11.2997   -3.3224 H   0  0  0  0  0  0  0  0  0  0  0  0
    2.5617  -10.6984   -0.9485 H   0  0  0  0  0  0  0  0  0  0  0  0
    2.0610  -12.7810    1.3610 H   0  0  0  0  0  0  0  0  0  0  0  0
    1.4710  -11.2770    1.0290 H   0  0  0  0  0  0  0  0  0  0  0  0
    0.1662  -13.0764    2.4069 H   0  0  0  0  0  0  0  0  0  0  0  0
   -0.4114  -11.1067    3.5922 H   0  0  0  0  0  0  0  0  0  0  0  0
   -1.8538   -9.0896    3.7956 H   0  0  0  0  0  0  0  0  0  0  0  0
   -3.1867   -8.2999    1.8445 H   0  0  0  0  0  0  0  0  0  0  0  0
   -3.0762   -9.5321   -0.3196 H   0  0  0  0  0  0  0  0  0  0  0  0
   -1.6367  -11.5514   -0.5362 H   0  0  0  0  0  0  0  0  0  0  0  0
  1  2  1  0
  2  3  1  0
  2  4  1  0
  4  5  1  0
  5  6  1  0
  6  7  1  0
  7  8  2  0
  7  9  1  0
  9 10  1  0
 10 11  1  0
 11 12  1  0
 12 13  1  0
 13 14  1  0
 14 15  1  0
 15 16  1  0
 15 17  1  0
 17 18  2  0
 18 19  1  0
 19 20  1  0
 20 21  1  0
 20 22  1  0
 20 23  1  0
 19 24  2  0
 24 25  1  0
 25 26  2  0
 26 27  1  0
 27 28  1  0
 28 29  1  0
 29 30  2  0
 30 31  1  0
 31 32  2  0
 32 33  1  0
 33 34  2  0
 16 11  1  0
 26 17  1  0
 34 29  1  0
 28 14  1  0
  1 35  1  0
  1 36  1  0
  1 37  1  0
  2 38  1  0
  3 39  1  0
  3 40  1  0
  3 41  1  0
  4 42  1  0
  4 43  1  0
  5 44  1  0
  5 45  1  0
  6 46  1  0
  9 47  1  0
 10 48  1  0
 10 49  1  0
 11 50  1  6
 12 51  1  0
 12 52  1  0
 13 53  1  0
 13 54  1  0
 14 55  1  6
 15 56  1  6
 18 57  1  0
 24 58  1  0
 25 59  1  0
 27 60  1  0
 27 61  1  0
 28 62  1  1
 30 63  1  0
 31 64  1  0
 32 65  1  0
 33 66  1  0
 34 67  1  0
M  CHG  2   2   1  27   1
M  END
>  <meeko>  (8) 
{"is_sidechain": [false], "free_energy": -7.562, "intermolecular_energy": -10.447, "internal_energy": -1.37}

$$$$
LIB_MARIUIDCPUZLKZ__M_PUB_ALL__e8__s20260927
     RDKit          3D

 67 70  0  0  0  0  0  0  0  0999 V2000
   10.0160  -12.9880   -0.6960 C   0  0  0  0  0  0  0  0  0  0  0  0
   11.5000  -13.1250   -0.8610 N   0  0  0  0  0  0  0  0  0  0  0  0
   12.2200  -12.9570    0.4420 C   0  0  0  0  0  0  0  0  0  0  0  0
   12.0420  -12.2530   -1.9760 C   0  0  0  0  0  0  0  0  0  0  0  0
   12.6260  -13.0810   -3.1430 C   0  0  0  0  0  0  0  0  0  0  0  0
   11.6430  -13.8310   -3.9180 N   0  0  0  0  0  0  0  0  0  0  0  0
   11.2660  -15.1080   -3.6340 C   0  0  0  0  0  0  0  0  0  0  0  0
   11.6420  -15.6940   -2.6230 O   0  0  0  0  0  0  0  0  0  0  0  0
   10.4130  -15.6340   -4.5560 N   0  0  0  0  0  0  0  0  0  0  0  0
    9.8470  -16.9680   -4.4200 C   0  0  0  0  0  0  0  0  0  0  0  0
    8.4370  -17.0620   -5.0290 C   0  0  1  0  0  0  0  0  0  0  0  0
    7.3910  -17.3750   -3.9530 C   0  0  0  0  0  0  0  0  0  0  0  0
    5.9710  -17.3360   -4.5260 C   0  0  0  0  0  0  0  0  0  0  0  0
    5.7070  -16.0740   -5.3730 C   0  0  2  0  0  0  0  0  0  0  0  0
    6.8650  -15.8850   -6.3540 C   0  0  2  0  0  0  0  0  0  0  0  0
    8.1030  -15.7960   -5.6400 O   0  0  0  0  0  0  0  0  0  0  0  0
    6.6600  -14.6160   -7.1280 C   0  0  0  0  0  0  0  0  0  0  0  0
    6.9020  -14.5380   -8.5050 C   0  0  0  0  0  0  0  0  0  0  0  0
    6.6640  -13.3440   -9.2080 C   0  0  0  0  0  0  0  0  0  0  0  0
    6.9140  -13.2780  -10.7040 C   0  0  0  0  0  0  0  0  0  0  0  0
    7.1560  -12.0060  -11.1240 F   0  0  0  0  0  0  0  0  0  0  0  0
    7.9940  -14.0140  -11.0680 F   0  0  0  0  0  0  0  0  0  0  0  0
    5.8650  -13.7290  -11.4390 F   0  0  0  0  0  0  0  0  0  0  0  0
    6.1680  -12.2300   -8.5100 C   0  0  0  0  0  0  0  0  0  0  0  0
    5.9380  -12.2970   -7.1330 C   0  0  0  0  0  0  0  0  0  0  0  0
    6.1880  -13.4890   -6.4580 C   0  0  0  0  0  0  0  0  0  0  0  0
    6.0570  -13.5530   -5.0190 N   0  0  0  0  0  0  0  0  0  0  0  0
    5.4740  -14.8250   -4.4750 C   0  0  1  0  0  0  0  0  0  0  0  0
    4.0150  -14.6220   -4.1060 C   0  0  0  0  0  0  0  0  0  0  0  0
    3.5480  -15.0230   -2.8430 C   0  0  0  0  0  0  0  0  0  0  0  0
    2.2170  -14.8160   -2.4780 C   0  0  0  0  0  0  0  0  0  0  0  0
    1.3360  -14.2070   -3.3660 C   0  0  0  0  0  0  0  0  0  0  0  0
    1.7810  -13.8020   -4.6210 C   0  0  0  0  0  0  0  0  0  0  0  0
    3.1120  -14.0060   -4.9910 C   0  0  0  0  0  0  0  0  0  0  0  0
    9.7667  -12.9650    0.3751 H   0  0  0  0  0  0  0  0  0  0  0  0
    9.6788  -12.0549   -1.1710 H   0  0  0  0  0  0  0  0  0  0  0  0
    9.5137  -13.8436   -1.1710 H   0  0  0  0  0  0  0  0  0  0  0  0
   11.6660  -14.1130   -1.1520 H   0  0  0  0  0  0  0  0  0  0  0  0
   11.5178  -13.1208    1.2727 H   0  0  0  0  0  0  0  0  0  0  0  0
   13.0395  -13.6881    0.5050 H   0  0  0  0  0  0  0  0  0  0  0  0
   12.6313  -11.9388    0.5050 H   0  0  0  0  0  0  0  0  0  0  0  0
   11.2251  -11.6259   -2.3624 H   0  0  0  0  0  0  0  0  0  0  0  0
   12.8565  -11.6431   -1.5580 H   0  0  0  0  0  0  0  0  0  0  0  0
   13.1444  -12.3912   -3.8252 H   0  0  0  0  0  0  0  0  0  0  0  0
   13.2933  -13.8273   -2.6873 H   0  0  0  0  0  0  0  0  0  0  0  0
   11.3030  -13.4150   -4.7750 H   0  0  0  0  0  0  0  0  0  0  0  0
   10.2030  -15.1170   -5.3970 H   0  0  0  0  0  0  0  0  0  0  0  0
   10.5037  -17.6862   -4.9328 H   0  0  0  0  0  0  0  0  0  0  0  0
    9.7688  -17.1956   -3.3466 H   0  0  0  0  0  0  0  0  0  0  0  0
    8.4339  -17.8713   -5.7740 H   0  0  0  0  0  0  0  0  0  0  0  0
    7.5853  -18.3783   -3.5461 H   0  0  0  0  0  0  0  0  0  0  0  0
    7.4670  -16.6123   -3.1640 H   0  0  0  0  0  0  0  0  0  0  0  0
    5.8224  -18.2228   -5.1596 H   0  0  0  0  0  0  0  0  0  0  0  0
    5.2702  -17.3206   -3.6783 H   0  0  0  0  0  0  0  0  0  0  0  0
    4.7797  -16.2030   -5.9504 H   0  0  0  0  0  0  0  0  0  0  0  0
    6.8970  -16.7453   -7.0387 H   0  0  0  0  0  0  0  0  0  0  0  0
    7.2821  -15.4196   -9.0419 H   0  0  0  0  0  0  0  0  0  0  0  0
    5.9587  -11.2962   -9.0525 H   0  0  0  0  0  0  0  0  0  0  0  0
    5.5636  -11.4177   -6.5884 H   0  0  0  0  0  0  0  0  0  0  0  0
    7.0050  -13.4290   -4.6380 H   0  0  0  0  0  0  0  0  0  0  0  0
    5.5000  -12.7570   -4.6800 H   0  0  0  0  0  0  0  0  0  0  0  0
    6.0315  -15.0600   -3.5563 H   0  0  0  0  0  0  0  0  0  0  0  0
    4.2383  -15.5048   -2.1349 H   0  0  0  0  0  0  0  0  0  0  0  0
    1.8638  -15.1350   -1.4863 H   0  0  0  0  0  0  0  0  0  0  0  0
    0.2873  -14.0455   -3.0761 H   0  0  0  0  0  0  0  0  0  0  0  0
    1.0835  -13.3207   -5.3222 H   0  0  0  0  0  0  0  0  0  0  0  0
    3.4574  -13.6819   -5.9838 H   0  0  0  0  0  0  0  0  0  0  0  0
  1  2  1  0
  2  3  1  0
  2  4  1  0
  4  5  1  0
  5  6  1  0
  6  7  1  0
  7  8  2  0
  7  9  1  0
  9 10  1  0
 10 11  1  0
 11 12  1  0
 12 13  1  0
 13 14  1  0
 14 15  1  0
 15 16  1  0
 15 17  1  0
 17 18  2  0
 18 19  1  0
 19 20  1  0
 20 21  1  0
 20 22  1  0
 20 23  1  0
 19 24  2  0
 24 25  1  0
 25 26  2  0
 26 27  1  0
 27 28  1  0
 28 29  1  0
 29 30  2  0
 30 31  1  0
 31 32  2  0
 32 33  1  0
 33 34  2  0
 16 11  1  0
 26 17  1  0
 34 29  1  0
 28 14  1  0
  1 35  1  0
  1 36  1  0
  1 37  1  0
  2 38  1  0
  3 39  1  0
  3 40  1  0
  3 41  1  0
  4 42  1  0
  4 43  1  0
  5 44  1  0
  5 45  1  0
  6 46  1  0
  9 47  1  0
 10 48  1  0
 10 49  1  0
 11 50  1  6
 12 51  1  0
 12 52  1  0
 13 53  1  0
 13 54  1  0
 14 55  1  6
 15 56  1  6
 18 57  1  0
 24 58  1  0
 25 59  1  0
 27 60  1  0
 27 61  1  0
 28 62  1  1
 30 63  1  0
 31 64  1  0
 32 65  1  0
 33 66  1  0
 34 67  1  0
M  CHG  2   2   1  27   1
M  END
>  <meeko>  (9) 
{"is_sidechain": [false], "free_energy": -7.56, "intermolecular_energy": -10.216, "internal_energy": -1.598}

$$$$
