LIB_PRFCJLMTRMJJIY__M_PUB_ALL__e8__s20260927
     RDKit          3D

 66 70  0  0  0  0  0  0  0  0999 V2000
   -2.1410  -10.3700    0.2930 C   0  0  0  0  0  0  0  0  0  0  0  0
   -1.0420   -9.5810    1.0080 C   0  0  0  0  0  0  0  0  0  0  0  0
   -1.4140   -9.3590    2.4730 C   0  0  0  0  0  0  0  0  0  0  0  0
    0.3150  -10.2900    0.9020 C   0  0  0  0  0  0  0  0  0  0  0  0
    0.1340  -11.6870    1.1760 O   0  0  0  0  0  0  0  0  0  0  0  0
    0.8550  -12.5160    0.3730 C   0  0  0  0  0  0  0  0  0  0  0  0
    0.8840  -13.7300    0.4970 O   0  0  0  0  0  0  0  0  0  0  0  0
    1.5000  -11.7450   -0.5510 N   0  0  0  0  0  0  0  0  0  0  0  0
    2.3580  -12.1540   -1.5850 C   0  0  0  0  0  0  0  0  0  0  0  0
    3.7500  -12.1730   -1.4780 C   0  0  0  0  0  0  0  0  0  0  0  0
    4.5380  -12.5970   -2.5550 C   0  0  0  0  0  0  0  0  0  0  0  0
    3.9450  -13.0080   -3.7530 C   0  0  0  0  0  0  0  0  0  0  0  0
    4.7700  -13.4480   -4.8850 C   0  0  0  0  0  0  0  0  0  0  0  0
    5.1410  -12.4810   -5.9660 C   0  0  0  0  0  0  0  0  0  0  0  0
    5.8480  -12.7260   -7.0250 N   0  0  0  0  0  0  0  0  0  0  0  0
    6.3050  -14.0090   -7.1580 C   0  0  0  0  0  0  0  0  0  0  0  0
    7.0840  -14.6280   -8.1220 C   0  0  0  0  0  0  0  0  0  0  0  0
    7.6440  -13.9960   -9.3090 C   0  0  0  0  0  0  0  0  0  0  0  0
    6.8900  -13.8500  -10.4770 C   0  0  0  0  0  0  0  0  0  0  0  0
    7.4570  -13.2650  -11.6040 C   0  0  0  0  0  0  0  0  0  0  0  0
    8.7800  -12.8180  -11.5710 C   0  0  0  0  0  0  0  0  0  0  0  0
    9.5710  -12.9340  -10.4190 C   0  0  0  0  0  0  0  0  0  0  0  0
   10.8880  -12.4820  -10.4160 N   0  0  0  0  0  0  0  0  0  0  0  0
   11.9620  -13.4830  -10.5680 C   0  0  0  0  0  0  0  0  0  0  0  0
   13.3020  -12.9110  -10.0800 C   0  0  0  0  0  0  0  0  0  0  0  0
   13.6200  -11.6690  -10.7270 O   0  0  0  0  0  0  0  0  0  0  0  0
   12.6000  -10.7000  -10.4430 C   0  0  0  0  0  0  0  0  0  0  0  0
   11.2260  -11.1550  -10.9590 C   0  0  0  0  0  0  0  0  0  0  0  0
    8.9750  -13.5410   -9.2990 C   0  0  0  0  0  0  0  0  0  0  0  0
    7.2080  -15.9600   -7.6740 C   0  0  0  0  0  0  0  0  0  0  0  0
    6.5720  -16.1960   -6.5280 N   0  0  0  0  0  0  0  0  0  0  0  0
    6.0170  -14.9910   -6.1990 N   0  0  0  0  0  0  0  0  0  0  0  0
    5.2330  -14.7080   -5.0470 C   0  0  0  0  0  0  0  0  0  0  0  0
    4.9990  -15.7600   -4.1840 N   0  0  0  0  0  0  0  0  0  0  0  0
    2.5520  -12.9870   -3.8620 C   0  0  0  0  0  0  0  0  0  0  0  0
    1.7660  -12.5640   -2.7850 C   0  0  0  0  0  0  0  0  0  0  0  0
   -2.7980  -10.8417    1.0386 H   0  0  0  0  0  0  0  0  0  0  0  0
   -2.7313   -9.6882   -0.3368 H   0  0  0  0  0  0  0  0  0  0  0  0
   -1.6837  -11.1473   -0.3368 H   0  0  0  0  0  0  0  0  0  0  0  0
   -0.9510   -8.6036    0.5117 H   0  0  0  0  0  0  0  0  0  0  0  0
   -0.6493   -9.8154    3.1187 H   0  0  0  0  0  0  0  0  0  0  0  0
   -1.4700   -8.2796    2.6776 H   0  0  0  0  0  0  0  0  0  0  0  0
   -2.3905   -9.8221    2.6776 H   0  0  0  0  0  0  0  0  0  0  0  0
    0.7196  -10.1625   -0.1129 H   0  0  0  0  0  0  0  0  0  0  0  0
    1.0188   -9.8567    1.6279 H   0  0  0  0  0  0  0  0  0  0  0  0
    1.3120  -10.7590   -0.4480 H   0  0  0  0  0  0  0  0  0  0  0  0
    4.2306  -11.8529   -0.5418 H   0  0  0  0  0  0  0  0  0  0  0  0
    5.6337  -12.6069   -2.4579 H   0  0  0  0  0  0  0  0  0  0  0  0
    4.7739  -11.4507   -5.8492 H   0  0  0  0  0  0  0  0  0  0  0  0
    5.8470  -14.1983  -10.5047 H   0  0  0  0  0  0  0  0  0  0  0  0
    6.8627  -13.1541  -12.5230 H   0  0  0  0  0  0  0  0  0  0  0  0
    9.2133  -12.3624  -12.4736 H   0  0  0  0  0  0  0  0  0  0  0  0
   11.7119  -14.3754   -9.9756 H   0  0  0  0  0  0  0  0  0  0  0  0
   12.0540  -13.7482  -11.6316 H   0  0  0  0  0  0  0  0  0  0  0  0
   13.2427  -12.7419   -8.9947 H   0  0  0  0  0  0  0  0  0  0  0  0
   14.0923  -13.6359  -10.3251 H   0  0  0  0  0  0  0  0  0  0  0  0
   12.5413  -10.5525   -9.3545 H   0  0  0  0  0  0  0  0  0  0  0  0
   12.8653   -9.7625  -10.9535 H   0  0  0  0  0  0  0  0  0  0  0  0
   10.4619  -10.4290  -10.6442 H   0  0  0  0  0  0  0  0  0  0  0  0
   11.2592  -11.2162  -12.0568 H   0  0  0  0  0  0  0  0  0  0  0  0
    9.5709  -13.6643   -8.3826 H   0  0  0  0  0  0  0  0  0  0  0  0
    7.7752  -16.7292   -8.2186 H   0  0  0  0  0  0  0  0  0  0  0  0
    4.1570  -16.3100   -4.3390 H   0  0  0  0  0  0  0  0  0  0  0  0
    5.6150  -15.9540   -3.4060 H   0  0  0  0  0  0  0  0  0  0  0  0
    2.0713  -13.3046   -4.7991 H   0  0  0  0  0  0  0  0  0  0  0  0
    0.6704  -12.5535   -2.8824 H   0  0  0  0  0  0  0  0  0  0  0  0
  1  2  1  0
  2  3  1  0
  2  4  1  0
  4  5  1  0
  5  6  1  0
  6  7  2  0
  6  8  1  0
  8  9  1  0
  9 10  2  0
 10 11  1  0
 11 12  2  0
 12 13  1  0
 13 14  1  0
 14 15  2  0
 15 16  1  0
 16 17  2  0
 17 18  1  0
 18 19  2  0
 19 20  1  0
 20 21  2  0
 21 22  1  0
 22 23  1  0
 23 24  1  0
 24 25  1  0
 25 26  1  0
 26 27  1  0
 27 28  1  0
 22 29  2  0
 17 30  1  0
 30 31  2  0
 31 32  1  0
 32 33  1  0
 33 34  1  0
 12 35  1  0
 35 36  2  0
 36  9  1  0
 33 13  2  0
 32 16  1  0
 29 18  1  0
 28 23  1  0
  1 37  1  0
  1 38  1  0
  1 39  1  0
  2 40  1  0
  3 41  1  0
  3 42  1  0
  3 43  1  0
  4 44  1  0
  4 45  1  0
  8 46  1  0
 10 47  1  0
 11 48  1  0
 14 49  1  0
 19 50  1  0
 20 51  1  0
 21 52  1  0
 24 53  1  0
 24 54  1  0
 25 55  1  0
 25 56  1  0
 27 57  1  0
 27 58  1  0
 28 59  1  0
 28 60  1  0
 29 61  1  0
 30 62  1  0
 34 63  1  0
 34 64  1  0
 35 65  1  0
 36 66  1  0
M  END
>  <meeko>  (1) 
{"is_sidechain": [false], "free_energy": -7.976, "intermolecular_energy": -11.474, "internal_energy": -1.03}

$$$$
LIB_PRFCJLMTRMJJIY__M_PUB_ALL__e8__s20260927
     RDKit          3D

 66 70  0  0  0  0  0  0  0  0999 V2000
   -3.8690  -10.6000   -0.5820 C   0  0  0  0  0  0  0  0  0  0  0  0
   -2.8710  -11.1070    0.4620 C   0  0  0  0  0  0  0  0  0  0  0  0
   -2.7530  -12.6280    0.3890 C   0  0  0  0  0  0  0  0  0  0  0  0
   -1.4950  -10.4540    0.2830 C   0  0  0  0  0  0  0  0  0  0  0  0
   -0.5370  -11.4680   -0.0580 O   0  0  0  0  0  0  0  0  0  0  0  0
    0.7580  -11.1160    0.1650 C   0  0  0  0  0  0  0  0  0  0  0  0
    1.0980  -10.0880    0.7300 O   0  0  0  0  0  0  0  0  0  0  0  0
    1.5530  -12.1020   -0.3470 N   0  0  0  0  0  0  0  0  0  0  0  0
    2.9540  -12.1790   -0.3530 C   0  0  0  0  0  0  0  0  0  0  0  0
    3.7240  -12.4440    0.7810 C   0  0  0  0  0  0  0  0  0  0  0  0
    5.1200  -12.5060    0.6920 C   0  0  0  0  0  0  0  0  0  0  0  0
    5.7650  -12.3060   -0.5320 C   0  0  0  0  0  0  0  0  0  0  0  0
    7.2290  -12.3660   -0.6260 C   0  0  0  0  0  0  0  0  0  0  0  0
    7.8940  -12.4360   -1.9650 C   0  0  0  0  0  0  0  0  0  0  0  0
    9.1670  -12.5060   -2.2030 N   0  0  0  0  0  0  0  0  0  0  0  0
    9.9840  -12.5110   -1.1040 C   0  0  0  0  0  0  0  0  0  0  0  0
   11.3610  -12.5580   -0.9650 C   0  0  0  0  0  0  0  0  0  0  0  0
   12.3330  -12.6120   -2.0490 C   0  0  0  0  0  0  0  0  0  0  0  0
   13.3300  -11.6420   -2.1790 C   0  0  0  0  0  0  0  0  0  0  0  0
   14.2300  -11.7050   -3.2380 C   0  0  0  0  0  0  0  0  0  0  0  0
   14.1430  -12.7410   -4.1720 C   0  0  0  0  0  0  0  0  0  0  0  0
   13.1650  -13.7420   -4.0750 C   0  0  0  0  0  0  0  0  0  0  0  0
   13.1000  -14.7600   -5.0230 N   0  0  0  0  0  0  0  0  0  0  0  0
   14.2480  -14.9290   -5.9360 C   0  0  0  0  0  0  0  0  0  0  0  0
   13.8350  -15.7370   -7.1750 C   0  0  0  0  0  0  0  0  0  0  0  0
   13.2320  -16.9910   -6.8190 O   0  0  0  0  0  0  0  0  0  0  0  0
   12.0520  -16.7570   -6.0340 C   0  0  0  0  0  0  0  0  0  0  0  0
   12.3770  -16.0110   -4.7320 C   0  0  0  0  0  0  0  0  0  0  0  0
   12.2610  -13.6450   -3.0020 C   0  0  0  0  0  0  0  0  0  0  0  0
   11.5760  -12.5230    0.4290 C   0  0  0  0  0  0  0  0  0  0  0  0
   10.4510  -12.4600    1.1380 N   0  0  0  0  0  0  0  0  0  0  0  0
    9.4610  -12.4450    0.1950 N   0  0  0  0  0  0  0  0  0  0  0  0
    8.0620  -12.3770    0.4390 C   0  0  0  0  0  0  0  0  0  0  0  0
    7.6660  -12.3370    1.7620 N   0  0  0  0  0  0  0  0  0  0  0  0
    4.9960  -12.0380   -1.6680 C   0  0  0  0  0  0  0  0  0  0  0  0
    3.6020  -11.9770   -1.5780 C   0  0  0  0  0  0  0  0  0  0  0  0
   -4.7387  -10.1582   -0.0736 H   0  0  0  0  0  0  0  0  0  0  0  0
   -3.3860   -9.8380   -1.2113 H   0  0  0  0  0  0  0  0  0  0  0  0
   -4.1995  -11.4395   -1.2113 H   0  0  0  0  0  0  0  0  0  0  0  0
   -3.2497  -10.8266    1.4560 H   0  0  0  0  0  0  0  0  0  0  0  0
   -2.7208  -13.0426    1.4074 H   0  0  0  0  0  0  0  0  0  0  0  0
   -3.6220  -13.0379   -0.1465 H   0  0  0  0  0  0  0  0  0  0  0  0
   -1.8311  -12.8990   -0.1465 H   0  0  0  0  0  0  0  0  0  0  0  0
   -1.5435   -9.7066   -0.5226 H   0  0  0  0  0  0  0  0  0  0  0  0
   -1.1945   -9.9582    1.2178 H   0  0  0  0  0  0  0  0  0  0  0  0
    1.0300  -12.8580   -0.7660 H   0  0  0  0  0  0  0  0  0  0  0  0
    3.2307  -12.6052    1.7509 H   0  0  0  0  0  0  0  0  0  0  0  0
    5.7147  -12.7140    1.5937 H   0  0  0  0  0  0  0  0  0  0  0  0
    7.2310  -12.4271   -2.8427 H   0  0  0  0  0  0  0  0  0  0  0  0
   13.4035  -10.8276   -1.4432 H   0  0  0  0  0  0  0  0  0  0  0  0
   15.0117  -10.9379   -3.3404 H   0  0  0  0  0  0  0  0  0  0  0  0
   14.8604  -12.7723   -5.0053 H   0  0  0  0  0  0  0  0  0  0  0  0
   14.6075  -13.9388   -6.2528 H   0  0  0  0  0  0  0  0  0  0  0  0
   15.0462  -15.4708   -5.4076 H   0  0  0  0  0  0  0  0  0  0  0  0
   13.1127  -15.1481   -7.7593 H   0  0  0  0  0  0  0  0  0  0  0  0
   14.7409  -15.9484   -7.7622 H   0  0  0  0  0  0  0  0  0  0  0  0
   11.3450  -16.1547   -6.6234 H   0  0  0  0  0  0  0  0  0  0  0  0
   11.6149  -17.7317   -5.7717 H   0  0  0  0  0  0  0  0  0  0  0  0
   11.4401  -15.7743   -4.2064 H   0  0  0  0  0  0  0  0  0  0  0  0
   13.0120  -16.6519   -4.1027 H   0  0  0  0  0  0  0  0  0  0  0  0
   11.4700  -14.4031   -2.9042 H   0  0  0  0  0  0  0  0  0  0  0  0
   12.5764  -12.5456    0.8858 H   0  0  0  0  0  0  0  0  0  0  0  0
    6.6670  -12.3890    1.9500 H   0  0  0  0  0  0  0  0  0  0  0  0
    8.3340  -12.2190    2.5120 H   0  0  0  0  0  0  0  0  0  0  0  0
    5.4897  -11.8743   -2.6372 H   0  0  0  0  0  0  0  0  0  0  0  0
    3.0075  -11.7680   -2.4796 H   0  0  0  0  0  0  0  0  0  0  0  0
  1  2  1  0
  2  3  1  0
  2  4  1  0
  4  5  1  0
  5  6  1  0
  6  7  2  0
  6  8  1  0
  8  9  1  0
  9 10  2  0
 10 11  1  0
 11 12  2  0
 12 13  1  0
 13 14  1  0
 14 15  2  0
 15 16  1  0
 16 17  2  0
 17 18  1  0
 18 19  2  0
 19 20  1  0
 20 21  2  0
 21 22  1  0
 22 23  1  0
 23 24  1  0
 24 25  1  0
 25 26  1  0
 26 27  1  0
 27 28  1  0
 22 29  2  0
 17 30  1  0
 30 31  2  0
 31 32  1  0
 32 33  1  0
 33 34  1  0
 12 35  1  0
 35 36  2  0
 36  9  1  0
 33 13  2  0
 32 16  1  0
 29 18  1  0
 28 23  1  0
  1 37  1  0
  1 38  1  0
  1 39  1  0
  2 40  1  0
  3 41  1  0
  3 42  1  0
  3 43  1  0
  4 44  1  0
  4 45  1  0
  8 46  1  0
 10 47  1  0
 11 48  1  0
 14 49  1  0
 19 50  1  0
 20 51  1  0
 21 52  1  0
 24 53  1  0
 24 54  1  0
 25 55  1  0
 25 56  1  0
 27 57  1  0
 27 58  1  0
 28 59  1  0
 28 60  1  0
 29 61  1  0
 30 62  1  0
 34 63  1  0
 34 64  1  0
 35 65  1  0
 36 66  1  0
M  END
>  <meeko>  (2) 
{"is_sidechain": [false], "free_energy": -7.78, "intermolecular_energy": -12.049, "internal_energy": -0.172}

$$$$
LIB_PRFCJLMTRMJJIY__M_PUB_ALL__e8__s20260927
     RDKit          3D

 66 70  0  0  0  0  0  0  0  0999 V2000
    8.9110  -10.5650  -11.8380 C   0  0  0  0  0  0  0  0  0  0  0  0
    7.8030  -10.8360  -10.8170 C   0  0  0  0  0  0  0  0  0  0  0  0
    6.5920   -9.9490  -11.0990 C   0  0  0  0  0  0  0  0  0  0  0  0
    7.3950  -12.3150  -10.8150 C   0  0  0  0  0  0  0  0  0  0  0  0
    8.1000  -12.9930   -9.7640 O   0  0  0  0  0  0  0  0  0  0  0  0
    7.3170  -13.7790   -8.9770 C   0  0  0  0  0  0  0  0  0  0  0  0
    7.0840  -14.9560   -9.2040 O   0  0  0  0  0  0  0  0  0  0  0  0
    6.8720  -13.0150   -7.9350 N   0  0  0  0  0  0  0  0  0  0  0  0
    6.0380  -13.3910   -6.8700 C   0  0  0  0  0  0  0  0  0  0  0  0
    6.4300  -14.2460   -5.8390 C   0  0  0  0  0  0  0  0  0  0  0  0
    5.5380  -14.5720   -4.8100 C   0  0  0  0  0  0  0  0  0  0  0  0
    4.2430  -14.0470   -4.7980 C   0  0  0  0  0  0  0  0  0  0  0  0
    3.3050  -14.3910   -3.7220 C   0  0  0  0  0  0  0  0  0  0  0  0
    2.0890  -13.5510   -3.4870 C   0  0  0  0  0  0  0  0  0  0  0  0
    1.1840  -13.7220   -2.5740 N   0  0  0  0  0  0  0  0  0  0  0  0
    1.3660  -14.7940   -1.7420 C   0  0  0  0  0  0  0  0  0  0  0  0
    0.6220  -15.2950   -0.6870 C   0  0  0  0  0  0  0  0  0  0  0  0
   -0.6320  -14.7490   -0.1860 C   0  0  0  0  0  0  0  0  0  0  0  0
   -1.8130  -15.4950   -0.2180 C   0  0  0  0  0  0  0  0  0  0  0  0
   -3.0020  -14.9400    0.2450 C   0  0  0  0  0  0  0  0  0  0  0  0
   -3.0180  -13.6370    0.7480 C   0  0  0  0  0  0  0  0  0  0  0  0
   -1.8550  -12.8550    0.8100 C   0  0  0  0  0  0  0  0  0  0  0  0
   -1.9020  -11.5570    1.3140 N   0  0  0  0  0  0  0  0  0  0  0  0
   -1.0170  -11.2240    2.4480 C   0  0  0  0  0  0  0  0  0  0  0  0
   -1.5160   -9.9600    3.1650 C   0  0  0  0  0  0  0  0  0  0  0  0
   -1.6760   -8.8590    2.2570 O   0  0  0  0  0  0  0  0  0  0  0  0
   -2.6380   -9.1990    1.2460 C   0  0  0  0  0  0  0  0  0  0  0  0
   -2.1910  -10.4180    0.4260 C   0  0  0  0  0  0  0  0  0  0  0  0
   -0.6720  -13.4370    0.3230 C   0  0  0  0  0  0  0  0  0  0  0  0
    1.3430  -16.4260   -0.2520 C   0  0  0  0  0  0  0  0  0  0  0  0
    2.4540  -16.6490   -0.9510 N   0  0  0  0  0  0  0  0  0  0  0  0
    2.4710  -15.6460   -1.8800 N   0  0  0  0  0  0  0  0  0  0  0  0
    3.4600  -15.4390   -2.8820 C   0  0  0  0  0  0  0  0  0  0  0  0
    4.5120  -16.3330   -2.9070 N   0  0  0  0  0  0  0  0  0  0  0  0
    3.8480  -13.1910   -5.8300 C   0  0  0  0  0  0  0  0  0  0  0  0
    4.7400  -12.8670   -6.8580 C   0  0  0  0  0  0  0  0  0  0  0  0
    9.8483  -10.3358  -11.3098 H   0  0  0  0  0  0  0  0  0  0  0  0
    9.0538  -11.4547  -12.4689 H   0  0  0  0  0  0  0  0  0  0  0  0
    8.6271   -9.7098  -12.4689 H   0  0  0  0  0  0  0  0  0  0  0  0
    8.1964  -10.5939   -9.8187 H   0  0  0  0  0  0  0  0  0  0  0  0
    6.1468   -9.6229  -10.1474 H   0  0  0  0  0  0  0  0  0  0  0  0
    6.9092   -9.0681  -11.6763 H   0  0  0  0  0  0  0  0  0  0  0  0
    5.8478  -10.5172  -11.6763 H   0  0  0  0  0  0  0  0  0  0  0  0
    6.3113  -12.3984  -10.6457 H   0  0  0  0  0  0  0  0  0  0  0  0
    7.6450  -12.7708  -11.7844 H   0  0  0  0  0  0  0  0  0  0  0  0
    7.2080  -12.0640   -7.9670 H   0  0  0  0  0  0  0  0  0  0  0  0
    7.4464  -14.6666   -5.8347 H   0  0  0  0  0  0  0  0  0  0  0  0
    5.8596  -15.2476   -4.0037 H   0  0  0  0  0  0  0  0  0  0  0  0
    1.9473  -12.6947   -4.1627 H   0  0  0  0  0  0  0  0  0  0  0  0
   -1.8028  -16.5228   -0.6099 H   0  0  0  0  0  0  0  0  0  0  0  0
   -3.9309  -15.5284    0.2149 H   0  0  0  0  0  0  0  0  0  0  0  0
   -3.9680  -13.2127    1.1051 H   0  0  0  0  0  0  0  0  0  0  0  0
   -1.0073  -12.0636    3.1586 H   0  0  0  0  0  0  0  0  0  0  0  0
   -0.0021  -11.0398    2.0659 H   0  0  0  0  0  0  0  0  0  0  0  0
   -2.4863  -10.1773    3.6354 H   0  0  0  0  0  0  0  0  0  0  0  0
   -0.7660   -9.6757    3.9178 H   0  0  0  0  0  0  0  0  0  0  0  0
   -3.5988   -9.4276    1.7303 H   0  0  0  0  0  0  0  0  0  0  0  0
   -2.7358   -8.3424    0.5628 H   0  0  0  0  0  0  0  0  0  0  0  0
   -2.9926  -10.6980   -0.2732 H   0  0  0  0  0  0  0  0  0  0  0  0
   -1.2778  -10.1585   -0.1297 H   0  0  0  0  0  0  0  0  0  0  0  0
    0.2558  -12.8463    0.3402 H   0  0  0  0  0  0  0  0  0  0  0  0
    1.0188  -17.0628    0.5843 H   0  0  0  0  0  0  0  0  0  0  0  0
    5.2320  -16.2230   -2.1960 H   0  0  0  0  0  0  0  0  0  0  0  0
    4.5880  -17.0420   -3.6230 H   0  0  0  0  0  0  0  0  0  0  0  0
    2.8316  -12.7704   -5.8339 H   0  0  0  0  0  0  0  0  0  0  0  0
    4.4178  -12.1932   -7.6656 H   0  0  0  0  0  0  0  0  0  0  0  0
  1  2  1  0
  2  3  1  0
  2  4  1  0
  4  5  1  0
  5  6  1  0
  6  7  2  0
  6  8  1  0
  8  9  1  0
  9 10  2  0
 10 11  1  0
 11 12  2  0
 12 13  1  0
 13 14  1  0
 14 15  2  0
 15 16  1  0
 16 17  2  0
 17 18  1  0
 18 19  2  0
 19 20  1  0
 20 21  2  0
 21 22  1  0
 22 23  1  0
 23 24  1  0
 24 25  1  0
 25 26  1  0
 26 27  1  0
 27 28  1  0
 22 29  2  0
 17 30  1  0
 30 31  2  0
 31 32  1  0
 32 33  1  0
 33 34  1  0
 12 35  1  0
 35 36  2  0
 36  9  1  0
 33 13  2  0
 32 16  1  0
 29 18  1  0
 28 23  1  0
  1 37  1  0
  1 38  1  0
  1 39  1  0
  2 40  1  0
  3 41  1  0
  3 42  1  0
  3 43  1  0
  4 44  1  0
  4 45  1  0
  8 46  1  0
 10 47  1  0
 11 48  1  0
 14 49  1  0
 19 50  1  0
 20 51  1  0
 21 52  1  0
 24 53  1  0
 24 54  1  0
 25 55  1  0
 25 56  1  0
 27 57  1  0
 27 58  1  0
 28 59  1  0
 28 60  1  0
 29 61  1  0
 30 62  1  0
 34 63  1  0
 34 64  1  0
 35 65  1  0
 36 66  1  0
M  END
>  <meeko>  (3) 
{"is_sidechain": [false], "free_energy": -7.771, "intermolecular_energy": -11.99, "internal_energy": -0.218}

$$$$
LIB_PRFCJLMTRMJJIY__M_PUB_ALL__e8__s20260927
     RDKit          3D

 66 70  0  0  0  0  0  0  0  0999 V2000
   -6.5380  -14.4130    5.1370 C   0  0  0  0  0  0  0  0  0  0  0  0
   -6.8170  -15.8420    5.6080 C   0  0  0  0  0  0  0  0  0  0  0  0
   -8.2270  -16.2690    5.2050 C   0  0  0  0  0  0  0  0  0  0  0  0
   -5.7800  -16.8260    5.0540 C   0  0  0  0  0  0  0  0  0  0  0  0
   -4.7710  -17.0510    6.0490 O   0  0  0  0  0  0  0  0  0  0  0  0
   -3.5340  -16.5980    5.7100 C   0  0  0  0  0  0  0  0  0  0  0  0
   -2.6140  -16.4650    6.5020 O   0  0  0  0  0  0  0  0  0  0  0  0
   -3.5370  -16.3410    4.3680 N   0  0  0  0  0  0  0  0  0  0  0  0
   -2.4890  -15.8570    3.5680 C   0  0  0  0  0  0  0  0  0  0  0  0
   -1.4140  -16.6380    3.1390 C   0  0  0  0  0  0  0  0  0  0  0  0
   -0.4070  -16.0820    2.3410 C   0  0  0  0  0  0  0  0  0  0  0  0
   -0.4620  -14.7380    1.9600 C   0  0  0  0  0  0  0  0  0  0  0  0
    0.5950  -14.1530    1.1270 C   0  0  0  0  0  0  0  0  0  0  0  0
    0.3070  -13.7620   -0.2890 C   0  0  0  0  0  0  0  0  0  0  0  0
    1.1370  -13.2490   -1.1440 N   0  0  0  0  0  0  0  0  0  0  0  0
    2.4120  -13.0400   -0.6910 C   0  0  0  0  0  0  0  0  0  0  0  0
    3.5410  -12.5080   -1.2910 C   0  0  0  0  0  0  0  0  0  0  0  0
    3.6310  -12.0050   -2.6560 C   0  0  0  0  0  0  0  0  0  0  0  0
    2.9250  -10.8680   -3.0580 C   0  0  0  0  0  0  0  0  0  0  0  0
    3.0110  -10.4230   -4.3730 C   0  0  0  0  0  0  0  0  0  0  0  0
    3.8060  -11.1090   -5.2950 C   0  0  0  0  0  0  0  0  0  0  0  0
    4.5410  -12.2480   -4.9330 C   0  0  0  0  0  0  0  0  0  0  0  0
    5.3220  -12.9140   -5.8740 N   0  0  0  0  0  0  0  0  0  0  0  0
    5.6030  -12.2260   -7.1500 C   0  0  0  0  0  0  0  0  0  0  0  0
    6.0450  -13.2370   -8.2190 C   0  0  0  0  0  0  0  0  0  0  0  0
    7.1540  -14.0340   -7.7750 O   0  0  0  0  0  0  0  0  0  0  0  0
    6.7810  -14.7720   -6.6000 C   0  0  0  0  0  0  0  0  0  0  0  0
    6.3860  -13.8380   -5.4460 C   0  0  0  0  0  0  0  0  0  0  0  0
    4.4240  -12.6820   -3.6010 C   0  0  0  0  0  0  0  0  0  0  0  0
    4.5310  -12.5580   -0.2880 C   0  0  0  0  0  0  0  0  0  0  0  0
    4.0980  -13.0730    0.8610 N   0  0  0  0  0  0  0  0  0  0  0  0
    2.7840  -13.3670    0.6210 N   0  0  0  0  0  0  0  0  0  0  0  0
    1.8640  -13.9370    1.5430 C   0  0  0  0  0  0  0  0  0  0  0  0
    2.3520  -14.2350    2.8000 N   0  0  0  0  0  0  0  0  0  0  0  0
   -1.5370  -13.9540    2.3900 C   0  0  0  0  0  0  0  0  0  0  0  0
   -2.5420  -14.5120    3.1870 C   0  0  0  0  0  0  0  0  0  0  0  0
   -6.4100  -13.7573    6.0109 H   0  0  0  0  0  0  0  0  0  0  0  0
   -5.6202  -14.3993    4.5308 H   0  0  0  0  0  0  0  0  0  0  0  0
   -7.3832  -14.0551    4.5308 H   0  0  0  0  0  0  0  0  0  0  0  0
   -6.7412  -15.8566    6.7053 H   0  0  0  0  0  0  0  0  0  0  0  0
   -8.8274  -16.4508    6.1086 H   0  0  0  0  0  0  0  0  0  0  0  0
   -8.6949  -15.4723    4.6081 H   0  0  0  0  0  0  0  0  0  0  0  0
   -8.1742  -17.1914    4.6081 H   0  0  0  0  0  0  0  0  0  0  0  0
   -6.2713  -17.7782    4.8051 H   0  0  0  0  0  0  0  0  0  0  0  0
   -5.3200  -16.4089    4.1460 H   0  0  0  0  0  0  0  0  0  0  0  0
   -4.4240  -16.5350    3.9270 H   0  0  0  0  0  0  0  0  0  0  0  0
   -1.3579  -17.6973    3.4300 H   0  0  0  0  0  0  0  0  0  0  0  0
    0.4350  -16.7082    2.0108 H   0  0  0  0  0  0  0  0  0  0  0  0
   -0.7211  -13.9278   -0.6434 H   0  0  0  0  0  0  0  0  0  0  0  0
    2.3006  -10.3244   -2.3337 H   0  0  0  0  0  0  0  0  0  0  0  0
    2.4521   -9.5294   -4.6878 H   0  0  0  0  0  0  0  0  0  0  0  0
    3.8569  -10.7464   -6.3323 H   0  0  0  0  0  0  0  0  0  0  0  0
    4.6929  -11.7116   -7.4922 H   0  0  0  0  0  0  0  0  0  0  0  0
    6.4124  -11.4982   -6.9916 H   0  0  0  0  0  0  0  0  0  0  0  0
    5.1998  -13.9015   -8.4514 H   0  0  0  0  0  0  0  0  0  0  0  0
    6.3634  -12.6750   -9.1094 H   0  0  0  0  0  0  0  0  0  0  0  0
    5.9264  -15.4207   -6.8425 H   0  0  0  0  0  0  0  0  0  0  0  0
    7.6482  -15.3676   -6.2786 H   0  0  0  0  0  0  0  0  0  0  0  0
    6.0240  -14.4405   -4.5999 H   0  0  0  0  0  0  0  0  0  0  0  0
    7.2667  -13.2523   -5.1438 H   0  0  0  0  0  0  0  0  0  0  0  0
    4.9717  -13.5826   -3.2863 H   0  0  0  0  0  0  0  0  0  0  0  0
    5.5618  -12.2055   -0.4402 H   0  0  0  0  0  0  0  0  0  0  0  0
    2.1370  -13.5810    3.5490 H   0  0  0  0  0  0  0  0  0  0  0  0
    2.9340  -15.0460    2.9640 H   0  0  0  0  0  0  0  0  0  0  0  0
   -1.5926  -12.8943    2.1004 H   0  0  0  0  0  0  0  0  0  0  0  0
   -3.3837  -13.8860    3.5180 H   0  0  0  0  0  0  0  0  0  0  0  0
  1  2  1  0
  2  3  1  0
  2  4  1  0
  4  5  1  0
  5  6  1  0
  6  7  2  0
  6  8  1  0
  8  9  1  0
  9 10  2  0
 10 11  1  0
 11 12  2  0
 12 13  1  0
 13 14  1  0
 14 15  2  0
 15 16  1  0
 16 17  2  0
 17 18  1  0
 18 19  2  0
 19 20  1  0
 20 21  2  0
 21 22  1  0
 22 23  1  0
 23 24  1  0
 24 25  1  0
 25 26  1  0
 26 27  1  0
 27 28  1  0
 22 29  2  0
 17 30  1  0
 30 31  2  0
 31 32  1  0
 32 33  1  0
 33 34  1  0
 12 35  1  0
 35 36  2  0
 36  9  1  0
 33 13  2  0
 32 16  1  0
 29 18  1  0
 28 23  1  0
  1 37  1  0
  1 38  1  0
  1 39  1  0
  2 40  1  0
  3 41  1  0
  3 42  1  0
  3 43  1  0
  4 44  1  0
  4 45  1  0
  8 46  1  0
 10 47  1  0
 11 48  1  0
 14 49  1  0
 19 50  1  0
 20 51  1  0
 21 52  1  0
 24 53  1  0
 24 54  1  0
 25 55  1  0
 25 56  1  0
 27 57  1  0
 27 58  1  0
 28 59  1  0
 28 60  1  0
 29 61  1  0
 30 62  1  0
 34 63  1  0
 34 64  1  0
 35 65  1  0
 36 66  1  0
M  END
>  <meeko>  (4) 
{"is_sidechain": [false], "free_energy": -7.733, "intermolecular_energy": -11.195, "internal_energy": -0.958}

$$$$
LIB_PRFCJLMTRMJJIY__M_PUB_ALL__e8__s20260927
     RDKit          3D

 66 70  0  0  0  0  0  0  0  0999 V2000
   16.1780   -4.8010   12.1560 C   0  0  0  0  0  0  0  0  0  0  0  0
   16.1800   -5.9680   11.1660 C   0  0  0  0  0  0  0  0  0  0  0  0
   17.5970   -6.2330   10.6610 C   0  0  0  0  0  0  0  0  0  0  0  0
   15.5900   -7.2360   11.7950 C   0  0  0  0  0  0  0  0  0  0  0  0
   16.6560   -8.0240   12.3480 O   0  0  0  0  0  0  0  0  0  0  0  0
   16.3430   -9.3330   12.5470 C   0  0  0  0  0  0  0  0  0  0  0  0
   17.1230  -10.1600   12.9900 O   0  0  0  0  0  0  0  0  0  0  0  0
   15.0430   -9.5140   12.1690 N   0  0  0  0  0  0  0  0  0  0  0  0
   14.2830  -10.6940   12.1930 C   0  0  0  0  0  0  0  0  0  0  0  0
   14.5690  -11.8200   11.4190 C   0  0  0  0  0  0  0  0  0  0  0  0
   13.7620  -12.9610   11.5010 C   0  0  0  0  0  0  0  0  0  0  0  0
   12.6580  -12.9920   12.3590 C   0  0  0  0  0  0  0  0  0  0  0  0
   11.8090  -14.1870   12.4430 C   0  0  0  0  0  0  0  0  0  0  0  0
   10.3470  -14.0920   12.1350 C   0  0  0  0  0  0  0  0  0  0  0  0
    9.4740  -15.0520   12.1790 N   0  0  0  0  0  0  0  0  0  0  0  0
    9.9540  -16.2820   12.5400 C   0  0  0  0  0  0  0  0  0  0  0  0
    9.3440  -17.5180   12.6770 C   0  0  0  0  0  0  0  0  0  0  0  0
    7.9370  -17.8120   12.4430 C   0  0  0  0  0  0  0  0  0  0  0  0
    7.0220  -17.8670   13.4970 C   0  0  0  0  0  0  0  0  0  0  0  0
    5.6880  -18.1730   13.2480 C   0  0  0  0  0  0  0  0  0  0  0  0
    5.2580  -18.4240   11.9430 C   0  0  0  0  0  0  0  0  0  0  0  0
    6.1390  -18.3700   10.8520 C   0  0  0  0  0  0  0  0  0  0  0  0
    5.6830  -18.6270    9.5620 N   0  0  0  0  0  0  0  0  0  0  0  0
    4.2700  -18.3270    9.2550 C   0  0  0  0  0  0  0  0  0  0  0  0
    3.8220  -19.0850    7.9960 C   0  0  0  0  0  0  0  0  0  0  0  0
    4.6880  -18.8280    6.8800 O   0  0  0  0  0  0  0  0  0  0  0  0
    6.0230  -19.2520    7.1950 C   0  0  0  0  0  0  0  0  0  0  0  0
    6.5880  -18.4950    8.4060 C   0  0  0  0  0  0  0  0  0  0  0  0
    7.4830  -18.0700   11.1360 C   0  0  0  0  0  0  0  0  0  0  0  0
   10.3870  -18.3840   13.0670 C   0  0  0  0  0  0  0  0  0  0  0  0
   11.5670  -17.7790   13.1760 N   0  0  0  0  0  0  0  0  0  0  0  0
   11.3080  -16.4780   12.8450 N   0  0  0  0  0  0  0  0  0  0  0  0
   12.2500  -15.4130   12.8010 C   0  0  0  0  0  0  0  0  0  0  0  0
   13.5520  -15.7250   13.1410 N   0  0  0  0  0  0  0  0  0  0  0  0
   12.3690  -11.8650   13.1330 C   0  0  0  0  0  0  0  0  0  0  0  0
   13.1770  -10.7260   13.0500 C   0  0  0  0  0  0  0  0  0  0  0  0
   16.1787   -5.1923   13.1841 H   0  0  0  0  0  0  0  0  0  0  0  0
   17.0751   -4.1844   11.9978 H   0  0  0  0  0  0  0  0  0  0  0  0
   15.2788   -4.1875   11.9978 H   0  0  0  0  0  0  0  0  0  0  0  0
   15.5440   -5.6888   10.3130 H   0  0  0  0  0  0  0  0  0  0  0  0
   18.2742   -6.3596   11.5185 H   0  0  0  0  0  0  0  0  0  0  0  0
   17.6035   -7.1479   10.0504 H   0  0  0  0  0  0  0  0  0  0  0  0
   17.9337   -5.3823   10.0504 H   0  0  0  0  0  0  0  0  0  0  0  0
   14.8849   -6.9583   12.5923 H   0  0  0  0  0  0  0  0  0  0  0  0
   15.0574   -7.8177   11.0282 H   0  0  0  0  0  0  0  0  0  0  0  0
   14.6040   -8.6690   11.8350 H   0  0  0  0  0  0  0  0  0  0  0  0
   15.4344  -11.8107   10.7400 H   0  0  0  0  0  0  0  0  0  0  0  0
   13.9984  -13.8411   10.8850 H   0  0  0  0  0  0  0  0  0  0  0  0
    9.9717  -13.1012   11.8393 H   0  0  0  0  0  0  0  0  0  0  0  0
    7.3569  -17.6680   14.5257 H   0  0  0  0  0  0  0  0  0  0  0  0
    4.9704  -18.2174   14.0805 H   0  0  0  0  0  0  0  0  0  0  0  0
    4.2007  -18.6705   11.7657 H   0  0  0  0  0  0  0  0  0  0  0  0
    3.6418  -18.6327   10.1047 H   0  0  0  0  0  0  0  0  0  0  0  0
    4.1656  -17.2466    9.0767 H   0  0  0  0  0  0  0  0  0  0  0  0
    3.8278  -20.1640    8.2096 H   0  0  0  0  0  0  0  0  0  0  0  0
    2.8122  -18.7388    7.7308 H   0  0  0  0  0  0  0  0  0  0  0  0
    6.0112  -20.3284    7.4211 H   0  0  0  0  0  0  0  0  0  0  0  0
    6.6645  -19.0388    6.3272 H   0  0  0  0  0  0  0  0  0  0  0  0
    7.5722  -18.9113    8.6668 H   0  0  0  0  0  0  0  0  0  0  0  0
    6.6845  -17.4301    8.1480 H   0  0  0  0  0  0  0  0  0  0  0  0
    8.2054  -18.0357   10.3071 H   0  0  0  0  0  0  0  0  0  0  0  0
   10.2390  -19.4564   13.2622 H   0  0  0  0  0  0  0  0  0  0  0  0
   13.6990  -16.1990   14.0300 H   0  0  0  0  0  0  0  0  0  0  0  0
   14.3310  -15.4590   12.5540 H   0  0  0  0  0  0  0  0  0  0  0  0
   11.5024  -11.8735   13.8105 H   0  0  0  0  0  0  0  0  0  0  0  0
   12.9403   -9.8455   13.6654 H   0  0  0  0  0  0  0  0  0  0  0  0
  1  2  1  0
  2  3  1  0
  2  4  1  0
  4  5  1  0
  5  6  1  0
  6  7  2  0
  6  8  1  0
  8  9  1  0
  9 10  2  0
 10 11  1  0
 11 12  2  0
 12 13  1  0
 13 14  1  0
 14 15  2  0
 15 16  1  0
 16 17  2  0
 17 18  1  0
 18 19  2  0
 19 20  1  0
 20 21  2  0
 21 22  1  0
 22 23  1  0
 23 24  1  0
 24 25  1  0
 25 26  1  0
 26 27  1  0
 27 28  1  0
 22 29  2  0
 17 30  1  0
 30 31  2  0
 31 32  1  0
 32 33  1  0
 33 34  1  0
 12 35  1  0
 35 36  2  0
 36  9  1  0
 33 13  2  0
 32 16  1  0
 29 18  1  0
 28 23  1  0
  1 37  1  0
  1 38  1  0
  1 39  1  0
  2 40  1  0
  3 41  1  0
  3 42  1  0
  3 43  1  0
  4 44  1  0
  4 45  1  0
  8 46  1  0
 10 47  1  0
 11 48  1  0
 14 49  1  0
 19 50  1  0
 20 51  1  0
 21 52  1  0
 24 53  1  0
 24 54  1  0
 25 55  1  0
 25 56  1  0
 27 57  1  0
 27 58  1  0
 28 59  1  0
 28 60  1  0
 29 61  1  0
 30 62  1  0
 34 63  1  0
 34 64  1  0
 35 65  1  0
 36 66  1  0
M  END
>  <meeko>  (5) 
{"is_sidechain": [false], "free_energy": -7.512, "intermolecular_energy": -11.033, "internal_energy": -0.803}

$$$$
LIB_PRFCJLMTRMJJIY__M_PUB_ALL__e8__s20260927
     RDKit          3D

 66 70  0  0  0  0  0  0  0  0999 V2000
  -10.9200  -15.3710    8.3410 C   0  0  0  0  0  0  0  0  0  0  0  0
   -9.9870  -16.2940    7.5530 C   0  0  0  0  0  0  0  0  0  0  0  0
  -10.4930  -16.4640    6.1220 C   0  0  0  0  0  0  0  0  0  0  0  0
   -8.5480  -15.7640    7.5520 C   0  0  0  0  0  0  0  0  0  0  0  0
   -7.9980  -15.9050    6.2340 O   0  0  0  0  0  0  0  0  0  0  0  0
   -6.9410  -15.0900    5.9740 C   0  0  0  0  0  0  0  0  0  0  0  0
   -6.5590  -14.2070    6.7260 O   0  0  0  0  0  0  0  0  0  0  0  0
   -6.4230  -15.4500    4.7630 N   0  0  0  0  0  0  0  0  0  0  0  0
   -5.3280  -14.8950    4.0800 C   0  0  0  0  0  0  0  0  0  0  0  0
   -4.0760  -15.5050    3.9930 C   0  0  0  0  0  0  0  0  0  0  0  0
   -3.0330  -14.8870    3.2920 C   0  0  0  0  0  0  0  0  0  0  0  0
   -3.2290  -13.6510    2.6680 C   0  0  0  0  0  0  0  0  0  0  0  0
   -2.1350  -13.0000    1.9360 C   0  0  0  0  0  0  0  0  0  0  0  0
   -1.1730  -13.8200    1.1350 C   0  0  0  0  0  0  0  0  0  0  0  0
   -0.1580  -13.3900    0.4520 N   0  0  0  0  0  0  0  0  0  0  0  0
    0.0440  -12.0370    0.4650 C   0  0  0  0  0  0  0  0  0  0  0  0
    0.9890  -11.2270   -0.1430 C   0  0  0  0  0  0  0  0  0  0  0  0
    2.0690  -11.6730   -1.0120 C   0  0  0  0  0  0  0  0  0  0  0  0
    1.8890  -11.7900   -2.3930 C   0  0  0  0  0  0  0  0  0  0  0  0
    2.9300  -12.2410   -3.1970 C   0  0  0  0  0  0  0  0  0  0  0  0
    4.1610  -12.5750   -2.6270 C   0  0  0  0  0  0  0  0  0  0  0  0
    4.3920  -12.4640   -1.2480 C   0  0  0  0  0  0  0  0  0  0  0  0
    5.6280  -12.8070   -0.7080 N   0  0  0  0  0  0  0  0  0  0  0  0
    5.9820  -12.2550    0.6150 C   0  0  0  0  0  0  0  0  0  0  0  0
    7.5000  -12.3300    0.8400 C   0  0  0  0  0  0  0  0  0  0  0  0
    8.0030  -13.6620    0.6530 O   0  0  0  0  0  0  0  0  0  0  0  0
    7.7360  -14.0970   -0.6890 C   0  0  0  0  0  0  0  0  0  0  0  0
    6.2300  -14.1220   -0.9880 C   0  0  0  0  0  0  0  0  0  0  0  0
    3.3170  -12.0170   -0.4600 C   0  0  0  0  0  0  0  0  0  0  0  0
    0.6450   -9.9200    0.2600 C   0  0  0  0  0  0  0  0  0  0  0  0
   -0.4210   -9.8720    1.0550 N   0  0  0  0  0  0  0  0  0  0  0  0
   -0.8030  -11.1790    1.1810 N   0  0  0  0  0  0  0  0  0  0  0  0
   -1.9070  -11.6670    1.9330 C   0  0  0  0  0  0  0  0  0  0  0  0
   -2.6570  -10.7280    2.6130 N   0  0  0  0  0  0  0  0  0  0  0  0
   -4.4820  -13.0380    2.7560 C   0  0  0  0  0  0  0  0  0  0  0  0
   -5.5230  -13.6570    3.4570 C   0  0  0  0  0  0  0  0  0  0  0  0
  -10.7640  -15.5254    9.4189 H   0  0  0  0  0  0  0  0  0  0  0  0
  -10.7016  -14.3237    8.0852 H   0  0  0  0  0  0  0  0  0  0  0  0
  -11.9649  -15.6007    8.0852 H   0  0  0  0  0  0  0  0  0  0  0  0
   -9.9842  -17.2759    8.0489 H   0  0  0  0  0  0  0  0  0  0  0  0
  -11.5356  -16.8143    6.1409 H   0  0  0  0  0  0  0  0  0  0  0  0
  -10.4400  -15.4987    5.5972 H   0  0  0  0  0  0  0  0  0  0  0  0
   -9.8679  -17.2015    5.5972 H   0  0  0  0  0  0  0  0  0  0  0  0
   -8.5459  -14.7026    7.8407 H   0  0  0  0  0  0  0  0  0  0  0  0
   -7.9416  -16.3352    8.2703 H   0  0  0  0  0  0  0  0  0  0  0  0
   -6.9150  -16.2180    4.3310 H   0  0  0  0  0  0  0  0  0  0  0  0
   -3.9072  -16.4777    4.4782 H   0  0  0  0  0  0  0  0  0  0  0  0
   -2.0507  -15.3783    3.2317 H   0  0  0  0  0  0  0  0  0  0  0  0
   -1.3457  -14.9063    1.1244 H   0  0  0  0  0  0  0  0  0  0  0  0
    0.9218  -11.5248   -2.8449 H   0  0  0  0  0  0  0  0  0  0  0  0
    2.7841  -12.3349   -4.2832 H   0  0  0  0  0  0  0  0  0  0  0  0
    4.9715  -12.9350   -3.2777 H   0  0  0  0  0  0  0  0  0  0  0  0
    5.6597  -11.2046    0.6671 H   0  0  0  0  0  0  0  0  0  0  0  0
    5.4771  -12.8454    1.3938 H   0  0  0  0  0  0  0  0  0  0  0  0
    7.9991  -11.6578    0.1265 H   0  0  0  0  0  0  0  0  0  0  0  0
    7.7064  -12.0298    1.8779 H   0  0  0  0  0  0  0  0  0  0  0  0
    8.2277  -13.4082   -1.3917 H   0  0  0  0  0  0  0  0  0  0  0  0
    8.1255  -15.1195   -0.8023 H   0  0  0  0  0  0  0  0  0  0  0  0
    6.0752  -14.3731   -2.0477 H   0  0  0  0  0  0  0  0  0  0  0  0
    5.7518  -14.8768   -0.3465 H   0  0  0  0  0  0  0  0  0  0  0  0
    3.4564  -11.9330    0.6279 H   0  0  0  0  0  0  0  0  0  0  0  0
    1.2043   -9.0260   -0.0529 H   0  0  0  0  0  0  0  0  0  0  0  0
   -2.9580   -9.9080    2.0910 H   0  0  0  0  0  0  0  0  0  0  0  0
   -2.8640  -10.8270    3.5980 H   0  0  0  0  0  0  0  0  0  0  0  0
   -4.6506  -12.0647    2.2721 H   0  0  0  0  0  0  0  0  0  0  0  0
   -6.5050  -13.1653    3.5190 H   0  0  0  0  0  0  0  0  0  0  0  0
  1  2  1  0
  2  3  1  0
  2  4  1  0
  4  5  1  0
  5  6  1  0
  6  7  2  0
  6  8  1  0
  8  9  1  0
  9 10  2  0
 10 11  1  0
 11 12  2  0
 12 13  1  0
 13 14  1  0
 14 15  2  0
 15 16  1  0
 16 17  2  0
 17 18  1  0
 18 19  2  0
 19 20  1  0
 20 21  2  0
 21 22  1  0
 22 23  1  0
 23 24  1  0
 24 25  1  0
 25 26  1  0
 26 27  1  0
 27 28  1  0
 22 29  2  0
 17 30  1  0
 30 31  2  0
 31 32  1  0
 32 33  1  0
 33 34  1  0
 12 35  1  0
 35 36  2  0
 36  9  1  0
 33 13  2  0
 32 16  1  0
 29 18  1  0
 28 23  1  0
  1 37  1  0
  1 38  1  0
  1 39  1  0
  2 40  1  0
  3 41  1  0
  3 42  1  0
  3 43  1  0
  4 44  1  0
  4 45  1  0
  8 46  1  0
 10 47  1  0
 11 48  1  0
 14 49  1  0
 19 50  1  0
 20 51  1  0
 21 52  1  0
 24 53  1  0
 24 54  1  0
 25 55  1  0
 25 56  1  0
 27 57  1  0
 27 58  1  0
 28 59  1  0
 28 60  1  0
 29 61  1  0
 30 62  1  0
 34 63  1  0
 34 64  1  0
 35 65  1  0
 36 66  1  0
M  END
>  <meeko>  (6) 
{"is_sidechain": [false], "free_energy": -7.476, "intermolecular_energy": -11.318, "internal_energy": -0.466}

$$$$
LIB_PRFCJLMTRMJJIY__M_PUB_ALL__e8__s20260927
     RDKit          3D

 66 70  0  0  0  0  0  0  0  0999 V2000
    8.9740  -12.9200  -11.8510 C   0  0  0  0  0  0  0  0  0  0  0  0
    7.7060  -12.7400  -11.0150 C   0  0  0  0  0  0  0  0  0  0  0  0
    6.5950  -13.6540  -11.5280 C   0  0  0  0  0  0  0  0  0  0  0  0
    7.9740  -13.0060   -9.5280 C   0  0  0  0  0  0  0  0  0  0  0  0
    8.0790  -14.4220   -9.3190 O   0  0  0  0  0  0  0  0  0  0  0  0
    7.3280  -14.8950   -8.2870 C   0  0  0  0  0  0  0  0  0  0  0  0
    7.2100  -16.0800   -8.0160 O   0  0  0  0  0  0  0  0  0  0  0  0
    6.7660  -13.8230   -7.6530 N   0  0  0  0  0  0  0  0  0  0  0  0
    5.9140  -13.8160   -6.5370 C   0  0  0  0  0  0  0  0  0  0  0  0
    6.1250  -14.5870   -5.3930 C   0  0  0  0  0  0  0  0  0  0  0  0
    5.2290  -14.5240   -4.3190 C   0  0  0  0  0  0  0  0  0  0  0  0
    4.1100  -13.6870   -4.3750 C   0  0  0  0  0  0  0  0  0  0  0  0
    3.1670  -13.6220   -3.2510 C   0  0  0  0  0  0  0  0  0  0  0  0
    2.0160  -14.5760   -3.1800 C   0  0  0  0  0  0  0  0  0  0  0  0
    1.1010  -14.6310   -2.2620 N   0  0  0  0  0  0  0  0  0  0  0  0
    1.2120  -13.7160   -1.2500 C   0  0  0  0  0  0  0  0  0  0  0  0
    0.4530  -13.4830   -0.1140 C   0  0  0  0  0  0  0  0  0  0  0  0
   -0.7310  -14.2270    0.2950 C   0  0  0  0  0  0  0  0  0  0  0  0
   -1.9740  -13.9940   -0.2980 C   0  0  0  0  0  0  0  0  0  0  0  0
   -3.0940  -14.7020    0.1280 C   0  0  0  0  0  0  0  0  0  0  0  0
   -2.9770  -15.6500    1.1470 C   0  0  0  0  0  0  0  0  0  0  0  0
   -1.7480  -15.9240    1.7640 C   0  0  0  0  0  0  0  0  0  0  0  0
   -1.6620  -16.8730    2.7800 N   0  0  0  0  0  0  0  0  0  0  0  0
   -2.6210  -17.9950    2.7600 C   0  0  0  0  0  0  0  0  0  0  0  0
   -2.7080  -18.6520    4.1470 C   0  0  0  0  0  0  0  0  0  0  0  0
   -1.4150  -19.0480    4.6320 O   0  0  0  0  0  0  0  0  0  0  0  0
   -0.5660  -17.8960    4.7440 C   0  0  0  0  0  0  0  0  0  0  0  0
   -0.3620  -17.2070    3.3870 C   0  0  0  0  0  0  0  0  0  0  0  0
   -0.6370  -15.1840    1.3210 C   0  0  0  0  0  0  0  0  0  0  0  0
    1.0980  -12.4040    0.5260 C   0  0  0  0  0  0  0  0  0  0  0  0
    2.1750  -11.9680   -0.1230 N   0  0  0  0  0  0  0  0  0  0  0  0
    2.2560  -12.7810   -1.2200 N   0  0  0  0  0  0  0  0  0  0  0  0
    3.2470  -12.7280   -2.2400 C   0  0  0  0  0  0  0  0  0  0  0  0
    4.2130  -11.7510   -2.1130 N   0  0  0  0  0  0  0  0  0  0  0  0
    3.8960  -12.9150   -5.5200 C   0  0  0  0  0  0  0  0  0  0  0  0
    4.7930  -12.9800   -6.5920 C   0  0  0  0  0  0  0  0  0  0  0  0
    9.8393  -13.0428  -11.1830 H   0  0  0  0  0  0  0  0  0  0  0  0
    8.8711  -13.8125  -12.4856 H   0  0  0  0  0  0  0  0  0  0  0  0
    9.1236  -12.0341  -12.4856 H   0  0  0  0  0  0  0  0  0  0  0  0
    7.3810  -11.6941  -11.1170 H   0  0  0  0  0  0  0  0  0  0  0  0
    6.0593  -14.0947  -10.6743 H   0  0  0  0  0  0  0  0  0  0  0  0
    5.8922  -13.0692  -12.1396 H   0  0  0  0  0  0  0  0  0  0  0  0
    7.0334  -14.4564  -12.1396 H   0  0  0  0  0  0  0  0  0  0  0  0
    8.9137  -12.5183   -9.2295 H   0  0  0  0  0  0  0  0  0  0  0  0
    7.1494  -12.6008   -8.9231 H   0  0  0  0  0  0  0  0  0  0  0  0
    7.0190  -12.9380   -8.0680 H   0  0  0  0  0  0  0  0  0  0  0  0
    7.0016  -15.2490   -5.3347 H   0  0  0  0  0  0  0  0  0  0  0  0
    5.4067  -15.1379   -3.4237 H   0  0  0  0  0  0  0  0  0  0  0  0
    1.9373  -15.3106   -3.9950 H   0  0  0  0  0  0  0  0  0  0  0  0
   -2.0678  -13.2500   -1.1027 H   0  0  0  0  0  0  0  0  0  0  0  0
   -4.0725  -14.5147   -0.3384 H   0  0  0  0  0  0  0  0  0  0  0  0
   -3.8736  -16.1967    1.4745 H   0  0  0  0  0  0  0  0  0  0  0  0
   -3.6142  -17.6176    2.4750 H   0  0  0  0  0  0  0  0  0  0  0  0
   -2.2775  -18.7444    2.0317 H   0  0  0  0  0  0  0  0  0  0  0  0
   -3.1489  -17.9339    4.8541 H   0  0  0  0  0  0  0  0  0  0  0  0
   -3.3313  -19.5542    4.0594 H   0  0  0  0  0  0  0  0  0  0  0  0
   -1.0260  -17.1806    5.4415 H   0  0  0  0  0  0  0  0  0  0  0  0
    0.4163  -18.2282    5.1111 H   0  0  0  0  0  0  0  0  0  0  0  0
    0.2178  -16.2837    3.5329 H   0  0  0  0  0  0  0  0  0  0  0  0
    0.1792  -17.8914    2.7172 H   0  0  0  0  0  0  0  0  0  0  0  0
    0.3404  -15.3602    1.7940 H   0  0  0  0  0  0  0  0  0  0  0  0
    0.7447  -11.9651    1.4708 H   0  0  0  0  0  0  0  0  0  0  0  0
    4.4830  -11.4830   -1.1680 H   0  0  0  0  0  0  0  0  0  0  0  0
    4.6100  -11.2890   -2.9200 H   0  0  0  0  0  0  0  0  0  0  0  0
    3.0190  -12.2536   -5.5788 H   0  0  0  0  0  0  0  0  0  0  0  0
    4.6150  -12.3671   -7.4880 H   0  0  0  0  0  0  0  0  0  0  0  0
  1  2  1  0
  2  3  1  0
  2  4  1  0
  4  5  1  0
  5  6  1  0
  6  7  2  0
  6  8  1  0
  8  9  1  0
  9 10  2  0
 10 11  1  0
 11 12  2  0
 12 13  1  0
 13 14  1  0
 14 15  2  0
 15 16  1  0
 16 17  2  0
 17 18  1  0
 18 19  2  0
 19 20  1  0
 20 21  2  0
 21 22  1  0
 22 23  1  0
 23 24  1  0
 24 25  1  0
 25 26  1  0
 26 27  1  0
 27 28  1  0
 22 29  2  0
 17 30  1  0
 30 31  2  0
 31 32  1  0
 32 33  1  0
 33 34  1  0
 12 35  1  0
 35 36  2  0
 36  9  1  0
 33 13  2  0
 32 16  1  0
 29 18  1  0
 28 23  1  0
  1 37  1  0
  1 38  1  0
  1 39  1  0
  2 40  1  0
  3 41  1  0
  3 42  1  0
  3 43  1  0
  4 44  1  0
  4 45  1  0
  8 46  1  0
 10 47  1  0
 11 48  1  0
 14 49  1  0
 19 50  1  0
 20 51  1  0
 21 52  1  0
 24 53  1  0
 24 54  1  0
 25 55  1  0
 25 56  1  0
 27 57  1  0
 27 58  1  0
 28 59  1  0
 28 60  1  0
 29 61  1  0
 30 62  1  0
 34 63  1  0
 34 64  1  0
 35 65  1  0
 36 66  1  0
M  END
>  <meeko>  (7) 
{"is_sidechain": [false], "free_energy": -7.4, "intermolecular_energy": -10.822, "internal_energy": -0.853}

$$$$
LIB_PRFCJLMTRMJJIY__M_PUB_ALL__e8__s20260927
     RDKit          3D

 66 70  0  0  0  0  0  0  0  0999 V2000
   14.5940  -11.6250   -3.1890 C   0  0  0  0  0  0  0  0  0  0  0  0
   13.1540  -12.0980   -3.4050 C   0  0  0  0  0  0  0  0  0  0  0  0
   13.0680  -12.9870   -4.6440 C   0  0  0  0  0  0  0  0  0  0  0  0
   12.6190  -12.8400   -2.1740 C   0  0  0  0  0  0  0  0  0  0  0  0
   11.6560  -12.0100   -1.5100 O   0  0  0  0  0  0  0  0  0  0  0  0
   10.7850  -12.6850   -0.7120 C   0  0  0  0  0  0  0  0  0  0  0  0
   11.1260  -13.4040    0.2150 O   0  0  0  0  0  0  0  0  0  0  0  0
    9.5190  -12.4030   -1.1410 N   0  0  0  0  0  0  0  0  0  0  0  0
    8.2990  -12.8690   -0.6270 C   0  0  0  0  0  0  0  0  0  0  0  0
    7.8060  -12.5310    0.6340 C   0  0  0  0  0  0  0  0  0  0  0  0
    6.5770  -13.0370    1.0750 C   0  0  0  0  0  0  0  0  0  0  0  0
    5.8230  -13.8870    0.2590 C   0  0  0  0  0  0  0  0  0  0  0  0
    4.5360  -14.4220    0.7210 C   0  0  0  0  0  0  0  0  0  0  0  0
    3.3630  -13.5100    0.8960 C   0  0  0  0  0  0  0  0  0  0  0  0
    2.1750  -13.8320    1.3050 N   0  0  0  0  0  0  0  0  0  0  0  0
    1.9820  -15.1550    1.6010 C   0  0  0  0  0  0  0  0  0  0  0  0
    0.8740  -15.8620    2.0390 C   0  0  0  0  0  0  0  0  0  0  0  0
   -0.4490  -15.3090    2.3000 C   0  0  0  0  0  0  0  0  0  0  0  0
   -1.2890  -15.8650    3.2680 C   0  0  0  0  0  0  0  0  0  0  0  0
   -2.5560  -15.3330    3.4810 C   0  0  0  0  0  0  0  0  0  0  0  0
   -2.9920  -14.2390    2.7290 C   0  0  0  0  0  0  0  0  0  0  0  0
   -2.1790  -13.6420    1.7540 C   0  0  0  0  0  0  0  0  0  0  0  0
   -2.6420  -12.5540    1.0180 N   0  0  0  0  0  0  0  0  0  0  0  0
   -4.0310  -12.5970    0.5190 C   0  0  0  0  0  0  0  0  0  0  0  0
   -4.2200  -11.5940   -0.6300 C   0  0  0  0  0  0  0  0  0  0  0  0
   -3.8180  -10.2680   -0.2520 O   0  0  0  0  0  0  0  0  0  0  0  0
   -2.4270  -10.2670    0.1060 C   0  0  0  0  0  0  0  0  0  0  0  0
   -2.1490  -11.1940    1.2980 C   0  0  0  0  0  0  0  0  0  0  0  0
   -0.9090  -14.2090    1.5530 C   0  0  0  0  0  0  0  0  0  0  0  0
    1.3250  -17.1940    2.1470 C   0  0  0  0  0  0  0  0  0  0  0  0
    2.6040  -17.3500    1.8130 N   0  0  0  0  0  0  0  0  0  0  0  0
    3.0150  -16.0920    1.4670 N   0  0  0  0  0  0  0  0  0  0  0  0
    4.3150  -15.7200    1.0250 C   0  0  0  0  0  0  0  0  0  0  0  0
    5.2560  -16.7280    0.9520 N   0  0  0  0  0  0  0  0  0  0  0  0
    6.3160  -14.2280   -1.0040 C   0  0  0  0  0  0  0  0  0  0  0  0
    7.5450  -13.7220   -1.4420 C   0  0  0  0  0  0  0  0  0  0  0  0
   14.7999  -11.5574   -2.1106 H   0  0  0  0  0  0  0  0  0  0  0  0
   15.2887  -12.3422   -3.6506 H   0  0  0  0  0  0  0  0  0  0  0  0
   14.7281  -10.6356   -3.6506 H   0  0  0  0  0  0  0  0  0  0  0  0
   12.5251  -11.2090   -3.5607 H   0  0  0  0  0  0  0  0  0  0  0  0
   12.9663  -14.0378   -4.3350 H   0  0  0  0  0  0  0  0  0  0  0  0
   12.1939  -12.6952   -5.2447 H   0  0  0  0  0  0  0  0  0  0  0  0
   13.9818  -12.8682   -5.2447 H   0  0  0  0  0  0  0  0  0  0  0  0
   12.1414  -13.7797   -2.4886 H   0  0  0  0  0  0  0  0  0  0  0  0
   13.4483  -13.0682   -1.4883 H   0  0  0  0  0  0  0  0  0  0  0  0
    9.4970  -11.7740   -1.9300 H   0  0  0  0  0  0  0  0  0  0  0  0
    8.3869  -11.8623    1.2862 H   0  0  0  0  0  0  0  0  0  0  0  0
    6.2011  -12.7636    2.0720 H   0  0  0  0  0  0  0  0  0  0  0  0
    3.5260  -12.4501    0.6509 H   0  0  0  0  0  0  0  0  0  0  0  0
   -0.9476  -16.7251    3.8627 H   0  0  0  0  0  0  0  0  0  0  0  0
   -3.2159  -15.7740    4.2426 H   0  0  0  0  0  0  0  0  0  0  0  0
   -3.9997  -13.8351    2.9063 H   0  0  0  0  0  0  0  0  0  0  0  0
   -4.2540  -13.6109    0.1552 H   0  0  0  0  0  0  0  0  0  0  0  0
   -4.7130  -12.3309    1.3400 H   0  0  0  0  0  0  0  0  0  0  0  0
   -3.6143  -11.9184   -1.4890 H   0  0  0  0  0  0  0  0  0  0  0  0
   -5.2890  -11.5668   -0.8877 H   0  0  0  0  0  0  0  0  0  0  0  0
   -1.8362  -10.6082   -0.7568 H   0  0  0  0  0  0  0  0  0  0  0  0
   -2.1468   -9.2430    0.3941 H   0  0  0  0  0  0  0  0  0  0  0  0
   -1.0652  -11.2323    1.4821 H   0  0  0  0  0  0  0  0  0  0  0  0
   -2.6697  -10.8014    2.1839 H   0  0  0  0  0  0  0  0  0  0  0  0
   -0.2511  -13.7775    0.7843 H   0  0  0  0  0  0  0  0  0  0  0  0
    0.6819  -18.0238    2.4755 H   0  0  0  0  0  0  0  0  0  0  0  0
    5.4050  -17.2870    1.7900 H   0  0  0  0  0  0  0  0  0  0  0  0
    5.8050  -16.8820    0.1170 H   0  0  0  0  0  0  0  0  0  0  0  0
    5.7354  -14.8969   -1.6562 H   0  0  0  0  0  0  0  0  0  0  0  0
    7.9229  -13.9975   -2.4377 H   0  0  0  0  0  0  0  0  0  0  0  0
  1  2  1  0
  2  3  1  0
  2  4  1  0
  4  5  1  0
  5  6  1  0
  6  7  2  0
  6  8  1  0
  8  9  1  0
  9 10  2  0
 10 11  1  0
 11 12  2  0
 12 13  1  0
 13 14  1  0
 14 15  2  0
 15 16  1  0
 16 17  2  0
 17 18  1  0
 18 19  2  0
 19 20  1  0
 20 21  2  0
 21 22  1  0
 22 23  1  0
 23 24  1  0
 24 25  1  0
 25 26  1  0
 26 27  1  0
 27 28  1  0
 22 29  2  0
 17 30  1  0
 30 31  2  0
 31 32  1  0
 32 33  1  0
 33 34  1  0
 12 35  1  0
 35 36  2  0
 36  9  1  0
 33 13  2  0
 32 16  1  0
 29 18  1  0
 28 23  1  0
  1 37  1  0
  1 38  1  0
  1 39  1  0
  2 40  1  0
  3 41  1  0
  3 42  1  0
  3 43  1  0
  4 44  1  0
  4 45  1  0
  8 46  1  0
 10 47  1  0
 11 48  1  0
 14 49  1  0
 19 50  1  0
 20 51  1  0
 21 52  1  0
 24 53  1  0
 24 54  1  0
 25 55  1  0
 25 56  1  0
 27 57  1  0
 27 58  1  0
 28 59  1  0
 28 60  1  0
 29 61  1  0
 30 62  1  0
 34 63  1  0
 34 64  1  0
 35 65  1  0
 36 66  1  0
M  END
>  <meeko>  (8) 
{"is_sidechain": [false], "free_energy": -7.127, "intermolecular_energy": -10.762, "internal_energy": -0.52}

$$$$
LIB_PRFCJLMTRMJJIY__M_PUB_ALL__e8__s20260927
     RDKit          3D

 66 70  0  0  0  0  0  0  0  0999 V2000
    5.9500  -12.3300   -3.7620 C   0  0  0  0  0  0  0  0  0  0  0  0
    4.7790  -11.8460   -4.6190 C   0  0  0  0  0  0  0  0  0  0  0  0
    4.7680  -12.5730   -5.9630 C   0  0  0  0  0  0  0  0  0  0  0  0
    3.4400  -12.0370   -3.8960 C   0  0  0  0  0  0  0  0  0  0  0  0
    2.5720  -12.8280   -4.7210 O   0  0  0  0  0  0  0  0  0  0  0  0
    1.7380  -13.6530   -4.0310 C   0  0  0  0  0  0  0  0  0  0  0  0
    1.0100  -14.4810   -4.5560 O   0  0  0  0  0  0  0  0  0  0  0  0
    1.8820  -13.3760   -2.7010 N   0  0  0  0  0  0  0  0  0  0  0  0
    1.2290  -13.9690   -1.6090 C   0  0  0  0  0  0  0  0  0  0  0  0
    0.1440  -14.8390   -1.7310 C   0  0  0  0  0  0  0  0  0  0  0  0
   -0.4540  -15.3930   -0.5930 C   0  0  0  0  0  0  0  0  0  0  0  0
    0.0270  -15.0840    0.6840 C   0  0  0  0  0  0  0  0  0  0  0  0
   -0.6010  -15.6600    1.8800 C   0  0  0  0  0  0  0  0  0  0  0  0
   -1.6110  -14.8710    2.6530 C   0  0  0  0  0  0  0  0  0  0  0  0
   -2.2360  -15.2400    3.7280 N   0  0  0  0  0  0  0  0  0  0  0  0
   -1.9370  -16.4910    4.1960 C   0  0  0  0  0  0  0  0  0  0  0  0
   -2.4020  -17.2190    5.2790 C   0  0  0  0  0  0  0  0  0  0  0  0
   -3.4030  -16.7800    6.2420 C   0  0  0  0  0  0  0  0  0  0  0  0
   -3.0400  -16.3640    7.5260 C   0  0  0  0  0  0  0  0  0  0  0  0
   -4.0180  -15.9730    8.4350 C   0  0  0  0  0  0  0  0  0  0  0  0
   -5.3660  -15.9910    8.0650 C   0  0  0  0  0  0  0  0  0  0  0  0
   -5.7750  -16.3910    6.7840 C   0  0  0  0  0  0  0  0  0  0  0  0
   -7.1260  -16.4030    6.4450 N   0  0  0  0  0  0  0  0  0  0  0  0
   -7.4930  -16.8400    5.0830 C   0  0  0  0  0  0  0  0  0  0  0  0
   -8.9060  -16.3540    4.7260 C   0  0  0  0  0  0  0  0  0  0  0  0
   -9.8740  -16.7580    5.7070 O   0  0  0  0  0  0  0  0  0  0  0  0
   -9.5290  -16.2030    6.9860 C   0  0  0  0  0  0  0  0  0  0  0  0
   -8.1520  -16.6890    7.4620 C   0  0  0  0  0  0  0  0  0  0  0  0
   -4.7650  -16.7930    5.8920 C   0  0  0  0  0  0  0  0  0  0  0  0
   -1.7060  -18.4440    5.2060 C   0  0  0  0  0  0  0  0  0  0  0  0
   -0.8640  -18.5160    4.1770 N   0  0  0  0  0  0  0  0  0  0  0  0
   -1.0080  -17.3130    3.5430 N   0  0  0  0  0  0  0  0  0  0  0  0
   -0.3240  -16.8900    2.3690 C   0  0  0  0  0  0  0  0  0  0  0  0
    0.5830  -17.7790    1.8270 N   0  0  0  0  0  0  0  0  0  0  0  0
    1.1120  -14.2120    0.8080 C   0  0  0  0  0  0  0  0  0  0  0  0
    1.7070  -13.6600   -0.3310 C   0  0  0  0  0  0  0  0  0  0  0  0
    5.6937  -12.2241   -2.6975 H   0  0  0  0  0  0  0  0  0  0  0  0
    6.1561  -13.3870   -3.9861 H   0  0  0  0  0  0  0  0  0  0  0  0
    6.8422  -11.7269   -3.9861 H   0  0  0  0  0  0  0  0  0  0  0  0
    4.9138  -10.7690   -4.7977 H   0  0  0  0  0  0  0  0  0  0  0  0
    4.7516  -13.6595   -5.7920 H   0  0  0  0  0  0  0  0  0  0  0  0
    3.8742  -12.2778   -6.5322 H   0  0  0  0  0  0  0  0  0  0  0  0
    5.6703  -12.3050   -6.5322 H   0  0  0  0  0  0  0  0  0  0  0  0
    3.6081  -12.5513   -2.9383 H   0  0  0  0  0  0  0  0  0  0  0  0
    2.9786  -11.0572   -3.7036 H   0  0  0  0  0  0  0  0  0  0  0  0
    2.5530  -12.6440   -2.5170 H   0  0  0  0  0  0  0  0  0  0  0  0
   -0.2439  -15.0911   -2.7290 H   0  0  0  0  0  0  0  0  0  0  0  0
   -1.3087  -16.0766   -0.7036 H   0  0  0  0  0  0  0  0  0  0  0  0
   -1.8493  -13.8688    2.2673 H   0  0  0  0  0  0  0  0  0  0  0  0
   -1.9797  -16.3457    7.8182 H   0  0  0  0  0  0  0  0  0  0  0  0
   -3.7302  -15.6493    9.4461 H   0  0  0  0  0  0  0  0  0  0  0  0
   -6.1264  -15.6833    8.7979 H   0  0  0  0  0  0  0  0  0  0  0  0
   -6.7738  -16.4231    4.3627 H   0  0  0  0  0  0  0  0  0  0  0  0
   -7.4738  -17.9391    5.0441 H   0  0  0  0  0  0  0  0  0  0  0  0
   -8.8994  -15.2558    4.6638 H   0  0  0  0  0  0  0  0  0  0  0  0
   -9.1883  -16.8035    3.7625 H   0  0  0  0  0  0  0  0  0  0  0  0
   -9.5120  -15.1060    6.9060 H   0  0  0  0  0  0  0  0  0  0  0  0
  -10.2813  -16.5327    7.7177 H   0  0  0  0  0  0  0  0  0  0  0  0
   -7.8890  -16.1729    8.3971 H   0  0  0  0  0  0  0  0  0  0  0  0
   -8.1955  -17.7754    7.6288 H   0  0  0  0  0  0  0  0  0  0  0  0
   -5.0505  -17.1297    4.8844 H   0  0  0  0  0  0  0  0  0  0  0  0
   -1.8455  -19.2609    5.9294 H   0  0  0  0  0  0  0  0  0  0  0  0
    0.2330  -18.4310    1.1290 H   0  0  0  0  0  0  0  0  0  0  0  0
    1.5440  -17.8110    2.1380 H   0  0  0  0  0  0  0  0  0  0  0  0
    1.4997  -13.9587    1.8057 H   0  0  0  0  0  0  0  0  0  0  0  0
    2.5606  -12.9750   -0.2207 H   0  0  0  0  0  0  0  0  0  0  0  0
  1  2  1  0
  2  3  1  0
  2  4  1  0
  4  5  1  0
  5  6  1  0
  6  7  2  0
  6  8  1  0
  8  9  1  0
  9 10  2  0
 10 11  1  0
 11 12  2  0
 12 13  1  0
 13 14  1  0
 14 15  2  0
 15 16  1  0
 16 17  2  0
 17 18  1  0
 18 19  2  0
 19 20  1  0
 20 21  2  0
 21 22  1  0
 22 23  1  0
 23 24  1  0
 24 25  1  0
 25 26  1  0
 26 27  1  0
 27 28  1  0
 22 29  2  0
 17 30  1  0
 30 31  2  0
 31 32  1  0
 32 33  1  0
 33 34  1  0
 12 35  1  0
 35 36  2  0
 36  9  1  0
 33 13  2  0
 32 16  1  0
 29 18  1  0
 28 23  1  0
  1 37  1  0
  1 38  1  0
  1 39  1  0
  2 40  1  0
  3 41  1  0
  3 42  1  0
  3 43  1  0
  4 44  1  0
  4 45  1  0
  8 46  1  0
 10 47  1  0
 11 48  1  0
 14 49  1  0
 19 50  1  0
 20 51  1  0
 21 52  1  0
 24 53  1  0
 24 54  1  0
 25 55  1  0
 25 56  1  0
 27 57  1  0
 27 58  1  0
 28 59  1  0
 28 60  1  0
 29 61  1  0
 30 62  1  0
 34 63  1  0
 34 64  1  0
 35 65  1  0
 36 66  1  0
M  END
>  <meeko>  (9) 
{"is_sidechain": [false], "free_energy": -6.993, "intermolecular_energy": -10.398, "internal_energy": -0.691}

$$$$
