LIB_ZQOONWLSKQGNJP__M_PUB_ALL__e8__s20260927
     RDKit          3D

 75 82  0  0  0  0  0  0  0  0999 V2000
   -4.2560  -12.3040    1.0430 C   0  0  0  0  0  0  0  0  0  0  0  0
   -3.1060  -13.2160    1.5050 C   0  0  0  0  0  0  0  0  0  0  0  0
   -3.7460  -14.5430    1.9400 C   0  0  0  0  0  0  0  0  0  0  0  0
   -2.5160  -12.6430    2.6960 O   0  0  0  0  0  0  0  0  0  0  0  0
   -1.1960  -12.1460    2.4090 C   0  0  2  0  0  0  0  0  0  0  0  0
   -1.1210  -10.6920    2.8020 C   0  0  0  0  0  0  0  0  0  0  0  0
   -1.6050  -10.0160    1.5600 C   0  0  0  0  0  0  0  0  0  0  0  0
   -1.9080   -8.8390    1.4640 O   0  0  0  0  0  0  0  0  0  0  0  0
   -1.6270  -10.8990    0.5160 O   0  0  0  0  0  0  0  0  0  0  0  0
   -1.0190  -12.1660    0.9060 C   0  0  1  0  0  0  0  0  0  0  0  0
    0.4160  -12.0450    0.3380 C   0  0  0  0  0  0  0  0  0  0  0  0
    1.4140  -13.2080    0.2920 C   0  0  2  0  0  0  0  0  0  0  0  0
    1.9280  -13.6850    1.6610 C   0  0  0  0  0  0  0  0  0  0  0  0
    2.8950  -14.8930    1.6370 C   0  0  0  0  0  0  0  0  0  0  0  0
    4.3050  -14.6980    1.0350 C   0  0  2  0  0  0  0  0  0  0  0  0
    5.0810  -16.0230    1.1780 C   0  0  0  0  0  0  0  0  0  0  0  0
    5.0550  -13.6730    1.8670 C   0  0  0  0  0  0  0  0  0  0  0  0
    5.1260  -13.7120    3.0930 O   0  0  0  0  0  0  0  0  0  0  0  0
    5.6100  -12.5330    1.0530 C   0  0  2  0  0  0  0  0  0  0  0  0
    7.0000  -12.1180    1.5200 C   0  0  0  0  0  0  0  0  0  0  0  0
    4.6950  -11.4590    1.2960 O   0  0  0  0  0  0  0  0  0  0  0  0
    5.5360  -13.0780   -0.4050 C   0  0  2  0  0  0  0  0  0  0  0  0
    6.7660  -13.7630   -0.7290 O   0  0  0  0  0  0  0  0  0  0  0  0
    5.3160  -11.9220   -1.4110 C   0  0  1  0  0  0  0  0  0  0  0  0
    6.5810  -11.4630   -1.9130 O   0  0  0  0  0  0  0  0  0  0  0  0
    6.6620  -11.6970   -3.2540 C   0  0  0  0  0  0  0  0  0  0  0  0
    7.6180  -11.3660   -3.9390 O   0  0  0  0  0  0  0  0  0  0  0  0
    5.4330  -12.4300   -3.7630 C   0  0  2  0  0  0  0  0  0  0  0  0
    5.7770  -13.8860   -4.0590 C   0  0  0  0  0  0  0  0  0  0  0  0
    4.9320  -11.8400   -4.9630 O   0  0  0  0  0  0  0  0  0  0  0  0
    4.4440  -12.2210   -2.6170 C   0  0  1  0  0  0  0  0  0  0  0  0
    3.5310  -13.2950   -2.4820 O   0  0  0  0  0  0  0  0  0  0  0  0
    3.1940  -13.6850   -1.1590 C   0  0  1  0  0  0  0  0  0  0  0  0
    2.5520  -12.6550   -0.4230 O   0  0  0  0  0  0  0  0  0  0  0  0
    2.1140  -14.7420   -1.3440 C   0  0  0  0  0  0  0  0  0  0  0  0
    2.1840  -15.7780   -1.9870 O   0  0  0  0  0  0  0  0  0  0  0  0
    0.9400  -14.3460   -0.5380 C   0  0  0  0  0  0  0  0  0  0  0  0
   -0.2350  -14.9770   -0.5480 C   0  0  0  0  0  0  0  0  0  0  0  0
   -1.3260  -14.7110    0.4370 C   0  0  0  0  0  0  0  0  0  0  0  0
   -1.9510  -13.3040    0.4510 C   0  0  1  0  0  0  0  0  0  0  0  0
    4.4320  -14.1770   -0.4290 C   0  0  2  0  0  0  0  0  0  0  0  0
   -4.7740  -11.8932    1.9222 H   0  0  0  0  0  0  0  0  0  0  0  0
   -3.8500  -11.4797    0.4383 H   0  0  0  0  0  0  0  0  0  0  0  0
   -4.9661  -12.8871    0.4383 H   0  0  0  0  0  0  0  0  0  0  0  0
   -3.7712  -14.5952    3.0385 H   0  0  0  0  0  0  0  0  0  0  0  0
   -4.7715  -14.6018    1.5465 H   0  0  0  0  0  0  0  0  0  0  0  0
   -3.1536  -15.3822    1.5465 H   0  0  0  0  0  0  0  0  0  0  0  0
   -0.4469  -12.7506    2.9412 H   0  0  0  0  0  0  0  0  0  0  0  0
   -1.7761  -10.4740    3.6583 H   0  0  0  0  0  0  0  0  0  0  0  0
   -0.1206  -10.3683    3.1252 H   0  0  0  0  0  0  0  0  0  0  0  0
    0.2988  -11.7095   -0.7030 H   0  0  0  0  0  0  0  0  0  0  0  0
    0.8864  -11.3913    1.0873 H   0  0  0  0  0  0  0  0  0  0  0  0
    2.4526  -12.8429    2.1360 H   0  0  0  0  0  0  0  0  0  0  0  0
    1.0383  -14.0270    2.2101 H   0  0  0  0  0  0  0  0  0  0  0  0
    3.0292  -15.2220    2.6780 H   0  0  0  0  0  0  0  0  0  0  0  0
    2.4105  -15.6119    0.9598 H   0  0  0  0  0  0  0  0  0  0  0  0
    5.2169  -16.2550    2.2446 H   0  0  0  0  0  0  0  0  0  0  0  0
    4.5148  -16.8334    0.6957 H   0  0  0  0  0  0  0  0  0  0  0  0
    6.0648  -15.9256    0.6957 H   0  0  0  0  0  0  0  0  0  0  0  0
    7.0299  -12.1091    2.6196 H   0  0  0  0  0  0  0  0  0  0  0  0
    7.7436  -12.8333    1.1388 H   0  0  0  0  0  0  0  0  0  0  0  0
    7.2298  -11.1121    1.1388 H   0  0  0  0  0  0  0  0  0  0  0  0
    3.9680  -11.8220    1.8420 H   0  0  0  0  0  0  0  0  0  0  0  0
    7.1000  -13.3960   -1.5730 H   0  0  0  0  0  0  0  0  0  0  0  0
    4.7762  -11.1706   -0.8160 H   0  0  0  0  0  0  0  0  0  0  0  0
    5.9060  -14.4319   -3.1128 H   0  0  0  0  0  0  0  0  0  0  0  0
    4.9625  -14.3446   -4.6389 H   0  0  0  0  0  0  0  0  0  0  0  0
    6.7106  -13.9316   -4.6389 H   0  0  0  0  0  0  0  0  0  0  0  0
    4.5280  -12.5600   -5.4870 H   0  0  0  0  0  0  0  0  0  0  0  0
    3.7516  -11.3829   -2.7849 H   0  0  0  0  0  0  0  0  0  0  0  0
   -0.4104  -15.7356   -1.3250 H   0  0  0  0  0  0  0  0  0  0  0  0
   -2.1350  -15.4277    0.2325 H   0  0  0  0  0  0  0  0  0  0  0  0
   -0.8427  -14.8100    1.4202 H   0  0  0  0  0  0  0  0  0  0  0  0
   -2.2507  -13.1742   -0.5994 H   0  0  0  0  0  0  0  0  0  0  0  0
    4.6717  -15.0641   -1.0337 H   0  0  0  0  0  0  0  0  0  0  0  0
  1  2  1  0
  2  3  1  0
  2  4  1  0
  4  5  1  0
  5  6  1  0
  6  7  1  0
  7  8  2  0
  7  9  1  0
 10  9  1  6
 10 11  1  0
 12 11  1  1
 12 13  1  0
 13 14  1  0
 14 15  1  0
 15 16  1  6
 15 17  1  0
 17 18  2  0
 17 19  1  0
 19 20  1  0
 19 21  1  6
 19 22  1  0
 22 23  1  6
 22 24  1  0
 24 25  1  0
 25 26  1  0
 26 27  2  0
 26 28  1  0
 28 29  1  0
 28 30  1  6
 28 31  1  0
 31 32  1  0
 33 32  1  6
 33 34  1  0
 33 35  1  0
 35 36  2  0
 35 37  1  0
 37 38  2  0
 38 39  1  0
 39 40  1  0
 33 41  1  0
 40  2  1  0
 10  5  1  0
 34 12  1  0
 40 10  1  0
 37 12  1  0
 41 15  1  0
 41 22  1  0
 31 24  1  0
  1 42  1  0
  1 43  1  0
  1 44  1  0
  3 45  1  0
  3 46  1  0
  3 47  1  0
  5 48  1  1
  6 49  1  0
  6 50  1  0
 11 51  1  0
 11 52  1  0
 13 53  1  0
 13 54  1  0
 14 55  1  0
 14 56  1  0
 16 57  1  0
 16 58  1  0
 16 59  1  0
 20 60  1  0
 20 61  1  0
 20 62  1  0
 21 63  1  0
 23 64  1  0
 24 65  1  1
 29 66  1  0
 29 67  1  0
 29 68  1  0
 30 69  1  0
 31 70  1  6
 38 71  1  0
 39 72  1  0
 39 73  1  0
 40 74  1  6
 41 75  1  6
M  END
>  <meeko>  (1) 
{"is_sidechain": [false], "free_energy": -7.364, "intermolecular_energy": -10.162, "internal_energy": 0.137}

$$$$
LIB_ZQOONWLSKQGNJP__M_PUB_ALL__e8__s20260927
     RDKit          3D

 75 82  0  0  0  0  0  0  0  0999 V2000
    2.6360  -13.8410   -1.6210 C   0  0  0  0  0  0  0  0  0  0  0  0
    3.9250  -13.6490   -0.8010 C   0  0  0  0  0  0  0  0  0  0  0  0
    3.5630  -13.9480    0.6610 C   0  0  0  0  0  0  0  0  0  0  0  0
    4.2930  -12.2500   -0.8470 O   0  0  0  0  0  0  0  0  0  0  0  0
    5.4890  -12.0760   -1.6300 C   0  0  2  0  0  0  0  0  0  0  0  0
    5.2170  -11.0780   -2.7280 C   0  0  0  0  0  0  0  0  0  0  0  0
    4.6810  -11.9570   -3.8110 C   0  0  0  0  0  0  0  0  0  0  0  0
    4.1360  -11.5740   -4.8320 O   0  0  0  0  0  0  0  0  0  0  0  0
    4.9240  -13.2710   -3.5210 O   0  0  0  0  0  0  0  0  0  0  0  0
    5.7660  -13.3860   -2.3350 C   0  0  1  0  0  0  0  0  0  0  0  0
    7.1810  -13.5870   -2.9260 C   0  0  0  0  0  0  0  0  0  0  0  0
    8.4080  -13.9800   -2.0960 C   0  0  2  0  0  0  0  0  0  0  0  0
    8.9150  -12.9010   -1.1240 C   0  0  0  0  0  0  0  0  0  0  0  0
   10.1200  -13.2990   -0.2380 C   0  0  0  0  0  0  0  0  0  0  0  0
   11.4930  -13.5140   -0.9140 C   0  0  2  0  0  0  0  0  0  0  0  0
   12.5260  -13.8480    0.1820 C   0  0  0  0  0  0  0  0  0  0  0  0
   11.9420  -12.2040   -1.5370 C   0  0  0  0  0  0  0  0  0  0  0  0
   11.9320  -11.1290   -0.9410 O   0  0  0  0  0  0  0  0  0  0  0  0
   12.2930  -12.3260   -2.9970 C   0  0  2  0  0  0  0  0  0  0  0  0
   13.5230  -11.5030   -3.3610 C   0  0  0  0  0  0  0  0  0  0  0  0
   11.1520  -11.7850   -3.6710 O   0  0  0  0  0  0  0  0  0  0  0  0
   12.4430  -13.8650   -3.1920 C   0  0  2  0  0  0  0  0  0  0  0  0
   13.8120  -14.2530   -2.9430 O   0  0  0  0  0  0  0  0  0  0  0  0
   12.0500  -14.2740   -4.6320 C   0  0  1  0  0  0  0  0  0  0  0  0
   13.2180  -14.3070   -5.4670 O   0  0  0  0  0  0  0  0  0  0  0  0
   13.4430  -15.5800   -5.9020 C   0  0  0  0  0  0  0  0  0  0  0  0
   14.3510  -15.8810   -6.6630 O   0  0  0  0  0  0  0  0  0  0  0  0
   12.4420  -16.5540   -5.3070 C   0  0  2  0  0  0  0  0  0  0  0  0
   13.1130  -17.4040   -4.2330 C   0  0  0  0  0  0  0  0  0  0  0  0
   11.9110  -17.4320   -6.3000 O   0  0  0  0  0  0  0  0  0  0  0  0
   11.3520  -15.6120   -4.7960 C   0  0  1  0  0  0  0  0  0  0  0  0
   10.6860  -16.1190   -3.6530 O   0  0  0  0  0  0  0  0  0  0  0  0
   10.3490  -15.1800   -2.6420 C   0  0  1  0  0  0  0  0  0  0  0  0
    9.4470  -14.1800   -3.0920 O   0  0  0  0  0  0  0  0  0  0  0  0
    9.5390  -15.9880   -1.6370 C   0  0  0  0  0  0  0  0  0  0  0  0
    9.8770  -17.0020   -1.0470 O   0  0  0  0  0  0  0  0  0  0  0  0
    8.2520  -15.2930   -1.4180 C   0  0  0  0  0  0  0  0  0  0  0  0
    7.2460  -15.7740   -0.6870 C   0  0  0  0  0  0  0  0  0  0  0  0
    6.0560  -14.9650   -0.2840 C   0  0  0  0  0  0  0  0  0  0  0  0
    5.1390  -14.4360   -1.4010 C   0  0  1  0  0  0  0  0  0  0  0  0
   11.6080  -14.5530   -2.0710 C   0  0  2  0  0  0  0  0  0  0  0  0
    1.7828  -13.9681   -0.9385 H   0  0  0  0  0  0  0  0  0  0  0  0
    2.4699  -12.9577   -2.2552 H   0  0  0  0  0  0  0  0  0  0  0  0
    2.7345  -14.7344   -2.2552 H   0  0  0  0  0  0  0  0  0  0  0  0
    4.2379  -13.3906    1.3272 H   0  0  0  0  0  0  0  0  0  0  0  0
    2.5239  -13.6413    0.8516 H   0  0  0  0  0  0  0  0  0  0  0  0
    3.6679  -15.0263    0.8516 H   0  0  0  0  0  0  0  0  0  0  0  0
    6.3156  -11.7515   -0.9809 H   0  0  0  0  0  0  0  0  0  0  0  0
    4.4742  -10.3297   -2.4146 H   0  0  0  0  0  0  0  0  0  0  0  0
    6.0980  -10.4902   -3.0252 H   0  0  0  0  0  0  0  0  0  0  0  0
    7.0759  -14.3695   -3.6919 H   0  0  0  0  0  0  0  0  0  0  0  0
    7.4394  -12.5551   -3.2061 H   0  0  0  0  0  0  0  0  0  0  0  0
    9.2096  -12.0238   -1.7187 H   0  0  0  0  0  0  0  0  0  0  0  0
    8.0838  -12.7142   -0.4281 H   0  0  0  0  0  0  0  0  0  0  0  0
   10.2481  -12.5045    0.5119 H   0  0  0  0  0  0  0  0  0  0  0  0
    9.8523  -14.2928    0.1501 H   0  0  0  0  0  0  0  0  0  0  0  0
   12.0705  -13.7007    1.1723 H   0  0  0  0  0  0  0  0  0  0  0  0
   12.8457  -14.8953    0.0776 H   0  0  0  0  0  0  0  0  0  0  0  0
   13.3984  -13.1861    0.0776 H   0  0  0  0  0  0  0  0  0  0  0  0
   14.0248  -11.1673   -2.4415 H   0  0  0  0  0  0  0  0  0  0  0  0
   14.2155  -12.1203   -3.9521 H   0  0  0  0  0  0  0  0  0  0  0  0
   13.2165  -10.6274   -3.9521 H   0  0  0  0  0  0  0  0  0  0  0  0
   10.5110  -12.5160   -3.7780 H   0  0  0  0  0  0  0  0  0  0  0  0
   14.3880  -13.5040   -3.2000 H   0  0  0  0  0  0  0  0  0  0  0  0
   11.3196  -13.5042   -4.9218 H   0  0  0  0  0  0  0  0  0  0  0  0
   12.8218  -17.0351   -3.2384 H   0  0  0  0  0  0  0  0  0  0  0  0
   12.7956  -18.4515   -4.3430 H   0  0  0  0  0  0  0  0  0  0  0  0
   14.2055  -17.3384   -4.3430 H   0  0  0  0  0  0  0  0  0  0  0  0
   11.3950  -16.8810   -6.9210 H   0  0  0  0  0  0  0  0  0  0  0  0
   10.5083  -15.5007   -5.4930 H   0  0  0  0  0  0  0  0  0  0  0  0
    7.2947  -16.8240   -0.3628 H   0  0  0  0  0  0  0  0  0  0  0  0
    5.4403  -15.5930    0.3767 H   0  0  0  0  0  0  0  0  0  0  0  0
    6.4783  -14.0616    0.1802 H   0  0  0  0  0  0  0  0  0  0  0  0
    4.8894  -15.3559   -1.9500 H   0  0  0  0  0  0  0  0  0  0  0  0
   12.0766  -15.4399   -1.6196 H   0  0  0  0  0  0  0  0  0  0  0  0
  1  2  1  0
  2  3  1  0
  2  4  1  0
  4  5  1  0
  5  6  1  0
  6  7  1  0
  7  8  2  0
  7  9  1  0
 10  9  1  6
 10 11  1  0
 12 11  1  6
 12 13  1  0
 13 14  1  0
 14 15  1  0
 15 16  1  1
 15 17  1  0
 17 18  2  0
 17 19  1  0
 19 20  1  0
 19 21  1  6
 19 22  1  0
 22 23  1  1
 22 24  1  0
 24 25  1  0
 25 26  1  0
 26 27  2  0
 26 28  1  0
 28 29  1  0
 28 30  1  6
 28 31  1  0
 31 32  1  0
 33 32  1  6
 33 34  1  0
 33 35  1  0
 35 36  2  0
 35 37  1  0
 37 38  2  0
 38 39  1  0
 39 40  1  0
 33 41  1  0
 40  2  1  0
 10  5  1  0
 34 12  1  0
 40 10  1  0
 37 12  1  0
 41 15  1  0
 41 22  1  0
 31 24  1  0
  1 42  1  0
  1 43  1  0
  1 44  1  0
  3 45  1  0
  3 46  1  0
  3 47  1  0
  5 48  1  1
  6 49  1  0
  6 50  1  0
 11 51  1  0
 11 52  1  0
 13 53  1  0
 13 54  1  0
 14 55  1  0
 14 56  1  0
 16 57  1  0
 16 58  1  0
 16 59  1  0
 20 60  1  0
 20 61  1  0
 20 62  1  0
 21 63  1  0
 23 64  1  0
 24 65  1  6
 29 66  1  0
 29 67  1  0
 29 68  1  0
 30 69  1  0
 31 70  1  6
 38 71  1  0
 39 72  1  0
 39 73  1  0
 40 74  1  6
 41 75  1  1
M  END
>  <meeko>  (2) 
{"is_sidechain": [false], "free_energy": -7.179, "intermolecular_energy": -9.92, "internal_energy": 0.149}

$$$$
LIB_ZQOONWLSKQGNJP__M_PUB_ALL__e8__s20260927
     RDKit          3D

 75 82  0  0  0  0  0  0  0  0999 V2000
   12.2910  -16.1910   -1.3350 C   0  0  0  0  0  0  0  0  0  0  0  0
   11.2050  -16.1330   -2.4240 C   0  0  0  0  0  0  0  0  0  0  0  0
   11.5020  -17.2800   -3.4020 C   0  0  0  0  0  0  0  0  0  0  0  0
   11.3750  -14.9090   -3.1760 O   0  0  0  0  0  0  0  0  0  0  0  0
   10.2900  -14.0020   -2.9020 C   0  0  2  0  0  0  0  0  0  0  0  0
   10.8560  -12.6880   -2.4240 C   0  0  0  0  0  0  0  0  0  0  0  0
   10.9770  -12.9270   -0.9540 C   0  0  0  0  0  0  0  0  0  0  0  0
   11.5750  -12.2150   -0.1660 O   0  0  0  0  0  0  0  0  0  0  0  0
   10.2830  -14.0490   -0.5950 O   0  0  0  0  0  0  0  0  0  0  0  0
    9.5170  -14.5600   -1.7270 C   0  0  1  0  0  0  0  0  0  0  0  0
    8.0960  -13.9930   -1.4760 C   0  0  0  0  0  0  0  0  0  0  0  0
    6.8520  -14.4190   -2.2650 C   0  0  2  0  0  0  0  0  0  0  0  0
    6.8240  -13.9700   -3.7360 C   0  0  0  0  0  0  0  0  0  0  0  0
    5.6020  -14.4360   -4.5620 C   0  0  0  0  0  0  0  0  0  0  0  0
    4.2140  -13.8460   -4.2240 C   0  0  2  0  0  0  0  0  0  0  0  0
    3.1850  -14.4270   -5.2160 C   0  0  0  0  0  0  0  0  0  0  0  0
    4.2450  -12.3490   -4.4710 C   0  0  0  0  0  0  0  0  0  0  0  0
    4.6760  -11.8380   -5.5030 O   0  0  0  0  0  0  0  0  0  0  0  0
    3.8030  -11.5370   -3.2810 C   0  0  2  0  0  0  0  0  0  0  0  0
    2.9420  -10.3460   -3.6880 C   0  0  0  0  0  0  0  0  0  0  0  0
    5.0280  -11.0580   -2.7170 O   0  0  0  0  0  0  0  0  0  0  0  0
    3.0910  -12.5940   -2.3840 C   0  0  2  0  0  0  0  0  0  0  0  0
    1.6890  -12.6540   -2.7260 O   0  0  0  0  0  0  0  0  0  0  0  0
    3.2360  -12.2270   -0.8870 C   0  0  1  0  0  0  0  0  0  0  0  0
    2.0980  -11.4640   -0.4580 O   0  0  0  0  0  0  0  0  0  0  0  0
    1.4020  -12.1580    0.4870 C   0  0  0  0  0  0  0  0  0  0  0  0
    0.4110  -11.7190    1.0520 O   0  0  0  0  0  0  0  0  0  0  0  0
    2.0060  -13.5310    0.7220 C   0  0  2  0  0  0  0  0  0  0  0  0
    1.1230  -14.6050    0.0940 C   0  0  0  0  0  0  0  0  0  0  0  0
    2.1290  -13.8180    2.1160 O   0  0  0  0  0  0  0  0  0  0  0  0
    3.3880  -13.3800    0.0880 C   0  0  1  0  0  0  0  0  0  0  0  0
    3.8780  -14.5970   -0.4480 O   0  0  0  0  0  0  0  0  0  0  0  0
    4.5840  -14.5150   -1.6770 C   0  0  1  0  0  0  0  0  0  0  0  0
    5.7650  -13.7330   -1.5880 O   0  0  0  0  0  0  0  0  0  0  0  0
    5.0900  -15.9320   -1.9120 C   0  0  0  0  0  0  0  0  0  0  0  0
    4.4340  -16.9590   -1.9750 O   0  0  0  0  0  0  0  0  0  0  0  0
    6.5510  -15.8680   -2.1320 C   0  0  0  0  0  0  0  0  0  0  0  0
    7.3460  -16.9310   -2.2570 C   0  0  0  0  0  0  0  0  0  0  0  0
    8.7670  -16.8520   -2.7100 C   0  0  0  0  0  0  0  0  0  0  0  0
    9.7590  -16.0760   -1.8260 C   0  0  1  0  0  0  0  0  0  0  0  0
    3.6700  -13.9880   -2.7690 C   0  0  2  0  0  0  0  0  0  0  0  0
   11.8169  -16.1657   -0.3427 H   0  0  0  0  0  0  0  0  0  0  0  0
   12.8682  -17.1213   -1.4420 H   0  0  0  0  0  0  0  0  0  0  0  0
   12.9640  -15.3275   -1.4420 H   0  0  0  0  0  0  0  0  0  0  0  0
   11.7384  -18.1929   -2.8356 H   0  0  0  0  0  0  0  0  0  0  0  0
   10.6207  -17.4593   -4.0353 H   0  0  0  0  0  0  0  0  0  0  0  0
   12.3596  -17.0091   -4.0353 H   0  0  0  0  0  0  0  0  0  0  0  0
    9.6733  -13.8748   -3.8039 H   0  0  0  0  0  0  0  0  0  0  0  0
   11.8365  -12.4845   -2.8792 H   0  0  0  0  0  0  0  0  0  0  0  0
   10.2398  -11.8150   -2.6852 H   0  0  0  0  0  0  0  0  0  0  0  0
    7.8698  -14.2109   -0.4218 H   0  0  0  0  0  0  0  0  0  0  0  0
    8.2196  -12.9566   -1.8232 H   0  0  0  0  0  0  0  0  0  0  0  0
    6.8426  -12.8703   -3.7530 H   0  0  0  0  0  0  0  0  0  0  0  0
    7.6990  -14.4413   -4.2075 H   0  0  0  0  0  0  0  0  0  0  0  0
    5.8102  -14.1935   -5.6146 H   0  0  0  0  0  0  0  0  0  0  0  0
    5.5059  -15.5048   -4.3204 H   0  0  0  0  0  0  0  0  0  0  0  0
    2.3598  -14.8929   -4.6574 H   0  0  0  0  0  0  0  0  0  0  0  0
    2.7892  -13.6191   -5.8489 H   0  0  0  0  0  0  0  0  0  0  0  0
    3.6724  -15.1832   -5.8489 H   0  0  0  0  0  0  0  0  0  0  0  0
    2.5728   -9.8353   -2.7864 H   0  0  0  0  0  0  0  0  0  0  0  0
    3.5439   -9.6456   -4.2856 H   0  0  0  0  0  0  0  0  0  0  0  0
    2.0882  -10.6980   -4.2856 H   0  0  0  0  0  0  0  0  0  0  0  0
    4.7930  -10.3460   -2.0880 H   0  0  0  0  0  0  0  0  0  0  0  0
    1.2820  -13.3700   -2.1960 H   0  0  0  0  0  0  0  0  0  0  0  0
    4.1822  -11.6669   -0.8561 H   0  0  0  0  0  0  0  0  0  0  0  0
    0.6397  -15.1929    0.8882 H   0  0  0  0  0  0  0  0  0  0  0  0
    0.3526  -14.1279   -0.5295 H   0  0  0  0  0  0  0  0  0  0  0  0
    1.7401  -15.2686   -0.5295 H   0  0  0  0  0  0  0  0  0  0  0  0
    2.9210  -14.3800    2.2210 H   0  0  0  0  0  0  0  0  0  0  0  0
    4.1787  -13.1426    0.8149 H   0  0  0  0  0  0  0  0  0  0  0  0
    6.9326  -17.9207   -2.0131 H   0  0  0  0  0  0  0  0  0  0  0  0
    9.1416  -17.8826   -2.7970 H   0  0  0  0  0  0  0  0  0  0  0  0
    8.7273  -16.2810   -3.6494 H   0  0  0  0  0  0  0  0  0  0  0  0
    9.6259  -16.5632   -0.8488 H   0  0  0  0  0  0  0  0  0  0  0  0
    2.9318  -14.8024   -2.8117 H   0  0  0  0  0  0  0  0  0  0  0  0
  1  2  1  0
  2  3  1  0
  2  4  1  0
  4  5  1  0
  5  6  1  0
  6  7  1  0
  7  8  2  0
  7  9  1  0
 10  9  1  1
 10 11  1  0
 12 11  1  1
 12 13  1  0
 13 14  1  0
 14 15  1  0
 15 16  1  6
 15 17  1  0
 17 18  2  0
 17 19  1  0
 19 20  1  0
 19 21  1  1
 19 22  1  0
 22 23  1  6
 22 24  1  0
 24 25  1  0
 25 26  1  0
 26 27  2  0
 26 28  1  0
 28 29  1  0
 28 30  1  1
 28 31  1  0
 31 32  1  0
 33 32  1  1
 33 34  1  0
 33 35  1  0
 35 36  2  0
 35 37  1  0
 37 38  2  0
 38 39  1  0
 39 40  1  0
 33 41  1  0
 40  2  1  0
 10  5  1  0
 34 12  1  0
 40 10  1  0
 37 12  1  0
 41 15  1  0
 41 22  1  0
 31 24  1  0
  1 42  1  0
  1 43  1  0
  1 44  1  0
  3 45  1  0
  3 46  1  0
  3 47  1  0
  5 48  1  6
  6 49  1  0
  6 50  1  0
 11 51  1  0
 11 52  1  0
 13 53  1  0
 13 54  1  0
 14 55  1  0
 14 56  1  0
 16 57  1  0
 16 58  1  0
 16 59  1  0
 20 60  1  0
 20 61  1  0
 20 62  1  0
 21 63  1  0
 23 64  1  0
 24 65  1  6
 29 66  1  0
 29 67  1  0
 29 68  1  0
 30 69  1  0
 31 70  1  1
 38 71  1  0
 39 72  1  0
 39 73  1  0
 40 74  1  1
 41 75  1  6
M  END
>  <meeko>  (3) 
{"is_sidechain": [false], "free_energy": -6.969, "intermolecular_energy": -9.623, "internal_energy": 0.143}

$$$$
LIB_ZQOONWLSKQGNJP__M_PUB_ALL__e8__s20260927
     RDKit          3D

 75 82  0  0  0  0  0  0  0  0999 V2000
   13.3770  -15.0130   -4.5940 C   0  0  0  0  0  0  0  0  0  0  0  0
   12.7410  -14.2160   -3.4410 C   0  0  0  0  0  0  0  0  0  0  0  0
   13.6360  -12.9880   -3.2110 C   0  0  0  0  0  0  0  0  0  0  0  0
   12.8260  -15.0080   -2.2340 O   0  0  0  0  0  0  0  0  0  0  0  0
   11.5160  -15.4550   -1.8380 C   0  0  2  0  0  0  0  0  0  0  0  0
   11.5260  -16.9580   -1.7110 C   0  0  0  0  0  0  0  0  0  0  0  0
   11.2080  -17.3830   -3.1080 C   0  0  0  0  0  0  0  0  0  0  0  0
   11.3010  -18.5180   -3.5440 O   0  0  0  0  0  0  0  0  0  0  0  0
   10.7520  -16.3190   -3.8370 O   0  0  0  0  0  0  0  0  0  0  0  0
   10.5680  -15.1530   -2.9790 C   0  0  1  0  0  0  0  0  0  0  0  0
    9.0460  -15.1770   -2.6850 C   0  0  0  0  0  0  0  0  0  0  0  0
    8.2910  -14.0340   -1.9960 C   0  0  2  0  0  0  0  0  0  0  0  0
    8.6330  -13.8250   -0.5110 C   0  0  0  0  0  0  0  0  0  0  0  0
    7.9220  -12.6420    0.1870 C   0  0  0  0  0  0  0  0  0  0  0  0
    6.3960  -12.7320    0.4210 C   0  0  2  0  0  0  0  0  0  0  0  0
    5.9450  -11.4620    1.1730 C   0  0  0  0  0  0  0  0  0  0  0  0
    6.1110  -13.9000    1.3480 C   0  0  0  0  0  0  0  0  0  0  0  0
    6.7080  -14.0910    2.4050 O   0  0  0  0  0  0  0  0  0  0  0  0
    5.1030  -14.8710    0.7920 C   0  0  2  0  0  0  0  0  0  0  0  0
    4.1430  -15.3770    1.8620 C   0  0  0  0  0  0  0  0  0  0  0  0
    5.9000  -15.9640    0.3250 O   0  0  0  0  0  0  0  0  0  0  0  0
    4.4410  -14.0630   -0.3640 C   0  0  2  0  0  0  0  0  0  0  0  0
    3.2990  -13.3390    0.1440 O   0  0  0  0  0  0  0  0  0  0  0  0
    3.9810  -15.0090   -1.5000 C   0  0  1  0  0  0  0  0  0  0  0  0
    2.6060  -15.3760   -1.3040 O   0  0  0  0  0  0  0  0  0  0  0  0
    1.8460  -14.8950   -2.3300 C   0  0  0  0  0  0  0  0  0  0  0  0
    0.6460  -15.1000   -2.4320 O   0  0  0  0  0  0  0  0  0  0  0  0
    2.6780  -14.0710   -3.2970 C   0  0  2  0  0  0  0  0  0  0  0  0
    2.3690  -12.5880   -3.1190 C   0  0  0  0  0  0  0  0  0  0  0  0
    2.4050  -14.4220   -4.6530 O   0  0  0  0  0  0  0  0  0  0  0  0
    4.1000  -14.4830   -2.9180 C   0  0  1  0  0  0  0  0  0  0  0  0
    5.0420  -13.4460   -3.1280 O   0  0  0  0  0  0  0  0  0  0  0  0
    6.0660  -13.3070   -2.1540 C   0  0  1  0  0  0  0  0  0  0  0  0
    6.9010  -14.4520   -2.0600 O   0  0  0  0  0  0  0  0  0  0  0  0
    6.9770  -12.2260   -2.7210 C   0  0  0  0  0  0  0  0  0  0  0  0
    6.6740  -11.0890   -3.0460 O   0  0  0  0  0  0  0  0  0  0  0  0
    8.3560  -12.7570   -2.7540 C   0  0  0  0  0  0  0  0  0  0  0  0
    9.3990  -12.1270   -3.2960 C   0  0  0  0  0  0  0  0  0  0  0  0
   10.8150  -12.5640   -3.1150 C   0  0  0  0  0  0  0  0  0  0  0  0
   11.2170  -13.9410   -3.6720 C   0  0  1  0  0  0  0  0  0  0  0  0
    5.4600  -12.9700   -0.8030 C   0  0  2  0  0  0  0  0  0  0  0  0
   14.0131  -15.8101   -4.1816 H   0  0  0  0  0  0  0  0  0  0  0  0
   12.5842  -15.4595   -5.2122 H   0  0  0  0  0  0  0  0  0  0  0  0
   13.9882  -14.3390   -5.2122 H   0  0  0  0  0  0  0  0  0  0  0  0
   13.7581  -12.8205   -2.1307 H   0  0  0  0  0  0  0  0  0  0  0  0
   14.6211  -13.1613   -3.6688 H   0  0  0  0  0  0  0  0  0  0  0  0
   13.1694  -12.1033   -3.6688 H   0  0  0  0  0  0  0  0  0  0  0  0
   11.2260  -14.9692   -0.8947 H   0  0  0  0  0  0  0  0  0  0  0  0
   12.5128  -17.3270   -1.3946 H   0  0  0  0  0  0  0  0  0  0  0  0
   10.8266  -17.3467   -0.9562 H   0  0  0  0  0  0  0  0  0  0  0  0
    8.5554  -15.3143   -3.6599 H   0  0  0  0  0  0  0  0  0  0  0  0
    8.9926  -15.9597   -1.9139 H   0  0  0  0  0  0  0  0  0  0  0  0
    8.3651  -14.7451    0.0291 H   0  0  0  0  0  0  0  0  0  0  0  0
    9.7061  -13.5845   -0.4841 H   0  0  0  0  0  0  0  0  0  0  0  0
    8.3946  -12.5148    1.1721 H   0  0  0  0  0  0  0  0  0  0  0  0
    8.0373  -11.8052   -0.5176 H   0  0  0  0  0  0  0  0  0  0  0  0
    6.0070  -11.6365    2.2573 H   0  0  0  0  0  0  0  0  0  0  0  0
    6.5997  -10.6216    0.8988 H   0  0  0  0  0  0  0  0  0  0  0  0
    4.9069  -11.2227    0.8988 H   0  0  0  0  0  0  0  0  0  0  0  0
    4.5562  -15.1592    2.8579 H   0  0  0  0  0  0  0  0  0  0  0  0
    3.1712  -14.8740    1.7502 H   0  0  0  0  0  0  0  0  0  0  0  0
    4.0087  -16.4630    1.7502 H   0  0  0  0  0  0  0  0  0  0  0  0
    5.6210  -16.7560    0.8270 H   0  0  0  0  0  0  0  0  0  0  0  0
    3.1100  -13.6720    1.0460 H   0  0  0  0  0  0  0  0  0  0  0  0
    4.6809  -15.8541   -1.4224 H   0  0  0  0  0  0  0  0  0  0  0  0
    2.3194  -12.3500   -2.0462 H   0  0  0  0  0  0  0  0  0  0  0  0
    3.1616  -11.9890   -3.5912 H   0  0  0  0  0  0  0  0  0  0  0  0
    1.4031  -12.3555   -3.5912 H   0  0  0  0  0  0  0  0  0  0  0  0
    3.2610  -14.6490   -5.0660 H   0  0  0  0  0  0  0  0  0  0  0  0
    4.5135  -15.2704   -3.5653 H   0  0  0  0  0  0  0  0  0  0  0  0
    9.2052  -11.2356   -3.9107 H   0  0  0  0  0  0  0  0  0  0  0  0
   11.4549  -11.8134   -3.6020 H   0  0  0  0  0  0  0  0  0  0  0  0
   10.9391  -12.6583   -2.0261 H   0  0  0  0  0  0  0  0  0  0  0  0
   10.8990  -13.8666   -4.7224 H   0  0  0  0  0  0  0  0  0  0  0  0
    5.0202  -11.9874   -1.0289 H   0  0  0  0  0  0  0  0  0  0  0  0
  1  2  1  0
  2  3  1  0
  2  4  1  0
  4  5  1  0
  5  6  1  0
  6  7  1  0
  7  8  2  0
  7  9  1  0
 10  9  1  6
 10 11  1  0
 12 11  1  6
 12 13  1  0
 13 14  1  0
 14 15  1  0
 15 16  1  1
 15 17  1  0
 17 18  2  0
 17 19  1  0
 19 20  1  0
 19 21  1  6
 19 22  1  0
 22 23  1  1
 22 24  1  0
 24 25  1  0
 25 26  1  0
 26 27  2  0
 26 28  1  0
 28 29  1  0
 28 30  1  6
 28 31  1  0
 31 32  1  0
 33 32  1  6
 33 34  1  0
 33 35  1  0
 35 36  2  0
 35 37  1  0
 37 38  2  0
 38 39  1  0
 39 40  1  0
 33 41  1  0
 40  2  1  0
 10  5  1  0
 34 12  1  0
 40 10  1  0
 37 12  1  0
 41 15  1  0
 41 22  1  0
 31 24  1  0
  1 42  1  0
  1 43  1  0
  1 44  1  0
  3 45  1  0
  3 46  1  0
  3 47  1  0
  5 48  1  1
  6 49  1  0
  6 50  1  0
 11 51  1  0
 11 52  1  0
 13 53  1  0
 13 54  1  0
 14 55  1  0
 14 56  1  0
 16 57  1  0
 16 58  1  0
 16 59  1  0
 20 60  1  0
 20 61  1  0
 20 62  1  0
 21 63  1  0
 23 64  1  0
 24 65  1  6
 29 66  1  0
 29 67  1  0
 29 68  1  0
 30 69  1  0
 31 70  1  6
 38 71  1  0
 39 72  1  0
 39 73  1  0
 40 74  1  6
 41 75  1  6
M  END
>  <meeko>  (4) 
{"is_sidechain": [false], "free_energy": -6.955, "intermolecular_energy": -9.59, "internal_energy": 0.129}

$$$$
LIB_ZQOONWLSKQGNJP__M_PUB_ALL__e8__s20260927
     RDKit          3D

 75 82  0  0  0  0  0  0  0  0999 V2000
    8.8310  -12.7460   -0.5250 C   0  0  0  0  0  0  0  0  0  0  0  0
    8.8990  -14.0220   -1.3840 C   0  0  0  0  0  0  0  0  0  0  0  0
    7.8080  -14.9650   -0.8540 C   0  0  0  0  0  0  0  0  0  0  0  0
   10.1610  -14.6810   -1.1280 O   0  0  0  0  0  0  0  0  0  0  0  0
   11.0140  -14.5880   -2.2850 C   0  0  2  0  0  0  0  0  0  0  0  0
   12.3250  -13.9620   -1.8810 C   0  0  0  0  0  0  0  0  0  0  0  0
   12.0240  -12.5050   -2.0320 C   0  0  0  0  0  0  0  0  0  0  0  0
   12.7220  -11.5900   -1.6290 O   0  0  0  0  0  0  0  0  0  0  0  0
   10.8620  -12.3290   -2.7310 O   0  0  0  0  0  0  0  0  0  0  0  0
   10.3760  -13.6060   -3.2430 C   0  0  1  0  0  0  0  0  0  0  0  0
   10.8690  -13.6000   -4.7160 C   0  0  0  0  0  0  0  0  0  0  0  0
   10.4340  -14.6280   -5.7680 C   0  0  2  0  0  0  0  0  0  0  0  0
   10.9540  -16.0570   -5.5400 C   0  0  0  0  0  0  0  0  0  0  0  0
   10.4810  -17.1200   -6.5610 C   0  0  0  0  0  0  0  0  0  0  0  0
   10.9980  -17.0280   -8.0140 C   0  0  2  0  0  0  0  0  0  0  0  0
   10.4260  -18.2200   -8.8090 C   0  0  0  0  0  0  0  0  0  0  0  0
   12.5050  -17.2030   -8.0100 C   0  0  0  0  0  0  0  0  0  0  0  0
   13.0830  -18.1120   -7.4180 O   0  0  0  0  0  0  0  0  0  0  0  0
   13.2390  -16.0870   -8.7070 C   0  0  2  0  0  0  0  0  0  0  0  0
   14.4130  -16.6000   -9.5320 C   0  0  0  0  0  0  0  0  0  0  0  0
   13.7380  -15.2810   -7.6350 O   0  0  0  0  0  0  0  0  0  0  0  0
   12.1110  -15.3850   -9.5230 C   0  0  2  0  0  0  0  0  0  0  0  0
   12.0120  -15.9910  -10.8310 O   0  0  0  0  0  0  0  0  0  0  0  0
   12.4090  -13.8750   -9.6810 C   0  0  1  0  0  0  0  0  0  0  0  0
   13.1040  -13.6390  -10.9150 O   0  0  0  0  0  0  0  0  0  0  0  0
   12.3370  -12.8730  -11.7420 C   0  0  0  0  0  0  0  0  0  0  0  0
   12.7080  -12.4900  -12.8420 O   0  0  0  0  0  0  0  0  0  0  0  0
   10.9790  -12.5840  -11.1270 C   0  0  2  0  0  0  0  0  0  0  0  0
    9.9030  -13.4120  -11.8230 C   0  0  0  0  0  0  0  0  0  0  0  0
   10.6290  -11.2050  -11.2550 O   0  0  0  0  0  0  0  0  0  0  0  0
   11.2160  -12.9370   -9.6590 C   0  0  1  0  0  0  0  0  0  0  0  0
   10.0480  -13.4190   -9.0190 O   0  0  0  0  0  0  0  0  0  0  0  0
   10.2180  -14.4870   -8.0990 C   0  0  1  0  0  0  0  0  0  0  0  0
   11.0410  -14.1420   -6.9950 O   0  0  0  0  0  0  0  0  0  0  0  0
    8.8360  -14.6790   -7.4890 C   0  0  0  0  0  0  0  0  0  0  0  0
    7.7880  -14.9080   -8.0720 O   0  0  0  0  0  0  0  0  0  0  0  0
    8.9690  -14.6150   -6.0180 C   0  0  0  0  0  0  0  0  0  0  0  0
    7.9460  -14.6290   -5.1630 C   0  0  0  0  0  0  0  0  0  0  0  0
    8.1030  -14.7990   -3.6880 C   0  0  0  0  0  0  0  0  0  0  0  0
    8.8750  -13.7120   -2.9190 C   0  0  1  0  0  0  0  0  0  0  0  0
   10.7620  -15.7110   -8.8150 C   0  0  2  0  0  0  0  0  0  0  0  0
    8.8456  -13.0199    0.5403 H   0  0  0  0  0  0  0  0  0  0  0  0
    9.6963  -12.1054   -0.7508 H   0  0  0  0  0  0  0  0  0  0  0  0
    7.9025  -12.2010   -0.7508 H   0  0  0  0  0  0  0  0  0  0  0  0
    7.8183  -14.9561    0.2459 H   0  0  0  0  0  0  0  0  0  0  0  0
    6.8250  -14.6275   -1.2142 H   0  0  0  0  0  0  0  0  0  0  0  0
    7.9996  -15.9865   -1.2142 H   0  0  0  0  0  0  0  0  0  0  0  0
   11.1583  -15.5868   -2.7226 H   0  0  0  0  0  0  0  0  0  0  0  0
   12.5855  -14.2121   -0.8420 H   0  0  0  0  0  0  0  0  0  0  0  0
   13.1853  -14.3043   -2.4749 H   0  0  0  0  0  0  0  0  0  0  0  0
   10.5842  -12.6182   -5.1222 H   0  0  0  0  0  0  0  0  0  0  0  0
   11.9275  -13.8689   -4.5845 H   0  0  0  0  0  0  0  0  0  0  0  0
   12.0531  -16.0247   -5.5719 H   0  0  0  0  0  0  0  0  0  0  0  0
   10.5421  -16.3722   -4.5700 H   0  0  0  0  0  0  0  0  0  0  0  0
   10.7836  -18.1028   -6.1703 H   0  0  0  0  0  0  0  0  0  0  0  0
    9.3984  -16.9460   -6.6489 H   0  0  0  0  0  0  0  0  0  0  0  0
   10.0588  -18.9851   -8.1092 H   0  0  0  0  0  0  0  0  0  0  0  0
    9.5959  -17.8738   -9.4423 H   0  0  0  0  0  0  0  0  0  0  0  0
   11.2154  -18.6510   -9.4423 H   0  0  0  0  0  0  0  0  0  0  0  0
   15.2100  -16.9483   -8.8586 H   0  0  0  0  0  0  0  0  0  0  0  0
   14.0786  -17.4340  -10.1665 H   0  0  0  0  0  0  0  0  0  0  0  0
   14.7979  -15.7880  -10.1665 H   0  0  0  0  0  0  0  0  0  0  0  0
   14.7000  -15.4490   -7.5760 H   0  0  0  0  0  0  0  0  0  0  0  0
   12.8950  -15.9380  -11.2530 H   0  0  0  0  0  0  0  0  0  0  0  0
   13.0048  -13.6418   -8.7862 H   0  0  0  0  0  0  0  0  0  0  0  0
    9.2695  -13.8995  -11.0674 H   0  0  0  0  0  0  0  0  0  0  0  0
    9.2841  -12.7549  -12.4517 H   0  0  0  0  0  0  0  0  0  0  0  0
   10.3796  -14.1785  -12.4517 H   0  0  0  0  0  0  0  0  0  0  0  0
   11.0680  -10.8740  -12.0620 H   0  0  0  0  0  0  0  0  0  0  0  0
   11.4484  -12.0642   -9.0312 H   0  0  0  0  0  0  0  0  0  0  0  0
    6.9299  -14.5086   -5.5668 H   0  0  0  0  0  0  0  0  0  0  0  0
    7.0934  -14.8533   -3.2546 H   0  0  0  0  0  0  0  0  0  0  0  0
    8.7162  -15.7055   -3.5771 H   0  0  0  0  0  0  0  0  0  0  0  0
    8.3398  -12.7976   -3.2145 H   0  0  0  0  0  0  0  0  0  0  0  0
    9.9221  -15.9284   -9.4913 H   0  0  0  0  0  0  0  0  0  0  0  0
  1  2  1  0
  2  3  1  0
  2  4  1  0
  4  5  1  0
  5  6  1  0
  6  7  1  0
  7  8  2  0
  7  9  1  0
 10  9  1  1
 10 11  1  0
 12 11  1  1
 12 13  1  0
 13 14  1  0
 14 15  1  0
 15 16  1  6
 15 17  1  0
 17 18  2  0
 17 19  1  0
 19 20  1  0
 19 21  1  1
 19 22  1  0
 22 23  1  6
 22 24  1  0
 24 25  1  0
 25 26  1  0
 26 27  2  0
 26 28  1  0
 28 29  1  0
 28 30  1  1
 28 31  1  0
 31 32  1  0
 33 32  1  6
 33 34  1  0
 33 35  1  0
 35 36  2  0
 35 37  1  0
 37 38  2  0
 38 39  1  0
 39 40  1  0
 33 41  1  0
 40  2  1  0
 10  5  1  0
 34 12  1  0
 40 10  1  0
 37 12  1  0
 41 15  1  0
 41 22  1  0
 31 24  1  0
  1 42  1  0
  1 43  1  0
  1 44  1  0
  3 45  1  0
  3 46  1  0
  3 47  1  0
  5 48  1  6
  6 49  1  0
  6 50  1  0
 11 51  1  0
 11 52  1  0
 13 53  1  0
 13 54  1  0
 14 55  1  0
 14 56  1  0
 16 57  1  0
 16 58  1  0
 16 59  1  0
 20 60  1  0
 20 61  1  0
 20 62  1  0
 21 63  1  0
 23 64  1  0
 24 65  1  1
 29 66  1  0
 29 67  1  0
 29 68  1  0
 30 69  1  0
 31 70  1  1
 38 71  1  0
 39 72  1  0
 39 73  1  0
 40 74  1  1
 41 75  1  6
M  END
>  <meeko>  (5) 
{"is_sidechain": [false], "free_energy": -6.922, "intermolecular_energy": -9.534, "internal_energy": 0.119}

$$$$
LIB_ZQOONWLSKQGNJP__M_PUB_ALL__e8__s20260927
     RDKit          3D

 75 82  0  0  0  0  0  0  0  0999 V2000
   14.6630  -12.9420  -11.9950 C   0  0  0  0  0  0  0  0  0  0  0  0
   14.1430  -14.1890  -11.2560 C   0  0  0  0  0  0  0  0  0  0  0  0
   15.0010  -15.3710  -11.7330 C   0  0  0  0  0  0  0  0  0  0  0  0
   12.7960  -14.4610  -11.7080 O   0  0  0  0  0  0  0  0  0  0  0  0
   11.8530  -14.1910  -10.6530 C   0  0  2  0  0  0  0  0  0  0  0  0
   10.8240  -13.2090  -11.1510 C   0  0  0  0  0  0  0  0  0  0  0  0
   11.4810  -11.9010  -10.8480 C   0  0  0  0  0  0  0  0  0  0  0  0
   11.1130  -10.8110  -11.2520 O   0  0  0  0  0  0  0  0  0  0  0  0
   12.5440  -12.0860  -10.0090 O   0  0  0  0  0  0  0  0  0  0  0  0
   12.5990  -13.4700   -9.5500 C   0  0  1  0  0  0  0  0  0  0  0  0
   11.9440  -13.3840   -8.1510 C   0  0  0  0  0  0  0  0  0  0  0  0
   11.9370  -14.5410   -7.1450 C   0  0  2  0  0  0  0  0  0  0  0  0
   11.0810  -15.7550   -7.5480 C   0  0  0  0  0  0  0  0  0  0  0  0
   11.1050  -16.9540   -6.5710 C   0  0  0  0  0  0  0  0  0  0  0  0
   10.4430  -16.7890   -5.1840 C   0  0  2  0  0  0  0  0  0  0  0  0
   10.5550  -18.1300   -4.4300 C   0  0  0  0  0  0  0  0  0  0  0  0
    8.9600  -16.5320   -5.3770 C   0  0  0  0  0  0  0  0  0  0  0  0
    8.2400  -17.2120   -6.1050 O   0  0  0  0  0  0  0  0  0  0  0  0
    8.4720  -15.2890   -4.6800 C   0  0  2  0  0  0  0  0  0  0  0  0
    7.1030  -15.4890   -4.0410 C   0  0  0  0  0  0  0  0  0  0  0  0
    8.3610  -14.3250   -5.7320 O   0  0  0  0  0  0  0  0  0  0  0  0
    9.6280  -14.9720   -3.6840 C   0  0  2  0  0  0  0  0  0  0  0  0
    9.3820  -15.6410   -2.4280 O   0  0  0  0  0  0  0  0  0  0  0  0
    9.7360  -13.4480   -3.4380 C   0  0  1  0  0  0  0  0  0  0  0  0
    8.9730  -13.0840   -2.2770 O   0  0  0  0  0  0  0  0  0  0  0  0
    9.8020  -12.6040   -1.3070 C   0  0  0  0  0  0  0  0  0  0  0  0
    9.4070  -12.1850   -0.2290 O   0  0  0  0  0  0  0  0  0  0  0  0
   11.2570  -12.6810   -1.7340 C   0  0  2  0  0  0  0  0  0  0  0  0
   11.9630  -13.8110   -0.9890 C   0  0  0  0  0  0  0  0  0  0  0  0
   11.9500  -11.4640   -1.4530 O   0  0  0  0  0  0  0  0  0  0  0  0
   11.1320  -12.8840   -3.2430 C   0  0  1  0  0  0  0  0  0  0  0  0
   12.1990  -13.6440   -3.7820 O   0  0  0  0  0  0  0  0  0  0  0  0
   11.8680  -14.5770   -4.8000 C   0  0  1  0  0  0  0  0  0  0  0  0
   11.3270  -13.9630   -5.9600 O   0  0  0  0  0  0  0  0  0  0  0  0
   13.2140  -15.1210   -5.2600 C   0  0  0  0  0  0  0  0  0  0  0  0
   14.0720  -15.6640   -4.5810 O   0  0  0  0  0  0  0  0  0  0  0  0
   13.3020  -14.9530   -6.7260 C   0  0  0  0  0  0  0  0  0  0  0  0
   14.3870  -15.2140   -7.4560 C   0  0  0  0  0  0  0  0  0  0  0  0
   14.3890  -15.2640   -8.9480 C   0  0  0  0  0  0  0  0  0  0  0  0
   14.0450  -13.9710   -9.7080 C   0  0  1  0  0  0  0  0  0  0  0  0
   10.9200  -15.6300   -4.2550 C   0  0  2  0  0  0  0  0  0  0  0  0
   14.9784  -12.1858  -11.2611 H   0  0  0  0  0  0  0  0  0  0  0  0
   15.5200  -13.2204  -12.6259 H   0  0  0  0  0  0  0  0  0  0  0  0
   13.8621  -12.5291  -12.6259 H   0  0  0  0  0  0  0  0  0  0  0  0
   15.3949  -15.9136  -10.8610 H   0  0  0  0  0  0  0  0  0  0  0  0
   14.3843  -16.0504  -12.3398 H   0  0  0  0  0  0  0  0  0  0  0  0
   15.8380  -14.9952  -12.3398 H   0  0  0  0  0  0  0  0  0  0  0  0
   11.3889  -15.1306  -10.3188 H   0  0  0  0  0  0  0  0  0  0  0  0
   10.6458  -13.3277  -12.2300 H   0  0  0  0  0  0  0  0  0  0  0  0
    9.8329  -13.3283  -10.6889 H   0  0  0  0  0  0  0  0  0  0  0  0
   12.4377  -12.5445   -7.6395 H   0  0  0  0  0  0  0  0  0  0  0  0
   10.8783  -13.3262   -8.4174 H   0  0  0  0  0  0  0  0  0  0  0  0
   10.0385  -15.4164   -7.6401 H   0  0  0  0  0  0  0  0  0  0  0  0
   11.5170  -16.1277   -8.4866 H   0  0  0  0  0  0  0  0  0  0  0  0
   10.6008  -17.7925   -7.0737 H   0  0  0  0  0  0  0  0  0  0  0  0
   12.1721  -17.0955   -6.3447 H   0  0  0  0  0  0  0  0  0  0  0  0
   10.5394  -17.9436   -3.3460 H   0  0  0  0  0  0  0  0  0  0  0  0
    9.7077  -18.7761   -4.7031 H   0  0  0  0  0  0  0  0  0  0  0  0
   11.4977  -18.6266   -4.7031 H   0  0  0  0  0  0  0  0  0  0  0  0
    7.2039  -15.4743   -2.9457 H   0  0  0  0  0  0  0  0  0  0  0  0
    6.4286  -14.6798   -4.3580 H   0  0  0  0  0  0  0  0  0  0  0  0
    6.6883  -16.4573   -4.3580 H   0  0  0  0  0  0  0  0  0  0  0  0
    8.5920  -13.4550   -5.3480 H   0  0  0  0  0  0  0  0  0  0  0  0
    8.4480  -15.4790   -2.1800 H   0  0  0  0  0  0  0  0  0  0  0  0
    9.3529  -13.0151   -4.3738 H   0  0  0  0  0  0  0  0  0  0  0  0
   11.8644  -13.6532    0.0951 H   0  0  0  0  0  0  0  0  0  0  0  0
   11.5050  -14.7729   -1.2627 H   0  0  0  0  0  0  0  0  0  0  0  0
   13.0284  -13.8211   -1.2627 H   0  0  0  0  0  0  0  0  0  0  0  0
   12.8320  -11.5380   -1.8680 H   0  0  0  0  0  0  0  0  0  0  0  0
   11.2335  -11.9521   -3.8186 H   0  0  0  0  0  0  0  0  0  0  0  0
   15.3339  -15.4031   -6.9291 H   0  0  0  0  0  0  0  0  0  0  0  0
   15.3960  -15.5732   -9.2649 H   0  0  0  0  0  0  0  0  0  0  0  0
   13.5772  -15.9608   -9.2037 H   0  0  0  0  0  0  0  0  0  0  0  0
   14.7612  -13.2548   -9.2789 H   0  0  0  0  0  0  0  0  0  0  0  0
   11.5703  -16.1052   -3.5058 H   0  0  0  0  0  0  0  0  0  0  0  0
  1  2  1  0
  2  3  1  0
  2  4  1  0
  4  5  1  0
  5  6  1  0
  6  7  1  0
  7  8  2  0
  7  9  1  0
 10  9  1  6
 10 11  1  0
 12 11  1  6
 12 13  1  0
 13 14  1  0
 14 15  1  0
 15 16  1  1
 15 17  1  0
 17 18  2  0
 17 19  1  0
 19 20  1  0
 19 21  1  6
 19 22  1  0
 22 23  1  1
 22 24  1  0
 24 25  1  0
 25 26  1  0
 26 27  2  0
 26 28  1  0
 28 29  1  0
 28 30  1  6
 28 31  1  0
 31 32  1  0
 33 32  1  1
 33 34  1  0
 33 35  1  0
 35 36  2  0
 35 37  1  0
 37 38  2  0
 38 39  1  0
 39 40  1  0
 33 41  1  0
 40  2  1  0
 10  5  1  0
 34 12  1  0
 40 10  1  0
 37 12  1  0
 41 15  1  0
 41 22  1  0
 31 24  1  0
  1 42  1  0
  1 43  1  0
  1 44  1  0
  3 45  1  0
  3 46  1  0
  3 47  1  0
  5 48  1  1
  6 49  1  0
  6 50  1  0
 11 51  1  0
 11 52  1  0
 13 53  1  0
 13 54  1  0
 14 55  1  0
 14 56  1  0
 16 57  1  0
 16 58  1  0
 16 59  1  0
 20 60  1  0
 20 61  1  0
 20 62  1  0
 21 63  1  0
 23 64  1  0
 24 65  1  6
 29 66  1  0
 29 67  1  0
 29 68  1  0
 30 69  1  0
 31 70  1  6
 38 71  1  0
 39 72  1  0
 39 73  1  0
 40 74  1  1
 41 75  1  1
M  END
>  <meeko>  (6) 
{"is_sidechain": [false], "free_energy": -6.813, "intermolecular_energy": -9.403, "internal_energy": 0.137}

$$$$
LIB_ZQOONWLSKQGNJP__M_PUB_ALL__e8__s20260927
     RDKit          3D

 75 82  0  0  0  0  0  0  0  0999 V2000
   -0.7110  -16.0460    2.9400 C   0  0  0  0  0  0  0  0  0  0  0  0
    0.2530  -14.9090    2.5560 C   0  0  0  0  0  0  0  0  0  0  0  0
    0.6110  -14.1790    3.8600 C   0  0  0  0  0  0  0  0  0  0  0  0
   -0.4660  -13.9520    1.7440 O   0  0  0  0  0  0  0  0  0  0  0  0
    0.0110  -13.9940    0.3850 C   0  0  2  0  0  0  0  0  0  0  0  0
   -1.1540  -14.2480   -0.5380 C   0  0  0  0  0  0  0  0  0  0  0  0
   -1.2110  -15.7420   -0.5510 C   0  0  0  0  0  0  0  0  0  0  0  0
   -2.1200  -16.4140   -1.0060 O   0  0  0  0  0  0  0  0  0  0  0  0
   -0.0690  -16.2660   -0.0110 O   0  0  0  0  0  0  0  0  0  0  0  0
    0.9020  -15.2100    0.2540 C   0  0  1  0  0  0  0  0  0  0  0  0
    1.8490  -15.2990   -0.9750 C   0  0  0  0  0  0  0  0  0  0  0  0
    3.1770  -14.5400   -1.0850 C   0  0  2  0  0  0  0  0  0  0  0  0
    3.0500  -13.0130   -1.2170 C   0  0  0  0  0  0  0  0  0  0  0  0
    4.3800  -12.2250   -1.2740 C   0  0  0  0  0  0  0  0  0  0  0  0
    5.2780  -12.3840   -2.5220 C   0  0  2  0  0  0  0  0  0  0  0  0
    6.5050  -11.4640   -2.3580 C   0  0  0  0  0  0  0  0  0  0  0  0
    4.5230  -11.8740   -3.7360 C   0  0  0  0  0  0  0  0  0  0  0  0
    3.9460  -10.7900   -3.7720 O   0  0  0  0  0  0  0  0  0  0  0  0
    4.4500  -12.8760   -4.8590 C   0  0  2  0  0  0  0  0  0  0  0  0
    4.6290  -12.2210   -6.2240 C   0  0  0  0  0  0  0  0  0  0  0  0
    3.1230  -13.4030   -4.7640 O   0  0  0  0  0  0  0  0  0  0  0  0
    5.5470  -13.9130   -4.4730 C   0  0  2  0  0  0  0  0  0  0  0  0
    6.8110  -13.5190   -5.0530 O   0  0  0  0  0  0  0  0  0  0  0  0
    5.1700  -15.3240   -4.9830 C   0  0  1  0  0  0  0  0  0  0  0  0
    5.7610  -15.5540   -6.2720 O   0  0  0  0  0  0  0  0  0  0  0  0
    6.6630  -16.5740   -6.1940 C   0  0  0  0  0  0  0  0  0  0  0  0
    7.2800  -17.0010   -7.1590 O   0  0  0  0  0  0  0  0  0  0  0  0
    6.8060  -17.0810   -4.7700 C   0  0  2  0  0  0  0  0  0  0  0  0
    8.1320  -16.6130   -4.1790 C   0  0  0  0  0  0  0  0  0  0  0  0
    6.7740  -18.5070   -4.7160 O   0  0  0  0  0  0  0  0  0  0  0  0
    5.5610  -16.4970   -4.1020 C   0  0  1  0  0  0  0  0  0  0  0  0
    5.7620  -16.2130   -2.7290 O   0  0  0  0  0  0  0  0  0  0  0  0
    5.1670  -15.0250   -2.2290 C   0  0  1  0  0  0  0  0  0  0  0  0
    3.7510  -15.0300   -2.3270 O   0  0  0  0  0  0  0  0  0  0  0  0
    5.4370  -15.0730   -0.7310 C   0  0  0  0  0  0  0  0  0  0  0  0
    6.5180  -15.1640   -0.1700 O   0  0  0  0  0  0  0  0  0  0  0  0
    4.1480  -14.9160   -0.0250 C   0  0  0  0  0  0  0  0  0  0  0  0
    3.9880  -15.0230    1.2950 C   0  0  0  0  0  0  0  0  0  0  0  0
    2.7370  -14.6330    2.0110 C   0  0  0  0  0  0  0  0  0  0  0  0
    1.4500  -15.4090    1.6780 C   0  0  1  0  0  0  0  0  0  0  0  0
    5.7510  -13.8130   -2.9320 C   0  0  2  0  0  0  0  0  0  0  0  0
   -0.7733  -16.1195    4.0358 H   0  0  0  0  0  0  0  0  0  0  0  0
   -1.7093  -15.8347    2.5293 H   0  0  0  0  0  0  0  0  0  0  0  0
   -0.3392  -16.9963    2.5293 H   0  0  0  0  0  0  0  0  0  0  0  0
    0.3089  -14.7950    4.7199 H   0  0  0  0  0  0  0  0  0  0  0  0
    1.6966  -14.0052    3.8968 H   0  0  0  0  0  0  0  0  0  0  0  0
    0.0838  -13.2143    3.8968 H   0  0  0  0  0  0  0  0  0  0  0  0
    0.5250  -13.0526    0.1409 H   0  0  0  0  0  0  0  0  0  0  0  0
   -2.0832  -13.8148   -0.1393 H   0  0  0  0  0  0  0  0  0  0  0  0
   -1.0402  -13.7970   -1.5348 H   0  0  0  0  0  0  0  0  0  0  0  0
    2.1034  -16.3640   -1.0802 H   0  0  0  0  0  0  0  0  0  0  0  0
    1.2489  -14.7874   -1.7419 H   0  0  0  0  0  0  0  0  0  0  0  0
    2.4927  -12.8001   -2.1412 H   0  0  0  0  0  0  0  0  0  0  0  0
    2.5448  -12.6767   -0.2996 H   0  0  0  0  0  0  0  0  0  0  0  0
    4.1290  -11.1575   -1.1883 H   0  0  0  0  0  0  0  0  0  0  0  0
    4.9796  -12.6487   -0.4548 H   0  0  0  0  0  0  0  0  0  0  0  0
    6.7085  -11.3114   -1.2878 H   0  0  0  0  0  0  0  0  0  0  0  0
    7.3796  -11.9308   -2.8346 H   0  0  0  0  0  0  0  0  0  0  0  0
    6.3020  -10.4936   -2.8346 H   0  0  0  0  0  0  0  0  0  0  0  0
    4.9168  -11.1678   -6.0904 H   0  0  0  0  0  0  0  0  0  0  0  0
    5.4160  -12.7481   -6.7832 H   0  0  0  0  0  0  0  0  0  0  0  0
    3.6833  -12.2746   -6.7832 H   0  0  0  0  0  0  0  0  0  0  0  0
    2.6300  -12.8250   -4.1480 H   0  0  0  0  0  0  0  0  0  0  0  0
    6.7220  -12.5950   -5.3640 H   0  0  0  0  0  0  0  0  0  0  0  0
    4.0704  -15.2992   -4.9983 H   0  0  0  0  0  0  0  0  0  0  0  0
    8.0718  -16.6342   -3.0809 H   0  0  0  0  0  0  0  0  0  0  0  0
    8.9391  -17.2806   -4.5150 H   0  0  0  0  0  0  0  0  0  0  0  0
    8.3413  -15.5867   -4.5150 H   0  0  0  0  0  0  0  0  0  0  0  0
    7.4780  -18.7840   -4.0970 H   0  0  0  0  0  0  0  0  0  0  0  0
    4.7224  -17.2065   -4.0446 H   0  0  0  0  0  0  0  0  0  0  0  0
    4.8241  -15.4206    1.8890 H   0  0  0  0  0  0  0  0  0  0  0  0
    2.9239  -14.7537    3.0883 H   0  0  0  0  0  0  0  0  0  0  0  0
    2.5353  -13.6043    1.6777 H   0  0  0  0  0  0  0  0  0  0  0  0
    1.7610  -16.4515    1.8406 H   0  0  0  0  0  0  0  0  0  0  0  0
    6.7962  -13.8811   -2.5958 H   0  0  0  0  0  0  0  0  0  0  0  0
  1  2  1  0
  2  3  1  0
  2  4  1  0
  4  5  1  0
  5  6  1  0
  6  7  1  0
  7  8  2  0
  7  9  1  0
 10  9  1  6
 10 11  1  0
 12 11  1  1
 12 13  1  0
 13 14  1  0
 14 15  1  0
 15 16  1  1
 15 17  1  0
 17 18  2  0
 17 19  1  0
 19 20  1  0
 19 21  1  6
 19 22  1  0
 22 23  1  6
 22 24  1  0
 24 25  1  0
 25 26  1  0
 26 27  2  0
 26 28  1  0
 28 29  1  0
 28 30  1  6
 28 31  1  0
 31 32  1  0
 33 32  1  6
 33 34  1  0
 33 35  1  0
 35 36  2  0
 35 37  1  0
 37 38  2  0
 38 39  1  0
 39 40  1  0
 33 41  1  0
 40  2  1  0
 10  5  1  0
 34 12  1  0
 40 10  1  0
 37 12  1  0
 41 15  1  0
 41 22  1  0
 31 24  1  0
  1 42  1  0
  1 43  1  0
  1 44  1  0
  3 45  1  0
  3 46  1  0
  3 47  1  0
  5 48  1  6
  6 49  1  0
  6 50  1  0
 11 51  1  0
 11 52  1  0
 13 53  1  0
 13 54  1  0
 14 55  1  0
 14 56  1  0
 16 57  1  0
 16 58  1  0
 16 59  1  0
 20 60  1  0
 20 61  1  0
 20 62  1  0
 21 63  1  0
 23 64  1  0
 24 65  1  6
 29 66  1  0
 29 67  1  0
 29 68  1  0
 30 69  1  0
 31 70  1  1
 38 71  1  0
 39 72  1  0
 39 73  1  0
 40 74  1  1
 41 75  1  6
M  END
>  <meeko>  (7) 
{"is_sidechain": [false], "free_energy": -6.794, "intermolecular_energy": -9.353, "internal_energy": 0.114}

$$$$
LIB_ZQOONWLSKQGNJP__M_PUB_ALL__e8__s20260927
     RDKit          3D

 75 82  0  0  0  0  0  0  0  0999 V2000
   -2.1550  -15.9730    4.7480 C   0  0  0  0  0  0  0  0  0  0  0  0
   -1.6870  -16.1930    3.2980 C   0  0  0  0  0  0  0  0  0  0  0  0
   -2.9540  -16.2410    2.4310 C   0  0  0  0  0  0  0  0  0  0  0  0
   -1.0850  -17.5050    3.2040 O   0  0  0  0  0  0  0  0  0  0  0  0
    0.3360  -17.3870    3.0010 C   0  0  2  0  0  0  0  0  0  0  0  0
    1.0530  -18.1600    4.0790 C   0  0  0  0  0  0  0  0  0  0  0  0
    1.1610  -17.1390    5.1650 C   0  0  0  0  0  0  0  0  0  0  0  0
    1.4940  -17.3590    6.3170 O   0  0  0  0  0  0  0  0  0  0  0  0
    0.8710  -15.8950    4.6770 O   0  0  0  0  0  0  0  0  0  0  0  0
    0.7090  -15.9380    3.2280 C   0  0  1  0  0  0  0  0  0  0  0  0
    2.0880  -15.4560    2.7140 C   0  0  0  0  0  0  0  0  0  0  0  0
    2.3790  -15.1150    1.2480 C   0  0  2  0  0  0  0  0  0  0  0  0
    2.3730  -16.3130    0.2830 C   0  0  0  0  0  0  0  0  0  0  0  0
    2.6120  -15.9810   -1.2090 C   0  0  0  0  0  0  0  0  0  0  0  0
    4.0100  -15.4820   -1.6390 C   0  0  2  0  0  0  0  0  0  0  0  0
    4.0020  -15.2750   -3.1680 C   0  0  0  0  0  0  0  0  0  0  0  0
    5.0260  -16.5750   -1.3620 C   0  0  0  0  0  0  0  0  0  0  0  0
    4.8770  -17.7450   -1.7050 O   0  0  0  0  0  0  0  0  0  0  0  0
    6.1880  -16.1120   -0.5230 C   0  0  2  0  0  0  0  0  0  0  0  0
    7.5110  -16.7010   -0.9990 C   0  0  0  0  0  0  0  0  0  0  0  0
    5.8940  -16.6190    0.7820 O   0  0  0  0  0  0  0  0  0  0  0  0
    6.0850  -14.5590   -0.6100 C   0  0  2  0  0  0  0  0  0  0  0  0
    6.8520  -14.0860   -1.7390 O   0  0  0  0  0  0  0  0  0  0  0  0
    6.6210  -13.9010    0.6840 C   0  0  1  0  0  0  0  0  0  0  0  0
    8.0090  -13.5670    0.5250 O   0  0  0  0  0  0  0  0  0  0  0  0
    8.1710  -12.2150    0.5880 C   0  0  0  0  0  0  0  0  0  0  0  0
    9.2610  -11.6640    0.5230 O   0  0  0  0  0  0  0  0  0  0  0  0
    6.8380  -11.5020    0.7280 C   0  0  2  0  0  0  0  0  0  0  0  0
    6.4640  -10.8290   -0.5890 C   0  0  0  0  0  0  0  0  0  0  0  0
    6.8850  -10.4980    1.7420 O   0  0  0  0  0  0  0  0  0  0  0  0
    5.9150  -12.6430    1.1540 C   0  0  1  0  0  0  0  0  0  0  0  0
    4.5830  -12.4630    0.7050 O   0  0  0  0  0  0  0  0  0  0  0  0
    3.8970  -13.6240    0.2600 C   0  0  1  0  0  0  0  0  0  0  0  0
    3.7370  -14.5990    1.2790 O   0  0  0  0  0  0  0  0  0  0  0  0
    2.4810  -13.1380   -0.0170 C   0  0  0  0  0  0  0  0  0  0  0  0
    2.1320  -12.2390   -0.7670 O   0  0  0  0  0  0  0  0  0  0  0  0
    1.5430  -13.9980    0.7360 C   0  0  0  0  0  0  0  0  0  0  0  0
    0.2280  -13.7940    0.8210 C   0  0  0  0  0  0  0  0  0  0  0  0
   -0.7290  -14.7930    1.3830 C   0  0  0  0  0  0  0  0  0  0  0  0
   -0.5770  -15.1760    2.8660 C   0  0  1  0  0  0  0  0  0  0  0  0
    4.6030  -14.2160   -0.9470 C   0  0  2  0  0  0  0  0  0  0  0  0
   -1.3824  -16.3362    5.4417 H   0  0  0  0  0  0  0  0  0  0  0  0
   -2.3264  -14.9000    4.9192 H   0  0  0  0  0  0  0  0  0  0  0  0
   -3.0906  -16.5256    4.9192 H   0  0  0  0  0  0  0  0  0  0  0  0
   -3.8414  -16.2746    3.0801 H   0  0  0  0  0  0  0  0  0  0  0  0
   -2.9980  -15.3439    1.7960 H   0  0  0  0  0  0  0  0  0  0  0  0
   -2.9300  -17.1389    1.7960 H   0  0  0  0  0  0  0  0  0  0  0  0
    0.6003  -17.7494    1.9966 H   0  0  0  0  0  0  0  0  0  0  0  0
    0.4661  -19.0314    4.4051 H   0  0  0  0  0  0  0  0  0  0  0  0
    2.0200  -18.5767    3.7609 H   0  0  0  0  0  0  0  0  0  0  0  0
    2.3183  -14.5443    3.2848 H   0  0  0  0  0  0  0  0  0  0  0  0
    2.6922  -16.3660    2.8437 H   0  0  0  0  0  0  0  0  0  0  0  0
    3.1627  -17.0082    0.6041 H   0  0  0  0  0  0  0  0  0  0  0  0
    1.3572  -16.7319    0.3354 H   0  0  0  0  0  0  0  0  0  0  0  0
    2.4033  -16.8961   -1.7827 H   0  0  0  0  0  0  0  0  0  0  0  0
    1.9491  -15.1251   -1.4038 H   0  0  0  0  0  0  0  0  0  0  0  0
    3.9604  -14.1989   -3.3921 H   0  0  0  0  0  0  0  0  0  0  0  0
    4.9174  -15.7046   -3.6010 H   0  0  0  0  0  0  0  0  0  0  0  0
    3.1225  -15.7740   -3.6010 H   0  0  0  0  0  0  0  0  0  0  0  0
    8.1251  -16.9744   -0.1283 H   0  0  0  0  0  0  0  0  0  0  0  0
    7.3160  -17.5973   -1.6061 H   0  0  0  0  0  0  0  0  0  0  0  0
    8.0466  -15.9563   -1.6061 H   0  0  0  0  0  0  0  0  0  0  0  0
    6.6800  -16.4490    1.3390 H   0  0  0  0  0  0  0  0  0  0  0  0
    7.6500  -13.6360   -1.3910 H   0  0  0  0  0  0  0  0  0  0  0  0
    6.4349  -14.6672    1.4510 H   0  0  0  0  0  0  0  0  0  0  0  0
    5.9392   -9.8847   -0.3821 H   0  0  0  0  0  0  0  0  0  0  0  0
    7.3766  -10.6223   -1.1673 H   0  0  0  0  0  0  0  0  0  0  0  0
    5.8065  -11.4948   -1.1673 H   0  0  0  0  0  0  0  0  0  0  0  0
    7.7710  -10.0870    1.6950 H   0  0  0  0  0  0  0  0  0  0  0  0
    5.7596  -12.6965    2.2416 H   0  0  0  0  0  0  0  0  0  0  0  0
   -0.1740  -12.8370    0.4570 H   0  0  0  0  0  0  0  0  0  0  0  0
   -1.7427  -14.3867    1.2512 H   0  0  0  0  0  0  0  0  0  0  0  0
   -0.5151  -15.7216    0.8334 H   0  0  0  0  0  0  0  0  0  0  0  0
   -0.6084  -14.1944    3.3615 H   0  0  0  0  0  0  0  0  0  0  0  0
    4.4678  -13.3982   -1.6701 H   0  0  0  0  0  0  0  0  0  0  0  0
  1  2  1  0
  2  3  1  0
  2  4  1  0
  4  5  1  0
  5  6  1  0
  6  7  1  0
  7  8  2  0
  7  9  1  0
 10  9  1  1
 10 11  1  0
 12 11  1  1
 12 13  1  0
 13 14  1  0
 14 15  1  0
 15 16  1  6
 15 17  1  0
 17 18  2  0
 17 19  1  0
 19 20  1  0
 19 21  1  1
 19 22  1  0
 22 23  1  6
 22 24  1  0
 24 25  1  0
 25 26  1  0
 26 27  2  0
 26 28  1  0
 28 29  1  0
 28 30  1  1
 28 31  1  0
 31 32  1  0
 33 32  1  1
 33 34  1  0
 33 35  1  0
 35 36  2  0
 35 37  1  0
 37 38  2  0
 38 39  1  0
 39 40  1  0
 33 41  1  0
 40  2  1  0
 10  5  1  0
 34 12  1  0
 40 10  1  0
 37 12  1  0
 41 15  1  0
 41 22  1  0
 31 24  1  0
  1 42  1  0
  1 43  1  0
  1 44  1  0
  3 45  1  0
  3 46  1  0
  3 47  1  0
  5 48  1  6
  6 49  1  0
  6 50  1  0
 11 51  1  0
 11 52  1  0
 13 53  1  0
 13 54  1  0
 14 55  1  0
 14 56  1  0
 16 57  1  0
 16 58  1  0
 16 59  1  0
 20 60  1  0
 20 61  1  0
 20 62  1  0
 21 63  1  0
 23 64  1  0
 24 65  1  1
 29 66  1  0
 29 67  1  0
 29 68  1  0
 30 69  1  0
 31 70  1  1
 38 71  1  0
 39 72  1  0
 39 73  1  0
 40 74  1  1
 41 75  1  6
M  END
>  <meeko>  (8) 
{"is_sidechain": [false], "free_energy": -6.788, "intermolecular_energy": -9.373, "internal_energy": 0.142}

$$$$
LIB_ZQOONWLSKQGNJP__M_PUB_ALL__e8__s20260927
     RDKit          3D

 75 82  0  0  0  0  0  0  0  0999 V2000
    8.4260  -14.9620   -0.9430 C   0  0  0  0  0  0  0  0  0  0  0  0
    6.9760  -15.2170   -1.3930 C   0  0  0  0  0  0  0  0  0  0  0  0
    7.0570  -15.9780   -2.7250 C   0  0  0  0  0  0  0  0  0  0  0  0
    6.3580  -13.9440   -1.6930 O   0  0  0  0  0  0  0  0  0  0  0  0
    5.3540  -13.6330   -0.7080 C   0  0  2  0  0  0  0  0  0  0  0  0
    5.6590  -12.2860   -0.1040 C   0  0  0  0  0  0  0  0  0  0  0  0
    6.5850  -12.6560    1.0110 C   0  0  0  0  0  0  0  0  0  0  0  0
    7.2560  -11.8760    1.6650 O   0  0  0  0  0  0  0  0  0  0  0  0
    6.5490  -14.0050    1.2310 O   0  0  0  0  0  0  0  0  0  0  0  0
    5.5050  -14.6270    0.4240 C   0  0  1  0  0  0  0  0  0  0  0  0
    4.3200  -14.7610    1.4160 C   0  0  0  0  0  0  0  0  0  0  0  0
    3.0440  -15.5600    1.1270 C   0  0  2  0  0  0  0  0  0  0  0  0
    2.1290  -14.9640    0.0440 C   0  0  0  0  0  0  0  0  0  0  0  0
    0.8640  -15.7840   -0.3010 C   0  0  0  0  0  0  0  0  0  0  0  0
   -0.2550  -15.8960    0.7600 C   0  0  2  0  0  0  0  0  0  0  0  0
   -1.4160  -16.7140    0.1580 C   0  0  0  0  0  0  0  0  0  0  0  0
   -0.8080  -14.5100    1.0360 C   0  0  0  0  0  0  0  0  0  0  0  0
   -1.1470  -13.7250    0.1540 O   0  0  0  0  0  0  0  0  0  0  0  0
   -0.7960  -14.1410    2.4970 C   0  0  2  0  0  0  0  0  0  0  0  0
   -2.0550  -13.3860    2.9080 C   0  0  0  0  0  0  0  0  0  0  0  0
    0.3330  -13.2700    2.6220 O   0  0  0  0  0  0  0  0  0  0  0  0
   -0.5870  -15.5150    3.2010 C   0  0  2  0  0  0  0  0  0  0  0  0
   -1.8710  -16.1180    3.4770 O   0  0  0  0  0  0  0  0  0  0  0  0
    0.1890  -15.3370    4.5290 C   0  0  1  0  0  0  0  0  0  0  0  0
   -0.7350  -15.2000    5.6210 O   0  0  0  0  0  0  0  0  0  0  0  0
   -0.5970  -16.2500    6.4800 C   0  0  0  0  0  0  0  0  0  0  0  0
   -1.2350  -16.3600    7.5170 O   0  0  0  0  0  0  0  0  0  0  0  0
    0.4220  -17.2530    5.9700 C   0  0  2  0  0  0  0  0  0  0  0  0
   -0.2860  -18.5000    5.4500 C   0  0  0  0  0  0  0  0  0  0  0  0
    1.3240  -17.6530    7.0020 O   0  0  0  0  0  0  0  0  0  0  0  0
    1.1600  -16.4400    4.9070 C   0  0  1  0  0  0  0  0  0  0  0  0
    1.6450  -17.2430    3.8460 O   0  0  0  0  0  0  0  0  0  0  0  0
    1.5540  -16.6960    2.5390 C   0  0  1  0  0  0  0  0  0  0  0  0
    2.3130  -15.5070    2.3810 O   0  0  0  0  0  0  0  0  0  0  0  0
    2.2670  -17.7130    1.6570 C   0  0  0  0  0  0  0  0  0  0  0  0
    2.0170  -18.9020    1.5360 O   0  0  0  0  0  0  0  0  0  0  0  0
    3.3070  -17.0020    0.8830 C   0  0  0  0  0  0  0  0  0  0  0  0
    4.2020  -17.5960    0.0930 C   0  0  0  0  0  0  0  0  0  0  0  0
    5.0860  -16.8560   -0.8570 C   0  0  0  0  0  0  0  0  0  0  0  0
    6.1040  -15.8660   -0.2650 C   0  0  1  0  0  0  0  0  0  0  0  0
    0.1000  -16.4600    2.1710 C   0  0  2  0  0  0  0  0  0  0  0  0
    8.4728  -14.9538    0.1560 H   0  0  0  0  0  0  0  0  0  0  0  0
    9.0762  -15.7596   -1.3317 H   0  0  0  0  0  0  0  0  0  0  0  0
    8.7651  -13.9904   -1.3317 H   0  0  0  0  0  0  0  0  0  0  0  0
    7.1715  -17.0538   -2.5263 H   0  0  0  0  0  0  0  0  0  0  0  0
    6.1356  -15.8076   -3.3013 H   0  0  0  0  0  0  0  0  0  0  0  0
    7.9218  -15.6175   -3.3013 H   0  0  0  0  0  0  0  0  0  0  0  0
    4.3567  -13.6541   -1.1717 H   0  0  0  0  0  0  0  0  0  0  0  0
    6.1512  -11.6229   -0.8307 H   0  0  0  0  0  0  0  0  0  0  0  0
    4.7672  -11.7307    0.2220 H   0  0  0  0  0  0  0  0  0  0  0  0
    4.7454  -15.1999    2.3305 H   0  0  0  0  0  0  0  0  0  0  0  0
    3.9277  -13.7334    1.4118 H   0  0  0  0  0  0  0  0  0  0  0  0
    1.8032  -13.9712    0.3877 H   0  0  0  0  0  0  0  0  0  0  0  0
    2.7312  -14.9464   -0.8763 H   0  0  0  0  0  0  0  0  0  0  0  0
    0.4170  -15.3296   -1.1975 H   0  0  0  0  0  0  0  0  0  0  0  0
    1.2332  -16.8142   -0.4126 H   0  0  0  0  0  0  0  0  0  0  0  0
   -2.0228  -17.1416    0.9698 H   0  0  0  0  0  0  0  0  0  0  0  0
   -2.0438  -16.0577   -0.4625 H   0  0  0  0  0  0  0  0  0  0  0  0
   -1.0092  -17.5261   -0.4625 H   0  0  0  0  0  0  0  0  0  0  0  0
   -2.1180  -13.3482    4.0055 H   0  0  0  0  0  0  0  0  0  0  0  0
   -2.0158  -12.3622    2.5075 H   0  0  0  0  0  0  0  0  0  0  0  0
   -2.9396  -13.9028    2.5075 H   0  0  0  0  0  0  0  0  0  0  0  0
    1.0700  -13.8090    2.9750 H   0  0  0  0  0  0  0  0  0  0  0  0
   -1.9190  -16.2930    4.4390 H   0  0  0  0  0  0  0  0  0  0  0  0
    0.7962  -14.4380    4.3468 H   0  0  0  0  0  0  0  0  0  0  0  0
   -0.6307  -19.1072    6.3000 H   0  0  0  0  0  0  0  0  0  0  0  0
   -1.1500  -18.2026    4.8375 H   0  0  0  0  0  0  0  0  0  0  0  0
    0.4121  -19.0895    4.8375 H   0  0  0  0  0  0  0  0  0  0  0  0
    1.7670  -18.4670    6.6930 H   0  0  0  0  0  0  0  0  0  0  0  0
    2.0971  -15.9932    5.2705 H   0  0  0  0  0  0  0  0  0  0  0  0
    4.2945  -18.6909    0.1436 H   0  0  0  0  0  0  0  0  0  0  0  0
    5.6518  -17.6052   -1.4303 H   0  0  0  0  0  0  0  0  0  0  0  0
    4.3989  -16.2293   -1.4445 H   0  0  0  0  0  0  0  0  0  0  0  0
    6.6456  -16.4970    0.4551 H   0  0  0  0  0  0  0  0  0  0  0  0
   -0.2686  -17.4964    2.1717 H   0  0  0  0  0  0  0  0  0  0  0  0
  1  2  1  0
  2  3  1  0
  2  4  1  0
  4  5  1  0
  5  6  1  0
  6  7  1  0
  7  8  2  0
  7  9  1  0
 10  9  1  1
 10 11  1  0
 12 11  1  1
 12 13  1  0
 13 14  1  0
 14 15  1  0
 15 16  1  6
 15 17  1  0
 17 18  2  0
 17 19  1  0
 19 20  1  0
 19 21  1  6
 19 22  1  0
 22 23  1  1
 22 24  1  0
 24 25  1  0
 25 26  1  0
 26 27  2  0
 26 28  1  0
 28 29  1  0
 28 30  1  1
 28 31  1  0
 31 32  1  0
 33 32  1  1
 33 34  1  0
 33 35  1  0
 35 36  2  0
 35 37  1  0
 37 38  2  0
 38 39  1  0
 39 40  1  0
 33 41  1  0
 40  2  1  0
 10  5  1  0
 34 12  1  0
 40 10  1  0
 37 12  1  0
 41 15  1  0
 41 22  1  0
 31 24  1  0
  1 42  1  0
  1 43  1  0
  1 44  1  0
  3 45  1  0
  3 46  1  0
  3 47  1  0
  5 48  1  6
  6 49  1  0
  6 50  1  0
 11 51  1  0
 11 52  1  0
 13 53  1  0
 13 54  1  0
 14 55  1  0
 14 56  1  0
 16 57  1  0
 16 58  1  0
 16 59  1  0
 20 60  1  0
 20 61  1  0
 20 62  1  0
 21 63  1  0
 23 64  1  0
 24 65  1  6
 29 66  1  0
 29 67  1  0
 29 68  1  0
 30 69  1  0
 31 70  1  1
 38 71  1  0
 39 72  1  0
 39 73  1  0
 40 74  1  1
 41 75  1  6
M  END
>  <meeko>  (9) 
{"is_sidechain": [false], "free_energy": -6.769, "intermolecular_energy": -9.335, "internal_energy": 0.131}

$$$$
