LIB_XCGHYXHBCOQVTC__M_PUB_ALL__e8__s20260927
     RDKit          3D

 52 55  0  0  0  0  0  0  0  0999 V2000
    3.5840  -16.3440   -1.7860 C   0  0  0  0  0  0  0  0  0  0  0  0
    2.1990  -16.5370   -1.2830 C   0  0  0  0  0  0  0  0  0  0  0  0
    1.6310  -17.6340   -0.6740 C   0  0  0  0  0  0  0  0  0  0  0  0
    0.3030  -17.5000   -0.3140 N   0  0  0  0  0  0  0  0  0  0  0  0
   -0.1450  -16.3080   -0.6530 C   0  0  0  0  0  0  0  0  0  0  0  0
   -1.3890  -15.8170   -0.4450 N   0  0  0  0  0  0  0  0  0  0  0  0
   -1.8180  -15.1420    0.7060 C   0  0  0  0  0  0  0  0  0  0  0  0
   -1.7880  -13.7570    0.7270 C   0  0  0  0  0  0  0  0  0  0  0  0
   -2.1340  -13.1010    1.9000 C   0  0  0  0  0  0  0  0  0  0  0  0
   -2.1160  -11.7170    1.9920 N   0  0  0  0  0  0  0  0  0  0  0  0
   -1.3820  -11.0610    3.0960 C   0  0  0  0  0  0  0  0  0  0  0  0
   -1.7680   -9.5780    3.2110 C   0  0  0  0  0  0  0  0  0  0  0  0
   -1.6050   -8.8960    1.9610 O   0  0  0  0  0  0  0  0  0  0  0  0
   -2.4650   -9.4780    0.9740 C   0  0  0  0  0  0  0  0  0  0  0  0
   -2.1130  -10.9510    0.7280 C   0  0  0  0  0  0  0  0  0  0  0  0
   -2.4450  -13.8130    2.9980 N   0  0  0  0  0  0  0  0  0  0  0  0
   -2.4390  -15.1320    2.8770 C   0  0  0  0  0  0  0  0  0  0  0  0
   -2.7600  -15.8670    4.0330 N   0  0  0  0  0  0  0  0  0  0  0  0
   -4.0380  -16.6240    3.9230 C   0  0  1  0  0  0  0  0  0  0  0  0
   -3.7670  -18.1140    4.1330 C   0  0  0  0  0  0  0  0  0  0  0  0
   -5.0130  -16.0950    4.9680 C   0  0  0  0  0  0  0  0  0  0  0  0
   -5.8170  -14.9820    4.7170 C   0  0  0  0  0  0  0  0  0  0  0  0
   -6.6840  -14.5410    5.7160 C   0  0  0  0  0  0  0  0  0  0  0  0
   -6.7200  -15.2180    6.9260 C   0  0  0  0  0  0  0  0  0  0  0  0
   -7.5430  -14.8170    7.9010 F   0  0  0  0  0  0  0  0  0  0  0  0
   -5.8900  -16.3080    7.1070 C   0  0  0  0  0  0  0  0  0  0  0  0
   -5.0310  -16.7660    6.1580 N   0  0  0  0  0  0  0  0  0  0  0  0
   -2.1790  -15.8310    1.7930 N   0  0  0  0  0  0  0  0  0  0  0  0
    1.0330  -15.2920   -1.4070 S   0  0  0  0  0  0  0  0  0  0  0  0
    4.2734  -16.2479   -0.9342 H   0  0  0  0  0  0  0  0  0  0  0  0
    3.8759  -17.2102   -2.3980 H   0  0  0  0  0  0  0  0  0  0  0  0
    3.6279  -15.4311   -2.3980 H   0  0  0  0  0  0  0  0  0  0  0  0
    2.1978  -18.5578   -0.4861 H   0  0  0  0  0  0  0  0  0  0  0  0
   -2.1090  -16.0720   -1.1070 H   0  0  0  0  0  0  0  0  0  0  0  0
   -1.4957  -13.1886   -0.1683 H   0  0  0  0  0  0  0  0  0  0  0  0
   -1.6239  -11.5697    4.0408 H   0  0  0  0  0  0  0  0  0  0  0  0
   -0.3040  -11.1268    2.8872 H   0  0  0  0  0  0  0  0  0  0  0  0
   -2.8201   -9.5054    3.5236 H   0  0  0  0  0  0  0  0  0  0  0  0
   -1.1067   -9.1049    3.9519 H   0  0  0  0  0  0  0  0  0  0  0  0
   -3.5064   -9.4116    1.3219 H   0  0  0  0  0  0  0  0  0  0  0  0
   -2.3343   -8.9272    0.0308 H   0  0  0  0  0  0  0  0  0  0  0  0
   -2.8535  -11.3875    0.0416 H   0  0  0  0  0  0  0  0  0  0  0  0
   -1.1046  -11.0011    0.2915 H   0  0  0  0  0  0  0  0  0  0  0  0
   -2.8480  -15.1950    4.7970 H   0  0  0  0  0  0  0  0  0  0  0  0
   -1.9700  -16.4700    4.2570 H   0  0  0  0  0  0  0  0  0  0  0  0
   -4.4786  -16.4912    2.9239 H   0  0  0  0  0  0  0  0  0  0  0  0
   -3.7275  -18.3312    5.2106 H   0  0  0  0  0  0  0  0  0  0  0  0
   -4.5729  -18.7021    3.6697 H   0  0  0  0  0  0  0  0  0  0  0  0
   -2.8056  -18.3807    3.6697 H   0  0  0  0  0  0  0  0  0  0  0  0
   -5.7676  -14.4623    3.7488 H   0  0  0  0  0  0  0  0  0  0  0  0
   -7.3310  -13.6676    5.5467 H   0  0  0  0  0  0  0  0  0  0  0  0
   -5.9264  -16.8341    8.0723 H   0  0  0  0  0  0  0  0  0  0  0  0
  1  2  1  0
  2  3  2  0
  3  4  1  0
  4  5  2  0
  5  6  1  0
  6  7  1  0
  7  8  2  0
  8  9  1  0
  9 10  1  0
 10 11  1  0
 11 12  1  0
 12 13  1  0
 13 14  1  0
 14 15  1  0
  9 16  2  0
 16 17  1  0
 17 18  1  0
 18 19  1  0
 19 20  1  0
 19 21  1  0
 21 22  2  0
 22 23  1  0
 23 24  2  0
 24 25  1  0
 24 26  1  0
 26 27  2  0
 17 28  2  0
  5 29  1  0
 29  2  1  0
 28  7  1  0
 15 10  1  0
 27 21  1  0
  1 30  1  0
  1 31  1  0
  1 32  1  0
  3 33  1  0
  6 34  1  0
  8 35  1  0
 11 36  1  0
 11 37  1  0
 12 38  1  0
 12 39  1  0
 14 40  1  0
 14 41  1  0
 15 42  1  0
 15 43  1  0
 18 44  1  0
 18 45  1  0
 19 46  1  6
 20 47  1  0
 20 48  1  0
 20 49  1  0
 22 50  1  0
 23 51  1  0
 26 52  1  0
M  CHG  1  18   1
M  END
>  <meeko>  (1) 
{"is_sidechain": [false], "free_energy": -7.294, "intermolecular_energy": -9.852, "internal_energy": -1.037}

$$$$
LIB_XCGHYXHBCOQVTC__M_PUB_ALL__e8__s20260927
     RDKit          3D

 52 55  0  0  0  0  0  0  0  0999 V2000
  -13.4190   -8.2660   -5.9310 C   0  0  0  0  0  0  0  0  0  0  0  0
  -13.0660   -8.8610   -7.2460 C   0  0  0  0  0  0  0  0  0  0  0  0
  -13.1560   -8.3170   -8.5090 C   0  0  0  0  0  0  0  0  0  0  0  0
  -12.7420   -9.1330   -9.5450 N   0  0  0  0  0  0  0  0  0  0  0  0
  -12.3440  -10.2990   -9.0780 C   0  0  0  0  0  0  0  0  0  0  0  0
  -11.8590  -11.3400   -9.7950 N   0  0  0  0  0  0  0  0  0  0  0  0
  -11.8590  -12.6800   -9.3870 C   0  0  0  0  0  0  0  0  0  0  0  0
  -10.6570  -13.2870   -9.0610 C   0  0  0  0  0  0  0  0  0  0  0  0
  -10.6570  -14.6370   -8.7400 C   0  0  0  0  0  0  0  0  0  0  0  0
   -9.4870  -15.3080   -8.4140 N   0  0  0  0  0  0  0  0  0  0  0  0
   -9.4400  -16.1650   -7.2100 C   0  0  0  0  0  0  0  0  0  0  0  0
   -7.9920  -16.5290   -6.8460 C   0  0  0  0  0  0  0  0  0  0  0  0
   -7.3020  -17.1080   -7.9610 O   0  0  0  0  0  0  0  0  0  0  0  0
   -7.2410  -16.1660   -9.0380 C   0  0  0  0  0  0  0  0  0  0  0  0
   -8.6450  -15.7900   -9.5300 C   0  0  0  0  0  0  0  0  0  0  0  0
  -11.8040  -15.3380   -8.7950 N   0  0  0  0  0  0  0  0  0  0  0  0
  -12.8990  -14.6680   -9.1240 C   0  0  0  0  0  0  0  0  0  0  0  0
  -14.0920  -15.4110   -9.1840 N   0  0  0  0  0  0  0  0  0  0  0  0
  -14.0150  -16.7210   -8.4810 C   0  0  1  0  0  0  0  0  0  0  0  0
  -15.1000  -16.7870   -7.4060 C   0  0  0  0  0  0  0  0  0  0  0  0
  -14.1930  -17.8380   -9.5030 C   0  0  0  0  0  0  0  0  0  0  0  0
  -15.0470  -18.9160   -9.2630 C   0  0  0  0  0  0  0  0  0  0  0  0
  -15.1610  -19.9100  -10.2350 C   0  0  0  0  0  0  0  0  0  0  0  0
  -14.4240  -19.8000  -11.4040 C   0  0  0  0  0  0  0  0  0  0  0  0
  -14.5150  -20.7390  -12.3510 F   0  0  0  0  0  0  0  0  0  0  0  0
  -13.5920  -18.7080  -11.5700 C   0  0  0  0  0  0  0  0  0  0  0  0
  -13.4540  -17.7210  -10.6460 N   0  0  0  0  0  0  0  0  0  0  0  0
  -12.9960  -13.3820   -9.3870 N   0  0  0  0  0  0  0  0  0  0  0  0
  -12.4390  -10.4480   -7.3580 S   0  0  0  0  0  0  0  0  0  0  0  0
  -13.0378   -8.9085   -5.1236 H   0  0  0  0  0  0  0  0  0  0  0  0
  -12.9678   -7.2662   -5.8479 H   0  0  0  0  0  0  0  0  0  0  0  0
  -14.5127   -8.1828   -5.8479 H   0  0  0  0  0  0  0  0  0  0  0  0
  -13.5333   -7.2983   -8.6817 H   0  0  0  0  0  0  0  0  0  0  0  0
  -11.3290  -11.1260  -10.6280 H   0  0  0  0  0  0  0  0  0  0  0  0
   -9.7206  -12.7098   -9.0567 H   0  0  0  0  0  0  0  0  0  0  0  0
   -9.8976  -15.6260   -6.3673 H   0  0  0  0  0  0  0  0  0  0  0  0
   -9.9912  -17.0934   -7.4203 H   0  0  0  0  0  0  0  0  0  0  0  0
   -7.4622  -15.6178   -6.5313 H   0  0  0  0  0  0  0  0  0  0  0  0
   -8.0152  -17.2681   -6.0316 H   0  0  0  0  0  0  0  0  0  0  0  0
   -6.7277  -15.2572   -8.6906 H   0  0  0  0  0  0  0  0  0  0  0  0
   -6.6928  -16.6277   -9.8724 H   0  0  0  0  0  0  0  0  0  0  0  0
   -8.5603  -14.9953  -10.2858 H   0  0  0  0  0  0  0  0  0  0  0  0
   -9.1158  -16.6851   -9.9625 H   0  0  0  0  0  0  0  0  0  0  0  0
  -14.2830  -15.5860  -10.1720 H   0  0  0  0  0  0  0  0  0  0  0  0
  -14.8490  -14.8260   -8.8340 H   0  0  0  0  0  0  0  0  0  0  0  0
  -13.0368  -16.8369   -7.9915 H   0  0  0  0  0  0  0  0  0  0  0  0
  -14.6323  -16.7586   -6.4108 H   0  0  0  0  0  0  0  0  0  0  0  0
  -15.7787  -15.9285   -7.5169 H   0  0  0  0  0  0  0  0  0  0  0  0
  -15.6696  -17.7215   -7.5169 H   0  0  0  0  0  0  0  0  0  0  0  0
  -15.6189  -18.9803   -8.3256 H   0  0  0  0  0  0  0  0  0  0  0  0
  -15.8275  -20.7705  -10.0759 H   0  0  0  0  0  0  0  0  0  0  0  0
  -13.0102  -18.6342  -12.5006 H   0  0  0  0  0  0  0  0  0  0  0  0
  1  2  1  0
  2  3  2  0
  3  4  1  0
  4  5  2  0
  5  6  1  0
  6  7  1  0
  7  8  2  0
  8  9  1  0
  9 10  1  0
 10 11  1  0
 11 12  1  0
 12 13  1  0
 13 14  1  0
 14 15  1  0
  9 16  2  0
 16 17  1  0
 17 18  1  0
 18 19  1  0
 19 20  1  0
 19 21  1  0
 21 22  2  0
 22 23  1  0
 23 24  2  0
 24 25  1  0
 24 26  1  0
 26 27  2  0
 17 28  2  0
  5 29  1  0
 29  2  1  0
 28  7  1  0
 15 10  1  0
 27 21  1  0
  1 30  1  0
  1 31  1  0
  1 32  1  0
  3 33  1  0
  6 34  1  0
  8 35  1  0
 11 36  1  0
 11 37  1  0
 12 38  1  0
 12 39  1  0
 14 40  1  0
 14 41  1  0
 15 42  1  0
 15 43  1  0
 18 44  1  0
 18 45  1  0
 19 46  1  1
 20 47  1  0
 20 48  1  0
 20 49  1  0
 22 50  1  0
 23 51  1  0
 26 52  1  0
M  CHG  1  18   1
M  END
>  <meeko>  (2) 
{"is_sidechain": [false], "free_energy": -7.245, "intermolecular_energy": -9.896, "internal_energy": -0.927}

$$$$
LIB_XCGHYXHBCOQVTC__M_PUB_ALL__e8__s20260927
     RDKit          3D

 52 55  0  0  0  0  0  0  0  0999 V2000
    5.3820  -13.0050   -7.3070 C   0  0  0  0  0  0  0  0  0  0  0  0
    4.4730  -12.4310   -6.2810 C   0  0  0  0  0  0  0  0  0  0  0  0
    4.1010  -11.1200   -6.0720 C   0  0  0  0  0  0  0  0  0  0  0  0
    3.2270  -10.9050   -5.0240 N   0  0  0  0  0  0  0  0  0  0  0  0
    2.9360  -12.0430   -4.4280 C   0  0  0  0  0  0  0  0  0  0  0  0
    2.1030  -12.2230   -3.3760 N   0  0  0  0  0  0  0  0  0  0  0  0
    2.4450  -12.0580   -2.0280 C   0  0  0  0  0  0  0  0  0  0  0  0
    3.7610  -12.2440   -1.6370 C   0  0  0  0  0  0  0  0  0  0  0  0
    4.0740  -12.1620   -0.2880 C   0  0  0  0  0  0  0  0  0  0  0  0
    5.3700  -12.3470    0.1710 N   0  0  0  0  0  0  0  0  0  0  0  0
    5.9350  -11.4230    1.1780 C   0  0  0  0  0  0  0  0  0  0  0  0
    7.4590  -11.5910    1.2890 C   0  0  0  0  0  0  0  0  0  0  0  0
    7.8180  -12.9560    1.5330 O   0  0  0  0  0  0  0  0  0  0  0  0
    7.3840  -13.7770    0.4420 C   0  0  0  0  0  0  0  0  0  0  0  0
    5.8570  -13.7380    0.2900 C   0  0  0  0  0  0  0  0  0  0  0  0
    3.0980  -11.9500    0.6140 N   0  0  0  0  0  0  0  0  0  0  0  0
    1.8720  -11.7910    0.1400 C   0  0  0  0  0  0  0  0  0  0  0  0
    0.8580  -11.5760    1.0910 N   0  0  0  0  0  0  0  0  0  0  0  0
   -0.1510  -12.6700    1.1470 C   0  0  1  0  0  0  0  0  0  0  0  0
   -0.2730  -13.1790    2.5830 C   0  0  0  0  0  0  0  0  0  0  0  0
   -1.4860  -12.1320    0.6450 C   0  0  0  0  0  0  0  0  0  0  0  0
   -1.6890  -10.7670    0.4360 C   0  0  0  0  0  0  0  0  0  0  0  0
   -2.9360  -10.3360   -0.0170 C   0  0  0  0  0  0  0  0  0  0  0  0
   -3.9330  -11.2730   -0.2440 C   0  0  0  0  0  0  0  0  0  0  0  0
   -5.1370  -10.8860   -0.6790 F   0  0  0  0  0  0  0  0  0  0  0  0
   -3.6630  -12.6080   -0.0100 C   0  0  0  0  0  0  0  0  0  0  0  0
   -2.4610  -13.0650    0.4340 N   0  0  0  0  0  0  0  0  0  0  0  0
    1.4980  -11.7980   -1.1220 N   0  0  0  0  0  0  0  0  0  0  0  0
    3.7000  -13.4280   -5.1280 S   0  0  0  0  0  0  0  0  0  0  0  0
    6.2117  -13.5289   -6.8099 H   0  0  0  0  0  0  0  0  0  0  0  0
    4.8240  -13.7149   -7.9353 H   0  0  0  0  0  0  0  0  0  0  0  0
    5.7831  -12.1961   -7.9353 H   0  0  0  0  0  0  0  0  0  0  0  0
    4.4760  -10.2980   -6.6994 H   0  0  0  0  0  0  0  0  0  0  0  0
    1.2020  -12.6420   -3.5610 H   0  0  0  0  0  0  0  0  0  0  0  0
    4.5429  -12.4527   -2.3821 H   0  0  0  0  0  0  0  0  0  0  0  0
    5.7081  -10.3878    0.8832 H   0  0  0  0  0  0  0  0  0  0  0  0
    5.4857  -11.6537    2.1552 H   0  0  0  0  0  0  0  0  0  0  0  0
    7.9248  -11.2610    0.3487 H   0  0  0  0  0  0  0  0  0  0  0  0
    7.8136  -10.9834    2.1346 H   0  0  0  0  0  0  0  0  0  0  0  0
    7.8463  -13.4125   -0.4872 H   0  0  0  0  0  0  0  0  0  0  0  0
    7.6870  -14.8147    0.6454 H   0  0  0  0  0  0  0  0  0  0  0  0
    5.5713  -14.2973   -0.6131 H   0  0  0  0  0  0  0  0  0  0  0  0
    5.4048  -14.1915    1.1844 H   0  0  0  0  0  0  0  0  0  0  0  0
    0.3810  -10.7110    0.8280 H   0  0  0  0  0  0  0  0  0  0  0  0
    1.2980  -11.4080    1.9950 H   0  0  0  0  0  0  0  0  0  0  0  0
    0.1589  -13.5107    0.5089 H   0  0  0  0  0  0  0  0  0  0  0  0
   -0.0752  -12.3536    3.2827 H   0  0  0  0  0  0  0  0  0  0  0  0
   -1.2892  -13.5655    2.7499 H   0  0  0  0  0  0  0  0  0  0  0  0
    0.4576  -13.9842    2.7499 H   0  0  0  0  0  0  0  0  0  0  0  0
   -0.8810  -10.0448    0.6249 H   0  0  0  0  0  0  0  0  0  0  0  0
   -3.1261   -9.2668   -0.1919 H   0  0  0  0  0  0  0  0  0  0  0  0
   -4.4631  -13.3405   -0.1926 H   0  0  0  0  0  0  0  0  0  0  0  0
  1  2  1  0
  2  3  2  0
  3  4  1  0
  4  5  2  0
  5  6  1  0
  6  7  1  0
  7  8  2  0
  8  9  1  0
  9 10  1  0
 10 11  1  0
 11 12  1  0
 12 13  1  0
 13 14  1  0
 14 15  1  0
  9 16  2  0
 16 17  1  0
 17 18  1  0
 18 19  1  0
 19 20  1  0
 19 21  1  0
 21 22  2  0
 22 23  1  0
 23 24  2  0
 24 25  1  0
 24 26  1  0
 26 27  2  0
 17 28  2  0
  5 29  1  0
 29  2  1  0
 28  7  1  0
 15 10  1  0
 27 21  1  0
  1 30  1  0
  1 31  1  0
  1 32  1  0
  3 33  1  0
  6 34  1  0
  8 35  1  0
 11 36  1  0
 11 37  1  0
 12 38  1  0
 12 39  1  0
 14 40  1  0
 14 41  1  0
 15 42  1  0
 15 43  1  0
 18 44  1  0
 18 45  1  0
 19 46  1  6
 20 47  1  0
 20 48  1  0
 20 49  1  0
 22 50  1  0
 23 51  1  0
 26 52  1  0
M  CHG  1  18   1
M  END
>  <meeko>  (3) 
{"is_sidechain": [false], "free_energy": -7.051, "intermolecular_energy": -9.615, "internal_energy": -0.947}

$$$$
LIB_XCGHYXHBCOQVTC__M_PUB_ALL__e8__s20260927
     RDKit          3D

 52 55  0  0  0  0  0  0  0  0999 V2000
   -2.4190  -17.7080    2.2810 C   0  0  0  0  0  0  0  0  0  0  0  0
   -1.7440  -17.0220    1.1490 C   0  0  0  0  0  0  0  0  0  0  0  0
   -2.2900  -16.3810    0.0590 C   0  0  0  0  0  0  0  0  0  0  0  0
   -1.3860  -15.8330   -0.8310 N   0  0  0  0  0  0  0  0  0  0  0  0
   -0.1520  -16.0610   -0.4290 C   0  0  0  0  0  0  0  0  0  0  0  0
    0.9900  -15.6620   -1.0370 N   0  0  0  0  0  0  0  0  0  0  0  0
    1.6350  -14.4350   -0.8360 C   0  0  0  0  0  0  0  0  0  0  0  0
    2.9770  -14.4260   -0.4920 C   0  0  0  0  0  0  0  0  0  0  0  0
    3.5850  -13.2100   -0.2130 C   0  0  0  0  0  0  0  0  0  0  0  0
    4.9230  -13.1310    0.1470 N   0  0  0  0  0  0  0  0  0  0  0  0
    5.3210  -12.3560    1.3420 C   0  0  0  0  0  0  0  0  0  0  0  0
    6.8380  -12.1140    1.3630 C   0  0  0  0  0  0  0  0  0  0  0  0
    7.5660  -13.3410    1.2360 O   0  0  0  0  0  0  0  0  0  0  0  0
    7.2580  -13.9630   -0.0170 C   0  0  0  0  0  0  0  0  0  0  0  0
    5.7680  -14.3170   -0.1120 C   0  0  0  0  0  0  0  0  0  0  0  0
    2.8590  -12.0780   -0.2360 N   0  0  0  0  0  0  0  0  0  0  0  0
    1.5830  -12.1930   -0.5700 C   0  0  0  0  0  0  0  0  0  0  0  0
    0.8310  -11.0040   -0.5850 N   0  0  0  0  0  0  0  0  0  0  0  0
    0.1020  -10.7420    0.6870 C   0  0  1  0  0  0  0  0  0  0  0  0
    0.2850   -9.2780    1.0870 C   0  0  0  0  0  0  0  0  0  0  0  0
   -1.3720  -11.0710    0.4840 C   0  0  0  0  0  0  0  0  0  0  0  0
   -2.2420  -10.1680   -0.1300 C   0  0  0  0  0  0  0  0  0  0  0  0
   -3.5820  -10.5240   -0.2800 C   0  0  0  0  0  0  0  0  0  0  0  0
   -4.0100  -11.7580    0.1860 C   0  0  0  0  0  0  0  0  0  0  0  0
   -5.2890  -12.1250    0.0540 F   0  0  0  0  0  0  0  0  0  0  0  0
   -3.0940  -12.5990    0.7900 C   0  0  0  0  0  0  0  0  0  0  0  0
   -1.7810  -12.2860    0.9550 N   0  0  0  0  0  0  0  0  0  0  0  0
    0.9430  -13.2940   -0.9030 N   0  0  0  0  0  0  0  0  0  0  0  0
   -0.0390  -16.9360    1.0590 S   0  0  0  0  0  0  0  0  0  0  0  0
   -2.0314  -17.3141    3.2321 H   0  0  0  0  0  0  0  0  0  0  0  0
   -3.5029  -17.5290    2.2245 H   0  0  0  0  0  0  0  0  0  0  0  0
   -2.2225  -18.7888    2.2245 H   0  0  0  0  0  0  0  0  0  0  0  0
   -3.3771  -16.3098   -0.0934 H   0  0  0  0  0  0  0  0  0  0  0  0
    1.3360  -16.2300   -1.7980 H   0  0  0  0  0  0  0  0  0  0  0  0
    3.5493  -15.3640   -0.4410 H   0  0  0  0  0  0  0  0  0  0  0  0
    4.8024  -11.3860    1.3305 H   0  0  0  0  0  0  0  0  0  0  0  0
    5.0459  -12.9303    2.2390 H   0  0  0  0  0  0  0  0  0  0  0  0
    7.1060  -11.4510    0.5272 H   0  0  0  0  0  0  0  0  0  0  0  0
    7.1013  -11.6541    2.3269 H   0  0  0  0  0  0  0  0  0  0  0  0
    7.5148  -13.2716   -0.8331 H   0  0  0  0  0  0  0  0  0  0  0  0
    7.8415  -14.8921   -0.0963 H   0  0  0  0  0  0  0  0  0  0  0  0
    5.5527  -14.6985   -1.1210 H   0  0  0  0  0  0  0  0  0  0  0  0
    5.5407  -15.0811    0.6460 H   0  0  0  0  0  0  0  0  0  0  0  0
    0.1450  -11.0950   -1.3370 H   0  0  0  0  0  0  0  0  0  0  0  0
    1.4520  -10.2380   -0.8410 H   0  0  0  0  0  0  0  0  0  0  0  0
    0.5009  -11.3724    1.4954 H   0  0  0  0  0  0  0  0  0  0  0  0
    0.2952   -9.1961    2.1839 H   0  0  0  0  0  0  0  0  0  0  0  0
    1.2369   -8.9036    0.6825 H   0  0  0  0  0  0  0  0  0  0  0  0
   -0.5455   -8.6808    0.6825 H   0  0  0  0  0  0  0  0  0  0  0  0
   -1.8774   -9.1941   -0.4887 H   0  0  0  0  0  0  0  0  0  0  0  0
   -4.2907   -9.8345   -0.7620 H   0  0  0  0  0  0  0  0  0  0  0  0
   -3.4464  -13.5743    1.1570 H   0  0  0  0  0  0  0  0  0  0  0  0
  1  2  1  0
  2  3  2  0
  3  4  1  0
  4  5  2  0
  5  6  1  0
  6  7  1  0
  7  8  2  0
  8  9  1  0
  9 10  1  0
 10 11  1  0
 11 12  1  0
 12 13  1  0
 13 14  1  0
 14 15  1  0
  9 16  2  0
 16 17  1  0
 17 18  1  0
 18 19  1  0
 19 20  1  0
 19 21  1  0
 21 22  2  0
 22 23  1  0
 23 24  2  0
 24 25  1  0
 24 26  1  0
 26 27  2  0
 17 28  2  0
  5 29  1  0
 29  2  1  0
 28  7  1  0
 15 10  1  0
 27 21  1  0
  1 30  1  0
  1 31  1  0
  1 32  1  0
  3 33  1  0
  6 34  1  0
  8 35  1  0
 11 36  1  0
 11 37  1  0
 12 38  1  0
 12 39  1  0
 14 40  1  0
 14 41  1  0
 15 42  1  0
 15 43  1  0
 18 44  1  0
 18 45  1  0
 19 46  1  1
 20 47  1  0
 20 48  1  0
 20 49  1  0
 22 50  1  0
 23 51  1  0
 26 52  1  0
M  CHG  1  18   1
M  END
>  <meeko>  (4) 
{"is_sidechain": [false], "free_energy": -6.969, "intermolecular_energy": -9.271, "internal_energy": -1.181}

$$$$
LIB_XCGHYXHBCOQVTC__M_PUB_ALL__e8__s20260927
     RDKit          3D

 52 55  0  0  0  0  0  0  0  0999 V2000
   13.2380  -10.8890   -0.1830 C   0  0  0  0  0  0  0  0  0  0  0  0
   11.9320  -11.5650    0.0260 C   0  0  0  0  0  0  0  0  0  0  0  0
   11.0730  -11.5040    1.1020 C   0  0  0  0  0  0  0  0  0  0  0  0
    9.9190  -12.2560    0.9920 N   0  0  0  0  0  0  0  0  0  0  0  0
    9.8970  -12.8960   -0.1590 C   0  0  0  0  0  0  0  0  0  0  0  0
    8.9200  -13.7120   -0.6190 N   0  0  0  0  0  0  0  0  0  0  0  0
    7.5520  -13.4110   -0.6460 C   0  0  0  0  0  0  0  0  0  0  0  0
    6.6770  -14.1740    0.1110 C   0  0  0  0  0  0  0  0  0  0  0  0
    5.3160  -13.9220    0.0110 C   0  0  0  0  0  0  0  0  0  0  0  0
    4.3860  -14.6550    0.7340 N   0  0  0  0  0  0  0  0  0  0  0  0
    3.3230  -13.9580    1.4890 C   0  0  0  0  0  0  0  0  0  0  0  0
    2.6290  -14.9110    2.4750 C   0  0  0  0  0  0  0  0  0  0  0  0
    2.1520  -16.0890    1.8150 O   0  0  0  0  0  0  0  0  0  0  0  0
    3.2510  -16.8060    1.2420 C   0  0  0  0  0  0  0  0  0  0  0  0
    3.9740  -15.9640    0.1830 C   0  0  0  0  0  0  0  0  0  0  0  0
    4.8700  -12.9830   -0.8420 N   0  0  0  0  0  0  0  0  0  0  0  0
    5.7850  -12.3120   -1.5250 C   0  0  0  0  0  0  0  0  0  0  0  0
    5.3080  -11.3370   -2.4190 N   0  0  0  0  0  0  0  0  0  0  0  0
    4.1250  -11.7780   -3.2090 C   0  0  1  0  0  0  0  0  0  0  0  0
    3.1210  -10.6300   -3.3090 C   0  0  0  0  0  0  0  0  0  0  0  0
    4.5940  -12.2140   -4.5920 C   0  0  0  0  0  0  0  0  0  0  0  0
    4.3470  -11.4340   -5.7240 C   0  0  0  0  0  0  0  0  0  0  0  0
    4.7940  -11.8910   -6.9630 C   0  0  0  0  0  0  0  0  0  0  0  0
    5.4670  -13.1010   -7.0350 C   0  0  0  0  0  0  0  0  0  0  0  0
    5.9070  -13.5610   -8.2110 F   0  0  0  0  0  0  0  0  0  0  0  0
    5.6700  -13.8230   -5.8740 C   0  0  0  0  0  0  0  0  0  0  0  0
    5.2470  -13.4120   -4.6490 N   0  0  0  0  0  0  0  0  0  0  0  0
    7.0920  -12.4480   -1.4510 N   0  0  0  0  0  0  0  0  0  0  0  0
   11.2710  -12.5970   -1.1660 S   0  0  0  0  0  0  0  0  0  0  0  0
   13.6900  -10.6550    0.7922 H   0  0  0  0  0  0  0  0  0  0  0  0
   13.9085  -11.5533   -0.7480 H   0  0  0  0  0  0  0  0  0  0  0  0
   13.0827   -9.9580   -0.7480 H   0  0  0  0  0  0  0  0  0  0  0  0
   11.2921  -10.8954    1.9917 H   0  0  0  0  0  0  0  0  0  0  0  0
    9.1720  -14.6670   -0.8330 H   0  0  0  0  0  0  0  0  0  0  0  0
    7.0538  -14.9636    0.7778 H   0  0  0  0  0  0  0  0  0  0  0  0
    3.7689  -13.1232    2.0497 H   0  0  0  0  0  0  0  0  0  0  0  0
    2.5730  -13.5872    0.7749 H   0  0  0  0  0  0  0  0  0  0  0  0
    3.3470  -15.2038    3.2552 H   0  0  0  0  0  0  0  0  0  0  0  0
    1.7672  -14.3873    2.9143 H   0  0  0  0  0  0  0  0  0  0  0  0
    3.9627  -17.0677    2.0389 H   0  0  0  0  0  0  0  0  0  0  0  0
    2.8594  -17.7124    0.7571 H   0  0  0  0  0  0  0  0  0  0  0  0
    4.8673  -16.5070   -0.1592 H   0  0  0  0  0  0  0  0  0  0  0  0
    3.2835  -15.7886   -0.6551 H   0  0  0  0  0  0  0  0  0  0  0  0
    6.0700  -11.1300   -3.0680 H   0  0  0  0  0  0  0  0  0  0  0  0
    5.1260  -10.4830   -1.8930 H   0  0  0  0  0  0  0  0  0  0  0  0
    3.6287  -12.6267   -2.7157 H   0  0  0  0  0  0  0  0  0  0  0  0
    2.8355  -10.3035   -2.2981 H   0  0  0  0  0  0  0  0  0  0  0  0
    3.5785   -9.7889   -3.8504 H   0  0  0  0  0  0  0  0  0  0  0  0
    2.2264  -10.9714   -3.8504 H   0  0  0  0  0  0  0  0  0  0  0  0
    3.8102  -10.4776   -5.6396 H   0  0  0  0  0  0  0  0  0  0  0  0
    4.6149  -11.2987   -7.8725 H   0  0  0  0  0  0  0  0  0  0  0  0
    6.2030  -14.7826   -5.9450 H   0  0  0  0  0  0  0  0  0  0  0  0
  1  2  1  0
  2  3  2  0
  3  4  1  0
  4  5  2  0
  5  6  1  0
  6  7  1  0
  7  8  2  0
  8  9  1  0
  9 10  1  0
 10 11  1  0
 11 12  1  0
 12 13  1  0
 13 14  1  0
 14 15  1  0
  9 16  2  0
 16 17  1  0
 17 18  1  0
 18 19  1  0
 19 20  1  0
 19 21  1  0
 21 22  2  0
 22 23  1  0
 23 24  2  0
 24 25  1  0
 24 26  1  0
 26 27  2  0
 17 28  2  0
  5 29  1  0
 29  2  1  0
 28  7  1  0
 15 10  1  0
 27 21  1  0
  1 30  1  0
  1 31  1  0
  1 32  1  0
  3 33  1  0
  6 34  1  0
  8 35  1  0
 11 36  1  0
 11 37  1  0
 12 38  1  0
 12 39  1  0
 14 40  1  0
 14 41  1  0
 15 42  1  0
 15 43  1  0
 18 44  1  0
 18 45  1  0
 19 46  1  1
 20 47  1  0
 20 48  1  0
 20 49  1  0
 22 50  1  0
 23 51  1  0
 26 52  1  0
M  CHG  1  18   1
M  END
>  <meeko>  (5) 
{"is_sidechain": [false], "free_energy": -6.916, "intermolecular_energy": -9.378, "internal_energy": -1.002}

$$$$
LIB_XCGHYXHBCOQVTC__M_PUB_ALL__e8__s20260927
     RDKit          3D

 52 55  0  0  0  0  0  0  0  0999 V2000
   -4.3900  -11.4920   -0.4060 C   0  0  0  0  0  0  0  0  0  0  0  0
   -3.6920  -12.2820    0.6410 C   0  0  0  0  0  0  0  0  0  0  0  0
   -3.1900  -11.8770    1.8590 C   0  0  0  0  0  0  0  0  0  0  0  0
   -2.5900  -12.8640    2.6180 N   0  0  0  0  0  0  0  0  0  0  0  0
   -2.6260  -14.0170    1.9820 C   0  0  0  0  0  0  0  0  0  0  0  0
   -2.1510  -15.2060    2.4240 N   0  0  0  0  0  0  0  0  0  0  0  0
   -2.5410  -15.8520    3.6030 C   0  0  0  0  0  0  0  0  0  0  0  0
   -1.5740  -16.2170    4.5250 C   0  0  0  0  0  0  0  0  0  0  0  0
   -1.9610  -16.9320    5.6500 C   0  0  0  0  0  0  0  0  0  0  0  0
   -1.0410  -17.3370    6.6070 N   0  0  0  0  0  0  0  0  0  0  0  0
    0.3860  -16.9770    6.4570 C   0  0  0  0  0  0  0  0  0  0  0  0
    1.2650  -17.7970    7.4150 C   0  0  0  0  0  0  0  0  0  0  0  0
    0.8090  -17.6860    8.7680 O   0  0  0  0  0  0  0  0  0  0  0  0
   -0.5230  -18.2020    8.8770 C   0  0  0  0  0  0  0  0  0  0  0  0
   -1.5030  -17.4010    8.0100 C   0  0  0  0  0  0  0  0  0  0  0  0
   -3.2470  -17.2940    5.8030 N   0  0  0  0  0  0  0  0  0  0  0  0
   -4.0940  -16.9020    4.8640 C   0  0  0  0  0  0  0  0  0  0  0  0
   -5.4360  -17.2900    5.0300 N   0  0  0  0  0  0  0  0  0  0  0  0
   -6.3770  -16.1440    5.1670 C   0  0  1  0  0  0  0  0  0  0  0  0
   -7.8140  -16.6440    5.0220 C   0  0  0  0  0  0  0  0  0  0  0  0
   -6.1620  -15.4930    6.5290 C   0  0  0  0  0  0  0  0  0  0  0  0
   -6.5350  -14.1690    6.7700 C   0  0  0  0  0  0  0  0  0  0  0  0
   -6.3050  -13.6280    8.0340 C   0  0  0  0  0  0  0  0  0  0  0  0
   -5.7130  -14.4160    9.0100 C   0  0  0  0  0  0  0  0  0  0  0  0
   -5.4830  -13.9220   10.2310 F   0  0  0  0  0  0  0  0  0  0  0  0
   -5.3650  -15.7170    8.6980 C   0  0  0  0  0  0  0  0  0  0  0  0
   -5.5710  -16.2780    7.4770 N   0  0  0  0  0  0  0  0  0  0  0  0
   -3.8230  -16.1770    3.7990 N   0  0  0  0  0  0  0  0  0  0  0  0
   -3.4070  -13.9560    0.4400 S   0  0  0  0  0  0  0  0  0  0  0  0
   -5.0461  -10.7494    0.0715 H   0  0  0  0  0  0  0  0  0  0  0  0
   -3.6472  -10.9762   -1.0323 H   0  0  0  0  0  0  0  0  0  0  0  0
   -4.9934  -12.1656   -1.0323 H   0  0  0  0  0  0  0  0  0  0  0  0
   -3.2622  -10.8353    2.2048 H   0  0  0  0  0  0  0  0  0  0  0  0
   -1.3540  -15.5970    1.9420 H   0  0  0  0  0  0  0  0  0  0  0  0
   -0.5196  -15.9455    4.3687 H   0  0  0  0  0  0  0  0  0  0  0  0
    0.7001  -17.1756    5.4217 H   0  0  0  0  0  0  0  0  0  0  0  0
    0.5054  -15.9104    6.6983 H   0  0  0  0  0  0  0  0  0  0  0  0
    1.2340  -18.8542    7.1126 H   0  0  0  0  0  0  0  0  0  0  0  0
    2.2917  -17.4057    7.3629 H   0  0  0  0  0  0  0  0  0  0  0  0
   -0.5288  -19.2517    8.5481 H   0  0  0  0  0  0  0  0  0  0  0  0
   -0.8420  -18.1217    9.9267 H   0  0  0  0  0  0  0  0  0  0  0  0
   -2.4899  -17.8857    8.0417 H   0  0  0  0  0  0  0  0  0  0  0  0
   -1.5632  -16.3764    8.4056 H   0  0  0  0  0  0  0  0  0  0  0  0
   -5.4800  -17.8470    5.8860 H   0  0  0  0  0  0  0  0  0  0  0  0
   -5.6870  -17.9090    4.2600 H   0  0  0  0  0  0  0  0  0  0  0  0
   -6.1907  -15.3981    4.3803 H   0  0  0  0  0  0  0  0  0  0  0  0
   -8.2517  -16.7963    6.0196 H   0  0  0  0  0  0  0  0  0  0  0  0
   -8.4074  -15.8995    4.4710 H   0  0  0  0  0  0  0  0  0  0  0  0
   -7.8171  -17.5960    4.4710 H   0  0  0  0  0  0  0  0  0  0  0  0
   -7.0012  -13.5648    5.9778 H   0  0  0  0  0  0  0  0  0  0  0  0
   -6.5896  -12.5886    8.2548 H   0  0  0  0  0  0  0  0  0  0  0  0
   -4.8959  -16.3317    9.4803 H   0  0  0  0  0  0  0  0  0  0  0  0
  1  2  1  0
  2  3  2  0
  3  4  1  0
  4  5  2  0
  5  6  1  0
  6  7  1  0
  7  8  2  0
  8  9  1  0
  9 10  1  0
 10 11  1  0
 11 12  1  0
 12 13  1  0
 13 14  1  0
 14 15  1  0
  9 16  2  0
 16 17  1  0
 17 18  1  0
 18 19  1  0
 19 20  1  0
 19 21  1  0
 21 22  2  0
 22 23  1  0
 23 24  2  0
 24 25  1  0
 24 26  1  0
 26 27  2  0
 17 28  2  0
  5 29  1  0
 29  2  1  0
 28  7  1  0
 15 10  1  0
 27 21  1  0
  1 30  1  0
  1 31  1  0
  1 32  1  0
  3 33  1  0
  6 34  1  0
  8 35  1  0
 11 36  1  0
 11 37  1  0
 12 38  1  0
 12 39  1  0
 14 40  1  0
 14 41  1  0
 15 42  1  0
 15 43  1  0
 18 44  1  0
 18 45  1  0
 19 46  1  6
 20 47  1  0
 20 48  1  0
 20 49  1  0
 22 50  1  0
 23 51  1  0
 26 52  1  0
M  CHG  1  18   1
M  END
>  <meeko>  (6) 
{"is_sidechain": [false], "free_energy": -6.908, "intermolecular_energy": -9.691, "internal_energy": -0.678}

$$$$
LIB_XCGHYXHBCOQVTC__M_PUB_ALL__e8__s20260927
     RDKit          3D

 52 55  0  0  0  0  0  0  0  0999 V2000
   -1.4910  -15.9680    5.8540 C   0  0  0  0  0  0  0  0  0  0  0  0
   -0.2790  -15.6080    5.0740 C   0  0  0  0  0  0  0  0  0  0  0  0
    0.8720  -14.9690    5.4820 C   0  0  0  0  0  0  0  0  0  0  0  0
    1.8320  -14.7800    4.5070 N   0  0  0  0  0  0  0  0  0  0  0  0
    1.4160  -15.2650    3.3540 C   0  0  0  0  0  0  0  0  0  0  0  0
    2.0930  -15.2740    2.1820 N   0  0  0  0  0  0  0  0  0  0  0  0
    2.4190  -14.1450    1.4210 C   0  0  0  0  0  0  0  0  0  0  0  0
    3.7520  -13.8010    1.2580 C   0  0  0  0  0  0  0  0  0  0  0  0
    4.0610  -12.6350    0.5730 C   0  0  0  0  0  0  0  0  0  0  0  0
    5.3740  -12.2280    0.3840 N   0  0  0  0  0  0  0  0  0  0  0  0
    6.4230  -12.6560    1.3340 C   0  0  0  0  0  0  0  0  0  0  0  0
    7.7070  -11.8330    1.1460 C   0  0  0  0  0  0  0  0  0  0  0  0
    8.1530  -11.8630   -0.2150 O   0  0  0  0  0  0  0  0  0  0  0  0
    7.1570  -11.2860   -1.0670 C   0  0  0  0  0  0  0  0  0  0  0  0
    5.8460  -12.0820   -1.0100 C   0  0  0  0  0  0  0  0  0  0  0  0
    3.0720  -11.8410    0.1230 N   0  0  0  0  0  0  0  0  0  0  0  0
    1.8310  -12.2540    0.3340 C   0  0  0  0  0  0  0  0  0  0  0  0
    0.8050  -11.4150   -0.1360 N   0  0  0  0  0  0  0  0  0  0  0  0
   -0.0170  -10.8120    0.9500 C   0  0  1  0  0  0  0  0  0  0  0  0
    0.1970   -9.2980    0.9710 C   0  0  0  0  0  0  0  0  0  0  0  0
   -1.4820  -11.1510    0.7010 C   0  0  0  0  0  0  0  0  0  0  0  0
   -2.2930  -10.3380   -0.0940 C   0  0  0  0  0  0  0  0  0  0  0  0
   -3.6280  -10.6980   -0.2770 C   0  0  0  0  0  0  0  0  0  0  0  0
   -4.1090  -11.8450    0.3350 C   0  0  0  0  0  0  0  0  0  0  0  0
   -5.3850  -12.2130    0.1750 F   0  0  0  0  0  0  0  0  0  0  0  0
   -3.2510  -12.5980    1.1140 C   0  0  0  0  0  0  0  0  0  0  0  0
   -1.9450  -12.2780    1.3180 N   0  0  0  0  0  0  0  0  0  0  0  0
    1.4520  -13.3690    0.9210 N   0  0  0  0  0  0  0  0  0  0  0  0
   -0.1540  -15.9890    3.4120 S   0  0  0  0  0  0  0  0  0  0  0  0
   -1.2682  -15.9018    6.9292 H   0  0  0  0  0  0  0  0  0  0  0  0
   -2.3069  -15.2734    5.6052 H   0  0  0  0  0  0  0  0  0  0  0  0
   -1.7954  -16.9953    5.6052 H   0  0  0  0  0  0  0  0  0  0  0  0
    1.0170  -14.6309    6.5187 H   0  0  0  0  0  0  0  0  0  0  0  0
    2.2600  -16.1710    1.7470 H   0  0  0  0  0  0  0  0  0  0  0  0
    4.5495  -14.4405    1.6641 H   0  0  0  0  0  0  0  0  0  0  0  0
    6.0552  -12.5186    2.3615 H   0  0  0  0  0  0  0  0  0  0  0  0
    6.6551  -13.7146    1.1454 H   0  0  0  0  0  0  0  0  0  0  0  0
    7.5091  -10.7902    1.4348 H   0  0  0  0  0  0  0  0  0  0  0  0
    8.4940  -12.2706    1.7777 H   0  0  0  0  0  0  0  0  0  0  0  0
    6.9633  -10.2527   -0.7432 H   0  0  0  0  0  0  0  0  0  0  0  0
    7.5308  -11.3059   -2.1014 H   0  0  0  0  0  0  0  0  0  0  0  0
    5.0791  -11.5542   -1.5959 H   0  0  0  0  0  0  0  0  0  0  0  0
    6.0267  -13.0844   -1.4253 H   0  0  0  0  0  0  0  0  0  0  0  0
    0.1950  -11.9890   -0.7210 H   0  0  0  0  0  0  0  0  0  0  0  0
    1.2220  -10.7110   -0.7440 H   0  0  0  0  0  0  0  0  0  0  0  0
    0.2829  -11.2159    1.9282 H   0  0  0  0  0  0  0  0  0  0  0  0
    0.2463   -8.9491    2.0130 H   0  0  0  0  0  0  0  0  0  0  0  0
    1.1386   -9.0536    0.4575 H   0  0  0  0  0  0  0  0  0  0  0  0
   -0.6400   -8.8022    0.4575 H   0  0  0  0  0  0  0  0  0  0  0  0
   -1.8868   -9.4315   -0.5665 H   0  0  0  0  0  0  0  0  0  0  0  0
   -4.2911  -10.0792   -0.8994 H   0  0  0  0  0  0  0  0  0  0  0  0
   -3.6457  -13.5051    1.5950 H   0  0  0  0  0  0  0  0  0  0  0  0
  1  2  1  0
  2  3  2  0
  3  4  1  0
  4  5  2  0
  5  6  1  0
  6  7  1  0
  7  8  2  0
  8  9  1  0
  9 10  1  0
 10 11  1  0
 11 12  1  0
 12 13  1  0
 13 14  1  0
 14 15  1  0
  9 16  2  0
 16 17  1  0
 17 18  1  0
 18 19  1  0
 19 20  1  0
 19 21  1  0
 21 22  2  0
 22 23  1  0
 23 24  2  0
 24 25  1  0
 24 26  1  0
 26 27  2  0
 17 28  2  0
  5 29  1  0
 29  2  1  0
 28  7  1  0
 15 10  1  0
 27 21  1  0
  1 30  1  0
  1 31  1  0
  1 32  1  0
  3 33  1  0
  6 34  1  0
  8 35  1  0
 11 36  1  0
 11 37  1  0
 12 38  1  0
 12 39  1  0
 14 40  1  0
 14 41  1  0
 15 42  1  0
 15 43  1  0
 18 44  1  0
 18 45  1  0
 19 46  1  1
 20 47  1  0
 20 48  1  0
 20 49  1  0
 22 50  1  0
 23 51  1  0
 26 52  1  0
M  CHG  1  18   1
M  END
>  <meeko>  (7) 
{"is_sidechain": [false], "free_energy": -6.901, "intermolecular_energy": -9.227, "internal_energy": -1.132}

$$$$
LIB_XCGHYXHBCOQVTC__M_PUB_ALL__e8__s20260927
     RDKit          3D

 52 55  0  0  0  0  0  0  0  0999 V2000
    8.9250  -11.8880    0.7700 C   0  0  0  0  0  0  0  0  0  0  0  0
    7.4900  -11.9560    1.1470 C   0  0  0  0  0  0  0  0  0  0  0  0
    6.5830  -10.9370    1.3370 C   0  0  0  0  0  0  0  0  0  0  0  0
    5.3040  -11.3290    1.6850 N   0  0  0  0  0  0  0  0  0  0  0  0
    5.2340  -12.6420    1.7690 C   0  0  0  0  0  0  0  0  0  0  0  0
    4.1410  -13.3820    2.0700 N   0  0  0  0  0  0  0  0  0  0  0  0
    3.0820  -13.6630    1.1990 C   0  0  0  0  0  0  0  0  0  0  0  0
    3.2700  -13.5100   -0.1660 C   0  0  0  0  0  0  0  0  0  0  0  0
    2.1910  -13.7100   -1.0140 C   0  0  0  0  0  0  0  0  0  0  0  0
    2.3090  -13.5630   -2.3890 N   0  0  0  0  0  0  0  0  0  0  0  0
    3.6310  -13.2880   -2.9900 C   0  0  0  0  0  0  0  0  0  0  0  0
    3.4890  -12.8260   -4.4500 C   0  0  0  0  0  0  0  0  0  0  0  0
    2.7180  -13.7560   -5.2190 O   0  0  0  0  0  0  0  0  0  0  0  0
    1.3950  -13.8550   -4.6810 C   0  0  0  0  0  0  0  0  0  0  0  0
    1.4180  -14.3820   -3.2390 C   0  0  0  0  0  0  0  0  0  0  0  0
    0.9810  -14.0010   -0.5020 N   0  0  0  0  0  0  0  0  0  0  0  0
    0.9030  -14.1190    0.8150 C   0  0  0  0  0  0  0  0  0  0  0  0
   -0.3670  -14.4180    1.3410 N   0  0  0  0  0  0  0  0  0  0  0  0
   -1.4680  -13.6260    0.7280 C   0  0  1  0  0  0  0  0  0  0  0  0
   -2.7900  -14.3750    0.8960 C   0  0  0  0  0  0  0  0  0  0  0  0
   -1.5260  -12.2610    1.4050 C   0  0  0  0  0  0  0  0  0  0  0  0
   -1.4400  -12.1320    2.7930 C   0  0  0  0  0  0  0  0  0  0  0  0
   -1.5070  -10.8560    3.3520 C   0  0  0  0  0  0  0  0  0  0  0  0
   -1.6590   -9.7590    2.5180 C   0  0  0  0  0  0  0  0  0  0  0  0
   -1.7250   -8.5250    3.0300 F   0  0  0  0  0  0  0  0  0  0  0  0
   -1.7440   -9.9630    1.1540 C   0  0  0  0  0  0  0  0  0  0  0  0
   -1.6850  -11.1900    0.5720 N   0  0  0  0  0  0  0  0  0  0  0  0
    1.8840  -14.0030    1.6850 N   0  0  0  0  0  0  0  0  0  0  0  0
    6.7160  -13.4580    1.4100 S   0  0  0  0  0  0  0  0  0  0  0  0
    9.5422  -11.8588    1.6801 H   0  0  0  0  0  0  0  0  0  0  0  0
    9.1903  -12.7746    0.1754 H   0  0  0  0  0  0  0  0  0  0  0  0
    9.1053  -10.9803    0.1754 H   0  0  0  0  0  0  0  0  0  0  0  0
    6.8589   -9.8787    1.2193 H   0  0  0  0  0  0  0  0  0  0  0  0
    4.0050  -13.6400    3.0380 H   0  0  0  0  0  0  0  0  0  0  0  0
    4.2561  -13.2352   -0.5687 H   0  0  0  0  0  0  0  0  0  0  0  0
    4.1322  -12.4988   -2.4104 H   0  0  0  0  0  0  0  0  0  0  0  0
    4.2229  -14.2150   -2.9724 H   0  0  0  0  0  0  0  0  0  0  0  0
    2.9901  -11.8458   -4.4684 H   0  0  0  0  0  0  0  0  0  0  0  0
    4.4942  -12.7603   -4.8920 H   0  0  0  0  0  0  0  0  0  0  0  0
    0.9284  -12.8589   -4.6912 H   0  0  0  0  0  0  0  0  0  0  0  0
    0.8201  -14.5600   -5.2995 H   0  0  0  0  0  0  0  0  0  0  0  0
    0.3983  -14.3489   -2.8277 H   0  0  0  0  0  0  0  0  0  0  0  0
    1.7962  -15.4149   -3.2496 H   0  0  0  0  0  0  0  0  0  0  0  0
   -0.3330  -14.2040    2.3400 H   0  0  0  0  0  0  0  0  0  0  0  0
   -0.5180  -15.4220    1.2580 H   0  0  0  0  0  0  0  0  0  0  0  0
   -1.2864  -13.4847   -0.3477 H   0  0  0  0  0  0  0  0  0  0  0  0
   -3.0079  -14.4985    1.9671 H   0  0  0  0  0  0  0  0  0  0  0  0
   -3.5994  -13.8013    0.4209 H   0  0  0  0  0  0  0  0  0  0  0  0
   -2.7139  -15.3642    0.4209 H   0  0  0  0  0  0  0  0  0  0  0  0
   -1.3218  -13.0191    3.4326 H   0  0  0  0  0  0  0  0  0  0  0  0
   -1.4400  -10.7216    4.4417 H   0  0  0  0  0  0  0  0  0  0  0  0
   -1.8661   -9.0844    0.5035 H   0  0  0  0  0  0  0  0  0  0  0  0
  1  2  1  0
  2  3  2  0
  3  4  1  0
  4  5  2  0
  5  6  1  0
  6  7  1  0
  7  8  2  0
  8  9  1  0
  9 10  1  0
 10 11  1  0
 11 12  1  0
 12 13  1  0
 13 14  1  0
 14 15  1  0
  9 16  2  0
 16 17  1  0
 17 18  1  0
 18 19  1  0
 19 20  1  0
 19 21  1  0
 21 22  2  0
 22 23  1  0
 23 24  2  0
 24 25  1  0
 24 26  1  0
 26 27  2  0
 17 28  2  0
  5 29  1  0
 29  2  1  0
 28  7  1  0
 15 10  1  0
 27 21  1  0
  1 30  1  0
  1 31  1  0
  1 32  1  0
  3 33  1  0
  6 34  1  0
  8 35  1  0
 11 36  1  0
 11 37  1  0
 12 38  1  0
 12 39  1  0
 14 40  1  0
 14 41  1  0
 15 42  1  0
 15 43  1  0
 18 44  1  0
 18 45  1  0
 19 46  1  6
 20 47  1  0
 20 48  1  0
 20 49  1  0
 22 50  1  0
 23 51  1  0
 26 52  1  0
M  CHG  1  18   1
M  END
>  <meeko>  (8) 
{"is_sidechain": [false], "free_energy": -6.9, "intermolecular_energy": -9.217, "internal_energy": -1.141}

$$$$
LIB_XCGHYXHBCOQVTC__M_PUB_ALL__e8__s20260927
     RDKit          3D

 52 55  0  0  0  0  0  0  0  0999 V2000
   -4.1490  -11.5410   -0.5020 C   0  0  0  0  0  0  0  0  0  0  0  0
   -3.5230  -12.2930    0.6160 C   0  0  0  0  0  0  0  0  0  0  0  0
   -2.9730  -11.8260    1.7890 C   0  0  0  0  0  0  0  0  0  0  0  0
   -2.4660  -12.7900    2.6400 N   0  0  0  0  0  0  0  0  0  0  0  0
   -2.6210  -13.9900    2.1180 C   0  0  0  0  0  0  0  0  0  0  0  0
   -2.2610  -15.1720    2.6710 N   0  0  0  0  0  0  0  0  0  0  0  0
   -2.8010  -15.7230    3.8400 C   0  0  0  0  0  0  0  0  0  0  0  0
   -1.9470  -16.1280    4.8530 C   0  0  0  0  0  0  0  0  0  0  0  0
   -2.4850  -16.7490    5.9700 C   0  0  0  0  0  0  0  0  0  0  0  0
   -1.6850  -17.1880    7.0150 N   0  0  0  0  0  0  0  0  0  0  0  0
   -0.2230  -16.9720    6.9660 C   0  0  0  0  0  0  0  0  0  0  0  0
    0.4970  -17.8200    8.0270 C   0  0  0  0  0  0  0  0  0  0  0  0
   -0.0480  -17.5960    9.3330 O   0  0  0  0  0  0  0  0  0  0  0  0
   -1.4280  -17.9780    9.3570 C   0  0  0  0  0  0  0  0  0  0  0  0
   -2.2560  -17.1340    8.3780 C   0  0  0  0  0  0  0  0  0  0  0  0
   -3.8080  -16.9870    6.0320 N   0  0  0  0  0  0  0  0  0  0  0  0
   -4.5390  -16.5660    5.0100 C   0  0  0  0  0  0  0  0  0  0  0  0
   -5.9200  -16.8240    5.0810 N   0  0  0  0  0  0  0  0  0  0  0  0
   -6.6030  -16.1130    6.1970 C   0  0  1  0  0  0  0  0  0  0  0  0
   -6.6560  -14.6160    5.8910 C   0  0  0  0  0  0  0  0  0  0  0  0
   -8.0070  -16.6860    6.3570 C   0  0  0  0  0  0  0  0  0  0  0  0
   -9.0250  -16.3830    5.4500 C   0  0  0  0  0  0  0  0  0  0  0  0
  -10.2900  -16.9320    5.6550 C   0  0  0  0  0  0  0  0  0  0  0  0
  -10.5000  -17.7570    6.7490 C   0  0  0  0  0  0  0  0  0  0  0  0
  -11.7030  -18.2970    6.9680 F   0  0  0  0  0  0  0  0  0  0  0  0
   -9.4470  -18.0080    7.6100 C   0  0  0  0  0  0  0  0  0  0  0  0
   -8.2010  -17.4890    7.4440 N   0  0  0  0  0  0  0  0  0  0  0  0
   -4.1180  -15.9220    3.9420 N   0  0  0  0  0  0  0  0  0  0  0  0
   -3.4060  -13.9990    0.5770 S   0  0  0  0  0  0  0  0  0  0  0  0
   -4.8028  -10.7556   -0.0949 H   0  0  0  0  0  0  0  0  0  0  0  0
   -3.3636  -11.0807   -1.1194 H   0  0  0  0  0  0  0  0  0  0  0  0
   -4.7441  -12.2299   -1.1194 H   0  0  0  0  0  0  0  0  0  0  0  0
   -2.9393  -10.7540    2.0332 H   0  0  0  0  0  0  0  0  0  0  0  0
   -1.4440  -15.6330    2.2940 H   0  0  0  0  0  0  0  0  0  0  0  0
   -0.8629  -15.9601    4.7727 H   0  0  0  0  0  0  0  0  0  0  0  0
    0.1485  -17.2522    5.9693 H   0  0  0  0  0  0  0  0  0  0  0  0
   -0.0194  -15.9104    7.1698 H   0  0  0  0  0  0  0  0  0  0  0  0
    0.3861  -18.8839    7.7705 H   0  0  0  0  0  0  0  0  0  0  0  0
    1.5581  -17.5303    8.0402 H   0  0  0  0  0  0  0  0  0  0  0  0
   -1.5115  -19.0382    9.0759 H   0  0  0  0  0  0  0  0  0  0  0  0
   -1.8167  -17.8136   10.3728 H   0  0  0  0  0  0  0  0  0  0  0  0
   -3.2855  -17.5205    8.3519 H   0  0  0  0  0  0  0  0  0  0  0  0
   -2.2444  -16.0889    8.7209 H   0  0  0  0  0  0  0  0  0  0  0  0
   -6.0270  -17.8300    5.2260 H   0  0  0  0  0  0  0  0  0  0  0  0
   -6.3310  -16.6100    4.1740 H   0  0  0  0  0  0  0  0  0  0  0  0
   -6.0499  -16.2532    7.1374 H   0  0  0  0  0  0  0  0  0  0  0  0
   -6.6761  -14.0495    6.8337 H   0  0  0  0  0  0  0  0  0  0  0  0
   -5.7675  -14.3289    5.3096 H   0  0  0  0  0  0  0  0  0  0  0  0
   -7.5626  -14.3925    5.3096 H   0  0  0  0  0  0  0  0  0  0  0  0
   -8.8324  -15.7240    4.5906 H   0  0  0  0  0  0  0  0  0  0  0  0
  -11.1116  -16.7131    4.9570 H   0  0  0  0  0  0  0  0  0  0  0  0
   -9.6271  -18.6626    8.4755 H   0  0  0  0  0  0  0  0  0  0  0  0
  1  2  1  0
  2  3  2  0
  3  4  1  0
  4  5  2  0
  5  6  1  0
  6  7  1  0
  7  8  2  0
  8  9  1  0
  9 10  1  0
 10 11  1  0
 11 12  1  0
 12 13  1  0
 13 14  1  0
 14 15  1  0
  9 16  2  0
 16 17  1  0
 17 18  1  0
 18 19  1  0
 19 20  1  0
 19 21  1  0
 21 22  2  0
 22 23  1  0
 23 24  2  0
 24 25  1  0
 24 26  1  0
 26 27  2  0
 17 28  2  0
  5 29  1  0
 29  2  1  0
 28  7  1  0
 15 10  1  0
 27 21  1  0
  1 30  1  0
  1 31  1  0
  1 32  1  0
  3 33  1  0
  6 34  1  0
  8 35  1  0
 11 36  1  0
 11 37  1  0
 12 38  1  0
 12 39  1  0
 14 40  1  0
 14 41  1  0
 15 42  1  0
 15 43  1  0
 18 44  1  0
 18 45  1  0
 19 46  1  1
 20 47  1  0
 20 48  1  0
 20 49  1  0
 22 50  1  0
 23 51  1  0
 26 52  1  0
M  CHG  1  18   1
M  END
>  <meeko>  (9) 
{"is_sidechain": [false], "free_energy": -6.857, "intermolecular_energy": -9.368, "internal_energy": -0.931}

$$$$
