LIB_HDOVLPFABNJQJO__M_PUB_ALL__e8__s20260927
     RDKit          3D

 20 21  0  0  0  0  0  0  0  0999 V2000
   13.5740   -4.5160  -13.0320 N   0  0  0  0  0  0  0  0  0  0  0  0
   12.7930   -3.4440  -13.1570 C   0  0  0  0  0  0  0  0  0  0  0  0
   13.1450   -2.1870  -13.1730 N   0  0  0  0  0  0  0  0  0  0  0  0
   11.9520   -1.5350  -13.3220 C   0  0  0  0  0  0  0  0  0  0  0  0
   11.8800   -0.1340  -13.3870 O   0  0  0  0  0  0  0  0  0  0  0  0
   10.8960   -2.4290  -13.3930 C   0  0  0  0  0  0  0  0  0  0  0  0
    9.4390   -2.3950  -13.5450 C   0  0  0  0  0  0  0  0  0  0  0  0
    8.8160   -1.4720  -14.3950 C   0  0  0  0  0  0  0  0  0  0  0  0
    7.4250   -1.4390  -14.5400 C   0  0  0  0  0  0  0  0  0  0  0  0
    6.6280   -2.3330  -13.8310 C   0  0  0  0  0  0  0  0  0  0  0  0
    7.2230   -3.2600  -12.9790 C   0  0  0  0  0  0  0  0  0  0  0  0
    8.6150   -3.2880  -12.8390 C   0  0  0  0  0  0  0  0  0  0  0  0
   11.4610   -3.6850  -13.2840 O   0  0  0  0  0  0  0  0  0  0  0  0
   13.3670   -5.2310  -12.3580 H   0  0  0  0  0  0  0  0  0  0  0  0
   14.3790   -4.5920  -13.6330 H   0  0  0  0  0  0  0  0  0  0  0  0
    9.4335   -0.7583  -14.9602 H   0  0  0  0  0  0  0  0  0  0  0  0
    6.9605   -0.7054  -15.2153 H   0  0  0  0  0  0  0  0  0  0  0  0
    5.5340   -2.3075  -13.9430 H   0  0  0  0  0  0  0  0  0  0  0  0
    6.5990   -3.9699  -12.4163 H   0  0  0  0  0  0  0  0  0  0  0  0
    9.0737   -4.0241  -12.1624 H   0  0  0  0  0  0  0  0  0  0  0  0
  1  2  1  0
  2  3  2  0
  3  4  1  0
  4  5  1  0
  4  6  2  0
  6  7  1  0
  7  8  2  0
  8  9  1  0
  9 10  2  0
 10 11  1  0
 11 12  2  0
  6 13  1  0
 13  2  1  0
 12  7  1  0
  1 14  1  0
  1 15  1  0
  8 16  1  0
  9 17  1  0
 10 18  1  0
 11 19  1  0
 12 20  1  0
M  CHG  1   5  -1
M  END
>  <meeko>  (1) 
{"is_sidechain": [false], "free_energy": -6.747, "intermolecular_energy": -7.339, "internal_energy": -0.139}

$$$$
LIB_HDOVLPFABNJQJO__M_PUB_ALL__e8__s20260927
     RDKit          3D

 20 21  0  0  0  0  0  0  0  0999 V2000
   -7.7380  -16.1950   -6.5470 N   0  0  0  0  0  0  0  0  0  0  0  0
   -8.9010  -15.9410   -7.1430 C   0  0  0  0  0  0  0  0  0  0  0  0
   -9.1130  -15.3050   -8.2640 N   0  0  0  0  0  0  0  0  0  0  0  0
  -10.4740  -15.3420   -8.3870 C   0  0  0  0  0  0  0  0  0  0  0  0
  -11.1320  -14.7570   -9.4810 O   0  0  0  0  0  0  0  0  0  0  0  0
  -11.0580  -16.0100   -7.3220 C   0  0  0  0  0  0  0  0  0  0  0  0
  -12.3980  -16.3840   -6.8650 C   0  0  0  0  0  0  0  0  0  0  0  0
  -13.4640  -16.5200   -7.7650 C   0  0  0  0  0  0  0  0  0  0  0  0
  -14.7440  -16.8770   -7.3290 C   0  0  0  0  0  0  0  0  0  0  0  0
  -14.9830  -17.1060   -5.9770 C   0  0  0  0  0  0  0  0  0  0  0  0
  -13.9400  -16.9770   -5.0620 C   0  0  0  0  0  0  0  0  0  0  0  0
  -12.6610  -16.6200   -5.5050 C   0  0  0  0  0  0  0  0  0  0  0  0
  -10.0120  -16.4000   -6.5080 O   0  0  0  0  0  0  0  0  0  0  0  0
   -7.6560  -16.9230   -5.8600 H   0  0  0  0  0  0  0  0  0  0  0  0
   -6.9390  -15.6350   -6.8030 H   0  0  0  0  0  0  0  0  0  0  0  0
  -13.2902  -16.3422   -8.8365 H   0  0  0  0  0  0  0  0  0  0  0  0
  -15.5635  -16.9770   -8.0559 H   0  0  0  0  0  0  0  0  0  0  0  0
  -15.9893  -17.3871   -5.6329 H   0  0  0  0  0  0  0  0  0  0  0  0
  -14.1216  -17.1556   -3.9919 H   0  0  0  0  0  0  0  0  0  0  0  0
  -11.8452  -16.5222   -4.7736 H   0  0  0  0  0  0  0  0  0  0  0  0
  1  2  1  0
  2  3  2  0
  3  4  1  0
  4  5  1  0
  4  6  2  0
  6  7  1  0
  7  8  2  0
  8  9  1  0
  9 10  2  0
 10 11  1  0
 11 12  2  0
  6 13  1  0
 13  2  1  0
 12  7  1  0
  1 14  1  0
  1 15  1  0
  8 16  1  0
  9 17  1  0
 10 18  1  0
 11 19  1  0
 12 20  1  0
M  CHG  1   5  -1
M  END
>  <meeko>  (2) 
{"is_sidechain": [false], "free_energy": -5.888, "intermolecular_energy": -6.433, "internal_energy": -0.11}

$$$$
LIB_HDOVLPFABNJQJO__M_PUB_ALL__e8__s20260927
     RDKit          3D

 20 21  0  0  0  0  0  0  0  0999 V2000
  -14.4170  -18.6240  -10.9100 N   0  0  0  0  0  0  0  0  0  0  0  0
  -14.0800  -17.8120   -9.9100 C   0  0  0  0  0  0  0  0  0  0  0  0
  -13.2260  -16.8230   -9.9250 N   0  0  0  0  0  0  0  0  0  0  0  0
  -13.2810  -16.3500   -8.6430 C   0  0  0  0  0  0  0  0  0  0  0  0
  -12.4980  -15.2620   -8.2250 O   0  0  0  0  0  0  0  0  0  0  0  0
  -14.1800  -17.0750   -7.8770 C   0  0  0  0  0  0  0  0  0  0  0  0
  -14.6880  -17.0880   -6.5030 C   0  0  0  0  0  0  0  0  0  0  0  0
  -16.0550  -16.9460   -6.2300 C   0  0  0  0  0  0  0  0  0  0  0  0
  -16.5390  -16.9590   -4.9170 C   0  0  0  0  0  0  0  0  0  0  0  0
  -15.6610  -17.1130   -3.8490 C   0  0  0  0  0  0  0  0  0  0  0  0
  -14.2970  -17.2540   -4.0950 C   0  0  0  0  0  0  0  0  0  0  0  0
  -13.8180  -17.2420   -5.4100 C   0  0  0  0  0  0  0  0  0  0  0  0
  -14.7010  -18.0350   -8.7220 O   0  0  0  0  0  0  0  0  0  0  0  0
  -15.2530  -19.1780  -10.8680 H   0  0  0  0  0  0  0  0  0  0  0  0
  -13.8080  -18.6690  -11.7130 H   0  0  0  0  0  0  0  0  0  0  0  0
  -16.7615  -16.8219   -7.0640 H   0  0  0  0  0  0  0  0  0  0  0  0
  -17.6170  -16.8471   -4.7289 H   0  0  0  0  0  0  0  0  0  0  0  0
  -16.0413  -17.1234   -2.8169 H   0  0  0  0  0  0  0  0  0  0  0  0
  -13.5964  -17.3748   -3.2556 H   0  0  0  0  0  0  0  0  0  0  0  0
  -12.7390  -17.3554   -5.5917 H   0  0  0  0  0  0  0  0  0  0  0  0
  1  2  1  0
  2  3  2  0
  3  4  1  0
  4  5  1  0
  4  6  2  0
  6  7  1  0
  7  8  2  0
  8  9  1  0
  9 10  2  0
 10 11  1  0
 11 12  2  0
  6 13  1  0
 13  2  1  0
 12  7  1  0
  1 14  1  0
  1 15  1  0
  8 16  1  0
  9 17  1  0
 10 18  1  0
 11 19  1  0
 12 20  1  0
M  CHG  1   5  -1
M  END
>  <meeko>  (3) 
{"is_sidechain": [false], "free_energy": -5.684, "intermolecular_energy": -6.176, "internal_energy": -0.144}

$$$$
LIB_HDOVLPFABNJQJO__M_PUB_ALL__e8__s20260927
     RDKit          3D

 20 21  0  0  0  0  0  0  0  0999 V2000
  -10.6670  -14.4100   -8.9550 N   0  0  0  0  0  0  0  0  0  0  0  0
  -11.6950  -15.2530   -8.8710 C   0  0  0  0  0  0  0  0  0  0  0  0
  -12.2260  -15.9760   -9.8200 N   0  0  0  0  0  0  0  0  0  0  0  0
  -13.2340  -16.6380   -9.1750 C   0  0  0  0  0  0  0  0  0  0  0  0
  -14.0730  -17.5410   -9.8500 O   0  0  0  0  0  0  0  0  0  0  0  0
  -13.2860  -16.2920   -7.8350 C   0  0  0  0  0  0  0  0  0  0  0  0
  -14.0820  -16.6190   -6.6490 C   0  0  0  0  0  0  0  0  0  0  0  0
  -13.4750  -16.8860   -5.4150 C   0  0  0  0  0  0  0  0  0  0  0  0
  -14.2340  -17.1980   -4.2820 C   0  0  0  0  0  0  0  0  0  0  0  0
  -15.6230  -17.2500   -4.3650 C   0  0  0  0  0  0  0  0  0  0  0  0
  -16.2500  -16.9880   -5.5800 C   0  0  0  0  0  0  0  0  0  0  0  0
  -15.4850  -16.6760   -6.7100 C   0  0  0  0  0  0  0  0  0  0  0  0
  -12.2680  -15.3790   -7.6450 O   0  0  0  0  0  0  0  0  0  0  0  0
  -10.6230  -13.5890   -8.3790 H   0  0  0  0  0  0  0  0  0  0  0  0
   -9.9330  -14.6180   -9.6150 H   0  0  0  0  0  0  0  0  0  0  0  0
  -12.3785  -16.8496   -5.3352 H   0  0  0  0  0  0  0  0  0  0  0  0
  -13.7329  -17.4025   -3.3244 H   0  0  0  0  0  0  0  0  0  0  0  0
  -16.2214  -17.4967   -3.4756 H   0  0  0  0  0  0  0  0  0  0  0  0
  -17.3470  -17.0262   -5.6521 H   0  0  0  0  0  0  0  0  0  0  0  0
  -15.9919  -16.4714   -7.6646 H   0  0  0  0  0  0  0  0  0  0  0  0
  1  2  1  0
  2  3  2  0
  3  4  1  0
  4  5  1  0
  4  6  2  0
  6  7  1  0
  7  8  2  0
  8  9  1  0
  9 10  2  0
 10 11  1  0
 11 12  2  0
  6 13  1  0
 13  2  1  0
 12  7  1  0
  1 14  1  0
  1 15  1  0
  8 16  1  0
  9 17  1  0
 10 18  1  0
 11 19  1  0
 12 20  1  0
M  CHG  1   5  -1
M  END
>  <meeko>  (4) 
{"is_sidechain": [false], "free_energy": -5.534, "intermolecular_energy": -6.013, "internal_energy": -0.145}

$$$$
LIB_HDOVLPFABNJQJO__M_PUB_ALL__e8__s20260927
     RDKit          3D

 20 21  0  0  0  0  0  0  0  0999 V2000
   18.3370  -10.6810   16.4280 N   0  0  0  0  0  0  0  0  0  0  0  0
   18.2430   -9.9440   15.3220 C   0  0  0  0  0  0  0  0  0  0  0  0
   19.1620   -9.2030   14.7650 N   0  0  0  0  0  0  0  0  0  0  0  0
   18.5210   -8.6840   13.6740 C   0  0  0  0  0  0  0  0  0  0  0  0
   19.1690   -7.8130   12.7830 O   0  0  0  0  0  0  0  0  0  0  0  0
   17.2120   -9.1330   13.6000 C   0  0  0  0  0  0  0  0  0  0  0  0
   16.0450   -8.9700   12.7290 C   0  0  0  0  0  0  0  0  0  0  0  0
   15.2550  -10.0660   12.3560 C   0  0  0  0  0  0  0  0  0  0  0  0
   14.1410   -9.9100   11.5250 C   0  0  0  0  0  0  0  0  0  0  0  0
   13.7970   -8.6490   11.0470 C   0  0  0  0  0  0  0  0  0  0  0  0
   14.5670   -7.5450   11.4020 C   0  0  0  0  0  0  0  0  0  0  0  0
   15.6800   -7.7060   12.2350 C   0  0  0  0  0  0  0  0  0  0  0  0
   17.0390   -9.9630   14.6910 O   0  0  0  0  0  0  0  0  0  0  0  0
   17.5340  -11.1500   16.8070 H   0  0  0  0  0  0  0  0  0  0  0  0
   19.2370  -10.7570   16.8750 H   0  0  0  0  0  0  0  0  0  0  0  0
   15.5164  -11.0690   12.7243 H   0  0  0  0  0  0  0  0  0  0  0  0
   13.5355  -10.7857   11.2486 H   0  0  0  0  0  0  0  0  0  0  0  0
   12.9216   -8.5254   10.3924 H   0  0  0  0  0  0  0  0  0  0  0  0
   14.3005   -6.5456   11.0276 H   0  0  0  0  0  0  0  0  0  0  0  0
   16.2808   -6.8261   12.5084 H   0  0  0  0  0  0  0  0  0  0  0  0
  1  2  1  0
  2  3  2  0
  3  4  1  0
  4  5  1  0
  4  6  2  0
  6  7  1  0
  7  8  2  0
  8  9  1  0
  9 10  2  0
 10 11  1  0
 11 12  2  0
  6 13  1  0
 13  2  1  0
 12  7  1  0
  1 14  1  0
  1 15  1  0
  8 16  1  0
  9 17  1  0
 10 18  1  0
 11 19  1  0
 12 20  1  0
M  CHG  1   5  -1
M  END
>  <meeko>  (5) 
{"is_sidechain": [false], "free_energy": -5.42, "intermolecular_energy": -5.89, "internal_energy": -0.144}

$$$$
LIB_HDOVLPFABNJQJO__M_PUB_ALL__e8__s20260927
     RDKit          3D

 20 21  0  0  0  0  0  0  0  0999 V2000
   -7.5560  -16.3510   -6.2710 N   0  0  0  0  0  0  0  0  0  0  0  0
   -8.6140  -16.0910   -7.0370 C   0  0  0  0  0  0  0  0  0  0  0  0
   -9.8790  -16.2340   -6.7440 N   0  0  0  0  0  0  0  0  0  0  0  0
  -10.5090  -15.8220   -7.8860 C   0  0  0  0  0  0  0  0  0  0  0  0
  -11.9090  -15.8180   -7.9950 O   0  0  0  0  0  0  0  0  0  0  0  0
   -9.5950  -15.4350   -8.8530 C   0  0  0  0  0  0  0  0  0  0  0  0
   -9.6020  -14.9190  -10.2240 C   0  0  0  0  0  0  0  0  0  0  0  0
  -10.1280  -15.6710  -11.2830 C   0  0  0  0  0  0  0  0  0  0  0  0
  -10.1340  -15.1780  -12.5920 C   0  0  0  0  0  0  0  0  0  0  0  0
   -9.6110  -13.9180  -12.8670 C   0  0  0  0  0  0  0  0  0  0  0  0
   -9.0820  -13.1510  -11.8320 C   0  0  0  0  0  0  0  0  0  0  0  0
   -9.0790  -13.6490  -10.5240 C   0  0  0  0  0  0  0  0  0  0  0  0
   -8.3490  -15.6150   -8.2830 O   0  0  0  0  0  0  0  0  0  0  0  0
   -6.7250  -16.7580   -6.6580 H   0  0  0  0  0  0  0  0  0  0  0  0
   -7.6130  -16.1280   -5.2890 H   0  0  0  0  0  0  0  0  0  0  0  0
  -10.5445  -16.6688  -11.0809 H   0  0  0  0  0  0  0  0  0  0  0  0
  -10.5531  -15.7877  -13.4060 H   0  0  0  0  0  0  0  0  0  0  0  0
   -9.6154  -13.5300  -13.8963 H   0  0  0  0  0  0  0  0  0  0  0  0
   -8.6668  -12.1543  -12.0424 H   0  0  0  0  0  0  0  0  0  0  0  0
   -8.6589  -13.0342   -9.7143 H   0  0  0  0  0  0  0  0  0  0  0  0
  1  2  1  0
  2  3  2  0
  3  4  1  0
  4  5  1  0
  4  6  2  0
  6  7  1  0
  7  8  2  0
  8  9  1  0
  9 10  2  0
 10 11  1  0
 11 12  2  0
  6 13  1  0
 13  2  1  0
 12  7  1  0
  1 14  1  0
  1 15  1  0
  8 16  1  0
  9 17  1  0
 10 18  1  0
 11 19  1  0
 12 20  1  0
M  CHG  1   5  -1
M  END
>  <meeko>  (6) 
{"is_sidechain": [false], "free_energy": -5.338, "intermolecular_energy": -5.802, "internal_energy": -0.143}

$$$$
LIB_HDOVLPFABNJQJO__M_PUB_ALL__e8__s20260927
     RDKit          3D

 20 21  0  0  0  0  0  0  0  0999 V2000
    9.3160  -12.2140    1.2560 N   0  0  0  0  0  0  0  0  0  0  0  0
   10.4790  -11.8780    0.6990 C   0  0  0  0  0  0  0  0  0  0  0  0
   11.3430  -10.9890    1.1080 N   0  0  0  0  0  0  0  0  0  0  0  0
   12.3330  -11.0660    0.1680 C   0  0  0  0  0  0  0  0  0  0  0  0
   13.4780  -10.2560    0.2350 O   0  0  0  0  0  0  0  0  0  0  0  0
   12.0350  -12.0130   -0.7990 C   0  0  0  0  0  0  0  0  0  0  0  0
   12.6370  -12.5620   -2.0170 C   0  0  0  0  0  0  0  0  0  0  0  0
   12.3310  -13.8550   -2.4620 C   0  0  0  0  0  0  0  0  0  0  0  0
   12.9060  -14.3790   -3.6250 C   0  0  0  0  0  0  0  0  0  0  0  0
   13.8020  -13.6160   -4.3670 C   0  0  0  0  0  0  0  0  0  0  0  0
   14.1230  -12.3280   -3.9450 C   0  0  0  0  0  0  0  0  0  0  0  0
   13.5440  -11.8080   -2.7810 C   0  0  0  0  0  0  0  0  0  0  0  0
   10.8120  -12.5420   -0.4390 O   0  0  0  0  0  0  0  0  0  0  0  0
    9.1900  -13.1110    1.6880 H   0  0  0  0  0  0  0  0  0  0  0  0
    8.5640  -11.5430    1.2310 H   0  0  0  0  0  0  0  0  0  0  0  0
   11.6246  -14.4704   -1.8855 H   0  0  0  0  0  0  0  0  0  0  0  0
   12.6489  -15.3969   -3.9535 H   0  0  0  0  0  0  0  0  0  0  0  0
   14.2542  -14.0274   -5.2815 H   0  0  0  0  0  0  0  0  0  0  0  0
   14.8314  -11.7193   -4.5262 H   0  0  0  0  0  0  0  0  0  0  0  0
   13.8042  -10.7891   -2.4582 H   0  0  0  0  0  0  0  0  0  0  0  0
  1  2  1  0
  2  3  2  0
  3  4  1  0
  4  5  1  0
  4  6  2  0
  6  7  1  0
  7  8  2  0
  8  9  1  0
  9 10  2  0
 10 11  1  0
 11 12  2  0
  6 13  1  0
 13  2  1  0
 12  7  1  0
  1 14  1  0
  1 15  1  0
  8 16  1  0
  9 17  1  0
 10 18  1  0
 11 19  1  0
 12 20  1  0
M  CHG  1   5  -1
M  END
>  <meeko>  (7) 
{"is_sidechain": [false], "free_energy": -5.205, "intermolecular_energy": -5.689, "internal_energy": -0.111}

$$$$
LIB_HDOVLPFABNJQJO__M_PUB_ALL__e8__s20260927
     RDKit          3D

 20 21  0  0  0  0  0  0  0  0999 V2000
   15.2400   -6.1600   11.1240 N   0  0  0  0  0  0  0  0  0  0  0  0
   15.5180   -7.3650   11.6190 C   0  0  0  0  0  0  0  0  0  0  0  0
   16.6500   -7.7970   12.1050 N   0  0  0  0  0  0  0  0  0  0  0  0
   16.3620   -9.0860   12.4600 C   0  0  0  0  0  0  0  0  0  0  0  0
   17.3290   -9.9260   13.0360 O   0  0  0  0  0  0  0  0  0  0  0  0
   15.0430   -9.4030   12.1750 C   0  0  0  0  0  0  0  0  0  0  0  0
   14.1400  -10.5500   12.2990 C   0  0  0  0  0  0  0  0  0  0  0  0
   12.9840  -10.4860   13.0870 C   0  0  0  0  0  0  0  0  0  0  0  0
   12.1220  -11.5810   13.2050 C   0  0  0  0  0  0  0  0  0  0  0  0
   12.4040  -12.7680   12.5350 C   0  0  0  0  0  0  0  0  0  0  0  0
   13.5480  -12.8570   11.7460 C   0  0  0  0  0  0  0  0  0  0  0  0
   14.4070  -11.7580   11.6310 C   0  0  0  0  0  0  0  0  0  0  0  0
   14.4960   -8.2620   11.6220 O   0  0  0  0  0  0  0  0  0  0  0  0
   14.4500   -5.6350   11.4530 H   0  0  0  0  0  0  0  0  0  0  0  0
   15.8440   -5.7890   10.4080 H   0  0  0  0  0  0  0  0  0  0  0  0
   12.7492   -9.5553   13.6242 H   0  0  0  0  0  0  0  0  0  0  0  0
   11.2192  -11.5040   13.8287 H   0  0  0  0  0  0  0  0  0  0  0  0
   11.7275  -13.6303   12.6282 H   0  0  0  0  0  0  0  0  0  0  0  0
   13.7767  -13.7916   11.2128 H   0  0  0  0  0  0  0  0  0  0  0  0
   15.3084  -11.8410   11.0060 H   0  0  0  0  0  0  0  0  0  0  0  0
  1  2  1  0
  2  3  2  0
  3  4  1  0
  4  5  1  0
  4  6  2  0
  6  7  1  0
  7  8  2  0
  8  9  1  0
  9 10  2  0
 10 11  1  0
 11 12  2  0
  6 13  1  0
 13  2  1  0
 12  7  1  0
  1 14  1  0
  1 15  1  0
  8 16  1  0
  9 17  1  0
 10 18  1  0
 11 19  1  0
 12 20  1  0
M  CHG  1   5  -1
M  END
>  <meeko>  (8) 
{"is_sidechain": [false], "free_energy": -5.179, "intermolecular_energy": -5.628, "internal_energy": -0.143}

$$$$
LIB_HDOVLPFABNJQJO__M_PUB_ALL__e8__s20260927
     RDKit          3D

 20 21  0  0  0  0  0  0  0  0999 V2000
   15.4380   -3.4870   12.9340 N   0  0  0  0  0  0  0  0  0  0  0  0
   16.0420   -4.6130   12.5590 C   0  0  0  0  0  0  0  0  0  0  0  0
   17.2890   -4.7830   12.2080 N   0  0  0  0  0  0  0  0  0  0  0  0
   17.3510   -6.1200   11.9300 C   0  0  0  0  0  0  0  0  0  0  0  0
   18.5430   -6.7300   11.5060 O   0  0  0  0  0  0  0  0  0  0  0  0
   16.1230   -6.7320   12.1220 C   0  0  0  0  0  0  0  0  0  0  0  0
   15.5350   -8.0700   12.0100 C   0  0  0  0  0  0  0  0  0  0  0  0
   16.1700   -9.1930   12.5540 C   0  0  0  0  0  0  0  0  0  0  0  0
   15.6090  -10.4700   12.4470 C   0  0  0  0  0  0  0  0  0  0  0  0
   14.3960  -10.6470   11.7880 C   0  0  0  0  0  0  0  0  0  0  0  0
   13.7450   -9.5450   11.2370 C   0  0  0  0  0  0  0  0  0  0  0  0
   14.3110   -8.2700   11.3480 C   0  0  0  0  0  0  0  0  0  0  0  0
   15.2680   -5.7300   12.5370 O   0  0  0  0  0  0  0  0  0  0  0  0
   15.7330   -2.5970   12.5760 H   0  0  0  0  0  0  0  0  0  0  0  0
   14.6750   -3.5520   13.5900 H   0  0  0  0  0  0  0  0  0  0  0  0
   17.1300   -9.0686   13.0764 H   0  0  0  0  0  0  0  0  0  0  0  0
   16.1275  -11.3358   12.8845 H   0  0  0  0  0  0  0  0  0  0  0  0
   13.9539  -11.6506   11.7026 H   0  0  0  0  0  0  0  0  0  0  0  0
   12.7860   -9.6773   10.7147 H   0  0  0  0  0  0  0  0  0  0  0  0
   13.7881   -7.4076   10.9088 H   0  0  0  0  0  0  0  0  0  0  0  0
  1  2  1  0
  2  3  2  0
  3  4  1  0
  4  5  1  0
  4  6  2  0
  6  7  1  0
  7  8  2  0
  8  9  1  0
  9 10  2  0
 10 11  1  0
 11 12  2  0
  6 13  1  0
 13  2  1  0
 12  7  1  0
  1 14  1  0
  1 15  1  0
  8 16  1  0
  9 17  1  0
 10 18  1  0
 11 19  1  0
 12 20  1  0
M  CHG  1   5  -1
M  END
>  <meeko>  (9) 
{"is_sidechain": [false], "free_energy": -5.155, "intermolecular_energy": -5.599, "internal_energy": -0.147}

$$$$
