LIB_BUROQFHRHNMPDU__M_PUB_ALL__e8__s20260927
     RDKit          3D

 32 34  0  0  0  0  0  0  0  0999 V2000
   10.3300  -12.3880  -11.2980 N   0  0  0  0  0  0  0  0  0  0  0  0
   10.7120  -11.0650  -11.1860 C   0  0  0  0  0  0  0  0  0  0  0  0
   11.8910  -10.7170  -10.5300 C   0  0  0  0  0  0  0  0  0  0  0  0
   12.2570   -9.3730  -10.3840 C   0  0  0  0  0  0  0  0  0  0  0  0
   11.4470   -8.3390  -10.8740 C   0  0  0  0  0  0  0  0  0  0  0  0
   11.8940   -7.0160  -10.7250 N   0  0  0  0  0  0  0  0  0  0  0  0
   11.8470   -5.9490  -11.5570 C   0  0  0  0  0  0  0  0  0  0  0  0
   10.7190   -5.2950  -11.7380 N   0  0  0  0  0  0  0  0  0  0  0  0
   10.8880   -4.2100  -12.5850 C   0  0  0  0  0  0  0  0  0  0  0  0
    9.7560   -3.3570  -12.9450 C   0  0  0  0  0  0  0  0  0  0  0  0
    8.4300   -3.7060  -12.6480 C   0  0  0  0  0  0  0  0  0  0  0  0
    7.3720   -2.8640  -13.0090 C   0  0  0  0  0  0  0  0  0  0  0  0
    7.6320   -1.6660  -13.6710 C   0  0  0  0  0  0  0  0  0  0  0  0
    6.3300   -0.6320  -14.1130 Cl  0  0  0  0  0  0  0  0  0  0  0  0
    8.9400   -1.3040  -13.9790 C   0  0  0  0  0  0  0  0  0  0  0  0
    9.9950   -2.1480  -13.6190 C   0  0  0  0  0  0  0  0  0  0  0  0
   12.1790   -4.0410  -13.0400 C   0  0  0  0  0  0  0  0  0  0  0  0
   13.1940   -5.2450  -12.3740 S   0  0  0  0  0  0  0  0  0  0  0  0
   10.2600   -8.6980  -11.5160 C   0  0  0  0  0  0  0  0  0  0  0  0
    9.8930  -10.0440  -11.6600 C   0  0  0  0  0  0  0  0  0  0  0  0
   10.2560  -12.8230  -12.2070 H   0  0  0  0  0  0  0  0  0  0  0  0
    9.9310  -12.8720  -10.5050 H   0  0  0  0  0  0  0  0  0  0  0  0
   12.5407  -11.5057  -10.1228 H   0  0  0  0  0  0  0  0  0  0  0  0
   13.1994   -9.1236   -9.8744 H   0  0  0  0  0  0  0  0  0  0  0  0
   12.2760   -6.8130   -9.8090 H   0  0  0  0  0  0  0  0  0  0  0  0
    8.2197   -4.6512  -12.1260 H   0  0  0  0  0  0  0  0  0  0  0  0
    6.3364   -3.1477  -12.7703 H   0  0  0  0  0  0  0  0  0  0  0  0
    9.1429   -0.3584  -14.5031 H   0  0  0  0  0  0  0  0  0  0  0  0
   11.0275   -1.8610  -13.8673 H   0  0  0  0  0  0  0  0  0  0  0  0
   12.5070   -3.2490  -13.7292 H   0  0  0  0  0  0  0  0  0  0  0  0
    9.6020   -7.9122  -11.9154 H   0  0  0  0  0  0  0  0  0  0  0  0
    8.9437  -10.2967  -12.1549 H   0  0  0  0  0  0  0  0  0  0  0  0
  1  2  1  0
  2  3  2  0
  3  4  1  0
  4  5  2  0
  5  6  1  0
  6  7  1  0
  7  8  2  0
  8  9  1  0
  9 10  1  0
 10 11  2  0
 11 12  1  0
 12 13  2  0
 13 14  1  0
 13 15  1  0
 15 16  2  0
  9 17  2  0
 17 18  1  0
  5 19  1  0
 19 20  2  0
 20  2  1  0
 18  7  1  0
 16 10  1  0
  1 21  1  0
  1 22  1  0
  3 23  1  0
  4 24  1  0
  6 25  1  0
 11 26  1  0
 12 27  1  0
 15 28  1  0
 16 29  1  0
 17 30  1  0
 19 31  1  0
 20 32  1  0
M  END
>  <meeko>  (1) 
{"is_sidechain": [false], "free_energy": -7.264, "intermolecular_energy": -8.75, "internal_energy": -0.279}

$$$$
LIB_BUROQFHRHNMPDU__M_PUB_ALL__e8__s20260927
     RDKit          3D

 32 34  0  0  0  0  0  0  0  0999 V2000
  -16.0140  -17.4730   -3.6570 N   0  0  0  0  0  0  0  0  0  0  0  0
  -15.2240  -17.1640   -4.7480 C   0  0  0  0  0  0  0  0  0  0  0  0
  -15.7860  -17.0090   -6.0130 C   0  0  0  0  0  0  0  0  0  0  0  0
  -14.9790  -16.7340   -7.1240 C   0  0  0  0  0  0  0  0  0  0  0  0
  -13.5860  -16.6230   -7.0040 C   0  0  0  0  0  0  0  0  0  0  0  0
  -12.8430  -16.3090   -8.1540 N   0  0  0  0  0  0  0  0  0  0  0  0
  -12.1450  -15.2030   -8.5020 C   0  0  0  0  0  0  0  0  0  0  0  0
  -12.6240  -14.0040   -8.2420 N   0  0  0  0  0  0  0  0  0  0  0  0
  -11.7430  -13.0060   -8.6310 C   0  0  0  0  0  0  0  0  0  0  0  0
  -12.0850  -11.5950   -8.4570 C   0  0  0  0  0  0  0  0  0  0  0  0
  -12.1300  -10.6970   -9.5340 C   0  0  0  0  0  0  0  0  0  0  0  0
  -12.4620   -9.3520   -9.3290 C   0  0  0  0  0  0  0  0  0  0  0  0
  -12.7490   -8.8960   -8.0450 C   0  0  0  0  0  0  0  0  0  0  0  0
  -13.1560   -7.2430   -7.7950 Cl  0  0  0  0  0  0  0  0  0  0  0  0
  -12.7040   -9.7700   -6.9630 C   0  0  0  0  0  0  0  0  0  0  0  0
  -12.3710  -11.1120   -7.1700 C   0  0  0  0  0  0  0  0  0  0  0  0
  -10.5690  -13.4710   -9.1860 C   0  0  0  0  0  0  0  0  0  0  0  0
  -10.5640  -15.1810   -9.1940 S   0  0  0  0  0  0  0  0  0  0  0  0
  -13.0320  -16.7960   -5.7340 C   0  0  0  0  0  0  0  0  0  0  0  0
  -13.8400  -17.0730   -4.6230 C   0  0  0  0  0  0  0  0  0  0  0  0
  -16.9620  -17.1280   -3.5990 H   0  0  0  0  0  0  0  0  0  0  0  0
  -15.6000  -17.8700   -2.8240 H   0  0  0  0  0  0  0  0  0  0  0  0
  -16.8745  -17.1035   -6.1406 H   0  0  0  0  0  0  0  0  0  0  0  0
  -15.4471  -16.6024   -8.1107 H   0  0  0  0  0  0  0  0  0  0  0  0
  -12.7780  -17.0690   -8.8210 H   0  0  0  0  0  0  0  0  0  0  0  0
  -11.9022  -11.0529  -10.5496 H   0  0  0  0  0  0  0  0  0  0  0  0
  -12.4960   -8.6569  -10.1809 H   0  0  0  0  0  0  0  0  0  0  0  0
  -12.9294   -9.4066   -5.9495 H   0  0  0  0  0  0  0  0  0  0  0  0
  -12.3325  -11.7994   -6.3121 H   0  0  0  0  0  0  0  0  0  0  0  0
   -9.7560  -12.8356   -9.5672 H   0  0  0  0  0  0  0  0  0  0  0  0
  -11.9429  -16.7135   -5.6034 H   0  0  0  0  0  0  0  0  0  0  0  0
  -13.3741  -17.2207   -3.6376 H   0  0  0  0  0  0  0  0  0  0  0  0
  1  2  1  0
  2  3  2  0
  3  4  1  0
  4  5  2  0
  5  6  1  0
  6  7  1  0
  7  8  2  0
  8  9  1  0
  9 10  1  0
 10 11  2  0
 11 12  1  0
 12 13  2  0
 13 14  1  0
 13 15  1  0
 15 16  2  0
  9 17  2  0
 17 18  1  0
  5 19  1  0
 19 20  2  0
 20  2  1  0
 18  7  1  0
 16 10  1  0
  1 21  1  0
  1 22  1  0
  3 23  1  0
  4 24  1  0
  6 25  1  0
 11 26  1  0
 12 27  1  0
 15 28  1  0
 16 29  1  0
 17 30  1  0
 19 31  1  0
 20 32  1  0
M  END
>  <meeko>  (2) 
{"is_sidechain": [false], "free_energy": -6.717, "intermolecular_energy": -7.983, "internal_energy": -0.387}

$$$$
LIB_BUROQFHRHNMPDU__M_PUB_ALL__e8__s20260927
     RDKit          3D

 32 34  0  0  0  0  0  0  0  0999 V2000
    4.0920   -5.2810   15.0570 N   0  0  0  0  0  0  0  0  0  0  0  0
    5.3780   -5.6520   14.7130 C   0  0  0  0  0  0  0  0  0  0  0  0
    6.4320   -5.4790   15.6070 C   0  0  0  0  0  0  0  0  0  0  0  0
    7.7410   -5.8180   15.2420 C   0  0  0  0  0  0  0  0  0  0  0  0
    8.0350   -6.3250   13.9680 C   0  0  0  0  0  0  0  0  0  0  0  0
    9.3630   -6.6790   13.6830 N   0  0  0  0  0  0  0  0  0  0  0  0
   10.0080   -7.8680   13.7260 C   0  0  0  0  0  0  0  0  0  0  0  0
   11.3000   -7.9340   13.4750 N   0  0  0  0  0  0  0  0  0  0  0  0
   11.7820   -9.2270   13.6160 C   0  0  0  0  0  0  0  0  0  0  0  0
   13.1880   -9.5340   13.3610 C   0  0  0  0  0  0  0  0  0  0  0  0
   13.5930  -10.3850   12.3210 C   0  0  0  0  0  0  0  0  0  0  0  0
   14.9500  -10.6560   12.1070 C   0  0  0  0  0  0  0  0  0  0  0  0
   15.9120  -10.0800   12.9330 C   0  0  0  0  0  0  0  0  0  0  0  0
   17.5780  -10.4140   12.6680 Cl  0  0  0  0  0  0  0  0  0  0  0  0
   15.5310   -9.2370   13.9730 C   0  0  0  0  0  0  0  0  0  0  0  0
   14.1750   -8.9690   14.1860 C   0  0  0  0  0  0  0  0  0  0  0  0
   10.8290  -10.1500   13.9940 C   0  0  0  0  0  0  0  0  0  0  0  0
    9.3170   -9.3770   14.1990 S   0  0  0  0  0  0  0  0  0  0  0  0
    6.9730   -6.4800   13.0750 C   0  0  0  0  0  0  0  0  0  0  0  0
    5.6630   -6.1370   13.4390 C   0  0  0  0  0  0  0  0  0  0  0  0
    3.6740   -4.4530   14.6550 H   0  0  0  0  0  0  0  0  0  0  0  0
    3.6330   -5.7090   15.8500 H   0  0  0  0  0  0  0  0  0  0  0  0
    6.2343   -5.0721   16.6097 H   0  0  0  0  0  0  0  0  0  0  0  0
    8.5551   -5.6838   15.9695 H   0  0  0  0  0  0  0  0  0  0  0  0
    9.9270   -5.9130   13.3350 H   0  0  0  0  0  0  0  0  0  0  0  0
   12.8366  -10.8438   11.6673 H   0  0  0  0  0  0  0  0  0  0  0  0
   15.2558  -11.3230   11.2875 H   0  0  0  0  0  0  0  0  0  0  0  0
   16.2928   -8.7837   14.6243 H   0  0  0  0  0  0  0  0  0  0  0  0
   13.8768   -8.3061   15.0116 H   0  0  0  0  0  0  0  0  0  0  0  0
   11.0141  -11.2242   14.1417 H   0  0  0  0  0  0  0  0  0  0  0  0
    7.1674   -6.8782   12.0682 H   0  0  0  0  0  0  0  0  0  0  0  0
    4.8491   -6.2526   12.7081 H   0  0  0  0  0  0  0  0  0  0  0  0
  1  2  1  0
  2  3  2  0
  3  4  1  0
  4  5  2  0
  5  6  1  0
  6  7  1  0
  7  8  2  0
  8  9  1  0
  9 10  1  0
 10 11  2  0
 11 12  1  0
 12 13  2  0
 13 14  1  0
 13 15  1  0
 15 16  2  0
  9 17  2  0
 17 18  1  0
  5 19  1  0
 19 20  2  0
 20  2  1  0
 18  7  1  0
 16 10  1  0
  1 21  1  0
  1 22  1  0
  3 23  1  0
  4 24  1  0
  6 25  1  0
 11 26  1  0
 12 27  1  0
 15 28  1  0
 16 29  1  0
 17 30  1  0
 19 31  1  0
 20 32  1  0
M  END
>  <meeko>  (3) 
{"is_sidechain": [false], "free_energy": -6.602, "intermolecular_energy": -7.916, "internal_energy": -0.316}

$$$$
LIB_BUROQFHRHNMPDU__M_PUB_ALL__e8__s20260927
     RDKit          3D

 32 34  0  0  0  0  0  0  0  0999 V2000
   12.7840   -3.1060  -14.0490 N   0  0  0  0  0  0  0  0  0  0  0  0
   12.3460   -4.1720  -13.2870 C   0  0  0  0  0  0  0  0  0  0  0  0
   11.6230   -3.9600  -12.1150 C   0  0  0  0  0  0  0  0  0  0  0  0
   11.2140   -5.0410  -11.3240 C   0  0  0  0  0  0  0  0  0  0  0  0
   11.5300   -6.3620  -11.6730 C   0  0  0  0  0  0  0  0  0  0  0  0
   11.0560   -7.3990  -10.8530 N   0  0  0  0  0  0  0  0  0  0  0  0
   10.9680   -8.7350  -11.0480 C   0  0  0  0  0  0  0  0  0  0  0  0
   11.9550   -9.5270  -10.6840 N   0  0  0  0  0  0  0  0  0  0  0  0
   11.6560  -10.8600  -10.9230 C   0  0  0  0  0  0  0  0  0  0  0  0
   12.6230  -11.9120  -10.6150 C   0  0  0  0  0  0  0  0  0  0  0  0
   12.5590  -12.6670   -9.4340 C   0  0  0  0  0  0  0  0  0  0  0  0
   13.5050  -13.6670   -9.1730 C   0  0  0  0  0  0  0  0  0  0  0  0
   14.5220  -13.9170  -10.0910 C   0  0  0  0  0  0  0  0  0  0  0  0
   15.6820  -15.1450   -9.7680 Cl  0  0  0  0  0  0  0  0  0  0  0  0
   14.6060  -13.1760  -11.2650 C   0  0  0  0  0  0  0  0  0  0  0  0
   13.6610  -12.1770  -11.5230 C   0  0  0  0  0  0  0  0  0  0  0  0
   10.4080  -11.0710  -11.4710 C   0  0  0  0  0  0  0  0  0  0  0  0
    9.5940   -9.5800  -11.6610 S   0  0  0  0  0  0  0  0  0  0  0  0
   12.2680   -6.5610  -12.8410 C   0  0  0  0  0  0  0  0  0  0  0  0
   12.6800   -5.4790  -13.6310 C   0  0  0  0  0  0  0  0  0  0  0  0
   12.6230   -3.0920  -15.0460 H   0  0  0  0  0  0  0  0  0  0  0  0
   13.4340   -2.4360  -13.6610 H   0  0  0  0  0  0  0  0  0  0  0  0
   11.3711   -2.9341  -11.8081 H   0  0  0  0  0  0  0  0  0  0  0  0
   10.6327   -4.8499  -10.4099 H   0  0  0  0  0  0  0  0  0  0  0  0
   10.7730   -7.0950   -9.9280 H   0  0  0  0  0  0  0  0  0  0  0  0
   11.7580  -12.4718   -8.7057 H   0  0  0  0  0  0  0  0  0  0  0  0
   13.4445  -14.2537   -8.2445 H   0  0  0  0  0  0  0  0  0  0  0  0
   15.4116  -13.3744  -11.9873 H   0  0  0  0  0  0  0  0  0  0  0  0
   13.7322  -11.5905  -12.4508 H   0  0  0  0  0  0  0  0  0  0  0  0
    9.9971  -12.0538  -11.7453 H   0  0  0  0  0  0  0  0  0  0  0  0
   12.5307   -7.5845  -13.1467 H   0  0  0  0  0  0  0  0  0  0  0  0
   13.2762   -5.6654  -14.5364 H   0  0  0  0  0  0  0  0  0  0  0  0
  1  2  1  0
  2  3  2  0
  3  4  1  0
  4  5  2  0
  5  6  1  0
  6  7  1  0
  7  8  2  0
  8  9  1  0
  9 10  1  0
 10 11  2  0
 11 12  1  0
 12 13  2  0
 13 14  1  0
 13 15  1  0
 15 16  2  0
  9 17  2  0
 17 18  1  0
  5 19  1  0
 19 20  2  0
 20  2  1  0
 18  7  1  0
 16 10  1  0
  1 21  1  0
  1 22  1  0
  3 23  1  0
  4 24  1  0
  6 25  1  0
 11 26  1  0
 12 27  1  0
 15 28  1  0
 16 29  1  0
 17 30  1  0
 19 31  1  0
 20 32  1  0
M  END
>  <meeko>  (4) 
{"is_sidechain": [false], "free_energy": -6.515, "intermolecular_energy": -7.797, "internal_energy": -0.33}

$$$$
LIB_BUROQFHRHNMPDU__M_PUB_ALL__e8__s20260927
     RDKit          3D

 32 34  0  0  0  0  0  0  0  0999 V2000
   21.3330   -5.0240    9.2880 N   0  0  0  0  0  0  0  0  0  0  0  0
   20.3690   -5.6800   10.0290 C   0  0  0  0  0  0  0  0  0  0  0  0
   19.6540   -5.0110   11.0200 C   0  0  0  0  0  0  0  0  0  0  0  0
   18.7050   -5.6880   11.7970 C   0  0  0  0  0  0  0  0  0  0  0  0
   18.4570   -7.0560   11.6160 C   0  0  0  0  0  0  0  0  0  0  0  0
   17.4660   -7.6620   12.4050 N   0  0  0  0  0  0  0  0  0  0  0  0
   16.2010   -8.0530   12.1210 C   0  0  0  0  0  0  0  0  0  0  0  0
   15.8160   -9.2880   12.3640 N   0  0  0  0  0  0  0  0  0  0  0  0
   14.4770   -9.4770   12.0510 C   0  0  0  0  0  0  0  0  0  0  0  0
   13.8460  -10.7850   12.2200 C   0  0  0  0  0  0  0  0  0  0  0  0
   14.2100  -11.8990   11.4490 C   0  0  0  0  0  0  0  0  0  0  0  0
   13.5820  -13.1360   11.6390 C   0  0  0  0  0  0  0  0  0  0  0  0
   12.5840  -13.2660   12.6010 C   0  0  0  0  0  0  0  0  0  0  0  0
   11.8130  -14.7870   12.8340 Cl  0  0  0  0  0  0  0  0  0  0  0  0
   12.2040  -12.1720   13.3720 C   0  0  0  0  0  0  0  0  0  0  0  0
   12.8320  -10.9370   13.1790 C   0  0  0  0  0  0  0  0  0  0  0  0
   13.8430   -8.3500   11.5710 C   0  0  0  0  0  0  0  0  0  0  0  0
   14.9340   -7.0350   11.5390 S   0  0  0  0  0  0  0  0  0  0  0  0
   19.1900   -7.7200   10.6310 C   0  0  0  0  0  0  0  0  0  0  0  0
   20.1420   -7.0430    9.8550 C   0  0  0  0  0  0  0  0  0  0  0  0
   21.9920   -5.5480    8.7290 H   0  0  0  0  0  0  0  0  0  0  0  0
   21.5180   -4.0430    9.4480 H   0  0  0  0  0  0  0  0  0  0  0  0
   19.8364   -3.9403   11.1942 H   0  0  0  0  0  0  0  0  0  0  0  0
   18.1432   -5.1352   12.5644 H   0  0  0  0  0  0  0  0  0  0  0  0
   17.7710   -7.8920   13.3430 H   0  0  0  0  0  0  0  0  0  0  0  0
   14.9971  -11.7997   10.6871 H   0  0  0  0  0  0  0  0  0  0  0  0
   13.8765  -14.0031   11.0296 H   0  0  0  0  0  0  0  0  0  0  0  0
   11.4136  -12.2777   14.1297 H   0  0  0  0  0  0  0  0  0  0  0  0
   12.5270  -10.0727   13.7873 H   0  0  0  0  0  0  0  0  0  0  0  0
   12.7903   -8.3044   11.2553 H   0  0  0  0  0  0  0  0  0  0  0  0
   19.0179   -8.7930   10.4605 H   0  0  0  0  0  0  0  0  0  0  0  0
   20.7175   -7.5963    9.0983 H   0  0  0  0  0  0  0  0  0  0  0  0
  1  2  1  0
  2  3  2  0
  3  4  1  0
  4  5  2  0
  5  6  1  0
  6  7  1  0
  7  8  2  0
  8  9  1  0
  9 10  1  0
 10 11  2  0
 11 12  1  0
 12 13  2  0
 13 14  1  0
 13 15  1  0
 15 16  2  0
  9 17  2  0
 17 18  1  0
  5 19  1  0
 19 20  2  0
 20  2  1  0
 18  7  1  0
 16 10  1  0
  1 21  1  0
  1 22  1  0
  3 23  1  0
  4 24  1  0
  6 25  1  0
 11 26  1  0
 12 27  1  0
 15 28  1  0
 16 29  1  0
 17 30  1  0
 19 31  1  0
 20 32  1  0
M  END
>  <meeko>  (5) 
{"is_sidechain": [false], "free_energy": -6.479, "intermolecular_energy": -7.759, "internal_energy": -0.325}

$$$$
LIB_BUROQFHRHNMPDU__M_PUB_ALL__e8__s20260927
     RDKit          3D

 32 34  0  0  0  0  0  0  0  0999 V2000
   20.4610   -7.3510   10.2650 N   0  0  0  0  0  0  0  0  0  0  0  0
   19.1670   -7.2770   10.7430 C   0  0  0  0  0  0  0  0  0  0  0  0
   18.2640   -6.3570   10.2160 C   0  0  0  0  0  0  0  0  0  0  0  0
   16.9640   -6.2570   10.7290 C   0  0  0  0  0  0  0  0  0  0  0  0
   16.5360   -7.0640   11.7930 C   0  0  0  0  0  0  0  0  0  0  0  0
   15.2090   -6.9370   12.2320 N   0  0  0  0  0  0  0  0  0  0  0  0
   14.3600   -7.8220   12.8050 C   0  0  0  0  0  0  0  0  0  0  0  0
   14.2490   -9.0430   12.3260 N   0  0  0  0  0  0  0  0  0  0  0  0
   13.3680   -9.8090   13.0760 C   0  0  0  0  0  0  0  0  0  0  0  0
   13.0760  -11.1930   12.7070 C   0  0  0  0  0  0  0  0  0  0  0  0
   12.0050  -11.9070   13.2640 C   0  0  0  0  0  0  0  0  0  0  0  0
   11.7560  -13.2320   12.8860 C   0  0  0  0  0  0  0  0  0  0  0  0
   12.5790  -13.8530   11.9490 C   0  0  0  0  0  0  0  0  0  0  0  0
   12.2730  -15.4810   11.4860 Cl  0  0  0  0  0  0  0  0  0  0  0  0
   13.6500  -13.1640   11.3890 C   0  0  0  0  0  0  0  0  0  0  0  0
   13.8970  -11.8400   11.7700 C   0  0  0  0  0  0  0  0  0  0  0  0
   12.8150   -9.1450   14.1510 C   0  0  0  0  0  0  0  0  0  0  0  0
   13.4290   -7.5510   14.2330 S   0  0  0  0  0  0  0  0  0  0  0  0
   17.4550   -7.9720   12.3240 C   0  0  0  0  0  0  0  0  0  0  0  0
   18.7560   -8.0690   11.8120 C   0  0  0  0  0  0  0  0  0  0  0  0
   21.0220   -6.5150   10.1810 H   0  0  0  0  0  0  0  0  0  0  0  0
   20.7900   -8.1930    9.8120 H   0  0  0  0  0  0  0  0  0  0  0  0
   18.5746   -5.7021    9.3885 H   0  0  0  0  0  0  0  0  0  0  0  0
   16.2651   -5.5309   10.2883 H   0  0  0  0  0  0  0  0  0  0  0  0
   14.8360   -5.9980   12.1480 H   0  0  0  0  0  0  0  0  0  0  0  0
   11.3539  -11.4210   14.0055 H   0  0  0  0  0  0  0  0  0  0  0  0
   10.9120  -13.7817   13.3281 H   0  0  0  0  0  0  0  0  0  0  0  0
   14.2993  -13.6571   10.6506 H   0  0  0  0  0  0  0  0  0  0  0  0
   14.7468  -11.2986   11.3288 H   0  0  0  0  0  0  0  0  0  0  0  0
   12.0862   -9.5772   14.8525 H   0  0  0  0  0  0  0  0  0  0  0  0
   17.1525   -8.6220   13.1582 H   0  0  0  0  0  0  0  0  0  0  0  0
   19.4632   -8.7816   12.2615 H   0  0  0  0  0  0  0  0  0  0  0  0
  1  2  1  0
  2  3  2  0
  3  4  1  0
  4  5  2  0
  5  6  1  0
  6  7  1  0
  7  8  2  0
  8  9  1  0
  9 10  1  0
 10 11  2  0
 11 12  1  0
 12 13  2  0
 13 14  1  0
 13 15  1  0
 15 16  2  0
  9 17  2  0
 17 18  1  0
  5 19  1  0
 19 20  2  0
 20  2  1  0
 18  7  1  0
 16 10  1  0
  1 21  1  0
  1 22  1  0
  3 23  1  0
  4 24  1  0
  6 25  1  0
 11 26  1  0
 12 27  1  0
 15 28  1  0
 16 29  1  0
 17 30  1  0
 19 31  1  0
 20 32  1  0
M  END
>  <meeko>  (6) 
{"is_sidechain": [false], "free_energy": -6.451, "intermolecular_energy": -7.757, "internal_energy": -0.294}

$$$$
LIB_BUROQFHRHNMPDU__M_PUB_ALL__e8__s20260927
     RDKit          3D

 32 34  0  0  0  0  0  0  0  0999 V2000
   13.8610  -11.6040   -2.1250 N   0  0  0  0  0  0  0  0  0  0  0  0
   12.7690  -11.7280   -1.2890 C   0  0  0  0  0  0  0  0  0  0  0  0
   12.7200  -11.0470   -0.0740 C   0  0  0  0  0  0  0  0  0  0  0  0
   11.6290  -11.2060    0.7900 C   0  0  0  0  0  0  0  0  0  0  0  0
   10.5640  -12.0610    0.4710 C   0  0  0  0  0  0  0  0  0  0  0  0
    9.4860  -12.1430    1.3670 N   0  0  0  0  0  0  0  0  0  0  0  0
    8.1480  -12.1940    1.1660 C   0  0  0  0  0  0  0  0  0  0  0  0
    7.5000  -13.3340    1.2900 N   0  0  0  0  0  0  0  0  0  0  0  0
    6.1360  -13.1700    1.0930 C   0  0  0  0  0  0  0  0  0  0  0  0
    5.2270  -14.3130    1.1600 C   0  0  0  0  0  0  0  0  0  0  0  0
    3.8850  -14.1810    1.5470 C   0  0  0  0  0  0  0  0  0  0  0  0
    3.0440  -15.2990    1.6000 C   0  0  0  0  0  0  0  0  0  0  0  0
    3.5400  -16.5570    1.2690 C   0  0  0  0  0  0  0  0  0  0  0  0
    2.5050  -17.9300    1.3340 Cl  0  0  0  0  0  0  0  0  0  0  0  0
    4.8690  -16.7100    0.8880 C   0  0  0  0  0  0  0  0  0  0  0  0
    5.7080  -15.5920    0.8370 C   0  0  0  0  0  0  0  0  0  0  0  0
    5.7550  -11.8720    0.8250 C   0  0  0  0  0  0  0  0  0  0  0  0
    7.1210  -10.8440    0.8490 S   0  0  0  0  0  0  0  0  0  0  0  0
   10.6310  -12.7500   -0.7410 C   0  0  0  0  0  0  0  0  0  0  0  0
   11.7240  -12.5930   -1.6050 C   0  0  0  0  0  0  0  0  0  0  0  0
   13.9090  -12.1340   -2.9840 H   0  0  0  0  0  0  0  0  0  0  0  0
   14.7010  -11.1440   -1.8010 H   0  0  0  0  0  0  0  0  0  0  0  0
   13.5461  -10.3782    0.2092 H   0  0  0  0  0  0  0  0  0  0  0  0
   11.6071  -10.6488    1.7382 H   0  0  0  0  0  0  0  0  0  0  0  0
    9.7640  -12.2280    2.3380 H   0  0  0  0  0  0  0  0  0  0  0  0
    3.4896  -13.1892    1.8114 H   0  0  0  0  0  0  0  0  0  0  0  0
    1.9928  -15.1836    1.9027 H   0  0  0  0  0  0  0  0  0  0  0  0
    5.2583  -17.7054    0.6281 H   0  0  0  0  0  0  0  0  0  0  0  0
    6.7597  -15.7165    0.5396 H   0  0  0  0  0  0  0  0  0  0  0  0
    4.7236  -11.5459    0.6251 H   0  0  0  0  0  0  0  0  0  0  0  0
    9.8120  -13.4280   -1.0232 H   0  0  0  0  0  0  0  0  0  0  0  0
   11.7567  -13.1613   -2.5463 H   0  0  0  0  0  0  0  0  0  0  0  0
  1  2  1  0
  2  3  2  0
  3  4  1  0
  4  5  2  0
  5  6  1  0
  6  7  1  0
  7  8  2  0
  8  9  1  0
  9 10  1  0
 10 11  2  0
 11 12  1  0
 12 13  2  0
 13 14  1  0
 13 15  1  0
 15 16  2  0
  9 17  2  0
 17 18  1  0
  5 19  1  0
 19 20  2  0
 20  2  1  0
 18  7  1  0
 16 10  1  0
  1 21  1  0
  1 22  1  0
  3 23  1  0
  4 24  1  0
  6 25  1  0
 11 26  1  0
 12 27  1  0
 15 28  1  0
 16 29  1  0
 17 30  1  0
 19 31  1  0
 20 32  1  0
M  END
>  <meeko>  (7) 
{"is_sidechain": [false], "free_energy": -6.368, "intermolecular_energy": -7.613, "internal_energy": -0.337}

$$$$
LIB_BUROQFHRHNMPDU__M_PUB_ALL__e8__s20260927
     RDKit          3D

 32 34  0  0  0  0  0  0  0  0999 V2000
   -5.6530  -13.8640   10.1580 N   0  0  0  0  0  0  0  0  0  0  0  0
   -5.4990  -14.5820    8.9880 C   0  0  0  0  0  0  0  0  0  0  0  0
   -6.4280  -14.4690    7.9560 C   0  0  0  0  0  0  0  0  0  0  0  0
   -6.2910  -15.2280    6.7860 C   0  0  0  0  0  0  0  0  0  0  0  0
   -5.2310  -16.1320    6.6230 C   0  0  0  0  0  0  0  0  0  0  0  0
   -5.1360  -16.8320    5.4090 N   0  0  0  0  0  0  0  0  0  0  0  0
   -4.3290  -16.6670    4.3350 C   0  0  0  0  0  0  0  0  0  0  0  0
   -4.0720  -15.4600    3.8740 N   0  0  0  0  0  0  0  0  0  0  0  0
   -3.1910  -15.4980    2.8030 C   0  0  0  0  0  0  0  0  0  0  0  0
   -2.7870  -14.2700    2.1210 C   0  0  0  0  0  0  0  0  0  0  0  0
   -1.4680  -14.0470    1.6990 C   0  0  0  0  0  0  0  0  0  0  0  0
   -1.1180  -12.8570    1.0490 C   0  0  0  0  0  0  0  0  0  0  0  0
   -2.0840  -11.8810    0.8190 C   0  0  0  0  0  0  0  0  0  0  0  0
   -1.6520  -10.4200    0.0200 Cl  0  0  0  0  0  0  0  0  0  0  0  0
   -3.3970  -12.0810    1.2350 C   0  0  0  0  0  0  0  0  0  0  0  0
   -3.7440  -13.2700    1.8850 C   0  0  0  0  0  0  0  0  0  0  0  0
   -2.7700  -16.7670    2.4610 C   0  0  0  0  0  0  0  0  0  0  0  0
   -3.4690  -17.9180    3.5150 S   0  0  0  0  0  0  0  0  0  0  0  0
   -4.3150  -16.2480    7.6700 C   0  0  0  0  0  0  0  0  0  0  0  0
   -4.4540  -15.4910    8.8420 C   0  0  0  0  0  0  0  0  0  0  0  0
   -5.1850  -12.9760   10.2780 H   0  0  0  0  0  0  0  0  0  0  0  0
   -6.0630  -14.3000   10.9740 H   0  0  0  0  0  0  0  0  0  0  0  0
   -7.2770  -13.7775    8.0605 H   0  0  0  0  0  0  0  0  0  0  0  0
   -7.0297  -15.1125    5.9791 H   0  0  0  0  0  0  0  0  0  0  0  0
   -5.7490  -17.6360    5.3490 H   0  0  0  0  0  0  0  0  0  0  0  0
   -0.7010  -14.8144    1.8804 H   0  0  0  0  0  0  0  0  0  0  0  0
   -0.0810  -12.6935    0.7205 H   0  0  0  0  0  0  0  0  0  0  0  0
   -4.1581  -11.3079    1.0535 H   0  0  0  0  0  0  0  0  0  0  0  0
   -4.7817  -13.4238    2.2161 H   0  0  0  0  0  0  0  0  0  0  0  0
   -2.0858  -17.0032    1.6327 H   0  0  0  0  0  0  0  0  0  0  0  0
   -3.4697  -16.9453    7.5739 H   0  0  0  0  0  0  0  0  0  0  0  0
   -3.7271  -15.6169    9.6580 H   0  0  0  0  0  0  0  0  0  0  0  0
  1  2  1  0
  2  3  2  0
  3  4  1  0
  4  5  2  0
  5  6  1  0
  6  7  1  0
  7  8  2  0
  8  9  1  0
  9 10  1  0
 10 11  2  0
 11 12  1  0
 12 13  2  0
 13 14  1  0
 13 15  1  0
 15 16  2  0
  9 17  2  0
 17 18  1  0
  5 19  1  0
 19 20  2  0
 20  2  1  0
 18  7  1  0
 16 10  1  0
  1 21  1  0
  1 22  1  0
  3 23  1  0
  4 24  1  0
  6 25  1  0
 11 26  1  0
 12 27  1  0
 15 28  1  0
 16 29  1  0
 17 30  1  0
 19 31  1  0
 20 32  1  0
M  END
>  <meeko>  (8) 
{"is_sidechain": [false], "free_energy": -6.235, "intermolecular_energy": -7.397, "internal_energy": -0.393}

$$$$
LIB_BUROQFHRHNMPDU__M_PUB_ALL__e8__s20260927
     RDKit          3D

 32 34  0  0  0  0  0  0  0  0999 V2000
   13.8240  -11.0620   -1.0470 N   0  0  0  0  0  0  0  0  0  0  0  0
   12.5830  -11.6380   -0.8600 C   0  0  0  0  0  0  0  0  0  0  0  0
   11.9370  -11.5540    0.3710 C   0  0  0  0  0  0  0  0  0  0  0  0
   10.6960  -12.1720    0.5700 C   0  0  0  0  0  0  0  0  0  0  0  0
   10.0740  -12.9050   -0.4510 C   0  0  0  0  0  0  0  0  0  0  0  0
    8.8130  -13.4670   -0.1930 N   0  0  0  0  0  0  0  0  0  0  0  0
    7.5640  -12.9480   -0.2580 C   0  0  0  0  0  0  0  0  0  0  0  0
    6.7130  -13.3740   -1.1680 N   0  0  0  0  0  0  0  0  0  0  0  0
    5.4770  -12.7570   -1.0410 C   0  0  0  0  0  0  0  0  0  0  0  0
    4.3880  -13.0640   -1.9660 C   0  0  0  0  0  0  0  0  0  0  0  0
    3.1260  -12.4600   -1.8650 C   0  0  0  0  0  0  0  0  0  0  0  0
    2.1060  -12.7800   -2.7700 C   0  0  0  0  0  0  0  0  0  0  0  0
    2.3410  -13.7070   -3.7810 C   0  0  0  0  0  0  0  0  0  0  0  0
    1.0870  -14.0980   -4.8920 Cl  0  0  0  0  0  0  0  0  0  0  0  0
    3.5840  -14.3210   -3.8960 C   0  0  0  0  0  0  0  0  0  0  0  0
    4.6010  -14.0020   -2.9900 C   0  0  0  0  0  0  0  0  0  0  0  0
    5.3990  -11.8550   -0.0010 C   0  0  0  0  0  0  0  0  0  0  0  0
    6.8870  -11.8020    0.8400 S   0  0  0  0  0  0  0  0  0  0  0  0
   10.7380  -12.9960   -1.6760 C   0  0  0  0  0  0  0  0  0  0  0  0
   11.9810  -12.3790   -1.8740 C   0  0  0  0  0  0  0  0  0  0  0  0
   14.4290  -10.8850   -0.2570 H   0  0  0  0  0  0  0  0  0  0  0  0
   14.0590  -10.6340   -1.9330 H   0  0  0  0  0  0  0  0  0  0  0  0
   12.4062  -10.9967    1.1952 H   0  0  0  0  0  0  0  0  0  0  0  0
   10.1991  -12.0805    1.5471 H   0  0  0  0  0  0  0  0  0  0  0  0
    8.8420  -14.4530    0.0360 H   0  0  0  0  0  0  0  0  0  0  0  0
    2.9354  -11.7275   -1.0668 H   0  0  0  0  0  0  0  0  0  0  0  0
    1.1206  -12.2992   -2.6817 H   0  0  0  0  0  0  0  0  0  0  0  0
    3.7663  -15.0540   -4.6957 H   0  0  0  0  0  0  0  0  0  0  0  0
    5.5814  -14.4925   -3.0806 H   0  0  0  0  0  0  0  0  0  0  0  0
    4.5104  -11.2575    0.2506 H   0  0  0  0  0  0  0  0  0  0  0  0
   10.2778  -13.5615   -2.4997 H   0  0  0  0  0  0  0  0  0  0  0  0
   12.4884  -12.4816   -2.8446 H   0  0  0  0  0  0  0  0  0  0  0  0
  1  2  1  0
  2  3  2  0
  3  4  1  0
  4  5  2  0
  5  6  1  0
  6  7  1  0
  7  8  2  0
  8  9  1  0
  9 10  1  0
 10 11  2  0
 11 12  1  0
 12 13  2  0
 13 14  1  0
 13 15  1  0
 15 16  2  0
  9 17  2  0
 17 18  1  0
  5 19  1  0
 19 20  2  0
 20  2  1  0
 18  7  1  0
 16 10  1  0
  1 21  1  0
  1 22  1  0
  3 23  1  0
  4 24  1  0
  6 25  1  0
 11 26  1  0
 12 27  1  0
 15 28  1  0
 16 29  1  0
 17 30  1  0
 19 31  1  0
 20 32  1  0
M  END
>  <meeko>  (9) 
{"is_sidechain": [false], "free_energy": -6.118, "intermolecular_energy": -7.311, "internal_energy": -0.338}

$$$$
