LIB_UVJAYAHHKNFNAG__M_PUB_ALL__e8__s20260927
     RDKit          3D

 58 61  0  0  0  0  0  0  0  0999 V2000
   -4.5300  -10.9890   -0.5930 C   0  0  0  0  0  0  0  0  0  0  0  0
   -5.2840  -12.0710   -0.0580 O   0  0  0  0  0  0  0  0  0  0  0  0
   -4.6940  -12.8270    0.9120 C   0  0  0  0  0  0  0  0  0  0  0  0
   -3.7320  -13.7230    0.4460 C   0  0  0  0  0  0  0  0  0  0  0  0
   -3.0460  -14.5590    1.3290 C   0  0  0  0  0  0  0  0  0  0  0  0
   -3.3110  -14.5170    2.7060 C   0  0  0  0  0  0  0  0  0  0  0  0
   -2.5190  -15.4060    3.6370 C   0  0  2  0  0  0  0  0  0  0  0  0
   -1.0950  -15.7810    3.1600 C   0  0  1  0  0  0  0  0  0  0  0  0
   -0.0270  -14.6720    3.2430 C   0  0  0  0  0  0  0  0  0  0  0  0
   -0.3750  -13.3570    3.9610 C   0  0  0  0  0  0  0  0  0  0  0  0
   -0.7700  -12.2150    3.0630 C   0  0  0  0  0  0  0  0  0  0  0  0
   -0.4290  -12.2230    1.7030 C   0  0  0  0  0  0  0  0  0  0  0  0
   -0.7920  -11.1590    0.8750 C   0  0  0  0  0  0  0  0  0  0  0  0
   -1.5150  -10.0870    1.3910 C   0  0  0  0  0  0  0  0  0  0  0  0
   -1.8920  -10.0850    2.7310 C   0  0  0  0  0  0  0  0  0  0  0  0
   -1.5280  -11.1470    3.5620 C   0  0  0  0  0  0  0  0  0  0  0  0
   -0.7500  -17.0620    3.9280 C   0  0  0  0  0  0  0  0  0  0  0  0
   -2.0980  -17.6990    3.9660 C   0  0  0  0  0  0  0  0  0  0  0  0
   -2.3900  -18.8730    4.0310 O   0  0  0  0  0  0  0  0  0  0  0  0
   -3.1940  -16.7460    3.8480 N   0  0  0  0  0  0  0  0  0  0  0  0
   -4.1590  -16.7210    4.9490 C   0  0  0  0  0  0  0  0  0  0  0  0
   -3.7740  -16.3840    6.2470 C   0  0  0  0  0  0  0  0  0  0  0  0
   -4.7350  -16.3350    7.2590 C   0  0  0  0  0  0  0  0  0  0  0  0
   -6.0770  -16.6170    6.9890 C   0  0  0  0  0  0  0  0  0  0  0  0
   -6.9030  -16.5250    8.0700 O   0  0  0  0  0  0  0  0  0  0  0  0
   -6.7910  -17.5340    9.0680 C   0  0  0  0  0  0  0  0  0  0  0  0
   -6.4560  -16.9520    5.6890 C   0  0  0  0  0  0  0  0  0  0  0  0
   -5.4990  -17.0040    4.6680 C   0  0  0  0  0  0  0  0  0  0  0  0
   -4.2740  -13.6050    3.1690 C   0  0  0  0  0  0  0  0  0  0  0  0
   -4.9610  -12.7710    2.2770 C   0  0  0  0  0  0  0  0  0  0  0  0
   -4.1128  -10.3904    0.2302 H   0  0  0  0  0  0  0  0  0  0  0  0
   -3.7103  -11.3837   -1.2113 H   0  0  0  0  0  0  0  0  0  0  0  0
   -5.1841  -10.3567   -1.2113 H   0  0  0  0  0  0  0  0  0  0  0  0
   -3.5111  -13.7716   -0.6305 H   0  0  0  0  0  0  0  0  0  0  0  0
   -2.2901  -15.2577    0.9411 H   0  0  0  0  0  0  0  0  0  0  0  0
   -2.4618  -14.7846    4.5428 H   0  0  0  0  0  0  0  0  0  0  0  0
   -1.0922  -15.9397    2.0715 H   0  0  0  0  0  0  0  0  0  0  0  0
    0.8443  -15.1010    3.7595 H   0  0  0  0  0  0  0  0  0  0  0  0
    0.1234  -14.3703    2.1959 H   0  0  0  0  0  0  0  0  0  0  0  0
   -1.2128  -13.5557    4.6455 H   0  0  0  0  0  0  0  0  0  0  0  0
    0.5461  -13.0371    4.4702 H   0  0  0  0  0  0  0  0  0  0  0  0
    0.1288  -13.0741    1.2852 H   0  0  0  0  0  0  0  0  0  0  0  0
   -0.5061  -11.1678   -0.1872 H   0  0  0  0  0  0  0  0  0  0  0  0
   -1.7880   -9.2428    0.7408 H   0  0  0  0  0  0  0  0  0  0  0  0
   -2.4772   -9.2462    3.1359 H   0  0  0  0  0  0  0  0  0  0  0  0
   -1.8389  -11.1451    4.6171 H   0  0  0  0  0  0  0  0  0  0  0  0
   -0.0193  -17.6806    3.3864 H   0  0  0  0  0  0  0  0  0  0  0  0
   -0.2788  -16.9060    4.9097 H   0  0  0  0  0  0  0  0  0  0  0  0
   -3.6880  -17.0550    3.0060 H   0  0  0  0  0  0  0  0  0  0  0  0
   -2.7210  -16.1585    6.4716 H   0  0  0  0  0  0  0  0  0  0  0  0
   -4.4316  -16.0708    8.2828 H   0  0  0  0  0  0  0  0  0  0  0  0
   -6.8424  -17.0713   10.0646 H   0  0  0  0  0  0  0  0  0  0  0  0
   -7.6147  -18.2543    8.9553 H   0  0  0  0  0  0  0  0  0  0  0  0
   -5.8294  -18.0561    8.9553 H   0  0  0  0  0  0  0  0  0  0  0  0
   -7.5095  -17.1759    5.4653 H   0  0  0  0  0  0  0  0  0  0  0  0
   -5.8018  -17.2678    3.6439 H   0  0  0  0  0  0  0  0  0  0  0  0
   -4.4915  -13.5449    4.2456 H   0  0  0  0  0  0  0  0  0  0  0  0
   -5.7161  -12.0676    2.6578 H   0  0  0  0  0  0  0  0  0  0  0  0
  1  2  1  0
  2  3  1  0
  3  4  2  0
  4  5  1  0
  5  6  2  0
  6  7  1  0
  7  8  1  0
  8  9  1  0
  9 10  1  0
 10 11  1  0
 11 12  2  0
 12 13  1  0
 13 14  2  0
 14 15  1  0
 15 16  2  0
  8 17  1  0
 17 18  1  0
 18 19  2  0
 18 20  1  0
 20 21  1  0
 21 22  2  0
 22 23  1  0
 23 24  2  0
 24 25  1  0
 25 26  1  0
 24 27  1  0
 27 28  2  0
  6 29  1  0
 29 30  2  0
 30  3  1  0
 20  7  1  0
 28 21  1  0
 16 11  1  0
  1 31  1  0
  1 32  1  0
  1 33  1  0
  4 34  1  0
  5 35  1  0
  7 36  1  1
  8 37  1  6
  9 38  1  0
  9 39  1  0
 10 40  1  0
 10 41  1  0
 12 42  1  0
 13 43  1  0
 14 44  1  0
 15 45  1  0
 16 46  1  0
 17 47  1  0
 17 48  1  0
 20 49  1  0
 22 50  1  0
 23 51  1  0
 26 52  1  0
 26 53  1  0
 26 54  1  0
 27 55  1  0
 28 56  1  0
 29 57  1  0
 30 58  1  0
M  CHG  1  20   1
M  END
>  <meeko>  (1) 
{"is_sidechain": [false], "free_energy": -7.167, "intermolecular_energy": -10.1, "internal_energy": -3.215}

$$$$
LIB_UVJAYAHHKNFNAG__M_PUB_ALL__e8__s20260927
     RDKit          3D

 58 61  0  0  0  0  0  0  0  0999 V2000
  -13.6220   -8.6420   -6.4940 C   0  0  0  0  0  0  0  0  0  0  0  0
  -14.6150   -9.3740   -7.2040 O   0  0  0  0  0  0  0  0  0  0  0  0
  -14.2780  -10.6200   -7.6480 C   0  0  0  0  0  0  0  0  0  0  0  0
  -12.9690  -11.0040   -7.3630 C   0  0  0  0  0  0  0  0  0  0  0  0
  -12.4880  -12.2550   -7.7570 C   0  0  0  0  0  0  0  0  0  0  0  0
  -13.3140  -13.1520   -8.4510 C   0  0  0  0  0  0  0  0  0  0  0  0
  -12.7730  -14.5140   -8.8230 C   0  0  2  0  0  0  0  0  0  0  0  0
  -12.1210  -14.6190  -10.2220 C   0  0  1  0  0  0  0  0  0  0  0  0
  -10.7280  -13.9760  -10.3830 C   0  0  0  0  0  0  0  0  0  0  0  0
   -9.8950  -13.6840   -9.1230 C   0  0  0  0  0  0  0  0  0  0  0  0
   -9.1330  -14.8580   -8.5660 C   0  0  0  0  0  0  0  0  0  0  0  0
   -7.9380  -15.2840   -9.1630 C   0  0  0  0  0  0  0  0  0  0  0  0
   -7.2390  -16.3770   -8.6480 C   0  0  0  0  0  0  0  0  0  0  0  0
   -7.7140  -17.0420   -7.5210 C   0  0  0  0  0  0  0  0  0  0  0  0
   -8.8800  -16.6050   -6.8970 C   0  0  0  0  0  0  0  0  0  0  0  0
   -9.5830  -15.5140   -7.4120 C   0  0  0  0  0  0  0  0  0  0  0  0
  -12.1830  -16.1110  -10.5720 C   0  0  0  0  0  0  0  0  0  0  0  0
  -13.4880  -16.4590   -9.9400 C   0  0  0  0  0  0  0  0  0  0  0  0
  -14.2750  -17.3310  -10.2370 O   0  0  0  0  0  0  0  0  0  0  0  0
  -13.8650  -15.5650   -8.8530 N   0  0  0  0  0  0  0  0  0  0  0  0
  -14.0830  -16.1840   -7.5440 C   0  0  0  0  0  0  0  0  0  0  0  0
  -13.0210  -16.4540   -6.6810 C   0  0  0  0  0  0  0  0  0  0  0  0
  -13.2790  -17.0100   -5.4260 C   0  0  0  0  0  0  0  0  0  0  0  0
  -14.5860  -17.2980   -5.0230 C   0  0  0  0  0  0  0  0  0  0  0  0
  -14.6880  -17.8320   -3.7720 O   0  0  0  0  0  0  0  0  0  0  0  0
  -15.9460  -17.7250   -3.1150 C   0  0  0  0  0  0  0  0  0  0  0  0
  -15.6430  -17.0250   -5.8910 C   0  0  0  0  0  0  0  0  0  0  0  0
  -15.3940  -16.4670   -7.1510 C   0  0  0  0  0  0  0  0  0  0  0  0
  -14.6350  -12.7620   -8.7250 C   0  0  0  0  0  0  0  0  0  0  0  0
  -15.1100  -11.5050   -8.3290 C   0  0  0  0  0  0  0  0  0  0  0  0
  -13.7826   -8.7604   -5.4122 H   0  0  0  0  0  0  0  0  0  0  0  0
  -12.6251   -9.0229   -6.7605 H   0  0  0  0  0  0  0  0  0  0  0  0
  -13.6909   -7.5770   -6.7605 H   0  0  0  0  0  0  0  0  0  0  0  0
  -12.3062  -10.3134   -6.8210 H   0  0  0  0  0  0  0  0  0  0  0  0
  -11.4520  -12.5394   -7.5209 H   0  0  0  0  0  0  0  0  0  0  0  0
  -12.0160  -14.6749   -8.0413 H   0  0  0  0  0  0  0  0  0  0  0  0
  -12.6777  -14.0030  -10.9436 H   0  0  0  0  0  0  0  0  0  0  0  0
  -10.1319  -14.6506  -11.0151 H   0  0  0  0  0  0  0  0  0  0  0  0
  -10.9419  -12.9794  -10.7966 H   0  0  0  0  0  0  0  0  0  0  0  0
   -9.1695  -12.8953   -9.3710 H   0  0  0  0  0  0  0  0  0  0  0  0
  -10.6152  -13.3930   -8.3442 H   0  0  0  0  0  0  0  0  0  0  0  0
   -7.5483  -14.7528  -10.0439 H   0  0  0  0  0  0  0  0  0  0  0  0
   -6.3111  -16.7135   -9.1336 H   0  0  0  0  0  0  0  0  0  0  0  0
   -7.1693  -17.9113   -7.1239 H   0  0  0  0  0  0  0  0  0  0  0  0
   -9.2476  -17.1201   -5.9972 H   0  0  0  0  0  0  0  0  0  0  0  0
  -10.4971  -15.1667   -6.9081 H   0  0  0  0  0  0  0  0  0  0  0  0
  -12.1966  -16.2770  -11.6593 H   0  0  0  0  0  0  0  0  0  0  0  0
  -11.3241  -16.7076  -10.2309 H   0  0  0  0  0  0  0  0  0  0  0  0
  -14.7570  -15.1720   -9.1670 H   0  0  0  0  0  0  0  0  0  0  0  0
  -11.9881  -16.2307   -6.9865 H   0  0  0  0  0  0  0  0  0  0  0  0
  -12.4419  -17.2242   -4.7453 H   0  0  0  0  0  0  0  0  0  0  0  0
  -15.7931  -17.7380   -2.0258 H   0  0  0  0  0  0  0  0  0  0  0  0
  -16.4325  -16.7822   -3.4057 H   0  0  0  0  0  0  0  0  0  0  0  0
  -16.5847  -18.5721   -3.4057 H   0  0  0  0  0  0  0  0  0  0  0  0
  -16.6756  -17.2487   -5.5848 H   0  0  0  0  0  0  0  0  0  0  0  0
  -16.2307  -16.2513   -7.8318 H   0  0  0  0  0  0  0  0  0  0  0  0
  -15.3055  -13.4526   -9.2575 H   0  0  0  0  0  0  0  0  0  0  0  0
  -16.1463  -11.2153   -8.5573 H   0  0  0  0  0  0  0  0  0  0  0  0
  1  2  1  0
  2  3  1  0
  3  4  2  0
  4  5  1  0
  5  6  2  0
  6  7  1  0
  7  8  1  0
  8  9  1  0
  9 10  1  0
 10 11  1  0
 11 12  2  0
 12 13  1  0
 13 14  2  0
 14 15  1  0
 15 16  2  0
  8 17  1  0
 17 18  1  0
 18 19  2  0
 18 20  1  0
 20 21  1  0
 21 22  2  0
 22 23  1  0
 23 24  2  0
 24 25  1  0
 25 26  1  0
 24 27  1  0
 27 28  2  0
  6 29  1  0
 29 30  2  0
 30  3  1  0
 20  7  1  0
 28 21  1  0
 16 11  1  0
  1 31  1  0
  1 32  1  0
  1 33  1  0
  4 34  1  0
  5 35  1  0
  7 36  1  1
  8 37  1  6
  9 38  1  0
  9 39  1  0
 10 40  1  0
 10 41  1  0
 12 42  1  0
 13 43  1  0
 14 44  1  0
 15 45  1  0
 16 46  1  0
 17 47  1  0
 17 48  1  0
 20 49  1  0
 22 50  1  0
 23 51  1  0
 26 52  1  0
 26 53  1  0
 26 54  1  0
 27 55  1  0
 28 56  1  0
 29 57  1  0
 30 58  1  0
M  CHG  1  20   1
M  END
>  <meeko>  (2) 
{"is_sidechain": [false], "free_energy": -7.037, "intermolecular_energy": -10.887, "internal_energy": -2.245}

$$$$
LIB_UVJAYAHHKNFNAG__M_PUB_ALL__e8__s20260927
     RDKit          3D

 58 61  0  0  0  0  0  0  0  0999 V2000
    3.0200  -13.0510    0.6690 C   0  0  0  0  0  0  0  0  0  0  0  0
    4.1180  -12.1520    0.5640 O   0  0  0  0  0  0  0  0  0  0  0  0
    4.9530  -12.3050   -0.5040 C   0  0  0  0  0  0  0  0  0  0  0  0
    5.1480  -13.6260   -0.9060 C   0  0  0  0  0  0  0  0  0  0  0  0
    5.9770  -13.9300   -1.9870 C   0  0  0  0  0  0  0  0  0  0  0  0
    6.6350  -12.9120   -2.6930 C   0  0  0  0  0  0  0  0  0  0  0  0
    7.4910  -13.2750   -3.8850 C   0  0  2  0  0  0  0  0  0  0  0  0
    6.7490  -13.9440   -5.0670 C   0  0  1  0  0  0  0  0  0  0  0  0
    5.8620  -13.0260   -5.9320 C   0  0  0  0  0  0  0  0  0  0  0  0
    4.3370  -13.2240   -5.9030 C   0  0  0  0  0  0  0  0  0  0  0  0
    3.6090  -12.4710   -4.8210 C   0  0  0  0  0  0  0  0  0  0  0  0
    3.6570  -11.0710   -4.7660 C   0  0  0  0  0  0  0  0  0  0  0  0
    2.9860  -10.3770   -3.7580 C   0  0  0  0  0  0  0  0  0  0  0  0
    2.2440  -11.0720   -2.8070 C   0  0  0  0  0  0  0  0  0  0  0  0
    2.1570  -12.4610   -2.8720 C   0  0  0  0  0  0  0  0  0  0  0  0
    2.8300  -13.1570   -3.8780 C   0  0  0  0  0  0  0  0  0  0  0  0
    7.8410  -14.6940   -5.8390 C   0  0  0  0  0  0  0  0  0  0  0  0
    8.7020  -15.1230   -4.6990 C   0  0  0  0  0  0  0  0  0  0  0  0
    9.4360  -16.0830   -4.6110 O   0  0  0  0  0  0  0  0  0  0  0  0
    8.5690  -14.2770   -3.5200 N   0  0  0  0  0  0  0  0  0  0  0  0
    9.7920  -13.6330   -3.0370 C   0  0  0  0  0  0  0  0  0  0  0  0
   10.6120  -12.8940   -3.8910 C   0  0  0  0  0  0  0  0  0  0  0  0
   11.7480  -12.2650   -3.3790 C   0  0  0  0  0  0  0  0  0  0  0  0
   12.0760  -12.3650   -2.0240 C   0  0  0  0  0  0  0  0  0  0  0  0
   13.2090  -11.6960   -1.6650 O   0  0  0  0  0  0  0  0  0  0  0  0
   13.1630  -10.9250   -0.4690 C   0  0  0  0  0  0  0  0  0  0  0  0
   11.2520  -13.1040   -1.1760 C   0  0  0  0  0  0  0  0  0  0  0  0
   10.1100  -13.7380   -1.6800 C   0  0  0  0  0  0  0  0  0  0  0  0
    6.4270  -11.5830   -2.2890 C   0  0  0  0  0  0  0  0  0  0  0  0
    5.5950  -11.2840   -1.2010 C   0  0  0  0  0  0  0  0  0  0  0  0
    2.7963  -13.2342    1.7303 H   0  0  0  0  0  0  0  0  0  0  0  0
    2.1385  -12.6120    0.1789 H   0  0  0  0  0  0  0  0  0  0  0  0
    3.2764  -14.0018    0.1789 H   0  0  0  0  0  0  0  0  0  0  0  0
    4.6421  -14.4388   -0.3643 H   0  0  0  0  0  0  0  0  0  0  0  0
    6.1158  -14.9788   -2.2884 H   0  0  0  0  0  0  0  0  0  0  0  0
    7.8770  -12.2915   -4.1911 H   0  0  0  0  0  0  0  0  0  0  0  0
    5.9714  -14.6233   -4.6876 H   0  0  0  0  0  0  0  0  0  0  0  0
    6.0595  -11.9920   -5.6127 H   0  0  0  0  0  0  0  0  0  0  0  0
    6.1429  -13.2821   -6.9642 H   0  0  0  0  0  0  0  0  0  0  0  0
    3.9339  -12.8984   -6.8733 H   0  0  0  0  0  0  0  0  0  0  0  0
    4.1736  -14.2912   -5.6925 H   0  0  0  0  0  0  0  0  0  0  0  0
    4.2284  -10.5147   -5.5237 H   0  0  0  0  0  0  0  0  0  0  0  0
    3.0435   -9.2794   -3.7149 H   0  0  0  0  0  0  0  0  0  0  0  0
    1.7268  -10.5250   -2.0049 H   0  0  0  0  0  0  0  0  0  0  0  0
    1.5578  -13.0096   -2.1304 H   0  0  0  0  0  0  0  0  0  0  0  0
    2.7485  -14.2527   -3.9314 H   0  0  0  0  0  0  0  0  0  0  0  0
    7.4350  -15.5537   -6.3922 H   0  0  0  0  0  0  0  0  0  0  0  0
    8.3524  -14.1055   -6.6150 H   0  0  0  0  0  0  0  0  0  0  0  0
    8.2490  -14.9260   -2.7960 H   0  0  0  0  0  0  0  0  0  0  0  0
   10.3649  -12.8079   -4.9594 H   0  0  0  0  0  0  0  0  0  0  0  0
   12.3945  -11.6822   -4.0516 H   0  0  0  0  0  0  0  0  0  0  0  0
   13.2030  -11.5961    0.4016 H   0  0  0  0  0  0  0  0  0  0  0  0
   14.0218  -10.2381   -0.4423 H   0  0  0  0  0  0  0  0  0  0  0  0
   12.2287  -10.3451   -0.4423 H   0  0  0  0  0  0  0  0  0  0  0  0
   11.5000  -13.1891   -0.1077 H   0  0  0  0  0  0  0  0  0  0  0  0
    9.4623  -14.3194   -1.0073 H   0  0  0  0  0  0  0  0  0  0  0  0
    6.9234  -10.7661   -2.8334 H   0  0  0  0  0  0  0  0  0  0  0  0
    5.4483  -10.2373   -0.8960 H   0  0  0  0  0  0  0  0  0  0  0  0
  1  2  1  0
  2  3  1  0
  3  4  2  0
  4  5  1  0
  5  6  2  0
  6  7  1  0
  7  8  1  0
  8  9  1  0
  9 10  1  0
 10 11  1  0
 11 12  2  0
 12 13  1  0
 13 14  2  0
 14 15  1  0
 15 16  2  0
  8 17  1  0
 17 18  1  0
 18 19  2  0
 18 20  1  0
 20 21  1  0
 21 22  2  0
 22 23  1  0
 23 24  2  0
 24 25  1  0
 25 26  1  0
 24 27  1  0
 27 28  2  0
  6 29  1  0
 29 30  2  0
 30  3  1  0
 20  7  1  0
 28 21  1  0
 16 11  1  0
  1 31  1  0
  1 32  1  0
  1 33  1  0
  4 34  1  0
  5 35  1  0
  7 36  1  6
  8 37  1  1
  9 38  1  0
  9 39  1  0
 10 40  1  0
 10 41  1  0
 12 42  1  0
 13 43  1  0
 14 44  1  0
 15 45  1  0
 16 46  1  0
 17 47  1  0
 17 48  1  0
 20 49  1  0
 22 50  1  0
 23 51  1  0
 26 52  1  0
 26 53  1  0
 26 54  1  0
 27 55  1  0
 28 56  1  0
 29 57  1  0
 30 58  1  0
M  CHG  1  20   1
M  END
>  <meeko>  (3) 
{"is_sidechain": [false], "free_energy": -7.019, "intermolecular_energy": -9.408, "internal_energy": -3.699}

$$$$
LIB_UVJAYAHHKNFNAG__M_PUB_ALL__e8__s20260927
     RDKit          3D

 58 61  0  0  0  0  0  0  0  0999 V2000
   -7.4810  -16.9350   -6.9310 C   0  0  0  0  0  0  0  0  0  0  0  0
   -7.6470  -16.2120   -8.1460 O   0  0  0  0  0  0  0  0  0  0  0  0
   -8.9200  -15.8720   -8.5040 C   0  0  0  0  0  0  0  0  0  0  0  0
   -9.8430  -15.8960   -7.4600 C   0  0  0  0  0  0  0  0  0  0  0  0
  -11.1830  -15.5680   -7.6810 C   0  0  0  0  0  0  0  0  0  0  0  0
  -11.6290  -15.2080   -8.9620 C   0  0  0  0  0  0  0  0  0  0  0  0
  -13.0760  -14.8180   -9.1560 C   0  0  2  0  0  0  0  0  0  0  0  0
  -13.9660  -15.8650   -9.8670 C   0  0  1  0  0  0  0  0  0  0  0  0
  -14.3680  -17.1030   -9.0400 C   0  0  0  0  0  0  0  0  0  0  0  0
  -15.6330  -17.0360   -8.1680 C   0  0  0  0  0  0  0  0  0  0  0  0
  -15.3930  -17.0490   -6.6810 C   0  0  0  0  0  0  0  0  0  0  0  0
  -16.4690  -17.0630   -5.7830 C   0  0  0  0  0  0  0  0  0  0  0  0
  -16.2430  -17.0680   -4.4050 C   0  0  0  0  0  0  0  0  0  0  0  0
  -14.9410  -17.0790   -3.9110 C   0  0  0  0  0  0  0  0  0  0  0  0
  -13.8640  -17.1030   -4.7930 C   0  0  0  0  0  0  0  0  0  0  0  0
  -14.0880  -17.0960   -6.1710 C   0  0  0  0  0  0  0  0  0  0  0  0
  -15.1430  -15.0600  -10.4290 C   0  0  0  0  0  0  0  0  0  0  0  0
  -14.4330  -13.7980  -10.7870 C   0  0  0  0  0  0  0  0  0  0  0  0
  -14.7020  -12.9830  -11.6420 O   0  0  0  0  0  0  0  0  0  0  0  0
  -13.2150  -13.5790  -10.0180 N   0  0  0  0  0  0  0  0  0  0  0  0
  -13.1500  -12.3430   -9.2360 C   0  0  0  0  0  0  0  0  0  0  0  0
  -13.9880  -12.1270   -8.1420 C   0  0  0  0  0  0  0  0  0  0  0  0
  -13.8650  -10.9500   -7.4020 C   0  0  0  0  0  0  0  0  0  0  0  0
  -12.9140   -9.9850   -7.7420 C   0  0  0  0  0  0  0  0  0  0  0  0
  -12.9030   -8.8890   -6.9280 O   0  0  0  0  0  0  0  0  0  0  0  0
  -14.1580   -8.3000   -6.6060 C   0  0  0  0  0  0  0  0  0  0  0  0
  -12.0780  -10.2050   -8.8360 C   0  0  0  0  0  0  0  0  0  0  0  0
  -12.1940  -11.3840   -9.5840 C   0  0  0  0  0  0  0  0  0  0  0  0
  -10.6910  -15.1770  -10.0070 C   0  0  0  0  0  0  0  0  0  0  0  0
   -9.3490  -15.5100   -9.7780 C   0  0  0  0  0  0  0  0  0  0  0  0
   -7.6363  -16.2585   -6.0776 H   0  0  0  0  0  0  0  0  0  0  0  0
   -8.2146  -17.7536   -6.8883 H   0  0  0  0  0  0  0  0  0  0  0  0
   -6.4638  -17.3516   -6.8883 H   0  0  0  0  0  0  0  0  0  0  0  0
   -9.5123  -16.1768   -6.4492 H   0  0  0  0  0  0  0  0  0  0  0  0
  -11.8952  -15.5922   -6.8430 H   0  0  0  0  0  0  0  0  0  0  0  0
  -13.4115  -14.6825   -8.1172 H   0  0  0  0  0  0  0  0  0  0  0  0
  -13.3942  -16.3684  -10.6605 H   0  0  0  0  0  0  0  0  0  0  0  0
  -14.5079  -17.9328   -9.7484 H   0  0  0  0  0  0  0  0  0  0  0  0
  -13.5503  -17.2121   -8.3123 H   0  0  0  0  0  0  0  0  0  0  0  0
  -16.1686  -16.1081   -8.4174 H   0  0  0  0  0  0  0  0  0  0  0  0
  -16.2042  -17.9492   -8.3912 H   0  0  0  0  0  0  0  0  0  0  0  0
  -17.4998  -17.0701   -6.1668 H   0  0  0  0  0  0  0  0  0  0  0  0
  -17.0946  -17.0632   -3.7087 H   0  0  0  0  0  0  0  0  0  0  0  0
  -14.7637  -17.0687   -2.8254 H   0  0  0  0  0  0  0  0  0  0  0  0
  -12.8355  -17.1275   -4.4037 H   0  0  0  0  0  0  0  0  0  0  0  0
  -13.2331  -17.1276   -6.8625 H   0  0  0  0  0  0  0  0  0  0  0  0
  -15.5872  -15.5447  -11.3109 H   0  0  0  0  0  0  0  0  0  0  0  0
  -15.9952  -14.9385   -9.7442 H   0  0  0  0  0  0  0  0  0  0  0  0
  -12.4850  -13.5360  -10.7350 H   0  0  0  0  0  0  0  0  0  0  0  0
  -14.7409  -12.8794   -7.8643 H   0  0  0  0  0  0  0  0  0  0  0  0
  -14.5260  -10.7800   -6.5393 H   0  0  0  0  0  0  0  0  0  0  0  0
  -14.2689   -8.2479   -5.5128 H   0  0  0  0  0  0  0  0  0  0  0  0
  -14.2059   -7.2854   -7.0281 H   0  0  0  0  0  0  0  0  0  0  0  0
  -14.9691   -8.9115   -7.0281 H   0  0  0  0  0  0  0  0  0  0  0  0
  -11.3259   -9.4514   -9.1124 H   0  0  0  0  0  0  0  0  0  0  0  0
  -11.5323  -11.5553  -10.4459 H   0  0  0  0  0  0  0  0  0  0  0  0
  -11.0138  -14.8877  -11.0180 H   0  0  0  0  0  0  0  0  0  0  0  0
   -8.6301  -15.4852  -10.6102 H   0  0  0  0  0  0  0  0  0  0  0  0
  1  2  1  0
  2  3  1  0
  3  4  2  0
  4  5  1  0
  5  6  2  0
  6  7  1  0
  7  8  1  0
  8  9  1  0
  9 10  1  0
 10 11  1  0
 11 12  2  0
 12 13  1  0
 13 14  2  0
 14 15  1  0
 15 16  2  0
  8 17  1  0
 17 18  1  0
 18 19  2  0
 18 20  1  0
 20 21  1  0
 21 22  2  0
 22 23  1  0
 23 24  2  0
 24 25  1  0
 25 26  1  0
 24 27  1  0
 27 28  2  0
  6 29  1  0
 29 30  2  0
 30  3  1  0
 20  7  1  0
 28 21  1  0
 16 11  1  0
  1 31  1  0
  1 32  1  0
  1 33  1  0
  4 34  1  0
  5 35  1  0
  7 36  1  1
  8 37  1  6
  9 38  1  0
  9 39  1  0
 10 40  1  0
 10 41  1  0
 12 42  1  0
 13 43  1  0
 14 44  1  0
 15 45  1  0
 16 46  1  0
 17 47  1  0
 17 48  1  0
 20 49  1  0
 22 50  1  0
 23 51  1  0
 26 52  1  0
 26 53  1  0
 26 54  1  0
 27 55  1  0
 28 56  1  0
 29 57  1  0
 30 58  1  0
M  CHG  1  20   1
M  END
>  <meeko>  (4) 
{"is_sidechain": [false], "free_energy": -7.002, "intermolecular_energy": -10.696, "internal_energy": -2.385}

$$$$
LIB_UVJAYAHHKNFNAG__M_PUB_ALL__e8__s20260927
     RDKit          3D

 58 61  0  0  0  0  0  0  0  0999 V2000
   -5.9960  -13.0510    2.3420 C   0  0  0  0  0  0  0  0  0  0  0  0
   -5.2270  -12.9770    1.1460 O   0  0  0  0  0  0  0  0  0  0  0  0
   -3.8890  -13.2270    1.2450 C   0  0  0  0  0  0  0  0  0  0  0  0
   -3.3020  -12.7910    2.4320 C   0  0  0  0  0  0  0  0  0  0  0  0
   -1.9390  -12.9830    2.6700 C   0  0  0  0  0  0  0  0  0  0  0  0
   -1.1300  -13.6170    1.7160 C   0  0  0  0  0  0  0  0  0  0  0  0
    0.3330  -13.8460    2.0250 C   0  0  2  0  0  0  0  0  0  0  0  0
    1.3280  -13.4280    0.9170 C   0  0  1  0  0  0  0  0  0  0  0  0
    1.5610  -11.9140    0.7360 C   0  0  0  0  0  0  0  0  0  0  0  0
    0.6770  -11.1400   -0.2570 C   0  0  0  0  0  0  0  0  0  0  0  0
   -0.5190  -10.4510    0.3440 C   0  0  0  0  0  0  0  0  0  0  0  0
   -1.7630  -10.4820   -0.3020 C   0  0  0  0  0  0  0  0  0  0  0  0
   -2.8680   -9.8370    0.2550 C   0  0  0  0  0  0  0  0  0  0  0  0
   -2.7480   -9.1710    1.4720 C   0  0  0  0  0  0  0  0  0  0  0  0
   -1.5270   -9.1640    2.1420 C   0  0  0  0  0  0  0  0  0  0  0  0
   -0.4200   -9.8070    1.5860 C   0  0  0  0  0  0  0  0  0  0  0  0
    2.5960  -14.2410    1.2030 C   0  0  0  0  0  0  0  0  0  0  0  0
    1.9740  -15.5020    1.7010 C   0  0  0  0  0  0  0  0  0  0  0  0
    2.4020  -16.6350    1.6640 O   0  0  0  0  0  0  0  0  0  0  0  0
    0.6380  -15.3130    2.2510 N   0  0  0  0  0  0  0  0  0  0  0  0
    0.4420  -15.7180    3.6440 C   0  0  0  0  0  0  0  0  0  0  0  0
   -0.1260  -16.9500    3.9710 C   0  0  0  0  0  0  0  0  0  0  0  0
   -0.2600  -17.3120    5.3130 C   0  0  0  0  0  0  0  0  0  0  0  0
    0.1680  -16.4580    6.3330 C   0  0  0  0  0  0  0  0  0  0  0  0
   -0.0190  -16.9440    7.5940 O   0  0  0  0  0  0  0  0  0  0  0  0
    0.9700  -17.8290    8.1090 C   0  0  0  0  0  0  0  0  0  0  0  0
    0.7360  -15.2280    6.0000 C   0  0  0  0  0  0  0  0  0  0  0  0
    0.8740  -14.8570    4.6570 C   0  0  0  0  0  0  0  0  0  0  0  0
   -1.7300  -14.0620    0.5260 C   0  0  0  0  0  0  0  0  0  0  0  0
   -3.0970  -13.8650    0.2930 C   0  0  0  0  0  0  0  0  0  0  0  0
   -5.3269  -12.9866    3.2127 H   0  0  0  0  0  0  0  0  0  0  0  0
   -6.7136  -12.2178    2.3686 H   0  0  0  0  0  0  0  0  0  0  0  0
   -6.5416  -14.0058    2.3686 H   0  0  0  0  0  0  0  0  0  0  0  0
   -3.9202  -12.2893    3.1910 H   0  0  0  0  0  0  0  0  0  0  0  0
   -1.4962  -12.6337    3.6144 H   0  0  0  0  0  0  0  0  0  0  0  0
    0.4744  -13.2154    2.9152 H   0  0  0  0  0  0  0  0  0  0  0  0
    0.9061  -13.6561   -0.0729 H   0  0  0  0  0  0  0  0  0  0  0  0
    1.4249  -11.4461    1.7222 H   0  0  0  0  0  0  0  0  0  0  0  0
    2.5685  -11.8511    0.2990 H   0  0  0  0  0  0  0  0  0  0  0  0
    1.3011  -10.3750   -0.7420 H   0  0  0  0  0  0  0  0  0  0  0  0
    0.2758  -11.8904   -0.9541 H   0  0  0  0  0  0  0  0  0  0  0  0
   -1.8688  -11.0193   -1.2560 H   0  0  0  0  0  0  0  0  0  0  0  0
   -3.8355   -9.8547   -0.2682 H   0  0  0  0  0  0  0  0  0  0  0  0
   -3.6161   -8.6513    1.9035 H   0  0  0  0  0  0  0  0  0  0  0  0
   -1.4350   -8.6510    3.1107 H   0  0  0  0  0  0  0  0  0  0  0  0
    0.5381   -9.8087    2.1264 H   0  0  0  0  0  0  0  0  0  0  0  0
    3.1900  -14.4084    0.2924 H   0  0  0  0  0  0  0  0  0  0  0  0
    3.3098  -13.7672    1.8929 H   0  0  0  0  0  0  0  0  0  0  0  0
    0.0520  -15.9140    1.6640 H   0  0  0  0  0  0  0  0  0  0  0  0
   -0.4658  -17.6313    3.1771 H   0  0  0  0  0  0  0  0  0  0  0  0
   -0.7086  -18.2827    5.5708 H   0  0  0  0  0  0  0  0  0  0  0  0
    0.9451  -17.8068    9.2085 H   0  0  0  0  0  0  0  0  0  0  0  0
    0.7656  -18.8513    7.7582 H   0  0  0  0  0  0  0  0  0  0  0  0
    1.9634  -17.5127    7.7582 H   0  0  0  0  0  0  0  0  0  0  0  0
    1.0763  -14.5478    6.7947 H   0  0  0  0  0  0  0  0  0  0  0  0
    1.3230  -13.8866    4.3986 H   0  0  0  0  0  0  0  0  0  0  0  0
   -1.1181  -14.5718   -0.2327 H   0  0  0  0  0  0  0  0  0  0  0  0
   -3.5477  -14.2160   -0.6470 H   0  0  0  0  0  0  0  0  0  0  0  0
  1  2  1  0
  2  3  1  0
  3  4  2  0
  4  5  1  0
  5  6  2  0
  6  7  1  0
  7  8  1  0
  8  9  1  0
  9 10  1  0
 10 11  1  0
 11 12  2  0
 12 13  1  0
 13 14  2  0
 14 15  1  0
 15 16  2  0
  8 17  1  0
 17 18  1  0
 18 19  2  0
 18 20  1  0
 20 21  1  0
 21 22  2  0
 22 23  1  0
 23 24  2  0
 24 25  1  0
 25 26  1  0
 24 27  1  0
 27 28  2  0
  6 29  1  0
 29 30  2  0
 30  3  1  0
 20  7  1  0
 28 21  1  0
 16 11  1  0
  1 31  1  0
  1 32  1  0
  1 33  1  0
  4 34  1  0
  5 35  1  0
  7 36  1  1
  8 37  1  6
  9 38  1  0
  9 39  1  0
 10 40  1  0
 10 41  1  0
 12 42  1  0
 13 43  1  0
 14 44  1  0
 15 45  1  0
 16 46  1  0
 17 47  1  0
 17 48  1  0
 20 49  1  0
 22 50  1  0
 23 51  1  0
 26 52  1  0
 26 53  1  0
 26 54  1  0
 27 55  1  0
 28 56  1  0
 29 57  1  0
 30 58  1  0
M  CHG  1  20   1
M  END
>  <meeko>  (5) 
{"is_sidechain": [false], "free_energy": -6.972, "intermolecular_energy": -9.469, "internal_energy": -3.571}

$$$$
LIB_UVJAYAHHKNFNAG__M_PUB_ALL__e8__s20260927
     RDKit          3D

 58 61  0  0  0  0  0  0  0  0999 V2000
   -1.9880   -9.1650    1.9610 C   0  0  0  0  0  0  0  0  0  0  0  0
   -0.6660   -9.1120    1.4360 O   0  0  0  0  0  0  0  0  0  0  0  0
   -0.1070  -10.2880    1.0280 C   0  0  0  0  0  0  0  0  0  0  0  0
    0.7020  -10.1860   -0.1030 C   0  0  0  0  0  0  0  0  0  0  0  0
    1.3410  -11.3110   -0.6300 C   0  0  0  0  0  0  0  0  0  0  0  0
    1.1800  -12.5700   -0.0320 C   0  0  0  0  0  0  0  0  0  0  0  0
    1.9210  -13.7570   -0.6050 C   0  0  2  0  0  0  0  0  0  0  0  0
    1.0510  -14.7980   -1.3490 C   0  0  1  0  0  0  0  0  0  0  0  0
    0.5360  -14.3940   -2.7460 C   0  0  0  0  0  0  0  0  0  0  0  0
    1.4950  -14.4810   -3.9450 C   0  0  0  0  0  0  0  0  0  0  0  0
    2.5850  -13.4420   -3.9770 C   0  0  0  0  0  0  0  0  0  0  0  0
    2.2730  -12.0780   -4.0650 C   0  0  0  0  0  0  0  0  0  0  0  0
    3.2860  -11.1190   -4.1010 C   0  0  0  0  0  0  0  0  0  0  0  0
    4.6210  -11.5100   -4.0300 C   0  0  0  0  0  0  0  0  0  0  0  0
    4.9440  -12.8590   -3.9050 C   0  0  0  0  0  0  0  0  0  0  0  0
    3.9320  -13.8200   -3.8710 C   0  0  0  0  0  0  0  0  0  0  0  0
    1.8760  -16.0900   -1.3190 C   0  0  0  0  0  0  0  0  0  0  0  0
    2.5110  -15.9480    0.0230 C   0  0  0  0  0  0  0  0  0  0  0  0
    2.8980  -16.8090    0.7830 O   0  0  0  0  0  0  0  0  0  0  0  0
    2.6090  -14.5670    0.4760 N   0  0  0  0  0  0  0  0  0  0  0  0
    3.9540  -14.0720    0.7760 C   0  0  0  0  0  0  0  0  0  0  0  0
    4.8400  -13.7080   -0.2380 C   0  0  0  0  0  0  0  0  0  0  0  0
    6.0980  -13.2040    0.0940 C   0  0  0  0  0  0  0  0  0  0  0  0
    6.4830  -13.0600    1.4300 C   0  0  0  0  0  0  0  0  0  0  0  0
    7.7370  -12.5510    1.6060 O   0  0  0  0  0  0  0  0  0  0  0  0
    8.3470  -11.9100    0.4910 C   0  0  0  0  0  0  0  0  0  0  0  0
    5.5940  -13.4250    2.4400 C   0  0  0  0  0  0  0  0  0  0  0  0
    4.3290  -13.9300    2.1150 C   0  0  0  0  0  0  0  0  0  0  0  0
    0.3730  -12.6630    1.1120 C   0  0  0  0  0  0  0  0  0  0  0  0
   -0.2670  -11.5310    1.6350 C   0  0  0  0  0  0  0  0  0  0  0  0
   -1.9463   -9.1633    3.0602 H   0  0  0  0  0  0  0  0  0  0  0  0
   -2.5556   -8.2889    1.6143 H   0  0  0  0  0  0  0  0  0  0  0  0
   -2.4837  -10.0837    1.6143 H   0  0  0  0  0  0  0  0  0  0  0  0
    0.8388   -9.2074   -0.5864 H   0  0  0  0  0  0  0  0  0  0  0  0
    1.9763  -11.2088   -1.5221 H   0  0  0  0  0  0  0  0  0  0  0  0
    2.6111  -13.2702   -1.3098 H   0  0  0  0  0  0  0  0  0  0  0  0
    0.0839  -14.9141   -0.8379 H   0  0  0  0  0  0  0  0  0  0  0  0
   -0.3240  -15.0413   -2.9727 H   0  0  0  0  0  0  0  0  0  0  0  0
    0.3276  -13.3181   -2.6508 H   0  0  0  0  0  0  0  0  0  0  0  0
    1.9715  -15.4723   -3.9273 H   0  0  0  0  0  0  0  0  0  0  0  0
    0.8795  -14.3023   -4.8390 H   0  0  0  0  0  0  0  0  0  0  0  0
    1.2205  -11.7610   -4.1060 H   0  0  0  0  0  0  0  0  0  0  0  0
    3.0299  -10.0526   -4.1856 H   0  0  0  0  0  0  0  0  0  0  0  0
    5.4192  -10.7543   -4.0726 H   0  0  0  0  0  0  0  0  0  0  0  0
    5.9974  -13.1675   -3.8330 H   0  0  0  0  0  0  0  0  0  0  0  0
    4.1929  -14.8828   -3.7601 H   0  0  0  0  0  0  0  0  0  0  0  0
    1.2389  -16.9847   -1.3785 H   0  0  0  0  0  0  0  0  0  0  0  0
    2.5774  -16.2163   -2.1569 H   0  0  0  0  0  0  0  0  0  0  0  0
    2.0720  -14.5640    1.3480 H   0  0  0  0  0  0  0  0  0  0  0  0
    4.5487  -13.8176   -1.2930 H   0  0  0  0  0  0  0  0  0  0  0  0
    6.7959  -12.9162   -0.7061 H   0  0  0  0  0  0  0  0  0  0  0  0
    9.0641  -11.1564    0.8485 H   0  0  0  0  0  0  0  0  0  0  0  0
    8.8747  -12.6583   -0.1186 H   0  0  0  0  0  0  0  0  0  0  0  0
    7.5735  -11.4200   -0.1186 H   0  0  0  0  0  0  0  0  0  0  0  0
    5.8870  -13.3160    3.4947 H   0  0  0  0  0  0  0  0  0  0  0  0
    3.6295  -14.2153    2.9145 H   0  0  0  0  0  0  0  0  0  0  0  0
    0.2408  -13.6374    1.6050 H   0  0  0  0  0  0  0  0  0  0  0  0
   -0.8993  -11.6250    2.5302 H   0  0  0  0  0  0  0  0  0  0  0  0
  1  2  1  0
  2  3  1  0
  3  4  2  0
  4  5  1  0
  5  6  2  0
  6  7  1  0
  7  8  1  0
  8  9  1  0
  9 10  1  0
 10 11  1  0
 11 12  2  0
 12 13  1  0
 13 14  2  0
 14 15  1  0
 15 16  2  0
  8 17  1  0
 17 18  1  0
 18 19  2  0
 18 20  1  0
 20 21  1  0
 21 22  2  0
 22 23  1  0
 23 24  2  0
 24 25  1  0
 25 26  1  0
 24 27  1  0
 27 28  2  0
  6 29  1  0
 29 30  2  0
 30  3  1  0
 20  7  1  0
 28 21  1  0
 16 11  1  0
  1 31  1  0
  1 32  1  0
  1 33  1  0
  4 34  1  0
  5 35  1  0
  7 36  1  6
  8 37  1  1
  9 38  1  0
  9 39  1  0
 10 40  1  0
 10 41  1  0
 12 42  1  0
 13 43  1  0
 14 44  1  0
 15 45  1  0
 16 46  1  0
 17 47  1  0
 17 48  1  0
 20 49  1  0
 22 50  1  0
 23 51  1  0
 26 52  1  0
 26 53  1  0
 26 54  1  0
 27 55  1  0
 28 56  1  0
 29 57  1  0
 30 58  1  0
M  CHG  1  20   1
M  END
>  <meeko>  (6) 
{"is_sidechain": [false], "free_energy": -6.884, "intermolecular_energy": -9.893, "internal_energy": -3.023}

$$$$
LIB_UVJAYAHHKNFNAG__M_PUB_ALL__e8__s20260927
     RDKit          3D

 58 61  0  0  0  0  0  0  0  0999 V2000
   -1.6110   -8.9680    3.4980 C   0  0  0  0  0  0  0  0  0  0  0  0
   -1.5140   -8.9330    2.0780 O   0  0  0  0  0  0  0  0  0  0  0  0
   -0.7760   -9.9090    1.4760 C   0  0  0  0  0  0  0  0  0  0  0  0
   -0.7940  -11.1400    2.1310 C   0  0  0  0  0  0  0  0  0  0  0  0
   -0.0830  -12.2300    1.6250 C   0  0  0  0  0  0  0  0  0  0  0  0
    0.6660  -12.1100    0.4440 C   0  0  0  0  0  0  0  0  0  0  0  0
    1.3870  -13.3240   -0.0970 C   0  0  2  0  0  0  0  0  0  0  0  0
    0.6380  -14.6700    0.0430 C   0  0  1  0  0  0  0  0  0  0  0  0
   -0.5510  -14.8990   -0.9120 C   0  0  0  0  0  0  0  0  0  0  0  0
   -1.8660  -15.4570   -0.3420 C   0  0  0  0  0  0  0  0  0  0  0  0
   -2.6730  -14.4910    0.4850 C   0  0  0  0  0  0  0  0  0  0  0  0
   -3.2080  -13.3300   -0.0900 C   0  0  0  0  0  0  0  0  0  0  0  0
   -3.9490  -12.4330    0.6820 C   0  0  0  0  0  0  0  0  0  0  0  0
   -4.1800  -12.6960    2.0300 C   0  0  0  0  0  0  0  0  0  0  0  0
   -3.6850  -13.8640    2.6040 C   0  0  0  0  0  0  0  0  0  0  0  0
   -2.9420  -14.7610    1.8350 C   0  0  0  0  0  0  0  0  0  0  0  0
    1.7350  -15.7380   -0.0310 C   0  0  0  0  0  0  0  0  0  0  0  0
    2.8330  -15.0150    0.6720 C   0  0  0  0  0  0  0  0  0  0  0  0
    3.7650  -15.4620    1.3040 O   0  0  0  0  0  0  0  0  0  0  0  0
    2.7010  -13.5650    0.6190 N   0  0  0  0  0  0  0  0  0  0  0  0
    3.8120  -12.8290    0.0130 C   0  0  0  0  0  0  0  0  0  0  0  0
    4.8200  -12.2610    0.7930 C   0  0  0  0  0  0  0  0  0  0  0  0
    5.8820  -11.6010    0.1720 C   0  0  0  0  0  0  0  0  0  0  0  0
    5.9490  -11.5010   -1.2210 C   0  0  0  0  0  0  0  0  0  0  0  0
    7.0430  -10.8350   -1.6890 O   0  0  0  0  0  0  0  0  0  0  0  0
    7.7140  -11.3870   -2.8170 C   0  0  0  0  0  0  0  0  0  0  0  0
    4.9390  -12.0710   -1.9950 C   0  0  0  0  0  0  0  0  0  0  0  0
    3.8710  -12.7360   -1.3800 C   0  0  0  0  0  0  0  0  0  0  0  0
    0.6710  -10.8710   -0.2150 C   0  0  0  0  0  0  0  0  0  0  0  0
   -0.0420   -9.7790    0.2990 C   0  0  0  0  0  0  0  0  0  0  0  0
   -0.6630   -8.6259    3.9388 H   0  0  0  0  0  0  0  0  0  0  0  0
   -2.4273   -8.3077    3.8261 H   0  0  0  0  0  0  0  0  0  0  0  0
   -1.8176   -9.9974    3.8261 H   0  0  0  0  0  0  0  0  0  0  0  0
   -1.3755  -11.2537    3.0578 H   0  0  0  0  0  0  0  0  0  0  0  0
   -0.1101  -13.1923    2.1572 H   0  0  0  0  0  0  0  0  0  0  0  0
    1.4957  -13.0627   -1.1600 H   0  0  0  0  0  0  0  0  0  0  0  0
    0.0965  -14.7015    1.0000 H   0  0  0  0  0  0  0  0  0  0  0  0
   -0.7855  -13.9286   -1.3738 H   0  0  0  0  0  0  0  0  0  0  0  0
   -0.1983  -15.6915   -1.5884 H   0  0  0  0  0  0  0  0  0  0  0  0
   -2.4901  -15.7844   -1.1866 H   0  0  0  0  0  0  0  0  0  0  0  0
   -1.5795  -16.2726    0.3383 H   0  0  0  0  0  0  0  0  0  0  0  0
   -3.0428  -13.1239   -1.1578 H   0  0  0  0  0  0  0  0  0  0  0  0
   -4.3510  -11.5169    0.2246 H   0  0  0  0  0  0  0  0  0  0  0  0
   -4.7526  -11.9821    2.6403 H   0  0  0  0  0  0  0  0  0  0  0  0
   -3.8798  -14.0801    3.6648 H   0  0  0  0  0  0  0  0  0  0  0  0
   -2.5641  -15.6877    2.2915 H   0  0  0  0  0  0  0  0  0  0  0  0
    1.4468  -16.6590    0.4969 H   0  0  0  0  0  0  0  0  0  0  0  0
    1.9796  -16.0873   -1.0450 H   0  0  0  0  0  0  0  0  0  0  0  0
    2.6470  -13.2950    1.6050 H   0  0  0  0  0  0  0  0  0  0  0  0
    4.7781  -12.3328    1.8899 H   0  0  0  0  0  0  0  0  0  0  0  0
    6.6768  -11.1536    0.7869 H   0  0  0  0  0  0  0  0  0  0  0  0
    8.5213  -12.0511   -2.4746 H   0  0  0  0  0  0  0  0  0  0  0  0
    6.9990  -11.9618   -3.4239 H   0  0  0  0  0  0  0  0  0  0  0  0
    8.1401  -10.5746   -3.4239 H   0  0  0  0  0  0  0  0  0  0  0  0
    4.9812  -11.9981   -3.0918 H   0  0  0  0  0  0  0  0  0  0  0  0
    3.0773  -13.1859   -1.9945 H   0  0  0  0  0  0  0  0  0  0  0  0
    1.2423  -10.7551   -1.1478 H   0  0  0  0  0  0  0  0  0  0  0  0
   -0.0219   -8.8146   -0.2296 H   0  0  0  0  0  0  0  0  0  0  0  0
  1  2  1  0
  2  3  1  0
  3  4  2  0
  4  5  1  0
  5  6  2  0
  6  7  1  0
  7  8  1  0
  8  9  1  0
  9 10  1  0
 10 11  1  0
 11 12  2  0
 12 13  1  0
 13 14  2  0
 14 15  1  0
 15 16  2  0
  8 17  1  0
 17 18  1  0
 18 19  2  0
 18 20  1  0
 20 21  1  0
 21 22  2  0
 22 23  1  0
 23 24  2  0
 24 25  1  0
 25 26  1  0
 24 27  1  0
 27 28  2  0
  6 29  1  0
 29 30  2  0
 30  3  1  0
 20  7  1  0
 28 21  1  0
 16 11  1  0
  1 31  1  0
  1 32  1  0
  1 33  1  0
  4 34  1  0
  5 35  1  0
  7 36  1  6
  8 37  1  1
  9 38  1  0
  9 39  1  0
 10 40  1  0
 10 41  1  0
 12 42  1  0
 13 43  1  0
 14 44  1  0
 15 45  1  0
 16 46  1  0
 17 47  1  0
 17 48  1  0
 20 49  1  0
 22 50  1  0
 23 51  1  0
 26 52  1  0
 26 53  1  0
 26 54  1  0
 27 55  1  0
 28 56  1  0
 29 57  1  0
 30 58  1  0
M  CHG  1  20   1
M  END
>  <meeko>  (7) 
{"is_sidechain": [false], "free_energy": -6.839, "intermolecular_energy": -9.829, "internal_energy": -3.024}

$$$$
LIB_UVJAYAHHKNFNAG__M_PUB_ALL__e8__s20260927
     RDKit          3D

 58 61  0  0  0  0  0  0  0  0999 V2000
   -1.9580   -9.2270    2.5970 C   0  0  0  0  0  0  0  0  0  0  0  0
   -1.6570  -10.3430    3.4280 O   0  0  0  0  0  0  0  0  0  0  0  0
   -0.9870  -11.3860    2.8580 C   0  0  0  0  0  0  0  0  0  0  0  0
   -0.5130  -11.1390    1.5700 C   0  0  0  0  0  0  0  0  0  0  0  0
    0.1930  -12.1180    0.8670 C   0  0  0  0  0  0  0  0  0  0  0  0
    0.4390  -13.3740    1.4430 C   0  0  0  0  0  0  0  0  0  0  0  0
    1.2440  -14.3940    0.6690 C   0  0  2  0  0  0  0  0  0  0  0  0
    0.5190  -15.7230    0.3530 C   0  0  1  0  0  0  0  0  0  0  0  0
   -0.5580  -15.6750   -0.7500 C   0  0  0  0  0  0  0  0  0  0  0  0
   -2.0140  -16.0060   -0.3810 C   0  0  0  0  0  0  0  0  0  0  0  0
   -2.7460  -14.9350    0.3840 C   0  0  0  0  0  0  0  0  0  0  0  0
   -3.1170  -15.1370    1.7200 C   0  0  0  0  0  0  0  0  0  0  0  0
   -3.8010  -14.1440    2.4240 C   0  0  0  0  0  0  0  0  0  0  0  0
   -4.1040  -12.9330    1.8080 C   0  0  0  0  0  0  0  0  0  0  0  0
   -3.7080  -12.7060    0.4920 C   0  0  0  0  0  0  0  0  0  0  0  0
   -3.0260  -13.6980   -0.2150 C   0  0  0  0  0  0  0  0  0  0  0  0
    1.6450  -16.7330    0.1060 C   0  0  0  0  0  0  0  0  0  0  0  0
    2.6450  -16.2370    1.0940 C   0  0  0  0  0  0  0  0  0  0  0  0
    3.5170  -16.8450    1.6750 O   0  0  0  0  0  0  0  0  0  0  0  0
    2.4820  -14.8280    1.4280 N   0  0  0  0  0  0  0  0  0  0  0  0
    3.6310  -13.9580    1.1700 C   0  0  0  0  0  0  0  0  0  0  0  0
    4.5820  -13.6960    2.1570 C   0  0  0  0  0  0  0  0  0  0  0  0
    5.6820  -12.8910    1.8570 C   0  0  0  0  0  0  0  0  0  0  0  0
    5.8450  -12.3450    0.5810 C   0  0  0  0  0  0  0  0  0  0  0  0
    6.9680  -11.5850    0.4290 O   0  0  0  0  0  0  0  0  0  0  0  0
    6.9340  -10.2570    0.9410 C   0  0  0  0  0  0  0  0  0  0  0  0
    4.8920  -12.6100   -0.4020 C   0  0  0  0  0  0  0  0  0  0  0  0
    3.7850  -13.4170   -0.1090 C   0  0  0  0  0  0  0  0  0  0  0  0
   -0.0320  -13.6110    2.7440 C   0  0  0  0  0  0  0  0  0  0  0  0
   -0.7410  -12.6260    3.4430 C   0  0  0  0  0  0  0  0  0  0  0  0
   -2.1932   -8.3551    3.2250 H   0  0  0  0  0  0  0  0  0  0  0  0
   -1.0895   -8.9979    1.9619 H   0  0  0  0  0  0  0  0  0  0  0  0
   -2.8239   -9.4657    1.9619 H   0  0  0  0  0  0  0  0  0  0  0  0
   -0.6974  -10.1609    1.1017 H   0  0  0  0  0  0  0  0  0  0  0  0
    0.5596  -11.9026   -0.1475 H   0  0  0  0  0  0  0  0  0  0  0  0
    1.4565  -13.8503   -0.2633 H   0  0  0  0  0  0  0  0  0  0  0  0
   -0.1183  -16.0150    1.2007 H   0  0  0  0  0  0  0  0  0  0  0  0
   -0.5531  -14.6551   -1.1620 H   0  0  0  0  0  0  0  0  0  0  0  0
   -0.2687  -16.4826   -1.4385 H   0  0  0  0  0  0  0  0  0  0  0  0
   -2.5660  -16.1943   -1.3136 H   0  0  0  0  0  0  0  0  0  0  0  0
   -1.9664  -16.8777    0.2883 H   0  0  0  0  0  0  0  0  0  0  0  0
   -2.8674  -16.0854    2.2182 H   0  0  0  0  0  0  0  0  0  0  0  0
   -4.1011  -14.3190    3.4677 H   0  0  0  0  0  0  0  0  0  0  0  0
   -4.6550  -12.1569    2.3594 H   0  0  0  0  0  0  0  0  0  0  0  0
   -3.9330  -11.7436    0.0091 H   0  0  0  0  0  0  0  0  0  0  0  0
   -2.7057  -13.5080   -1.2500 H   0  0  0  0  0  0  0  0  0  0  0  0
    1.3274  -17.7629    0.3260 H   0  0  0  0  0  0  0  0  0  0  0  0
    2.0027  -16.7892   -0.9327 H   0  0  0  0  0  0  0  0  0  0  0  0
    2.3190  -14.8400    2.4390 H   0  0  0  0  0  0  0  0  0  0  0  0
    4.4655  -14.1211    3.1648 H   0  0  0  0  0  0  0  0  0  0  0  0
    6.4308  -12.6835    2.6356 H   0  0  0  0  0  0  0  0  0  0  0  0
    6.9348  -10.2878    2.0406 H   0  0  0  0  0  0  0  0  0  0  0  0
    7.8183   -9.7056    0.5890 H   0  0  0  0  0  0  0  0  0  0  0  0
    6.0226   -9.7515    0.5890 H   0  0  0  0  0  0  0  0  0  0  0  0
    5.0097  -12.1845   -1.4095 H   0  0  0  0  0  0  0  0  0  0  0  0
    3.0358  -13.6251   -0.8871 H   0  0  0  0  0  0  0  0  0  0  0  0
    0.1584  -14.5837    3.2210 H   0  0  0  0  0  0  0  0  0  0  0  0
   -1.1057  -12.8328    4.4600 H   0  0  0  0  0  0  0  0  0  0  0  0
  1  2  1  0
  2  3  1  0
  3  4  2  0
  4  5  1  0
  5  6  2  0
  6  7  1  0
  7  8  1  0
  8  9  1  0
  9 10  1  0
 10 11  1  0
 11 12  2  0
 12 13  1  0
 13 14  2  0
 14 15  1  0
 15 16  2  0
  8 17  1  0
 17 18  1  0
 18 19  2  0
 18 20  1  0
 20 21  1  0
 21 22  2  0
 22 23  1  0
 23 24  2  0
 24 25  1  0
 25 26  1  0
 24 27  1  0
 27 28  2  0
  6 29  1  0
 29 30  2  0
 30  3  1  0
 20  7  1  0
 28 21  1  0
 16 11  1  0
  1 31  1  0
  1 32  1  0
  1 33  1  0
  4 34  1  0
  5 35  1  0
  7 36  1  6
  8 37  1  1
  9 38  1  0
  9 39  1  0
 10 40  1  0
 10 41  1  0
 12 42  1  0
 13 43  1  0
 14 44  1  0
 15 45  1  0
 16 46  1  0
 17 47  1  0
 17 48  1  0
 20 49  1  0
 22 50  1  0
 23 51  1  0
 26 52  1  0
 26 53  1  0
 26 54  1  0
 27 55  1  0
 28 56  1  0
 29 57  1  0
 30 58  1  0
M  CHG  1  20   1
M  END
>  <meeko>  (8) 
{"is_sidechain": [false], "free_energy": -6.736, "intermolecular_energy": -9.101, "internal_energy": -3.607}

$$$$
LIB_UVJAYAHHKNFNAG__M_PUB_ALL__e8__s20260927
     RDKit          3D

 58 61  0  0  0  0  0  0  0  0999 V2000
    3.8410  -14.4990   -4.1550 C   0  0  0  0  0  0  0  0  0  0  0  0
    3.3750  -13.3280   -3.4940 O   0  0  0  0  0  0  0  0  0  0  0  0
    2.4750  -13.4960   -2.4820 C   0  0  0  0  0  0  0  0  0  0  0  0
    1.3340  -14.2180   -2.8310 C   0  0  0  0  0  0  0  0  0  0  0  0
    0.3300  -14.4670   -1.8930 C   0  0  0  0  0  0  0  0  0  0  0  0
    0.4480  -13.9950   -0.5770 C   0  0  0  0  0  0  0  0  0  0  0  0
   -0.6390  -14.3210    0.4230 C   0  0  2  0  0  0  0  0  0  0  0  0
   -1.2290  -15.7480    0.3330 C   0  0  1  0  0  0  0  0  0  0  0  0
   -0.3420  -16.8950    0.8600 C   0  0  0  0  0  0  0  0  0  0  0  0
    0.6450  -17.5740   -0.1040 C   0  0  0  0  0  0  0  0  0  0  0  0
    2.0580  -17.0540   -0.0530 C   0  0  0  0  0  0  0  0  0  0  0  0
    2.5760  -16.5030    1.1270 C   0  0  0  0  0  0  0  0  0  0  0  0
    3.8830  -16.0160    1.1690 C   0  0  0  0  0  0  0  0  0  0  0  0
    4.6930  -16.0930    0.0380 C   0  0  0  0  0  0  0  0  0  0  0  0
    4.2020  -16.6710   -1.1300 C   0  0  0  0  0  0  0  0  0  0  0  0
    2.8940  -17.1570   -1.1740 C   0  0  0  0  0  0  0  0  0  0  0  0
   -2.6060  -15.6440    0.9990 C   0  0  0  0  0  0  0  0  0  0  0  0
   -2.9880  -14.2690    0.5660 C   0  0  0  0  0  0  0  0  0  0  0  0
   -4.0910  -13.7980    0.3940 O   0  0  0  0  0  0  0  0  0  0  0  0
   -1.8450  -13.4190    0.2580 N   0  0  0  0  0  0  0  0  0  0  0  0
   -1.7280  -12.1790    1.0270 C   0  0  0  0  0  0  0  0  0  0  0  0
   -1.8460  -10.9300    0.4170 C   0  0  0  0  0  0  0  0  0  0  0  0
   -1.7660   -9.7730    1.1950 C   0  0  0  0  0  0  0  0  0  0  0  0
   -1.5680   -9.8500    2.5770 C   0  0  0  0  0  0  0  0  0  0  0  0
   -1.5150   -8.6420    3.2090 O   0  0  0  0  0  0  0  0  0  0  0  0
   -1.4410   -8.6500    4.6310 C   0  0  0  0  0  0  0  0  0  0  0  0
   -1.4500  -11.1020    3.1810 C   0  0  0  0  0  0  0  0  0  0  0  0
   -1.5310  -12.2670    2.4080 C   0  0  0  0  0  0  0  0  0  0  0  0
    1.6040  -13.2770   -0.2300 C   0  0  0  0  0  0  0  0  0  0  0  0
    2.6070  -13.0280   -1.1770 C   0  0  0  0  0  0  0  0  0  0  0  0
    4.1392  -15.2483   -3.4069 H   0  0  0  0  0  0  0  0  0  0  0  0
    3.0375  -14.9090   -4.7845 H   0  0  0  0  0  0  0  0  0  0  0  0
    4.7065  -14.2448   -4.7845 H   0  0  0  0  0  0  0  0  0  0  0  0
    1.2236  -14.5961   -3.8581 H   0  0  0  0  0  0  0  0  0  0  0  0
   -0.5620  -15.0387   -2.1887 H   0  0  0  0  0  0  0  0  0  0  0  0
   -0.1096  -14.1922    1.3786 H   0  0  0  0  0  0  0  0  0  0  0  0
   -1.3025  -16.0595   -0.7194 H   0  0  0  0  0  0  0  0  0  0  0  0
    0.2491  -16.4889    1.6941 H   0  0  0  0  0  0  0  0  0  0  0  0
   -1.0589  -17.6912    1.1094 H   0  0  0  0  0  0  0  0  0  0  0  0
    0.6694  -18.6474    0.1354 H   0  0  0  0  0  0  0  0  0  0  0  0
    0.2778  -17.3558   -1.1177 H   0  0  0  0  0  0  0  0  0  0  0  0
    1.9467  -16.4540    2.0279 H   0  0  0  0  0  0  0  0  0  0  0  0
    4.2741  -15.5709    2.0958 H   0  0  0  0  0  0  0  0  0  0  0  0
    5.7191  -15.6977    0.0676 H   0  0  0  0  0  0  0  0  0  0  0  0
    4.8456  -16.7447   -2.0190 H   0  0  0  0  0  0  0  0  0  0  0  0
    2.5162  -17.6244   -2.0953 H   0  0  0  0  0  0  0  0  0  0  0  0
   -3.3046  -16.4030    0.6170 H   0  0  0  0  0  0  0  0  0  0  0  0
   -2.6131  -15.8105    2.0863 H   0  0  0  0  0  0  0  0  0  0  0  0
   -1.9950  -13.1660   -0.7230 H   0  0  0  0  0  0  0  0  0  0  0  0
   -2.0010  -10.8569   -0.6696 H   0  0  0  0  0  0  0  0  0  0  0  0
   -1.8600   -8.7881    0.7142 H   0  0  0  0  0  0  0  0  0  0  0  0
   -2.4516   -8.5408    5.0514 H   0  0  0  0  0  0  0  0  0  0  0  0
   -1.0036   -9.6007    4.9701 H   0  0  0  0  0  0  0  0  0  0  0  0
   -0.8106   -7.8148    4.9701 H   0  0  0  0  0  0  0  0  0  0  0  0
   -1.2929  -11.1743    4.2673 H   0  0  0  0  0  0  0  0  0  0  0  0
   -1.4395  -13.2524    2.8882 H   0  0  0  0  0  0  0  0  0  0  0  0
    1.7239  -12.9052    0.7983 H   0  0  0  0  0  0  0  0  0  0  0  0
    3.5034  -12.4598   -0.8878 H   0  0  0  0  0  0  0  0  0  0  0  0
  1  2  1  0
  2  3  1  0
  3  4  2  0
  4  5  1  0
  5  6  2  0
  6  7  1  0
  7  8  1  0
  8  9  1  0
  9 10  1  0
 10 11  1  0
 11 12  2  0
 12 13  1  0
 13 14  2  0
 14 15  1  0
 15 16  2  0
  8 17  1  0
 17 18  1  0
 18 19  2  0
 18 20  1  0
 20 21  1  0
 21 22  2  0
 22 23  1  0
 23 24  2  0
 24 25  1  0
 25 26  1  0
 24 27  1  0
 27 28  2  0
  6 29  1  0
 29 30  2  0
 30  3  1  0
 20  7  1  0
 28 21  1  0
 16 11  1  0
  1 31  1  0
  1 32  1  0
  1 33  1  0
  4 34  1  0
  5 35  1  0
  7 36  1  1
  8 37  1  6
  9 38  1  0
  9 39  1  0
 10 40  1  0
 10 41  1  0
 12 42  1  0
 13 43  1  0
 14 44  1  0
 15 45  1  0
 16 46  1  0
 17 47  1  0
 17 48  1  0
 20 49  1  0
 22 50  1  0
 23 51  1  0
 26 52  1  0
 26 53  1  0
 26 54  1  0
 27 55  1  0
 28 56  1  0
 29 57  1  0
 30 58  1  0
M  CHG  1  20   1
M  END
>  <meeko>  (9) 
{"is_sidechain": [false], "free_energy": -6.699, "intermolecular_energy": -9.072, "internal_energy": -3.582}

$$$$
