LIB_IJCNVHLDCLZYKG__M_PUB_ALL__e8__s20260927
     RDKit          3D

 44 46  0  0  0  0  0  0  0  0999 V2000
   -3.3590  -10.4080   -0.1660 C   0  0  0  0  0  0  0  0  0  0  0  0
   -4.1680  -11.6250   -0.5870 C   0  0  0  0  0  0  0  0  0  0  0  0
   -4.5320  -12.4980    0.6130 C   0  0  0  0  0  0  0  0  0  0  0  0
   -3.5170  -12.3310    1.7490 C   0  0  0  0  0  0  0  0  0  0  0  0
   -2.9270  -13.6680    2.1990 C   0  0  0  0  0  0  0  0  0  0  0  0
   -3.1050  -14.6240    1.1550 O   0  0  0  0  0  0  0  0  0  0  0  0
   -2.4500  -15.8290    1.3680 C   0  0  0  0  0  0  0  0  0  0  0  0
   -3.0250  -16.7340    2.1860 N   0  0  0  0  0  0  0  0  0  0  0  0
   -2.3570  -17.8670    2.3580 C   0  0  0  0  0  0  0  0  0  0  0  0
   -2.9060  -18.8070    3.1770 N   0  0  0  0  0  0  0  0  0  0  0  0
   -1.1910  -18.1490    1.7890 N   0  0  0  0  0  0  0  0  0  0  0  0
   -0.6490  -17.2390    0.9880 C   0  0  0  0  0  0  0  0  0  0  0  0
    0.5280  -17.5470    0.4260 N   0  0  0  0  0  0  0  0  0  0  0  0
    1.1000  -16.6340   -0.3950 C   0  0  0  0  0  0  0  0  0  0  0  0
    0.5140  -15.4150   -0.6620 C   0  0  0  0  0  0  0  0  0  0  0  0
    1.1090  -14.4510   -1.5240 C   0  0  0  0  0  0  0  0  0  0  0  0
    1.6070  -13.6340   -2.2500 C   0  0  0  0  0  0  0  0  0  0  0  0
    2.1960  -12.6500   -3.1060 C   0  0  0  0  0  0  0  0  0  0  0  0
    2.7760  -13.0320   -4.3170 C   0  0  0  0  0  0  0  0  0  0  0  0
    3.3500  -12.0690   -5.1500 C   0  0  0  0  0  0  0  0  0  0  0  0
    3.3440  -10.7260   -4.7730 C   0  0  0  0  0  0  0  0  0  0  0  0
    2.7650  -10.3430   -3.5620 C   0  0  0  0  0  0  0  0  0  0  0  0
    2.1900  -11.3050   -2.7280 C   0  0  0  0  0  0  0  0  0  0  0  0
   -0.6650  -15.0700   -0.1170 N   0  0  0  0  0  0  0  0  0  0  0  0
   -1.2400  -15.9970    0.7130 C   0  0  0  0  0  0  0  0  0  0  0  0
   -3.3229  -10.3537    0.9321 H   0  0  0  0  0  0  0  0  0  0  0  0
   -2.3365  -10.4922   -0.5628 H   0  0  0  0  0  0  0  0  0  0  0  0
   -3.8324   -9.4978   -0.5628 H   0  0  0  0  0  0  0  0  0  0  0  0
   -5.0931  -11.2872   -1.0770 H   0  0  0  0  0  0  0  0  0  0  0  0
   -3.5559  -12.2245   -1.2769 H   0  0  0  0  0  0  0  0  0  0  0  0
   -5.5289  -12.2092    0.9774 H   0  0  0  0  0  0  0  0  0  0  0  0
   -4.5256  -13.5503    0.2925 H   0  0  0  0  0  0  0  0  0  0  0  0
   -2.6995  -11.6825    1.4009 H   0  0  0  0  0  0  0  0  0  0  0  0
   -4.0421  -11.8879    2.6080 H   0  0  0  0  0  0  0  0  0  0  0  0
   -1.8543  -13.5464    2.4099 H   0  0  0  0  0  0  0  0  0  0  0  0
   -3.4353  -14.0124    3.1117 H   0  0  0  0  0  0  0  0  0  0  0  0
   -3.8570  -18.6890    3.4770 H   0  0  0  0  0  0  0  0  0  0  0  0
   -2.3320  -19.5850    3.4540 H   0  0  0  0  0  0  0  0  0  0  0  0
    2.0653  -16.8734   -0.8649 H   0  0  0  0  0  0  0  0  0  0  0  0
    2.7809  -14.0909   -4.6150 H   0  0  0  0  0  0  0  0  0  0  0  0
    3.8072  -12.3699   -6.1042 H   0  0  0  0  0  0  0  0  0  0  0  0
    3.7957   -9.9684   -5.4303 H   0  0  0  0  0  0  0  0  0  0  0  0
    2.7615   -9.2840   -3.2645 H   0  0  0  0  0  0  0  0  0  0  0  0
    1.7327  -11.0036   -1.7740 H   0  0  0  0  0  0  0  0  0  0  0  0
  1  2  1  0
  2  3  1  0
  3  4  1  0
  4  5  1  0
  5  6  1  0
  6  7  1  0
  7  8  2  0
  8  9  1  0
  9 10  1  0
  9 11  2  0
 11 12  1  0
 12 13  2  0
 13 14  1  0
 14 15  2  0
 15 16  1  0
 16 17  3  0
 17 18  1  0
 18 19  2  0
 19 20  1  0
 20 21  2  0
 21 22  1  0
 22 23  2  0
 15 24  1  0
 24 25  2  0
 25  7  1  0
 25 12  1  0
 23 18  1  0
  1 26  1  0
  1 27  1  0
  1 28  1  0
  2 29  1  0
  2 30  1  0
  3 31  1  0
  3 32  1  0
  4 33  1  0
  4 34  1  0
  5 35  1  0
  5 36  1  0
 10 37  1  0
 10 38  1  0
 14 39  1  0
 19 40  1  0
 20 41  1  0
 21 42  1  0
 22 43  1  0
 23 44  1  0
M  END
>  <meeko>  (1) 
{"is_sidechain": [false], "free_energy": -7.334, "intermolecular_energy": -10.121, "internal_energy": -0.555}

$$$$
LIB_IJCNVHLDCLZYKG__M_PUB_ALL__e8__s20260927
     RDKit          3D

 44 46  0  0  0  0  0  0  0  0999 V2000
   -5.8700  -13.3910    3.4790 C   0  0  0  0  0  0  0  0  0  0  0  0
   -4.6970  -13.1810    2.5340 C   0  0  0  0  0  0  0  0  0  0  0  0
   -5.1710  -12.9360    1.1020 C   0  0  0  0  0  0  0  0  0  0  0  0
   -3.9890  -12.8700    0.1300 C   0  0  0  0  0  0  0  0  0  0  0  0
   -2.8250  -13.7580    0.5730 C   0  0  0  0  0  0  0  0  0  0  0  0
   -2.8970  -14.9960   -0.1340 O   0  0  0  0  0  0  0  0  0  0  0  0
   -2.1550  -16.0210    0.4370 C   0  0  0  0  0  0  0  0  0  0  0  0
   -2.7520  -16.8090    1.3540 N   0  0  0  0  0  0  0  0  0  0  0  0
   -1.9980  -17.7710    1.8700 C   0  0  0  0  0  0  0  0  0  0  0  0
   -2.5660  -18.5880    2.8010 N   0  0  0  0  0  0  0  0  0  0  0  0
   -0.7310  -17.9930    1.5440 N   0  0  0  0  0  0  0  0  0  0  0  0
   -0.1690  -17.2010    0.6370 C   0  0  0  0  0  0  0  0  0  0  0  0
    1.1100  -17.4460    0.3260 N   0  0  0  0  0  0  0  0  0  0  0  0
    1.7040  -16.6510   -0.5970 C   0  0  0  0  0  0  0  0  0  0  0  0
    1.0370  -15.6140   -1.2130 C   0  0  0  0  0  0  0  0  0  0  0  0
    1.6540  -14.7750   -2.1830 C   0  0  0  0  0  0  0  0  0  0  0  0
    2.1700  -14.0650   -3.0030 C   0  0  0  0  0  0  0  0  0  0  0  0
    2.7900  -13.2320   -3.9870 C   0  0  0  0  0  0  0  0  0  0  0  0
    2.6560  -11.8430   -3.9150 C   0  0  0  0  0  0  0  0  0  0  0  0
    3.2620  -11.0330   -4.8780 C   0  0  0  0  0  0  0  0  0  0  0  0
    4.0030  -11.6090   -5.9100 C   0  0  0  0  0  0  0  0  0  0  0  0
    4.1380  -12.9960   -5.9820 C   0  0  0  0  0  0  0  0  0  0  0  0
    3.5310  -13.8080   -5.0210 C   0  0  0  0  0  0  0  0  0  0  0  0
   -0.2470  -15.3380   -0.9260 N   0  0  0  0  0  0  0  0  0  0  0  0
   -0.8430  -16.1440    0.0080 C   0  0  0  0  0  0  0  0  0  0  0  0
   -5.5185  -13.3281    4.5194 H   0  0  0  0  0  0  0  0  0  0  0  0
   -6.6282  -12.6143    3.3005 H   0  0  0  0  0  0  0  0  0  0  0  0
   -6.3117  -14.3825    3.3005 H   0  0  0  0  0  0  0  0  0  0  0  0
   -4.1162  -12.3103    2.8726 H   0  0  0  0  0  0  0  0  0  0  0  0
   -4.0784  -14.0905    2.5429 H   0  0  0  0  0  0  0  0  0  0  0  0
   -5.8384  -13.7565    0.7998 H   0  0  0  0  0  0  0  0  0  0  0  0
   -5.7012  -11.9727    1.0710 H   0  0  0  0  0  0  0  0  0  0  0  0
   -4.3283  -13.2002   -0.8629 H   0  0  0  0  0  0  0  0  0  0  0  0
   -3.6299  -11.8305    0.1058 H   0  0  0  0  0  0  0  0  0  0  0  0
   -1.8716  -13.2580    0.3472 H   0  0  0  0  0  0  0  0  0  0  0  0
   -2.8855  -13.9415    1.6559 H   0  0  0  0  0  0  0  0  0  0  0  0
   -2.0250  -19.3500    3.1680 H   0  0  0  0  0  0  0  0  0  0  0  0
   -3.5130  -18.3960    3.0830 H   0  0  0  0  0  0  0  0  0  0  0  0
    2.7544  -16.8398   -0.8636 H   0  0  0  0  0  0  0  0  0  0  0  0
    2.0736  -11.3878   -3.1004 H   0  0  0  0  0  0  0  0  0  0  0  0
    3.1548   -9.9396   -4.8226 H   0  0  0  0  0  0  0  0  0  0  0  0
    4.4809  -10.9698   -6.6670 H   0  0  0  0  0  0  0  0  0  0  0  0
    4.7226  -13.4501   -6.7957 H   0  0  0  0  0  0  0  0  0  0  0  0
    3.6367  -14.9014   -5.0788 H   0  0  0  0  0  0  0  0  0  0  0  0
  1  2  1  0
  2  3  1  0
  3  4  1  0
  4  5  1  0
  5  6  1  0
  6  7  1  0
  7  8  2  0
  8  9  1  0
  9 10  1  0
  9 11  2  0
 11 12  1  0
 12 13  2  0
 13 14  1  0
 14 15  2  0
 15 16  1  0
 16 17  3  0
 17 18  1  0
 18 19  2  0
 19 20  1  0
 20 21  2  0
 21 22  1  0
 22 23  2  0
 15 24  1  0
 24 25  2  0
 25  7  1  0
 25 12  1  0
 23 18  1  0
  1 26  1  0
  1 27  1  0
  1 28  1  0
  2 29  1  0
  2 30  1  0
  3 31  1  0
  3 32  1  0
  4 33  1  0
  4 34  1  0
  5 35  1  0
  5 36  1  0
 10 37  1  0
 10 38  1  0
 14 39  1  0
 19 40  1  0
 20 41  1  0
 21 42  1  0
 22 43  1  0
 23 44  1  0
M  END
>  <meeko>  (2) 
{"is_sidechain": [false], "free_energy": -7.059, "intermolecular_energy": -9.895, "internal_energy": -0.401}

$$$$
LIB_IJCNVHLDCLZYKG__M_PUB_ALL__e8__s20260927
     RDKit          3D

 44 46  0  0  0  0  0  0  0  0999 V2000
   18.5160  -18.8490    8.4450 C   0  0  0  0  0  0  0  0  0  0  0  0
   18.6290  -18.3330    9.8710 C   0  0  0  0  0  0  0  0  0  0  0  0
   17.3840  -18.6750   10.6890 C   0  0  0  0  0  0  0  0  0  0  0  0
   17.2600  -17.7650   11.9160 C   0  0  0  0  0  0  0  0  0  0  0  0
   16.0290  -18.0980   12.7610 C   0  0  0  0  0  0  0  0  0  0  0  0
   15.2680  -16.9060   12.9530 O   0  0  0  0  0  0  0  0  0  0  0  0
   13.9020  -17.0660   12.7620 C   0  0  0  0  0  0  0  0  0  0  0  0
   13.3840  -18.3080   12.8510 N   0  0  0  0  0  0  0  0  0  0  0  0
   12.0750  -18.4050   12.6580 C   0  0  0  0  0  0  0  0  0  0  0  0
   11.5150  -19.6440   12.7400 N   0  0  0  0  0  0  0  0  0  0  0  0
   11.2740  -17.3810   12.3890 N   0  0  0  0  0  0  0  0  0  0  0  0
   11.8120  -16.1690   12.3070 C   0  0  0  0  0  0  0  0  0  0  0  0
   10.9830  -15.1530   12.0340 N   0  0  0  0  0  0  0  0  0  0  0  0
   11.5100  -13.9080   11.9460 C   0  0  0  0  0  0  0  0  0  0  0  0
   12.8540  -13.6630   12.1260 C   0  0  0  0  0  0  0  0  0  0  0  0
   13.4150  -12.3580   12.0350 C   0  0  0  0  0  0  0  0  0  0  0  0
   13.8920  -11.2590   11.9600 C   0  0  0  0  0  0  0  0  0  0  0  0
   14.4730   -9.9540   11.8790 C   0  0  0  0  0  0  0  0  0  0  0  0
   13.7900   -8.9210   11.2340 C   0  0  0  0  0  0  0  0  0  0  0  0
   14.3600   -7.6480   11.1570 C   0  0  0  0  0  0  0  0  0  0  0  0
   15.6120   -7.4080   11.7230 C   0  0  0  0  0  0  0  0  0  0  0  0
   16.2960   -8.4400   12.3680 C   0  0  0  0  0  0  0  0  0  0  0  0
   15.7270   -9.7130   12.4460 C   0  0  0  0  0  0  0  0  0  0  0  0
   13.7170  -14.6570   12.4000 N   0  0  0  0  0  0  0  0  0  0  0  0
   13.1800  -15.9150   12.4880 C   0  0  0  0  0  0  0  0  0  0  0  0
   18.2807  -19.9234    8.4614 H   0  0  0  0  0  0  0  0  0  0  0  0
   17.7154  -18.3063    7.9210 H   0  0  0  0  0  0  0  0  0  0  0  0
   19.4701  -18.6906    7.9210 H   0  0  0  0  0  0  0  0  0  0  0  0
   19.5078  -18.7910   10.3486 H   0  0  0  0  0  0  0  0  0  0  0  0
   18.7296  -17.2382    9.8357 H   0  0  0  0  0  0  0  0  0  0  0  0
   16.4930  -18.5480   10.0565 H   0  0  0  0  0  0  0  0  0  0  0  0
   17.4692  -19.7159   11.0344 H   0  0  0  0  0  0  0  0  0  0  0  0
   18.1594  -17.8846   12.5379 H   0  0  0  0  0  0  0  0  0  0  0  0
   17.1544  -16.7299   11.5592 H   0  0  0  0  0  0  0  0  0  0  0  0
   15.4156  -18.8487   12.2412 H   0  0  0  0  0  0  0  0  0  0  0  0
   16.3419  -18.5031   13.7347 H   0  0  0  0  0  0  0  0  0  0  0  0
   11.3660  -20.1640   11.8940 H   0  0  0  0  0  0  0  0  0  0  0  0
   11.2670  -19.9900   13.6520 H   0  0  0  0  0  0  0  0  0  0  0  0
   10.8417  -13.0632   11.7231 H   0  0  0  0  0  0  0  0  0  0  0  0
   12.8030   -9.1096   10.7865 H   0  0  0  0  0  0  0  0  0  0  0  0
   13.8211   -6.8343   10.6496 H   0  0  0  0  0  0  0  0  0  0  0  0
   16.0605   -6.4055   11.6611 H   0  0  0  0  0  0  0  0  0  0  0  0
   17.2831   -8.2505   12.8148 H   0  0  0  0  0  0  0  0  0  0  0  0
   16.2662  -10.5261   12.9540 H   0  0  0  0  0  0  0  0  0  0  0  0
  1  2  1  0
  2  3  1  0
  3  4  1  0
  4  5  1  0
  5  6  1  0
  6  7  1  0
  7  8  2  0
  8  9  1  0
  9 10  1  0
  9 11  2  0
 11 12  1  0
 12 13  2  0
 13 14  1  0
 14 15  2  0
 15 16  1  0
 16 17  3  0
 17 18  1  0
 18 19  2  0
 19 20  1  0
 20 21  2  0
 21 22  1  0
 22 23  2  0
 15 24  1  0
 24 25  2  0
 25  7  1  0
 25 12  1  0
 23 18  1  0
  1 26  1  0
  1 27  1  0
  1 28  1  0
  2 29  1  0
  2 30  1  0
  3 31  1  0
  3 32  1  0
  4 33  1  0
  4 34  1  0
  5 35  1  0
  5 36  1  0
 10 37  1  0
 10 38  1  0
 14 39  1  0
 19 40  1  0
 20 41  1  0
 21 42  1  0
 22 43  1  0
 23 44  1  0
M  END
>  <meeko>  (3) 
{"is_sidechain": [false], "free_energy": -6.984, "intermolecular_energy": -9.777, "internal_energy": -0.415}

$$$$
LIB_IJCNVHLDCLZYKG__M_PUB_ALL__e8__s20260927
     RDKit          3D

 44 46  0  0  0  0  0  0  0  0999 V2000
   -2.6440  -16.2990    0.3770 C   0  0  0  0  0  0  0  0  0  0  0  0
   -3.0090  -16.5780    1.8260 C   0  0  0  0  0  0  0  0  0  0  0  0
   -2.6350  -18.0030    2.2330 C   0  0  0  0  0  0  0  0  0  0  0  0
   -3.3140  -18.4000    3.5470 C   0  0  0  0  0  0  0  0  0  0  0  0
   -2.3060  -18.8390    4.6100 C   0  0  0  0  0  0  0  0  0  0  0  0
   -0.9960  -18.4680    4.1820 O   0  0  0  0  0  0  0  0  0  0  0  0
   -0.2490  -17.8030    5.1440 C   0  0  0  0  0  0  0  0  0  0  0  0
    0.3790  -18.5360    6.0860 N   0  0  0  0  0  0  0  0  0  0  0  0
    1.0760  -17.8510    6.9830 C   0  0  0  0  0  0  0  0  0  0  0  0
    1.7260  -18.5570    7.9510 N   0  0  0  0  0  0  0  0  0  0  0  0
    1.1850  -16.5280    7.0060 N   0  0  0  0  0  0  0  0  0  0  0  0
    0.5550  -15.8320    6.0660 C   0  0  0  0  0  0  0  0  0  0  0  0
    0.6800  -14.5000    6.1100 N   0  0  0  0  0  0  0  0  0  0  0  0
    0.0460  -13.7690    5.1610 C   0  0  0  0  0  0  0  0  0  0  0  0
   -0.7120  -14.3510    4.1680 C   0  0  0  0  0  0  0  0  0  0  0  0
   -1.3810  -13.5910    3.1680 C   0  0  0  0  0  0  0  0  0  0  0  0
   -1.9460  -12.9530    2.3220 C   0  0  0  0  0  0  0  0  0  0  0  0
   -2.6100  -12.1810    1.3160 C   0  0  0  0  0  0  0  0  0  0  0  0
   -3.6620  -12.7380    0.5860 C   0  0  0  0  0  0  0  0  0  0  0  0
   -4.3080  -11.9820   -0.3950 C   0  0  0  0  0  0  0  0  0  0  0  0
   -3.9030  -10.6710   -0.6450 C   0  0  0  0  0  0  0  0  0  0  0  0
   -2.8530  -10.1130    0.0840 C   0  0  0  0  0  0  0  0  0  0  0  0
   -2.2050  -10.8680    1.0650 C   0  0  0  0  0  0  0  0  0  0  0  0
   -0.8620  -15.6850    4.0920 N   0  0  0  0  0  0  0  0  0  0  0  0
   -0.2190  -16.4200    5.0540 C   0  0  0  0  0  0  0  0  0  0  0  0
   -1.7705  -15.6313    0.3409 H   0  0  0  0  0  0  0  0  0  0  0  0
   -2.4032  -17.2454   -0.1292 H   0  0  0  0  0  0  0  0  0  0  0  0
   -3.4941  -15.8183   -0.1292 H   0  0  0  0  0  0  0  0  0  0  0  0
   -2.4719  -15.8688    2.4729 H   0  0  0  0  0  0  0  0  0  0  0  0
   -4.0972  -16.4617    1.9365 H   0  0  0  0  0  0  0  0  0  0  0  0
   -2.9524  -18.6973    1.4411 H   0  0  0  0  0  0  0  0  0  0  0  0
   -1.5453  -18.0497    2.3760 H   0  0  0  0  0  0  0  0  0  0  0  0
   -3.8779  -17.5363    3.9291 H   0  0  0  0  0  0  0  0  0  0  0  0
   -3.9778  -19.2523    3.3394 H   0  0  0  0  0  0  0  0  0  0  0  0
   -2.5369  -18.3446    5.5651 H   0  0  0  0  0  0  0  0  0  0  0  0
   -2.3595  -19.9289    4.7486 H   0  0  0  0  0  0  0  0  0  0  0  0
    2.7260  -18.4890    8.0080 H   0  0  0  0  0  0  0  0  0  0  0  0
    1.1740  -19.1240    8.5720 H   0  0  0  0  0  0  0  0  0  0  0  0
    0.1397  -12.6732    5.1842 H   0  0  0  0  0  0  0  0  0  0  0  0
   -3.9819  -13.7718    0.7834 H   0  0  0  0  0  0  0  0  0  0  0  0
   -5.1364  -12.4208   -0.9705 H   0  0  0  0  0  0  0  0  0  0  0  0
   -4.4122  -10.0765   -1.4179 H   0  0  0  0  0  0  0  0  0  0  0  0
   -2.5351   -9.0786   -0.1133 H   0  0  0  0  0  0  0  0  0  0  0  0
   -1.3762  -10.4285    1.6394 H   0  0  0  0  0  0  0  0  0  0  0  0
  1  2  1  0
  2  3  1  0
  3  4  1  0
  4  5  1  0
  5  6  1  0
  6  7  1  0
  7  8  2  0
  8  9  1  0
  9 10  1  0
  9 11  2  0
 11 12  1  0
 12 13  2  0
 13 14  1  0
 14 15  2  0
 15 16  1  0
 16 17  3  0
 17 18  1  0
 18 19  2  0
 19 20  1  0
 20 21  2  0
 21 22  1  0
 22 23  2  0
 15 24  1  0
 24 25  2  0
 25  7  1  0
 25 12  1  0
 23 18  1  0
  1 26  1  0
  1 27  1  0
  1 28  1  0
  2 29  1  0
  2 30  1  0
  3 31  1  0
  3 32  1  0
  4 33  1  0
  4 34  1  0
  5 35  1  0
  5 36  1  0
 10 37  1  0
 10 38  1  0
 14 39  1  0
 19 40  1  0
 20 41  1  0
 21 42  1  0
 22 43  1  0
 23 44  1  0
M  END
>  <meeko>  (4) 
{"is_sidechain": [false], "free_energy": -6.738, "intermolecular_energy": -8.857, "internal_energy": -0.996}

$$$$
LIB_IJCNVHLDCLZYKG__M_PUB_ALL__e8__s20260927
     RDKit          3D

 44 46  0  0  0  0  0  0  0  0999 V2000
    0.6830  -10.5320   -0.3690 C   0  0  0  0  0  0  0  0  0  0  0  0
   -0.7470  -10.3950    0.1290 C   0  0  0  0  0  0  0  0  0  0  0  0
   -0.7910  -10.1010    1.6290 C   0  0  0  0  0  0  0  0  0  0  0  0
   -1.8160  -10.9910    2.3390 C   0  0  0  0  0  0  0  0  0  0  0  0
   -1.1640  -11.9200    3.3640 C   0  0  0  0  0  0  0  0  0  0  0  0
   -0.4240  -12.9230    2.6700 O   0  0  0  0  0  0  0  0  0  0  0  0
   -1.1630  -14.0500    2.3390 C   0  0  0  0  0  0  0  0  0  0  0  0
   -2.0020  -14.5590    3.2640 N   0  0  0  0  0  0  0  0  0  0  0  0
   -2.6820  -15.6380    2.8980 C   0  0  0  0  0  0  0  0  0  0  0  0
   -3.5410  -16.1810    3.8060 N   0  0  0  0  0  0  0  0  0  0  0  0
   -2.5840  -16.2250    1.7120 N   0  0  0  0  0  0  0  0  0  0  0  0
   -1.7490  -15.7020    0.8210 C   0  0  0  0  0  0  0  0  0  0  0  0
   -1.6690  -16.3130   -0.3680 N   0  0  0  0  0  0  0  0  0  0  0  0
   -0.8230  -15.7970   -1.2930 C   0  0  0  0  0  0  0  0  0  0  0  0
   -0.0570  -14.6790   -1.0460 C   0  0  0  0  0  0  0  0  0  0  0  0
    0.8330  -14.1300   -2.0130 C   0  0  0  0  0  0  0  0  0  0  0  0
    1.5850  -13.6640   -2.8250 C   0  0  0  0  0  0  0  0  0  0  0  0
    2.4750  -13.0940   -3.7890 C   0  0  0  0  0  0  0  0  0  0  0  0
    3.2240  -13.9220   -4.6280 C   0  0  0  0  0  0  0  0  0  0  0  0
    4.0930  -13.3620   -5.5670 C   0  0  0  0  0  0  0  0  0  0  0  0
    4.2130  -11.9760   -5.6680 C   0  0  0  0  0  0  0  0  0  0  0  0
    3.4660  -11.1470   -4.8290 C   0  0  0  0  0  0  0  0  0  0  0  0
    2.5970  -11.7060   -3.8900 C   0  0  0  0  0  0  0  0  0  0  0  0
   -0.1100  -14.0390    0.1350 N   0  0  0  0  0  0  0  0  0  0  0  0
   -0.9660  -14.5650    1.0680 C   0  0  0  0  0  0  0  0  0  0  0  0
    1.3660  -10.5974    0.4908 H   0  0  0  0  0  0  0  0  0  0  0  0
    0.7731  -11.4429   -0.9790 H   0  0  0  0  0  0  0  0  0  0  0  0
    0.9444   -9.6548   -0.9790 H   0  0  0  0  0  0  0  0  0  0  0  0
   -1.2366   -9.5714   -0.4114 H   0  0  0  0  0  0  0  0  0  0  0  0
   -1.2688  -11.3463   -0.0522 H   0  0  0  0  0  0  0  0  0  0  0  0
    0.2040  -10.2858    2.0600 H   0  0  0  0  0  0  0  0  0  0  0  0
   -1.0859   -9.0506    1.7692 H   0  0  0  0  0  0  0  0  0  0  0  0
   -2.5445  -10.3491    2.8559 H   0  0  0  0  0  0  0  0  0  0  0  0
   -2.3033  -11.6178    1.5776 H   0  0  0  0  0  0  0  0  0  0  0  0
   -0.4870  -11.3413    4.0095 H   0  0  0  0  0  0  0  0  0  0  0  0
   -1.9383  -12.3910    3.9874 H   0  0  0  0  0  0  0  0  0  0  0  0
   -4.5240  -16.0070    3.7030 H   0  0  0  0  0  0  0  0  0  0  0  0
   -3.1520  -16.7360    4.5490 H   0  0  0  0  0  0  0  0  0  0  0  0
   -0.7455  -16.2878   -2.2744 H   0  0  0  0  0  0  0  0  0  0  0  0
    3.1295  -15.0151   -4.5492 H   0  0  0  0  0  0  0  0  0  0  0  0
    4.6832  -14.0144   -6.2274 H   0  0  0  0  0  0  0  0  0  0  0  0
    4.8965  -11.5359   -6.4090 H   0  0  0  0  0  0  0  0  0  0  0  0
    3.5620  -10.0540   -4.9077 H   0  0  0  0  0  0  0  0  0  0  0  0
    2.0080  -11.0530   -3.2292 H   0  0  0  0  0  0  0  0  0  0  0  0
  1  2  1  0
  2  3  1  0
  3  4  1  0
  4  5  1  0
  5  6  1  0
  6  7  1  0
  7  8  2  0
  8  9  1  0
  9 10  1  0
  9 11  2  0
 11 12  1  0
 12 13  2  0
 13 14  1  0
 14 15  2  0
 15 16  1  0
 16 17  3  0
 17 18  1  0
 18 19  2  0
 19 20  1  0
 20 21  2  0
 21 22  1  0
 22 23  2  0
 15 24  1  0
 24 25  2  0
 25  7  1  0
 25 12  1  0
 23 18  1  0
  1 26  1  0
  1 27  1  0
  1 28  1  0
  2 29  1  0
  2 30  1  0
  3 31  1  0
  3 32  1  0
  4 33  1  0
  4 34  1  0
  5 35  1  0
  5 36  1  0
 10 37  1  0
 10 38  1  0
 14 39  1  0
 19 40  1  0
 20 41  1  0
 21 42  1  0
 22 43  1  0
 23 44  1  0
M  END
>  <meeko>  (5) 
{"is_sidechain": [false], "free_energy": -6.581, "intermolecular_energy": -8.643, "internal_energy": -0.993}

$$$$
LIB_IJCNVHLDCLZYKG__M_PUB_ALL__e8__s20260927
     RDKit          3D

 44 46  0  0  0  0  0  0  0  0999 V2000
   16.6170  -16.1430  -12.1920 C   0  0  0  0  0  0  0  0  0  0  0  0
   16.1860  -15.4990  -10.8840 C   0  0  0  0  0  0  0  0  0  0  0  0
   15.0160  -14.5380  -11.0940 C   0  0  0  0  0  0  0  0  0  0  0  0
   14.3660  -14.1570   -9.7600 C   0  0  0  0  0  0  0  0  0  0  0  0
   13.7490  -12.7570   -9.7960 C   0  0  0  0  0  0  0  0  0  0  0  0
   13.0730  -12.5860  -11.0420 O   0  0  0  0  0  0  0  0  0  0  0  0
   11.7030  -12.7990  -10.9800 C   0  0  0  0  0  0  0  0  0  0  0  0
   11.2600  -14.0470  -10.7300 N   0  0  0  0  0  0  0  0  0  0  0  0
    9.9420  -14.1970  -10.6840 C   0  0  0  0  0  0  0  0  0  0  0  0
    9.4560  -15.4440  -10.4340 N   0  0  0  0  0  0  0  0  0  0  0  0
    9.0650  -13.2170  -10.8660 N   0  0  0  0  0  0  0  0  0  0  0  0
    9.5310  -11.9970  -11.1110 C   0  0  0  0  0  0  0  0  0  0  0  0
    8.6260  -11.0260  -11.2910 N   0  0  0  0  0  0  0  0  0  0  0  0
    9.0780   -9.7730  -11.5420 C   0  0  0  0  0  0  0  0  0  0  0  0
   10.4220   -9.4770  -11.6160 C   0  0  0  0  0  0  0  0  0  0  0  0
   10.9040   -8.1640  -11.8790 C   0  0  0  0  0  0  0  0  0  0  0  0
   11.3150   -7.0570  -12.0990 C   0  0  0  0  0  0  0  0  0  0  0  0
   11.7960   -5.7330  -12.3510 C   0  0  0  0  0  0  0  0  0  0  0  0
   12.7390   -5.5090  -13.3560 C   0  0  0  0  0  0  0  0  0  0  0  0
   13.2070   -4.2160  -13.5990 C   0  0  0  0  0  0  0  0  0  0  0  0
   12.7320   -3.1470  -12.8380 C   0  0  0  0  0  0  0  0  0  0  0  0
   11.7900   -3.3700  -11.8330 C   0  0  0  0  0  0  0  0  0  0  0  0
   11.3220   -4.6630  -11.5890 C   0  0  0  0  0  0  0  0  0  0  0  0
   11.3590  -10.4250  -11.4420 N   0  0  0  0  0  0  0  0  0  0  0  0
   10.8970  -11.6900  -11.1880 C   0  0  0  0  0  0  0  0  0  0  0  0
   17.2172  -17.0398  -11.9788 H   0  0  0  0  0  0  0  0  0  0  0  0
   15.7264  -16.4271  -12.7718 H   0  0  0  0  0  0  0  0  0  0  0  0
   17.2192  -15.4280  -12.7718 H   0  0  0  0  0  0  0  0  0  0  0  0
   15.8796  -16.2875  -10.1808 H   0  0  0  0  0  0  0  0  0  0  0  0
   17.0359  -14.9271  -10.4833 H   0  0  0  0  0  0  0  0  0  0  0  0
   15.3845  -13.6263  -11.5870 H   0  0  0  0  0  0  0  0  0  0  0  0
   14.2617  -15.0387  -11.7187 H   0  0  0  0  0  0  0  0  0  0  0  0
   13.5755  -14.8866   -9.5301 H   0  0  0  0  0  0  0  0  0  0  0  0
   15.1507  -14.1602   -8.9891 H   0  0  0  0  0  0  0  0  0  0  0  0
   13.0329  -12.6468   -8.9683 H   0  0  0  0  0  0  0  0  0  0  0  0
   14.5375  -11.9973   -9.6903 H   0  0  0  0  0  0  0  0  0  0  0  0
    9.1200  -15.9950  -11.2030 H   0  0  0  0  0  0  0  0  0  0  0  0
    9.4500  -15.7660   -9.4800 H   0  0  0  0  0  0  0  0  0  0  0  0
    8.3471   -8.9647  -11.6918 H   0  0  0  0  0  0  0  0  0  0  0  0
   13.1133   -6.3512  -13.9565 H   0  0  0  0  0  0  0  0  0  0  0  0
   13.9503   -4.0400  -14.3905 H   0  0  0  0  0  0  0  0  0  0  0  0
   13.1002   -2.1285  -13.0304 H   0  0  0  0  0  0  0  0  0  0  0  0
   11.4160   -2.5274  -11.2329 H   0  0  0  0  0  0  0  0  0  0  0  0
   10.5798   -4.8387  -10.7964 H   0  0  0  0  0  0  0  0  0  0  0  0
  1  2  1  0
  2  3  1  0
  3  4  1  0
  4  5  1  0
  5  6  1  0
  6  7  1  0
  7  8  2  0
  8  9  1  0
  9 10  1  0
  9 11  2  0
 11 12  1  0
 12 13  2  0
 13 14  1  0
 14 15  2  0
 15 16  1  0
 16 17  3  0
 17 18  1  0
 18 19  2  0
 19 20  1  0
 20 21  2  0
 21 22  1  0
 22 23  2  0
 15 24  1  0
 24 25  2  0
 25  7  1  0
 25 12  1  0
 23 18  1  0
  1 26  1  0
  1 27  1  0
  1 28  1  0
  2 29  1  0
  2 30  1  0
  3 31  1  0
  3 32  1  0
  4 33  1  0
  4 34  1  0
  5 35  1  0
  5 36  1  0
 10 37  1  0
 10 38  1  0
 14 39  1  0
 19 40  1  0
 20 41  1  0
 21 42  1  0
 22 43  1  0
 23 44  1  0
M  END
>  <meeko>  (6) 
{"is_sidechain": [false], "free_energy": -6.444, "intermolecular_energy": -9.144, "internal_energy": -0.303}

$$$$
LIB_IJCNVHLDCLZYKG__M_PUB_ALL__e8__s20260927
     RDKit          3D

 44 46  0  0  0  0  0  0  0  0999 V2000
   -5.2990  -13.0990    2.9460 C   0  0  0  0  0  0  0  0  0  0  0  0
   -3.9460  -13.4800    2.3670 C   0  0  0  0  0  0  0  0  0  0  0  0
   -2.8620  -12.4830    2.7760 C   0  0  0  0  0  0  0  0  0  0  0  0
   -1.4840  -12.9250    2.2740 C   0  0  0  0  0  0  0  0  0  0  0  0
   -0.4910  -13.1370    3.4180 C   0  0  0  0  0  0  0  0  0  0  0  0
   -0.8920  -14.2840    4.1670 O   0  0  0  0  0  0  0  0  0  0  0  0
   -0.6400  -15.4930    3.5350 C   0  0  0  0  0  0  0  0  0  0  0  0
    0.5720  -15.6810    2.9730 N   0  0  0  0  0  0  0  0  0  0  0  0
    0.7590  -16.8530    2.3790 C   0  0  0  0  0  0  0  0  0  0  0  0
    1.9720  -17.0800    1.8000 N   0  0  0  0  0  0  0  0  0  0  0  0
   -0.1490  -17.8170    2.3090 N   0  0  0  0  0  0  0  0  0  0  0  0
   -1.3340  -17.6040    2.8710 C   0  0  0  0  0  0  0  0  0  0  0  0
   -2.2340  -18.5920    2.7860 N   0  0  0  0  0  0  0  0  0  0  0  0
   -3.4490  -18.3970    3.3530 C   0  0  0  0  0  0  0  0  0  0  0  0
   -3.7790  -17.2270    4.0030 C   0  0  0  0  0  0  0  0  0  0  0  0
   -5.0530  -17.0140    4.6000 C   0  0  0  0  0  0  0  0  0  0  0  0
   -6.1270  -16.8310    5.1060 C   0  0  0  0  0  0  0  0  0  0  0  0
   -7.4120  -16.6160    5.6960 C   0  0  0  0  0  0  0  0  0  0  0  0
   -7.5130  -16.2010    7.0260 C   0  0  0  0  0  0  0  0  0  0  0  0
   -8.7700  -15.9920    7.5990 C   0  0  0  0  0  0  0  0  0  0  0  0
   -9.9250  -16.1980    6.8430 C   0  0  0  0  0  0  0  0  0  0  0  0
   -9.8250  -16.6130    5.5150 C   0  0  0  0  0  0  0  0  0  0  0  0
   -8.5690  -16.8230    4.9410 C   0  0  0  0  0  0  0  0  0  0  0  0
   -2.9030  -16.2130    4.1070 N   0  0  0  0  0  0  0  0  0  0  0  0
   -1.6750  -16.4150    3.5320 C   0  0  0  0  0  0  0  0  0  0  0  0
   -5.2451  -13.1142    4.0446 H   0  0  0  0  0  0  0  0  0  0  0  0
   -5.5720  -12.0890    2.6062 H   0  0  0  0  0  0  0  0  0  0  0  0
   -6.0589  -13.8181    2.6062 H   0  0  0  0  0  0  0  0  0  0  0  0
   -3.6690  -14.4796    2.7331 H   0  0  0  0  0  0  0  0  0  0  0  0
   -4.0254  -13.4734    1.2699 H   0  0  0  0  0  0  0  0  0  0  0  0
   -3.1007  -11.4981    2.3481 H   0  0  0  0  0  0  0  0  0  0  0  0
   -2.8324  -12.4322    3.8744 H   0  0  0  0  0  0  0  0  0  0  0  0
   -1.5948  -13.8699    1.7219 H   0  0  0  0  0  0  0  0  0  0  0  0
   -1.0887  -12.1270    1.6283 H   0  0  0  0  0  0  0  0  0  0  0  0
    0.5171  -13.2969    3.0079 H   0  0  0  0  0  0  0  0  0  0  0  0
   -0.4761  -12.2509    4.0697 H   0  0  0  0  0  0  0  0  0  0  0  0
    2.0180  -17.1850    0.8030 H   0  0  0  0  0  0  0  0  0  0  0  0
    2.7770  -17.1380    2.4000 H   0  0  0  0  0  0  0  0  0  0  0  0
   -4.1981  -19.2002    3.2926 H   0  0  0  0  0  0  0  0  0  0  0  0
   -6.6029  -16.0388    7.6222 H   0  0  0  0  0  0  0  0  0  0  0  0
   -8.8494  -15.6650    8.6463 H   0  0  0  0  0  0  0  0  0  0  0  0
  -10.9144  -16.0331    7.2945 H   0  0  0  0  0  0  0  0  0  0  0  0
  -10.7356  -16.7750    4.9196 H   0  0  0  0  0  0  0  0  0  0  0  0
   -8.4909  -17.1515    3.8941 H   0  0  0  0  0  0  0  0  0  0  0  0
  1  2  1  0
  2  3  1  0
  3  4  1  0
  4  5  1  0
  5  6  1  0
  6  7  1  0
  7  8  2  0
  8  9  1  0
  9 10  1  0
  9 11  2  0
 11 12  1  0
 12 13  2  0
 13 14  1  0
 14 15  2  0
 15 16  1  0
 16 17  3  0
 17 18  1  0
 18 19  2  0
 19 20  1  0
 20 21  2  0
 21 22  1  0
 22 23  2  0
 15 24  1  0
 24 25  2  0
 25  7  1  0
 25 12  1  0
 23 18  1  0
  1 26  1  0
  1 27  1  0
  1 28  1  0
  2 29  1  0
  2 30  1  0
  3 31  1  0
  3 32  1  0
  4 33  1  0
  4 34  1  0
  5 35  1  0
  5 36  1  0
 10 37  1  0
 10 38  1  0
 14 39  1  0
 19 40  1  0
 20 41  1  0
 21 42  1  0
 22 43  1  0
 23 44  1  0
M  END
>  <meeko>  (7) 
{"is_sidechain": [false], "free_energy": -6.432, "intermolecular_energy": -8.596, "internal_energy": -0.835}

$$$$
LIB_IJCNVHLDCLZYKG__M_PUB_ALL__e8__s20260927
     RDKit          3D

 44 46  0  0  0  0  0  0  0  0999 V2000
   -1.8360   -9.2650    2.5310 C   0  0  0  0  0  0  0  0  0  0  0  0
   -1.4920  -10.5830    3.2060 C   0  0  0  0  0  0  0  0  0  0  0  0
   -1.9510  -11.7760    2.3690 C   0  0  0  0  0  0  0  0  0  0  0  0
   -1.4390  -11.6740    0.9290 C   0  0  0  0  0  0  0  0  0  0  0  0
   -1.1090  -13.0440    0.3330 C   0  0  0  0  0  0  0  0  0  0  0  0
   -1.9620  -14.0210    0.9290 O   0  0  0  0  0  0  0  0  0  0  0  0
   -1.4510  -15.3120    0.9070 C   0  0  0  0  0  0  0  0  0  0  0  0
   -0.4550  -15.5920    0.0420 N   0  0  0  0  0  0  0  0  0  0  0  0
   -0.0060  -16.8400    0.0600 C   0  0  0  0  0  0  0  0  0  0  0  0
    1.0010  -17.1610   -0.7990 N   0  0  0  0  0  0  0  0  0  0  0  0
   -0.4680  -17.7970    0.8550 N   0  0  0  0  0  0  0  0  0  0  0  0
   -1.4500  -17.4920    1.6970 C   0  0  0  0  0  0  0  0  0  0  0  0
   -1.9000  -18.4750    2.4880 N   0  0  0  0  0  0  0  0  0  0  0  0
   -2.9010  -18.1870    3.3550 C   0  0  0  0  0  0  0  0  0  0  0  0
   -3.4600  -16.9310    3.4420 C   0  0  0  0  0  0  0  0  0  0  0  0
   -4.5120  -16.6210    4.3490 C   0  0  0  0  0  0  0  0  0  0  0  0
   -5.3990  -16.3550    5.1140 C   0  0  0  0  0  0  0  0  0  0  0  0
   -6.4640  -16.0460    6.0180 C   0  0  0  0  0  0  0  0  0  0  0  0
   -6.2480  -15.1730    7.0850 C   0  0  0  0  0  0  0  0  0  0  0  0
   -7.2900  -14.8740    7.9660 C   0  0  0  0  0  0  0  0  0  0  0  0
   -8.5490  -15.4480    7.7780 C   0  0  0  0  0  0  0  0  0  0  0  0
   -8.7660  -16.3210    6.7110 C   0  0  0  0  0  0  0  0  0  0  0  0
   -7.7240  -16.6200    5.8310 C   0  0  0  0  0  0  0  0  0  0  0  0
   -3.0360  -15.9200    2.6640 N   0  0  0  0  0  0  0  0  0  0  0  0
   -2.0240  -16.2150    1.7880 C   0  0  0  0  0  0  0  0  0  0  0  0
   -2.0353   -8.5016    3.2975 H   0  0  0  0  0  0  0  0  0  0  0  0
   -0.9918   -8.9431    1.9036 H   0  0  0  0  0  0  0  0  0  0  0  0
   -2.7299   -9.3967    1.9036 H   0  0  0  0  0  0  0  0  0  0  0  0
   -0.4021  -10.6407    3.3434 H   0  0  0  0  0  0  0  0  0  0  0  0
   -2.0109  -10.6207    4.1752 H   0  0  0  0  0  0  0  0  0  0  0  0
   -1.5654  -12.7013    2.8219 H   0  0  0  0  0  0  0  0  0  0  0  0
   -3.0508  -11.7829    2.3473 H   0  0  0  0  0  0  0  0  0  0  0  0
   -2.2135  -11.1963    0.3109 H   0  0  0  0  0  0  0  0  0  0  0  0
   -0.5132  -11.0801    0.9417 H   0  0  0  0  0  0  0  0  0  0  0  0
   -1.2731  -13.0236   -0.7545 H   0  0  0  0  0  0  0  0  0  0  0  0
   -0.0566  -13.2949    0.5315 H   0  0  0  0  0  0  0  0  0  0  0  0
    1.7670  -16.5210   -0.9050 H   0  0  0  0  0  0  0  0  0  0  0  0
    0.9340  -18.0310   -1.3000 H   0  0  0  0  0  0  0  0  0  0  0  0
   -3.2802  -18.9837    4.0119 H   0  0  0  0  0  0  0  0  0  0  0  0
   -5.2565  -14.7200    7.2324 H   0  0  0  0  0  0  0  0  0  0  0  0
   -7.1188  -14.1866    8.8076 H   0  0  0  0  0  0  0  0  0  0  0  0
   -9.3699  -15.2120    8.4711 H   0  0  0  0  0  0  0  0  0  0  0  0
   -9.7577  -16.7734    6.5633 H   0  0  0  0  0  0  0  0  0  0  0  0
   -7.8952  -17.3079    4.9899 H   0  0  0  0  0  0  0  0  0  0  0  0
  1  2  1  0
  2  3  1  0
  3  4  1  0
  4  5  1  0
  5  6  1  0
  6  7  1  0
  7  8  2  0
  8  9  1  0
  9 10  1  0
  9 11  2  0
 11 12  1  0
 12 13  2  0
 13 14  1  0
 14 15  2  0
 15 16  1  0
 16 17  3  0
 17 18  1  0
 18 19  2  0
 19 20  1  0
 20 21  2  0
 21 22  1  0
 22 23  2  0
 15 24  1  0
 24 25  2  0
 25  7  1  0
 25 12  1  0
 23 18  1  0
  1 26  1  0
  1 27  1  0
  1 28  1  0
  2 29  1  0
  2 30  1  0
  3 31  1  0
  3 32  1  0
  4 33  1  0
  4 34  1  0
  5 35  1  0
  5 36  1  0
 10 37  1  0
 10 38  1  0
 14 39  1  0
 19 40  1  0
 20 41  1  0
 21 42  1  0
 22 43  1  0
 23 44  1  0
M  END
>  <meeko>  (8) 
{"is_sidechain": [false], "free_energy": -6.253, "intermolecular_energy": -8.696, "internal_energy": -0.489}

$$$$
LIB_IJCNVHLDCLZYKG__M_PUB_ALL__e8__s20260927
     RDKit          3D

 44 46  0  0  0  0  0  0  0  0999 V2000
    2.8960  -10.3210   -3.9470 C   0  0  0  0  0  0  0  0  0  0  0  0
    2.9490  -11.7520   -3.4340 C   0  0  0  0  0  0  0  0  0  0  0  0
    4.0170  -12.5670   -4.1610 C   0  0  0  0  0  0  0  0  0  0  0  0
    5.4090  -11.9560   -3.9680 C   0  0  0  0  0  0  0  0  0  0  0  0
    6.5050  -13.0220   -3.9040 C   0  0  0  0  0  0  0  0  0  0  0  0
    6.2600  -13.8650   -2.7780 O   0  0  0  0  0  0  0  0  0  0  0  0
    7.0040  -13.5410   -1.6520 C   0  0  0  0  0  0  0  0  0  0  0  0
    8.3270  -13.8050   -1.6610 N   0  0  0  0  0  0  0  0  0  0  0  0
    8.9900  -13.4790   -0.5590 C   0  0  0  0  0  0  0  0  0  0  0  0
   10.3290  -13.7310   -0.5300 N   0  0  0  0  0  0  0  0  0  0  0  0
    8.4420  -12.9250    0.5160 N   0  0  0  0  0  0  0  0  0  0  0  0
    7.1370  -12.6760    0.4960 C   0  0  0  0  0  0  0  0  0  0  0  0
    6.6080  -12.1180    1.5920 N   0  0  0  0  0  0  0  0  0  0  0  0
    5.2790  -11.8540    1.5940 C   0  0  0  0  0  0  0  0  0  0  0  0
    4.4700  -12.1410    0.5160 C   0  0  0  0  0  0  0  0  0  0  0  0
    3.0730  -11.8680    0.5110 C   0  0  0  0  0  0  0  0  0  0  0  0
    1.8950  -11.6370    0.5010 C   0  0  0  0  0  0  0  0  0  0  0  0
    0.4880  -11.3760    0.4970 C   0  0  0  0  0  0  0  0  0  0  0  0
   -0.0110  -10.2290   -0.1230 C   0  0  0  0  0  0  0  0  0  0  0  0
   -1.3840   -9.9770   -0.1240 C   0  0  0  0  0  0  0  0  0  0  0  0
   -2.2590  -10.8710    0.4930 C   0  0  0  0  0  0  0  0  0  0  0  0
   -1.7620  -12.0180    1.1140 C   0  0  0  0  0  0  0  0  0  0  0  0
   -0.3880  -12.2710    1.1160 C   0  0  0  0  0  0  0  0  0  0  0  0
    4.9650  -12.7030   -0.6010 N   0  0  0  0  0  0  0  0  0  0  0  0
    6.3100  -12.9680   -0.5990 C   0  0  0  0  0  0  0  0  0  0  0  0
    2.8703   -9.6265   -3.0943 H   0  0  0  0  0  0  0  0  0  0  0  0
    3.7872  -10.1176   -4.5588 H   0  0  0  0  0  0  0  0  0  0  0  0
    1.9922  -10.1841   -4.5588 H   0  0  0  0  0  0  0  0  0  0  0  0
    3.1801  -11.7381   -2.3586 H   0  0  0  0  0  0  0  0  0  0  0  0
    1.9713  -12.2215   -3.6178 H   0  0  0  0  0  0  0  0  0  0  0  0
    4.0174  -13.5928   -3.7638 H   0  0  0  0  0  0  0  0  0  0  0  0
    3.7830  -12.5667   -5.2358 H   0  0  0  0  0  0  0  0  0  0  0  0
    5.6197  -11.2816   -4.8111 H   0  0  0  0  0  0  0  0  0  0  0  0
    5.4097  -11.4135   -3.0111 H   0  0  0  0  0  0  0  0  0  0  0  0
    6.4913  -13.6224   -4.8256 H   0  0  0  0  0  0  0  0  0  0  0  0
    7.4894  -12.5413   -3.8045 H   0  0  0  0  0  0  0  0  0  0  0  0
   10.6450  -14.6750   -0.6560 H   0  0  0  0  0  0  0  0  0  0  0  0
   10.9510  -12.9550   -0.3790 H   0  0  0  0  0  0  0  0  0  0  0  0
    4.8303  -11.3946    2.4871 H   0  0  0  0  0  0  0  0  0  0  0  0
    0.6779   -9.5237   -0.6108 H   0  0  0  0  0  0  0  0  0  0  0  0
   -1.7763   -9.0725   -0.6119 H   0  0  0  0  0  0  0  0  0  0  0  0
   -3.3409  -10.6721    0.4902 H   0  0  0  0  0  0  0  0  0  0  0  0
   -2.4519  -12.7225    1.6016 H   0  0  0  0  0  0  0  0  0  0  0  0
    0.0041  -13.1750    1.6050 H   0  0  0  0  0  0  0  0  0  0  0  0
  1  2  1  0
  2  3  1  0
  3  4  1  0
  4  5  1  0
  5  6  1  0
  6  7  1  0
  7  8  2  0
  8  9  1  0
  9 10  1  0
  9 11  2  0
 11 12  1  0
 12 13  2  0
 13 14  1  0
 14 15  2  0
 15 16  1  0
 16 17  3  0
 17 18  1  0
 18 19  2  0
 19 20  1  0
 20 21  2  0
 21 22  1  0
 22 23  2  0
 15 24  1  0
 24 25  2  0
 25  7  1  0
 25 12  1  0
 23 18  1  0
  1 26  1  0
  1 27  1  0
  1 28  1  0
  2 29  1  0
  2 30  1  0
  3 31  1  0
  3 32  1  0
  4 33  1  0
  4 34  1  0
  5 35  1  0
  5 36  1  0
 10 37  1  0
 10 38  1  0
 14 39  1  0
 19 40  1  0
 20 41  1  0
 21 42  1  0
 22 43  1  0
 23 44  1  0
M  END
>  <meeko>  (9) 
{"is_sidechain": [false], "free_energy": -6.134, "intermolecular_energy": -8.119, "internal_energy": -0.902}

$$$$
