LIB_VQWUSUUKOYJUGV__M_PUB_ALL__e8__s20260927
     RDKit          3D

 35 38  0  0  0  0  0  0  0  0999 V2000
   -8.3070  -15.2610   15.7590 C   0  0  0  0  0  0  0  0  0  0  0  0
   -8.1190  -16.2490   15.1000 C   0  0  0  0  0  0  0  0  0  0  0  0
   -7.8900  -17.4500   14.2960 C   0  0  0  0  0  0  0  0  0  0  0  0
   -7.6840  -17.0940   12.9210 N   0  0  0  0  0  0  0  0  0  0  0  0
   -6.9130  -17.8580   12.0830 C   0  0  0  0  0  0  0  0  0  0  0  0
   -6.3340  -18.8800   12.4340 O   0  0  0  0  0  0  0  0  0  0  0  0
   -6.8420  -17.3090   10.7250 C   0  0  0  0  0  0  0  0  0  0  0  0
   -5.7280  -16.6260   10.2780 N   0  0  0  0  0  0  0  0  0  0  0  0
   -5.9840  -16.3250    9.0280 C   0  0  0  0  0  0  0  0  0  0  0  0
   -7.2270  -16.7600    8.6130 N   0  0  0  0  0  0  0  0  0  0  0  0
   -7.7880  -17.3960    9.7110 C   0  0  0  0  0  0  0  0  0  0  0  0
   -9.1020  -18.0910    9.6900 C   0  0  0  0  0  0  0  0  0  0  0  0
  -10.1490  -17.1930    9.2560 N   0  0  0  0  0  0  0  0  0  0  0  0
  -11.2720  -17.0220    9.9780 N   0  0  0  0  0  0  0  0  0  0  0  0
  -11.9760  -16.2210    9.1770 C   0  0  0  0  0  0  0  0  0  0  0  0
  -11.3660  -15.9010    8.0000 N   0  0  0  0  0  0  0  0  0  0  0  0
  -10.1980  -16.5140    8.0700 C   0  0  0  0  0  0  0  0  0  0  0  0
   -9.1520  -16.5060    7.0480 C   0  0  0  0  0  0  0  0  0  0  0  0
   -9.5820  -16.3120    5.7200 C   0  0  0  0  0  0  0  0  0  0  0  0
   -8.6700  -16.2090    4.6790 C   0  0  0  0  0  0  0  0  0  0  0  0
   -9.1080  -16.0300    3.4270 F   0  0  0  0  0  0  0  0  0  0  0  0
   -7.3100  -16.2870    4.9210 C   0  0  0  0  0  0  0  0  0  0  0  0
   -6.8550  -16.4690    6.2280 C   0  0  0  0  0  0  0  0  0  0  0  0
   -7.7650  -16.5880    7.3010 C   0  0  0  0  0  0  0  0  0  0  0  0
   -8.4790  -14.3571   16.3619 H   0  0  0  0  0  0  0  0  0  0  0  0
   -6.9999  -17.9752   14.6727 H   0  0  0  0  0  0  0  0  0  0  0  0
   -8.7711  -18.1044   14.3692 H   0  0  0  0  0  0  0  0  0  0  0  0
   -8.1070  -16.2600   12.5270 H   0  0  0  0  0  0  0  0  0  0  0  0
   -5.2819  -15.7826    8.3777 H   0  0  0  0  0  0  0  0  0  0  0  0
   -9.0481  -18.9441    8.9976 H   0  0  0  0  0  0  0  0  0  0  0  0
   -9.3341  -18.4389   10.7074 H   0  0  0  0  0  0  0  0  0  0  0  0
  -12.9747  -15.8463    9.4458 H   0  0  0  0  0  0  0  0  0  0  0  0
  -10.6584  -16.2410    5.5050 H   0  0  0  0  0  0  0  0  0  0  0  0
   -6.5933  -16.2063    4.0904 H   0  0  0  0  0  0  0  0  0  0  0  0
   -5.7739  -16.5204    6.4245 H   0  0  0  0  0  0  0  0  0  0  0  0
  1  2  3  0
  2  3  1  0
  3  4  1  0
  4  5  1  0
  5  6  2  0
  5  7  1  0
  7  8  1  0
  8  9  2  0
  9 10  1  0
 10 11  1  0
 11 12  1  0
 12 13  1  0
 13 14  1  0
 14 15  2  0
 15 16  1  0
 16 17  2  0
 17 18  1  0
 18 19  2  0
 19 20  1  0
 20 21  1  0
 20 22  2  0
 22 23  1  0
 23 24  2  0
 11  7  2  0
 17 13  1  0
 24 18  1  0
 24 10  1  0
  1 25  1  0
  3 26  1  0
  3 27  1  0
  4 28  1  0
  9 29  1  0
 12 30  1  0
 12 31  1  0
 15 32  1  0
 19 33  1  0
 22 34  1  0
 23 35  1  0
M  END
>  <meeko>  (1) 
{"is_sidechain": [false], "free_energy": -7.161, "intermolecular_energy": -7.998, "internal_energy": -0.32}

$$$$
LIB_VQWUSUUKOYJUGV__M_PUB_ALL__e8__s20260927
     RDKit          3D

 35 38  0  0  0  0  0  0  0  0999 V2000
   15.3140  -14.8230   -9.6110 C   0  0  0  0  0  0  0  0  0  0  0  0
   14.2560  -14.4710   -9.1620 C   0  0  0  0  0  0  0  0  0  0  0  0
   12.9690  -14.0420   -8.6120 C   0  0  0  0  0  0  0  0  0  0  0  0
   13.1310  -13.6000   -7.2570 N   0  0  0  0  0  0  0  0  0  0  0  0
   12.6200  -14.3060   -6.1990 C   0  0  0  0  0  0  0  0  0  0  0  0
   11.9810  -15.3450   -6.3190 O   0  0  0  0  0  0  0  0  0  0  0  0
   12.9070  -13.6730   -4.9070 C   0  0  0  0  0  0  0  0  0  0  0  0
   14.1960  -13.3510   -4.5290 N   0  0  0  0  0  0  0  0  0  0  0  0
   14.0800  -12.7690   -3.3610 C   0  0  0  0  0  0  0  0  0  0  0  0
   12.7730  -12.6940   -2.9240 N   0  0  0  0  0  0  0  0  0  0  0  0
   12.0090  -13.2820   -3.9220 C   0  0  0  0  0  0  0  0  0  0  0  0
   10.5240  -13.3490   -3.9050 C   0  0  0  0  0  0  0  0  0  0  0  0
   10.0550  -13.9990   -2.7020 N   0  0  0  0  0  0  0  0  0  0  0  0
    9.1980  -15.0360   -2.7510 N   0  0  0  0  0  0  0  0  0  0  0  0
    8.9630  -15.2410   -1.4550 C   0  0  0  0  0  0  0  0  0  0  0  0
    9.6070  -14.3860   -0.6090 N   0  0  0  0  0  0  0  0  0  0  0  0
   10.3100  -13.6110   -1.4160 C   0  0  0  0  0  0  0  0  0  0  0  0
   11.1800  -12.5050   -1.0140 C   0  0  0  0  0  0  0  0  0  0  0  0
   10.8570  -11.8700    0.2020 C   0  0  0  0  0  0  0  0  0  0  0  0
   11.6570  -10.8600    0.7170 C   0  0  0  0  0  0  0  0  0  0  0  0
   11.3230  -10.2720    1.8720 F   0  0  0  0  0  0  0  0  0  0  0  0
   12.8020  -10.4580    0.0520 C   0  0  0  0  0  0  0  0  0  0  0  0
   13.1520  -11.0760   -1.1490 C   0  0  0  0  0  0  0  0  0  0  0  0
   12.3460  -12.0970   -1.6990 C   0  0  0  0  0  0  0  0  0  0  0  0
   16.2822  -15.1451  -10.0219 H   0  0  0  0  0  0  0  0  0  0  0  0
   12.5723  -13.2148   -9.2189 H   0  0  0  0  0  0  0  0  0  0  0  0
   12.2700  -14.8911   -8.6310 H   0  0  0  0  0  0  0  0  0  0  0  0
   13.6350  -12.7450   -7.0410 H   0  0  0  0  0  0  0  0  0  0  0  0
   14.9351  -12.3806   -2.7883 H   0  0  0  0  0  0  0  0  0  0  0  0
   10.1161  -12.3283   -3.9463 H   0  0  0  0  0  0  0  0  0  0  0  0
   10.1865  -13.9307   -4.7755 H   0  0  0  0  0  0  0  0  0  0  0  0
    8.2990  -16.0404   -1.0943 H   0  0  0  0  0  0  0  0  0  0  0  0
    9.9561  -12.1801    0.7517 H   0  0  0  0  0  0  0  0  0  0  0  0
   13.4316   -9.6572    0.4671 H   0  0  0  0  0  0  0  0  0  0  0  0
   14.0670  -10.7641   -1.6739 H   0  0  0  0  0  0  0  0  0  0  0  0
  1  2  3  0
  2  3  1  0
  3  4  1  0
  4  5  1  0
  5  6  2  0
  5  7  1  0
  7  8  1  0
  8  9  2  0
  9 10  1  0
 10 11  1  0
 11 12  1  0
 12 13  1  0
 13 14  1  0
 14 15  2  0
 15 16  1  0
 16 17  2  0
 17 18  1  0
 18 19  2  0
 19 20  1  0
 20 21  1  0
 20 22  2  0
 22 23  1  0
 23 24  2  0
 11  7  2  0
 17 13  1  0
 24 18  1  0
 24 10  1  0
  1 25  1  0
  3 26  1  0
  3 27  1  0
  4 28  1  0
  9 29  1  0
 12 30  1  0
 12 31  1  0
 15 32  1  0
 19 33  1  0
 22 34  1  0
 23 35  1  0
M  END
>  <meeko>  (2) 
{"is_sidechain": [false], "free_energy": -7.118, "intermolecular_energy": -7.983, "internal_energy": -0.287}

$$$$
LIB_VQWUSUUKOYJUGV__M_PUB_ALL__e8__s20260927
     RDKit          3D

 35 38  0  0  0  0  0  0  0  0999 V2000
   13.6490   -9.6970    0.5500 C   0  0  0  0  0  0  0  0  0  0  0  0
   13.2240  -10.7410    0.1330 C   0  0  0  0  0  0  0  0  0  0  0  0
   12.7040  -12.0120   -0.3740 C   0  0  0  0  0  0  0  0  0  0  0  0
   11.4440  -11.8060   -1.0280 N   0  0  0  0  0  0  0  0  0  0  0  0
   10.6790  -12.8530   -1.4730 C   0  0  0  0  0  0  0  0  0  0  0  0
   11.0070  -14.0290   -1.3660 O   0  0  0  0  0  0  0  0  0  0  0  0
    9.4320  -12.4110   -2.1070 C   0  0  0  0  0  0  0  0  0  0  0  0
    9.4360  -11.6280   -3.2450 N   0  0  0  0  0  0  0  0  0  0  0  0
    8.1740  -11.4650   -3.5580 C   0  0  0  0  0  0  0  0  0  0  0  0
    7.3150  -12.0900   -2.6770 N   0  0  0  0  0  0  0  0  0  0  0  0
    8.1260  -12.7020   -1.7320 C   0  0  0  0  0  0  0  0  0  0  0  0
    7.6190  -13.5610   -0.6300 C   0  0  0  0  0  0  0  0  0  0  0  0
    6.6550  -12.8450    0.1750 N   0  0  0  0  0  0  0  0  0  0  0  0
    6.7780  -12.7620    1.5130 N   0  0  0  0  0  0  0  0  0  0  0  0
    5.6530  -12.1270    1.8390 C   0  0  0  0  0  0  0  0  0  0  0  0
    4.8340  -11.8270    0.7900 N   0  0  0  0  0  0  0  0  0  0  0  0
    5.4920  -12.2760   -0.2650 C   0  0  0  0  0  0  0  0  0  0  0  0
    5.0430  -12.2160   -1.6550 C   0  0  0  0  0  0  0  0  0  0  0  0
    3.6490  -12.1870   -1.8590 C   0  0  0  0  0  0  0  0  0  0  0  0
    3.1130  -12.0530   -3.1320 C   0  0  0  0  0  0  0  0  0  0  0  0
    1.7850  -12.0340   -3.2950 F   0  0  0  0  0  0  0  0  0  0  0  0
    3.9380  -11.9330   -4.2370 C   0  0  0  0  0  0  0  0  0  0  0  0
    5.3230  -11.9480   -4.0640 C   0  0  0  0  0  0  0  0  0  0  0  0
    5.8910  -12.0960   -2.7800 C   0  0  0  0  0  0  0  0  0  0  0  0
   14.0380   -8.7415    0.9317 H   0  0  0  0  0  0  0  0  0  0  0  0
   13.4207  -12.4374   -1.0918 H   0  0  0  0  0  0  0  0  0  0  0  0
   12.5619  -12.7037    0.4694 H   0  0  0  0  0  0  0  0  0  0  0  0
   11.0790  -10.8700   -1.1800 H   0  0  0  0  0  0  0  0  0  0  0  0
    7.8346  -10.8898   -4.4321 H   0  0  0  0  0  0  0  0  0  0  0  0
    7.1393  -14.4530   -1.0592 H   0  0  0  0  0  0  0  0  0  0  0  0
    8.4657  -13.8525    0.0088 H   0  0  0  0  0  0  0  0  0  0  0  0
    5.4030  -11.8640    2.8774 H   0  0  0  0  0  0  0  0  0  0  0  0
    2.9742  -12.2720   -0.9945 H   0  0  0  0  0  0  0  0  0  0  0  0
    3.5058  -11.8267   -5.2429 H   0  0  0  0  0  0  0  0  0  0  0  0
    5.9805  -11.8431   -4.9396 H   0  0  0  0  0  0  0  0  0  0  0  0
  1  2  3  0
  2  3  1  0
  3  4  1  0
  4  5  1  0
  5  6  2  0
  5  7  1  0
  7  8  1  0
  8  9  2  0
  9 10  1  0
 10 11  1  0
 11 12  1  0
 12 13  1  0
 13 14  1  0
 14 15  2  0
 15 16  1  0
 16 17  2  0
 17 18  1  0
 18 19  2  0
 19 20  1  0
 20 21  1  0
 20 22  2  0
 22 23  1  0
 23 24  2  0
 11  7  2  0
 17 13  1  0
 24 18  1  0
 24 10  1  0
  1 25  1  0
  3 26  1  0
  3 27  1  0
  4 28  1  0
  9 29  1  0
 12 30  1  0
 12 31  1  0
 15 32  1  0
 19 33  1  0
 22 34  1  0
 23 35  1  0
M  END
>  <meeko>  (3) 
{"is_sidechain": [false], "free_energy": -7.076, "intermolecular_energy": -7.929, "internal_energy": -0.294}

$$$$
LIB_VQWUSUUKOYJUGV__M_PUB_ALL__e8__s20260927
     RDKit          3D

 35 38  0  0  0  0  0  0  0  0999 V2000
    2.8510  -10.2830   -3.8180 C   0  0  0  0  0  0  0  0  0  0  0  0
    3.4390  -11.0060   -4.5770 C   0  0  0  0  0  0  0  0  0  0  0  0
    4.1560  -11.8870   -5.5000 C   0  0  0  0  0  0  0  0  0  0  0  0
    5.4730  -12.1610   -5.0010 N   0  0  0  0  0  0  0  0  0  0  0  0
    5.7870  -13.3540   -4.4040 C   0  0  0  0  0  0  0  0  0  0  0  0
    4.9820  -14.2640   -4.2350 O   0  0  0  0  0  0  0  0  0  0  0  0
    7.1880  -13.4180   -3.9720 C   0  0  0  0  0  0  0  0  0  0  0  0
    8.1180  -14.1830   -4.6480 N   0  0  0  0  0  0  0  0  0  0  0  0
    9.2550  -13.9720   -4.0300 C   0  0  0  0  0  0  0  0  0  0  0  0
    9.1330  -13.1110   -2.9580 N   0  0  0  0  0  0  0  0  0  0  0  0
    7.7940  -12.7520   -2.9150 C   0  0  0  0  0  0  0  0  0  0  0  0
    7.2240  -11.7670   -1.9570 C   0  0  0  0  0  0  0  0  0  0  0  0
    7.5070  -12.1570   -0.5940 N   0  0  0  0  0  0  0  0  0  0  0  0
    6.5290  -12.2550    0.3270 N   0  0  0  0  0  0  0  0  0  0  0  0
    7.2330  -12.5270    1.4250 C   0  0  0  0  0  0  0  0  0  0  0  0
    8.5840  -12.5870    1.2460 N   0  0  0  0  0  0  0  0  0  0  0  0
    8.7430  -12.3650   -0.0470 C   0  0  0  0  0  0  0  0  0  0  0  0
   10.0150  -12.3090   -0.7670 C   0  0  0  0  0  0  0  0  0  0  0  0
   11.1420  -11.9290   -0.0100 C   0  0  0  0  0  0  0  0  0  0  0  0
   12.4110  -11.9170   -0.5720 C   0  0  0  0  0  0  0  0  0  0  0  0
   13.4620  -11.5470    0.1700 F   0  0  0  0  0  0  0  0  0  0  0  0
   12.6040  -12.2890   -1.8900 C   0  0  0  0  0  0  0  0  0  0  0  0
   11.5080  -12.6790   -2.6610 C   0  0  0  0  0  0  0  0  0  0  0  0
   10.2050  -12.6870   -2.1150 C   0  0  0  0  0  0  0  0  0  0  0  0
    2.3129   -9.6213   -3.1233 H   0  0  0  0  0  0  0  0  0  0  0  0
    3.6028  -12.8321   -5.6038 H   0  0  0  0  0  0  0  0  0  0  0  0
    4.2388  -11.3910   -6.4783 H   0  0  0  0  0  0  0  0  0  0  0  0
    6.2160  -11.4730   -5.0770 H   0  0  0  0  0  0  0  0  0  0  0  0
   10.2064  -14.4328   -4.3340 H   0  0  0  0  0  0  0  0  0  0  0  0
    7.6669  -10.7786   -2.1491 H   0  0  0  0  0  0  0  0  0  0  0  0
    6.1333  -11.7299   -2.0950 H   0  0  0  0  0  0  0  0  0  0  0  0
    6.7595  -12.6912    2.4042 H   0  0  0  0  0  0  0  0  0  0  0  0
   11.0135  -11.6374    1.0428 H   0  0  0  0  0  0  0  0  0  0  0  0
   13.6133  -12.2776   -2.3271 H   0  0  0  0  0  0  0  0  0  0  0  0
   11.6606  -12.9840   -3.7068 H   0  0  0  0  0  0  0  0  0  0  0  0
  1  2  3  0
  2  3  1  0
  3  4  1  0
  4  5  1  0
  5  6  2  0
  5  7  1  0
  7  8  1  0
  8  9  2  0
  9 10  1  0
 10 11  1  0
 11 12  1  0
 12 13  1  0
 13 14  1  0
 14 15  2  0
 15 16  1  0
 16 17  2  0
 17 18  1  0
 18 19  2  0
 19 20  1  0
 20 21  1  0
 20 22  2  0
 22 23  1  0
 23 24  2  0
 11  7  2  0
 17 13  1  0
 24 18  1  0
 24 10  1  0
  1 25  1  0
  3 26  1  0
  3 27  1  0
  4 28  1  0
  9 29  1  0
 12 30  1  0
 12 31  1  0
 15 32  1  0
 19 33  1  0
 22 34  1  0
 23 35  1  0
M  END
>  <meeko>  (4) 
{"is_sidechain": [false], "free_energy": -7.031, "intermolecular_energy": -7.829, "internal_energy": -0.344}

$$$$
LIB_VQWUSUUKOYJUGV__M_PUB_ALL__e8__s20260927
     RDKit          3D

 35 38  0  0  0  0  0  0  0  0999 V2000
    5.7760  -13.1290   -7.8720 C   0  0  0  0  0  0  0  0  0  0  0  0
    6.7920  -13.6990   -8.1650 C   0  0  0  0  0  0  0  0  0  0  0  0
    8.0310  -14.3930   -8.5200 C   0  0  0  0  0  0  0  0  0  0  0  0
    9.0640  -14.0760   -7.5760 N   0  0  0  0  0  0  0  0  0  0  0  0
    9.4110  -14.9340   -6.5650 C   0  0  0  0  0  0  0  0  0  0  0  0
    8.8670  -16.0170   -6.3760 O   0  0  0  0  0  0  0  0  0  0  0  0
   10.4900  -14.4090   -5.7230 C   0  0  0  0  0  0  0  0  0  0  0  0
   11.8190  -14.5880   -6.0550 N   0  0  0  0  0  0  0  0  0  0  0  0
   12.4970  -13.9600   -5.1250 C   0  0  0  0  0  0  0  0  0  0  0  0
   11.6880  -13.3760   -4.1720 N   0  0  0  0  0  0  0  0  0  0  0  0
   10.3860  -13.6670   -4.5530 C   0  0  0  0  0  0  0  0  0  0  0  0
    9.1780  -13.1620   -3.8490 C   0  0  0  0  0  0  0  0  0  0  0  0
    9.2060  -13.5370   -2.4530 N   0  0  0  0  0  0  0  0  0  0  0  0
    8.1680  -14.1700   -1.8740 N   0  0  0  0  0  0  0  0  0  0  0  0
    8.5700  -14.2200   -0.6040 C   0  0  0  0  0  0  0  0  0  0  0  0
    9.7810  -13.6430   -0.3580 N   0  0  0  0  0  0  0  0  0  0  0  0
   10.1810  -13.2260   -1.5470 C   0  0  0  0  0  0  0  0  0  0  0  0
   11.4280  -12.5200   -1.8430 C   0  0  0  0  0  0  0  0  0  0  0  0
   11.9790  -11.7630   -0.7900 C   0  0  0  0  0  0  0  0  0  0  0  0
   13.1980  -11.1150   -0.9350 C   0  0  0  0  0  0  0  0  0  0  0  0
   13.6940  -10.3990    0.0810 F   0  0  0  0  0  0  0  0  0  0  0  0
   13.9090  -11.2050   -2.1180 C   0  0  0  0  0  0  0  0  0  0  0  0
   13.3930  -11.9570   -3.1750 C   0  0  0  0  0  0  0  0  0  0  0  0
   12.1480  -12.6140   -3.0540 C   0  0  0  0  0  0  0  0  0  0  0  0
    4.8456  -12.6070   -7.6037 H   0  0  0  0  0  0  0  0  0  0  0  0
    7.8540  -15.4786   -8.5141 H   0  0  0  0  0  0  0  0  0  0  0  0
    8.3490  -14.0700   -9.5223 H   0  0  0  0  0  0  0  0  0  0  0  0
    9.5730  -13.1990   -7.6320 H   0  0  0  0  0  0  0  0  0  0  0  0
   13.5954  -13.9045   -5.1065 H   0  0  0  0  0  0  0  0  0  0  0  0
    9.1462  -12.0653   -3.9277 H   0  0  0  0  0  0  0  0  0  0  0  0
    8.2857  -13.6042   -4.3162 H   0  0  0  0  0  0  0  0  0  0  0  0
    7.9692  -14.6919    0.1874 H   0  0  0  0  0  0  0  0  0  0  0  0
   11.4343  -11.6843    0.1624 H   0  0  0  0  0  0  0  0  0  0  0  0
   14.8739  -10.6879   -2.2252 H   0  0  0  0  0  0  0  0  0  0  0  0
   13.9622  -12.0390   -4.1127 H   0  0  0  0  0  0  0  0  0  0  0  0
  1  2  3  0
  2  3  1  0
  3  4  1  0
  4  5  1  0
  5  6  2  0
  5  7  1  0
  7  8  1  0
  8  9  2  0
  9 10  1  0
 10 11  1  0
 11 12  1  0
 12 13  1  0
 13 14  1  0
 14 15  2  0
 15 16  1  0
 16 17  2  0
 17 18  1  0
 18 19  2  0
 19 20  1  0
 20 21  1  0
 20 22  2  0
 22 23  1  0
 23 24  2  0
 11  7  2  0
 17 13  1  0
 24 18  1  0
 24 10  1  0
  1 25  1  0
  3 26  1  0
  3 27  1  0
  4 28  1  0
  9 29  1  0
 12 30  1  0
 12 31  1  0
 15 32  1  0
 19 33  1  0
 22 34  1  0
 23 35  1  0
M  END
>  <meeko>  (5) 
{"is_sidechain": [false], "free_energy": -7.016, "intermolecular_energy": -7.786, "internal_energy": -0.37}

$$$$
LIB_VQWUSUUKOYJUGV__M_PUB_ALL__e8__s20260927
     RDKit          3D

 35 38  0  0  0  0  0  0  0  0999 V2000
   12.2640  -20.3010   -2.0620 C   0  0  0  0  0  0  0  0  0  0  0  0
   11.1560  -19.8500   -1.9440 C   0  0  0  0  0  0  0  0  0  0  0  0
    9.8070  -19.3000   -1.8000 C   0  0  0  0  0  0  0  0  0  0  0  0
    9.8740  -17.9200   -1.4120 N   0  0  0  0  0  0  0  0  0  0  0  0
    9.6480  -16.9050   -2.3050 C   0  0  0  0  0  0  0  0  0  0  0  0
    9.3890  -17.0860   -3.4900 O   0  0  0  0  0  0  0  0  0  0  0  0
    9.7650  -15.5780   -1.6920 C   0  0  0  0  0  0  0  0  0  0  0  0
    8.6880  -14.9650   -1.0820 N   0  0  0  0  0  0  0  0  0  0  0  0
    9.1540  -13.8340   -0.6110 C   0  0  0  0  0  0  0  0  0  0  0  0
   10.4930  -13.6470   -0.8870 N   0  0  0  0  0  0  0  0  0  0  0  0
   10.8930  -14.7730   -1.5910 C   0  0  0  0  0  0  0  0  0  0  0  0
   12.2910  -15.0330   -2.0250 C   0  0  0  0  0  0  0  0  0  0  0  0
   12.7860  -13.9430   -2.8350 N   0  0  0  0  0  0  0  0  0  0  0  0
   13.3290  -14.1590   -4.0490 N   0  0  0  0  0  0  0  0  0  0  0  0
   13.7300  -12.9300   -4.3760 C   0  0  0  0  0  0  0  0  0  0  0  0
   13.4850  -11.9730   -3.4360 N   0  0  0  0  0  0  0  0  0  0  0  0
   12.8700  -12.6290   -2.4670 C   0  0  0  0  0  0  0  0  0  0  0  0
   12.3960  -12.0640   -1.2040 C   0  0  0  0  0  0  0  0  0  0  0  0
   13.0800  -10.9250   -0.7360 C   0  0  0  0  0  0  0  0  0  0  0  0
   12.6660  -10.2620    0.4110 C   0  0  0  0  0  0  0  0  0  0  0  0
   13.3390   -9.1850    0.8340 F   0  0  0  0  0  0  0  0  0  0  0  0
   11.5620  -10.6990    1.1210 C   0  0  0  0  0  0  0  0  0  0  0  0
   10.8590  -11.8190    0.6750 C   0  0  0  0  0  0  0  0  0  0  0  0
   11.2680  -12.5170   -0.4830 C   0  0  0  0  0  0  0  0  0  0  0  0
   13.2779  -20.7137   -2.1700 H   0  0  0  0  0  0  0  0  0  0  0  0
    9.2765  -19.3823   -2.7601 H   0  0  0  0  0  0  0  0  0  0  0  0
    9.2694  -19.8655   -1.0246 H   0  0  0  0  0  0  0  0  0  0  0  0
   10.0920  -17.6540   -0.4570 H   0  0  0  0  0  0  0  0  0  0  0  0
    8.5416  -13.1096   -0.0539 H   0  0  0  0  0  0  0  0  0  0  0  0
   12.9305  -15.1420   -1.1366 H   0  0  0  0  0  0  0  0  0  0  0  0
   12.3094  -15.9553   -2.6242 H   0  0  0  0  0  0  0  0  0  0  0  0
   14.2222  -12.7047   -5.3336 H   0  0  0  0  0  0  0  0  0  0  0  0
   13.9563  -10.5550   -1.2884 H   0  0  0  0  0  0  0  0  0  0  0  0
   11.2410  -10.1682    2.0294 H   0  0  0  0  0  0  0  0  0  0  0  0
    9.9751  -12.1627    1.2323 H   0  0  0  0  0  0  0  0  0  0  0  0
  1  2  3  0
  2  3  1  0
  3  4  1  0
  4  5  1  0
  5  6  2  0
  5  7  1  0
  7  8  1  0
  8  9  2  0
  9 10  1  0
 10 11  1  0
 11 12  1  0
 12 13  1  0
 13 14  1  0
 14 15  2  0
 15 16  1  0
 16 17  2  0
 17 18  1  0
 18 19  2  0
 19 20  1  0
 20 21  1  0
 20 22  2  0
 22 23  1  0
 23 24  2  0
 11  7  2  0
 17 13  1  0
 24 18  1  0
 24 10  1  0
  1 25  1  0
  3 26  1  0
  3 27  1  0
  4 28  1  0
  9 29  1  0
 12 30  1  0
 12 31  1  0
 15 32  1  0
 19 33  1  0
 22 34  1  0
 23 35  1  0
M  END
>  <meeko>  (6) 
{"is_sidechain": [false], "free_energy": -6.91, "intermolecular_energy": -7.67, "internal_energy": -0.368}

$$$$
LIB_VQWUSUUKOYJUGV__M_PUB_ALL__e8__s20260927
     RDKit          3D

 35 38  0  0  0  0  0  0  0  0999 V2000
   13.4040   -9.6100    0.5410 C   0  0  0  0  0  0  0  0  0  0  0  0
   13.0820  -10.6320   -0.0030 C   0  0  0  0  0  0  0  0  0  0  0  0
   12.6870  -11.8760   -0.6660 C   0  0  0  0  0  0  0  0  0  0  0  0
   11.2650  -11.9070   -0.8560 N   0  0  0  0  0  0  0  0  0  0  0  0
   10.5240  -13.0300   -0.5960 C   0  0  0  0  0  0  0  0  0  0  0  0
   11.0050  -14.0870   -0.2030 O   0  0  0  0  0  0  0  0  0  0  0  0
    9.0940  -12.8350   -0.8570 C   0  0  0  0  0  0  0  0  0  0  0  0
    8.1700  -12.7920    0.1700 N   0  0  0  0  0  0  0  0  0  0  0  0
    7.0180  -12.5610   -0.4100 C   0  0  0  0  0  0  0  0  0  0  0  0
    7.1170  -12.4610   -1.7830 N   0  0  0  0  0  0  0  0  0  0  0  0
    8.4600  -12.6410   -2.0780 C   0  0  0  0  0  0  0  0  0  0  0  0
    9.0360  -12.5330   -3.4440 C   0  0  0  0  0  0  0  0  0  0  0  0
    8.3730  -13.4420   -4.3520 N   0  0  0  0  0  0  0  0  0  0  0  0
    9.0680  -14.3110   -5.1100 N   0  0  0  0  0  0  0  0  0  0  0  0
    8.0960  -14.8520   -5.8440 C   0  0  0  0  0  0  0  0  0  0  0  0
    6.8470  -14.3600   -5.6000 N   0  0  0  0  0  0  0  0  0  0  0  0
    7.0360  -13.4750   -4.6380 C   0  0  0  0  0  0  0  0  0  0  0  0
    6.0090  -12.6430   -4.0110 C   0  0  0  0  0  0  0  0  0  0  0  0
    4.8780  -12.3520   -4.8000 C   0  0  0  0  0  0  0  0  0  0  0  0
    3.8080  -11.6360   -4.2810 C   0  0  0  0  0  0  0  0  0  0  0  0
    2.7490  -11.3700   -5.0560 F   0  0  0  0  0  0  0  0  0  0  0  0
    3.8210  -11.1980   -2.9690 C   0  0  0  0  0  0  0  0  0  0  0  0
    4.9230  -11.4810   -2.1610 C   0  0  0  0  0  0  0  0  0  0  0  0
    6.0290  -12.1970   -2.6710 C   0  0  0  0  0  0  0  0  0  0  0  0
   13.6987   -8.6745    1.0390 H   0  0  0  0  0  0  0  0  0  0  0  0
   13.1857  -11.9404   -1.6443 H   0  0  0  0  0  0  0  0  0  0  0  0
   12.9834  -12.7278   -0.0363 H   0  0  0  0  0  0  0  0  0  0  0  0
   10.7630  -11.0890   -1.1900 H   0  0  0  0  0  0  0  0  0  0  0  0
    6.0709  -12.4576    0.1399 H   0  0  0  0  0  0  0  0  0  0  0  0
    8.9100  -11.5028   -3.8085 H   0  0  0  0  0  0  0  0  0  0  0  0
   10.1036  -12.7943   -3.3991 H   0  0  0  0  0  0  0  0  0  0  0  0
    8.2865  -15.6367   -6.5909 H   0  0  0  0  0  0  0  0  0  0  0  0
    4.8426  -12.6978   -5.8436 H   0  0  0  0  0  0  0  0  0  0  0  0
    2.9691  -10.6309   -2.5656 H   0  0  0  0  0  0  0  0  0  0  0  0
    4.9306  -11.1425   -1.1144 H   0  0  0  0  0  0  0  0  0  0  0  0
  1  2  3  0
  2  3  1  0
  3  4  1  0
  4  5  1  0
  5  6  2  0
  5  7  1  0
  7  8  1  0
  8  9  2  0
  9 10  1  0
 10 11  1  0
 11 12  1  0
 12 13  1  0
 13 14  1  0
 14 15  2  0
 15 16  1  0
 16 17  2  0
 17 18  1  0
 18 19  2  0
 19 20  1  0
 20 21  1  0
 20 22  2  0
 22 23  1  0
 23 24  2  0
 11  7  2  0
 17 13  1  0
 24 18  1  0
 24 10  1  0
  1 25  1  0
  3 26  1  0
  3 27  1  0
  4 28  1  0
  9 29  1  0
 12 30  1  0
 12 31  1  0
 15 32  1  0
 19 33  1  0
 22 34  1  0
 23 35  1  0
M  END
>  <meeko>  (7) 
{"is_sidechain": [false], "free_energy": -6.905, "intermolecular_energy": -7.78, "internal_energy": -0.252}

$$$$
LIB_VQWUSUUKOYJUGV__M_PUB_ALL__e8__s20260927
     RDKit          3D

 35 38  0  0  0  0  0  0  0  0999 V2000
   13.1040   -9.9460    0.3690 C   0  0  0  0  0  0  0  0  0  0  0  0
   12.6910  -10.9330   -0.1780 C   0  0  0  0  0  0  0  0  0  0  0  0
   12.1850  -12.1340   -0.8430 C   0  0  0  0  0  0  0  0  0  0  0  0
   10.7920  -12.3130   -0.5520 N   0  0  0  0  0  0  0  0  0  0  0  0
    9.8750  -12.5820   -1.5360 C   0  0  0  0  0  0  0  0  0  0  0  0
   10.1600  -12.6750   -2.7250 O   0  0  0  0  0  0  0  0  0  0  0  0
    8.5130  -12.7280   -1.0130 C   0  0  0  0  0  0  0  0  0  0  0  0
    8.2640  -13.3600    0.1900 N   0  0  0  0  0  0  0  0  0  0  0  0
    6.9680  -13.2700    0.3670 C   0  0  0  0  0  0  0  0  0  0  0  0
    6.3270  -12.6180   -0.6670 N   0  0  0  0  0  0  0  0  0  0  0  0
    7.3240  -12.2680   -1.5650 C   0  0  0  0  0  0  0  0  0  0  0  0
    7.0930  -11.4720   -2.8000 C   0  0  0  0  0  0  0  0  0  0  0  0
    6.0990  -12.1050   -3.6370 N   0  0  0  0  0  0  0  0  0  0  0  0
    6.3370  -12.3660   -4.9370 N   0  0  0  0  0  0  0  0  0  0  0  0
    5.1520  -12.8360   -5.3290 C   0  0  0  0  0  0  0  0  0  0  0  0
    4.1930  -12.8670   -4.3590 N   0  0  0  0  0  0  0  0  0  0  0  0
    4.8140  -12.4130   -3.2840 C   0  0  0  0  0  0  0  0  0  0  0  0
    4.2270  -12.2320   -1.9570 C   0  0  0  0  0  0  0  0  0  0  0  0
    2.8380  -12.0010   -1.9170 C   0  0  0  0  0  0  0  0  0  0  0  0
    2.1640  -11.8910   -0.7090 C   0  0  0  0  0  0  0  0  0  0  0  0
    0.8440  -11.6660   -0.7030 F   0  0  0  0  0  0  0  0  0  0  0  0
    2.8400  -12.0160    0.4910 C   0  0  0  0  0  0  0  0  0  0  0  0
    4.2150  -12.2560    0.4830 C   0  0  0  0  0  0  0  0  0  0  0  0
    4.9240  -12.3590   -0.7340 C   0  0  0  0  0  0  0  0  0  0  0  0
   13.4821   -9.0425    0.8697 H   0  0  0  0  0  0  0  0  0  0  0  0
   12.3186  -12.0308   -1.9300 H   0  0  0  0  0  0  0  0  0  0  0  0
   12.7429  -13.0084   -0.4768 H   0  0  0  0  0  0  0  0  0  0  0  0
   10.4420  -12.2450    0.3990 H   0  0  0  0  0  0  0  0  0  0  0  0
    6.4459  -13.6722    1.2477 H   0  0  0  0  0  0  0  0  0  0  0  0
    6.7437  -10.4668   -2.5217 H   0  0  0  0  0  0  0  0  0  0  0  0
    8.0373  -11.4062   -3.3603 H   0  0  0  0  0  0  0  0  0  0  0  0
    4.9618  -13.1737   -6.3584 H   0  0  0  0  0  0  0  0  0  0  0  0
    2.2782  -11.9062   -2.8592 H   0  0  0  0  0  0  0  0  0  0  0  0
    2.2984  -11.9270    1.4443 H   0  0  0  0  0  0  0  0  0  0  0  0
    4.7529  -12.3662    1.4362 H   0  0  0  0  0  0  0  0  0  0  0  0
  1  2  3  0
  2  3  1  0
  3  4  1  0
  4  5  1  0
  5  6  2  0
  5  7  1  0
  7  8  1  0
  8  9  2  0
  9 10  1  0
 10 11  1  0
 11 12  1  0
 12 13  1  0
 13 14  1  0
 14 15  2  0
 15 16  1  0
 16 17  2  0
 17 18  1  0
 18 19  2  0
 19 20  1  0
 20 21  1  0
 20 22  2  0
 22 23  1  0
 23 24  2  0
 11  7  2  0
 17 13  1  0
 24 18  1  0
 24 10  1  0
  1 25  1  0
  3 26  1  0
  3 27  1  0
  4 28  1  0
  9 29  1  0
 12 30  1  0
 12 31  1  0
 15 32  1  0
 19 33  1  0
 22 34  1  0
 23 35  1  0
M  END
>  <meeko>  (8) 
{"is_sidechain": [false], "free_energy": -6.861, "intermolecular_energy": -7.786, "internal_energy": -0.197}

$$$$
LIB_VQWUSUUKOYJUGV__M_PUB_ALL__e8__s20260927
     RDKit          3D

 35 38  0  0  0  0  0  0  0  0999 V2000
   13.1620  -10.6760   -0.0800 C   0  0  0  0  0  0  0  0  0  0  0  0
   12.6780  -11.4490   -0.8620 C   0  0  0  0  0  0  0  0  0  0  0  0
   12.0870  -12.3910   -1.8130 C   0  0  0  0  0  0  0  0  0  0  0  0
   10.6620  -12.2280   -1.8520 N   0  0  0  0  0  0  0  0  0  0  0  0
    9.8270  -12.9650   -1.0530 C   0  0  0  0  0  0  0  0  0  0  0  0
   10.2170  -13.8200   -0.2650 O   0  0  0  0  0  0  0  0  0  0  0  0
    8.4130  -12.6320   -1.2550 C   0  0  0  0  0  0  0  0  0  0  0  0
    7.7850  -11.6540   -0.5080 N   0  0  0  0  0  0  0  0  0  0  0  0
    6.5640  -11.5890   -0.9780 C   0  0  0  0  0  0  0  0  0  0  0  0
    6.3310  -12.4870   -2.0000 N   0  0  0  0  0  0  0  0  0  0  0  0
    7.5260  -13.1680   -2.1810 C   0  0  0  0  0  0  0  0  0  0  0  0
    7.7550  -14.1830   -3.2420 C   0  0  0  0  0  0  0  0  0  0  0  0
    6.7780  -15.2460   -3.1530 N   0  0  0  0  0  0  0  0  0  0  0  0
    7.1490  -16.5390   -3.1000 N   0  0  0  0  0  0  0  0  0  0  0  0
    5.9650  -17.1500   -3.1320 C   0  0  0  0  0  0  0  0  0  0  0  0
    4.8870  -16.3190   -3.2190 N   0  0  0  0  0  0  0  0  0  0  0  0
    5.4190  -15.1090   -3.2150 C   0  0  0  0  0  0  0  0  0  0  0  0
    4.6920  -13.8420   -3.3040 C   0  0  0  0  0  0  0  0  0  0  0  0
    3.4470  -13.8840   -3.9620 C   0  0  0  0  0  0  0  0  0  0  0  0
    2.6380  -12.7600   -4.0370 C   0  0  0  0  0  0  0  0  0  0  0  0
    1.4620  -12.8280   -4.6740 F   0  0  0  0  0  0  0  0  0  0  0  0
    3.0300  -11.5670   -3.4560 C   0  0  0  0  0  0  0  0  0  0  0  0
    4.2540  -11.4980   -2.7880 C   0  0  0  0  0  0  0  0  0  0  0  0
    5.1000  -12.6270   -2.7100 C   0  0  0  0  0  0  0  0  0  0  0  0
   13.6052   -9.9682    0.6360 H   0  0  0  0  0  0  0  0  0  0  0  0
   12.5015  -12.2042   -2.8146 H   0  0  0  0  0  0  0  0  0  0  0  0
   12.3221  -13.4173   -1.4944 H   0  0  0  0  0  0  0  0  0  0  0  0
   10.2280  -11.5550   -2.4760 H   0  0  0  0  0  0  0  0  0  0  0  0
    5.8034  -10.8912   -0.5977 H   0  0  0  0  0  0  0  0  0  0  0  0
    7.6742  -13.7001   -4.2270 H   0  0  0  0  0  0  0  0  0  0  0  0
    8.7585  -14.6133   -3.1087 H   0  0  0  0  0  0  0  0  0  0  0  0
    5.8645  -18.2446   -3.0912 H   0  0  0  0  0  0  0  0  0  0  0  0
    3.1109  -14.8240   -4.4240 H   0  0  0  0  0  0  0  0  0  0  0  0
    2.3825  -10.6801   -3.5199 H   0  0  0  0  0  0  0  0  0  0  0  0
    4.5635  -10.5534   -2.3168 H   0  0  0  0  0  0  0  0  0  0  0  0
  1  2  3  0
  2  3  1  0
  3  4  1  0
  4  5  1  0
  5  6  2  0
  5  7  1  0
  7  8  1  0
  8  9  2  0
  9 10  1  0
 10 11  1  0
 11 12  1  0
 12 13  1  0
 13 14  1  0
 14 15  2  0
 15 16  1  0
 16 17  2  0
 17 18  1  0
 18 19  2  0
 19 20  1  0
 20 21  1  0
 20 22  2  0
 22 23  1  0
 23 24  2  0
 11  7  2  0
 17 13  1  0
 24 18  1  0
 24 10  1  0
  1 25  1  0
  3 26  1  0
  3 27  1  0
  4 28  1  0
  9 29  1  0
 12 30  1  0
 12 31  1  0
 15 32  1  0
 19 33  1  0
 22 34  1  0
 23 35  1  0
M  END
>  <meeko>  (9) 
{"is_sidechain": [false], "free_energy": -6.757, "intermolecular_energy": -7.534, "internal_energy": -0.333}

$$$$
