LIB_LTQZYVDQJCHOBT__M_PUB_ALL__e8__s20260927
     RDKit          3D

 34 36  0  0  0  0  0  0  0  0999 V2000
   13.8050  -11.5600   -1.9220 N   0  0  0  0  0  0  0  0  0  0  0  0
   12.7050  -11.9780   -1.2050 C   0  0  0  0  0  0  0  0  0  0  0  0
   12.8460  -12.1940    0.1230 N   0  0  0  0  0  0  0  0  0  0  0  0
   11.7630  -12.6090    0.8150 C   0  0  0  0  0  0  0  0  0  0  0  0
   10.5140  -12.8420    0.3670 N   0  0  0  0  0  0  0  0  0  0  0  0
   10.4270  -12.6110   -0.9550 C   0  0  0  0  0  0  0  0  0  0  0  0
   11.4460  -12.1900   -1.7940 C   0  0  0  0  0  0  0  0  0  0  0  0
   10.9990  -12.0610   -3.0940 N   0  0  0  0  0  0  0  0  0  0  0  0
    9.7300  -12.4150   -3.0440 C   0  0  0  0  0  0  0  0  0  0  0  0
    9.3320  -12.7330   -1.7680 N   0  0  0  0  0  0  0  0  0  0  0  0
    7.9930  -13.1350   -1.3970 C   0  0  2  0  0  0  0  0  0  0  0  0
    7.2260  -13.9270   -2.4750 C   0  0  0  0  0  0  0  0  0  0  0  0
    5.8780  -13.2150   -2.6200 C   0  0  0  0  0  0  0  0  0  0  0  0
    5.6850  -12.5050   -1.2800 C   0  0  1  0  0  0  0  0  0  0  0  0
    5.2750  -13.5040   -0.3470 O   0  0  0  0  0  0  0  0  0  0  0  0
    4.8820  -12.9870    0.9440 C   0  0  0  0  0  0  0  0  0  0  0  0
    5.7750  -13.4710    2.1130 C   0  0  0  0  0  0  0  0  0  0  0  0
    6.7600  -14.2050    1.8140 O   0  0  0  0  0  0  0  0  0  0  0  0
    5.4130  -13.0510    3.2520 O   0  0  0  0  0  0  0  0  0  0  0  0
    7.0840  -11.9570   -1.0300 C   0  0  0  0  0  0  0  0  0  0  0  0
   14.5780  -11.1570   -1.4200 H   0  0  0  0  0  0  0  0  0  0  0  0
   13.8150  -11.7200   -2.9190 H   0  0  0  0  0  0  0  0  0  0  0  0
   11.9223  -12.7799    1.8899 H   0  0  0  0  0  0  0  0  0  0  0  0
    9.0674  -12.4515   -3.9213 H   0  0  0  0  0  0  0  0  0  0  0  0
    8.1927  -13.7808   -0.5292 H   0  0  0  0  0  0  0  0  0  0  0  0
    7.7747  -13.9103   -3.4283 H   0  0  0  0  0  0  0  0  0  0  0  0
    7.1027  -14.9839   -2.1962 H   0  0  0  0  0  0  0  0  0  0  0  0
    5.9067  -12.4890   -3.4459 H   0  0  0  0  0  0  0  0  0  0  0  0
    5.0568  -13.9092   -2.8520 H   0  0  0  0  0  0  0  0  0  0  0  0
    4.9321  -11.7051   -1.2217 H   0  0  0  0  0  0  0  0  0  0  0  0
    4.9274  -11.8886    0.9055 H   0  0  0  0  0  0  0  0  0  0  0  0
    3.8668  -13.3615    1.1419 H   0  0  0  0  0  0  0  0  0  0  0  0
    7.2873  -11.0871   -1.6719 H   0  0  0  0  0  0  0  0  0  0  0  0
    7.2308  -11.6042    0.0015 H   0  0  0  0  0  0  0  0  0  0  0  0
  1  2  1  0
  2  3  2  0
  3  4  1  0
  4  5  2  0
  5  6  1  0
  6  7  2  0
  7  8  1  0
  8  9  2  0
  9 10  1  0
 10 11  1  0
 11 12  1  0
 12 13  1  0
 13 14  1  0
 14 15  1  0
 15 16  1  0
 16 17  1  0
 17 18  2  0
 17 19  1  0
 14 20  1  0
  7  2  1  0
 20 11  1  0
 10  6  1  0
  1 21  1  0
  1 22  1  0
  4 23  1  0
  9 24  1  0
 11 25  1  1
 12 26  1  0
 12 27  1  0
 13 28  1  0
 13 29  1  0
 14 30  1  6
 16 31  1  0
 16 32  1  0
 20 33  1  0
 20 34  1  0
M  CHG  1  19  -1
M  END
>  <meeko>  (1) 
{"is_sidechain": [false], "free_energy": -6.074, "intermolecular_energy": -7.672, "internal_energy": -0.61}

$$$$
LIB_LTQZYVDQJCHOBT__M_PUB_ALL__e8__s20260927
     RDKit          3D

 34 36  0  0  0  0  0  0  0  0999 V2000
   10.8310  -12.2440    1.7250 N   0  0  0  0  0  0  0  0  0  0  0  0
   11.4830  -12.1060    0.5210 C   0  0  0  0  0  0  0  0  0  0  0  0
   12.3030  -11.0430    0.3510 N   0  0  0  0  0  0  0  0  0  0  0  0
   12.9340  -10.9130   -0.8370 C   0  0  0  0  0  0  0  0  0  0  0  0
   12.8720  -11.7160   -1.9170 N   0  0  0  0  0  0  0  0  0  0  0  0
   12.0460  -12.7550   -1.6970 C   0  0  0  0  0  0  0  0  0  0  0  0
   11.3300  -13.0170   -0.5390 C   0  0  0  0  0  0  0  0  0  0  0  0
   10.5800  -14.1690   -0.6680 N   0  0  0  0  0  0  0  0  0  0  0  0
   10.8270  -14.5880   -1.8930 C   0  0  0  0  0  0  0  0  0  0  0  0
   11.7250  -13.7800   -2.5460 N   0  0  0  0  0  0  0  0  0  0  0  0
   12.2070  -13.9980   -3.8930 C   0  0  2  0  0  0  0  0  0  0  0  0
   11.1720  -14.5960   -4.8680 C   0  0  0  0  0  0  0  0  0  0  0  0
   11.8680  -15.7980   -5.5110 C   0  0  0  0  0  0  0  0  0  0  0  0
   13.3580  -15.4820   -5.3800 C   0  0  1  0  0  0  0  0  0  0  0  0
   13.6590  -14.5210   -6.3910 O   0  0  0  0  0  0  0  0  0  0  0  0
   13.6300  -15.0440   -7.7380 C   0  0  0  0  0  0  0  0  0  0  0  0
   14.9410  -15.7470   -8.1670 C   0  0  0  0  0  0  0  0  0  0  0  0
   14.8870  -16.9980   -8.3450 O   0  0  0  0  0  0  0  0  0  0  0  0
   15.9290  -14.9650   -8.3060 O   0  0  0  0  0  0  0  0  0  0  0  0
   13.4200  -14.9320   -3.9610 C   0  0  0  0  0  0  0  0  0  0  0  0
   10.1730  -11.5350    1.9980 H   0  0  0  0  0  0  0  0  0  0  0  0
   11.0010  -13.0790    2.2680 H   0  0  0  0  0  0  0  0  0  0  0  0
   13.5863  -10.0327   -0.9354 H   0  0  0  0  0  0  0  0  0  0  0  0
   10.3671  -15.4815   -2.3404 H   0  0  0  0  0  0  0  0  0  0  0  0
   12.4641  -12.9737   -4.2008 H   0  0  0  0  0  0  0  0  0  0  0  0
   10.2718  -14.9180   -4.3240 H   0  0  0  0  0  0  0  0  0  0  0  0
   10.8452  -13.8619   -5.6192 H   0  0  0  0  0  0  0  0  0  0  0  0
   11.6174  -16.7261   -4.9763 H   0  0  0  0  0  0  0  0  0  0  0  0
   11.5604  -15.9542   -6.5555 H   0  0  0  0  0  0  0  0  0  0  0  0
   14.0760  -16.3041   -5.5165 H   0  0  0  0  0  0  0  0  0  0  0  0
   12.8078  -15.7712   -7.8094 H   0  0  0  0  0  0  0  0  0  0  0  0
   13.4938  -14.1846   -8.4110 H   0  0  0  0  0  0  0  0  0  0  0  0
   13.3366  -15.7412   -3.2205 H   0  0  0  0  0  0  0  0  0  0  0  0
   14.3690  -14.4228   -3.7372 H   0  0  0  0  0  0  0  0  0  0  0  0
  1  2  1  0
  2  3  2  0
  3  4  1  0
  4  5  2  0
  5  6  1  0
  6  7  2  0
  7  8  1  0
  8  9  2  0
  9 10  1  0
 10 11  1  0
 11 12  1  0
 12 13  1  0
 13 14  1  0
 14 15  1  0
 15 16  1  0
 16 17  1  0
 17 18  2  0
 17 19  1  0
 14 20  1  0
  7  2  1  0
 20 11  1  0
 10  6  1  0
  1 21  1  0
  1 22  1  0
  4 23  1  0
  9 24  1  0
 11 25  1  6
 12 26  1  0
 12 27  1  0
 13 28  1  0
 13 29  1  0
 14 30  1  1
 16 31  1  0
 16 32  1  0
 20 33  1  0
 20 34  1  0
M  CHG  1  19  -1
M  END
>  <meeko>  (2) 
{"is_sidechain": [false], "free_energy": -5.94, "intermolecular_energy": -7.63, "internal_energy": -0.482}

$$$$
LIB_LTQZYVDQJCHOBT__M_PUB_ALL__e8__s20260927
     RDKit          3D

 34 36  0  0  0  0  0  0  0  0999 V2000
   15.1800  -11.7480   -3.1560 N   0  0  0  0  0  0  0  0  0  0  0  0
   13.9150  -12.2740   -3.2940 C   0  0  0  0  0  0  0  0  0  0  0  0
   13.5940  -12.8820   -4.4590 N   0  0  0  0  0  0  0  0  0  0  0  0
   12.3480  -13.3890   -4.5860 C   0  0  0  0  0  0  0  0  0  0  0  0
   11.3420  -13.3880   -3.6910 N   0  0  0  0  0  0  0  0  0  0  0  0
   11.7120  -12.7750   -2.5520 C   0  0  0  0  0  0  0  0  0  0  0  0
   12.9450  -12.2040   -2.2790 C   0  0  0  0  0  0  0  0  0  0  0  0
   12.9700  -11.6590   -1.0110 N   0  0  0  0  0  0  0  0  0  0  0  0
   11.7630  -11.8830   -0.5300 C   0  0  0  0  0  0  0  0  0  0  0  0
   10.9740  -12.5760   -1.4160 N   0  0  0  0  0  0  0  0  0  0  0  0
    9.6100  -12.9860   -1.1620 C   0  0  2  0  0  0  0  0  0  0  0  0
    9.3370  -14.4930   -1.3400 C   0  0  0  0  0  0  0  0  0  0  0  0
    8.1180  -14.5780   -2.2620 C   0  0  0  0  0  0  0  0  0  0  0  0
    7.4060  -13.2390   -2.0660 C   0  0  1  0  0  0  0  0  0  0  0  0
    6.7130  -13.3270   -0.8210 O   0  0  0  0  0  0  0  0  0  0  0  0
    6.3240  -12.0510   -0.2660 C   0  0  0  0  0  0  0  0  0  0  0  0
    6.8330  -11.8110    1.1760 C   0  0  0  0  0  0  0  0  0  0  0  0
    7.6250  -12.6740    1.6540 O   0  0  0  0  0  0  0  0  0  0  0  0
    6.3980  -10.7480    1.7110 O   0  0  0  0  0  0  0  0  0  0  0  0
    8.5860  -12.2760   -2.0540 C   0  0  0  0  0  0  0  0  0  0  0  0
   15.8590  -11.9400   -3.8730 H   0  0  0  0  0  0  0  0  0  0  0  0
   15.3650  -11.1470   -2.3660 H   0  0  0  0  0  0  0  0  0  0  0  0
   12.1253  -13.8673   -5.5512 H   0  0  0  0  0  0  0  0  0  0  0  0
   11.4270  -11.5536    0.4643 H   0  0  0  0  0  0  0  0  0  0  0  0
    9.4919  -12.7066   -0.1046 H   0  0  0  0  0  0  0  0  0  0  0  0
   10.2037  -14.9895   -1.8008 H   0  0  0  0  0  0  0  0  0  0  0  0
    9.1577  -14.9933   -0.3769 H   0  0  0  0  0  0  0  0  0  0  0  0
    8.4291  -14.7049   -3.3094 H   0  0  0  0  0  0  0  0  0  0  0  0
    7.4719  -15.4371   -2.0285 H   0  0  0  0  0  0  0  0  0  0  0  0
    6.6567  -12.9362   -2.8122 H   0  0  0  0  0  0  0  0  0  0  0  0
    6.7256  -11.2560   -0.9115 H   0  0  0  0  0  0  0  0  0  0  0  0
    5.2249  -12.0449   -0.2211 H   0  0  0  0  0  0  0  0  0  0  0  0
    8.9834  -12.1268   -3.0688 H   0  0  0  0  0  0  0  0  0  0  0  0
    8.3197  -11.2727   -1.6900 H   0  0  0  0  0  0  0  0  0  0  0  0
  1  2  1  0
  2  3  2  0
  3  4  1  0
  4  5  2  0
  5  6  1  0
  6  7  2  0
  7  8  1  0
  8  9  2  0
  9 10  1  0
 10 11  1  0
 11 12  1  0
 12 13  1  0
 13 14  1  0
 14 15  1  0
 15 16  1  0
 16 17  1  0
 17 18  2  0
 17 19  1  0
 14 20  1  0
  7  2  1  0
 20 11  1  0
 10  6  1  0
  1 21  1  0
  1 22  1  0
  4 23  1  0
  9 24  1  0
 11 25  1  1
 12 26  1  0
 12 27  1  0
 13 28  1  0
 13 29  1  0
 14 30  1  6
 16 31  1  0
 16 32  1  0
 20 33  1  0
 20 34  1  0
M  CHG  1  19  -1
M  END
>  <meeko>  (3) 
{"is_sidechain": [false], "free_energy": -5.626, "intermolecular_energy": -7.359, "internal_energy": -0.357}

$$$$
LIB_LTQZYVDQJCHOBT__M_PUB_ALL__e8__s20260927
     RDKit          3D

 34 36  0  0  0  0  0  0  0  0999 V2000
   15.1360  -11.5600   -3.1210 N   0  0  0  0  0  0  0  0  0  0  0  0
   13.8840  -12.1170   -2.9920 C   0  0  0  0  0  0  0  0  0  0  0  0
   13.4090  -12.8740   -4.0080 N   0  0  0  0  0  0  0  0  0  0  0  0
   12.1770  -13.4120   -3.8740 C   0  0  0  0  0  0  0  0  0  0  0  0
   11.3200  -13.3110   -2.8390 N   0  0  0  0  0  0  0  0  0  0  0  0
   11.8390  -12.5520   -1.8580 C   0  0  0  0  0  0  0  0  0  0  0  0
   13.0790  -11.9330   -1.8540 C   0  0  0  0  0  0  0  0  0  0  0  0
   13.2800  -11.2290   -0.6840 N   0  0  0  0  0  0  0  0  0  0  0  0
   12.1690  -11.4070    0.0040 C   0  0  0  0  0  0  0  0  0  0  0  0
   11.2780  -12.2190   -0.6540 N   0  0  0  0  0  0  0  0  0  0  0  0
    9.9850  -12.6130   -0.1400 C   0  0  2  0  0  0  0  0  0  0  0  0
    8.8310  -12.5570   -1.1620 C   0  0  0  0  0  0  0  0  0  0  0  0
    7.7240  -11.7480   -0.4800 C   0  0  0  0  0  0  0  0  0  0  0  0
    8.0040  -11.9170    1.0130 C   0  0  1  0  0  0  0  0  0  0  0  0
    7.5390  -13.2180    1.3690 O   0  0  0  0  0  0  0  0  0  0  0  0
    6.1260  -13.4260    1.1500 C   0  0  0  0  0  0  0  0  0  0  0  0
    5.7850  -14.7910    0.5030 C   0  0  0  0  0  0  0  0  0  0  0  0
    4.5590  -15.0880    0.4090 O   0  0  0  0  0  0  0  0  0  0  0  0
    6.7950  -15.4540    0.1240 O   0  0  0  0  0  0  0  0  0  0  0  0
    9.5190  -11.7660    1.0500 C   0  0  0  0  0  0  0  0  0  0  0  0
   15.4880  -11.3820   -4.0460 H   0  0  0  0  0  0  0  0  0  0  0  0
   15.6340  -11.3030   -2.2810 H   0  0  0  0  0  0  0  0  0  0  0  0
   11.8259  -14.0140   -4.7250 H   0  0  0  0  0  0  0  0  0  0  0  0
   11.9783  -10.9576    0.9897 H   0  0  0  0  0  0  0  0  0  0  0  0
   10.1763  -13.6559    0.1529 H   0  0  0  0  0  0  0  0  0  0  0  0
    9.1589  -12.0582   -2.0860 H   0  0  0  0  0  0  0  0  0  0  0  0
    8.4872  -13.5623   -1.4469 H   0  0  0  0  0  0  0  0  0  0  0  0
    7.7795  -10.6884   -0.7701 H   0  0  0  0  0  0  0  0  0  0  0  0
    6.7170  -12.0895   -0.7618 H   0  0  0  0  0  0  0  0  0  0  0  0
    7.5210  -11.2186    1.7122 H   0  0  0  0  0  0  0  0  0  0  0  0
    5.6125  -13.3651    2.1209 H   0  0  0  0  0  0  0  0  0  0  0  0
    5.7942  -12.6479    0.4469 H   0  0  0  0  0  0  0  0  0  0  0  0
    9.8136  -10.7137    0.9245 H   0  0  0  0  0  0  0  0  0  0  0  0
    9.9609  -12.0848    2.0056 H   0  0  0  0  0  0  0  0  0  0  0  0
  1  2  1  0
  2  3  2  0
  3  4  1  0
  4  5  2  0
  5  6  1  0
  6  7  2  0
  7  8  1  0
  8  9  2  0
  9 10  1  0
 10 11  1  0
 11 12  1  0
 12 13  1  0
 13 14  1  0
 14 15  1  0
 15 16  1  0
 16 17  1  0
 17 18  2  0
 17 19  1  0
 14 20  1  0
  7  2  1  0
 20 11  1  0
 10  6  1  0
  1 21  1  0
  1 22  1  0
  4 23  1  0
  9 24  1  0
 11 25  1  1
 12 26  1  0
 12 27  1  0
 13 28  1  0
 13 29  1  0
 14 30  1  1
 16 31  1  0
 16 32  1  0
 20 33  1  0
 20 34  1  0
M  CHG  1  19  -1
M  END
>  <meeko>  (4) 
{"is_sidechain": [false], "free_energy": -5.477, "intermolecular_energy": -7.318, "internal_energy": -0.21}

$$$$
LIB_LTQZYVDQJCHOBT__M_PUB_ALL__e8__s20260927
     RDKit          3D

 34 36  0  0  0  0  0  0  0  0999 V2000
   14.2440  -13.8080   -5.4820 N   0  0  0  0  0  0  0  0  0  0  0  0
   13.5340  -13.1570   -4.4990 C   0  0  0  0  0  0  0  0  0  0  0  0
   14.2060  -12.3520   -3.6440 N   0  0  0  0  0  0  0  0  0  0  0  0
   13.5010  -11.7220   -2.6790 C   0  0  0  0  0  0  0  0  0  0  0  0
   12.1770  -11.7700   -2.4350 N   0  0  0  0  0  0  0  0  0  0  0  0
   11.5560  -12.5800   -3.3110 C   0  0  0  0  0  0  0  0  0  0  0  0
   12.1430  -13.2930   -4.3440 C   0  0  0  0  0  0  0  0  0  0  0  0
   11.2020  -14.0260   -5.0400 N   0  0  0  0  0  0  0  0  0  0  0  0
   10.0640  -13.7710   -4.4260 C   0  0  0  0  0  0  0  0  0  0  0  0
   10.2230  -12.8840   -3.3890 N   0  0  0  0  0  0  0  0  0  0  0  0
    9.1520  -12.3980   -2.5470 C   0  0  2  0  0  0  0  0  0  0  0  0
    8.2730  -13.4930   -1.9110 C   0  0  0  0  0  0  0  0  0  0  0  0
    6.8300  -13.0950   -2.2360 C   0  0  0  0  0  0  0  0  0  0  0  0
    6.9010  -11.5840   -2.4580 C   0  0  1  0  0  0  0  0  0  0  0  0
    6.9790  -10.9860   -1.1650 O   0  0  0  0  0  0  0  0  0  0  0  0
    6.0180  -11.4960   -0.2140 C   0  0  0  0  0  0  0  0  0  0  0  0
    6.4020  -11.2430    1.2640 C   0  0  0  0  0  0  0  0  0  0  0  0
    6.7110  -10.0580    1.5800 O   0  0  0  0  0  0  0  0  0  0  0  0
    6.3450  -12.2730    2.0000 O   0  0  0  0  0  0  0  0  0  0  0  0
    8.1800  -11.4640   -3.2770 C   0  0  0  0  0  0  0  0  0  0  0  0
   14.0200  -13.6140   -6.4430 H   0  0  0  0  0  0  0  0  0  0  0  0
   14.9980  -14.4190   -5.2020 H   0  0  0  0  0  0  0  0  0  0  0  0
   14.0870  -11.0839   -2.0012 H   0  0  0  0  0  0  0  0  0  0  0  0
    9.0994  -14.2164   -4.7107 H   0  0  0  0  0  0  0  0  0  0  0  0
    9.7144  -11.8681   -1.7641 H   0  0  0  0  0  0  0  0  0  0  0  0
    8.5083  -14.4760   -2.3451 H   0  0  0  0  0  0  0  0  0  0  0  0
    8.4409  -13.5744   -0.8269 H   0  0  0  0  0  0  0  0  0  0  0  0
    6.4788  -13.6070   -3.1440 H   0  0  0  0  0  0  0  0  0  0  0  0
    6.1257  -13.3718   -1.4377 H   0  0  0  0  0  0  0  0  0  0  0  0
    6.0579  -11.0963   -2.9691 H   0  0  0  0  0  0  0  0  0  0  0  0
    5.0492  -11.0124   -0.4076 H   0  0  0  0  0  0  0  0  0  0  0  0
    5.9810  -12.5867   -0.3517 H   0  0  0  0  0  0  0  0  0  0  0  0
    8.0175  -11.7955   -4.3132 H   0  0  0  0  0  0  0  0  0  0  0  0
    8.5490  -10.4304   -3.3520 H   0  0  0  0  0  0  0  0  0  0  0  0
  1  2  1  0
  2  3  2  0
  3  4  1  0
  4  5  2  0
  5  6  1  0
  6  7  2  0
  7  8  1  0
  8  9  2  0
  9 10  1  0
 10 11  1  0
 11 12  1  0
 12 13  1  0
 13 14  1  0
 14 15  1  0
 15 16  1  0
 16 17  1  0
 17 18  2  0
 17 19  1  0
 14 20  1  0
  7  2  1  0
 20 11  1  0
 10  6  1  0
  1 21  1  0
  1 22  1  0
  4 23  1  0
  9 24  1  0
 11 25  1  1
 12 26  1  0
 12 27  1  0
 13 28  1  0
 13 29  1  0
 14 30  1  6
 16 31  1  0
 16 32  1  0
 20 33  1  0
 20 34  1  0
M  CHG  1  19  -1
M  END
>  <meeko>  (5) 
{"is_sidechain": [false], "free_energy": -5.47, "intermolecular_energy": -7.163, "internal_energy": -0.355}

$$$$
LIB_LTQZYVDQJCHOBT__M_PUB_ALL__e8__s20260927
     RDKit          3D

 34 36  0  0  0  0  0  0  0  0999 V2000
   -1.8560  -19.6780    4.7270 N   0  0  0  0  0  0  0  0  0  0  0  0
   -2.2570  -18.3950    4.4280 C   0  0  0  0  0  0  0  0  0  0  0  0
   -3.3830  -17.9210    5.0090 N   0  0  0  0  0  0  0  0  0  0  0  0
   -3.7710  -16.6630    4.7040 C   0  0  0  0  0  0  0  0  0  0  0  0
   -3.1800  -15.7740    3.8830 N   0  0  0  0  0  0  0  0  0  0  0  0
   -2.0680  -16.2920    3.3340 C   0  0  0  0  0  0  0  0  0  0  0  0
   -1.5500  -17.5610    3.5450 C   0  0  0  0  0  0  0  0  0  0  0  0
   -0.3960  -17.7550    2.8120 N   0  0  0  0  0  0  0  0  0  0  0  0
   -0.2280  -16.6250    2.1540 C   0  0  0  0  0  0  0  0  0  0  0  0
   -1.1990  -15.7020    2.4550 N   0  0  0  0  0  0  0  0  0  0  0  0
   -1.2660  -14.3640    1.9070 C   0  0  2  0  0  0  0  0  0  0  0  0
   -0.7570  -14.2260    0.4580 C   0  0  0  0  0  0  0  0  0  0  0  0
    0.2450  -13.0680    0.4890 C   0  0  0  0  0  0  0  0  0  0  0  0
   -0.1780  -12.2400    1.7030 C   0  0  1  0  0  0  0  0  0  0  0  0
   -1.3250  -11.4910    1.3030 O   0  0  0  0  0  0  0  0  0  0  0  0
   -1.9770  -10.7820    2.3800 C   0  0  0  0  0  0  0  0  0  0  0  0
   -1.4450   -9.3440    2.5980 C   0  0  0  0  0  0  0  0  0  0  0  0
   -0.8000   -8.8220    1.6440 O   0  0  0  0  0  0  0  0  0  0  0  0
   -1.7380   -8.8470    3.7260 O   0  0  0  0  0  0  0  0  0  0  0  0
   -0.4740  -13.3350    2.7200 C   0  0  0  0  0  0  0  0  0  0  0  0
   -0.9360  -19.9710    4.4430 H   0  0  0  0  0  0  0  0  0  0  0  0
   -2.4800  -20.2610    5.2660 H   0  0  0  0  0  0  0  0  0  0  0  0
   -4.6945  -16.3185    5.1924 H   0  0  0  0  0  0  0  0  0  0  0  0
    0.5942  -16.4428    1.4463 H   0  0  0  0  0  0  0  0  0  0  0  0
   -2.3475  -14.1664    1.9438 H   0  0  0  0  0  0  0  0  0  0  0  0
   -0.2634  -15.1538    0.1332 H   0  0  0  0  0  0  0  0  0  0  0  0
   -1.5787  -14.0379   -0.2487 H   0  0  0  0  0  0  0  0  0  0  0  0
    1.2717  -13.4434    0.6111 H   0  0  0  0  0  0  0  0  0  0  0  0
    0.2423  -12.4828   -0.4424 H   0  0  0  0  0  0  0  0  0  0  0  0
    0.5385  -11.5096    2.1069 H   0  0  0  0  0  0  0  0  0  0  0  0
   -3.0521  -10.7230    2.1548 H   0  0  0  0  0  0  0  0  0  0  0  0
   -1.7687  -11.3426    3.3032 H   0  0  0  0  0  0  0  0  0  0  0  0
    0.4566  -13.7726    3.1104 H   0  0  0  0  0  0  0  0  0  0  0  0
   -1.0209  -12.9685    3.6012 H   0  0  0  0  0  0  0  0  0  0  0  0
  1  2  1  0
  2  3  2  0
  3  4  1  0
  4  5  2  0
  5  6  1  0
  6  7  2  0
  7  8  1  0
  8  9  2  0
  9 10  1  0
 10 11  1  0
 11 12  1  0
 12 13  1  0
 13 14  1  0
 14 15  1  0
 15 16  1  0
 16 17  1  0
 17 18  2  0
 17 19  1  0
 14 20  1  0
  7  2  1  0
 20 11  1  0
 10  6  1  0
  1 21  1  0
  1 22  1  0
  4 23  1  0
  9 24  1  0
 11 25  1  6
 12 26  1  0
 12 27  1  0
 13 28  1  0
 13 29  1  0
 14 30  1  1
 16 31  1  0
 16 32  1  0
 20 33  1  0
 20 34  1  0
M  CHG  1  19  -1
M  END
>  <meeko>  (6) 
{"is_sidechain": [false], "free_energy": -5.336, "intermolecular_energy": -6.886, "internal_energy": -0.464}

$$$$
LIB_LTQZYVDQJCHOBT__M_PUB_ALL__e8__s20260927
     RDKit          3D

 34 36  0  0  0  0  0  0  0  0999 V2000
    5.1280  -13.0440    2.8850 N   0  0  0  0  0  0  0  0  0  0  0  0
    5.9790  -12.5560    1.9190 C   0  0  0  0  0  0  0  0  0  0  0  0
    6.1480  -11.2170    1.8270 N   0  0  0  0  0  0  0  0  0  0  0  0
    6.9810  -10.7470    0.8730 C   0  0  0  0  0  0  0  0  0  0  0  0
    7.7020  -11.4380   -0.0320 N   0  0  0  0  0  0  0  0  0  0  0  0
    7.5000  -12.7610    0.1020 C   0  0  0  0  0  0  0  0  0  0  0  0
    6.6760  -13.3870    1.0250 C   0  0  0  0  0  0  0  0  0  0  0  0
    6.7080  -14.7590    0.8700 N   0  0  0  0  0  0  0  0  0  0  0  0
    7.5270  -14.9580   -0.1430 C   0  0  0  0  0  0  0  0  0  0  0  0
    8.0500  -13.7830   -0.6250 N   0  0  0  0  0  0  0  0  0  0  0  0
    8.9940  -13.6850   -1.7170 C   0  0  2  0  0  0  0  0  0  0  0  0
    8.6960  -14.5980   -2.9230 C   0  0  0  0  0  0  0  0  0  0  0  0
   10.0040  -15.3450   -3.2000 C   0  0  0  0  0  0  0  0  0  0  0  0
   11.0850  -14.4350   -2.6150 C   0  0  1  0  0  0  0  0  0  0  0  0
   11.2690  -13.3710   -3.5480 O   0  0  0  0  0  0  0  0  0  0  0  0
   12.5590  -13.3670   -4.1990 C   0  0  0  0  0  0  0  0  0  0  0  0
   13.4840  -12.2090   -3.7530 C   0  0  0  0  0  0  0  0  0  0  0  0
   14.7180  -12.4670   -3.6590 O   0  0  0  0  0  0  0  0  0  0  0  0
   12.8820  -11.1130   -3.5460 O   0  0  0  0  0  0  0  0  0  0  0  0
   10.4350  -14.0080   -1.3050 C   0  0  0  0  0  0  0  0  0  0  0  0
    5.1820  -14.0200    3.1210 H   0  0  0  0  0  0  0  0  0  0  0  0
    4.5150  -12.3940    3.3550 H   0  0  0  0  0  0  0  0  0  0  0  0
    7.0848   -9.6528    0.8289 H   0  0  0  0  0  0  0  0  0  0  0  0
    7.7643  -15.9500   -0.5548 H   0  0  0  0  0  0  0  0  0  0  0  0
    8.8800  -12.6307   -2.0092 H   0  0  0  0  0  0  0  0  0  0  0  0
    7.8917  -15.3076   -2.6791 H   0  0  0  0  0  0  0  0  0  0  0  0
    8.3598  -14.0230   -3.7984 H   0  0  0  0  0  0  0  0  0  0  0  0
   10.0069  -16.3253   -2.7010 H   0  0  0  0  0  0  0  0  0  0  0  0
   10.1562  -15.5467   -4.2706 H   0  0  0  0  0  0  0  0  0  0  0  0
   12.0830  -14.8631   -2.4397 H   0  0  0  0  0  0  0  0  0  0  0  0
   13.0630  -14.3187   -3.9746 H   0  0  0  0  0  0  0  0  0  0  0  0
   12.3730  -13.2304   -5.2745 H   0  0  0  0  0  0  0  0  0  0  0  0
   10.4608  -14.8239   -0.5677 H   0  0  0  0  0  0  0  0  0  0  0  0
   10.9468  -13.1602   -0.8261 H   0  0  0  0  0  0  0  0  0  0  0  0
  1  2  1  0
  2  3  2  0
  3  4  1  0
  4  5  2  0
  5  6  1  0
  6  7  2  0
  7  8  1  0
  8  9  2  0
  9 10  1  0
 10 11  1  0
 11 12  1  0
 12 13  1  0
 13 14  1  0
 14 15  1  0
 15 16  1  0
 16 17  1  0
 17 18  2  0
 17 19  1  0
 14 20  1  0
  7  2  1  0
 20 11  1  0
 10  6  1  0
  1 21  1  0
  1 22  1  0
  4 23  1  0
  9 24  1  0
 11 25  1  6
 12 26  1  0
 12 27  1  0
 13 28  1  0
 13 29  1  0
 14 30  1  1
 16 31  1  0
 16 32  1  0
 20 33  1  0
 20 34  1  0
M  CHG  1  19  -1
M  END
>  <meeko>  (7) 
{"is_sidechain": [false], "free_energy": -5.336, "intermolecular_energy": -6.922, "internal_energy": -0.428}

$$$$
LIB_LTQZYVDQJCHOBT__M_PUB_ALL__e8__s20260927
     RDKit          3D

 34 36  0  0  0  0  0  0  0  0999 V2000
   -2.7120  -18.7620    2.7820 N   0  0  0  0  0  0  0  0  0  0  0  0
   -1.8590  -17.7560    2.3880 C   0  0  0  0  0  0  0  0  0  0  0  0
   -0.7000  -18.0960    1.7790 N   0  0  0  0  0  0  0  0  0  0  0  0
    0.1320  -17.1010    1.4010 C   0  0  0  0  0  0  0  0  0  0  0  0
   -0.0270  -15.7710    1.5380 N   0  0  0  0  0  0  0  0  0  0  0  0
   -1.1920  -15.4860    2.1470 C   0  0  0  0  0  0  0  0  0  0  0  0
   -2.1400  -16.3930    2.5940 C   0  0  0  0  0  0  0  0  0  0  0  0
   -3.2120  -15.7470    3.1760 N   0  0  0  0  0  0  0  0  0  0  0  0
   -2.9090  -14.4670    3.0960 C   0  0  0  0  0  0  0  0  0  0  0  0
   -1.7090  -14.2570    2.4610 N   0  0  0  0  0  0  0  0  0  0  0  0
   -1.1250  -12.9590    2.2060 C   0  0  2  0  0  0  0  0  0  0  0  0
   -1.0970  -12.0050    3.4170 C   0  0  0  0  0  0  0  0  0  0  0  0
   -1.7170  -10.6970    2.9180 C   0  0  0  0  0  0  0  0  0  0  0  0
   -1.4950  -10.7310    1.4060 C   0  0  1  0  0  0  0  0  0  0  0  0
   -0.1260  -10.3910    1.1890 O   0  0  0  0  0  0  0  0  0  0  0  0
    0.2200  -10.1690   -0.1970 C   0  0  0  0  0  0  0  0  0  0  0  0
    1.3210  -11.1180   -0.7300 C   0  0  0  0  0  0  0  0  0  0  0  0
    1.7280  -10.9160   -1.9100 O   0  0  0  0  0  0  0  0  0  0  0  0
    1.7010  -11.9940    0.1040 O   0  0  0  0  0  0  0  0  0  0  0  0
   -1.8320  -12.1830    1.0900 C   0  0  0  0  0  0  0  0  0  0  0  0
   -3.5020  -18.9770    2.1980 H   0  0  0  0  0  0  0  0  0  0  0  0
   -2.4850  -19.2820    3.6180 H   0  0  0  0  0  0  0  0  0  0  0  0
    1.0659  -17.4207    0.9155 H   0  0  0  0  0  0  0  0  0  0  0  0
   -3.5434  -13.6602    3.4918 H   0  0  0  0  0  0  0  0  0  0  0  0
   -0.0984  -13.2348    1.9232 H   0  0  0  0  0  0  0  0  0  0  0  0
   -1.6882  -12.4192    4.2470 H   0  0  0  0  0  0  0  0  0  0  0  0
   -0.0754  -11.8551    3.7964 H   0  0  0  0  0  0  0  0  0  0  0  0
   -2.7907  -10.6590    3.1541 H   0  0  0  0  0  0  0  0  0  0  0  0
   -1.2686   -9.8105    3.3903 H   0  0  0  0  0  0  0  0  0  0  0  0
   -2.0836  -10.0435    0.7808 H   0  0  0  0  0  0  0  0  0  0  0  0
   -0.6845  -10.3114   -0.8066 H   0  0  0  0  0  0  0  0  0  0  0  0
    0.6199   -9.1466   -0.2658 H   0  0  0  0  0  0  0  0  0  0  0  0
   -2.9187  -12.3511    1.1204 H   0  0  0  0  0  0  0  0  0  0  0  0
   -1.5129  -12.4900    0.0830 H   0  0  0  0  0  0  0  0  0  0  0  0
  1  2  1  0
  2  3  2  0
  3  4  1  0
  4  5  2  0
  5  6  1  0
  6  7  2  0
  7  8  1  0
  8  9  2  0
  9 10  1  0
 10 11  1  0
 11 12  1  0
 12 13  1  0
 13 14  1  0
 14 15  1  0
 15 16  1  0
 16 17  1  0
 17 18  2  0
 17 19  1  0
 14 20  1  0
  7  2  1  0
 20 11  1  0
 10  6  1  0
  1 21  1  0
  1 22  1  0
  4 23  1  0
  9 24  1  0
 11 25  1  6
 12 26  1  0
 12 27  1  0
 13 28  1  0
 13 29  1  0
 14 30  1  6
 16 31  1  0
 16 32  1  0
 20 33  1  0
 20 34  1  0
M  CHG  1  19  -1
M  END
>  <meeko>  (8) 
{"is_sidechain": [false], "free_energy": -5.313, "intermolecular_energy": -6.721, "internal_energy": -0.6}

$$$$
LIB_LTQZYVDQJCHOBT__M_PUB_ALL__e8__s20260927
     RDKit          3D

 34 36  0  0  0  0  0  0  0  0999 V2000
   12.7550  -13.3450    0.1040 N   0  0  0  0  0  0  0  0  0  0  0  0
   11.9660  -12.9650   -0.9580 C   0  0  0  0  0  0  0  0  0  0  0  0
   12.5620  -12.7180   -2.1470 N   0  0  0  0  0  0  0  0  0  0  0  0
   11.7800  -12.3400   -3.1820 C   0  0  0  0  0  0  0  0  0  0  0  0
   10.4430  -12.1730   -3.2110 N   0  0  0  0  0  0  0  0  0  0  0  0
    9.9000  -12.4320   -2.0080 C   0  0  0  0  0  0  0  0  0  0  0  0
   10.5710  -12.8210   -0.8600 C   0  0  0  0  0  0  0  0  0  0  0  0
    9.6950  -12.9950    0.1930 N   0  0  0  0  0  0  0  0  0  0  0  0
    8.5120  -12.6990   -0.3080 C   0  0  0  0  0  0  0  0  0  0  0  0
    8.5820  -12.3760   -1.6410 N   0  0  0  0  0  0  0  0  0  0  0  0
    7.4460  -12.0280   -2.4680 C   0  0  2  0  0  0  0  0  0  0  0  0
    6.3980  -11.1220   -1.7900 C   0  0  0  0  0  0  0  0  0  0  0  0
    5.0540  -11.8230   -2.0100 C   0  0  0  0  0  0  0  0  0  0  0  0
    5.2800  -12.6840   -3.2530 C   0  0  1  0  0  0  0  0  0  0  0  0
    5.2230  -11.8010   -4.3730 O   0  0  0  0  0  0  0  0  0  0  0  0
    4.5210  -12.3370   -5.5170 C   0  0  0  0  0  0  0  0  0  0  0  0
    5.4520  -12.8930   -6.6220 C   0  0  0  0  0  0  0  0  0  0  0  0
    5.8200  -14.0980   -6.5060 O   0  0  0  0  0  0  0  0  0  0  0  0
    5.7280  -12.0620   -7.5370 O   0  0  0  0  0  0  0  0  0  0  0  0
    6.6680  -13.2470   -2.9750 C   0  0  0  0  0  0  0  0  0  0  0  0
   13.5170  -12.7460    0.3730 H   0  0  0  0  0  0  0  0  0  0  0  0
   12.5100  -14.1870    0.6050 H   0  0  0  0  0  0  0  0  0  0  0  0
   12.3052  -12.1420   -4.1280 H   0  0  0  0  0  0  0  0  0  0  0  0
    7.5783  -12.7095    0.2735 H   0  0  0  0  0  0  0  0  0  0  0  0
    7.9332  -11.4851   -3.2913 H   0  0  0  0  0  0  0  0  0  0  0  0
    6.6104  -11.0249   -0.7151 H   0  0  0  0  0  0  0  0  0  0  0  0
    6.4032  -10.1049   -2.2088 H   0  0  0  0  0  0  0  0  0  0  0  0
    4.7939  -12.4490   -1.1437 H   0  0  0  0  0  0  0  0  0  0  0  0
    4.2234  -11.1127   -2.1344 H   0  0  0  0  0  0  0  0  0  0  0  0
    4.5618  -13.4904   -3.4623 H   0  0  0  0  0  0  0  0  0  0  0  0
    3.8683  -13.1524   -5.1717 H   0  0  0  0  0  0  0  0  0  0  0  0
    3.9576  -11.5046   -5.9639 H   0  0  0  0  0  0  0  0  0  0  0  0
    6.6276  -14.0355   -2.2091 H   0  0  0  0  0  0  0  0  0  0  0  0
    7.1280  -13.7154   -3.8576 H   0  0  0  0  0  0  0  0  0  0  0  0
  1  2  1  0
  2  3  2  0
  3  4  1  0
  4  5  2  0
  5  6  1  0
  6  7  2  0
  7  8  1  0
  8  9  2  0
  9 10  1  0
 10 11  1  0
 11 12  1  0
 12 13  1  0
 13 14  1  0
 14 15  1  0
 15 16  1  0
 16 17  1  0
 17 18  2  0
 17 19  1  0
 14 20  1  0
  7  2  1  0
 20 11  1  0
 10  6  1  0
  1 21  1  0
  1 22  1  0
  4 23  1  0
  9 24  1  0
 11 25  1  6
 12 26  1  0
 12 27  1  0
 13 28  1  0
 13 29  1  0
 14 30  1  6
 16 31  1  0
 16 32  1  0
 20 33  1  0
 20 34  1  0
M  CHG  1  19  -1
M  END
>  <meeko>  (9) 
{"is_sidechain": [false], "free_energy": -5.247, "intermolecular_energy": -6.718, "internal_energy": -0.52}

$$$$
