LIB_CBCCXWBWQDCXLH__M_PUB_ALL__e8__s20260927
     RDKit          3D

 29 29  0  0  0  0  0  0  0  0999 V2000
    6.5260   -8.1740    2.3590 C   0  0  0  0  0  0  0  0  0  0  0  0
    7.5110   -7.9150    1.2610 C   0  0  0  0  0  0  0  0  0  0  0  0
    8.2620   -6.9520    1.2130 O   0  0  0  0  0  0  0  0  0  0  0  0
    7.4610   -8.9170    0.3390 O   0  0  0  0  0  0  0  0  0  0  0  0
    7.1020  -10.2150    0.8480 C   0  0  0  0  0  0  0  0  0  0  0  0
    7.0310  -11.2310   -0.2750 C   0  0  0  0  0  0  0  0  0  0  0  0
    7.8380  -12.7320    0.2180 S   0  0  0  0  0  0  0  0  0  0  0  0
    7.7950  -12.8270    1.6640 O   0  0  0  0  0  0  0  0  0  0  0  0
    7.4160  -13.8250   -0.6330 O   0  0  0  0  0  0  0  0  0  0  0  0
    9.5570  -12.4580   -0.1550 C   0  0  0  0  0  0  0  0  0  0  0  0
   10.6170  -12.0550    0.6360 C   0  0  0  0  0  0  0  0  0  0  0  0
   11.8340  -11.9690   -0.0970 C   0  0  0  0  0  0  0  0  0  0  0  0
   11.6710  -12.3140   -1.4250 C   0  0  0  0  0  0  0  0  0  0  0  0
   12.8050  -12.3890   -2.7830 S   0  0  0  0  0  0  0  0  0  0  0  0
   14.2730  -11.7430   -2.2900 N   0  0  0  0  0  0  0  0  0  0  0  0
   12.2820  -11.4860   -3.7800 O   0  0  0  0  0  0  0  0  0  0  0  0
   13.0350  -13.7910   -3.0450 O   0  0  0  0  0  0  0  0  0  0  0  0
   10.0500  -12.7400   -1.7680 S   0  0  0  0  0  0  0  0  0  0  0  0
    7.0202   -8.0441    3.3331 H   0  0  0  0  0  0  0  0  0  0  0  0
    5.6888   -7.4655    2.2752 H   0  0  0  0  0  0  0  0  0  0  0  0
    6.1456   -9.2027    2.2752 H   0  0  0  0  0  0  0  0  0  0  0  0
    7.8577  -10.5376    1.5793 H   0  0  0  0  0  0  0  0  0  0  0  0
    6.1133  -10.1463    1.3253 H   0  0  0  0  0  0  0  0  0  0  0  0
    5.9773  -11.4431   -0.5090 H   0  0  0  0  0  0  0  0  0  0  0  0
    7.5344  -10.8240   -1.1644 H   0  0  0  0  0  0  0  0  0  0  0  0
   10.5298  -11.8270    1.7086 H   0  0  0  0  0  0  0  0  0  0  0  0
   12.7944  -11.6629    0.3433 H   0  0  0  0  0  0  0  0  0  0  0  0
   15.0360  -12.3090   -2.6660 H   0  0  0  0  0  0  0  0  0  0  0  0
   14.2950  -11.6870   -1.2710 H   0  0  0  0  0  0  0  0  0  0  0  0
  1  2  1  0
  2  3  2  0
  2  4  1  0
  4  5  1  0
  5  6  1  0
  6  7  1  0
  7  8  2  0
  7  9  2  0
  7 10  1  0
 10 11  2  0
 11 12  1  0
 12 13  2  0
 13 14  1  0
 14 15  1  0
 14 16  2  0
 14 17  2  0
 13 18  1  0
 18 10  1  0
  1 19  1  0
  1 20  1  0
  1 21  1  0
  5 22  1  0
  5 23  1  0
  6 24  1  0
  6 25  1  0
 11 26  1  0
 12 27  1  0
 15 28  1  0
 15 29  1  0
M  END
>  <meeko>  (1) 
{"is_sidechain": [false], "free_energy": -5.73, "intermolecular_energy": -7.907, "internal_energy": -0.345}

$$$$
LIB_CBCCXWBWQDCXLH__M_PUB_ALL__e8__s20260927
     RDKit          3D

 29 29  0  0  0  0  0  0  0  0999 V2000
    7.2370   -7.3100    1.5040 C   0  0  0  0  0  0  0  0  0  0  0  0
    6.8130   -8.7180    1.7920 C   0  0  0  0  0  0  0  0  0  0  0  0
    5.8970   -9.0290    2.5390 O   0  0  0  0  0  0  0  0  0  0  0  0
    7.5810   -9.5930    1.0870 O   0  0  0  0  0  0  0  0  0  0  0  0
    7.0510  -10.9260    0.9610 C   0  0  0  0  0  0  0  0  0  0  0  0
    7.4710  -11.5490   -0.3560 C   0  0  0  0  0  0  0  0  0  0  0  0
    8.7790  -12.7150   -0.0800 S   0  0  0  0  0  0  0  0  0  0  0  0
    9.6460  -12.2000    0.9620 O   0  0  0  0  0  0  0  0  0  0  0  0
    8.2450  -14.0600   -0.0350 O   0  0  0  0  0  0  0  0  0  0  0  0
    9.7710  -12.6320   -1.5570 C   0  0  0  0  0  0  0  0  0  0  0  0
    9.4440  -12.3500   -2.8700 C   0  0  0  0  0  0  0  0  0  0  0  0
   10.5780  -12.3980   -3.7300 C   0  0  0  0  0  0  0  0  0  0  0  0
   11.7380  -12.7100   -3.0490 C   0  0  0  0  0  0  0  0  0  0  0  0
   13.4150  -12.9080   -3.5830 S   0  0  0  0  0  0  0  0  0  0  0  0
   13.4820  -12.6500   -5.2400 N   0  0  0  0  0  0  0  0  0  0  0  0
   13.7290  -14.3020   -3.3800 O   0  0  0  0  0  0  0  0  0  0  0  0
   14.1680  -11.8420   -2.9660 O   0  0  0  0  0  0  0  0  0  0  0  0
   11.4440  -12.9380   -1.3790 S   0  0  0  0  0  0  0  0  0  0  0  0
    7.3982   -6.7746    2.4513 H   0  0  0  0  0  0  0  0  0  0  0  0
    8.1720   -7.3199    0.9246 H   0  0  0  0  0  0  0  0  0  0  0  0
    6.4520   -6.8019    0.9246 H   0  0  0  0  0  0  0  0  0  0  0  0
    7.4282  -11.5441    1.7891 H   0  0  0  0  0  0  0  0  0  0  0  0
    5.9527  -10.8737    0.9924 H   0  0  0  0  0  0  0  0  0  0  0  0
    6.6105  -12.0655   -0.8064 H   0  0  0  0  0  0  0  0  0  0  0  0
    7.8261  -10.7591   -1.0342 H   0  0  0  0  0  0  0  0  0  0  0  0
    8.4250  -12.1155   -3.2114 H   0  0  0  0  0  0  0  0  0  0  0  0
   10.5348  -12.2083   -4.8127 H   0  0  0  0  0  0  0  0  0  0  0  0
   13.5780  -11.6500   -5.4230 H   0  0  0  0  0  0  0  0  0  0  0  0
   12.6520  -13.0490   -5.6800 H   0  0  0  0  0  0  0  0  0  0  0  0
  1  2  1  0
  2  3  2  0
  2  4  1  0
  4  5  1  0
  5  6  1  0
  6  7  1  0
  7  8  2  0
  7  9  2  0
  7 10  1  0
 10 11  2  0
 11 12  1  0
 12 13  2  0
 13 14  1  0
 14 15  1  0
 14 16  2  0
 14 17  2  0
 13 18  1  0
 18 10  1  0
  1 19  1  0
  1 20  1  0
  1 21  1  0
  5 22  1  0
  5 23  1  0
  6 24  1  0
  6 25  1  0
 11 26  1  0
 12 27  1  0
 15 28  1  0
 15 29  1  0
M  END
>  <meeko>  (2) 
{"is_sidechain": [false], "free_energy": -5.476, "intermolecular_energy": -7.63, "internal_energy": -0.271}

$$$$
LIB_CBCCXWBWQDCXLH__M_PUB_ALL__e8__s20260927
     RDKit          3D

 29 29  0  0  0  0  0  0  0  0999 V2000
    6.5650  -13.5010  -11.1980 C   0  0  0  0  0  0  0  0  0  0  0  0
    7.4250  -12.4150  -10.6280 C   0  0  0  0  0  0  0  0  0  0  0  0
    7.2870  -11.2240  -10.8610 O   0  0  0  0  0  0  0  0  0  0  0  0
    8.3660  -12.9470   -9.7990 O   0  0  0  0  0  0  0  0  0  0  0  0
    9.5360  -13.4810  -10.4470 C   0  0  0  0  0  0  0  0  0  0  0  0
   10.7770  -12.7150  -10.0300 C   0  0  0  0  0  0  0  0  0  0  0  0
   11.8380  -12.4790  -11.4310 S   0  0  0  0  0  0  0  0  0  0  0  0
   11.2700  -13.1810  -12.5650 O   0  0  0  0  0  0  0  0  0  0  0  0
   12.2460  -11.0920  -11.5170 O   0  0  0  0  0  0  0  0  0  0  0  0
   13.3110  -13.3980  -11.0370 C   0  0  0  0  0  0  0  0  0  0  0  0
   14.4610  -13.6480  -11.7610 C   0  0  0  0  0  0  0  0  0  0  0  0
   15.3930  -14.4440  -11.0370 C   0  0  0  0  0  0  0  0  0  0  0  0
   14.9290  -14.7760   -9.7780 C   0  0  0  0  0  0  0  0  0  0  0  0
   15.6370  -15.7280   -8.4620 S   0  0  0  0  0  0  0  0  0  0  0  0
   15.4580  -14.8750   -7.0290 N   0  0  0  0  0  0  0  0  0  0  0  0
   17.0540  -15.7720   -8.7300 O   0  0  0  0  0  0  0  0  0  0  0  0
   14.8290  -16.9180   -8.3410 O   0  0  0  0  0  0  0  0  0  0  0  0
   13.3780  -14.1180   -9.4860 S   0  0  0  0  0  0  0  0  0  0  0  0
    6.1095  -14.0762  -10.3784 H   0  0  0  0  0  0  0  0  0  0  0  0
    5.7729  -13.0546  -11.8171 H   0  0  0  0  0  0  0  0  0  0  0  0
    7.1811  -14.1697  -11.8171 H   0  0  0  0  0  0  0  0  0  0  0  0
    9.6531  -14.5382  -10.1667 H   0  0  0  0  0  0  0  0  0  0  0  0
    9.4113  -13.3862  -11.5358 H   0  0  0  0  0  0  0  0  0  0  0  0
   10.4825  -11.7352   -9.6260 H   0  0  0  0  0  0  0  0  0  0  0  0
   11.3149  -13.2875   -9.2600 H   0  0  0  0  0  0  0  0  0  0  0  0
   14.6364  -13.2745  -12.7807 H   0  0  0  0  0  0  0  0  0  0  0  0
   16.3696  -14.7585  -11.4336 H   0  0  0  0  0  0  0  0  0  0  0  0
   16.1090  -14.0880   -7.0190 H   0  0  0  0  0  0  0  0  0  0  0  0
   15.5960  -15.5050   -6.2380 H   0  0  0  0  0  0  0  0  0  0  0  0
  1  2  1  0
  2  3  2  0
  2  4  1  0
  4  5  1  0
  5  6  1  0
  6  7  1  0
  7  8  2  0
  7  9  2  0
  7 10  1  0
 10 11  2  0
 11 12  1  0
 12 13  2  0
 13 14  1  0
 14 15  1  0
 14 16  2  0
 14 17  2  0
 13 18  1  0
 18 10  1  0
  1 19  1  0
  1 20  1  0
  1 21  1  0
  5 22  1  0
  5 23  1  0
  6 24  1  0
  6 25  1  0
 11 26  1  0
 12 27  1  0
 15 28  1  0
 15 29  1  0
M  END
>  <meeko>  (3) 
{"is_sidechain": [false], "free_energy": -5.306, "intermolecular_energy": -7.345, "internal_energy": -0.322}

$$$$
LIB_CBCCXWBWQDCXLH__M_PUB_ALL__e8__s20260927
     RDKit          3D

 29 29  0  0  0  0  0  0  0  0999 V2000
   -3.6580  -13.9600    1.6300 C   0  0  0  0  0  0  0  0  0  0  0  0
   -3.0980  -14.6250    0.4100 C   0  0  0  0  0  0  0  0  0  0  0  0
   -2.9960  -14.0950   -0.6870 O   0  0  0  0  0  0  0  0  0  0  0  0
   -2.7030  -15.8940    0.7060 O   0  0  0  0  0  0  0  0  0  0  0  0
   -1.6290  -16.0050    1.6590 C   0  0  0  0  0  0  0  0  0  0  0  0
   -0.2870  -15.7990    0.9820 C   0  0  0  0  0  0  0  0  0  0  0  0
    0.8300  -14.9850    2.0940 S   0  0  0  0  0  0  0  0  0  0  0  0
    0.8460  -15.7130    3.3480 O   0  0  0  0  0  0  0  0  0  0  0  0
    2.0500  -14.6310    1.4010 O   0  0  0  0  0  0  0  0  0  0  0  0
    0.0270  -13.4460    2.4890 C   0  0  0  0  0  0  0  0  0  0  0  0
   -0.6690  -13.0320    3.6090 C   0  0  0  0  0  0  0  0  0  0  0  0
   -1.1460  -11.6960    3.4850 C   0  0  0  0  0  0  0  0  0  0  0  0
   -0.7960  -11.1270    2.2750 C   0  0  0  0  0  0  0  0  0  0  0  0
   -1.1080   -9.5280    1.5790 S   0  0  0  0  0  0  0  0  0  0  0  0
    0.3630   -8.7710    1.2990 N   0  0  0  0  0  0  0  0  0  0  0  0
   -1.7600   -8.7690    2.6190 O   0  0  0  0  0  0  0  0  0  0  0  0
   -1.7100   -9.7580    0.2870 O   0  0  0  0  0  0  0  0  0  0  0  0
    0.1060  -12.2110    1.3080 S   0  0  0  0  0  0  0  0  0  0  0  0
   -3.2510  -14.4433    2.5305 H   0  0  0  0  0  0  0  0  0  0  0  0
   -3.3801  -12.8957    1.6277 H   0  0  0  0  0  0  0  0  0  0  0  0
   -4.7541  -14.0527    1.6277 H   0  0  0  0  0  0  0  0  0  0  0  0
   -1.7598  -15.2422    2.4407 H   0  0  0  0  0  0  0  0  0  0  0  0
   -1.6511  -17.0122    2.1006 H   0  0  0  0  0  0  0  0  0  0  0  0
    0.1306  -16.7753    0.6950 H   0  0  0  0  0  0  0  0  0  0  0  0
   -0.4247  -15.1761    0.0858 H   0  0  0  0  0  0  0  0  0  0  0  0
   -0.8354  -13.6624    4.4949 H   0  0  0  0  0  0  0  0  0  0  0  0
   -1.7259  -11.1769    4.2623 H   0  0  0  0  0  0  0  0  0  0  0  0
    0.6910   -8.3380    2.1640 H   0  0  0  0  0  0  0  0  0  0  0  0
    0.2590   -8.0970    0.5400 H   0  0  0  0  0  0  0  0  0  0  0  0
  1  2  1  0
  2  3  2  0
  2  4  1  0
  4  5  1  0
  5  6  1  0
  6  7  1  0
  7  8  2  0
  7  9  2  0
  7 10  1  0
 10 11  2  0
 11 12  1  0
 12 13  2  0
 13 14  1  0
 14 15  1  0
 14 16  2  0
 14 17  2  0
 13 18  1  0
 18 10  1  0
  1 19  1  0
  1 20  1  0
  1 21  1  0
  5 22  1  0
  5 23  1  0
  6 24  1  0
  6 25  1  0
 11 26  1  0
 12 27  1  0
 15 28  1  0
 15 29  1  0
M  END
>  <meeko>  (4) 
{"is_sidechain": [false], "free_energy": -5.24, "intermolecular_energy": -6.844, "internal_energy": -0.733}

$$$$
LIB_CBCCXWBWQDCXLH__M_PUB_ALL__e8__s20260927
     RDKit          3D

 29 29  0  0  0  0  0  0  0  0999 V2000
   -0.0100  -16.2090    0.8870 C   0  0  0  0  0  0  0  0  0  0  0  0
   -0.4420  -17.4540    1.5980 C   0  0  0  0  0  0  0  0  0  0  0  0
    0.3020  -18.1890    2.2290 O   0  0  0  0  0  0  0  0  0  0  0  0
   -1.7850  -17.6340    1.4550 O   0  0  0  0  0  0  0  0  0  0  0  0
   -2.5030  -17.9460    2.6630 C   0  0  0  0  0  0  0  0  0  0  0  0
   -2.4110  -16.8020    3.6540 C   0  0  0  0  0  0  0  0  0  0  0  0
   -2.0250  -17.4310    5.2670 S   0  0  0  0  0  0  0  0  0  0  0  0
   -2.2740  -18.8590    5.2780 O   0  0  0  0  0  0  0  0  0  0  0  0
   -0.7740  -16.8700    5.7330 O   0  0  0  0  0  0  0  0  0  0  0  0
   -3.2880  -16.7560    6.3250 C   0  0  0  0  0  0  0  0  0  0  0  0
   -4.6220  -16.4720    6.1000 C   0  0  0  0  0  0  0  0  0  0  0  0
   -5.2610  -15.9330    7.2520 C   0  0  0  0  0  0  0  0  0  0  0  0
   -4.3980  -15.8250    8.3260 C   0  0  0  0  0  0  0  0  0  0  0  0
   -4.6250  -15.2350    9.9810 S   0  0  0  0  0  0  0  0  0  0  0  0
   -5.5030  -13.8060    9.9220 N   0  0  0  0  0  0  0  0  0  0  0  0
   -3.3080  -14.8800   10.4530 O   0  0  0  0  0  0  0  0  0  0  0  0
   -5.4570  -16.2070   10.6490 O   0  0  0  0  0  0  0  0  0  0  0  0
   -2.8290  -16.3790    7.9290 S   0  0  0  0  0  0  0  0  0  0  0  0
    0.2572  -15.4389    1.6256 H   0  0  0  0  0  0  0  0  0  0  0  0
    0.8636  -16.4312    0.2565 H   0  0  0  0  0  0  0  0  0  0  0  0
   -0.8334  -15.8423    0.2565 H   0  0  0  0  0  0  0  0  0  0  0  0
   -3.5600  -18.1269    2.4179 H   0  0  0  0  0  0  0  0  0  0  0  0
   -2.0567  -18.8430    3.1171 H   0  0  0  0  0  0  0  0  0  0  0  0
   -1.6212  -16.1058    3.3353 H   0  0  0  0  0  0  0  0  0  0  0  0
   -3.3766  -16.2765    3.6915 H   0  0  0  0  0  0  0  0  0  0  0  0
   -5.1315  -16.6430    5.1402 H   0  0  0  0  0  0  0  0  0  0  0  0
   -6.3198  -15.6365    7.2838 H   0  0  0  0  0  0  0  0  0  0  0  0
   -6.4460  -13.9730   10.2780 H   0  0  0  0  0  0  0  0  0  0  0  0
   -5.5050  -13.4470    8.9670 H   0  0  0  0  0  0  0  0  0  0  0  0
  1  2  1  0
  2  3  2  0
  2  4  1  0
  4  5  1  0
  5  6  1  0
  6  7  1  0
  7  8  2  0
  7  9  2  0
  7 10  1  0
 10 11  2  0
 11 12  1  0
 12 13  2  0
 13 14  1  0
 14 15  1  0
 14 16  2  0
 14 17  2  0
 13 18  1  0
 18 10  1  0
  1 19  1  0
  1 20  1  0
  1 21  1  0
  5 22  1  0
  5 23  1  0
  6 24  1  0
  6 25  1  0
 11 26  1  0
 12 27  1  0
 15 28  1  0
 15 29  1  0
M  END
>  <meeko>  (5) 
{"is_sidechain": [false], "free_energy": -5.204, "intermolecular_energy": -7.189, "internal_energy": -0.338}

$$$$
LIB_CBCCXWBWQDCXLH__M_PUB_ALL__e8__s20260927
     RDKit          3D

 29 29  0  0  0  0  0  0  0  0999 V2000
  -10.8120  -22.3580    9.1030 C   0  0  0  0  0  0  0  0  0  0  0  0
  -11.0030  -21.4330    7.9400 C   0  0  0  0  0  0  0  0  0  0  0  0
  -12.0840  -21.1530    7.4440 O   0  0  0  0  0  0  0  0  0  0  0  0
   -9.8020  -20.9370    7.5320 O   0  0  0  0  0  0  0  0  0  0  0  0
   -9.8630  -19.8970    6.5390 C   0  0  0  0  0  0  0  0  0  0  0  0
   -9.4560  -18.5620    7.1340 C   0  0  0  0  0  0  0  0  0  0  0  0
   -9.0170  -17.4330    5.8380 S   0  0  0  0  0  0  0  0  0  0  0  0
   -8.2600  -18.1550    4.8330 O   0  0  0  0  0  0  0  0  0  0  0  0
  -10.1550  -16.6090    5.4910 O   0  0  0  0  0  0  0  0  0  0  0  0
   -7.8280  -16.3380    6.5820 C   0  0  0  0  0  0  0  0  0  0  0  0
   -7.3500  -15.0990    6.1960 C   0  0  0  0  0  0  0  0  0  0  0  0
   -6.3900  -14.5820    7.1130 C   0  0  0  0  0  0  0  0  0  0  0  0
   -6.1670  -15.4380    8.1740 C   0  0  0  0  0  0  0  0  0  0  0  0
   -5.1040  -15.3290    9.5870 S   0  0  0  0  0  0  0  0  0  0  0  0
   -5.4110  -13.8810   10.3770 N   0  0  0  0  0  0  0  0  0  0  0  0
   -3.7640  -15.2250    9.0610 O   0  0  0  0  0  0  0  0  0  0  0  0
   -5.5090  -16.3860   10.4830 O   0  0  0  0  0  0  0  0  0  0  0  0
   -7.1210  -16.8530    8.0530 S   0  0  0  0  0  0  0  0  0  0  0  0
  -10.9281  -21.7960   10.0414 H   0  0  0  0  0  0  0  0  0  0  0  0
  -11.5634  -23.1602    9.0607 H   0  0  0  0  0  0  0  0  0  0  0  0
   -9.8043  -22.7970    9.0607 H   0  0  0  0  0  0  0  0  0  0  0  0
   -9.1814  -20.1467    5.7125 H   0  0  0  0  0  0  0  0  0  0  0  0
  -10.8969  -19.8196    6.1714 H   0  0  0  0  0  0  0  0  0  0  0  0
  -10.2968  -18.1476    7.7097 H   0  0  0  0  0  0  0  0  0  0  0  0
   -8.5895  -18.7091    7.7955 H   0  0  0  0  0  0  0  0  0  0  0  0
   -7.6738  -14.5732    5.2857 H   0  0  0  0  0  0  0  0  0  0  0  0
   -5.8845  -13.6127    6.9903 H   0  0  0  0  0  0  0  0  0  0  0  0
   -4.6120  -13.6400   10.9660 H   0  0  0  0  0  0  0  0  0  0  0  0
   -6.2780  -13.9620   10.9090 H   0  0  0  0  0  0  0  0  0  0  0  0
  1  2  1  0
  2  3  2  0
  2  4  1  0
  4  5  1  0
  5  6  1  0
  6  7  1  0
  7  8  2  0
  7  9  2  0
  7 10  1  0
 10 11  2  0
 11 12  1  0
 12 13  2  0
 13 14  1  0
 14 15  1  0
 14 16  2  0
 14 17  2  0
 13 18  1  0
 18 10  1  0
  1 19  1  0
  1 20  1  0
  1 21  1  0
  5 22  1  0
  5 23  1  0
  6 24  1  0
  6 25  1  0
 11 26  1  0
 12 27  1  0
 15 28  1  0
 15 29  1  0
M  END
>  <meeko>  (6) 
{"is_sidechain": [false], "free_energy": -5.183, "intermolecular_energy": -7.199, "internal_energy": -0.299}

$$$$
LIB_CBCCXWBWQDCXLH__M_PUB_ALL__e8__s20260927
     RDKit          3D

 29 29  0  0  0  0  0  0  0  0999 V2000
    0.5460  -14.3680   -4.6110 C   0  0  0  0  0  0  0  0  0  0  0  0
    1.3830  -14.1550   -3.3870 C   0  0  0  0  0  0  0  0  0  0  0  0
    2.0940  -13.1800   -3.1920 O   0  0  0  0  0  0  0  0  0  0  0  0
    1.2190  -15.1920   -2.5200 O   0  0  0  0  0  0  0  0  0  0  0  0
   -0.0610  -15.2610   -1.8650 C   0  0  0  0  0  0  0  0  0  0  0  0
    0.0090  -14.6460   -0.4810 C   0  0  0  0  0  0  0  0  0  0  0  0
   -1.6000  -14.6550    0.2650 S   0  0  0  0  0  0  0  0  0  0  0  0
   -2.5710  -14.2320   -0.7250 O   0  0  0  0  0  0  0  0  0  0  0  0
   -1.7790  -15.8610    1.0450 O   0  0  0  0  0  0  0  0  0  0  0  0
   -1.5570  -13.3160    1.4390 C   0  0  0  0  0  0  0  0  0  0  0  0
   -1.5200  -13.3050    2.8200 C   0  0  0  0  0  0  0  0  0  0  0  0
   -1.4940  -11.9830    3.3480 C   0  0  0  0  0  0  0  0  0  0  0  0
   -1.5070  -11.0230    2.3540 C   0  0  0  0  0  0  0  0  0  0  0  0
   -1.4900   -9.2520    2.4100 S   0  0  0  0  0  0  0  0  0  0  0  0
   -0.0120   -8.7130    1.8270 N   0  0  0  0  0  0  0  0  0  0  0  0
   -1.5200   -8.9050    3.8110 O   0  0  0  0  0  0  0  0  0  0  0  0
   -2.4940   -8.8060    1.4740 O   0  0  0  0  0  0  0  0  0  0  0  0
   -1.5460  -11.7300    0.7980 S   0  0  0  0  0  0  0  0  0  0  0  0
   -0.4801  -14.6291   -4.3127 H   0  0  0  0  0  0  0  0  0  0  0  0
    0.5302  -13.4452   -5.2096 H   0  0  0  0  0  0  0  0  0  0  0  0
    0.9732  -15.1860   -5.2096 H   0  0  0  0  0  0  0  0  0  0  0  0
   -0.8033  -14.7146   -2.4654 H   0  0  0  0  0  0  0  0  0  0  0  0
   -0.3507  -16.3177   -1.7672 H   0  0  0  0  0  0  0  0  0  0  0  0
    0.7034  -15.2285    0.1423 H   0  0  0  0  0  0  0  0  0  0  0  0
    0.3645  -13.6083   -0.5632 H   0  0  0  0  0  0  0  0  0  0  0  0
   -1.5116  -14.2133    3.4404 H   0  0  0  0  0  0  0  0  0  0  0  0
   -1.4667  -11.7524    4.4232 H   0  0  0  0  0  0  0  0  0  0  0  0
    0.6670   -8.6950    2.5890 H   0  0  0  0  0  0  0  0  0  0  0  0
   -0.1320   -7.7990    1.3890 H   0  0  0  0  0  0  0  0  0  0  0  0
  1  2  1  0
  2  3  2  0
  2  4  1  0
  4  5  1  0
  5  6  1  0
  6  7  1  0
  7  8  2  0
  7  9  2  0
  7 10  1  0
 10 11  2  0
 11 12  1  0
 12 13  2  0
 13 14  1  0
 14 15  1  0
 14 16  2  0
 14 17  2  0
 13 18  1  0
 18 10  1  0
  1 19  1  0
  1 20  1  0
  1 21  1  0
  5 22  1  0
  5 23  1  0
  6 24  1  0
  6 25  1  0
 11 26  1  0
 12 27  1  0
 15 28  1  0
 15 29  1  0
M  END
>  <meeko>  (7) 
{"is_sidechain": [false], "free_energy": -5.141, "intermolecular_energy": -7.112, "internal_energy": -0.329}

$$$$
LIB_CBCCXWBWQDCXLH__M_PUB_ALL__e8__s20260927
     RDKit          3D

 29 29  0  0  0  0  0  0  0  0999 V2000
   -3.6170  -18.1810    3.8440 C   0  0  0  0  0  0  0  0  0  0  0  0
   -2.1870  -18.3110    3.4200 C   0  0  0  0  0  0  0  0  0  0  0  0
   -1.2370  -18.3740    4.1870 O   0  0  0  0  0  0  0  0  0  0  0  0
   -2.1030  -18.3680    2.0620 O   0  0  0  0  0  0  0  0  0  0  0  0
   -1.3340  -17.3210    1.4410 C   0  0  0  0  0  0  0  0  0  0  0  0
   -2.2150  -16.4640    0.5530 C   0  0  0  0  0  0  0  0  0  0  0  0
   -1.2230  -15.2770   -0.3150 S   0  0  0  0  0  0  0  0  0  0  0  0
    0.1220  -15.3160    0.2250 O   0  0  0  0  0  0  0  0  0  0  0  0
   -1.4770  -15.3620   -1.7380 O   0  0  0  0  0  0  0  0  0  0  0  0
   -1.8590  -13.6970    0.2030 C   0  0  0  0  0  0  0  0  0  0  0  0
   -3.1330  -13.1620    0.1680 C   0  0  0  0  0  0  0  0  0  0  0  0
   -3.1780  -11.8410    0.6980 C   0  0  0  0  0  0  0  0  0  0  0  0
   -1.9380  -11.4070    1.1260 C   0  0  0  0  0  0  0  0  0  0  0  0
   -1.3960   -9.8850    1.8530 S   0  0  0  0  0  0  0  0  0  0  0  0
   -1.2780  -10.0990    3.5130 N   0  0  0  0  0  0  0  0  0  0  0  0
   -2.4720   -8.9470    1.6420 O   0  0  0  0  0  0  0  0  0  0  0  0
   -0.0560   -9.6570    1.3670 O   0  0  0  0  0  0  0  0  0  0  0  0
   -0.7370  -12.6010    0.8860 S   0  0  0  0  0  0  0  0  0  0  0  0
   -3.6747  -18.1758    4.9425 H   0  0  0  0  0  0  0  0  0  0  0  0
   -4.0321  -17.2414    3.4505 H   0  0  0  0  0  0  0  0  0  0  0  0
   -4.1948  -19.0303    3.4505 H   0  0  0  0  0  0  0  0  0  0  0  0
   -0.8861  -16.6897    2.2226 H   0  0  0  0  0  0  0  0  0  0  0  0
   -0.5474  -17.7787    0.8231 H   0  0  0  0  0  0  0  0  0  0  0  0
   -2.7351  -17.1058   -0.1734 H   0  0  0  0  0  0  0  0  0  0  0  0
   -2.9516  -15.9349    1.1755 H   0  0  0  0  0  0  0  0  0  0  0  0
   -4.0114  -13.6954   -0.2243 H   0  0  0  0  0  0  0  0  0  0  0  0
   -4.0945  -11.2358    0.7596 H   0  0  0  0  0  0  0  0  0  0  0  0
   -0.9110  -11.0310    3.7090 H   0  0  0  0  0  0  0  0  0  0  0  0
   -2.1910   -9.9400    3.9420 H   0  0  0  0  0  0  0  0  0  0  0  0
  1  2  1  0
  2  3  2  0
  2  4  1  0
  4  5  1  0
  5  6  1  0
  6  7  1  0
  7  8  2  0
  7  9  2  0
  7 10  1  0
 10 11  2  0
 11 12  1  0
 12 13  2  0
 13 14  1  0
 14 15  1  0
 14 16  2  0
 14 17  2  0
 13 18  1  0
 18 10  1  0
  1 19  1  0
  1 20  1  0
  1 21  1  0
  5 22  1  0
  5 23  1  0
  6 24  1  0
  6 25  1  0
 11 26  1  0
 12 27  1  0
 15 28  1  0
 15 29  1  0
M  END
>  <meeko>  (8) 
{"is_sidechain": [false], "free_energy": -5.089, "intermolecular_energy": -7.062, "internal_energy": -0.305}

$$$$
LIB_CBCCXWBWQDCXLH__M_PUB_ALL__e8__s20260927
     RDKit          3D

 29 29  0  0  0  0  0  0  0  0999 V2000
   12.8760  -11.1750   -0.2130 C   0  0  0  0  0  0  0  0  0  0  0  0
   11.9890  -12.0240   -1.0700 C   0  0  0  0  0  0  0  0  0  0  0  0
   11.8120  -11.8560   -2.2680 O   0  0  0  0  0  0  0  0  0  0  0  0
   11.4270  -13.0160   -0.3260 O   0  0  0  0  0  0  0  0  0  0  0  0
   10.0030  -13.1730   -0.4710 C   0  0  0  0  0  0  0  0  0  0  0  0
    9.2620  -12.1000    0.3030 C   0  0  0  0  0  0  0  0  0  0  0  0
    7.5900  -12.6130    0.5950 S   0  0  0  0  0  0  0  0  0  0  0  0
    7.5410  -14.0620    0.5780 O   0  0  0  0  0  0  0  0  0  0  0  0
    7.0160  -11.8420    1.6780 O   0  0  0  0  0  0  0  0  0  0  0  0
    6.7090  -12.1260   -0.8730 C   0  0  0  0  0  0  0  0  0  0  0  0
    7.1490  -11.7360   -2.1240 C   0  0  0  0  0  0  0  0  0  0  0  0
    6.0720  -11.4320   -3.0040 C   0  0  0  0  0  0  0  0  0  0  0  0
    4.8410  -11.6020   -2.4020 C   0  0  0  0  0  0  0  0  0  0  0  0
    3.1860  -11.3770   -2.9930 S   0  0  0  0  0  0  0  0  0  0  0  0
    3.0780   -9.8670   -3.7170 N   0  0  0  0  0  0  0  0  0  0  0  0
    2.3540  -11.3200   -1.8150 O   0  0  0  0  0  0  0  0  0  0  0  0
    2.9910  -12.3540   -4.0380 O   0  0  0  0  0  0  0  0  0  0  0  0
    5.0000  -12.1310   -0.7830 S   0  0  0  0  0  0  0  0  0  0  0  0
   12.6644  -11.3775    0.8473 H   0  0  0  0  0  0  0  0  0  0  0  0
   13.9286  -11.4107   -0.4284 H   0  0  0  0  0  0  0  0  0  0  0  0
   12.6866  -10.1130   -0.4284 H   0  0  0  0  0  0  0  0  0  0  0  0
    9.7383  -13.0974   -1.5360 H   0  0  0  0  0  0  0  0  0  0  0  0
    9.7143  -14.1574   -0.0740 H   0  0  0  0  0  0  0  0  0  0  0  0
    9.7655  -11.9317    1.2664 H   0  0  0  0  0  0  0  0  0  0  0  0
    9.2582  -11.1685   -0.2821 H   0  0  0  0  0  0  0  0  0  0  0  0
    8.2098  -11.6683   -2.4071 H   0  0  0  0  0  0  0  0  0  0  0  0
    6.2052  -11.0998   -4.0441 H   0  0  0  0  0  0  0  0  0  0  0  0
    2.6760   -9.9670   -4.6500 H   0  0  0  0  0  0  0  0  0  0  0  0
    4.0010   -9.4320   -3.7340 H   0  0  0  0  0  0  0  0  0  0  0  0
  1  2  1  0
  2  3  2  0
  2  4  1  0
  4  5  1  0
  5  6  1  0
  6  7  1  0
  7  8  2  0
  7  9  2  0
  7 10  1  0
 10 11  2  0
 11 12  1  0
 12 13  2  0
 13 14  1  0
 14 15  1  0
 14 16  2  0
 14 17  2  0
 13 18  1  0
 18 10  1  0
  1 19  1  0
  1 20  1  0
  1 21  1  0
  5 22  1  0
  5 23  1  0
  6 24  1  0
  6 25  1  0
 11 26  1  0
 12 27  1  0
 15 28  1  0
 15 29  1  0
M  END
>  <meeko>  (9) 
{"is_sidechain": [false], "free_energy": -5.043, "intermolecular_energy": -6.993, "internal_energy": -0.311}

$$$$
