LIB_GMFZNQYZGJZENC__M_PUB_ALL__e8__s20260927
     RDKit          3D

 73 78  0  0  0  0  0  0  0  0999 V2000
   -1.8610  -16.5850    1.2280 C   0  0  0  0  0  0  0  0  0  0  0  0
   -2.8360  -16.5080    2.3730 C   0  0  0  0  0  0  0  0  0  0  0  0
   -3.1990  -17.6880    3.0390 C   0  0  0  0  0  0  0  0  0  0  0  0
   -4.0940  -17.6590    4.1110 C   0  0  0  0  0  0  0  0  0  0  0  0
   -4.6400  -16.4500    4.5460 C   0  0  0  0  0  0  0  0  0  0  0  0
   -5.5420  -16.4950    5.6310 N   0  0  0  0  0  0  0  0  0  0  0  0
   -6.8480  -16.9670    5.6160 C   0  0  0  0  0  0  0  0  0  0  0  0
   -7.3640  -17.5570    4.6750 O   0  0  0  0  0  0  0  0  0  0  0  0
   -7.4750  -16.6760    6.8190 N   0  0  0  0  0  0  0  0  0  0  0  0
   -8.7510  -17.0980    7.2520 C   0  0  0  0  0  0  0  0  0  0  0  0
   -9.1220  -18.4390    7.4090 C   0  0  0  0  0  0  0  0  0  0  0  0
  -10.4060  -18.8220    7.8390 C   0  0  0  0  0  0  0  0  0  0  0  0
  -10.7360  -20.1660    7.9730 N   0  0  0  0  0  0  0  0  0  0  0  0
  -12.0360  -20.5780    8.5330 C   0  0  0  0  0  0  0  0  0  0  0  0
  -11.9720  -22.0320    9.0240 C   0  0  0  0  0  0  0  0  0  0  0  0
  -11.5280  -22.9230    7.9900 O   0  0  0  0  0  0  0  0  0  0  0  0
  -10.2080  -22.5520    7.5640 C   0  0  0  0  0  0  0  0  0  0  0  0
  -10.1710  -21.1240    6.9980 C   0  0  0  0  0  0  0  0  0  0  0  0
  -11.3090  -17.7950    8.1400 C   0  0  0  0  0  0  0  0  0  0  0  0
  -10.9620  -16.4380    8.0140 C   0  0  0  0  0  0  0  0  0  0  0  0
  -11.9720  -15.3640    8.3220 C   0  0  0  0  0  0  0  0  0  0  0  0
  -13.2280  -15.8490    8.5230 F   0  0  0  0  0  0  0  0  0  0  0  0
  -11.6640  -14.6530    9.4440 F   0  0  0  0  0  0  0  0  0  0  0  0
  -12.0770  -14.4490    7.3200 F   0  0  0  0  0  0  0  0  0  0  0  0
   -9.6800  -16.1020    7.5600 C   0  0  0  0  0  0  0  0  0  0  0  0
   -4.2540  -15.2690    3.9100 C   0  0  0  0  0  0  0  0  0  0  0  0
   -3.3690  -15.2810    2.8160 C   0  0  0  0  0  0  0  0  0  0  0  0
   -3.0030  -14.0090    2.1750 C   0  0  0  0  0  0  0  0  0  0  0  0
   -1.7510  -13.5610    2.0430 N   0  0  0  0  0  0  0  0  0  0  0  0
   -1.9230  -12.3940    1.4050 C   0  0  0  0  0  0  0  0  0  0  0  0
   -3.1930  -12.0700    1.1250 C   0  0  0  0  0  0  0  0  0  0  0  0
   -3.0980  -10.8120    0.4690 C   0  0  0  0  0  0  0  0  0  0  0  0
   -1.8320  -10.3450    0.3360 N   0  0  0  0  0  0  0  0  0  0  0  0
   -1.1390  -11.3850    0.9250 N   0  0  0  0  0  0  0  0  0  0  0  0
    0.3050  -11.3640    1.0390 C   0  0  0  0  0  0  0  0  0  0  0  0
    0.9680  -11.7530   -0.2590 C   0  0  0  0  0  0  0  0  0  0  0  0
    1.3790  -10.7700   -1.1710 C   0  0  0  0  0  0  0  0  0  0  0  0
    2.0050  -11.1290   -2.3660 C   0  0  0  0  0  0  0  0  0  0  0  0
    2.2310  -12.4730   -2.6580 C   0  0  0  0  0  0  0  0  0  0  0  0
    1.8390  -13.4590   -1.7530 C   0  0  0  0  0  0  0  0  0  0  0  0
    1.2150  -13.1010   -0.5580 C   0  0  0  0  0  0  0  0  0  0  0  0
   -3.9220  -13.1190    1.6060 N   0  0  0  0  0  0  0  0  0  0  0  0
   -5.3480  -13.2420    1.4760 C   0  0  0  0  0  0  0  0  0  0  0  0
   -0.8375  -16.6658    1.6228 H   0  0  0  0  0  0  0  0  0  0  0  0
   -2.0874  -17.4681    0.6124 H   0  0  0  0  0  0  0  0  0  0  0  0
   -1.9459  -15.6773    0.6124 H   0  0  0  0  0  0  0  0  0  0  0  0
   -2.7734  -18.6485    2.7129 H   0  0  0  0  0  0  0  0  0  0  0  0
   -4.3708  -18.5960    4.6164 H   0  0  0  0  0  0  0  0  0  0  0  0
   -5.1610  -16.2580    6.5330 H   0  0  0  0  0  0  0  0  0  0  0  0
   -6.9990  -16.0190    7.4160 H   0  0  0  0  0  0  0  0  0  0  0  0
   -8.3821  -19.2224    7.1879 H   0  0  0  0  0  0  0  0  0  0  0  0
  -12.2911  -19.9213    9.3778 H   0  0  0  0  0  0  0  0  0  0  0  0
  -12.8029  -20.5003    7.7482 H   0  0  0  0  0  0  0  0  0  0  0  0
  -11.2723  -22.0918    9.8707 H   0  0  0  0  0  0  0  0  0  0  0  0
  -12.9847  -22.3363    9.3270 H   0  0  0  0  0  0  0  0  0  0  0  0
   -9.5262  -22.6114    8.4251 H   0  0  0  0  0  0  0  0  0  0  0  0
   -9.8992  -23.2438    6.7665 H   0  0  0  0  0  0  0  0  0  0  0  0
   -9.1287  -20.8474    6.7810 H   0  0  0  0  0  0  0  0  0  0  0  0
  -10.7716  -21.0905    6.0770 H   0  0  0  0  0  0  0  0  0  0  0  0
  -12.3199  -18.0575    8.4853 H   0  0  0  0  0  0  0  0  0  0  0  0
   -9.4026  -15.0438    7.4451 H   0  0  0  0  0  0  0  0  0  0  0  0
   -4.6500  -14.3086    4.2716 H   0  0  0  0  0  0  0  0  0  0  0  0
   -3.9776  -10.2638    0.1004 H   0  0  0  0  0  0  0  0  0  0  0  0
    0.6270  -10.3490    1.3146 H   0  0  0  0  0  0  0  0  0  0  0  0
    0.6009  -12.0915    1.8092 H   0  0  0  0  0  0  0  0  0  0  0  0
    1.2067   -9.7078   -0.9429 H   0  0  0  0  0  0  0  0  0  0  0  0
    2.3199  -10.3512   -3.0772 H   0  0  0  0  0  0  0  0  0  0  0  0
    2.7187  -12.7560   -3.6025 H   0  0  0  0  0  0  0  0  0  0  0  0
    2.0220  -14.5193   -1.9816 H   0  0  0  0  0  0  0  0  0  0  0  0
    0.9142  -13.8821    0.1557 H   0  0  0  0  0  0  0  0  0  0  0  0
   -5.8053  -13.2814    2.4757 H   0  0  0  0  0  0  0  0  0  0  0  0
   -5.7423  -12.3745    0.9264 H   0  0  0  0  0  0  0  0  0  0  0  0
   -5.5879  -14.1642    0.9264 H   0  0  0  0  0  0  0  0  0  0  0  0
  1  2  1  0
  2  3  2  0
  3  4  1  0
  4  5  2  0
  5  6  1  0
  6  7  1  0
  7  8  2  0
  7  9  1  0
  9 10  1  0
 10 11  2  0
 11 12  1  0
 12 13  1  0
 13 14  1  0
 14 15  1  0
 15 16  1  0
 16 17  1  0
 17 18  1  0
 12 19  2  0
 19 20  1  0
 20 21  1  0
 21 22  1  0
 21 23  1  0
 21 24  1  0
 20 25  2  0
  5 26  1  0
 26 27  2  0
 27 28  1  0
 28 29  2  0
 29 30  1  0
 30 31  2  0
 31 32  1  0
 32 33  2  0
 33 34  1  0
 34 35  1  0
 35 36  1  0
 36 37  2  0
 37 38  1  0
 38 39  2  0
 39 40  1  0
 40 41  2  0
 31 42  1  0
 42 43  1  0
 27  2  1  0
 42 28  1  0
 25 10  1  0
 34 30  1  0
 41 36  1  0
 18 13  1  0
  1 44  1  0
  1 45  1  0
  1 46  1  0
  3 47  1  0
  4 48  1  0
  6 49  1  0
  9 50  1  0
 11 51  1  0
 14 52  1  0
 14 53  1  0
 15 54  1  0
 15 55  1  0
 17 56  1  0
 17 57  1  0
 18 58  1  0
 18 59  1  0
 19 60  1  0
 25 61  1  0
 26 62  1  0
 32 63  1  0
 35 64  1  0
 35 65  1  0
 37 66  1  0
 38 67  1  0
 39 68  1  0
 40 69  1  0
 41 70  1  0
 43 71  1  0
 43 72  1  0
 43 73  1  0
M  END
>  <meeko>  (1) 
{"is_sidechain": [false], "free_energy": -9.912, "intermolecular_energy": -13.968, "internal_energy": -0.897}

$$$$
LIB_GMFZNQYZGJZENC__M_PUB_ALL__e8__s20260927
     RDKit          3D

 73 78  0  0  0  0  0  0  0  0999 V2000
    0.6530  -14.4110   -4.0500 C   0  0  0  0  0  0  0  0  0  0  0  0
    2.0680  -13.9110   -3.9240 C   0  0  0  0  0  0  0  0  0  0  0  0
    2.8190  -13.6890   -5.0880 C   0  0  0  0  0  0  0  0  0  0  0  0
    4.1320  -13.2180   -5.0140 C   0  0  0  0  0  0  0  0  0  0  0  0
    4.7210  -12.9520   -3.7760 C   0  0  0  0  0  0  0  0  0  0  0  0
    6.0520  -12.4840   -3.7760 N   0  0  0  0  0  0  0  0  0  0  0  0
    7.1950  -13.2050   -3.4540 C   0  0  0  0  0  0  0  0  0  0  0  0
    7.2230  -14.4140   -3.2620 O   0  0  0  0  0  0  0  0  0  0  0  0
    8.2920  -12.3580   -3.3870 N   0  0  0  0  0  0  0  0  0  0  0  0
    9.6470  -12.7140   -3.2210 C   0  0  0  0  0  0  0  0  0  0  0  0
   10.3790  -13.4690   -4.1450 C   0  0  0  0  0  0  0  0  0  0  0  0
   11.7300  -13.8080   -3.9430 C   0  0  0  0  0  0  0  0  0  0  0  0
   12.4180  -14.5680   -4.8830 N   0  0  0  0  0  0  0  0  0  0  0  0
   13.8890  -14.5180   -4.9730 C   0  0  0  0  0  0  0  0  0  0  0  0
   14.3600  -15.0280   -6.3420 C   0  0  0  0  0  0  0  0  0  0  0  0
   13.8500  -16.3400   -6.6260 O   0  0  0  0  0  0  0  0  0  0  0  0
   12.4150  -16.3080   -6.6470 C   0  0  0  0  0  0  0  0  0  0  0  0
   11.8340  -15.8620   -5.2960 C   0  0  0  0  0  0  0  0  0  0  0  0
   12.3390  -13.3280   -2.7760 C   0  0  0  0  0  0  0  0  0  0  0  0
   11.6390  -12.5500   -1.8380 C   0  0  0  0  0  0  0  0  0  0  0  0
   12.3230  -12.0760   -0.5830 C   0  0  0  0  0  0  0  0  0  0  0  0
   11.5450  -11.2590    0.1790 F   0  0  0  0  0  0  0  0  0  0  0  0
   12.6970  -13.1010    0.2350 F   0  0  0  0  0  0  0  0  0  0  0  0
   13.4610  -11.3760   -0.8450 F   0  0  0  0  0  0  0  0  0  0  0  0
   10.2890  -12.2560   -2.0680 C   0  0  0  0  0  0  0  0  0  0  0  0
    3.9660  -13.1360   -2.6170 C   0  0  0  0  0  0  0  0  0  0  0  0
    2.6480  -13.6290   -2.6710 C   0  0  0  0  0  0  0  0  0  0  0  0
    1.9010  -13.8150   -1.4180 C   0  0  0  0  0  0  0  0  0  0  0  0
    1.2130  -12.8520   -0.7970 N   0  0  0  0  0  0  0  0  0  0  0  0
    0.7110  -13.4910    0.2700 C   0  0  0  0  0  0  0  0  0  0  0  0
    1.0320  -14.7890    0.3700 C   0  0  0  0  0  0  0  0  0  0  0  0
    0.3930  -15.2170    1.5660 C   0  0  0  0  0  0  0  0  0  0  0  0
   -0.3010  -14.2450    2.2080 N   0  0  0  0  0  0  0  0  0  0  0  0
   -0.0800  -13.1920    1.3410 N   0  0  0  0  0  0  0  0  0  0  0  0
   -0.6300  -11.8750    1.5930 C   0  0  0  0  0  0  0  0  0  0  0  0
   -1.9370  -11.6750    0.8680 C   0  0  0  0  0  0  0  0  0  0  0  0
   -2.1980  -10.4750    0.1890 C   0  0  0  0  0  0  0  0  0  0  0  0
   -3.4020  -10.2940   -0.4940 C   0  0  0  0  0  0  0  0  0  0  0  0
   -4.3540  -11.3120   -0.5090 C   0  0  0  0  0  0  0  0  0  0  0  0
   -4.1010  -12.5130    0.1510 C   0  0  0  0  0  0  0  0  0  0  0  0
   -2.8970  -12.6960    0.8330 C   0  0  0  0  0  0  0  0  0  0  0  0
    1.7990  -15.0320   -0.7320 N   0  0  0  0  0  0  0  0  0  0  0  0
    2.3280  -16.3220   -1.0840 C   0  0  0  0  0  0  0  0  0  0  0  0
    0.2267  -14.5616   -3.0472 H   0  0  0  0  0  0  0  0  0  0  0  0
    0.0502  -13.6714   -4.5974 H   0  0  0  0  0  0  0  0  0  0  0  0
    0.6486  -15.3651   -4.5974 H   0  0  0  0  0  0  0  0  0  0  0  0
    2.3682  -13.8884   -6.0714 H   0  0  0  0  0  0  0  0  0  0  0  0
    4.7064  -13.0554   -5.9379 H   0  0  0  0  0  0  0  0  0  0  0  0
    6.1960  -11.5590   -4.1500 H   0  0  0  0  0  0  0  0  0  0  0  0
    8.0870  -11.3720   -3.3710 H   0  0  0  0  0  0  0  0  0  0  0  0
    9.8794  -13.8102   -5.0637 H   0  0  0  0  0  0  0  0  0  0  0  0
   14.2251  -13.4793   -4.8381 H   0  0  0  0  0  0  0  0  0  0  0  0
   14.3161  -15.1590   -4.1877 H   0  0  0  0  0  0  0  0  0  0  0  0
   14.0103  -14.3338   -7.1203 H   0  0  0  0  0  0  0  0  0  0  0  0
   15.4585  -15.0838   -6.3269 H   0  0  0  0  0  0  0  0  0  0  0  0
   12.0860  -15.6043   -7.4258 H   0  0  0  0  0  0  0  0  0  0  0  0
   12.0534  -17.3258   -6.8553 H   0  0  0  0  0  0  0  0  0  0  0  0
   10.7433  -15.7537   -5.3890 H   0  0  0  0  0  0  0  0  0  0  0  0
   12.0764  -16.6202   -4.5368 H   0  0  0  0  0  0  0  0  0  0  0  0
   13.3962  -13.5672   -2.5885 H   0  0  0  0  0  0  0  0  0  0  0  0
    9.7289  -11.6586   -1.3335 H   0  0  0  0  0  0  0  0  0  0  0  0
    4.4096  -12.8908   -1.6407 H   0  0  0  0  0  0  0  0  0  0  0  0
    0.4564  -16.2499    1.9391 H   0  0  0  0  0  0  0  0  0  0  0  0
   -0.7991  -11.7589    2.6737 H   0  0  0  0  0  0  0  0  0  0  0  0
    0.0867  -11.1253    1.2265 H   0  0  0  0  0  0  0  0  0  0  0  0
   -1.4479   -9.6705    0.1950 H   0  0  0  0  0  0  0  0  0  0  0  0
   -3.5993   -9.3484   -1.0201 H   0  0  0  0  0  0  0  0  0  0  0  0
   -5.3053  -11.1673   -1.0420 H   0  0  0  0  0  0  0  0  0  0  0  0
   -4.8509  -13.3176    0.1345 H   0  0  0  0  0  0  0  0  0  0  0  0
   -2.7000  -13.6484    1.3468 H   0  0  0  0  0  0  0  0  0  0  0  0
    2.5592  -16.8858   -0.1682 H   0  0  0  0  0  0  0  0  0  0  0  0
    1.5837  -16.8743   -1.6765 H   0  0  0  0  0  0  0  0  0  0  0  0
    3.2457  -16.1927   -1.6765 H   0  0  0  0  0  0  0  0  0  0  0  0
  1  2  1  0
  2  3  2  0
  3  4  1  0
  4  5  2  0
  5  6  1  0
  6  7  1  0
  7  8  2  0
  7  9  1  0
  9 10  1  0
 10 11  2  0
 11 12  1  0
 12 13  1  0
 13 14  1  0
 14 15  1  0
 15 16  1  0
 16 17  1  0
 17 18  1  0
 12 19  2  0
 19 20  1  0
 20 21  1  0
 21 22  1  0
 21 23  1  0
 21 24  1  0
 20 25  2  0
  5 26  1  0
 26 27  2  0
 27 28  1  0
 28 29  2  0
 29 30  1  0
 30 31  2  0
 31 32  1  0
 32 33  2  0
 33 34  1  0
 34 35  1  0
 35 36  1  0
 36 37  2  0
 37 38  1  0
 38 39  2  0
 39 40  1  0
 40 41  2  0
 31 42  1  0
 42 43  1  0
 27  2  1  0
 42 28  1  0
 25 10  1  0
 34 30  1  0
 41 36  1  0
 18 13  1  0
  1 44  1  0
  1 45  1  0
  1 46  1  0
  3 47  1  0
  4 48  1  0
  6 49  1  0
  9 50  1  0
 11 51  1  0
 14 52  1  0
 14 53  1  0
 15 54  1  0
 15 55  1  0
 17 56  1  0
 17 57  1  0
 18 58  1  0
 18 59  1  0
 19 60  1  0
 25 61  1  0
 26 62  1  0
 32 63  1  0
 35 64  1  0
 35 65  1  0
 37 66  1  0
 38 67  1  0
 39 68  1  0
 40 69  1  0
 41 70  1  0
 43 71  1  0
 43 72  1  0
 43 73  1  0
M  END
>  <meeko>  (2) 
{"is_sidechain": [false], "free_energy": -9.886, "intermolecular_energy": -13.413, "internal_energy": -1.416}

$$$$
LIB_GMFZNQYZGJZENC__M_PUB_ALL__e8__s20260927
     RDKit          3D

 73 78  0  0  0  0  0  0  0  0999 V2000
   -3.4310  -18.2010    3.4940 C   0  0  0  0  0  0  0  0  0  0  0  0
   -2.5830  -17.0550    3.0120 C   0  0  0  0  0  0  0  0  0  0  0  0
   -2.5520  -16.7580    1.6410 C   0  0  0  0  0  0  0  0  0  0  0  0
   -1.7840  -15.6970    1.1550 C   0  0  0  0  0  0  0  0  0  0  0  0
   -1.0350  -14.9050    2.0280 C   0  0  0  0  0  0  0  0  0  0  0  0
   -0.2780  -13.8550    1.4670 N   0  0  0  0  0  0  0  0  0  0  0  0
    0.8800  -13.9680    0.7090 C   0  0  0  0  0  0  0  0  0  0  0  0
    1.3360  -15.0240    0.2890 O   0  0  0  0  0  0  0  0  0  0  0  0
    1.4370  -12.7150    0.4970 N   0  0  0  0  0  0  0  0  0  0  0  0
    2.5340  -12.3870   -0.3290 C   0  0  0  0  0  0  0  0  0  0  0  0
    3.8730  -12.5400    0.0490 C   0  0  0  0  0  0  0  0  0  0  0  0
    4.9410  -12.1980   -0.8010 C   0  0  0  0  0  0  0  0  0  0  0  0
    6.2580  -12.3580   -0.3830 N   0  0  0  0  0  0  0  0  0  0  0  0
    6.6680  -12.0110    0.9900 C   0  0  0  0  0  0  0  0  0  0  0  0
    8.1890  -11.8090    1.0610 C   0  0  0  0  0  0  0  0  0  0  0  0
    8.9010  -12.9500    0.5610 O   0  0  0  0  0  0  0  0  0  0  0  0
    8.5580  -13.1710   -0.8150 C   0  0  0  0  0  0  0  0  0  0  0  0
    7.0560  -13.4430   -0.9930 C   0  0  0  0  0  0  0  0  0  0  0  0
    4.6120  -11.7180   -2.0750 C   0  0  0  0  0  0  0  0  0  0  0  0
    3.2780  -11.5720   -2.4930 C   0  0  0  0  0  0  0  0  0  0  0  0
    2.9670  -11.0250   -3.8620 C   0  0  0  0  0  0  0  0  0  0  0  0
    4.0720  -10.8730   -4.6450 F   0  0  0  0  0  0  0  0  0  0  0  0
    2.1180  -11.8220   -4.5710 F   0  0  0  0  0  0  0  0  0  0  0  0
    2.3720   -9.8030   -3.8090 F   0  0  0  0  0  0  0  0  0  0  0  0
    2.2460  -11.9020   -1.6060 C   0  0  0  0  0  0  0  0  0  0  0  0
   -1.0910  -15.1740    3.3970 C   0  0  0  0  0  0  0  0  0  0  0  0
   -1.8440  -16.2510    3.9030 C   0  0  0  0  0  0  0  0  0  0  0  0
   -1.8590  -16.4950    5.3530 C   0  0  0  0  0  0  0  0  0  0  0  0
   -2.6070  -15.8140    6.2270 N   0  0  0  0  0  0  0  0  0  0  0  0
   -2.2910  -16.3920    7.3950 C   0  0  0  0  0  0  0  0  0  0  0  0
   -1.3970  -17.3880    7.3240 C   0  0  0  0  0  0  0  0  0  0  0  0
   -1.2360  -17.8120    8.6720 C   0  0  0  0  0  0  0  0  0  0  0  0
   -1.9850  -17.1230    9.5680 N   0  0  0  0  0  0  0  0  0  0  0  0
   -2.6360  -16.2600    8.7090 N   0  0  0  0  0  0  0  0  0  0  0  0
   -3.5840  -15.2770    9.1960 C   0  0  0  0  0  0  0  0  0  0  0  0
   -4.9850  -15.5790    8.7250 C   0  0  0  0  0  0  0  0  0  0  0  0
   -5.5470  -16.8480    8.9300 C   0  0  0  0  0  0  0  0  0  0  0  0
   -6.8480  -17.1230    8.5070 C   0  0  0  0  0  0  0  0  0  0  0  0
   -7.6010  -16.1330    7.8790 C   0  0  0  0  0  0  0  0  0  0  0  0
   -7.0590  -14.8640    7.6820 C   0  0  0  0  0  0  0  0  0  0  0  0
   -5.7580  -14.5870    8.1060 C   0  0  0  0  0  0  0  0  0  0  0  0
   -1.1070  -17.4870    5.9940 N   0  0  0  0  0  0  0  0  0  0  0  0
   -0.2280  -18.4730    5.4270 C   0  0  0  0  0  0  0  0  0  0  0  0
   -3.4400  -18.2132    4.5939 H   0  0  0  0  0  0  0  0  0  0  0  0
   -4.4584  -18.0795    3.1202 H   0  0  0  0  0  0  0  0  0  0  0  0
   -3.0144  -19.1480    3.1202 H   0  0  0  0  0  0  0  0  0  0  0  0
   -3.1400  -17.3684    0.9398 H   0  0  0  0  0  0  0  0  0  0  0  0
   -1.7691  -15.4837    0.0760 H   0  0  0  0  0  0  0  0  0  0  0  0
   -0.6800  -12.9340    1.5370 H   0  0  0  0  0  0  0  0  0  0  0  0
    1.0690  -11.9680    1.0640 H   0  0  0  0  0  0  0  0  0  0  0  0
    4.0988  -12.9425    1.0475 H   0  0  0  0  0  0  0  0  0  0  0  0
    6.1646  -11.0815    1.2944 H   0  0  0  0  0  0  0  0  0  0  0  0
    6.3858  -12.8328    1.6646 H   0  0  0  0  0  0  0  0  0  0  0  0
    8.4599  -10.9285    0.4598 H   0  0  0  0  0  0  0  0  0  0  0  0
    8.4667  -11.6675    2.1159 H   0  0  0  0  0  0  0  0  0  0  0  0
    8.8295  -12.2781   -1.3973 H   0  0  0  0  0  0  0  0  0  0  0  0
    9.1093  -14.0555   -1.1666 H   0  0  0  0  0  0  0  0  0  0  0  0
    6.8237  -13.5037   -2.0665 H   0  0  0  0  0  0  0  0  0  0  0  0
    6.8048  -14.3920   -0.4967 H   0  0  0  0  0  0  0  0  0  0  0  0
    5.4215  -11.4473   -2.7689 H   0  0  0  0  0  0  0  0  0  0  0  0
    1.1986  -11.7779   -1.9183 H   0  0  0  0  0  0  0  0  0  0  0  0
   -0.5351  -14.5309    4.0951 H   0  0  0  0  0  0  0  0  0  0  0  0
   -0.5607  -18.6300    8.9632 H   0  0  0  0  0  0  0  0  0  0  0  0
   -3.5684  -15.2797   10.2959 H   0  0  0  0  0  0  0  0  0  0  0  0
   -3.2925  -14.2920    8.8025 H   0  0  0  0  0  0  0  0  0  0  0  0
   -4.9577  -17.6321    9.4279 H   0  0  0  0  0  0  0  0  0  0  0  0
   -7.2793  -18.1218    8.6694 H   0  0  0  0  0  0  0  0  0  0  0  0
   -8.6236  -16.3530    7.5386 H   0  0  0  0  0  0  0  0  0  0  0  0
   -7.6564  -14.0808    7.1924 H   0  0  0  0  0  0  0  0  0  0  0  0
   -5.3363  -13.5826    7.9531 H   0  0  0  0  0  0  0  0  0  0  0  0
    0.2684  -19.0299    6.2354 H   0  0  0  0  0  0  0  0  0  0  0  0
   -0.8103  -19.1695    4.8059 H   0  0  0  0  0  0  0  0  0  0  0  0
    0.5305  -17.9742    4.8059 H   0  0  0  0  0  0  0  0  0  0  0  0
  1  2  1  0
  2  3  2  0
  3  4  1  0
  4  5  2  0
  5  6  1  0
  6  7  1  0
  7  8  2  0
  7  9  1  0
  9 10  1  0
 10 11  2  0
 11 12  1  0
 12 13  1  0
 13 14  1  0
 14 15  1  0
 15 16  1  0
 16 17  1  0
 17 18  1  0
 12 19  2  0
 19 20  1  0
 20 21  1  0
 21 22  1  0
 21 23  1  0
 21 24  1  0
 20 25  2  0
  5 26  1  0
 26 27  2  0
 27 28  1  0
 28 29  2  0
 29 30  1  0
 30 31  2  0
 31 32  1  0
 32 33  2  0
 33 34  1  0
 34 35  1  0
 35 36  1  0
 36 37  2  0
 37 38  1  0
 38 39  2  0
 39 40  1  0
 40 41  2  0
 31 42  1  0
 42 43  1  0
 27  2  1  0
 42 28  1  0
 25 10  1  0
 34 30  1  0
 41 36  1  0
 18 13  1  0
  1 44  1  0
  1 45  1  0
  1 46  1  0
  3 47  1  0
  4 48  1  0
  6 49  1  0
  9 50  1  0
 11 51  1  0
 14 52  1  0
 14 53  1  0
 15 54  1  0
 15 55  1  0
 17 56  1  0
 17 57  1  0
 18 58  1  0
 18 59  1  0
 19 60  1  0
 25 61  1  0
 26 62  1  0
 32 63  1  0
 35 64  1  0
 35 65  1  0
 37 66  1  0
 38 67  1  0
 39 68  1  0
 40 69  1  0
 41 70  1  0
 43 71  1  0
 43 72  1  0
 43 73  1  0
M  END
>  <meeko>  (3) 
{"is_sidechain": [false], "free_energy": -9.657, "intermolecular_energy": -13.075, "internal_energy": -1.431}

$$$$
LIB_GMFZNQYZGJZENC__M_PUB_ALL__e8__s20260927
     RDKit          3D

 73 78  0  0  0  0  0  0  0  0999 V2000
    1.2350  -16.8480   -0.6760 C   0  0  0  0  0  0  0  0  0  0  0  0
    2.6690  -16.4440   -0.4580 C   0  0  0  0  0  0  0  0  0  0  0  0
    3.6760  -17.0710   -1.2070 C   0  0  0  0  0  0  0  0  0  0  0  0
    5.0170  -16.7190   -1.0400 C   0  0  0  0  0  0  0  0  0  0  0  0
    5.3820  -15.7270   -0.1270 C   0  0  0  0  0  0  0  0  0  0  0  0
    6.7550  -15.4260   -0.0060 N   0  0  0  0  0  0  0  0  0  0  0  0
    7.5530  -14.7610   -0.9280 C   0  0  0  0  0  0  0  0  0  0  0  0
    7.1340  -14.2010   -1.9340 O   0  0  0  0  0  0  0  0  0  0  0  0
    8.8840  -14.8210   -0.5400 N   0  0  0  0  0  0  0  0  0  0  0  0
    9.9840  -14.1630   -1.1290 C   0  0  0  0  0  0  0  0  0  0  0  0
   10.4670  -14.4370   -2.4140 C   0  0  0  0  0  0  0  0  0  0  0  0
   11.5710  -13.7610   -2.9670 C   0  0  0  0  0  0  0  0  0  0  0  0
   12.0230  -14.0710   -4.2450 N   0  0  0  0  0  0  0  0  0  0  0  0
   11.1220  -13.9970   -5.4100 C   0  0  0  0  0  0  0  0  0  0  0  0
   11.6820  -14.8250   -6.5750 C   0  0  0  0  0  0  0  0  0  0  0  0
   13.0230  -14.4350   -6.9090 O   0  0  0  0  0  0  0  0  0  0  0  0
   13.8830  -14.6410   -5.7790 C   0  0  0  0  0  0  0  0  0  0  0  0
   13.4430  -13.8080   -4.5660 C   0  0  0  0  0  0  0  0  0  0  0  0
   12.1630  -12.7630   -2.1830 C   0  0  0  0  0  0  0  0  0  0  0  0
   11.6910  -12.4480   -0.8980 C   0  0  0  0  0  0  0  0  0  0  0  0
   12.3740  -11.3860   -0.0760 C   0  0  0  0  0  0  0  0  0  0  0  0
   11.5520  -10.8000    0.8370 F   0  0  0  0  0  0  0  0  0  0  0  0
   13.4350  -11.8660    0.6340 F   0  0  0  0  0  0  0  0  0  0  0  0
   12.8680  -10.3760   -0.8430 F   0  0  0  0  0  0  0  0  0  0  0  0
   10.6040  -13.1620   -0.3770 C   0  0  0  0  0  0  0  0  0  0  0  0
    4.3810  -15.0750    0.5950 C   0  0  0  0  0  0  0  0  0  0  0  0
    3.0250  -15.4300    0.4540 C   0  0  0  0  0  0  0  0  0  0  0  0
    2.0120  -14.7180    1.2460 C   0  0  0  0  0  0  0  0  0  0  0  0
    1.4450  -13.5620    0.8860 N   0  0  0  0  0  0  0  0  0  0  0  0
    0.6020  -13.3200    1.9010 C   0  0  0  0  0  0  0  0  0  0  0  0
    0.5950  -14.2380    2.8770 C   0  0  0  0  0  0  0  0  0  0  0  0
   -0.3590  -13.7490    3.8120 C   0  0  0  0  0  0  0  0  0  0  0  0
   -0.9340  -12.5720    3.4600 N   0  0  0  0  0  0  0  0  0  0  0  0
   -0.3060  -12.3620    2.2470 N   0  0  0  0  0  0  0  0  0  0  0  0
   -0.5850  -11.1890    1.4430 C   0  0  0  0  0  0  0  0  0  0  0  0
   -1.9110  -11.3090    0.7340 C   0  0  0  0  0  0  0  0  0  0  0  0
   -2.5290  -10.1750    0.1860 C   0  0  0  0  0  0  0  0  0  0  0  0
   -3.7500  -10.2870   -0.4820 C   0  0  0  0  0  0  0  0  0  0  0  0
   -4.3610  -11.5330   -0.6130 C   0  0  0  0  0  0  0  0  0  0  0  0
   -3.7500  -12.6680   -0.0840 C   0  0  0  0  0  0  0  0  0  0  0  0
   -2.5290  -12.5580    0.5830 C   0  0  0  0  0  0  0  0  0  0  0  0
    1.4990  -15.1750    2.4670 N   0  0  0  0  0  0  0  0  0  0  0  0
    1.7850  -16.3920    3.1760 C   0  0  0  0  0  0  0  0  0  0  0  0
    0.7413  -16.9871    0.2971 H   0  0  0  0  0  0  0  0  0  0  0  0
    0.7145  -16.0615   -1.2422 H   0  0  0  0  0  0  0  0  0  0  0  0
    1.2016  -17.7905   -1.2422 H   0  0  0  0  0  0  0  0  0  0  0  0
    3.4058  -17.8499   -1.9352 H   0  0  0  0  0  0  0  0  0  0  0  0
    5.7922  -17.2271   -1.6323 H   0  0  0  0  0  0  0  0  0  0  0  0
    7.1740  -15.6230    0.8890 H   0  0  0  0  0  0  0  0  0  0  0  0
    9.1000  -15.4780    0.1930 H   0  0  0  0  0  0  0  0  0  0  0  0
    9.9648  -15.2099   -3.0144 H   0  0  0  0  0  0  0  0  0  0  0  0
   10.1336  -14.3895   -5.1289 H   0  0  0  0  0  0  0  0  0  0  0  0
   11.0363  -12.9474   -5.7279 H   0  0  0  0  0  0  0  0  0  0  0  0
   11.6805  -15.8874   -6.2900 H   0  0  0  0  0  0  0  0  0  0  0  0
   11.0457  -14.6514   -7.4553 H   0  0  0  0  0  0  0  0  0  0  0  0
   13.8621  -15.7063   -5.5055 H   0  0  0  0  0  0  0  0  0  0  0  0
   14.8981  -14.3241   -6.0605 H   0  0  0  0  0  0  0  0  0  0  0  0
   14.0655  -14.0741   -3.6990 H   0  0  0  0  0  0  0  0  0  0  0  0
   13.5622  -12.7409   -4.8049 H   0  0  0  0  0  0  0  0  0  0  0  0
   13.0237  -12.2089   -2.5856 H   0  0  0  0  0  0  0  0  0  0  0  0
   10.2352  -12.9323    0.6336 H   0  0  0  0  0  0  0  0  0  0  0  0
    4.6567  -14.2670    1.2886 H   0  0  0  0  0  0  0  0  0  0  0  0
   -0.6093  -14.2805    4.7420 H   0  0  0  0  0  0  0  0  0  0  0  0
   -0.6076  -10.3045    2.0966 H   0  0  0  0  0  0  0  0  0  0  0  0
    0.2055  -11.0941    0.6840 H   0  0  0  0  0  0  0  0  0  0  0  0
   -2.0482   -9.1905    0.2833 H   0  0  0  0  0  0  0  0  0  0  0  0
   -4.2297   -9.3920   -0.9049 H   0  0  0  0  0  0  0  0  0  0  0  0
   -5.3258  -11.6202   -1.1341 H   0  0  0  0  0  0  0  0  0  0  0  0
   -4.2304  -13.6516   -0.1922 H   0  0  0  0  0  0  0  0  0  0  0  0
   -2.0480  -13.4582    0.9933 H   0  0  0  0  0  0  0  0  0  0  0  0
    1.7409  -16.2044    4.2590 H   0  0  0  0  0  0  0  0  0  0  0  0
    1.0422  -17.1570    2.9058 H   0  0  0  0  0  0  0  0  0  0  0  0
    2.7908  -16.7460    2.9058 H   0  0  0  0  0  0  0  0  0  0  0  0
  1  2  1  0
  2  3  2  0
  3  4  1  0
  4  5  2  0
  5  6  1  0
  6  7  1  0
  7  8  2  0
  7  9  1  0
  9 10  1  0
 10 11  2  0
 11 12  1  0
 12 13  1  0
 13 14  1  0
 14 15  1  0
 15 16  1  0
 16 17  1  0
 17 18  1  0
 12 19  2  0
 19 20  1  0
 20 21  1  0
 21 22  1  0
 21 23  1  0
 21 24  1  0
 20 25  2  0
  5 26  1  0
 26 27  2  0
 27 28  1  0
 28 29  2  0
 29 30  1  0
 30 31  2  0
 31 32  1  0
 32 33  2  0
 33 34  1  0
 34 35  1  0
 35 36  1  0
 36 37  2  0
 37 38  1  0
 38 39  2  0
 39 40  1  0
 40 41  2  0
 31 42  1  0
 42 43  1  0
 27  2  1  0
 42 28  1  0
 25 10  1  0
 34 30  1  0
 41 36  1  0
 18 13  1  0
  1 44  1  0
  1 45  1  0
  1 46  1  0
  3 47  1  0
  4 48  1  0
  6 49  1  0
  9 50  1  0
 11 51  1  0
 14 52  1  0
 14 53  1  0
 15 54  1  0
 15 55  1  0
 17 56  1  0
 17 57  1  0
 18 58  1  0
 18 59  1  0
 19 60  1  0
 25 61  1  0
 26 62  1  0
 32 63  1  0
 35 64  1  0
 35 65  1  0
 37 66  1  0
 38 67  1  0
 39 68  1  0
 40 69  1  0
 41 70  1  0
 43 71  1  0
 43 72  1  0
 43 73  1  0
M  END
>  <meeko>  (4) 
{"is_sidechain": [false], "free_energy": -9.642, "intermolecular_energy": -13.272, "internal_energy": -1.213}

$$$$
LIB_GMFZNQYZGJZENC__M_PUB_ALL__e8__s20260927
     RDKit          3D

 73 78  0  0  0  0  0  0  0  0999 V2000
   -3.6410  -12.5660    1.0520 C   0  0  0  0  0  0  0  0  0  0  0  0
   -4.2290  -13.3700    2.1810 C   0  0  0  0  0  0  0  0  0  0  0  0
   -5.4590  -12.9760    2.7300 C   0  0  0  0  0  0  0  0  0  0  0  0
   -6.0420  -13.6990    3.7730 C   0  0  0  0  0  0  0  0  0  0  0  0
   -5.4140  -14.8360    4.2850 C   0  0  0  0  0  0  0  0  0  0  0  0
   -6.0570  -15.5140    5.3430 N   0  0  0  0  0  0  0  0  0  0  0  0
   -7.4060  -15.8320    5.4380 C   0  0  0  0  0  0  0  0  0  0  0  0
   -8.2190  -15.6940    4.5320 O   0  0  0  0  0  0  0  0  0  0  0  0
   -7.6920  -16.3290    6.7010 N   0  0  0  0  0  0  0  0  0  0  0  0
   -8.9070  -16.8850    7.1550 C   0  0  0  0  0  0  0  0  0  0  0  0
   -9.1540  -18.2600    7.2460 C   0  0  0  0  0  0  0  0  0  0  0  0
  -10.3810  -18.7790    7.7000 C   0  0  0  0  0  0  0  0  0  0  0  0
  -10.5880  -20.1520    7.7680 N   0  0  0  0  0  0  0  0  0  0  0  0
  -11.8030  -20.7100    8.3890 C   0  0  0  0  0  0  0  0  0  0  0  0
  -11.5830  -22.1790    8.7760 C   0  0  0  0  0  0  0  0  0  0  0  0
  -11.1460  -22.9640    7.6560 O   0  0  0  0  0  0  0  0  0  0  0  0
   -9.8970  -22.4540    7.1640 C   0  0  0  0  0  0  0  0  0  0  0  0
  -10.0210  -20.9970    6.6940 C   0  0  0  0  0  0  0  0  0  0  0  0
  -11.3560  -17.8540    8.0950 C   0  0  0  0  0  0  0  0  0  0  0  0
  -11.1330  -16.4670    8.0360 C   0  0  0  0  0  0  0  0  0  0  0  0
  -12.2180  -15.5050    8.4440 C   0  0  0  0  0  0  0  0  0  0  0  0
  -12.3880  -14.4810    7.5630 F   0  0  0  0  0  0  0  0  0  0  0  0
  -13.4390  -16.1010    8.5590 F   0  0  0  0  0  0  0  0  0  0  0  0
  -11.9720  -14.9270    9.6510 F   0  0  0  0  0  0  0  0  0  0  0  0
   -9.9050  -15.9940    7.5550 C   0  0  0  0  0  0  0  0  0  0  0  0
   -4.2090  -15.2530    3.7190 C   0  0  0  0  0  0  0  0  0  0  0  0
   -3.5960  -14.5260    2.6800 C   0  0  0  0  0  0  0  0  0  0  0  0
   -2.3210  -15.0040    2.1260 C   0  0  0  0  0  0  0  0  0  0  0  0
   -1.1370  -14.8820    2.7360 N   0  0  0  0  0  0  0  0  0  0  0  0
   -0.2980  -15.4610    1.8650 C   0  0  0  0  0  0  0  0  0  0  0  0
   -0.8630  -15.9390    0.7480 C   0  0  0  0  0  0  0  0  0  0  0  0
    0.2240  -16.4820    0.0090 C   0  0  0  0  0  0  0  0  0  0  0  0
    1.4300  -16.3560    0.6160 N   0  0  0  0  0  0  0  0  0  0  0  0
    1.0380  -15.7250    1.7800 N   0  0  0  0  0  0  0  0  0  0  0  0
    1.9980  -15.3550    2.8010 C   0  0  0  0  0  0  0  0  0  0  0  0
    1.5690  -15.8360    4.1650 C   0  0  0  0  0  0  0  0  0  0  0  0
    1.1490  -14.9220    5.1430 C   0  0  0  0  0  0  0  0  0  0  0  0
    0.7380  -15.3680    6.4000 C   0  0  0  0  0  0  0  0  0  0  0  0
    0.7380  -16.7320    6.6900 C   0  0  0  0  0  0  0  0  0  0  0  0
    1.1400  -17.6500    5.7220 C   0  0  0  0  0  0  0  0  0  0  0  0
    1.5500  -17.2060    4.4640 C   0  0  0  0  0  0  0  0  0  0  0  0
   -2.1920  -15.6670    0.8990 N   0  0  0  0  0  0  0  0  0  0  0  0
   -3.2110  -16.0560   -0.0360 C   0  0  0  0  0  0  0  0  0  0  0  0
   -3.0387  -11.7425    1.4632 H   0  0  0  0  0  0  0  0  0  0  0  0
   -3.0024  -13.2142    0.4340 H   0  0  0  0  0  0  0  0  0  0  0  0
   -4.4523  -12.1539    0.4340 H   0  0  0  0  0  0  0  0  0  0  0  0
   -5.9704  -12.0864    2.3338 H   0  0  0  0  0  0  0  0  0  0  0  0
   -7.0034  -13.3701    4.1944 H   0  0  0  0  0  0  0  0  0  0  0  0
   -5.4550  -15.9000    6.0520 H   0  0  0  0  0  0  0  0  0  0  0  0
   -6.9760  -16.1990    7.3980 H   0  0  0  0  0  0  0  0  0  0  0  0
   -8.3592  -18.9612    6.9516 H   0  0  0  0  0  0  0  0  0  0  0  0
  -12.0470  -20.1305    9.2916 H   0  0  0  0  0  0  0  0  0  0  0  0
  -12.6303  -20.6526    7.6663 H   0  0  0  0  0  0  0  0  0  0  0  0
  -10.8191  -22.2289    9.5659 H   0  0  0  0  0  0  0  0  0  0  0  0
  -12.5416  -22.5879    9.1279 H   0  0  0  0  0  0  0  0  0  0  0  0
   -9.1493  -22.5059    7.9691 H   0  0  0  0  0  0  0  0  0  0  0  0
   -9.5934  -23.0665    6.3022 H   0  0  0  0  0  0  0  0  0  0  0  0
   -9.0245  -20.6180    6.4234 H   0  0  0  0  0  0  0  0  0  0  0  0
  -10.6906  -20.9605    5.8220 H   0  0  0  0  0  0  0  0  0  0  0  0
  -12.3248  -18.2237    8.4622 H   0  0  0  0  0  0  0  0  0  0  0  0
   -9.7254  -14.9106    7.4919 H   0  0  0  0  0  0  0  0  0  0  0  0
   -3.7274  -16.1689    4.0920 H   0  0  0  0  0  0  0  0  0  0  0  0
    0.0972  -16.9634   -0.9719 H   0  0  0  0  0  0  0  0  0  0  0  0
    2.9721  -15.8025    2.5544 H   0  0  0  0  0  0  0  0  0  0  0  0
    2.0664  -14.2575    2.8283 H   0  0  0  0  0  0  0  0  0  0  0  0
    1.1436  -13.8454    4.9173 H   0  0  0  0  0  0  0  0  0  0  0  0
    0.4141  -14.6437    7.1619 H   0  0  0  0  0  0  0  0  0  0  0  0
    0.4206  -17.0832    7.6829 H   0  0  0  0  0  0  0  0  0  0  0  0
    1.1342  -18.7262    5.9496 H   0  0  0  0  0  0  0  0  0  0  0  0
    1.8604  -17.9357    3.7017 H   0  0  0  0  0  0  0  0  0  0  0  0
   -4.1017  -16.3960    0.5128 H   0  0  0  0  0  0  0  0  0  0  0  0
   -3.4761  -15.1958   -0.6683 H   0  0  0  0  0  0  0  0  0  0  0  0
   -2.8355  -16.8740   -0.6683 H   0  0  0  0  0  0  0  0  0  0  0  0
  1  2  1  0
  2  3  2  0
  3  4  1  0
  4  5  2  0
  5  6  1  0
  6  7  1  0
  7  8  2  0
  7  9  1  0
  9 10  1  0
 10 11  2  0
 11 12  1  0
 12 13  1  0
 13 14  1  0
 14 15  1  0
 15 16  1  0
 16 17  1  0
 17 18  1  0
 12 19  2  0
 19 20  1  0
 20 21  1  0
 21 22  1  0
 21 23  1  0
 21 24  1  0
 20 25  2  0
  5 26  1  0
 26 27  2  0
 27 28  1  0
 28 29  2  0
 29 30  1  0
 30 31  2  0
 31 32  1  0
 32 33  2  0
 33 34  1  0
 34 35  1  0
 35 36  1  0
 36 37  2  0
 37 38  1  0
 38 39  2  0
 39 40  1  0
 40 41  2  0
 31 42  1  0
 42 43  1  0
 27  2  1  0
 42 28  1  0
 25 10  1  0
 34 30  1  0
 41 36  1  0
 18 13  1  0
  1 44  1  0
  1 45  1  0
  1 46  1  0
  3 47  1  0
  4 48  1  0
  6 49  1  0
  9 50  1  0
 11 51  1  0
 14 52  1  0
 14 53  1  0
 15 54  1  0
 15 55  1  0
 17 56  1  0
 17 57  1  0
 18 58  1  0
 18 59  1  0
 19 60  1  0
 25 61  1  0
 26 62  1  0
 32 63  1  0
 35 64  1  0
 35 65  1  0
 37 66  1  0
 38 67  1  0
 39 68  1  0
 40 69  1  0
 41 70  1  0
 43 71  1  0
 43 72  1  0
 43 73  1  0
M  END
>  <meeko>  (5) 
{"is_sidechain": [false], "free_energy": -9.539, "intermolecular_energy": -13.454, "internal_energy": -0.885}

$$$$
LIB_GMFZNQYZGJZENC__M_PUB_ALL__e8__s20260927
     RDKit          3D

 73 78  0  0  0  0  0  0  0  0999 V2000
    1.4180  -10.8370   -1.0920 C   0  0  0  0  0  0  0  0  0  0  0  0
    2.0640  -11.4300   -2.3160 C   0  0  0  0  0  0  0  0  0  0  0  0
    2.5640  -10.5720   -3.3070 C   0  0  0  0  0  0  0  0  0  0  0  0
    3.1770  -11.0830   -4.4530 C   0  0  0  0  0  0  0  0  0  0  0  0
    3.3110  -12.4610   -4.6320 C   0  0  0  0  0  0  0  0  0  0  0  0
    3.9350  -12.9070   -5.8170 N   0  0  0  0  0  0  0  0  0  0  0  0
    5.2870  -12.8380   -6.1290 C   0  0  0  0  0  0  0  0  0  0  0  0
    6.1660  -12.5080   -5.3440 O   0  0  0  0  0  0  0  0  0  0  0  0
    5.4900  -13.2020   -7.4530 N   0  0  0  0  0  0  0  0  0  0  0  0
    6.7210  -13.3900   -8.1160 C   0  0  0  0  0  0  0  0  0  0  0  0
    7.7110  -14.2860   -7.6940 C   0  0  0  0  0  0  0  0  0  0  0  0
    8.9300  -14.4430   -8.3800 C   0  0  0  0  0  0  0  0  0  0  0  0
    9.8900  -15.3380   -7.9210 N   0  0  0  0  0  0  0  0  0  0  0  0
   11.3250  -15.0060   -7.9700 C   0  0  0  0  0  0  0  0  0  0  0  0
   12.1750  -16.2820   -7.8810 C   0  0  0  0  0  0  0  0  0  0  0  0
   11.8450  -17.0600   -6.7210 O   0  0  0  0  0  0  0  0  0  0  0  0
   10.4680  -17.4610   -6.7820 C   0  0  0  0  0  0  0  0  0  0  0  0
    9.5220  -16.2510   -6.8170 C   0  0  0  0  0  0  0  0  0  0  0  0
    9.1100  -13.6810   -9.5410 C   0  0  0  0  0  0  0  0  0  0  0  0
    8.1270  -12.7880  -10.0050 C   0  0  0  0  0  0  0  0  0  0  0  0
    8.3720  -11.9660  -11.2430 C   0  0  0  0  0  0  0  0  0  0  0  0
    9.6150  -11.4110  -11.2840 F   0  0  0  0  0  0  0  0  0  0  0  0
    8.2510  -12.6890  -12.3920 F   0  0  0  0  0  0  0  0  0  0  0  0
    7.4940  -10.9330  -11.3600 F   0  0  0  0  0  0  0  0  0  0  0  0
    6.9390  -12.6450   -9.2770 C   0  0  0  0  0  0  0  0  0  0  0  0
    2.8480  -13.3180   -3.6320 C   0  0  0  0  0  0  0  0  0  0  0  0
    2.2090  -12.8230   -2.4790 C   0  0  0  0  0  0  0  0  0  0  0  0
    1.7310  -13.7700   -1.4620 C   0  0  0  0  0  0  0  0  0  0  0  0
    0.4830  -14.2470   -1.3990 N   0  0  0  0  0  0  0  0  0  0  0  0
    0.5330  -15.0600   -0.3340 C   0  0  0  0  0  0  0  0  0  0  0  0
    1.7210  -15.1330    0.2820 C   0  0  0  0  0  0  0  0  0  0  0  0
    1.5040  -16.0370    1.3580 C   0  0  0  0  0  0  0  0  0  0  0  0
    0.2390  -16.5200    1.4350 N   0  0  0  0  0  0  0  0  0  0  0  0
   -0.3170  -15.8870    0.3410 N   0  0  0  0  0  0  0  0  0  0  0  0
   -1.7080  -16.0790   -0.0190 C   0  0  0  0  0  0  0  0  0  0  0  0
   -2.5870  -15.0130    0.5850 C   0  0  0  0  0  0  0  0  0  0  0  0
   -2.9820  -15.0940    1.9290 C   0  0  0  0  0  0  0  0  0  0  0  0
   -3.7850  -14.1000    2.4920 C   0  0  0  0  0  0  0  0  0  0  0  0
   -4.1960  -13.0150    1.7200 C   0  0  0  0  0  0  0  0  0  0  0  0
   -3.7990  -12.9180    0.3870 C   0  0  0  0  0  0  0  0  0  0  0  0
   -2.9960  -13.9090   -0.1770 C   0  0  0  0  0  0  0  0  0  0  0  0
    2.5300  -14.3080   -0.4450 N   0  0  0  0  0  0  0  0  0  0  0  0
    3.9310  -14.1130   -0.1900 C   0  0  0  0  0  0  0  0  0  0  0  0
    1.8818  -11.2627   -0.1899 H   0  0  0  0  0  0  0  0  0  0  0  0
    1.5575   -9.7459   -1.0959 H   0  0  0  0  0  0  0  0  0  0  0  0
    0.3428  -11.0692   -1.0959 H   0  0  0  0  0  0  0  0  0  0  0  0
    2.4720   -9.4833   -3.1797 H   0  0  0  0  0  0  0  0  0  0  0  0
    3.5575  -10.3938   -5.2212 H   0  0  0  0  0  0  0  0  0  0  0  0
    3.3520  -13.4230   -6.4560 H   0  0  0  0  0  0  0  0  0  0  0  0
    4.6640  -13.2550   -8.0270 H   0  0  0  0  0  0  0  0  0  0  0  0
    7.5292  -14.8897   -6.7926 H   0  0  0  0  0  0  0  0  0  0  0  0
   11.5451  -14.4895   -8.9160 H   0  0  0  0  0  0  0  0  0  0  0  0
   11.5692  -14.3554   -7.1173 H   0  0  0  0  0  0  0  0  0  0  0  0
   11.9994  -16.8907   -8.7802 H   0  0  0  0  0  0  0  0  0  0  0  0
   13.2316  -15.9855   -7.8057 H   0  0  0  0  0  0  0  0  0  0  0  0
   10.3119  -18.0613   -7.6905 H   0  0  0  0  0  0  0  0  0  0  0  0
   10.2419  -18.0455   -5.8780 H   0  0  0  0  0  0  0  0  0  0  0  0
    8.4903  -16.6022   -6.9662 H   0  0  0  0  0  0  0  0  0  0  0  0
    9.6034  -15.7079   -5.8639 H   0  0  0  0  0  0  0  0  0  0  0  0
   10.0477  -13.7837  -10.1069 H   0  0  0  0  0  0  0  0  0  0  0  0
    6.1700  -11.9388   -9.6232 H   0  0  0  0  0  0  0  0  0  0  0  0
    2.9853  -14.4033   -3.7472 H   0  0  0  0  0  0  0  0  0  0  0  0
    2.2951  -16.3205    2.0678 H   0  0  0  0  0  0  0  0  0  0  0  0
   -1.8022  -16.0418   -1.1143 H   0  0  0  0  0  0  0  0  0  0  0  0
   -2.0334  -17.0555    0.3689 H   0  0  0  0  0  0  0  0  0  0  0  0
   -2.6568  -15.9465    2.5434 H   0  0  0  0  0  0  0  0  0  0  0  0
   -4.0933  -14.1734    3.5454 H   0  0  0  0  0  0  0  0  0  0  0  0
   -4.8335  -12.2353    2.1622 H   0  0  0  0  0  0  0  0  0  0  0  0
   -4.1195  -12.0588   -0.2205 H   0  0  0  0  0  0  0  0  0  0  0  0
   -2.6811  -13.8241   -1.2275 H   0  0  0  0  0  0  0  0  0  0  0  0
    4.1062  -14.0886    0.8957 H   0  0  0  0  0  0  0  0  0  0  0  0
    4.5033  -14.9401   -0.6353 H   0  0  0  0  0  0  0  0  0  0  0  0
    4.2557  -13.1610   -0.6353 H   0  0  0  0  0  0  0  0  0  0  0  0
  1  2  1  0
  2  3  2  0
  3  4  1  0
  4  5  2  0
  5  6  1  0
  6  7  1  0
  7  8  2  0
  7  9  1  0
  9 10  1  0
 10 11  2  0
 11 12  1  0
 12 13  1  0
 13 14  1  0
 14 15  1  0
 15 16  1  0
 16 17  1  0
 17 18  1  0
 12 19  2  0
 19 20  1  0
 20 21  1  0
 21 22  1  0
 21 23  1  0
 21 24  1  0
 20 25  2  0
  5 26  1  0
 26 27  2  0
 27 28  1  0
 28 29  2  0
 29 30  1  0
 30 31  2  0
 31 32  1  0
 32 33  2  0
 33 34  1  0
 34 35  1  0
 35 36  1  0
 36 37  2  0
 37 38  1  0
 38 39  2  0
 39 40  1  0
 40 41  2  0
 31 42  1  0
 42 43  1  0
 27  2  1  0
 42 28  1  0
 25 10  1  0
 34 30  1  0
 41 36  1  0
 18 13  1  0
  1 44  1  0
  1 45  1  0
  1 46  1  0
  3 47  1  0
  4 48  1  0
  6 49  1  0
  9 50  1  0
 11 51  1  0
 14 52  1  0
 14 53  1  0
 15 54  1  0
 15 55  1  0
 17 56  1  0
 17 57  1  0
 18 58  1  0
 18 59  1  0
 19 60  1  0
 25 61  1  0
 26 62  1  0
 32 63  1  0
 35 64  1  0
 35 65  1  0
 37 66  1  0
 38 67  1  0
 39 68  1  0
 40 69  1  0
 41 70  1  0
 43 71  1  0
 43 72  1  0
 43 73  1  0
M  END
>  <meeko>  (6) 
{"is_sidechain": [false], "free_energy": -9.338, "intermolecular_energy": -12.607, "internal_energy": -1.449}

$$$$
LIB_GMFZNQYZGJZENC__M_PUB_ALL__e8__s20260927
     RDKit          3D

 73 78  0  0  0  0  0  0  0  0999 V2000
    5.0580  -11.7510    1.2940 C   0  0  0  0  0  0  0  0  0  0  0  0
    5.0830  -11.9190   -0.2020 C   0  0  0  0  0  0  0  0  0  0  0  0
    6.1540  -11.3800   -0.9300 C   0  0  0  0  0  0  0  0  0  0  0  0
    6.2190  -11.5210   -2.3180 C   0  0  0  0  0  0  0  0  0  0  0  0
    5.2200  -12.2100   -3.0080 C   0  0  0  0  0  0  0  0  0  0  0  0
    5.3470  -12.3090   -4.4110 N   0  0  0  0  0  0  0  0  0  0  0  0
    6.1090  -13.2270   -5.1210 C   0  0  0  0  0  0  0  0  0  0  0  0
    6.6740  -14.1940   -4.6250 O   0  0  0  0  0  0  0  0  0  0  0  0
    6.1280  -12.8920   -6.4680 N   0  0  0  0  0  0  0  0  0  0  0  0
    6.6750  -13.6370   -7.5340 C   0  0  0  0  0  0  0  0  0  0  0  0
    7.3420  -14.8580   -7.3770 C   0  0  0  0  0  0  0  0  0  0  0  0
    7.8770  -15.5710   -8.4660 C   0  0  0  0  0  0  0  0  0  0  0  0
    8.5400  -16.7770   -8.2650 N   0  0  0  0  0  0  0  0  0  0  0  0
    8.1950  -17.6560   -7.1330 C   0  0  0  0  0  0  0  0  0  0  0  0
    9.3420  -18.6350   -6.8440 C   0  0  0  0  0  0  0  0  0  0  0  0
    9.7080  -19.3850   -8.0120 O   0  0  0  0  0  0  0  0  0  0  0  0
   10.1530  -18.4900   -9.0420 C   0  0  0  0  0  0  0  0  0  0  0  0
    9.0540  -17.4970   -9.4510 C   0  0  0  0  0  0  0  0  0  0  0  0
    7.6890  -15.0230   -9.7410 C   0  0  0  0  0  0  0  0  0  0  0  0
    7.0060  -13.8100   -9.9350 C   0  0  0  0  0  0  0  0  0  0  0  0
    6.8500  -13.2400  -11.3210 C   0  0  0  0  0  0  0  0  0  0  0  0
    6.5660  -11.9080  -11.3260 F   0  0  0  0  0  0  0  0  0  0  0  0
    7.9720  -13.3830  -12.0820 F   0  0  0  0  0  0  0  0  0  0  0  0
    5.8480  -13.8410  -12.0190 F   0  0  0  0  0  0  0  0  0  0  0  0
    6.5100  -13.1210   -8.8210 C   0  0  0  0  0  0  0  0  0  0  0  0
    4.1710  -12.7800   -2.2850 C   0  0  0  0  0  0  0  0  0  0  0  0
    4.0790  -12.6310   -0.8880 C   0  0  0  0  0  0  0  0  0  0  0  0
    2.9470  -13.2420   -0.1750 C   0  0  0  0  0  0  0  0  0  0  0  0
    1.6900  -12.7880   -0.2200 N   0  0  0  0  0  0  0  0  0  0  0  0
    1.0360  -13.6580    0.5630 C   0  0  0  0  0  0  0  0  0  0  0  0
    1.7870  -14.6300    1.1000 C   0  0  0  0  0  0  0  0  0  0  0  0
    0.8710  -15.3940    1.8750 C   0  0  0  0  0  0  0  0  0  0  0  0
   -0.4050  -14.9370    1.8420 N   0  0  0  0  0  0  0  0  0  0  0  0
   -0.2430  -13.8600    0.9920 N   0  0  0  0  0  0  0  0  0  0  0  0
   -1.3580  -13.0080    0.6290 C   0  0  0  0  0  0  0  0  0  0  0  0
   -1.3560  -11.7270    1.4250 C   0  0  0  0  0  0  0  0  0  0  0  0
   -1.1760  -10.4910    0.7850 C   0  0  0  0  0  0  0  0  0  0  0  0
   -1.1890   -9.3040    1.5200 C   0  0  0  0  0  0  0  0  0  0  0  0
   -1.3860   -9.3400    2.8990 C   0  0  0  0  0  0  0  0  0  0  0  0
   -1.5790  -10.5610    3.5440 C   0  0  0  0  0  0  0  0  0  0  0  0
   -1.5690  -11.7480    2.8110 C   0  0  0  0  0  0  0  0  0  0  0  0
    3.0420  -14.3900    0.6210 N   0  0  0  0  0  0  0  0  0  0  0  0
    4.1840  -15.2230    0.8850 C   0  0  0  0  0  0  0  0  0  0  0  0
    5.2036  -12.7293    1.7753 H   0  0  0  0  0  0  0  0  0  0  0  0
    5.8644  -11.0683    1.5998 H   0  0  0  0  0  0  0  0  0  0  0  0
    4.0877  -11.3327    1.5998 H   0  0  0  0  0  0  0  0  0  0  0  0
    6.9528  -10.8394   -0.4011 H   0  0  0  0  0  0  0  0  0  0  0  0
    7.0639  -11.0858   -2.8718 H   0  0  0  0  0  0  0  0  0  0  0  0
    4.7370  -11.7170   -4.9530 H   0  0  0  0  0  0  0  0  0  0  0  0
    5.7890  -11.9710   -6.6970 H   0  0  0  0  0  0  0  0  0  0  0  0
    7.4519  -15.2753   -6.3652 H   0  0  0  0  0  0  0  0  0  0  0  0
    8.0104  -17.0408   -6.2400 H   0  0  0  0  0  0  0  0  0  0  0  0
    7.2930  -18.2305   -7.3905 H   0  0  0  0  0  0  0  0  0  0  0  0
   10.2172  -18.0660   -6.4972 H   0  0  0  0  0  0  0  0  0  0  0  0
    9.0018  -19.3437   -6.0746 H   0  0  0  0  0  0  0  0  0  0  0  0
   11.0223  -17.9263   -8.6724 H   0  0  0  0  0  0  0  0  0  0  0  0
   10.4166  -19.0902   -9.9253 H   0  0  0  0  0  0  0  0  0  0  0  0
    9.4699  -16.7699  -10.1640 H   0  0  0  0  0  0  0  0  0  0  0  0
    8.2268  -18.0530   -9.9163 H   0  0  0  0  0  0  0  0  0  0  0  0
    8.0874  -15.5574  -10.6160 H   0  0  0  0  0  0  0  0  0  0  0  0
    5.9855  -12.1643   -8.9613 H   0  0  0  0  0  0  0  0  0  0  0  0
    3.4007  -13.3572   -2.8173 H   0  0  0  0  0  0  0  0  0  0  0  0
    1.1724  -16.2805    2.4522 H   0  0  0  0  0  0  0  0  0  0  0  0
   -1.2879  -12.7640   -0.4413 H   0  0  0  0  0  0  0  0  0  0  0  0
   -2.2909  -13.5485    0.8468 H   0  0  0  0  0  0  0  0  0  0  0  0
   -1.0235  -10.4572   -0.3039 H   0  0  0  0  0  0  0  0  0  0  0  0
   -1.0437   -8.3401    1.0103 H   0  0  0  0  0  0  0  0  0  0  0  0
   -1.3893   -8.4052    3.4787 H   0  0  0  0  0  0  0  0  0  0  0  0
   -1.7393  -10.5884    4.6319 H   0  0  0  0  0  0  0  0  0  0  0  0
   -1.7294  -12.7077    3.3241 H   0  0  0  0  0  0  0  0  0  0  0  0
    4.3214  -15.3232    1.9718 H   0  0  0  0  0  0  0  0  0  0  0  0
    4.0228  -16.2171    0.4426 H   0  0  0  0  0  0  0  0  0  0  0  0
    5.0814  -14.7659    0.4426 H   0  0  0  0  0  0  0  0  0  0  0  0
  1  2  1  0
  2  3  2  0
  3  4  1  0
  4  5  2  0
  5  6  1  0
  6  7  1  0
  7  8  2  0
  7  9  1  0
  9 10  1  0
 10 11  2  0
 11 12  1  0
 12 13  1  0
 13 14  1  0
 14 15  1  0
 15 16  1  0
 16 17  1  0
 17 18  1  0
 12 19  2  0
 19 20  1  0
 20 21  1  0
 21 22  1  0
 21 23  1  0
 21 24  1  0
 20 25  2  0
  5 26  1  0
 26 27  2  0
 27 28  1  0
 28 29  2  0
 29 30  1  0
 30 31  2  0
 31 32  1  0
 32 33  2  0
 33 34  1  0
 34 35  1  0
 35 36  1  0
 36 37  2  0
 37 38  1  0
 38 39  2  0
 39 40  1  0
 40 41  2  0
 31 42  1  0
 42 43  1  0
 27  2  1  0
 42 28  1  0
 25 10  1  0
 34 30  1  0
 41 36  1  0
 18 13  1  0
  1 44  1  0
  1 45  1  0
  1 46  1  0
  3 47  1  0
  4 48  1  0
  6 49  1  0
  9 50  1  0
 11 51  1  0
 14 52  1  0
 14 53  1  0
 15 54  1  0
 15 55  1  0
 17 56  1  0
 17 57  1  0
 18 58  1  0
 18 59  1  0
 19 60  1  0
 25 61  1  0
 26 62  1  0
 32 63  1  0
 35 64  1  0
 35 65  1  0
 37 66  1  0
 38 67  1  0
 39 68  1  0
 40 69  1  0
 41 70  1  0
 43 71  1  0
 43 72  1  0
 43 73  1  0
M  END
>  <meeko>  (7) 
{"is_sidechain": [false], "free_energy": -9.125, "intermolecular_energy": -12.746, "internal_energy": -1.01}

$$$$
LIB_GMFZNQYZGJZENC__M_PUB_ALL__e8__s20260927
     RDKit          3D

 73 78  0  0  0  0  0  0  0  0999 V2000
    6.9500  -11.7930   -3.2790 C   0  0  0  0  0  0  0  0  0  0  0  0
    5.8740  -11.9170   -2.2340 C   0  0  0  0  0  0  0  0  0  0  0  0
    4.5290  -11.8440   -2.6280 C   0  0  0  0  0  0  0  0  0  0  0  0
    3.5010  -11.9620   -1.6900 C   0  0  0  0  0  0  0  0  0  0  0  0
    3.7930  -12.1630   -0.3390 C   0  0  0  0  0  0  0  0  0  0  0  0
    2.7040  -12.2680    0.5540 N   0  0  0  0  0  0  0  0  0  0  0  0
    1.4500  -12.8000    0.2870 C   0  0  0  0  0  0  0  0  0  0  0  0
    1.1520  -13.4000   -0.7380 O   0  0  0  0  0  0  0  0  0  0  0  0
    0.5920  -12.5580    1.3510 N   0  0  0  0  0  0  0  0  0  0  0  0
   -0.7200  -13.0460    1.5300 C   0  0  0  0  0  0  0  0  0  0  0  0
   -1.0560  -14.0900    2.3990 C   0  0  0  0  0  0  0  0  0  0  0  0
   -2.3770  -14.5530    2.5490 C   0  0  0  0  0  0  0  0  0  0  0  0
   -2.6660  -15.6000    3.4170 N   0  0  0  0  0  0  0  0  0  0  0  0
   -1.6520  -16.1110    4.3580 C   0  0  0  0  0  0  0  0  0  0  0  0
   -2.0260  -17.5220    4.8340 C   0  0  0  0  0  0  0  0  0  0  0  0
   -3.3450  -17.5620    5.3970 O   0  0  0  0  0  0  0  0  0  0  0  0
   -4.3070  -17.1720    4.4040 C   0  0  0  0  0  0  0  0  0  0  0  0
   -4.0580  -15.7440    3.8980 C   0  0  0  0  0  0  0  0  0  0  0  0
   -3.3680  -13.8990    1.8060 C   0  0  0  0  0  0  0  0  0  0  0  0
   -3.0680  -12.8330    0.9410 C   0  0  0  0  0  0  0  0  0  0  0  0
   -4.1600  -12.1750    0.1390 C   0  0  0  0  0  0  0  0  0  0  0  0
   -4.1510  -12.5290   -1.1760 F   0  0  0  0  0  0  0  0  0  0  0  0
   -5.4090  -12.4780    0.5950 F   0  0  0  0  0  0  0  0  0  0  0  0
   -4.0750  -10.8170    0.1640 F   0  0  0  0  0  0  0  0  0  0  0  0
   -1.7360  -12.4200    0.8050 C   0  0  0  0  0  0  0  0  0  0  0  0
    5.1280  -12.2720    0.0530 C   0  0  0  0  0  0  0  0  0  0  0  0
    6.1780  -12.1360   -0.8750 C   0  0  0  0  0  0  0  0  0  0  0  0
    7.5670  -12.2490   -0.4070 C   0  0  0  0  0  0  0  0  0  0  0  0
    8.4630  -13.1110   -0.8980 N   0  0  0  0  0  0  0  0  0  0  0  0
    9.5590  -12.8370   -0.1760 C   0  0  0  0  0  0  0  0  0  0  0  0
    9.4220  -11.8660    0.7380 C   0  0  0  0  0  0  0  0  0  0  0  0
   10.7000  -11.7830    1.3560 C   0  0  0  0  0  0  0  0  0  0  0  0
   11.6150  -12.6580    0.8700 N   0  0  0  0  0  0  0  0  0  0  0  0
   10.8480  -13.2790   -0.0970 N   0  0  0  0  0  0  0  0  0  0  0  0
   11.3880  -14.3370   -0.9270 C   0  0  0  0  0  0  0  0  0  0  0  0
   12.2390  -13.7840   -2.0430 C   0  0  0  0  0  0  0  0  0  0  0  0
   12.5040  -12.4090   -2.1220 C   0  0  0  0  0  0  0  0  0  0  0  0
   13.3030  -11.8990   -3.1470 C   0  0  0  0  0  0  0  0  0  0  0  0
   13.8490  -12.7580   -4.0990 C   0  0  0  0  0  0  0  0  0  0  0  0
   13.6040  -14.1280   -4.0230 C   0  0  0  0  0  0  0  0  0  0  0  0
   12.8060  -14.6400   -2.9990 C   0  0  0  0  0  0  0  0  0  0  0  0
    8.1290  -11.4520    0.5980 N   0  0  0  0  0  0  0  0  0  0  0  0
    7.5390  -10.3700    1.3380 C   0  0  0  0  0  0  0  0  0  0  0  0
    7.9275  -11.6804   -2.7872 H   0  0  0  0  0  0  0  0  0  0  0  0
    6.9573  -12.6962   -3.9068 H   0  0  0  0  0  0  0  0  0  0  0  0
    6.7516  -10.9118   -3.9068 H   0  0  0  0  0  0  0  0  0  0  0  0
    4.2813  -11.6919   -3.6889 H   0  0  0  0  0  0  0  0  0  0  0  0
    2.4530  -11.8961   -2.0178 H   0  0  0  0  0  0  0  0  0  0  0  0
    2.8950  -12.0260    1.5130 H   0  0  0  0  0  0  0  0  0  0  0  0
    0.9130  -11.8870    2.0320 H   0  0  0  0  0  0  0  0  0  0  0  0
   -0.2580  -14.5669    2.9870 H   0  0  0  0  0  0  0  0  0  0  0  0
   -0.6748  -16.1457    3.8541 H   0  0  0  0  0  0  0  0  0  0  0  0
   -1.6045  -15.4414    5.2295 H   0  0  0  0  0  0  0  0  0  0  0  0
   -1.9838  -18.2099    3.9767 H   0  0  0  0  0  0  0  0  0  0  0  0
   -1.3114  -17.8199    5.6154 H   0  0  0  0  0  0  0  0  0  0  0  0
   -4.2428  -17.8671    3.5539 H   0  0  0  0  0  0  0  0  0  0  0  0
   -5.3053  -17.2019    4.8651 H   0  0  0  0  0  0  0  0  0  0  0  0
   -4.7508  -15.5268    3.0717 H   0  0  0  0  0  0  0  0  0  0  0  0
   -4.2229  -15.0392    4.7263 H   0  0  0  0  0  0  0  0  0  0  0  0
   -4.4126  -14.2298    1.9025 H   0  0  0  0  0  0  0  0  0  0  0  0
   -1.4884  -11.5950    0.1208 H   0  0  0  0  0  0  0  0  0  0  0  0
    5.3648  -12.4683    1.1091 H   0  0  0  0  0  0  0  0  0  0  0  0
   10.9274  -11.0687    2.1610 H   0  0  0  0  0  0  0  0  0  0  0  0
   12.0040  -15.0015   -0.3033 H   0  0  0  0  0  0  0  0  0  0  0  0
   10.5475  -14.8879   -1.3743 H   0  0  0  0  0  0  0  0  0  0  0  0
   12.0791  -11.7272   -1.3706 H   0  0  0  0  0  0  0  0  0  0  0  0
   13.5017  -10.8186   -3.2032 H   0  0  0  0  0  0  0  0  0  0  0  0
   14.4731  -12.3549   -4.9102 H   0  0  0  0  0  0  0  0  0  0  0  0
   14.0401  -14.8064   -4.7710 H   0  0  0  0  0  0  0  0  0  0  0  0
   12.6202  -15.7226   -2.9410 H   0  0  0  0  0  0  0  0  0  0  0  0
    7.6441  -10.5627    2.4159 H   0  0  0  0  0  0  0  0  0  0  0  0
    8.0492   -9.4297    1.0822 H   0  0  0  0  0  0  0  0  0  0  0  0
    6.4722  -10.2896    1.0822 H   0  0  0  0  0  0  0  0  0  0  0  0
  1  2  1  0
  2  3  2  0
  3  4  1  0
  4  5  2  0
  5  6  1  0
  6  7  1  0
  7  8  2  0
  7  9  1  0
  9 10  1  0
 10 11  2  0
 11 12  1  0
 12 13  1  0
 13 14  1  0
 14 15  1  0
 15 16  1  0
 16 17  1  0
 17 18  1  0
 12 19  2  0
 19 20  1  0
 20 21  1  0
 21 22  1  0
 21 23  1  0
 21 24  1  0
 20 25  2  0
  5 26  1  0
 26 27  2  0
 27 28  1  0
 28 29  2  0
 29 30  1  0
 30 31  2  0
 31 32  1  0
 32 33  2  0
 33 34  1  0
 34 35  1  0
 35 36  1  0
 36 37  2  0
 37 38  1  0
 38 39  2  0
 39 40  1  0
 40 41  2  0
 31 42  1  0
 42 43  1  0
 27  2  1  0
 42 28  1  0
 25 10  1  0
 34 30  1  0
 41 36  1  0
 18 13  1  0
  1 44  1  0
  1 45  1  0
  1 46  1  0
  3 47  1  0
  4 48  1  0
  6 49  1  0
  9 50  1  0
 11 51  1  0
 14 52  1  0
 14 53  1  0
 15 54  1  0
 15 55  1  0
 17 56  1  0
 17 57  1  0
 18 58  1  0
 18 59  1  0
 19 60  1  0
 25 61  1  0
 26 62  1  0
 32 63  1  0
 35 64  1  0
 35 65  1  0
 37 66  1  0
 38 67  1  0
 39 68  1  0
 40 69  1  0
 41 70  1  0
 43 71  1  0
 43 72  1  0
 43 73  1  0
M  END
>  <meeko>  (8) 
{"is_sidechain": [false], "free_energy": -9.101, "intermolecular_energy": -13.537, "internal_energy": -0.185}

$$$$
LIB_GMFZNQYZGJZENC__M_PUB_ALL__e8__s20260927
     RDKit          3D

 73 78  0  0  0  0  0  0  0  0999 V2000
    3.6610  -20.9700    5.2280 C   0  0  0  0  0  0  0  0  0  0  0  0
    2.9990  -19.8780    4.4310 C   0  0  0  0  0  0  0  0  0  0  0  0
    3.1830  -19.8410    3.0410 C   0  0  0  0  0  0  0  0  0  0  0  0
    2.5800  -18.8490    2.2640 C   0  0  0  0  0  0  0  0  0  0  0  0
    1.7730  -17.8760    2.8590 C   0  0  0  0  0  0  0  0  0  0  0  0
    1.2010  -16.9010    2.0150 N   0  0  0  0  0  0  0  0  0  0  0  0
    1.6950  -15.6310    1.7440 C   0  0  0  0  0  0  0  0  0  0  0  0
    2.7960  -15.2250    2.0920 O   0  0  0  0  0  0  0  0  0  0  0  0
    0.7630  -14.9000    1.0210 N   0  0  0  0  0  0  0  0  0  0  0  0
    0.9300  -13.6250    0.4390 C   0  0  0  0  0  0  0  0  0  0  0  0
    1.7120  -13.3770   -0.6950 C   0  0  0  0  0  0  0  0  0  0  0  0
    1.8590  -12.0900   -1.2450 C   0  0  0  0  0  0  0  0  0  0  0  0
    2.6520  -11.8860   -2.3680 N   0  0  0  0  0  0  0  0  0  0  0  0
    2.6250  -10.6050   -3.0980 C   0  0  0  0  0  0  0  0  0  0  0  0
    3.1780  -10.7840   -4.5190 C   0  0  0  0  0  0  0  0  0  0  0  0
    4.4900  -11.3660   -4.5090 O   0  0  0  0  0  0  0  0  0  0  0  0
    4.4400  -12.6640   -3.8970 C   0  0  0  0  0  0  0  0  0  0  0  0
    3.9500  -12.5910   -2.4430 C   0  0  0  0  0  0  0  0  0  0  0  0
    1.1560  -11.0490   -0.6250 C   0  0  0  0  0  0  0  0  0  0  0  0
    0.3450  -11.2680    0.5030 C   0  0  0  0  0  0  0  0  0  0  0  0
   -0.3720  -10.1160    1.1570 C   0  0  0  0  0  0  0  0  0  0  0  0
   -0.7240  -10.3650    2.4490 F   0  0  0  0  0  0  0  0  0  0  0  0
    0.3740   -8.9760    1.1890 F   0  0  0  0  0  0  0  0  0  0  0  0
   -1.5240   -9.7870    0.5100 F   0  0  0  0  0  0  0  0  0  0  0  0
    0.2470  -12.5610    1.0310 C   0  0  0  0  0  0  0  0  0  0  0  0
    1.5580  -17.9290    4.2370 C   0  0  0  0  0  0  0  0  0  0  0  0
    2.1740  -18.9100    5.0380 C   0  0  0  0  0  0  0  0  0  0  0  0
    1.9210  -18.9140    6.4860 C   0  0  0  0  0  0  0  0  0  0  0  0
    2.5220  -18.1010    7.3620 N   0  0  0  0  0  0  0  0  0  0  0  0
    1.9710  -18.4680    8.5280 C   0  0  0  0  0  0  0  0  0  0  0  0
    1.0660  -19.4540    8.4550 C   0  0  0  0  0  0  0  0  0  0  0  0
    0.6520  -19.6510    9.8010 C   0  0  0  0  0  0  0  0  0  0  0  0
    1.2620  -18.8360   10.6980 N   0  0  0  0  0  0  0  0  0  0  0  0
    2.0630  -18.1070    9.8410 N   0  0  0  0  0  0  0  0  0  0  0  0
    2.9470  -17.0690   10.3300 C   0  0  0  0  0  0  0  0  0  0  0  0
    4.3280  -17.6060   10.6120 C   0  0  0  0  0  0  0  0  0  0  0  0
    5.2800  -17.6960    9.5860 C   0  0  0  0  0  0  0  0  0  0  0  0
    6.5630  -18.1810    9.8500 C   0  0  0  0  0  0  0  0  0  0  0  0
    6.9070  -18.5750   11.1410 C   0  0  0  0  0  0  0  0  0  0  0  0
    5.9740  -18.4780   12.1720 C   0  0  0  0  0  0  0  0  0  0  0  0
    4.6920  -17.9930   11.9100 C   0  0  0  0  0  0  0  0  0  0  0  0
    1.0020  -19.7550    7.1250 N   0  0  0  0  0  0  0  0  0  0  0  0
    0.1080  -20.7260    6.5560 C   0  0  0  0  0  0  0  0  0  0  0  0
    3.5376  -20.7664    6.3019 H   0  0  0  0  0  0  0  0  0  0  0  0
    3.1965  -21.9364    4.9822 H   0  0  0  0  0  0  0  0  0  0  0  0
    4.7326  -21.0052    4.9822 H   0  0  0  0  0  0  0  0  0  0  0  0
    3.8105  -20.6034    2.5562 H   0  0  0  0  0  0  0  0  0  0  0  0
    2.7417  -18.8338    1.1761 H   0  0  0  0  0  0  0  0  0  0  0  0
    0.4060  -17.1980    1.4710 H   0  0  0  0  0  0  0  0  0  0  0  0
   -0.1660  -15.2880    0.9800 H   0  0  0  0  0  0  0  0  0  0  0  0
    2.2313  -14.2199   -1.1744 H   0  0  0  0  0  0  0  0  0  0  0  0
    1.5878  -10.2433   -3.1561 H   0  0  0  0  0  0  0  0  0  0  0  0
    3.2512   -9.8767   -2.5618 H   0  0  0  0  0  0  0  0  0  0  0  0
    2.5010  -11.4409   -5.0848 H   0  0  0  0  0  0  0  0  0  0  0  0
    3.2470   -9.7912   -4.9875 H   0  0  0  0  0  0  0  0  0  0  0  0
    3.7536  -13.3026   -4.4723 H   0  0  0  0  0  0  0  0  0  0  0  0
    5.4583  -13.0799   -3.8940 H   0  0  0  0  0  0  0  0  0  0  0  0
    3.8309  -13.6113   -2.0496 H   0  0  0  0  0  0  0  0  0  0  0  0
    4.6900  -12.0380   -1.8458 H   0  0  0  0  0  0  0  0  0  0  0  0
    1.2407  -10.0307   -1.0322 H   0  0  0  0  0  0  0  0  0  0  0  0
   -0.3742  -12.7403    1.9209 H   0  0  0  0  0  0  0  0  0  0  0  0
    0.8936  -17.1891    4.7072 H   0  0  0  0  0  0  0  0  0  0  0  0
   -0.0992  -20.4006   10.0905 H   0  0  0  0  0  0  0  0  0  0  0  0
    3.0201  -16.2754    9.5718 H   0  0  0  0  0  0  0  0  0  0  0  0
    2.5312  -16.6761   11.2695 H   0  0  0  0  0  0  0  0  0  0  0  0
    5.0143  -17.3823    8.5657 H   0  0  0  0  0  0  0  0  0  0  0  0
    7.3019  -18.2518    9.0382 H   0  0  0  0  0  0  0  0  0  0  0  0
    7.9155  -18.9629   11.3470 H   0  0  0  0  0  0  0  0  0  0  0  0
    6.2483  -18.7838   13.1924 H   0  0  0  0  0  0  0  0  0  0  0  0
    3.9610  -17.9136   12.7281 H   0  0  0  0  0  0  0  0  0  0  0  0
   -0.3982  -21.2757    7.3632 H   0  0  0  0  0  0  0  0  0  0  0  0
   -0.6418  -20.2143    5.9347 H   0  0  0  0  0  0  0  0  0  0  0  0
    0.6797  -21.4310    5.9347 H   0  0  0  0  0  0  0  0  0  0  0  0
  1  2  1  0
  2  3  2  0
  3  4  1  0
  4  5  2  0
  5  6  1  0
  6  7  1  0
  7  8  2  0
  7  9  1  0
  9 10  1  0
 10 11  2  0
 11 12  1  0
 12 13  1  0
 13 14  1  0
 14 15  1  0
 15 16  1  0
 16 17  1  0
 17 18  1  0
 12 19  2  0
 19 20  1  0
 20 21  1  0
 21 22  1  0
 21 23  1  0
 21 24  1  0
 20 25  2  0
  5 26  1  0
 26 27  2  0
 27 28  1  0
 28 29  2  0
 29 30  1  0
 30 31  2  0
 31 32  1  0
 32 33  2  0
 33 34  1  0
 34 35  1  0
 35 36  1  0
 36 37  2  0
 37 38  1  0
 38 39  2  0
 39 40  1  0
 40 41  2  0
 31 42  1  0
 42 43  1  0
 27  2  1  0
 42 28  1  0
 25 10  1  0
 34 30  1  0
 41 36  1  0
 18 13  1  0
  1 44  1  0
  1 45  1  0
  1 46  1  0
  3 47  1  0
  4 48  1  0
  6 49  1  0
  9 50  1  0
 11 51  1  0
 14 52  1  0
 14 53  1  0
 15 54  1  0
 15 55  1  0
 17 56  1  0
 17 57  1  0
 18 58  1  0
 18 59  1  0
 19 60  1  0
 25 61  1  0
 26 62  1  0
 32 63  1  0
 35 64  1  0
 35 65  1  0
 37 66  1  0
 38 67  1  0
 39 68  1  0
 40 69  1  0
 41 70  1  0
 43 71  1  0
 43 72  1  0
 43 73  1  0
M  END
>  <meeko>  (9) 
{"is_sidechain": [false], "free_energy": -9.009, "intermolecular_energy": -12.112, "internal_energy": -1.481}

$$$$
