LIB_CKDNHQVHGHKQIG__M_PUB_ALL__e8__s20260927
     RDKit          3D

 57 63  0  0  0  0  0  0  0  0999 V2000
   12.5410  -11.3800   -0.0590 C   0  0  0  0  0  0  0  0  0  0  0  0
   11.6760  -12.2430   -0.9270 C   0  0  2  0  0  0  0  0  0  0  0  0
   10.3490  -12.6600   -0.3460 C   0  0  1  0  0  0  0  0  0  0  0  0
    9.7990  -11.7930    0.7910 C   0  0  0  0  0  0  0  0  0  0  0  0
    8.3470  -11.9340    0.5100 C   0  0  0  0  0  0  0  0  0  0  0  0
    7.2810  -11.5740    1.3100 C   0  0  0  0  0  0  0  0  0  0  0  0
    6.0010  -11.7210    0.7840 C   0  0  0  0  0  0  0  0  0  0  0  0
    5.8160  -12.2140   -0.5240 C   0  0  0  0  0  0  0  0  0  0  0  0
    6.8950  -12.5950   -1.3490 C   0  0  0  0  0  0  0  0  0  0  0  0
    8.1600  -12.4300   -0.7820 C   0  0  0  0  0  0  0  0  0  0  0  0
    9.3610  -12.6670   -1.4060 O   0  0  0  0  0  0  0  0  0  0  0  0
    6.6060  -13.0820   -2.6550 N   0  0  0  0  0  0  0  0  0  0  0  0
    7.5380  -13.6340   -3.5240 C   0  0  0  0  0  0  0  0  0  0  0  0
    7.3120  -14.0390   -4.7820 C   0  0  0  0  0  0  0  0  0  0  0  0
    8.4250  -14.7260   -5.5350 C   0  0  0  0  0  0  0  0  0  0  0  0
    8.1860  -15.9230   -5.8630 O   0  0  0  0  0  0  0  0  0  0  0  0
    9.4900  -14.0540   -5.6530 O   0  0  0  0  0  0  0  0  0  0  0  0
    5.9710  -13.8730   -5.3500 C   0  0  0  0  0  0  0  0  0  0  0  0
    5.6760  -14.0610   -6.5250 O   0  0  0  0  0  0  0  0  0  0  0  0
    4.9160  -13.4330   -4.4120 C   0  0  0  0  0  0  0  0  0  0  0  0
    3.5910  -13.4180   -4.8440 C   0  0  0  0  0  0  0  0  0  0  0  0
    2.5960  -13.0510   -3.9530 C   0  0  0  0  0  0  0  0  0  0  0  0
    1.3190  -13.1750   -4.3610 F   0  0  0  0  0  0  0  0  0  0  0  0
    2.8630  -12.6690   -2.6210 C   0  0  0  0  0  0  0  0  0  0  0  0
    1.8340  -12.3640   -1.7490 N   0  0  0  0  0  0  0  0  0  0  0  0
    1.5900  -10.9970   -1.2810 C   0  0  0  0  0  0  0  0  0  0  0  0
    0.9260  -11.2040    0.0940 C   0  0  0  0  0  0  0  0  0  0  0  0
    1.1610  -12.6810    0.4240 C   0  0  2  0  0  0  0  0  0  0  0  0
    2.5610  -12.8500    0.9370 N   0  0  0  0  0  0  0  0  0  0  0  0
    1.0760  -13.3310   -0.9640 C   0  0  0  0  0  0  0  0  0  0  0  0
    4.2220  -12.6780   -2.2240 C   0  0  0  0  0  0  0  0  0  0  0  0
    5.2520  -13.0600   -3.1030 C   0  0  0  0  0  0  0  0  0  0  0  0
    4.4970  -12.2900   -0.9260 O   0  0  0  0  0  0  0  0  0  0  0  0
   12.3470  -13.0840   -1.9900 C   0  0  0  0  0  0  0  0  0  0  0  0
   11.6640  -11.8600   -2.3110 O   0  0  0  0  0  0  0  0  0  0  0  0
   12.3274  -11.5931    0.9988 H   0  0  0  0  0  0  0  0  0  0  0  0
   13.5996  -11.5926   -0.2694 H   0  0  0  0  0  0  0  0  0  0  0  0
   12.3309  -10.3210   -0.2694 H   0  0  0  0  0  0  0  0  0  0  0  0
   10.5385  -13.6491    0.0965 H   0  0  0  0  0  0  0  0  0  0  0  0
   10.0681  -12.1912    1.7804 H   0  0  0  0  0  0  0  0  0  0  0  0
   10.1763  -10.7602    0.8231 H   0  0  0  0  0  0  0  0  0  0  0  0
    7.4378  -11.1849    2.3269 H   0  0  0  0  0  0  0  0  0  0  0  0
    5.1263  -11.4503    1.3937 H   0  0  0  0  0  0  0  0  0  0  0  0
    8.5631  -13.7505   -3.1425 H   0  0  0  0  0  0  0  0  0  0  0  0
    3.3388  -13.6939   -5.8786 H   0  0  0  0  0  0  0  0  0  0  0  0
    2.5336  -10.4402   -1.1827 H   0  0  0  0  0  0  0  0  0  0  0  0
    0.9692  -10.4100   -1.9739 H   0  0  0  0  0  0  0  0  0  0  0  0
    1.3944  -10.5585    0.8516 H   0  0  0  0  0  0  0  0  0  0  0  0
   -0.1434  -10.9465    0.0815 H   0  0  0  0  0  0  0  0  0  0  0  0
    0.4658  -13.0922    1.1707 H   0  0  0  0  0  0  0  0  0  0  0  0
    2.6920  -12.5520    1.9090 H   0  0  0  0  0  0  0  0  0  0  0  0
    2.8890  -13.8200    0.8360 H   0  0  0  0  0  0  0  0  0  0  0  0
    3.1960  -12.2990    0.3340 H   0  0  0  0  0  0  0  0  0  0  0  0
    1.5465  -14.3252   -0.9777 H   0  0  0  0  0  0  0  0  0  0  0  0
    0.0535  -13.5174   -1.3242 H   0  0  0  0  0  0  0  0  0  0  0  0
   13.4443  -13.1379   -2.0443 H   0  0  0  0  0  0  0  0  0  0  0  0
   12.2861  -14.1310   -2.3217 H   0  0  0  0  0  0  0  0  0  0  0  0
  2  1  1  1
  2  3  1  0
  3  4  1  0
  4  5  1  0
  5  6  2  0
  6  7  1  0
  7  8  2  0
  8  9  1  0
  9 10  2  0
 10 11  1  0
  9 12  1  0
 12 13  1  0
 13 14  2  0
 14 15  1  0
 15 16  2  0
 15 17  1  0
 14 18  1  0
 18 19  2  0
 18 20  1  0
 20 21  2  0
 21 22  1  0
 22 23  1  0
 22 24  2  0
 24 25  1  0
 25 26  1  0
 26 27  1  0
 27 28  1  0
 28 29  1  0
 28 30  1  0
 24 31  1  0
 31 32  2  0
 31 33  1  0
  2 34  1  0
 34 35  1  0
 35  2  1  0
 11  3  1  0
 32 12  1  0
 10  5  1  0
 32 20  1  0
 33  8  1  0
 30 25  1  0
  1 36  1  0
  1 37  1  0
  1 38  1  0
  3 39  1  1
  4 40  1  0
  4 41  1  0
  6 42  1  0
  7 43  1  0
 13 44  1  0
 21 45  1  0
 26 46  1  0
 26 47  1  0
 27 48  1  0
 27 49  1  0
 28 50  1  1
 29 51  1  0
 29 52  1  0
 29 53  1  0
 30 54  1  0
 30 55  1  0
 34 56  1  0
 34 57  1  0
M  CHG  2  17  -1  29   1
M  END
>  <meeko>  (1) 
{"is_sidechain": [false], "free_energy": -8.487, "intermolecular_energy": -10.224, "internal_energy": -0.808}

$$$$
LIB_CKDNHQVHGHKQIG__M_PUB_ALL__e8__s20260927
     RDKit          3D

 57 63  0  0  0  0  0  0  0  0999 V2000
    4.8330  -13.2380   -6.6810 C   0  0  0  0  0  0  0  0  0  0  0  0
    5.1280  -13.7000   -5.2860 C   0  0  2  0  0  0  0  0  0  0  0  0
    4.6980  -12.7800   -4.1710 C   0  0  1  0  0  0  0  0  0  0  0  0
    4.0160  -11.4740   -4.5900 C   0  0  0  0  0  0  0  0  0  0  0  0
    3.0860  -11.3190   -3.4420 C   0  0  0  0  0  0  0  0  0  0  0  0
    2.3350  -10.2150   -3.0900 C   0  0  0  0  0  0  0  0  0  0  0  0
    1.4600  -10.3450   -2.0160 C   0  0  0  0  0  0  0  0  0  0  0  0
    1.3490  -11.5690   -1.3250 C   0  0  0  0  0  0  0  0  0  0  0  0
    2.1170  -12.7020   -1.6670 C   0  0  0  0  0  0  0  0  0  0  0  0
    2.9800  -12.5280   -2.7500 C   0  0  0  0  0  0  0  0  0  0  0  0
    3.7790  -13.4960   -3.3100 O   0  0  0  0  0  0  0  0  0  0  0  0
    1.9350  -13.8930   -0.9090 N   0  0  0  0  0  0  0  0  0  0  0  0
    2.7160  -15.0360   -1.0200 C   0  0  0  0  0  0  0  0  0  0  0  0
    2.5290  -16.1950   -0.3710 C   0  0  0  0  0  0  0  0  0  0  0  0
    3.5540  -17.2910   -0.5330 C   0  0  0  0  0  0  0  0  0  0  0  0
    4.6440  -17.0940    0.0780 O   0  0  0  0  0  0  0  0  0  0  0  0
    3.2340  -18.2140   -1.3350 O   0  0  0  0  0  0  0  0  0  0  0  0
    1.3810  -16.3250    0.5310 C   0  0  0  0  0  0  0  0  0  0  0  0
    1.0170  -17.3680    1.0600 O   0  0  0  0  0  0  0  0  0  0  0  0
    0.6160  -15.0870    0.7950 C   0  0  0  0  0  0  0  0  0  0  0  0
   -0.3780  -15.1030    1.7710 C   0  0  0  0  0  0  0  0  0  0  0  0
   -1.0650  -13.9320    2.0530 C   0  0  0  0  0  0  0  0  0  0  0  0
   -1.9230  -13.9500    3.0890 F   0  0  0  0  0  0  0  0  0  0  0  0
   -0.8150  -12.7180    1.3800 C   0  0  0  0  0  0  0  0  0  0  0  0
   -1.4850  -11.5600    1.7310 N   0  0  0  0  0  0  0  0  0  0  0  0
   -2.4000  -10.8800    0.8110 C   0  0  0  0  0  0  0  0  0  0  0  0
   -2.3340   -9.4090    1.2660 C   0  0  0  0  0  0  0  0  0  0  0  0
   -1.1220   -9.3410    2.1980 C   0  0  2  0  0  0  0  0  0  0  0  0
    0.1280   -9.2690    1.3700 N   0  0  0  0  0  0  0  0  0  0  0  0
   -1.1690  -10.7160    2.8780 C   0  0  0  0  0  0  0  0  0  0  0  0
    0.1890  -12.7450    0.3820 C   0  0  0  0  0  0  0  0  0  0  0  0
    0.9120  -13.9150    0.0840 C   0  0  0  0  0  0  0  0  0  0  0  0
    0.4300  -11.5640   -0.2950 O   0  0  0  0  0  0  0  0  0  0  0  0
    6.2710  -14.6700   -5.0820 C   0  0  0  0  0  0  0  0  0  0  0  0
    4.8980  -15.1000   -5.0690 O   0  0  0  0  0  0  0  0  0  0  0  0
    4.2414  -12.3114   -6.6430 H   0  0  0  0  0  0  0  0  0  0  0  0
    5.7776  -13.0484   -7.2119 H   0  0  0  0  0  0  0  0  0  0  0  0
    4.2636  -14.0151   -7.2119 H   0  0  0  0  0  0  0  0  0  0  0  0
    5.6351  -12.4832   -3.6774 H   0  0  0  0  0  0  0  0  0  0  0  0
    4.7295  -10.6396   -4.6584 H   0  0  0  0  0  0  0  0  0  0  0  0
    3.5438  -11.4844   -5.5834 H   0  0  0  0  0  0  0  0  0  0  0  0
    2.4253   -9.2662   -3.6393 H   0  0  0  0  0  0  0  0  0  0  0  0
    0.8494   -9.4852   -1.7032 H   0  0  0  0  0  0  0  0  0  0  0  0
    3.5727  -14.9860   -1.7082 H   0  0  0  0  0  0  0  0  0  0  0  0
   -0.6146  -16.0319    2.3106 H   0  0  0  0  0  0  0  0  0  0  0  0
   -2.0619  -10.9857   -0.2304 H   0  0  0  0  0  0  0  0  0  0  0  0
   -3.4195  -11.2923    0.8356 H   0  0  0  0  0  0  0  0  0  0  0  0
   -2.1962   -8.7422    0.4021 H   0  0  0  0  0  0  0  0  0  0  0  0
   -3.2598   -9.0873    1.7654 H   0  0  0  0  0  0  0  0  0  0  0  0
   -1.1318   -8.4837    2.8872 H   0  0  0  0  0  0  0  0  0  0  0  0
    0.3080   -8.3480    0.9600 H   0  0  0  0  0  0  0  0  0  0  0  0
    0.9560   -9.5670    1.9040 H   0  0  0  0  0  0  0  0  0  0  0  0
    0.0500   -9.9620    0.6060 H   0  0  0  0  0  0  0  0  0  0  0  0
   -0.2002  -10.9826    3.3255 H   0  0  0  0  0  0  0  0  0  0  0  0
   -1.8771  -10.7924    3.7163 H   0  0  0  0  0  0  0  0  0  0  0  0
    6.9286  -14.9377   -5.9222 H   0  0  0  0  0  0  0  0  0  0  0  0
    7.1279  -14.7463   -4.3965 H   0  0  0  0  0  0  0  0  0  0  0  0
  2  1  1  6
  2  3  1  0
  3  4  1  0
  4  5  1  0
  5  6  2  0
  6  7  1  0
  7  8  2  0
  8  9  1  0
  9 10  2  0
 10 11  1  0
  9 12  1  0
 12 13  1  0
 13 14  2  0
 14 15  1  0
 15 16  2  0
 15 17  1  0
 14 18  1  0
 18 19  2  0
 18 20  1  0
 20 21  2  0
 21 22  1  0
 22 23  1  0
 22 24  2  0
 24 25  1  0
 25 26  1  0
 26 27  1  0
 27 28  1  0
 28 29  1  0
 28 30  1  0
 24 31  1  0
 31 32  2  0
 31 33  1  0
  2 34  1  0
 34 35  1  0
 35  2  1  0
 11  3  1  0
 32 12  1  0
 10  5  1  0
 32 20  1  0
 33  8  1  0
 30 25  1  0
  1 36  1  0
  1 37  1  0
  1 38  1  0
  3 39  1  1
  4 40  1  0
  4 41  1  0
  6 42  1  0
  7 43  1  0
 13 44  1  0
 21 45  1  0
 26 46  1  0
 26 47  1  0
 27 48  1  0
 27 49  1  0
 28 50  1  1
 29 51  1  0
 29 52  1  0
 29 53  1  0
 30 54  1  0
 30 55  1  0
 34 56  1  0
 34 57  1  0
M  CHG  2  17  -1  29   1
M  END
>  <meeko>  (2) 
{"is_sidechain": [false], "free_energy": -8.394, "intermolecular_energy": -9.865, "internal_energy": -1.055}

$$$$
LIB_CKDNHQVHGHKQIG__M_PUB_ALL__e8__s20260927
     RDKit          3D

 57 63  0  0  0  0  0  0  0  0999 V2000
   -6.7510  -14.7070    7.3300 C   0  0  0  0  0  0  0  0  0  0  0  0
   -6.6570  -15.8990    6.4270 C   0  0  2  0  0  0  0  0  0  0  0  0
   -6.1890  -15.6380    5.0180 C   0  0  1  0  0  0  0  0  0  0  0  0
   -6.5290  -14.2650    4.4300 C   0  0  0  0  0  0  0  0  0  0  0  0
   -5.3330  -14.0780    3.5690 C   0  0  0  0  0  0  0  0  0  0  0  0
   -5.1240  -13.1310    2.5860 C   0  0  0  0  0  0  0  0  0  0  0  0
   -3.8750  -13.0990    1.9750 C   0  0  0  0  0  0  0  0  0  0  0  0
   -2.8640  -14.0040    2.3610 C   0  0  0  0  0  0  0  0  0  0  0  0
   -3.0660  -14.9830    3.3570 C   0  0  0  0  0  0  0  0  0  0  0  0
   -4.3320  -14.9780    3.9430 C   0  0  0  0  0  0  0  0  0  0  0  0
   -4.7490  -15.7870    4.9740 O   0  0  0  0  0  0  0  0  0  0  0  0
   -1.9850  -15.8510    3.6770 N   0  0  0  0  0  0  0  0  0  0  0  0
   -2.0700  -16.9540    4.5170 C   0  0  0  0  0  0  0  0  0  0  0  0
   -1.0580  -17.7500    4.8910 C   0  0  0  0  0  0  0  0  0  0  0  0
   -1.3650  -18.9750    5.7170 C   0  0  0  0  0  0  0  0  0  0  0  0
   -1.4710  -20.0490    5.0580 O   0  0  0  0  0  0  0  0  0  0  0  0
   -1.5770  -18.7580    6.9450 O   0  0  0  0  0  0  0  0  0  0  0  0
    0.2960  -17.4460    4.4170 C   0  0  0  0  0  0  0  0  0  0  0  0
    1.3170  -18.0010    4.8050 O   0  0  0  0  0  0  0  0  0  0  0  0
    0.4060  -16.3770    3.4020 C   0  0  0  0  0  0  0  0  0  0  0  0
    1.6360  -16.1540    2.7860 C   0  0  0  0  0  0  0  0  0  0  0  0
    1.7310  -15.1830    1.8020 C   0  0  0  0  0  0  0  0  0  0  0  0
    2.8970  -15.0860    1.1370 F   0  0  0  0  0  0  0  0  0  0  0  0
    0.6360  -14.3900    1.4020 C   0  0  0  0  0  0  0  0  0  0  0  0
    0.7610  -13.4710    0.3750 N   0  0  0  0  0  0  0  0  0  0  0  0
    1.1380  -13.8690   -0.9830 C   0  0  0  0  0  0  0  0  0  0  0  0
    1.8270  -12.6100   -1.5450 C   0  0  0  0  0  0  0  0  0  0  0  0
    2.0720  -11.7200   -0.3230 C   0  0  2  0  0  0  0  0  0  0  0  0
    3.2900  -12.2120    0.4030 N   0  0  0  0  0  0  0  0  0  0  0  0
    0.8410  -12.0240    0.5410 C   0  0  0  0  0  0  0  0  0  0  0  0
   -0.5930  -14.6320    2.0620 C   0  0  0  0  0  0  0  0  0  0  0  0
   -0.7220  -15.6200    3.0550 C   0  0  0  0  0  0  0  0  0  0  0  0
   -1.6690  -13.8480    1.6890 O   0  0  0  0  0  0  0  0  0  0  0  0
   -7.5250  -17.0990    6.7370 C   0  0  0  0  0  0  0  0  0  0  0  0
   -6.1240  -17.0740    7.0590 O   0  0  0  0  0  0  0  0  0  0  0  0
   -6.7249  -15.0384    8.3786 H   0  0  0  0  0  0  0  0  0  0  0  0
   -5.9032  -14.0332    7.1372 H   0  0  0  0  0  0  0  0  0  0  0  0
   -7.6939  -14.1744    7.1372 H   0  0  0  0  0  0  0  0  0  0  0  0
   -6.7340  -16.3700    4.4038 H   0  0  0  0  0  0  0  0  0  0  0  0
   -7.4597  -14.2863    3.8441 H   0  0  0  0  0  0  0  0  0  0  0  0
   -6.7117  -13.4676    5.1654 H   0  0  0  0  0  0  0  0  0  0  0  0
   -5.9176  -12.4265    2.2963 H   0  0  0  0  0  0  0  0  0  0  0  0
   -3.6737  -12.3616    1.1839 H   0  0  0  0  0  0  0  0  0  0  0  0
   -3.0660  -17.1986    4.9147 H   0  0  0  0  0  0  0  0  0  0  0  0
    2.5196  -16.7409    3.0770 H   0  0  0  0  0  0  0  0  0  0  0  0
    1.8316  -14.7226   -0.9649 H   0  0  0  0  0  0  0  0  0  0  0  0
    0.2801  -14.1960   -1.5888 H   0  0  0  0  0  0  0  0  0  0  0  0
    2.7787  -12.8729   -2.0300 H   0  0  0  0  0  0  0  0  0  0  0  0
    1.2152  -12.1076   -2.3087 H   0  0  0  0  0  0  0  0  0  0  0  0
    2.2169  -10.6561   -0.5622 H   0  0  0  0  0  0  0  0  0  0  0  0
    3.6340  -13.1210    0.0800 H   0  0  0  0  0  0  0  0  0  0  0  0
    4.0580  -11.5280    0.3640 H   0  0  0  0  0  0  0  0  0  0  0  0
    3.0600  -12.2830    1.4090 H   0  0  0  0  0  0  0  0  0  0  0  0
    1.0014  -11.7426    1.5922 H   0  0  0  0  0  0  0  0  0  0  0  0
   -0.0693  -11.4757    0.2569 H   0  0  0  0  0  0  0  0  0  0  0  0
   -8.2791  -17.0468    7.5362 H   0  0  0  0  0  0  0  0  0  0  0  0
   -8.1900  -17.7604    6.1622 H   0  0  0  0  0  0  0  0  0  0  0  0
  2  1  1  1
  2  3  1  0
  3  4  1  0
  4  5  1  0
  5  6  2  0
  6  7  1  0
  7  8  2  0
  8  9  1  0
  9 10  2  0
 10 11  1  0
  9 12  1  0
 12 13  1  0
 13 14  2  0
 14 15  1  0
 15 16  2  0
 15 17  1  0
 14 18  1  0
 18 19  2  0
 18 20  1  0
 20 21  2  0
 21 22  1  0
 22 23  1  0
 22 24  2  0
 24 25  1  0
 25 26  1  0
 26 27  1  0
 27 28  1  0
 28 29  1  0
 28 30  1  0
 24 31  1  0
 31 32  2  0
 31 33  1  0
  2 34  1  0
 34 35  1  0
 35  2  1  0
 11  3  1  0
 32 12  1  0
 10  5  1  0
 32 20  1  0
 33  8  1  0
 30 25  1  0
  1 36  1  0
  1 37  1  0
  1 38  1  0
  3 39  1  6
  4 40  1  0
  4 41  1  0
  6 42  1  0
  7 43  1  0
 13 44  1  0
 21 45  1  0
 26 46  1  0
 26 47  1  0
 27 48  1  0
 27 49  1  0
 28 50  1  6
 29 51  1  0
 29 52  1  0
 29 53  1  0
 30 54  1  0
 30 55  1  0
 34 56  1  0
 34 57  1  0
M  CHG  2  17  -1  29   1
M  END
>  <meeko>  (3) 
{"is_sidechain": [false], "free_energy": -8.218, "intermolecular_energy": -9.903, "internal_energy": -0.804}

$$$$
LIB_CKDNHQVHGHKQIG__M_PUB_ALL__e8__s20260927
     RDKit          3D

 57 63  0  0  0  0  0  0  0  0999 V2000
   12.5680  -16.7350   -4.9090 C   0  0  0  0  0  0  0  0  0  0  0  0
   12.7960  -15.2930   -5.2500 C   0  0  2  0  0  0  0  0  0  0  0  0
   11.5670  -14.4720   -5.5450 C   0  0  1  0  0  0  0  0  0  0  0  0
   10.5830  -15.0590   -6.5620 C   0  0  0  0  0  0  0  0  0  0  0  0
    9.3170  -14.5300   -5.9920 C   0  0  0  0  0  0  0  0  0  0  0  0
    8.0610  -14.5090   -6.5670 C   0  0  0  0  0  0  0  0  0  0  0  0
    7.0050  -14.0410   -5.7920 C   0  0  0  0  0  0  0  0  0  0  0  0
    7.2220  -13.6120   -4.4660 C   0  0  0  0  0  0  0  0  0  0  0  0
    8.5010  -13.6190   -3.8700 C   0  0  0  0  0  0  0  0  0  0  0  0
    9.5300  -14.0970   -4.6820 C   0  0  0  0  0  0  0  0  0  0  0  0
   10.8430  -14.2600   -4.3090 O   0  0  0  0  0  0  0  0  0  0  0  0
    8.6190  -13.1660   -2.5260 N   0  0  0  0  0  0  0  0  0  0  0  0
    9.8180  -12.9690   -1.8540 C   0  0  0  0  0  0  0  0  0  0  0  0
    9.9620  -12.6100   -0.5700 C   0  0  0  0  0  0  0  0  0  0  0  0
   11.3490  -12.3270   -0.0460 C   0  0  0  0  0  0  0  0  0  0  0  0
   11.9930  -11.4500   -0.6890 O   0  0  0  0  0  0  0  0  0  0  0  0
   11.7290  -13.0720    0.9030 O   0  0  0  0  0  0  0  0  0  0  0  0
    8.7630  -12.4260    0.2540 C   0  0  0  0  0  0  0  0  0  0  0  0
    8.7640  -12.2480    1.4660 O   0  0  0  0  0  0  0  0  0  0  0  0
    7.4690  -12.4760   -0.4590 C   0  0  0  0  0  0  0  0  0  0  0  0
    6.3050  -12.1410    0.2290 C   0  0  0  0  0  0  0  0  0  0  0  0
    5.0970  -12.1420   -0.4490 C   0  0  0  0  0  0  0  0  0  0  0  0
    4.0140  -11.6880    0.2100 F   0  0  0  0  0  0  0  0  0  0  0  0
    4.9850  -12.4860   -1.8120 C   0  0  0  0  0  0  0  0  0  0  0  0
    3.7660  -12.4190   -2.4650 N   0  0  0  0  0  0  0  0  0  0  0  0
    3.0880  -13.6150   -2.9710 C   0  0  0  0  0  0  0  0  0  0  0  0
    2.2560  -13.0790   -4.1520 C   0  0  0  0  0  0  0  0  0  0  0  0
    2.8050  -11.6740   -4.4120 C   0  0  2  0  0  0  0  0  0  0  0  0
    4.0780  -11.7840   -5.2000 N   0  0  0  0  0  0  0  0  0  0  0  0
    3.1560  -11.2050   -2.9940 C   0  0  0  0  0  0  0  0  0  0  0  0
    6.1860  -12.8380   -2.4750 C   0  0  0  0  0  0  0  0  0  0  0  0
    7.4280  -12.8320   -1.8150 C   0  0  0  0  0  0  0  0  0  0  0  0
    6.0850  -13.1920   -3.8070 O   0  0  0  0  0  0  0  0  0  0  0  0
   14.1390  -14.9010   -5.8260 C   0  0  0  0  0  0  0  0  0  0  0  0
   13.8020  -14.6520   -4.4500 O   0  0  0  0  0  0  0  0  0  0  0  0
   12.5491  -16.8547   -3.8157 H   0  0  0  0  0  0  0  0  0  0  0  0
   11.6067  -17.0639   -5.3306 H   0  0  0  0  0  0  0  0  0  0  0  0
   13.3809  -17.3444   -5.3306 H   0  0  0  0  0  0  0  0  0  0  0  0
   11.9533  -13.5483   -6.0006 H   0  0  0  0  0  0  0  0  0  0  0  0
   10.7668  -14.6820   -7.5789 H   0  0  0  0  0  0  0  0  0  0  0  0
   10.6261  -16.1511   -6.6862 H   0  0  0  0  0  0  0  0  0  0  0  0
    7.9018  -14.8501   -7.6006 H   0  0  0  0  0  0  0  0  0  0  0  0
    5.9912  -14.0051   -6.2172 H   0  0  0  0  0  0  0  0  0  0  0  0
   10.7411  -13.1226   -2.4321 H   0  0  0  0  0  0  0  0  0  0  0  0
    6.3446  -11.8791    1.2966 H   0  0  0  0  0  0  0  0  0  0  0  0
    3.8160  -14.3663   -3.3109 H   0  0  0  0  0  0  0  0  0  0  0  0
    2.4766  -14.1182   -2.2075 H   0  0  0  0  0  0  0  0  0  0  0  0
    2.3869  -13.7163   -5.0389 H   0  0  0  0  0  0  0  0  0  0  0  0
    1.1787  -13.0691   -3.9300 H   0  0  0  0  0  0  0  0  0  0  0  0
    2.1147  -11.0151   -4.9591 H   0  0  0  0  0  0  0  0  0  0  0  0
    4.2180  -11.0320   -5.8810 H   0  0  0  0  0  0  0  0  0  0  0  0
    4.9020  -11.8400   -4.5860 H   0  0  0  0  0  0  0  0  0  0  0  0
    4.0690  -12.6890   -5.7020 H   0  0  0  0  0  0  0  0  0  0  0  0
    3.8656  -10.3646   -3.0067 H   0  0  0  0  0  0  0  0  0  0  0  0
    2.3054  -10.8235   -2.4101 H   0  0  0  0  0  0  0  0  0  0  0  0
   14.8783  -15.6731   -6.0854 H   0  0  0  0  0  0  0  0  0  0  0  0
   14.4857  -14.2937   -6.6751 H   0  0  0  0  0  0  0  0  0  0  0  0
  2  1  1  1
  2  3  1  0
  3  4  1  0
  4  5  1  0
  5  6  2  0
  6  7  1  0
  7  8  2  0
  8  9  1  0
  9 10  2  0
 10 11  1  0
  9 12  1  0
 12 13  1  0
 13 14  2  0
 14 15  1  0
 15 16  2  0
 15 17  1  0
 14 18  1  0
 18 19  2  0
 18 20  1  0
 20 21  2  0
 21 22  1  0
 22 23  1  0
 22 24  2  0
 24 25  1  0
 25 26  1  0
 26 27  1  0
 27 28  1  0
 28 29  1  0
 28 30  1  0
 24 31  1  0
 31 32  2  0
 31 33  1  0
  2 34  1  0
 34 35  1  0
 35  2  1  0
 11  3  1  0
 32 12  1  0
 10  5  1  0
 32 20  1  0
 33  8  1  0
 30 25  1  0
  1 36  1  0
  1 37  1  0
  1 38  1  0
  3 39  1  6
  4 40  1  0
  4 41  1  0
  6 42  1  0
  7 43  1  0
 13 44  1  0
 21 45  1  0
 26 46  1  0
 26 47  1  0
 27 48  1  0
 27 49  1  0
 28 50  1  6
 29 51  1  0
 29 52  1  0
 29 53  1  0
 30 54  1  0
 30 55  1  0
 34 56  1  0
 34 57  1  0
M  CHG  2  17  -1  29   1
M  END
>  <meeko>  (4) 
{"is_sidechain": [false], "free_energy": -8.177, "intermolecular_energy": -9.586, "internal_energy": -1.071}

$$$$
LIB_CKDNHQVHGHKQIG__M_PUB_ALL__e8__s20260927
     RDKit          3D

 57 63  0  0  0  0  0  0  0  0999 V2000
   -0.6680  -16.4940    3.5290 C   0  0  0  0  0  0  0  0  0  0  0  0
    0.2600  -15.4330    4.0370 C   0  0  2  0  0  0  0  0  0  0  0  0
    1.5590  -15.2650    3.2910 C   0  0  1  0  0  0  0  0  0  0  0  0
    2.2050  -16.5440    2.7490 C   0  0  0  0  0  0  0  0  0  0  0  0
    2.8300  -15.9870    1.5220 C   0  0  0  0  0  0  0  0  0  0  0  0
    3.7610  -16.5780    0.6900 C   0  0  0  0  0  0  0  0  0  0  0  0
    4.1300  -15.8870   -0.4590 C   0  0  0  0  0  0  0  0  0  0  0  0
    3.5600  -14.6320   -0.7560 C   0  0  0  0  0  0  0  0  0  0  0  0
    2.6160  -14.0120    0.0890 C   0  0  0  0  0  0  0  0  0  0  0  0
    2.2740  -14.7400    1.2290 C   0  0  0  0  0  0  0  0  0  0  0  0
    1.3350  -14.3790    2.1670 O   0  0  0  0  0  0  0  0  0  0  0  0
    2.0980  -12.7430   -0.2960 N   0  0  0  0  0  0  0  0  0  0  0  0
    1.2850  -11.9410    0.4940 C   0  0  0  0  0  0  0  0  0  0  0  0
    0.7270  -10.7750    0.1360 C   0  0  0  0  0  0  0  0  0  0  0  0
   -0.0320   -9.9850    1.1740 C   0  0  0  0  0  0  0  0  0  0  0  0
    0.3060   -8.7710    1.2720 O   0  0  0  0  0  0  0  0  0  0  0  0
   -0.8370  -10.6570    1.8810 O   0  0  0  0  0  0  0  0  0  0  0  0
    0.9430  -10.2740   -1.2240 C   0  0  0  0  0  0  0  0  0  0  0  0
    0.3710   -9.3080   -1.7170 O   0  0  0  0  0  0  0  0  0  0  0  0
    1.9230  -11.0160   -2.0440 C   0  0  0  0  0  0  0  0  0  0  0  0
    2.3020  -10.4970   -3.2810 C   0  0  0  0  0  0  0  0  0  0  0  0
    3.2550  -11.1670   -4.0310 C   0  0  0  0  0  0  0  0  0  0  0  0
    3.6930  -10.5700   -5.1550 F   0  0  0  0  0  0  0  0  0  0  0  0
    3.8540  -12.3720   -3.6060 C   0  0  0  0  0  0  0  0  0  0  0  0
    4.8420  -12.9780   -4.3610 N   0  0  0  0  0  0  0  0  0  0  0  0
    4.6390  -14.2740   -5.0130 C   0  0  0  0  0  0  0  0  0  0  0  0
    6.0610  -14.8620   -5.0890 C   0  0  0  0  0  0  0  0  0  0  0  0
    6.9000  -13.9770   -4.1630 C   0  0  2  0  0  0  0  0  0  0  0  0
    6.6690  -14.4000   -2.7410 N   0  0  0  0  0  0  0  0  0  0  0  0
    6.2510  -12.6020   -4.3670 C   0  0  0  0  0  0  0  0  0  0  0  0
    3.4320  -12.8790   -2.3540 C   0  0  0  0  0  0  0  0  0  0  0  0
    2.4760  -12.2130   -1.5650 C   0  0  0  0  0  0  0  0  0  0  0  0
    4.0000  -14.0680   -1.9360 O   0  0  0  0  0  0  0  0  0  0  0  0
    0.1530  -15.0290    5.4910 C   0  0  0  0  0  0  0  0  0  0  0  0
   -0.3970  -14.2200    4.4360 O   0  0  0  0  0  0  0  0  0  0  0  0
   -1.1266  -17.0183    4.3803 H   0  0  0  0  0  0  0  0  0  0  0  0
   -1.4554  -16.0300    2.9169 H   0  0  0  0  0  0  0  0  0  0  0  0
   -0.1033  -17.2126    2.9169 H   0  0  0  0  0  0  0  0  0  0  0  0
    2.2609  -14.8700    4.0402 H   0  0  0  0  0  0  0  0  0  0  0  0
    2.9532  -16.9542    3.4432 H   0  0  0  0  0  0  0  0  0  0  0  0
    1.5192  -17.3890    2.5887 H   0  0  0  0  0  0  0  0  0  0  0  0
    4.1951  -17.5603    0.9279 H   0  0  0  0  0  0  0  0  0  0  0  0
    4.8733  -16.3234   -1.1424 H   0  0  0  0  0  0  0  0  0  0  0  0
    1.0782  -12.2971    1.5140 H   0  0  0  0  0  0  0  0  0  0  0  0
    1.8501   -9.5672   -3.6569 H   0  0  0  0  0  0  0  0  0  0  0  0
    3.9786  -14.9173   -4.4130 H   0  0  0  0  0  0  0  0  0  0  0  0
    4.1565  -14.1884   -5.9978 H   0  0  0  0  0  0  0  0  0  0  0  0
    6.0683  -15.9050   -4.7396 H   0  0  0  0  0  0  0  0  0  0  0  0
    6.4510  -14.8741   -6.1175 H   0  0  0  0  0  0  0  0  0  0  0  0
    7.9809  -14.0122   -4.3642 H   0  0  0  0  0  0  0  0  0  0  0  0
    5.6820  -14.4980   -2.4870 H   0  0  0  0  0  0  0  0  0  0  0  0
    7.1620  -15.2750   -2.5200 H   0  0  0  0  0  0  0  0  0  0  0  0
    7.1030  -13.6950   -2.1200 H   0  0  0  0  0  0  0  0  0  0  0  0
    6.4920  -11.9118   -3.5451 H   0  0  0  0  0  0  0  0  0  0  0  0
    6.5814  -12.0651   -5.2684 H   0  0  0  0  0  0  0  0  0  0  0  0
   -0.5122  -15.5795    6.1725 H   0  0  0  0  0  0  0  0  0  0  0  0
    0.8592  -14.8708    6.3194 H   0  0  0  0  0  0  0  0  0  0  0  0
  2  1  1  1
  2  3  1  0
  3  4  1  0
  4  5  1  0
  5  6  2  0
  6  7  1  0
  7  8  2  0
  8  9  1  0
  9 10  2  0
 10 11  1  0
  9 12  1  0
 12 13  1  0
 13 14  2  0
 14 15  1  0
 15 16  2  0
 15 17  1  0
 14 18  1  0
 18 19  2  0
 18 20  1  0
 20 21  2  0
 21 22  1  0
 22 23  1  0
 22 24  2  0
 24 25  1  0
 25 26  1  0
 26 27  1  0
 27 28  1  0
 28 29  1  0
 28 30  1  0
 24 31  1  0
 31 32  2  0
 31 33  1  0
  2 34  1  0
 34 35  1  0
 35  2  1  0
 11  3  1  0
 32 12  1  0
 10  5  1  0
 32 20  1  0
 33  8  1  0
 30 25  1  0
  1 36  1  0
  1 37  1  0
  1 38  1  0
  3 39  1  1
  4 40  1  0
  4 41  1  0
  6 42  1  0
  7 43  1  0
 13 44  1  0
 21 45  1  0
 26 46  1  0
 26 47  1  0
 27 48  1  0
 27 49  1  0
 28 50  1  6
 29 51  1  0
 29 52  1  0
 29 53  1  0
 30 54  1  0
 30 55  1  0
 34 56  1  0
 34 57  1  0
M  CHG  2  17  -1  29   1
M  END
>  <meeko>  (5) 
{"is_sidechain": [false], "free_energy": -8.085, "intermolecular_energy": -9.512, "internal_energy": -1.036}

$$$$
LIB_CKDNHQVHGHKQIG__M_PUB_ALL__e8__s20260927
     RDKit          3D

 57 63  0  0  0  0  0  0  0  0999 V2000
   -1.5270  -10.1500    2.8570 C   0  0  0  0  0  0  0  0  0  0  0  0
   -1.8920  -11.3970    2.1100 C   0  0  2  0  0  0  0  0  0  0  0  0
   -1.3060  -11.5460    0.7290 C   0  0  1  0  0  0  0  0  0  0  0  0
   -0.4870  -10.3620    0.2040 C   0  0  0  0  0  0  0  0  0  0  0  0
    0.5020  -11.1090   -0.6150 C   0  0  0  0  0  0  0  0  0  0  0  0
    1.3960  -10.6110   -1.5420 C   0  0  0  0  0  0  0  0  0  0  0  0
    2.2930  -11.5060   -2.1180 C   0  0  0  0  0  0  0  0  0  0  0  0
    2.2810  -12.8680   -1.7540 C   0  0  0  0  0  0  0  0  0  0  0  0
    1.3670  -13.3920   -0.8160 C   0  0  0  0  0  0  0  0  0  0  0  0
    0.4880  -12.4600   -0.2620 C   0  0  0  0  0  0  0  0  0  0  0  0
   -0.4470  -12.7120    0.7140 O   0  0  0  0  0  0  0  0  0  0  0  0
    1.4330  -14.7810   -0.5140 N   0  0  0  0  0  0  0  0  0  0  0  0
    0.5140  -15.4720    0.2650 C   0  0  0  0  0  0  0  0  0  0  0  0
    0.5850  -16.7620    0.6230 C   0  0  0  0  0  0  0  0  0  0  0  0
   -0.5730  -17.3710    1.3770 C   0  0  0  0  0  0  0  0  0  0  0  0
   -1.7090  -17.1660    0.8620 O   0  0  0  0  0  0  0  0  0  0  0  0
   -0.2720  -17.9190    2.4760 O   0  0  0  0  0  0  0  0  0  0  0  0
    1.7450  -17.5530    0.2010 C   0  0  0  0  0  0  0  0  0  0  0  0
    1.9990  -18.6880    0.5860 O   0  0  0  0  0  0  0  0  0  0  0  0
    2.6650  -16.9010   -0.7540 C   0  0  0  0  0  0  0  0  0  0  0  0
    3.6900  -17.6520   -1.3260 C   0  0  0  0  0  0  0  0  0  0  0  0
    4.5260  -17.0550   -2.2560 C   0  0  0  0  0  0  0  0  0  0  0  0
    5.4180  -17.8420   -2.8850 F   0  0  0  0  0  0  0  0  0  0  0  0
    4.3990  -15.7040   -2.6420 C   0  0  0  0  0  0  0  0  0  0  0  0
    5.2200  -15.1630   -3.6160 N   0  0  0  0  0  0  0  0  0  0  0  0
    6.1920  -14.1090   -3.3170 C   0  0  0  0  0  0  0  0  0  0  0  0
    6.3260  -13.3580   -4.6560 C   0  0  0  0  0  0  0  0  0  0  0  0
    5.1550  -13.8600   -5.5050 C   0  0  2  0  0  0  0  0  0  0  0  0
    3.9050  -13.1410   -5.0870 N   0  0  0  0  0  0  0  0  0  0  0  0
    5.0420  -15.3220   -5.0550 C   0  0  0  0  0  0  0  0  0  0  0  0
    3.3590  -14.9670   -2.0270 C   0  0  0  0  0  0  0  0  0  0  0  0
    2.4860  -15.5510   -1.0900 C   0  0  0  0  0  0  0  0  0  0  0  0
    3.2360  -13.6380   -2.3860 O   0  0  0  0  0  0  0  0  0  0  0  0
   -3.1840  -12.0950    2.4750 C   0  0  0  0  0  0  0  0  0  0  0  0
   -1.9050  -12.5840    2.9180 O   0  0  0  0  0  0  0  0  0  0  0  0
   -1.5829  -10.3410    3.9388 H   0  0  0  0  0  0  0  0  0  0  0  0
   -0.5031   -9.8492    2.5902 H   0  0  0  0  0  0  0  0  0  0  0  0
   -2.2271   -9.3446    2.5902 H   0  0  0  0  0  0  0  0  0  0  0  0
   -2.1787  -11.6244    0.0639 H   0  0  0  0  0  0  0  0  0  0  0  0
   -1.0952   -9.6779   -0.4061 H   0  0  0  0  0  0  0  0  0  0  0  0
   -0.0615   -9.7023    0.9745 H   0  0  0  0  0  0  0  0  0  0  0  0
    1.3992   -9.5455   -1.8154 H   0  0  0  0  0  0  0  0  0  0  0  0
    3.0177  -11.1474   -2.8638 H   0  0  0  0  0  0  0  0  0  0  0  0
   -0.3578  -14.9051    0.6235 H   0  0  0  0  0  0  0  0  0  0  0  0
    3.8336  -18.7052   -1.0429 H   0  0  0  0  0  0  0  0  0  0  0  0
    5.8183  -13.4413   -2.5267 H   0  0  0  0  0  0  0  0  0  0  0  0
    7.1506  -14.5009   -2.9461 H   0  0  0  0  0  0  0  0  0  0  0  0
    6.2536  -12.2715   -4.4998 H   0  0  0  0  0  0  0  0  0  0  0  0
    7.2973  -13.5406   -5.1390 H   0  0  0  0  0  0  0  0  0  0  0  0
    5.2909  -13.7193   -6.5875 H   0  0  0  0  0  0  0  0  0  0  0  0
    3.9860  -12.6400   -4.1970 H   0  0  0  0  0  0  0  0  0  0  0  0
    3.5810  -12.4880   -5.8120 H   0  0  0  0  0  0  0  0  0  0  0  0
    3.1430  -13.8370   -5.0070 H   0  0  0  0  0  0  0  0  0  0  0  0
    4.0580  -15.7487   -5.2992 H   0  0  0  0  0  0  0  0  0  0  0  0
    5.7542  -16.0092   -5.5351 H   0  0  0  0  0  0  0  0  0  0  0  0
   -3.8806  -11.6345    3.1911 H   0  0  0  0  0  0  0  0  0  0  0  0
   -4.0389  -12.5113    1.9220 H   0  0  0  0  0  0  0  0  0  0  0  0
  2  1  1  1
  2  3  1  0
  3  4  1  0
  4  5  1  0
  5  6  2  0
  6  7  1  0
  7  8  2  0
  8  9  1  0
  9 10  2  0
 10 11  1  0
  9 12  1  0
 12 13  1  0
 13 14  2  0
 14 15  1  0
 15 16  2  0
 15 17  1  0
 14 18  1  0
 18 19  2  0
 18 20  1  0
 20 21  2  0
 21 22  1  0
 22 23  1  0
 22 24  2  0
 24 25  1  0
 25 26  1  0
 26 27  1  0
 27 28  1  0
 28 29  1  0
 28 30  1  0
 24 31  1  0
 31 32  2  0
 31 33  1  0
  2 34  1  0
 34 35  1  0
 35  2  1  0
 11  3  1  0
 32 12  1  0
 10  5  1  0
 32 20  1  0
 33  8  1  0
 30 25  1  0
  1 36  1  0
  1 37  1  0
  1 38  1  0
  3 39  1  6
  4 40  1  0
  4 41  1  0
  6 42  1  0
  7 43  1  0
 13 44  1  0
 21 45  1  0
 26 46  1  0
 26 47  1  0
 27 48  1  0
 27 49  1  0
 28 50  1  6
 29 51  1  0
 29 52  1  0
 29 53  1  0
 30 54  1  0
 30 55  1  0
 34 56  1  0
 34 57  1  0
M  CHG  2  17  -1  29   1
M  END
>  <meeko>  (6) 
{"is_sidechain": [false], "free_energy": -8.052, "intermolecular_energy": -9.544, "internal_energy": -0.963}

$$$$
LIB_CKDNHQVHGHKQIG__M_PUB_ALL__e8__s20260927
     RDKit          3D

 57 63  0  0  0  0  0  0  0  0999 V2000
    3.1310  -10.6080   -4.2050 C   0  0  0  0  0  0  0  0  0  0  0  0
    3.1890  -11.8400   -3.3540 C   0  0  2  0  0  0  0  0  0  0  0  0
    4.0720  -12.9560   -3.8500 C   0  0  1  0  0  0  0  0  0  0  0  0
    4.1420  -13.1470   -5.3690 C   0  0  0  0  0  0  0  0  0  0  0  0
    5.5470  -13.6180   -5.4800 C   0  0  0  0  0  0  0  0  0  0  0  0
    6.1770  -14.1850   -6.5700 C   0  0  0  0  0  0  0  0  0  0  0  0
    7.5350  -14.4620   -6.4580 C   0  0  0  0  0  0  0  0  0  0  0  0
    8.2330  -14.1640   -5.2690 C   0  0  0  0  0  0  0  0  0  0  0  0
    7.6000  -13.5950   -4.1440 C   0  0  0  0  0  0  0  0  0  0  0  0
    6.2380  -13.3320   -4.3010 C   0  0  0  0  0  0  0  0  0  0  0  0
    5.4210  -12.7250   -3.3770 O   0  0  0  0  0  0  0  0  0  0  0  0
    8.3890  -13.3300   -2.9890 N   0  0  0  0  0  0  0  0  0  0  0  0
    7.8900  -12.9180   -1.7600 C   0  0  0  0  0  0  0  0  0  0  0  0
    8.6110  -12.5960   -0.6760 C   0  0  0  0  0  0  0  0  0  0  0  0
    7.8850  -12.2830    0.6100 C   0  0  0  0  0  0  0  0  0  0  0  0
    7.7740  -11.0520    0.8730 O   0  0  0  0  0  0  0  0  0  0  0  0
    7.5700  -13.2890    1.3100 O   0  0  0  0  0  0  0  0  0  0  0  0
   10.0730  -12.6380   -0.7580 C   0  0  0  0  0  0  0  0  0  0  0  0
   10.8390  -12.2270    0.1060 O   0  0  0  0  0  0  0  0  0  0  0  0
   10.6400  -13.2180   -1.9950 C   0  0  0  0  0  0  0  0  0  0  0  0
   12.0130  -13.4440   -2.0680 C   0  0  0  0  0  0  0  0  0  0  0  0
   12.5400  -14.0300   -3.2080 C   0  0  0  0  0  0  0  0  0  0  0  0
   13.8460  -14.3550   -3.1910 F   0  0  0  0  0  0  0  0  0  0  0  0
   11.7480  -14.3950   -4.3170 C   0  0  0  0  0  0  0  0  0  0  0  0
   12.3080  -15.0280   -5.4120 N   0  0  0  0  0  0  0  0  0  0  0  0
   12.4000  -14.3800   -6.7220 C   0  0  0  0  0  0  0  0  0  0  0  0
   12.3820  -15.5650   -7.7070 C   0  0  0  0  0  0  0  0  0  0  0  0
   11.9440  -16.7670   -6.8660 C   0  0  2  0  0  0  0  0  0  0  0  0
   10.4530  -16.7270   -6.6970 N   0  0  0  0  0  0  0  0  0  0  0  0
   12.5900  -16.4560   -5.5100 C   0  0  0  0  0  0  0  0  0  0  0  0
   10.3610  -14.1330   -4.2140 C   0  0  0  0  0  0  0  0  0  0  0  0
    9.7960  -13.5520   -3.0640 C   0  0  0  0  0  0  0  0  0  0  0  0
    9.5780  -14.4710   -5.3020 O   0  0  0  0  0  0  0  0  0  0  0  0
    2.0150  -12.1360   -2.4460 C   0  0  0  0  0  0  0  0  0  0  0  0
    3.2410  -11.5780   -1.9430 O   0  0  0  0  0  0  0  0  0  0  0  0
    3.0891   -9.7182   -3.5596 H   0  0  0  0  0  0  0  0  0  0  0  0
    4.0278  -10.5585   -4.8400 H   0  0  0  0  0  0  0  0  0  0  0  0
    2.2335  -10.6429   -4.8400 H   0  0  0  0  0  0  0  0  0  0  0  0
    3.6097  -13.8721   -3.4538 H   0  0  0  0  0  0  0  0  0  0  0  0
    3.4247  -13.9020   -5.7232 H   0  0  0  0  0  0  0  0  0  0  0  0
    3.8918  -12.2598   -5.9692 H   0  0  0  0  0  0  0  0  0  0  0  0
    5.6242  -14.4096   -7.4941 H   0  0  0  0  0  0  0  0  0  0  0  0
    8.0699  -14.9177   -7.3043 H   0  0  0  0  0  0  0  0  0  0  0  0
    6.7961  -12.8491   -1.6666 H   0  0  0  0  0  0  0  0  0  0  0  0
   12.6697  -13.1611   -1.2321 H   0  0  0  0  0  0  0  0  0  0  0  0
   11.5421  -13.7130   -6.8926 H   0  0  0  0  0  0  0  0  0  0  0  0
   13.2936  -13.7472   -6.8269 H   0  0  0  0  0  0  0  0  0  0  0  0
   11.6662  -15.3807   -8.5216 H   0  0  0  0  0  0  0  0  0  0  0  0
   13.3615  -15.7253   -8.1812 H   0  0  0  0  0  0  0  0  0  0  0  0
   12.2188  -17.7416   -7.2957 H   0  0  0  0  0  0  0  0  0  0  0  0
    9.9590  -17.5110   -7.1350 H   0  0  0  0  0  0  0  0  0  0  0  0
   10.1840  -16.6710   -5.7060 H   0  0  0  0  0  0  0  0  0  0  0  0
   10.1050  -15.8450   -7.1100 H   0  0  0  0  0  0  0  0  0  0  0  0
   12.1169  -17.0218   -4.6939 H   0  0  0  0  0  0  0  0  0  0  0  0
   13.6544  -16.7227   -5.4337 H   0  0  0  0  0  0  0  0  0  0  0  0
    1.1048  -11.5204   -2.4971 H   0  0  0  0  0  0  0  0  0  0  0  0
    1.3976  -13.0172   -2.2174 H   0  0  0  0  0  0  0  0  0  0  0  0
  2  1  1  6
  2  3  1  0
  3  4  1  0
  4  5  1  0
  5  6  2  0
  6  7  1  0
  7  8  2  0
  8  9  1  0
  9 10  2  0
 10 11  1  0
  9 12  1  0
 12 13  1  0
 13 14  2  0
 14 15  1  0
 15 16  2  0
 15 17  1  0
 14 18  1  0
 18 19  2  0
 18 20  1  0
 20 21  2  0
 21 22  1  0
 22 23  1  0
 22 24  2  0
 24 25  1  0
 25 26  1  0
 26 27  1  0
 27 28  1  0
 28 29  1  0
 28 30  1  0
 24 31  1  0
 31 32  2  0
 31 33  1  0
  2 34  1  0
 34 35  1  0
 35  2  1  0
 11  3  1  0
 32 12  1  0
 10  5  1  0
 32 20  1  0
 33  8  1  0
 30 25  1  0
  1 36  1  0
  1 37  1  0
  1 38  1  0
  3 39  1  1
  4 40  1  0
  4 41  1  0
  6 42  1  0
  7 43  1  0
 13 44  1  0
 21 45  1  0
 26 46  1  0
 26 47  1  0
 27 48  1  0
 27 49  1  0
 28 50  1  6
 29 51  1  0
 29 52  1  0
 29 53  1  0
 30 54  1  0
 30 55  1  0
 34 56  1  0
 34 57  1  0
M  CHG  2  17  -1  29   1
M  END
>  <meeko>  (7) 
{"is_sidechain": [false], "free_energy": -7.979, "intermolecular_energy": -9.244, "internal_energy": -1.176}

$$$$
LIB_CKDNHQVHGHKQIG__M_PUB_ALL__e8__s20260927
     RDKit          3D

 57 63  0  0  0  0  0  0  0  0999 V2000
    5.0590  -15.3260   -4.9650 C   0  0  0  0  0  0  0  0  0  0  0  0
    5.2750  -15.5750   -3.5030 C   0  0  2  0  0  0  0  0  0  0  0  0
    4.8020  -14.4970   -2.5630 C   0  0  1  0  0  0  0  0  0  0  0  0
    4.4820  -13.1360   -3.1910 C   0  0  0  0  0  0  0  0  0  0  0  0
    3.3780  -12.7180   -2.2900 C   0  0  0  0  0  0  0  0  0  0  0  0
    2.7920  -11.4720   -2.1730 C   0  0  0  0  0  0  0  0  0  0  0  0
    1.7020  -11.3500   -1.3170 C   0  0  0  0  0  0  0  0  0  0  0  0
    1.2200  -12.4670   -0.6050 C   0  0  0  0  0  0  0  0  0  0  0  0
    1.8140  -13.7430   -0.7070 C   0  0  0  0  0  0  0  0  0  0  0  0
    2.9020  -13.8210   -1.5770 C   0  0  0  0  0  0  0  0  0  0  0  0
    3.6040  -14.9600   -1.8920 O   0  0  0  0  0  0  0  0  0  0  0  0
    1.2550  -14.8090    0.0520 N   0  0  0  0  0  0  0  0  0  0  0  0
    1.8110  -16.0750    0.1780 C   0  0  0  0  0  0  0  0  0  0  0  0
    1.2760  -17.1190    0.8290 C   0  0  0  0  0  0  0  0  0  0  0  0
    2.0870  -18.3850    0.9580 C   0  0  0  0  0  0  0  0  0  0  0  0
    2.6700  -18.7560   -0.1010 O   0  0  0  0  0  0  0  0  0  0  0  0
    2.0010  -18.9690    2.0770 O   0  0  0  0  0  0  0  0  0  0  0  0
   -0.0390  -16.9650    1.4570 C   0  0  0  0  0  0  0  0  0  0  0  0
   -0.6960  -17.8760    1.9450 O   0  0  0  0  0  0  0  0  0  0  0  0
   -0.5940  -15.5950    1.4780 C   0  0  0  0  0  0  0  0  0  0  0  0
   -1.7560  -15.3470    2.2060 C   0  0  0  0  0  0  0  0  0  0  0  0
   -2.2530  -14.0550    2.2660 C   0  0  0  0  0  0  0  0  0  0  0  0
   -3.2980  -13.8290    3.0830 F   0  0  0  0  0  0  0  0  0  0  0  0
   -1.6430  -12.9700    1.6030 C   0  0  0  0  0  0  0  0  0  0  0  0
   -2.1400  -11.6860    1.7350 N   0  0  0  0  0  0  0  0  0  0  0  0
   -2.7250  -10.9580    0.6060 C   0  0  0  0  0  0  0  0  0  0  0  0
   -2.4750   -9.4810    0.9660 C   0  0  0  0  0  0  0  0  0  0  0  0
   -1.4670   -9.5240    2.1180 C   0  0  2  0  0  0  0  0  0  0  0  0
   -0.0930   -9.7470    1.5560 N   0  0  0  0  0  0  0  0  0  0  0  0
   -1.8940  -10.7960    2.8640 C   0  0  0  0  0  0  0  0  0  0  0  0
   -0.4750  -13.2620    0.8580 C   0  0  0  0  0  0  0  0  0  0  0  0
    0.0600  -14.5620    0.7910 C   0  0  0  0  0  0  0  0  0  0  0  0
    0.1220  -12.2090    0.1910 O   0  0  0  0  0  0  0  0  0  0  0  0
    6.3920  -16.5120   -3.0960 C   0  0  0  0  0  0  0  0  0  0  0  0
    5.0140  -16.9260   -3.0920 O   0  0  0  0  0  0  0  0  0  0  0  0
    4.3432  -14.5009   -5.0946 H   0  0  0  0  0  0  0  0  0  0  0  0
    6.0161  -15.0587   -5.4367 H   0  0  0  0  0  0  0  0  0  0  0  0
    4.6592  -16.2357   -5.4367 H   0  0  0  0  0  0  0  0  0  0  0  0
    5.6539  -14.3233   -1.8892 H   0  0  0  0  0  0  0  0  0  0  0  0
    5.3382  -12.4472   -3.1412 H   0  0  0  0  0  0  0  0  0  0  0  0
    4.2359  -13.1558   -4.2629 H   0  0  0  0  0  0  0  0  0  0  0  0
    3.1736  -10.6077   -2.7364 H   0  0  0  0  0  0  0  0  0  0  0  0
    1.2118  -10.3729   -1.1947 H   0  0  0  0  0  0  0  0  0  0  0  0
    2.7865  -16.2381   -0.3035 H   0  0  0  0  0  0  0  0  0  0  0  0
   -2.2724  -16.1669    2.7267 H   0  0  0  0  0  0  0  0  0  0  0  0
   -2.2235  -11.2239   -0.3362 H   0  0  0  0  0  0  0  0  0  0  0  0
   -3.7895  -11.1883    0.4515 H   0  0  0  0  0  0  0  0  0  0  0  0
   -2.0571   -8.9379    0.1056 H   0  0  0  0  0  0  0  0  0  0  0  0
   -3.4022   -8.9591    1.2450 H   0  0  0  0  0  0  0  0  0  0  0  0
   -1.4467   -8.6125    2.7334 H   0  0  0  0  0  0  0  0  0  0  0  0
    0.5910  -10.0870    2.2390 H   0  0  0  0  0  0  0  0  0  0  0  0
   -0.1110  -10.3870    0.7510 H   0  0  0  0  0  0  0  0  0  0  0  0
    0.2470   -8.8510    1.1670 H   0  0  0  0  0  0  0  0  0  0  0  0
   -1.0924  -11.1753    3.5148 H   0  0  0  0  0  0  0  0  0  0  0  0
   -2.7481  -10.6671    3.5451 H   0  0  0  0  0  0  0  0  0  0  0  0
    7.0880  -16.9068   -3.8508 H   0  0  0  0  0  0  0  0  0  0  0  0
    7.2111  -16.4907   -2.3621 H   0  0  0  0  0  0  0  0  0  0  0  0
  2  1  1  6
  2  3  1  0
  3  4  1  0
  4  5  1  0
  5  6  2  0
  6  7  1  0
  7  8  2  0
  8  9  1  0
  9 10  2  0
 10 11  1  0
  9 12  1  0
 12 13  1  0
 13 14  2  0
 14 15  1  0
 15 16  2  0
 15 17  1  0
 14 18  1  0
 18 19  2  0
 18 20  1  0
 20 21  2  0
 21 22  1  0
 22 23  1  0
 22 24  2  0
 24 25  1  0
 25 26  1  0
 26 27  1  0
 27 28  1  0
 28 29  1  0
 28 30  1  0
 24 31  1  0
 31 32  2  0
 31 33  1  0
  2 34  1  0
 34 35  1  0
 35  2  1  0
 11  3  1  0
 32 12  1  0
 10  5  1  0
 32 20  1  0
 33  8  1  0
 30 25  1  0
  1 36  1  0
  1 37  1  0
  1 38  1  0
  3 39  1  1
  4 40  1  0
  4 41  1  0
  6 42  1  0
  7 43  1  0
 13 44  1  0
 21 45  1  0
 26 46  1  0
 26 47  1  0
 27 48  1  0
 27 49  1  0
 28 50  1  1
 29 51  1  0
 29 52  1  0
 29 53  1  0
 30 54  1  0
 30 55  1  0
 34 56  1  0
 34 57  1  0
M  CHG  2  17  -1  29   1
M  END
>  <meeko>  (8) 
{"is_sidechain": [false], "free_energy": -7.966, "intermolecular_energy": -9.507, "internal_energy": -0.897}

$$$$
LIB_CKDNHQVHGHKQIG__M_PUB_ALL__e8__s20260927
     RDKit          3D

 57 63  0  0  0  0  0  0  0  0999 V2000
    4.5750  -11.9780    0.4820 C   0  0  0  0  0  0  0  0  0  0  0  0
    5.5540  -12.9710    1.0300 C   0  0  2  0  0  0  0  0  0  0  0  0
    6.0670  -14.0090    0.0650 C   0  0  1  0  0  0  0  0  0  0  0  0
    5.1100  -14.4330   -1.0530 C   0  0  0  0  0  0  0  0  0  0  0  0
    6.1060  -14.7020   -2.1230 C   0  0  0  0  0  0  0  0  0  0  0  0
    5.9130  -15.3390   -3.3330 C   0  0  0  0  0  0  0  0  0  0  0  0
    6.9880  -15.3880   -4.2150 C   0  0  0  0  0  0  0  0  0  0  0  0
    8.2220  -14.7970   -3.8740 C   0  0  0  0  0  0  0  0  0  0  0  0
    8.4360  -14.1520   -2.6380 C   0  0  0  0  0  0  0  0  0  0  0  0
    7.3320  -14.1250   -1.7860 C   0  0  0  0  0  0  0  0  0  0  0  0
    7.2720  -13.5040   -0.5610 O   0  0  0  0  0  0  0  0  0  0  0  0
    9.7180  -13.5870   -2.3860 N   0  0  0  0  0  0  0  0  0  0  0  0
   10.1310  -13.0580   -1.1710 C   0  0  0  0  0  0  0  0  0  0  0  0
   11.3040  -12.4580   -0.9210 C   0  0  0  0  0  0  0  0  0  0  0  0
   11.6230  -12.0500    0.4970 C   0  0  0  0  0  0  0  0  0  0  0  0
   11.9440  -10.8360    0.6430 O   0  0  0  0  0  0  0  0  0  0  0  0
   11.6270  -12.9930    1.3410 O   0  0  0  0  0  0  0  0  0  0  0  0
   12.2650  -12.2950   -2.0160 C   0  0  0  0  0  0  0  0  0  0  0  0
   13.2970  -11.6370   -1.9540 O   0  0  0  0  0  0  0  0  0  0  0  0
   11.9300  -12.9780   -3.2830 C   0  0  0  0  0  0  0  0  0  0  0  0
   12.8760  -13.0060   -4.3060 C   0  0  0  0  0  0  0  0  0  0  0  0
   12.5820  -13.6850   -5.4780 C   0  0  0  0  0  0  0  0  0  0  0  0
   13.5660  -13.8040   -6.3900 F   0  0  0  0  0  0  0  0  0  0  0  0
   11.3530  -14.3410   -5.6940 C   0  0  0  0  0  0  0  0  0  0  0  0
   11.1230  -15.0550   -6.8570 N   0  0  0  0  0  0  0  0  0  0  0  0
   10.1330  -14.6280   -7.8490 C   0  0  0  0  0  0  0  0  0  0  0  0
    9.7080  -15.9490   -8.5190 C   0  0  0  0  0  0  0  0  0  0  0  0
   10.2610  -17.0470   -7.6060 C   0  0  2  0  0  0  0  0  0  0  0  0
    9.3460  -17.2090   -6.4270 N   0  0  0  0  0  0  0  0  0  0  0  0
   11.5720  -16.4180   -7.1140 C   0  0  0  0  0  0  0  0  0  0  0  0
   10.4090  -14.2760   -4.6400 C   0  0  0  0  0  0  0  0  0  0  0  0
   10.6850  -13.6060   -3.4350 C   0  0  0  0  0  0  0  0  0  0  0  0
    9.1950  -14.9020   -4.8480 O   0  0  0  0  0  0  0  0  0  0  0  0
    5.5290  -13.2510    2.5170 C   0  0  0  0  0  0  0  0  0  0  0  0
    6.5280  -12.4050    1.9210 O   0  0  0  0  0  0  0  0  0  0  0  0
    4.0691  -11.4649    1.3131 H   0  0  0  0  0  0  0  0  0  0  0  0
    5.1081  -11.2395   -0.1347 H   0  0  0  0  0  0  0  0  0  0  0  0
    3.8290  -12.5006   -0.1347 H   0  0  0  0  0  0  0  0  0  0  0  0
    6.2246  -14.9066    0.6810 H   0  0  0  0  0  0  0  0  0  0  0  0
    4.5378  -15.3338   -0.7864 H   0  0  0  0  0  0  0  0  0  0  0  0
    4.3277  -13.7029   -1.3079 H   0  0  0  0  0  0  0  0  0  0  0  0
    4.9440  -15.7915   -3.5903 H   0  0  0  0  0  0  0  0  0  0  0  0
    6.8743  -15.8919   -5.1862 H   0  0  0  0  0  0  0  0  0  0  0  0
    9.4265  -13.1389   -0.3301 H   0  0  0  0  0  0  0  0  0  0  0  0
   13.8431  -12.4960   -4.1849 H   0  0  0  0  0  0  0  0  0  0  0  0
    9.2754  -14.1386   -7.3642 H   0  0  0  0  0  0  0  0  0  0  0  0
   10.5301  -13.8919   -8.5634 H   0  0  0  0  0  0  0  0  0  0  0  0
    8.6119  -16.0151   -8.5844 H   0  0  0  0  0  0  0  0  0  0  0  0
   10.0886  -16.0338   -9.5476 H   0  0  0  0  0  0  0  0  0  0  0  0
   10.3730  -18.0257   -8.0956 H   0  0  0  0  0  0  0  0  0  0  0  0
    9.3190  -16.3980   -5.8010 H   0  0  0  0  0  0  0  0  0  0  0  0
    8.3870  -17.4400   -6.7190 H   0  0  0  0  0  0  0  0  0  0  0  0
    9.6580  -18.0340   -5.8860 H   0  0  0  0  0  0  0  0  0  0  0  0
   11.9395  -16.9053   -6.1989 H   0  0  0  0  0  0  0  0  0  0  0  0
   12.4157  -16.5017   -7.8148 H   0  0  0  0  0  0  0  0  0  0  0  0
    4.7407  -12.8177    3.1502 H   0  0  0  0  0  0  0  0  0  0  0  0
    5.5333  -14.1506    3.1501 H   0  0  0  0  0  0  0  0  0  0  0  0
  2  1  1  6
  2  3  1  0
  3  4  1  0
  4  5  1  0
  5  6  2  0
  6  7  1  0
  7  8  2  0
  8  9  1  0
  9 10  2  0
 10 11  1  0
  9 12  1  0
 12 13  1  0
 13 14  2  0
 14 15  1  0
 15 16  2  0
 15 17  1  0
 14 18  1  0
 18 19  2  0
 18 20  1  0
 20 21  2  0
 21 22  1  0
 22 23  1  0
 22 24  2  0
 24 25  1  0
 25 26  1  0
 26 27  1  0
 27 28  1  0
 28 29  1  0
 28 30  1  0
 24 31  1  0
 31 32  2  0
 31 33  1  0
  2 34  1  0
 34 35  1  0
 35  2  1  0
 11  3  1  0
 32 12  1  0
 10  5  1  0
 32 20  1  0
 33  8  1  0
 30 25  1  0
  1 36  1  0
  1 37  1  0
  1 38  1  0
  3 39  1  1
  4 40  1  0
  4 41  1  0
  6 42  1  0
  7 43  1  0
 13 44  1  0
 21 45  1  0
 26 46  1  0
 26 47  1  0
 27 48  1  0
 27 49  1  0
 28 50  1  6
 29 51  1  0
 29 52  1  0
 29 53  1  0
 30 54  1  0
 30 55  1  0
 34 56  1  0
 34 57  1  0
M  CHG  2  17  -1  29   1
M  END
>  <meeko>  (9) 
{"is_sidechain": [false], "free_energy": -7.848, "intermolecular_energy": -9.223, "internal_energy": -1.038}

$$$$
