LIB_ORLJIXKKPRVJKG__M_PUB_ALL__e8__s20260927
     RDKit          3D

 55 56  0  0  0  0  0  0  0  0999 V2000
    9.4500  -12.1290   -3.1680 C   0  0  0  0  0  0  0  0  0  0  0  0
    9.6580  -13.6500   -3.0950 C   0  0  0  0  0  0  0  0  0  0  0  0
    8.7030  -14.3560   -4.0660 C   0  0  0  0  0  0  0  0  0  0  0  0
   11.1170  -14.0320   -3.4940 C   0  0  0  0  0  0  0  0  0  0  0  0
   12.0070  -14.3670   -2.3230 C   0  0  0  0  0  0  0  0  0  0  0  0
   12.1530  -15.5200   -1.9420 O   0  0  0  0  0  0  0  0  0  0  0  0
   12.8000  -13.3570   -1.6430 N   0  0  0  0  0  0  0  0  0  0  0  0
   12.3320  -12.9670   -0.2700 C   0  0  0  0  0  0  0  0  0  0  0  0
   12.3720  -11.4480   -0.2550 C   0  0  0  0  0  0  0  0  0  0  0  0
   13.3790  -11.0870   -1.3300 C   0  0  0  0  0  0  0  0  0  0  0  0
   13.0480  -12.0770   -2.4390 C   0  0  1  0  0  0  0  0  0  0  0  0
   14.2130  -12.3340   -3.4030 C   0  0  0  0  0  0  0  0  0  0  0  0
   15.3620  -11.6380   -2.8880 O   0  0  0  0  0  0  0  0  0  0  0  0
    9.3600  -14.1210   -1.6650 N   0  0  0  0  0  0  0  0  0  0  0  0
    7.9790  -13.8580   -1.0140 C   0  0  0  0  0  0  0  0  0  0  0  0
    7.9820  -12.7510    0.0820 C   0  0  0  0  0  0  0  0  0  0  0  0
    8.9430  -12.5980    0.8160 O   0  0  0  0  0  0  0  0  0  0  0  0
    6.8910  -11.7250    0.2470 N   0  0  0  0  0  0  0  0  0  0  0  0
    6.0550  -11.5530   -1.0410 C   0  0  0  0  0  0  0  0  0  0  0  0
    4.8060  -12.3780   -0.7760 C   0  0  1  0  0  0  0  0  0  0  0  0
    5.1280  -13.6980   -0.8140 F   0  0  0  0  0  0  0  0  0  0  0  0
    4.4830  -12.0400    0.6590 C   0  0  0  0  0  0  0  0  0  0  0  0
    5.8420  -12.0800    1.3500 C   0  0  1  0  0  0  0  0  0  0  0  0
    6.1590  -13.3780    1.9830 C   0  0  0  0  0  0  0  0  0  0  0  0
    6.7030  -14.3310    2.3690 N   0  0  0  0  0  0  0  0  0  0  0  0
    9.3937  -11.7173   -2.1495 H   0  0  0  0  0  0  0  0  0  0  0  0
   10.2936  -11.6688   -3.7034 H   0  0  0  0  0  0  0  0  0  0  0  0
    8.5138  -11.9122   -3.7034 H   0  0  0  0  0  0  0  0  0  0  0  0
    7.9469  -14.9150   -3.4952 H   0  0  0  0  0  0  0  0  0  0  0  0
    8.2048  -13.6074   -4.6995 H   0  0  0  0  0  0  0  0  0  0  0  0
    9.2726  -15.0519   -4.6995 H   0  0  0  0  0  0  0  0  0  0  0  0
   11.0756  -14.9078   -4.1583 H   0  0  0  0  0  0  0  0  0  0  0  0
   11.5542  -13.1489   -3.9828 H   0  0  0  0  0  0  0  0  0  0  0  0
   13.7640  -13.7370   -1.5660 H   0  0  0  0  0  0  0  0  0  0  0  0
   11.3080  -13.3281   -0.0939 H   0  0  0  0  0  0  0  0  0  0  0  0
   12.9612  -13.4038    0.5195 H   0  0  0  0  0  0  0  0  0  0  0  0
   11.3825  -11.0301   -0.4923 H   0  0  0  0  0  0  0  0  0  0  0  0
   12.6482  -11.0454    0.7307 H   0  0  0  0  0  0  0  0  0  0  0  0
   13.2429  -10.0497   -1.6697 H   0  0  0  0  0  0  0  0  0  0  0  0
   14.4233  -11.1441   -0.9890 H   0  0  0  0  0  0  0  0  0  0  0  0
   12.2215  -11.7163   -3.0689 H   0  0  0  0  0  0  0  0  0  0  0  0
   14.4218  -13.4125   -3.4607 H   0  0  0  0  0  0  0  0  0  0  0  0
   13.9652  -11.9779   -4.4138 H   0  0  0  0  0  0  0  0  0  0  0  0
   15.2570  -10.6970   -3.1560 H   0  0  0  0  0  0  0  0  0  0  0  0
   10.0810  -13.7010   -1.0430 H   0  0  0  0  0  0  0  0  0  0  0  0
    9.5580  -15.1420   -1.5780 H   0  0  0  0  0  0  0  0  0  0  0  0
    7.2779  -13.5557   -1.8058 H   0  0  0  0  0  0  0  0  0  0  0  0
    7.6857  -14.7928   -0.5138 H   0  0  0  0  0  0  0  0  0  0  0  0
    7.3330  -10.8180    0.4410 H   0  0  0  0  0  0  0  0  0  0  0  0
    5.7989  -10.4956   -1.2036 H   0  0  0  0  0  0  0  0  0  0  0  0
    6.5940  -11.8755   -1.9440 H   0  0  0  0  0  0  0  0  0  0  0  0
    3.9960  -12.1819   -1.4939 H   0  0  0  0  0  0  0  0  0  0  0  0
    4.0327  -11.0393    0.7352 H   0  0  0  0  0  0  0  0  0  0  0  0
    3.7542  -12.7309    1.1078 H   0  0  0  0  0  0  0  0  0  0  0  0
    5.8483  -11.3653    2.1861 H   0  0  0  0  0  0  0  0  0  0  0  0
  1  2  1  0
  2  3  1  0
  2  4  1  0
  4  5  1  0
  5  6  2  0
  5  7  1  0
  7  8  1  0
  8  9  1  0
  9 10  1  0
 10 11  1  0
 11 12  1  0
 12 13  1  0
  2 14  1  0
 14 15  1  0
 15 16  1  0
 16 17  2  0
 16 18  1  0
 18 19  1  0
 19 20  1  0
 20 21  1  0
 20 22  1  0
 22 23  1  0
 23 24  1  0
 24 25  3  0
 11  7  1  0
 23 18  1  0
  1 26  1  0
  1 27  1  0
  1 28  1  0
  3 29  1  0
  3 30  1  0
  3 31  1  0
  4 32  1  0
  4 33  1  0
  7 34  1  0
  8 35  1  0
  8 36  1  0
  9 37  1  0
  9 38  1  0
 10 39  1  0
 10 40  1  0
 11 41  1  6
 12 42  1  0
 12 43  1  0
 13 44  1  0
 14 45  1  0
 14 46  1  0
 15 47  1  0
 15 48  1  0
 18 49  1  0
 19 50  1  0
 19 51  1  0
 20 52  1  6
 22 53  1  0
 22 54  1  0
 23 55  1  1
M  CHG  3   7   1  14   1  18   1
M  END
>  <meeko>  (1) 
{"is_sidechain": [false], "free_energy": -6.219, "intermolecular_energy": -9.31, "internal_energy": -0.821}

$$$$
LIB_ORLJIXKKPRVJKG__M_PUB_ALL__e8__s20260927
     RDKit          3D

 55 56  0  0  0  0  0  0  0  0999 V2000
    8.0960  -11.4410   -3.2180 C   0  0  0  0  0  0  0  0  0  0  0  0
    7.8560  -12.6840   -2.3470 C   0  0  0  0  0  0  0  0  0  0  0  0
    6.6950  -13.5080   -2.9200 C   0  0  0  0  0  0  0  0  0  0  0  0
    9.1220  -13.5960   -2.3180 C   0  0  0  0  0  0  0  0  0  0  0  0
   10.0640  -13.3010   -1.1770 C   0  0  0  0  0  0  0  0  0  0  0  0
   10.1690  -14.0610   -0.2230 O   0  0  0  0  0  0  0  0  0  0  0  0
   10.9550  -12.1540   -1.1890 N   0  0  0  0  0  0  0  0  0  0  0  0
   11.8660  -12.0410   -2.3790 C   0  0  0  0  0  0  0  0  0  0  0  0
   13.2350  -11.7260   -1.8000 C   0  0  0  0  0  0  0  0  0  0  0  0
   12.9390  -11.1040   -0.4490 C   0  0  0  0  0  0  0  0  0  0  0  0
   11.7990  -11.9700    0.0710 C   0  0  1  0  0  0  0  0  0  0  0  0
   10.9310  -11.2760    1.1280 C   0  0  0  0  0  0  0  0  0  0  0  0
   11.3520   -9.9020    1.1990 O   0  0  0  0  0  0  0  0  0  0  0  0
    7.4970  -12.2300   -0.9260 N   0  0  0  0  0  0  0  0  0  0  0  0
    6.0940  -11.6560   -0.6060 C   0  0  0  0  0  0  0  0  0  0  0  0
    5.7640  -11.5670    0.9140 C   0  0  0  0  0  0  0  0  0  0  0  0
    6.5100  -10.9860    1.6840 O   0  0  0  0  0  0  0  0  0  0  0  0
    4.4820  -12.0640    1.5290 N   0  0  0  0  0  0  0  0  0  0  0  0
    3.3250  -12.1060    0.5070 C   0  0  0  0  0  0  0  0  0  0  0  0
    3.2580  -13.5690    0.0950 C   0  0  1  0  0  0  0  0  0  0  0  0
    4.3360  -13.8640   -0.6770 F   0  0  0  0  0  0  0  0  0  0  0  0
    3.4380  -14.2910    1.4080 C   0  0  0  0  0  0  0  0  0  0  0  0
    4.5640  -13.5220    2.0870 C   0  0  1  0  0  0  0  0  0  0  0  0
    5.9090  -14.0980    1.8660 C   0  0  0  0  0  0  0  0  0  0  0  0
    7.0470  -14.2390    1.6740 N   0  0  0  0  0  0  0  0  0  0  0  0
    8.2647  -10.5672   -2.5714 H   0  0  0  0  0  0  0  0  0  0  0  0
    8.9794  -11.6033   -3.8530 H   0  0  0  0  0  0  0  0  0  0  0  0
    7.2157  -11.2627   -3.8530 H   0  0  0  0  0  0  0  0  0  0  0  0
    6.1018  -13.9290   -2.0948 H   0  0  0  0  0  0  0  0  0  0  0  0
    6.0557  -12.8604   -3.5379 H   0  0  0  0  0  0  0  0  0  0  0  0
    7.0953  -14.3252   -3.5379 H   0  0  0  0  0  0  0  0  0  0  0  0
    8.7929  -14.6422   -2.2334 H   0  0  0  0  0  0  0  0  0  0  0  0
    9.6767  -13.4007   -3.2476 H   0  0  0  0  0  0  0  0  0  0  0  0
   10.3530  -11.3080   -1.1550 H   0  0  0  0  0  0  0  0  0  0  0  0
   11.8914  -12.9884   -2.9374 H   0  0  0  0  0  0  0  0  0  0  0  0
   11.5287  -11.2675   -3.0847 H   0  0  0  0  0  0  0  0  0  0  0  0
   13.8292  -12.6444   -1.6839 H   0  0  0  0  0  0  0  0  0  0  0  0
   13.8215  -11.0592   -2.4492 H   0  0  0  0  0  0  0  0  0  0  0  0
   13.8147  -11.1595    0.2144 H   0  0  0  0  0  0  0  0  0  0  0  0
   12.6867  -10.0348   -0.5047 H   0  0  0  0  0  0  0  0  0  0  0  0
   12.1744  -12.8837    0.5550 H   0  0  0  0  0  0  0  0  0  0  0  0
    9.8713  -11.3296    0.8379 H   0  0  0  0  0  0  0  0  0  0  0  0
   11.0444  -11.7670    2.1058 H   0  0  0  0  0  0  0  0  0  0  0  0
   12.3140   -9.9200    1.4110 H   0  0  0  0  0  0  0  0  0  0  0  0
    8.1970  -11.5130   -0.6430 H   0  0  0  0  0  0  0  0  0  0  0  0
    7.6830  -13.0020   -0.2490 H   0  0  0  0  0  0  0  0  0  0  0  0
    6.0319  -10.6433   -1.0310 H   0  0  0  0  0  0  0  0  0  0  0  0
    5.3637  -12.3519   -1.0446 H   0  0  0  0  0  0  0  0  0  0  0  0
    4.2070  -11.4050    2.2670 H   0  0  0  0  0  0  0  0  0  0  0  0
    2.3804  -11.7858    0.9710 H   0  0  0  0  0  0  0  0  0  0  0  0
    3.4862  -11.4306   -0.3462 H   0  0  0  0  0  0  0  0  0  0  0  0
    2.3398  -13.8243   -0.4543 H   0  0  0  0  0  0  0  0  0  0  0  0
    2.5170  -14.2506    2.0081 H   0  0  0  0  0  0  0  0  0  0  0  0
    3.6657  -15.3596    1.2809 H   0  0  0  0  0  0  0  0  0  0  0  0
    4.4296  -13.5662    3.1779 H   0  0  0  0  0  0  0  0  0  0  0  0
  1  2  1  0
  2  3  1  0
  2  4  1  0
  4  5  1  0
  5  6  2  0
  5  7  1  0
  7  8  1  0
  8  9  1  0
  9 10  1  0
 10 11  1  0
 11 12  1  0
 12 13  1  0
  2 14  1  0
 14 15  1  0
 15 16  1  0
 16 17  2  0
 16 18  1  0
 18 19  1  0
 19 20  1  0
 20 21  1  0
 20 22  1  0
 22 23  1  0
 23 24  1  0
 24 25  3  0
 11  7  1  0
 23 18  1  0
  1 26  1  0
  1 27  1  0
  1 28  1  0
  3 29  1  0
  3 30  1  0
  3 31  1  0
  4 32  1  0
  4 33  1  0
  7 34  1  0
  8 35  1  0
  8 36  1  0
  9 37  1  0
  9 38  1  0
 10 39  1  0
 10 40  1  0
 11 41  1  1
 12 42  1  0
 12 43  1  0
 13 44  1  0
 14 45  1  0
 14 46  1  0
 15 47  1  0
 15 48  1  0
 18 49  1  0
 19 50  1  0
 19 51  1  0
 20 52  1  6
 22 53  1  0
 22 54  1  0
 23 55  1  1
M  CHG  3   7   1  14   1  18   1
M  END
>  <meeko>  (2) 
{"is_sidechain": [false], "free_energy": -6.045, "intermolecular_energy": -9.153, "internal_energy": -0.716}

$$$$
LIB_ORLJIXKKPRVJKG__M_PUB_ALL__e8__s20260927
     RDKit          3D

 55 56  0  0  0  0  0  0  0  0999 V2000
    7.1440  -13.0300    1.0190 C   0  0  0  0  0  0  0  0  0  0  0  0
    7.8920  -11.8390    0.4000 C   0  0  0  0  0  0  0  0  0  0  0  0
    7.3350  -10.5230    0.9580 C   0  0  0  0  0  0  0  0  0  0  0  0
    9.4130  -11.8990    0.7410 C   0  0  0  0  0  0  0  0  0  0  0  0
   10.2430  -12.6360   -0.2810 C   0  0  0  0  0  0  0  0  0  0  0  0
   10.1580  -13.8490   -0.4180 O   0  0  0  0  0  0  0  0  0  0  0  0
   11.1180  -11.9410   -1.2100 N   0  0  0  0  0  0  0  0  0  0  0  0
   10.8330  -12.1580   -2.6690 C   0  0  0  0  0  0  0  0  0  0  0  0
   12.1870  -12.4390   -3.3000 C   0  0  0  0  0  0  0  0  0  0  0  0
   13.1830  -11.8010   -2.3510 C   0  0  0  0  0  0  0  0  0  0  0  0
   12.6130  -12.1570   -0.9840 C   0  0  1  0  0  0  0  0  0  0  0  0
   13.0660  -11.2120    0.1370 C   0  0  0  0  0  0  0  0  0  0  0  0
   12.4550   -9.9320   -0.1040 O   0  0  0  0  0  0  0  0  0  0  0  0
    7.6890  -11.8650   -1.1220 N   0  0  0  0  0  0  0  0  0  0  0  0
    6.6000  -10.9920   -1.7930 C   0  0  0  0  0  0  0  0  0  0  0  0
    5.8000  -11.7110   -2.9200 C   0  0  0  0  0  0  0  0  0  0  0  0
    6.0770  -12.8490   -3.2570 O   0  0  0  0  0  0  0  0  0  0  0  0
    4.5770  -11.1350   -3.5850 N   0  0  0  0  0  0  0  0  0  0  0  0
    4.3240  -11.7570   -4.9760 C   0  0  0  0  0  0  0  0  0  0  0  0
    3.2400  -12.7920   -4.7200 C   0  0  1  0  0  0  0  0  0  0  0  0
    3.7730  -13.8340   -4.0310 F   0  0  0  0  0  0  0  0  0  0  0  0
    2.3060  -12.0680   -3.7810 C   0  0  0  0  0  0  0  0  0  0  0  0
    3.2480  -11.3810   -2.7990 C   0  0  1  0  0  0  0  0  0  0  0  0
    3.4990  -12.1530   -1.5620 C   0  0  0  0  0  0  0  0  0  0  0  0
    3.9940  -12.6440   -0.6320 N   0  0  0  0  0  0  0  0  0  0  0  0
    7.1877  -12.9604    2.1159 H   0  0  0  0  0  0  0  0  0  0  0  0
    6.0938  -13.0134    0.6921 H   0  0  0  0  0  0  0  0  0  0  0  0
    7.6150  -13.9688    0.6921 H   0  0  0  0  0  0  0  0  0  0  0  0
    7.3489  -10.5559    2.0574 H   0  0  0  0  0  0  0  0  0  0  0  0
    7.9555   -9.6847    0.6083 H   0  0  0  0  0  0  0  0  0  0  0  0
    6.3012  -10.3848    0.6083 H   0  0  0  0  0  0  0  0  0  0  0  0
    9.7915  -10.8689    0.8160 H   0  0  0  0  0  0  0  0  0  0  0  0
    9.5054  -12.4544    1.6860 H   0  0  0  0  0  0  0  0  0  0  0  0
   11.0260  -10.9270   -1.0050 H   0  0  0  0  0  0  0  0  0  0  0  0
   10.1574  -13.0150   -2.8071 H   0  0  0  0  0  0  0  0  0  0  0  0
   10.3382  -11.2883   -3.1259 H   0  0  0  0  0  0  0  0  0  0  0  0
   12.3628  -13.5220   -3.3789 H   0  0  0  0  0  0  0  0  0  0  0  0
   12.2652  -12.0394   -4.3219 H   0  0  0  0  0  0  0  0  0  0  0  0
   14.1884  -12.2266   -2.4853 H   0  0  0  0  0  0  0  0  0  0  0  0
   13.3046  -10.7188   -2.5064 H   0  0  0  0  0  0  0  0  0  0  0  0
   12.9268  -13.1618   -0.6647 H   0  0  0  0  0  0  0  0  0  0  0  0
   12.7434  -11.6046    1.1126 H   0  0  0  0  0  0  0  0  0  0  0  0
   14.1623  -11.1222    0.1490 H   0  0  0  0  0  0  0  0  0  0  0  0
   13.1850   -9.2720   -0.0900 H   0  0  0  0  0  0  0  0  0  0  0  0
    7.5060  -12.8530   -1.3930 H   0  0  0  0  0  0  0  0  0  0  0  0
    8.5930  -11.6660   -1.6040 H   0  0  0  0  0  0  0  0  0  0  0  0
    5.8889  -10.6728   -1.0168 H   0  0  0  0  0  0  0  0  0  0  0  0
    7.1234  -10.1497   -2.2691 H   0  0  0  0  0  0  0  0  0  0  0  0
    4.7360  -10.1310   -3.7280 H   0  0  0  0  0  0  0  0  0  0  0  0
    3.9770  -10.9944   -5.6888 H   0  0  0  0  0  0  0  0  0  0  0  0
    5.2320  -12.1930   -5.4180 H   0  0  0  0  0  0  0  0  0  0  0  0
    2.7732  -13.1691   -5.6419 H   0  0  0  0  0  0  0  0  0  0  0  0
    1.6976  -11.3296   -4.3239 H   0  0  0  0  0  0  0  0  0  0  0  0
    1.5896  -12.7409   -3.2871 H   0  0  0  0  0  0  0  0  0  0  0  0
    2.7879  -10.4474   -2.4429 H   0  0  0  0  0  0  0  0  0  0  0  0
  1  2  1  0
  2  3  1  0
  2  4  1  0
  4  5  1  0
  5  6  2  0
  5  7  1  0
  7  8  1  0
  8  9  1  0
  9 10  1  0
 10 11  1  0
 11 12  1  0
 12 13  1  0
  2 14  1  0
 14 15  1  0
 15 16  1  0
 16 17  2  0
 16 18  1  0
 18 19  1  0
 19 20  1  0
 20 21  1  0
 20 22  1  0
 22 23  1  0
 23 24  1  0
 24 25  3  0
 11  7  1  0
 23 18  1  0
  1 26  1  0
  1 27  1  0
  1 28  1  0
  3 29  1  0
  3 30  1  0
  3 31  1  0
  4 32  1  0
  4 33  1  0
  7 34  1  0
  8 35  1  0
  8 36  1  0
  9 37  1  0
  9 38  1  0
 10 39  1  0
 10 40  1  0
 11 41  1  1
 12 42  1  0
 12 43  1  0
 13 44  1  0
 14 45  1  0
 14 46  1  0
 15 47  1  0
 15 48  1  0
 18 49  1  0
 19 50  1  0
 19 51  1  0
 20 52  1  6
 22 53  1  0
 22 54  1  0
 23 55  1  1
M  CHG  3   7   1  14   1  18   1
M  END
>  <meeko>  (3) 
{"is_sidechain": [false], "free_energy": -6.019, "intermolecular_energy": -9.541, "internal_energy": -0.29}

$$$$
LIB_ORLJIXKKPRVJKG__M_PUB_ALL__e8__s20260927
     RDKit          3D

 55 56  0  0  0  0  0  0  0  0999 V2000
   11.9770  -12.9560    0.8990 C   0  0  0  0  0  0  0  0  0  0  0  0
   11.6460  -11.7160    0.0540 C   0  0  0  0  0  0  0  0  0  0  0  0
   11.6210  -10.4670    0.9440 C   0  0  0  0  0  0  0  0  0  0  0  0
   12.7240  -11.4940   -1.0530 C   0  0  0  0  0  0  0  0  0  0  0  0
   12.4150  -12.1860   -2.3580 C   0  0  0  0  0  0  0  0  0  0  0  0
   11.5220  -11.7900   -3.0940 O   0  0  0  0  0  0  0  0  0  0  0  0
   13.2130  -13.2960   -2.8490 N   0  0  0  0  0  0  0  0  0  0  0  0
   14.0830  -13.0050   -4.0390 C   0  0  0  0  0  0  0  0  0  0  0  0
   13.8530  -14.1670   -4.9910 C   0  0  0  0  0  0  0  0  0  0  0  0
   13.3740  -15.2960   -4.0980 C   0  0  0  0  0  0  0  0  0  0  0  0
   12.4360  -14.5810   -3.1340 C   0  0  1  0  0  0  0  0  0  0  0  0
   12.2370  -15.3210   -1.8060 C   0  0  0  0  0  0  0  0  0  0  0  0
   10.8730  -15.1160   -1.3970 O   0  0  0  0  0  0  0  0  0  0  0  0
   10.2640  -11.9080   -0.5840 N   0  0  0  0  0  0  0  0  0  0  0  0
    9.0390  -12.3020    0.2790 C   0  0  0  0  0  0  0  0  0  0  0  0
    8.0280  -13.2510   -0.4320 C   0  0  0  0  0  0  0  0  0  0  0  0
    8.3570  -13.8970   -1.4110 O   0  0  0  0  0  0  0  0  0  0  0  0
    6.6420  -13.5410    0.0810 N   0  0  0  0  0  0  0  0  0  0  0  0
    6.5190  -13.2890    1.6000 C   0  0  0  0  0  0  0  0  0  0  0  0
    5.8620  -11.9200    1.6900 C   0  0  1  0  0  0  0  0  0  0  0  0
    6.7570  -10.9710    1.3110 F   0  0  0  0  0  0  0  0  0  0  0  0
    4.8040  -11.9900    0.6150 C   0  0  0  0  0  0  0  0  0  0  0  0
    5.5260  -12.6490   -0.5550 C   0  0  1  0  0  0  0  0  0  0  0  0
    6.1020  -11.6930   -1.5260 C   0  0  0  0  0  0  0  0  0  0  0  0
    6.7930  -11.1590   -2.2920 N   0  0  0  0  0  0  0  0  0  0  0  0
   11.9089  -12.7009    1.9668 H   0  0  0  0  0  0  0  0  0  0  0  0
   11.2618  -13.7590    0.6675 H   0  0  0  0  0  0  0  0  0  0  0  0
   12.9973  -13.2958    0.6675 H   0  0  0  0  0  0  0  0  0  0  0  0
   11.6271  -10.7701    2.0014 H   0  0  0  0  0  0  0  0  0  0  0  0
   12.5070   -9.8496    0.7344 H   0  0  0  0  0  0  0  0  0  0  0  0
   10.7110   -9.8856    0.7344 H   0  0  0  0  0  0  0  0  0  0  0  0
   12.8054  -10.4139   -1.2450 H   0  0  0  0  0  0  0  0  0  0  0  0
   13.6615  -11.9290   -0.6762 H   0  0  0  0  0  0  0  0  0  0  0  0
   13.8220  -13.5970   -2.0630 H   0  0  0  0  0  0  0  0  0  0  0  0
   13.7882  -12.0557   -4.5100 H   0  0  0  0  0  0  0  0  0  0  0  0
   15.1423  -12.9039   -3.7603 H   0  0  0  0  0  0  0  0  0  0  0  0
   13.0886  -13.9116   -5.7397 H   0  0  0  0  0  0  0  0  0  0  0  0
   14.7592  -14.4334   -5.5547 H   0  0  0  0  0  0  0  0  0  0  0  0
   12.8387  -16.0618   -4.6785 H   0  0  0  0  0  0  0  0  0  0  0  0
   14.1915  -15.8337   -3.5955 H   0  0  0  0  0  0  0  0  0  0  0  0
   11.4279  -14.4682   -3.5596 H   0  0  0  0  0  0  0  0  0  0  0  0
   12.4310  -16.3952   -1.9419 H   0  0  0  0  0  0  0  0  0  0  0  0
   12.9317  -14.9407   -1.0426 H   0  0  0  0  0  0  0  0  0  0  0  0
   10.5660  -15.9750   -1.0250 H   0  0  0  0  0  0  0  0  0  0  0  0
   10.3630  -12.6270   -1.3290 H   0  0  0  0  0  0  0  0  0  0  0  0
   10.0030  -11.0570   -1.1290 H   0  0  0  0  0  0  0  0  0  0  0  0
    9.4049  -12.8063    1.1855 H   0  0  0  0  0  0  0  0  0  0  0  0
    8.4955  -11.3705    0.4957 H   0  0  0  0  0  0  0  0  0  0  0  0
    6.4460  -14.5370   -0.0750 H   0  0  0  0  0  0  0  0  0  0  0  0
    5.8906  -14.0569    2.0748 H   0  0  0  0  0  0  0  0  0  0  0  0
    7.4889  -13.3296    2.1173 H   0  0  0  0  0  0  0  0  0  0  0  0
    5.4880  -11.6825    2.6968 H   0  0  0  0  0  0  0  0  0  0  0  0
    3.9498  -12.6002    0.9436 H   0  0  0  0  0  0  0  0  0  0  0  0
    4.3873  -11.0044    0.3601 H   0  0  0  0  0  0  0  0  0  0  0  0
    4.8051  -13.2309   -1.1480 H   0  0  0  0  0  0  0  0  0  0  0  0
  1  2  1  0
  2  3  1  0
  2  4  1  0
  4  5  1  0
  5  6  2  0
  5  7  1  0
  7  8  1  0
  8  9  1  0
  9 10  1  0
 10 11  1  0
 11 12  1  0
 12 13  1  0
  2 14  1  0
 14 15  1  0
 15 16  1  0
 16 17  2  0
 16 18  1  0
 18 19  1  0
 19 20  1  0
 20 21  1  0
 20 22  1  0
 22 23  1  0
 23 24  1  0
 24 25  3  0
 11  7  1  0
 23 18  1  0
  1 26  1  0
  1 27  1  0
  1 28  1  0
  3 29  1  0
  3 30  1  0
  3 31  1  0
  4 32  1  0
  4 33  1  0
  7 34  1  0
  8 35  1  0
  8 36  1  0
  9 37  1  0
  9 38  1  0
 10 39  1  0
 10 40  1  0
 11 41  1  6
 12 42  1  0
 12 43  1  0
 13 44  1  0
 14 45  1  0
 14 46  1  0
 15 47  1  0
 15 48  1  0
 18 49  1  0
 19 50  1  0
 19 51  1  0
 20 52  1  1
 22 53  1  0
 22 54  1  0
 23 55  1  6
M  CHG  3   7   1  14   1  18   1
M  END
>  <meeko>  (4) 
{"is_sidechain": [false], "free_energy": -5.969, "intermolecular_energy": -8.705, "internal_energy": -1.051}

$$$$
LIB_ORLJIXKKPRVJKG__M_PUB_ALL__e8__s20260927
     RDKit          3D

 55 56  0  0  0  0  0  0  0  0999 V2000
    0.3620  -14.7470    0.2270 C   0  0  0  0  0  0  0  0  0  0  0  0
    0.5010  -14.2150    1.6620 C   0  0  0  0  0  0  0  0  0  0  0  0
    1.9010  -14.5270    2.2030 C   0  0  0  0  0  0  0  0  0  0  0  0
    0.3040  -12.6680    1.7030 C   0  0  0  0  0  0  0  0  0  0  0  0
   -0.8480  -12.2180    2.5670 C   0  0  0  0  0  0  0  0  0  0  0  0
   -0.8080  -12.3150    3.7860 O   0  0  0  0  0  0  0  0  0  0  0  0
   -2.0230  -11.5690    2.0100 N   0  0  0  0  0  0  0  0  0  0  0  0
   -3.0070  -12.4710    1.3210 C   0  0  0  0  0  0  0  0  0  0  0  0
   -3.3410  -11.7680    0.0160 C   0  0  0  0  0  0  0  0  0  0  0  0
   -3.0310  -10.3080    0.2840 C   0  0  0  0  0  0  0  0  0  0  0  0
   -1.7380  -10.3870    1.0860 C   0  0  1  0  0  0  0  0  0  0  0  0
   -1.4800   -9.1520    1.9590 C   0  0  0  0  0  0  0  0  0  0  0  0
   -0.0900   -8.8050    1.8170 O   0  0  0  0  0  0  0  0  0  0  0  0
   -0.5460  -14.9060    2.5480 N   0  0  0  0  0  0  0  0  0  0  0  0
   -0.1230  -15.9560    3.6060 C   0  0  0  0  0  0  0  0  0  0  0  0
   -0.4230  -17.4310    3.2060 C   0  0  0  0  0  0  0  0  0  0  0  0
    0.2620  -18.0080    2.3780 O   0  0  0  0  0  0  0  0  0  0  0  0
   -1.4680  -18.2890    3.8700 N   0  0  0  0  0  0  0  0  0  0  0  0
   -1.8000  -17.8000    5.2980 C   0  0  0  0  0  0  0  0  0  0  0  0
   -3.0900  -17.0150    5.1220 C   0  0  1  0  0  0  0  0  0  0  0  0
   -2.8200  -15.8520    4.4740 F   0  0  0  0  0  0  0  0  0  0  0  0
   -3.8790  -17.8820    4.1710 C   0  0  0  0  0  0  0  0  0  0  0  0
   -2.8460  -18.3040    3.1320 C   0  0  1  0  0  0  0  0  0  0  0  0
   -2.8110  -17.4410    1.9300 C   0  0  0  0  0  0  0  0  0  0  0  0
   -2.4670  -16.8140    1.0150 N   0  0  0  0  0  0  0  0  0  0  0  0
    0.0840  -15.8109    0.2557 H   0  0  0  0  0  0  0  0  0  0  0  0
   -0.4177  -14.1784   -0.3009 H   0  0  0  0  0  0  0  0  0  0  0  0
    1.3202  -14.6325   -0.3009 H   0  0  0  0  0  0  0  0  0  0  0  0
    1.8786  -14.5220    3.3028 H   0  0  0  0  0  0  0  0  0  0  0  0
    2.2191  -15.5181    1.8472 H   0  0  0  0  0  0  0  0  0  0  0  0
    2.6098  -13.7648    1.8472 H   0  0  0  0  0  0  0  0  0  0  0  0
    1.2265  -12.2122    2.0919 H   0  0  0  0  0  0  0  0  0  0  0  0
    0.0741  -12.3495    0.6755 H   0  0  0  0  0  0  0  0  0  0  0  0
   -2.5060  -11.0980    2.8000 H   0  0  0  0  0  0  0  0  0  0  0  0
   -2.5572  -13.4555    1.1253 H   0  0  0  0  0  0  0  0  0  0  0  0
   -3.9026  -12.6493    1.9343 H   0  0  0  0  0  0  0  0  0  0  0  0
   -2.7182  -12.1539   -0.8045 H   0  0  0  0  0  0  0  0  0  0  0  0
   -4.3859  -11.9255   -0.2896 H   0  0  0  0  0  0  0  0  0  0  0  0
   -2.8832   -9.7542   -0.6549 H   0  0  0  0  0  0  0  0  0  0  0  0
   -3.8398   -9.7770    0.8074 H   0  0  0  0  0  0  0  0  0  0  0  0
   -0.8593  -10.4709    0.4297 H   0  0  0  0  0  0  0  0  0  0  0  0
   -2.1119   -8.3164    1.6238 H   0  0  0  0  0  0  0  0  0  0  0  0
   -1.7211   -9.3638    3.0111 H   0  0  0  0  0  0  0  0  0  0  0  0
   -0.0720   -7.9060    1.4170 H   0  0  0  0  0  0  0  0  0  0  0  0
   -1.2350  -15.3620    1.9160 H   0  0  0  0  0  0  0  0  0  0  0  0
   -1.1290  -14.1890    3.0330 H   0  0  0  0  0  0  0  0  0  0  0  0
    0.9598  -15.8586    3.7733 H   0  0  0  0  0  0  0  0  0  0  0  0
   -0.7173  -15.7489    4.5082 H   0  0  0  0  0  0  0  0  0  0  0  0
   -1.0900  -19.2400    3.9590 H   0  0  0  0  0  0  0  0  0  0  0  0
   -1.9490  -18.6510    5.9789 H   0  0  0  0  0  0  0  0  0  0  0  0
   -0.9925  -17.1977    5.7398 H   0  0  0  0  0  0  0  0  0  0  0  0
   -3.5936  -16.7898    6.0737 H   0  0  0  0  0  0  0  0  0  0  0  0
   -4.2944  -18.7581    4.6905 H   0  0  0  0  0  0  0  0  0  0  0  0
   -4.7407  -17.3594    3.7301 H   0  0  0  0  0  0  0  0  0  0  0  0
   -3.1064  -19.2988    2.7413 H   0  0  0  0  0  0  0  0  0  0  0  0
  1  2  1  0
  2  3  1  0
  2  4  1  0
  4  5  1  0
  5  6  2  0
  5  7  1  0
  7  8  1  0
  8  9  1  0
  9 10  1  0
 10 11  1  0
 11 12  1  0
 12 13  1  0
  2 14  1  0
 14 15  1  0
 15 16  1  0
 16 17  2  0
 16 18  1  0
 18 19  1  0
 19 20  1  0
 20 21  1  0
 20 22  1  0
 22 23  1  0
 23 24  1  0
 24 25  3  0
 11  7  1  0
 23 18  1  0
  1 26  1  0
  1 27  1  0
  1 28  1  0
  3 29  1  0
  3 30  1  0
  3 31  1  0
  4 32  1  0
  4 33  1  0
  7 34  1  0
  8 35  1  0
  8 36  1  0
  9 37  1  0
  9 38  1  0
 10 39  1  0
 10 40  1  0
 11 41  1  6
 12 42  1  0
 12 43  1  0
 13 44  1  0
 14 45  1  0
 14 46  1  0
 15 47  1  0
 15 48  1  0
 18 49  1  0
 19 50  1  0
 19 51  1  0
 20 52  1  1
 22 53  1  0
 22 54  1  0
 23 55  1  6
M  CHG  3   7   1  14   1  18   1
M  END
>  <meeko>  (5) 
{"is_sidechain": [false], "free_energy": -5.952, "intermolecular_energy": -8.533, "internal_energy": -1.198}

$$$$
LIB_ORLJIXKKPRVJKG__M_PUB_ALL__e8__s20260927
     RDKit          3D

 55 56  0  0  0  0  0  0  0  0999 V2000
    7.7470  -11.1540    0.9360 C   0  0  0  0  0  0  0  0  0  0  0  0
    7.6100  -11.9010   -0.4000 C   0  0  0  0  0  0  0  0  0  0  0  0
    6.9930  -13.2850   -0.1650 C   0  0  0  0  0  0  0  0  0  0  0  0
    6.6800  -11.1210   -1.3800 C   0  0  0  0  0  0  0  0  0  0  0  0
    6.7370  -11.6150   -2.8050 C   0  0  0  0  0  0  0  0  0  0  0  0
    7.7110  -11.4010   -3.5150 O   0  0  0  0  0  0  0  0  0  0  0  0
    5.6880  -12.4390   -3.3780 N   0  0  0  0  0  0  0  0  0  0  0  0
    6.1430  -13.6730   -4.1040 C   0  0  0  0  0  0  0  0  0  0  0  0
    5.3590  -13.6800   -5.4050 C   0  0  0  0  0  0  0  0  0  0  0  0
    4.1280  -12.8450   -5.1070 C   0  0  0  0  0  0  0  0  0  0  0  0
    4.6970  -11.7020   -4.2770 C   0  0  1  0  0  0  0  0  0  0  0  0
    3.6580  -11.0170   -3.3790 C   0  0  0  0  0  0  0  0  0  0  0  0
    3.3830   -9.7230   -3.9450 O   0  0  0  0  0  0  0  0  0  0  0  0
    9.0060  -12.0700   -1.0160 N   0  0  0  0  0  0  0  0  0  0  0  0
    9.9770  -13.1590   -0.4950 C   0  0  0  0  0  0  0  0  0  0  0  0
   11.4860  -12.8020   -0.6440 C   0  0  0  0  0  0  0  0  0  0  0  0
   11.9270  -11.7500   -0.2160 O   0  0  0  0  0  0  0  0  0  0  0  0
   12.5240  -13.7440   -1.1970 N   0  0  0  0  0  0  0  0  0  0  0  0
   12.1530  -15.2240   -0.9580 C   0  0  0  0  0  0  0  0  0  0  0  0
   11.5740  -15.6740   -2.2900 C   0  0  1  0  0  0  0  0  0  0  0  0
   10.3570  -15.0960   -2.4640 F   0  0  0  0  0  0  0  0  0  0  0  0
   12.5130  -15.0440   -3.2890 C   0  0  0  0  0  0  0  0  0  0  0  0
   12.7230  -13.6360   -2.7440 C   0  0  1  0  0  0  0  0  0  0  0  0
   11.8170  -12.6220   -3.3250 C   0  0  0  0  0  0  0  0  0  0  0  0
   11.1050  -11.7160   -3.4790 N   0  0  0  0  0  0  0  0  0  0  0  0
    7.6170  -11.8626    1.7673 H   0  0  0  0  0  0  0  0  0  0  0  0
    8.7444  -10.6944    0.9985 H   0  0  0  0  0  0  0  0  0  0  0  0
    6.9776  -10.3703    0.9985 H   0  0  0  0  0  0  0  0  0  0  0  0
    6.9102  -13.4708    0.9160 H   0  0  0  0  0  0  0  0  0  0  0  0
    5.9928  -13.3228   -0.6212 H   0  0  0  0  0  0  0  0  0  0  0  0
    7.6334  -14.0542   -0.6212 H   0  0  0  0  0  0  0  0  0  0  0  0
    5.6440  -11.2153   -1.0225 H   0  0  0  0  0  0  0  0  0  0  0  0
    7.0315  -10.0787   -1.3904 H   0  0  0  0  0  0  0  0  0  0  0  0
    5.0730  -12.7290   -2.5930 H   0  0  0  0  0  0  0  0  0  0  0  0
    7.2235  -13.6263   -4.3048 H   0  0  0  0  0  0  0  0  0  0  0  0
    5.9697  -14.5851   -3.5141 H   0  0  0  0  0  0  0  0  0  0  0  0
    5.9482  -13.2291   -6.2171 H   0  0  0  0  0  0  0  0  0  0  0  0
    5.1056  -14.6977   -5.7368 H   0  0  0  0  0  0  0  0  0  0  0  0
    3.6669  -12.4721   -6.0335 H   0  0  0  0  0  0  0  0  0  0  0  0
    3.3322  -13.4051   -4.5941 H   0  0  0  0  0  0  0  0  0  0  0  0
    5.1048  -10.9039   -4.9148 H   0  0  0  0  0  0  0  0  0  0  0  0
    2.7362  -11.6163   -3.3466 H   0  0  0  0  0  0  0  0  0  0  0  0
    4.0391  -10.9175   -2.3519 H   0  0  0  0  0  0  0  0  0  0  0  0
    2.9320   -9.8900   -4.8040 H   0  0  0  0  0  0  0  0  0  0  0  0
    9.4940  -11.1540   -0.9340 H   0  0  0  0  0  0  0  0  0  0  0  0
    8.9260  -12.1880   -2.0490 H   0  0  0  0  0  0  0  0  0  0  0  0
    9.7667  -13.3252    0.5718 H   0  0  0  0  0  0  0  0  0  0  0  0
    9.8043  -14.0537   -1.1112 H   0  0  0  0  0  0  0  0  0  0  0  0
   13.4070  -13.5710   -0.7020 H   0  0  0  0  0  0  0  0  0  0  0  0
   13.0443  -15.8143   -0.6990 H   0  0  0  0  0  0  0  0  0  0  0  0
   11.4496  -15.3561   -0.1227 H   0  0  0  0  0  0  0  0  0  0  0  0
   11.4712  -16.7661   -2.3723 H   0  0  0  0  0  0  0  0  0  0  0  0
   13.4647  -15.5937   -3.3344 H   0  0  0  0  0  0  0  0  0  0  0  0
   12.1141  -15.0507   -4.3141 H   0  0  0  0  0  0  0  0  0  0  0  0
   13.7286  -13.2842   -3.0178 H   0  0  0  0  0  0  0  0  0  0  0  0
  1  2  1  0
  2  3  1  0
  2  4  1  0
  4  5  1  0
  5  6  2  0
  5  7  1  0
  7  8  1  0
  8  9  1  0
  9 10  1  0
 10 11  1  0
 11 12  1  0
 12 13  1  0
  2 14  1  0
 14 15  1  0
 15 16  1  0
 16 17  2  0
 16 18  1  0
 18 19  1  0
 19 20  1  0
 20 21  1  0
 20 22  1  0
 22 23  1  0
 23 24  1  0
 24 25  3  0
 11  7  1  0
 23 18  1  0
  1 26  1  0
  1 27  1  0
  1 28  1  0
  3 29  1  0
  3 30  1  0
  3 31  1  0
  4 32  1  0
  4 33  1  0
  7 34  1  0
  8 35  1  0
  8 36  1  0
  9 37  1  0
  9 38  1  0
 10 39  1  0
 10 40  1  0
 11 41  1  6
 12 42  1  0
 12 43  1  0
 13 44  1  0
 14 45  1  0
 14 46  1  0
 15 47  1  0
 15 48  1  0
 18 49  1  0
 19 50  1  0
 19 51  1  0
 20 52  1  1
 22 53  1  0
 22 54  1  0
 23 55  1  1
M  CHG  3   7   1  14   1  18   1
M  END
>  <meeko>  (6) 
{"is_sidechain": [false], "free_energy": -5.921, "intermolecular_energy": -8.874, "internal_energy": -0.81}

$$$$
LIB_ORLJIXKKPRVJKG__M_PUB_ALL__e8__s20260927
     RDKit          3D

 55 56  0  0  0  0  0  0  0  0999 V2000
    9.3980  -12.1890   -3.0440 C   0  0  0  0  0  0  0  0  0  0  0  0
    9.6220  -13.6740   -3.3690 C   0  0  0  0  0  0  0  0  0  0  0  0
    8.7520  -14.0860   -4.5630 C   0  0  0  0  0  0  0  0  0  0  0  0
   11.1120  -13.9410   -3.7480 C   0  0  0  0  0  0  0  0  0  0  0  0
   11.9760  -14.3580   -2.5830 C   0  0  0  0  0  0  0  0  0  0  0  0
   12.1330  -15.5370   -2.2950 O   0  0  0  0  0  0  0  0  0  0  0  0
   12.7330  -13.3960   -1.8000 N   0  0  0  0  0  0  0  0  0  0  0  0
   12.1890  -13.0870   -0.4340 C   0  0  0  0  0  0  0  0  0  0  0  0
   12.2320  -11.5710   -0.3250 C   0  0  0  0  0  0  0  0  0  0  0  0
   13.2990  -11.1530   -1.3190 C   0  0  0  0  0  0  0  0  0  0  0  0
   13.0280  -12.0720   -2.5020 C   0  0  1  0  0  0  0  0  0  0  0  0
   14.2450  -12.2770   -3.4130 C   0  0  0  0  0  0  0  0  0  0  0  0
   15.3560  -11.5890   -2.8110 O   0  0  0  0  0  0  0  0  0  0  0  0
    9.2280  -14.5120   -2.1460 N   0  0  0  0  0  0  0  0  0  0  0  0
    8.3990  -13.8930   -0.9930 C   0  0  0  0  0  0  0  0  0  0  0  0
    6.8680  -14.1630   -1.0800 C   0  0  0  0  0  0  0  0  0  0  0  0
    6.3880  -14.7460   -2.0370 O   0  0  0  0  0  0  0  0  0  0  0  0
    5.8920  -13.8520    0.0250 N   0  0  0  0  0  0  0  0  0  0  0  0
    6.5910  -13.7160    1.3960 C   0  0  0  0  0  0  0  0  0  0  0  0
    6.7180  -12.2130    1.5910 C   0  0  1  0  0  0  0  0  0  0  0  0
    7.6590  -11.7310    0.7380 F   0  0  0  0  0  0  0  0  0  0  0  0
    5.3800  -11.7030    1.1130 C   0  0  0  0  0  0  0  0  0  0  0  0
    5.1270  -12.5010   -0.1600 C   0  0  1  0  0  0  0  0  0  0  0  0
    5.5560  -11.8160   -1.3990 C   0  0  0  0  0  0  0  0  0  0  0  0
    5.9830  -11.5750   -2.4530 N   0  0  0  0  0  0  0  0  0  0  0  0
    9.3773  -12.0515   -1.9528 H   0  0  0  0  0  0  0  0  0  0  0  0
   10.2163  -11.5922   -3.4733 H   0  0  0  0  0  0  0  0  0  0  0  0
    8.4401  -11.8601   -3.4733 H   0  0  0  0  0  0  0  0  0  0  0  0
    7.8143  -14.5301   -4.1975 H   0  0  0  0  0  0  0  0  0  0  0  0
    8.5244  -13.2000   -5.1739 H   0  0  0  0  0  0  0  0  0  0  0  0
    9.2933  -14.8234   -5.1739 H   0  0  0  0  0  0  0  0  0  0  0  0
   11.1391  -14.7409   -4.5026 H   0  0  0  0  0  0  0  0  0  0  0  0
   11.5203  -12.9910   -4.1233 H   0  0  0  0  0  0  0  0  0  0  0  0
   13.6890  -13.7860   -1.6920 H   0  0  0  0  0  0  0  0  0  0  0  0
   11.1558  -13.4521   -0.3380 H   0  0  0  0  0  0  0  0  0  0  0  0
   12.7713  -13.5744    0.3618 H   0  0  0  0  0  0  0  0  0  0  0  0
   11.2586  -11.1335   -0.5915 H   0  0  0  0  0  0  0  0  0  0  0  0
   12.4533  -11.2296    0.6970 H   0  0  0  0  0  0  0  0  0  0  0  0
   13.1855  -10.0963   -1.6027 H   0  0  0  0  0  0  0  0  0  0  0  0
   14.3223  -11.2376   -0.9243 H   0  0  0  0  0  0  0  0  0  0  0  0
   12.2387  -11.6695   -3.1540 H   0  0  0  0  0  0  0  0  0  0  0  0
   14.4711  -13.3498   -3.5021 H   0  0  0  0  0  0  0  0  0  0  0  0
   14.0455  -11.8837   -4.4207 H   0  0  0  0  0  0  0  0  0  0  0  0
   15.8510  -12.2650   -2.2940 H   0  0  0  0  0  0  0  0  0  0  0  0
   10.1050  -14.8870   -1.7310 H   0  0  0  0  0  0  0  0  0  0  0  0
    8.7380  -15.3800   -2.4530 H   0  0  0  0  0  0  0  0  0  0  0  0
    8.7676  -14.3086   -0.0435 H   0  0  0  0  0  0  0  0  0  0  0  0
    8.5286  -12.8031   -1.0652 H   0  0  0  0  0  0  0  0  0  0  0  0
    5.2340  -14.6380    0.0990 H   0  0  0  0  0  0  0  0  0  0  0  0
    5.9802  -14.1644    2.1934 H   0  0  0  0  0  0  0  0  0  0  0  0
    7.5612  -14.2331    1.4320 H   0  0  0  0  0  0  0  0  0  0  0  0
    6.9839  -11.9295    2.6200 H   0  0  0  0  0  0  0  0  0  0  0  0
    4.5962  -11.8964    1.8601 H   0  0  0  0  0  0  0  0  0  0  0  0
    5.3719  -10.6159    0.9450 H   0  0  0  0  0  0  0  0  0  0  0  0
    4.0442  -12.6416   -0.2932 H   0  0  0  0  0  0  0  0  0  0  0  0
  1  2  1  0
  2  3  1  0
  2  4  1  0
  4  5  1  0
  5  6  2  0
  5  7  1  0
  7  8  1  0
  8  9  1  0
  9 10  1  0
 10 11  1  0
 11 12  1  0
 12 13  1  0
  2 14  1  0
 14 15  1  0
 15 16  1  0
 16 17  2  0
 16 18  1  0
 18 19  1  0
 19 20  1  0
 20 21  1  0
 20 22  1  0
 22 23  1  0
 23 24  1  0
 24 25  3  0
 11  7  1  0
 23 18  1  0
  1 26  1  0
  1 27  1  0
  1 28  1  0
  3 29  1  0
  3 30  1  0
  3 31  1  0
  4 32  1  0
  4 33  1  0
  7 34  1  0
  8 35  1  0
  8 36  1  0
  9 37  1  0
  9 38  1  0
 10 39  1  0
 10 40  1  0
 11 41  1  6
 12 42  1  0
 12 43  1  0
 13 44  1  0
 14 45  1  0
 14 46  1  0
 15 47  1  0
 15 48  1  0
 18 49  1  0
 19 50  1  0
 19 51  1  0
 20 52  1  1
 22 53  1  0
 22 54  1  0
 23 55  1  6
M  CHG  3   7   1  14   1  18   1
M  END
>  <meeko>  (7) 
{"is_sidechain": [false], "free_energy": -5.919, "intermolecular_energy": -8.601, "internal_energy": -1.08}

$$$$
LIB_ORLJIXKKPRVJKG__M_PUB_ALL__e8__s20260927
     RDKit          3D

 55 56  0  0  0  0  0  0  0  0999 V2000
    5.7680  -11.7960    0.7820 C   0  0  0  0  0  0  0  0  0  0  0  0
    6.8420  -11.9200   -0.3100 C   0  0  0  0  0  0  0  0  0  0  0  0
    6.8940  -10.6330   -1.1420 C   0  0  0  0  0  0  0  0  0  0  0  0
    8.2530  -12.1410    0.3190 C   0  0  0  0  0  0  0  0  0  0  0  0
    9.1850  -12.9620   -0.5370 C   0  0  0  0  0  0  0  0  0  0  0  0
    9.1060  -14.1830   -0.5760 O   0  0  0  0  0  0  0  0  0  0  0  0
   10.1610  -12.3500   -1.4210 N   0  0  0  0  0  0  0  0  0  0  0  0
    9.7560  -12.2250   -2.8620 C   0  0  0  0  0  0  0  0  0  0  0  0
   10.9580  -12.7130   -3.6550 C   0  0  0  0  0  0  0  0  0  0  0  0
   12.1320  -12.5190   -2.7140 C   0  0  0  0  0  0  0  0  0  0  0  0
   11.5590  -12.9630   -1.3740 C   0  0  1  0  0  0  0  0  0  0  0  0
   12.2970  -12.3750   -0.1650 C   0  0  0  0  0  0  0  0  0  0  0  0
   12.7680  -13.4770    0.6320 O   0  0  0  0  0  0  0  0  0  0  0  0
    6.4800  -13.0970   -1.2270 N   0  0  0  0  0  0  0  0  0  0  0  0
    5.0110  -13.5640   -1.3770 C   0  0  0  0  0  0  0  0  0  0  0  0
    4.6430  -14.0910   -2.7960 C   0  0  0  0  0  0  0  0  0  0  0  0
    5.2240  -15.0480   -3.2790 O   0  0  0  0  0  0  0  0  0  0  0  0
    3.4970  -13.5660   -3.6200 N   0  0  0  0  0  0  0  0  0  0  0  0
    2.4150  -12.8910   -2.7480 C   0  0  0  0  0  0  0  0  0  0  0  0
    2.7090  -11.4050   -2.8890 C   0  0  1  0  0  0  0  0  0  0  0  0
    3.8510  -11.1110   -2.2130 F   0  0  0  0  0  0  0  0  0  0  0  0
    3.0150  -11.2660   -4.3600 C   0  0  0  0  0  0  0  0  0  0  0  0
    3.9050  -12.4680   -4.6560 C   0  0  1  0  0  0  0  0  0  0  0  0
    5.3540  -12.1800   -4.5780 C   0  0  0  0  0  0  0  0  0  0  0  0
    6.4980  -12.2470   -4.3850 N   0  0  0  0  0  0  0  0  0  0  0  0
    6.2439  -11.8509    1.7722 H   0  0  0  0  0  0  0  0  0  0  0  0
    5.2487  -10.8319    0.6777 H   0  0  0  0  0  0  0  0  0  0  0  0
    5.0427  -12.6164    0.6777 H   0  0  0  0  0  0  0  0  0  0  0  0
    6.9292   -9.7630   -0.4698 H   0  0  0  0  0  0  0  0  0  0  0  0
    7.7925  -10.6426   -1.7765 H   0  0  0  0  0  0  0  0  0  0  0  0
    5.9977  -10.5701   -1.7765 H   0  0  0  0  0  0  0  0  0  0  0  0
    8.7147  -11.1568    0.4871 H   0  0  0  0  0  0  0  0  0  0  0  0
    8.1007  -12.7027    1.2524 H   0  0  0  0  0  0  0  0  0  0  0  0
   10.3450  -11.3970   -1.0490 H   0  0  0  0  0  0  0  0  0  0  0  0
    8.8755  -12.8503   -3.0713 H   0  0  0  0  0  0  0  0  0  0  0  0
    9.4804  -11.1930   -3.1246 H   0  0  0  0  0  0  0  0  0  0  0  0
   10.8439  -13.7740   -3.9221 H   0  0  0  0  0  0  0  0  0  0  0  0
   11.0849  -12.1694   -4.6028 H   0  0  0  0  0  0  0  0  0  0  0  0
   12.9855  -13.1471   -3.0089 H   0  0  0  0  0  0  0  0  0  0  0  0
   12.5207  -11.4900   -2.7049 H   0  0  0  0  0  0  0  0  0  0  0  0
   11.6179  -14.0544   -1.2503 H   0  0  0  0  0  0  0  0  0  0  0  0
   13.1480  -11.7660   -0.5042 H   0  0  0  0  0  0  0  0  0  0  0  0
   11.6265  -11.7306    0.4225 H   0  0  0  0  0  0  0  0  0  0  0  0
   12.7900  -14.2580    0.0340 H   0  0  0  0  0  0  0  0  0  0  0  0
    7.0360  -13.9180   -0.9100 H   0  0  0  0  0  0  0  0  0  0  0  0
    6.8570  -12.9290   -2.1850 H   0  0  0  0  0  0  0  0  0  0  0  0
    4.8318  -14.3725   -0.6530 H   0  0  0  0  0  0  0  0  0  0  0  0
    4.3816  -12.6797   -1.1984 H   0  0  0  0  0  0  0  0  0  0  0  0
    3.0500  -14.3630   -4.0890 H   0  0  0  0  0  0  0  0  0  0  0  0
    1.4075  -13.1281   -3.1206 H   0  0  0  0  0  0  0  0  0  0  0  0
    2.4384  -13.2316   -1.7023 H   0  0  0  0  0  0  0  0  0  0  0  0
    1.8945  -10.7643   -2.5201 H   0  0  0  0  0  0  0  0  0  0  0  0
    2.0927  -11.3034   -4.9583 H   0  0  0  0  0  0  0  0  0  0  0  0
    3.4945  -10.3076   -4.6082 H   0  0  0  0  0  0  0  0  0  0  0  0
    3.7507  -12.7894   -5.6966 H   0  0  0  0  0  0  0  0  0  0  0  0
  1  2  1  0
  2  3  1  0
  2  4  1  0
  4  5  1  0
  5  6  2  0
  5  7  1  0
  7  8  1  0
  8  9  1  0
  9 10  1  0
 10 11  1  0
 11 12  1  0
 12 13  1  0
  2 14  1  0
 14 15  1  0
 15 16  1  0
 16 17  2  0
 16 18  1  0
 18 19  1  0
 19 20  1  0
 20 21  1  0
 20 22  1  0
 22 23  1  0
 23 24  1  0
 24 25  3  0
 11  7  1  0
 23 18  1  0
  1 26  1  0
  1 27  1  0
  1 28  1  0
  3 29  1  0
  3 30  1  0
  3 31  1  0
  4 32  1  0
  4 33  1  0
  7 34  1  0
  8 35  1  0
  8 36  1  0
  9 37  1  0
  9 38  1  0
 10 39  1  0
 10 40  1  0
 11 41  1  1
 12 42  1  0
 12 43  1  0
 13 44  1  0
 14 45  1  0
 14 46  1  0
 15 47  1  0
 15 48  1  0
 18 49  1  0
 19 50  1  0
 19 51  1  0
 20 52  1  1
 22 53  1  0
 22 54  1  0
 23 55  1  6
M  CHG  3   7   1  14   1  18   1
M  END
>  <meeko>  (8) 
{"is_sidechain": [false], "free_energy": -5.81, "intermolecular_energy": -8.346, "internal_energy": -1.171}

$$$$
LIB_ORLJIXKKPRVJKG__M_PUB_ALL__e8__s20260927
     RDKit          3D

 55 56  0  0  0  0  0  0  0  0999 V2000
   12.3680  -13.0270    0.5240 C   0  0  0  0  0  0  0  0  0  0  0  0
   12.0380  -11.8450   -0.4000 C   0  0  0  0  0  0  0  0  0  0  0  0
   12.5960  -10.5450    0.1930 C   0  0  0  0  0  0  0  0  0  0  0  0
   12.6790  -12.0440   -1.8090 C   0  0  0  0  0  0  0  0  0  0  0  0
   11.7520  -12.6660   -2.8230 C   0  0  0  0  0  0  0  0  0  0  0  0
   10.8850  -12.0100   -3.3830 O   0  0  0  0  0  0  0  0  0  0  0  0
   11.8940  -14.0470   -3.2530 N   0  0  0  0  0  0  0  0  0  0  0  0
   11.5160  -15.0930   -2.2430 C   0  0  0  0  0  0  0  0  0  0  0  0
   12.6480  -16.1060   -2.2790 C   0  0  0  0  0  0  0  0  0  0  0  0
   13.2680  -15.9280   -3.6510 C   0  0  0  0  0  0  0  0  0  0  0  0
   13.2620  -14.4150   -3.8240 C   0  0  1  0  0  0  0  0  0  0  0  0
   13.3040  -13.9620   -5.2890 C   0  0  0  0  0  0  0  0  0  0  0  0
   14.6310  -14.2190   -5.7830 O   0  0  0  0  0  0  0  0  0  0  0  0
   10.5120  -11.7270   -0.5250 N   0  0  0  0  0  0  0  0  0  0  0  0
    9.5750  -12.6780    0.2610 C   0  0  0  0  0  0  0  0  0  0  0  0
    8.0690  -12.2810    0.2170 C   0  0  0  0  0  0  0  0  0  0  0  0
    7.6320  -11.3980    0.9350 O   0  0  0  0  0  0  0  0  0  0  0  0
    7.0780  -12.8450   -0.7670 N   0  0  0  0  0  0  0  0  0  0  0  0
    7.7720  -13.5430   -1.9580 C   0  0  0  0  0  0  0  0  0  0  0  0
    7.6990  -15.0210   -1.6060 C   0  0  1  0  0  0  0  0  0  0  0  0
    8.5540  -15.2770   -0.5810 F   0  0  0  0  0  0  0  0  0  0  0  0
    6.2980  -15.1630   -1.0630 C   0  0  0  0  0  0  0  0  0  0  0  0
    6.1350  -13.9390   -0.1680 C   0  0  1  0  0  0  0  0  0  0  0  0
    6.4500  -14.1860    1.2560 C   0  0  0  0  0  0  0  0  0  0  0  0
    6.8240  -14.0860    2.3520 N   0  0  0  0  0  0  0  0  0  0  0  0
   12.2790  -12.7083    1.5731 H   0  0  0  0  0  0  0  0  0  0  0  0
   11.6656  -13.8511    0.3303 H   0  0  0  0  0  0  0  0  0  0  0  0
   13.3957  -13.3680    0.3303 H   0  0  0  0  0  0  0  0  0  0  0  0
   12.5712  -10.6027    1.2912 H   0  0  0  0  0  0  0  0  0  0  0  0
   13.6338  -10.4043   -0.1435 H   0  0  0  0  0  0  0  0  0  0  0  0
   11.9831   -9.6958   -0.1435 H   0  0  0  0  0  0  0  0  0  0  0  0
   12.9952  -11.0606   -2.1870 H   0  0  0  0  0  0  0  0  0  0  0  0
   13.5215  -12.7394   -1.6797 H   0  0  0  0  0  0  0  0  0  0  0  0
   11.2880  -14.1630   -4.0880 H   0  0  0  0  0  0  0  0  0  0  0  0
   11.4278  -14.6480   -1.2409 H   0  0  0  0  0  0  0  0  0  0  0  0
   10.5435  -15.5536   -2.4712 H   0  0  0  0  0  0  0  0  0  0  0  0
   13.3839  -15.8960   -1.4888 H   0  0  0  0  0  0  0  0  0  0  0  0
   12.2969  -17.1342   -2.1072 H   0  0  0  0  0  0  0  0  0  0  0  0
   14.2928  -16.3268   -3.6785 H   0  0  0  0  0  0  0  0  0  0  0  0
   12.7289  -16.4617   -4.4475 H   0  0  0  0  0  0  0  0  0  0  0  0
   14.1392  -13.9509   -3.3495 H   0  0  0  0  0  0  0  0  0  0  0  0
   12.5676  -14.5279   -5.8784 H   0  0  0  0  0  0  0  0  0  0  0  0
   13.0602  -12.8925   -5.3711 H   0  0  0  0  0  0  0  0  0  0  0  0
   14.7730  -13.5910   -6.5280 H   0  0  0  0  0  0  0  0  0  0  0  0
   10.2750  -11.8210   -1.5340 H   0  0  0  0  0  0  0  0  0  0  0  0
   10.2140  -10.7490   -0.3170 H   0  0  0  0  0  0  0  0  0  0  0  0
    9.6768  -13.6882   -0.1623 H   0  0  0  0  0  0  0  0  0  0  0  0
    9.8834  -12.6211    1.3153 H   0  0  0  0  0  0  0  0  0  0  0  0
    6.5330  -12.0650   -1.1530 H   0  0  0  0  0  0  0  0  0  0  0  0
    7.2385  -13.3373   -2.8977 H   0  0  0  0  0  0  0  0  0  0  0  0
    8.8033  -13.1934   -2.1134 H   0  0  0  0  0  0  0  0  0  0  0  0
    7.9398  -15.6816   -2.4519 H   0  0  0  0  0  0  0  0  0  0  0  0
    5.5585  -15.1555   -1.8773 H   0  0  0  0  0  0  0  0  0  0  0  0
    6.1418  -16.1098   -0.5252 H   0  0  0  0  0  0  0  0  0  0  0  0
    5.0793  -13.6302   -0.1597 H   0  0  0  0  0  0  0  0  0  0  0  0
  1  2  1  0
  2  3  1  0
  2  4  1  0
  4  5  1  0
  5  6  2  0
  5  7  1  0
  7  8  1  0
  8  9  1  0
  9 10  1  0
 10 11  1  0
 11 12  1  0
 12 13  1  0
  2 14  1  0
 14 15  1  0
 15 16  1  0
 16 17  2  0
 16 18  1  0
 18 19  1  0
 19 20  1  0
 20 21  1  0
 20 22  1  0
 22 23  1  0
 23 24  1  0
 24 25  3  0
 11  7  1  0
 23 18  1  0
  1 26  1  0
  1 27  1  0
  1 28  1  0
  3 29  1  0
  3 30  1  0
  3 31  1  0
  4 32  1  0
  4 33  1  0
  7 34  1  0
  8 35  1  0
  8 36  1  0
  9 37  1  0
  9 38  1  0
 10 39  1  0
 10 40  1  0
 11 41  1  1
 12 42  1  0
 12 43  1  0
 13 44  1  0
 14 45  1  0
 14 46  1  0
 15 47  1  0
 15 48  1  0
 18 49  1  0
 19 50  1  0
 19 51  1  0
 20 52  1  6
 22 53  1  0
 22 54  1  0
 23 55  1  1
M  CHG  3   7   1  14   1  18   1
M  END
>  <meeko>  (9) 
{"is_sidechain": [false], "free_energy": -5.805, "intermolecular_energy": -8.563, "internal_energy": -0.948}

$$$$
