LIB_PULBQTCEWMDDKC__M_PUB_ALL__e8__s20260927
     RDKit          3D

 63 67  0  0  0  0  0  0  0  0999 V2000
   11.9160  -11.8980   -3.6190 O   0  0  0  0  0  0  0  0  0  0  0  0
   12.5500  -12.4660   -2.7340 C   0  0  0  0  0  0  0  0  0  0  0  0
   13.3800  -13.5660   -2.8610 N   0  0  0  0  0  0  0  0  0  0  0  0
   13.2830  -14.4360   -3.9680 C   0  0  0  0  0  0  0  0  0  0  0  0
   13.9090  -14.1490   -5.1810 C   0  0  0  0  0  0  0  0  0  0  0  0
   13.2580  -14.4660   -6.3620 C   0  0  0  0  0  0  0  0  0  0  0  0
   12.0000  -15.0680   -6.2850 C   0  0  0  0  0  0  0  0  0  0  0  0
   10.9640  -14.6970   -7.3130 C   0  0  0  0  0  0  0  0  0  0  0  0
   11.5680  -13.7840   -8.4130 C   0  0  0  0  0  0  0  0  0  0  0  0
   10.5570  -12.9590   -9.1520 N   0  0  0  0  0  0  0  0  0  0  0  0
    9.7870  -13.6890  -10.2100 C   0  0  0  0  0  0  0  0  0  0  0  0
    8.2550  -13.5830  -10.0110 C   0  0  2  0  0  0  0  0  0  0  0  0
    7.9350  -12.3030   -9.4610 O   0  0  0  0  0  0  0  0  0  0  0  0
    7.7640  -14.6760   -9.0910 C   0  0  0  0  0  0  0  0  0  0  0  0
    7.3680  -14.4210   -7.7720 C   0  0  0  0  0  0  0  0  0  0  0  0
    6.9900  -15.4730   -6.9460 C   0  0  0  0  0  0  0  0  0  0  0  0
    7.0340  -16.7570   -7.4610 C   0  0  0  0  0  0  0  0  0  0  0  0
    7.4160  -17.0480   -8.7230 N   0  0  0  0  0  0  0  0  0  0  0  0
    7.7430  -16.0020   -9.5160 C   0  0  0  0  0  0  0  0  0  0  0  0
   11.5930  -15.6910   -5.1010 C   0  0  0  0  0  0  0  0  0  0  0  0
   12.2550  -15.3770   -3.9200 C   0  0  0  0  0  0  0  0  0  0  0  0
   12.3800  -11.9580   -1.3680 C   0  0  0  0  0  0  0  0  0  0  0  0
   13.2990  -10.9820   -0.9480 C   0  0  0  0  0  0  0  0  0  0  0  0
   13.0840  -10.2820    0.2380 C   0  0  0  0  0  0  0  0  0  0  0  0
   11.9370  -10.5280    0.9870 C   0  0  0  0  0  0  0  0  0  0  0  0
   11.0130  -11.4860    0.5590 C   0  0  0  0  0  0  0  0  0  0  0  0
   11.2350  -12.2270   -0.6140 C   0  0  0  0  0  0  0  0  0  0  0  0
   10.1640  -13.3390   -0.9650 C   0  0  0  0  0  0  0  0  0  0  0  0
   10.1970  -14.6080   -0.4890 N   0  0  0  0  0  0  0  0  0  0  0  0
    9.6360  -15.4010   -1.4360 C   0  0  0  0  0  0  0  0  0  0  0  0
    9.6440  -16.7820   -1.6390 C   0  0  0  0  0  0  0  0  0  0  0  0
    8.9590  -17.2680   -2.7570 C   0  0  0  0  0  0  0  0  0  0  0  0
    8.2920  -16.4020   -3.6390 C   0  0  0  0  0  0  0  0  0  0  0  0
    8.2710  -15.0200   -3.4310 C   0  0  0  0  0  0  0  0  0  0  0  0
    8.9410  -14.5290   -2.3050 C   0  0  0  0  0  0  0  0  0  0  0  0
    9.0650  -13.2740   -1.7660 N   0  0  0  0  0  0  0  0  0  0  0  0
   13.6890  -13.9780   -1.9870 H   0  0  0  0  0  0  0  0  0  0  0  0
   14.9032  -13.6787   -5.1995 H   0  0  0  0  0  0  0  0  0  0  0  0
   13.7203  -14.2490   -7.3362 H   0  0  0  0  0  0  0  0  0  0  0  0
   10.5775  -15.6146   -7.7805 H   0  0  0  0  0  0  0  0  0  0  0  0
   10.1545  -14.1479   -6.8098 H   0  0  0  0  0  0  0  0  0  0  0  0
   12.2885  -13.1021   -7.9378 H   0  0  0  0  0  0  0  0  0  0  0  0
   12.0350  -14.4493   -9.1541 H   0  0  0  0  0  0  0  0  0  0  0  0
    9.8060  -12.6160   -8.4720 H   0  0  0  0  0  0  0  0  0  0  0  0
   10.9330  -12.0750   -9.5060 H   0  0  0  0  0  0  0  0  0  0  0  0
   10.0452  -13.2632  -11.1908 H   0  0  0  0  0  0  0  0  0  0  0  0
   10.0587  -14.7530  -10.1456 H   0  0  0  0  0  0  0  0  0  0  0  0
    7.7588  -13.6996  -10.9858 H   0  0  0  0  0  0  0  0  0  0  0  0
    8.7100  -12.0780   -8.8730 H   0  0  0  0  0  0  0  0  0  0  0  0
    7.3562  -13.3894   -7.3902 H   0  0  0  0  0  0  0  0  0  0  0  0
    6.6647  -15.2901   -5.9112 H   0  0  0  0  0  0  0  0  0  0  0  0
    6.7407  -17.5889   -6.8038 H   0  0  0  0  0  0  0  0  0  0  0  0
    8.0091  -16.2121  -10.5625 H   0  0  0  0  0  0  0  0  0  0  0  0
   10.7652  -16.4153   -5.1043 H   0  0  0  0  0  0  0  0  0  0  0  0
   11.9751  -15.8586   -2.9714 H   0  0  0  0  0  0  0  0  0  0  0  0
   14.1904  -10.7697   -1.5566 H   0  0  0  0  0  0  0  0  0  0  0  0
   13.8181   -9.5379    0.5807 H   0  0  0  0  0  0  0  0  0  0  0  0
   11.7573   -9.9681    1.9166 H   0  0  0  0  0  0  0  0  0  0  0  0
   10.1008  -11.6618    1.1480 H   0  0  0  0  0  0  0  0  0  0  0  0
   10.1673  -17.4596   -0.9484 H   0  0  0  0  0  0  0  0  0  0  0  0
    8.9422  -18.3509   -2.9497 H   0  0  0  0  0  0  0  0  0  0  0  0
    7.7739  -16.8213   -4.5141 H   0  0  0  0  0  0  0  0  0  0  0  0
    7.7485  -14.3452   -4.1250 H   0  0  0  0  0  0  0  0  0  0  0  0
  1  2  2  0
  2  3  1  0
  3  4  1  0
  4  5  2  0
  5  6  1  0
  6  7  2  0
  7  8  1  0
  8  9  1  0
  9 10  1  0
 10 11  1  0
 11 12  1  0
 12 13  1  0
 12 14  1  0
 14 15  2  0
 15 16  1  0
 16 17  2  0
 17 18  1  0
 18 19  2  0
  7 20  1  0
 20 21  2  0
  2 22  1  0
 22 23  2  0
 23 24  1  0
 24 25  2  0
 25 26  1  0
 26 27  2  0
 27 28  1  0
 28 29  2  0
 29 30  1  0
 30 31  2  0
 31 32  1  0
 32 33  2  0
 33 34  1  0
 34 35  2  0
 35 36  1  0
 21  4  1  0
 27 22  1  0
 36 28  1  0
 19 14  1  0
 35 30  1  0
  3 37  1  0
  5 38  1  0
  6 39  1  0
  8 40  1  0
  8 41  1  0
  9 42  1  0
  9 43  1  0
 10 44  1  0
 10 45  1  0
 11 46  1  0
 11 47  1  0
 12 48  1  6
 13 49  1  0
 15 50  1  0
 16 51  1  0
 17 52  1  0
 19 53  1  0
 20 54  1  0
 21 55  1  0
 23 56  1  0
 24 57  1  0
 25 58  1  0
 26 59  1  0
 31 60  1  0
 32 61  1  0
 33 62  1  0
 34 63  1  0
M  CHG  2  10   1  36  -1
M  END
>  <meeko>  (1) 
{"is_sidechain": [false], "free_energy": -7.549, "intermolecular_energy": -11.742, "internal_energy": -3.063}

$$$$
LIB_PULBQTCEWMDDKC__M_PUB_ALL__e8__s20260927
     RDKit          3D

 63 67  0  0  0  0  0  0  0  0999 V2000
    0.8170  -14.4240   -2.4790 O   0  0  0  0  0  0  0  0  0  0  0  0
    0.6710  -14.1000   -1.3030 C   0  0  0  0  0  0  0  0  0  0  0  0
    1.0940  -12.9340   -0.6890 N   0  0  0  0  0  0  0  0  0  0  0  0
    2.1170  -12.1390   -1.2480 C   0  0  0  0  0  0  0  0  0  0  0  0
    1.8310  -11.0470   -2.0660 C   0  0  0  0  0  0  0  0  0  0  0  0
    2.6480  -10.7940   -3.1550 C   0  0  0  0  0  0  0  0  0  0  0  0
    3.7330  -11.6440   -3.3830 C   0  0  0  0  0  0  0  0  0  0  0  0
    4.1040  -11.9680   -4.8060 C   0  0  0  0  0  0  0  0  0  0  0  0
    5.1570  -13.1070   -4.8650 C   0  0  0  0  0  0  0  0  0  0  0  0
    6.5620  -12.6340   -5.0910 N   0  0  0  0  0  0  0  0  0  0  0  0
    7.4830  -12.7870   -3.9190 C   0  0  0  0  0  0  0  0  0  0  0  0
    7.7130  -11.4540   -3.1660 C   0  0  2  0  0  0  0  0  0  0  0  0
    8.8780  -10.8090   -3.6860 O   0  0  0  0  0  0  0  0  0  0  0  0
    7.8790  -11.7030   -1.6860 C   0  0  0  0  0  0  0  0  0  0  0  0
    7.0210  -11.1430   -0.7320 C   0  0  0  0  0  0  0  0  0  0  0  0
    7.2610  -11.3480    0.6220 C   0  0  0  0  0  0  0  0  0  0  0  0
    8.3650  -12.1000    0.9840 C   0  0  0  0  0  0  0  0  0  0  0  0
    9.2210  -12.6530    0.0980 N   0  0  0  0  0  0  0  0  0  0  0  0
    8.9430  -12.4670   -1.2130 C   0  0  0  0  0  0  0  0  0  0  0  0
    4.2150  -12.4560   -2.3500 C   0  0  0  0  0  0  0  0  0  0  0  0
    3.3940  -12.7000   -1.2560 C   0  0  0  0  0  0  0  0  0  0  0  0
    0.0150  -15.0750   -0.4240 C   0  0  0  0  0  0  0  0  0  0  0  0
   -1.3710  -14.9210   -0.2500 C   0  0  0  0  0  0  0  0  0  0  0  0
   -2.1120  -15.9200    0.3780 C   0  0  0  0  0  0  0  0  0  0  0  0
   -1.4810  -17.0870    0.7990 C   0  0  0  0  0  0  0  0  0  0  0  0
   -0.1060  -17.2470    0.6090 C   0  0  0  0  0  0  0  0  0  0  0  0
    0.6620  -16.2330    0.0130 C   0  0  0  0  0  0  0  0  0  0  0  0
    2.2210  -16.4870   -0.0850 C   0  0  0  0  0  0  0  0  0  0  0  0
    3.0870  -16.3280    0.9470 N   0  0  0  0  0  0  0  0  0  0  0  0
    4.2770  -15.9580    0.4120 C   0  0  0  0  0  0  0  0  0  0  0  0
    5.4280  -15.3950    0.9650 C   0  0  0  0  0  0  0  0  0  0  0  0
    6.4870  -15.1190    0.0940 C   0  0  0  0  0  0  0  0  0  0  0  0
    6.3950  -15.3960   -1.2790 C   0  0  0  0  0  0  0  0  0  0  0  0
    5.2490  -15.9730   -1.8340 C   0  0  0  0  0  0  0  0  0  0  0  0
    4.1920  -16.2660   -0.9660 C   0  0  0  0  0  0  0  0  0  0  0  0
    2.9800  -16.8810   -1.1450 N   0  0  0  0  0  0  0  0  0  0  0  0
    1.0140  -12.9250    0.3230 H   0  0  0  0  0  0  0  0  0  0  0  0
    0.9704  -10.3969   -1.8499 H   0  0  0  0  0  0  0  0  0  0  0  0
    2.4476   -9.9444   -3.8243 H   0  0  0  0  0  0  0  0  0  0  0  0
    3.2014  -12.2850   -5.3490 H   0  0  0  0  0  0  0  0  0  0  0  0
    4.5373  -11.0682   -5.2670 H   0  0  0  0  0  0  0  0  0  0  0  0
    5.1265  -13.6547   -3.9115 H   0  0  0  0  0  0  0  0  0  0  0  0
    4.8931  -13.7372   -5.7271 H   0  0  0  0  0  0  0  0  0  0  0  0
    7.0200  -13.2190   -5.8600 H   0  0  0  0  0  0  0  0  0  0  0  0
    6.6160  -11.6920   -5.4890 H   0  0  0  0  0  0  0  0  0  0  0  0
    7.0463  -13.5158   -3.2203 H   0  0  0  0  0  0  0  0  0  0  0  0
    8.4568  -13.1262   -4.3020 H   0  0  0  0  0  0  0  0  0  0  0  0
    6.8368  -10.8053   -3.3128 H   0  0  0  0  0  0  0  0  0  0  0  0
    9.1600  -11.3770   -4.4570 H   0  0  0  0  0  0  0  0  0  0  0  0
    6.1579  -10.5415   -1.0533 H   0  0  0  0  0  0  0  0  0  0  0  0
    6.5915  -10.9240    1.3849 H   0  0  0  0  0  0  0  0  0  0  0  0
    8.5563  -12.2563    2.0559 H   0  0  0  0  0  0  0  0  0  0  0  0
    9.5990  -12.9499   -1.9522 H   0  0  0  0  0  0  0  0  0  0  0  0
    5.2234  -12.8922   -2.4032 H   0  0  0  0  0  0  0  0  0  0  0  0
    3.7424  -13.3202   -0.4170 H   0  0  0  0  0  0  0  0  0  0  0  0
   -1.8717  -14.0102   -0.6102 H   0  0  0  0  0  0  0  0  0  0  0  0
   -3.1918  -15.7869    0.5405 H   0  0  0  0  0  0  0  0  0  0  0  0
   -2.0654  -17.8841    1.2818 H   0  0  0  0  0  0  0  0  0  0  0  0
    0.3815  -18.1792    0.9304 H   0  0  0  0  0  0  0  0  0  0  0  0
    5.4994  -15.1774    2.0409 H   0  0  0  0  0  0  0  0  0  0  0  0
    7.4111  -14.6757    0.4932 H   0  0  0  0  0  0  0  0  0  0  0  0
    7.2449  -15.1533   -1.9338 H   0  0  0  0  0  0  0  0  0  0  0  0
    5.1812  -16.1881   -2.9106 H   0  0  0  0  0  0  0  0  0  0  0  0
  1  2  2  0
  2  3  1  0
  3  4  1  0
  4  5  2  0
  5  6  1  0
  6  7  2  0
  7  8  1  0
  8  9  1  0
  9 10  1  0
 10 11  1  0
 11 12  1  0
 12 13  1  0
 12 14  1  0
 14 15  2  0
 15 16  1  0
 16 17  2  0
 17 18  1  0
 18 19  2  0
  7 20  1  0
 20 21  2  0
  2 22  1  0
 22 23  2  0
 23 24  1  0
 24 25  2  0
 25 26  1  0
 26 27  2  0
 27 28  1  0
 28 29  2  0
 29 30  1  0
 30 31  2  0
 31 32  1  0
 32 33  2  0
 33 34  1  0
 34 35  2  0
 35 36  1  0
 21  4  1  0
 27 22  1  0
 36 28  1  0
 19 14  1  0
 35 30  1  0
  3 37  1  0
  5 38  1  0
  6 39  1  0
  8 40  1  0
  8 41  1  0
  9 42  1  0
  9 43  1  0
 10 44  1  0
 10 45  1  0
 11 46  1  0
 11 47  1  0
 12 48  1  1
 13 49  1  0
 15 50  1  0
 16 51  1  0
 17 52  1  0
 19 53  1  0
 20 54  1  0
 21 55  1  0
 23 56  1  0
 24 57  1  0
 25 58  1  0
 26 59  1  0
 31 60  1  0
 32 61  1  0
 33 62  1  0
 34 63  1  0
M  CHG  2  10   1  36  -1
M  END
>  <meeko>  (2) 
{"is_sidechain": [false], "free_energy": -7.4, "intermolecular_energy": -11.069, "internal_energy": -3.504}

$$$$
LIB_PULBQTCEWMDDKC__M_PUB_ALL__e8__s20260927
     RDKit          3D

 63 67  0  0  0  0  0  0  0  0999 V2000
    1.0560  -14.3530    1.6830 O   0  0  0  0  0  0  0  0  0  0  0  0
    0.0920  -14.0120    1.0010 C   0  0  0  0  0  0  0  0  0  0  0  0
   -0.4390  -14.6650   -0.0980 N   0  0  0  0  0  0  0  0  0  0  0  0
    0.3180  -15.6030   -0.8320 C   0  0  0  0  0  0  0  0  0  0  0  0
    0.4010  -16.9390   -0.4440 C   0  0  0  0  0  0  0  0  0  0  0  0
    1.6070  -17.6050   -0.5930 C   0  0  0  0  0  0  0  0  0  0  0  0
    2.6890  -16.9070   -1.1350 C   0  0  0  0  0  0  0  0  0  0  0  0
    4.0670  -17.1920   -0.6000 C   0  0  0  0  0  0  0  0  0  0  0  0
    4.6980  -15.9200    0.0290 C   0  0  0  0  0  0  0  0  0  0  0  0
    4.2030  -15.6050    1.4080 N   0  0  0  0  0  0  0  0  0  0  0  0
    4.1660  -14.1480    1.7560 C   0  0  0  0  0  0  0  0  0  0  0  0
    5.4740  -13.6640    2.4300 C   0  0  2  0  0  0  0  0  0  0  0  0
    5.1540  -12.9220    3.6090 O   0  0  0  0  0  0  0  0  0  0  0  0
    6.2720  -12.8030    1.4800 C   0  0  0  0  0  0  0  0  0  0  0  0
    6.1130  -11.4140    1.4170 C   0  0  0  0  0  0  0  0  0  0  0  0
    6.8220  -10.6760    0.4760 C   0  0  0  0  0  0  0  0  0  0  0  0
    7.6630  -11.3550   -0.3890 C   0  0  0  0  0  0  0  0  0  0  0  0
    7.8400  -12.6940   -0.3670 N   0  0  0  0  0  0  0  0  0  0  0  0
    7.1660  -13.3820    0.5820 C   0  0  0  0  0  0  0  0  0  0  0  0
    2.4690  -15.7340   -1.8650 C   0  0  0  0  0  0  0  0  0  0  0  0
    1.2550  -15.0740   -1.7190 C   0  0  0  0  0  0  0  0  0  0  0  0
   -0.5510  -12.7410    1.3540 C   0  0  0  0  0  0  0  0  0  0  0  0
   -1.6510  -12.8220    2.2240 C   0  0  0  0  0  0  0  0  0  0  0  0
   -2.1810  -11.6640    2.7900 C   0  0  0  0  0  0  0  0  0  0  0  0
   -1.5950  -10.4310    2.5180 C   0  0  0  0  0  0  0  0  0  0  0  0
   -0.4900  -10.3540    1.6660 C   0  0  0  0  0  0  0  0  0  0  0  0
    0.0330  -11.5080    1.0570 C   0  0  0  0  0  0  0  0  0  0  0  0
    1.2370  -11.2970    0.0520 C   0  0  0  0  0  0  0  0  0  0  0  0
    1.1060  -10.7970   -1.2020 N   0  0  0  0  0  0  0  0  0  0  0  0
    2.0810  -11.3620   -1.9570 C   0  0  0  0  0  0  0  0  0  0  0  0
    2.2730  -11.4580   -3.3360 C   0  0  0  0  0  0  0  0  0  0  0  0
    3.4080  -12.1450   -3.7770 C   0  0  0  0  0  0  0  0  0  0  0  0
    4.3170  -12.7160   -2.8700 C   0  0  0  0  0  0  0  0  0  0  0  0
    4.1340  -12.6090   -1.4890 C   0  0  0  0  0  0  0  0  0  0  0  0
    3.0090  -11.9090   -1.0400 C   0  0  0  0  0  0  0  0  0  0  0  0
    2.5640  -11.5580    0.2080 N   0  0  0  0  0  0  0  0  0  0  0  0
   -1.1380  -14.1410   -0.6150 H   0  0  0  0  0  0  0  0  0  0  0  0
   -0.4757  -17.4559   -0.0267 H   0  0  0  0  0  0  0  0  0  0  0  0
    1.7099  -18.6579   -0.2918 H   0  0  0  0  0  0  0  0  0  0  0  0
    3.9988  -17.9764    0.1682 H   0  0  0  0  0  0  0  0  0  0  0  0
    4.7039  -17.5214   -1.4342 H   0  0  0  0  0  0  0  0  0  0  0  0
    5.7874  -16.0639    0.0783 H   0  0  0  0  0  0  0  0  0  0  0  0
    4.4078  -15.0740   -0.6114 H   0  0  0  0  0  0  0  0  0  0  0  0
    3.1870  -15.9230    1.5080 H   0  0  0  0  0  0  0  0  0  0  0  0
    4.6630  -16.1530    2.1410 H   0  0  0  0  0  0  0  0  0  0  0  0
    4.0097  -13.5692    0.8337 H   0  0  0  0  0  0  0  0  0  0  0  0
    3.3457  -13.9971    2.4731 H   0  0  0  0  0  0  0  0  0  0  0  0
    6.0826  -14.5397    2.6998 H   0  0  0  0  0  0  0  0  0  0  0  0
    5.4740  -13.4930    4.3630 H   0  0  0  0  0  0  0  0  0  0  0  0
    5.4275  -10.9065    2.1116 H   0  0  0  0  0  0  0  0  0  0  0  0
    6.7176   -9.5824    0.4203 H   0  0  0  0  0  0  0  0  0  0  0  0
    8.2189  -10.7707   -1.1370 H   0  0  0  0  0  0  0  0  0  0  0  0
    7.3341  -14.4670    0.6492 H   0  0  0  0  0  0  0  0  0  0  0  0
    3.2424  -15.3416   -2.5417 H   0  0  0  0  0  0  0  0  0  0  0  0
    1.0387  -14.1580   -2.2883 H   0  0  0  0  0  0  0  0  0  0  0  0
   -2.0946  -13.8008    2.4588 H   0  0  0  0  0  0  0  0  0  0  0  0
   -3.0594  -11.7241    3.4494 H   0  0  0  0  0  0  0  0  0  0  0  0
   -2.0021   -9.5165    2.9741 H   0  0  0  0  0  0  0  0  0  0  0  0
   -0.0233   -9.3775    1.4693 H   0  0  0  0  0  0  0  0  0  0  0  0
    1.5612  -11.0119   -4.0461 H   0  0  0  0  0  0  0  0  0  0  0  0
    3.5935  -12.2406   -4.8570 H   0  0  0  0  0  0  0  0  0  0  0  0
    5.1921  -13.2593   -3.2559 H   0  0  0  0  0  0  0  0  0  0  0  0
    4.8471  -13.0579   -0.7819 H   0  0  0  0  0  0  0  0  0  0  0  0
  1  2  2  0
  2  3  1  0
  3  4  1  0
  4  5  2  0
  5  6  1  0
  6  7  2  0
  7  8  1  0
  8  9  1  0
  9 10  1  0
 10 11  1  0
 11 12  1  0
 12 13  1  0
 12 14  1  0
 14 15  2  0
 15 16  1  0
 16 17  2  0
 17 18  1  0
 18 19  2  0
  7 20  1  0
 20 21  2  0
  2 22  1  0
 22 23  2  0
 23 24  1  0
 24 25  2  0
 25 26  1  0
 26 27  2  0
 27 28  1  0
 28 29  2  0
 29 30  1  0
 30 31  2  0
 31 32  1  0
 32 33  2  0
 33 34  1  0
 34 35  2  0
 35 36  1  0
 21  4  1  0
 27 22  1  0
 36 28  1  0
 19 14  1  0
 35 30  1  0
  3 37  1  0
  5 38  1  0
  6 39  1  0
  8 40  1  0
  8 41  1  0
  9 42  1  0
  9 43  1  0
 10 44  1  0
 10 45  1  0
 11 46  1  0
 11 47  1  0
 12 48  1  1
 13 49  1  0
 15 50  1  0
 16 51  1  0
 17 52  1  0
 19 53  1  0
 20 54  1  0
 21 55  1  0
 23 56  1  0
 24 57  1  0
 25 58  1  0
 26 59  1  0
 31 60  1  0
 32 61  1  0
 33 62  1  0
 34 63  1  0
M  CHG  2  10   1  36  -1
M  END
>  <meeko>  (3) 
{"is_sidechain": [false], "free_energy": -7.369, "intermolecular_energy": -11.268, "internal_energy": -3.257}

$$$$
LIB_PULBQTCEWMDDKC__M_PUB_ALL__e8__s20260927
     RDKit          3D

 63 67  0  0  0  0  0  0  0  0999 V2000
   -0.1130  -14.8500   -1.5050 O   0  0  0  0  0  0  0  0  0  0  0  0
    0.7610  -14.2480   -0.8860 C   0  0  0  0  0  0  0  0  0  0  0  0
    1.5550  -13.2090   -1.3400 N   0  0  0  0  0  0  0  0  0  0  0  0
    1.7440  -12.9770   -2.7180 C   0  0  0  0  0  0  0  0  0  0  0  0
    1.6490  -14.0070   -3.6530 C   0  0  0  0  0  0  0  0  0  0  0  0
    2.5220  -14.0170   -4.7290 C   0  0  0  0  0  0  0  0  0  0  0  0
    3.4580  -12.9860   -4.8340 C   0  0  0  0  0  0  0  0  0  0  0  0
    4.8290  -13.3130   -5.3660 C   0  0  0  0  0  0  0  0  0  0  0  0
    5.9190  -12.4560   -4.6700 C   0  0  0  0  0  0  0  0  0  0  0  0
    7.0050  -13.2550   -4.0150 N   0  0  0  0  0  0  0  0  0  0  0  0
    7.4870  -12.7210   -2.7000 C   0  0  0  0  0  0  0  0  0  0  0  0
    6.5480  -11.6340   -2.1200 C   0  0  2  0  0  0  0  0  0  0  0  0
    7.2290  -10.3780   -2.1050 O   0  0  0  0  0  0  0  0  0  0  0  0
    6.1130  -12.0020   -0.7210 C   0  0  0  0  0  0  0  0  0  0  0  0
    4.8730  -12.5940   -0.4560 C   0  0  0  0  0  0  0  0  0  0  0  0
    4.4930  -12.8480    0.8570 C   0  0  0  0  0  0  0  0  0  0  0  0
    5.3630  -12.4880    1.8720 C   0  0  0  0  0  0  0  0  0  0  0  0
    6.5650  -11.9090    1.6600 N   0  0  0  0  0  0  0  0  0  0  0  0
    6.9240  -11.7070    0.3720 C   0  0  0  0  0  0  0  0  0  0  0  0
    3.2670  -11.7920   -4.1310 C   0  0  0  0  0  0  0  0  0  0  0  0
    2.3840  -11.7840   -3.0570 C   0  0  0  0  0  0  0  0  0  0  0  0
    1.0390  -14.7060    0.4800 C   0  0  0  0  0  0  0  0  0  0  0  0
    2.1250  -15.5840    0.6320 C   0  0  0  0  0  0  0  0  0  0  0  0
    2.6030  -15.8930    1.9050 C   0  0  0  0  0  0  0  0  0  0  0  0
    2.0230  -15.2990    3.0230 C   0  0  0  0  0  0  0  0  0  0  0  0
    0.9550  -14.4120    2.8690 C   0  0  0  0  0  0  0  0  0  0  0  0
    0.4370  -14.1200    1.5960 C   0  0  0  0  0  0  0  0  0  0  0  0
   -0.8220  -13.1620    1.5430 C   0  0  0  0  0  0  0  0  0  0  0  0
   -2.1040  -13.5900    1.4330 N   0  0  0  0  0  0  0  0  0  0  0  0
   -2.7850  -12.6290    0.7600 C   0  0  0  0  0  0  0  0  0  0  0  0
   -4.0240  -12.6240    0.1160 C   0  0  0  0  0  0  0  0  0  0  0  0
   -4.4160  -11.4350   -0.5060 C   0  0  0  0  0  0  0  0  0  0  0  0
   -3.5970  -10.2940   -0.4860 C   0  0  0  0  0  0  0  0  0  0  0  0
   -2.3620  -10.2930    0.1700 C   0  0  0  0  0  0  0  0  0  0  0  0
   -1.9710  -11.4740    0.8080 C   0  0  0  0  0  0  0  0  0  0  0  0
   -0.8900  -11.8030    1.5850 N   0  0  0  0  0  0  0  0  0  0  0  0
    2.3220  -12.9520   -0.7270 H   0  0  0  0  0  0  0  0  0  0  0  0
    0.8937  -14.7984   -3.5384 H   0  0  0  0  0  0  0  0  0  0  0  0
    2.4788  -14.8176   -5.4821 H   0  0  0  0  0  0  0  0  0  0  0  0
    5.0396  -14.3774   -5.1854 H   0  0  0  0  0  0  0  0  0  0  0  0
    4.8468  -13.0919   -6.4434 H   0  0  0  0  0  0  0  0  0  0  0  0
    6.3795  -11.8033   -5.4263 H   0  0  0  0  0  0  0  0  0  0  0  0
    5.4152  -11.8932   -3.8704 H   0  0  0  0  0  0  0  0  0  0  0  0
    6.6430  -14.2340   -3.7820 H   0  0  0  0  0  0  0  0  0  0  0  0
    7.7870  -13.4680   -4.6400 H   0  0  0  0  0  0  0  0  0  0  0  0
    7.5487  -13.5528   -1.9829 H   0  0  0  0  0  0  0  0  0  0  0  0
    8.4704  -12.2576   -2.8681 H   0  0  0  0  0  0  0  0  0  0  0  0
    5.6520  -11.5593   -2.7538 H   0  0  0  0  0  0  0  0  0  0  0  0
    7.0010   -9.9750   -1.2200 H   0  0  0  0  0  0  0  0  0  0  0  0
    4.2001  -12.8579   -1.2852 H   0  0  0  0  0  0  0  0  0  0  0  0
    3.5267  -13.3224    1.0834 H   0  0  0  0  0  0  0  0  0  0  0  0
    5.0581  -12.6847    2.9104 H   0  0  0  0  0  0  0  0  0  0  0  0
    7.9196  -11.2828    0.1752 H   0  0  0  0  0  0  0  0  0  0  0  0
    3.8046  -10.8775   -4.4220 H   0  0  0  0  0  0  0  0  0  0  0  0
    2.1947  -10.8611   -2.4891 H   0  0  0  0  0  0  0  0  0  0  0  0
    2.5994  -16.0288   -0.2552 H   0  0  0  0  0  0  0  0  0  0  0  0
    3.4346  -16.6029    2.0255 H   0  0  0  0  0  0  0  0  0  0  0  0
    2.4062  -15.5285    4.0282 H   0  0  0  0  0  0  0  0  0  0  0  0
    0.5134  -13.9355    3.7566 H   0  0  0  0  0  0  0  0  0  0  0  0
   -4.6646  -13.5180    0.0988 H   0  0  0  0  0  0  0  0  0  0  0  0
   -5.3865  -11.3920   -1.0221 H   0  0  0  0  0  0  0  0  0  0  0  0
   -3.9347   -9.3808   -0.9978 H   0  0  0  0  0  0  0  0  0  0  0  0
   -1.7230   -9.3978    0.1835 H   0  0  0  0  0  0  0  0  0  0  0  0
  1  2  2  0
  2  3  1  0
  3  4  1  0
  4  5  2  0
  5  6  1  0
  6  7  2  0
  7  8  1  0
  8  9  1  0
  9 10  1  0
 10 11  1  0
 11 12  1  0
 12 13  1  0
 12 14  1  0
 14 15  2  0
 15 16  1  0
 16 17  2  0
 17 18  1  0
 18 19  2  0
  7 20  1  0
 20 21  2  0
  2 22  1  0
 22 23  2  0
 23 24  1  0
 24 25  2  0
 25 26  1  0
 26 27  2  0
 27 28  1  0
 28 29  2  0
 29 30  1  0
 30 31  2  0
 31 32  1  0
 32 33  2  0
 33 34  1  0
 34 35  2  0
 35 36  1  0
 21  4  1  0
 27 22  1  0
 36 28  1  0
 19 14  1  0
 35 30  1  0
  3 37  1  0
  5 38  1  0
  6 39  1  0
  8 40  1  0
  8 41  1  0
  9 42  1  0
  9 43  1  0
 10 44  1  0
 10 45  1  0
 11 46  1  0
 11 47  1  0
 12 48  1  6
 13 49  1  0
 15 50  1  0
 16 51  1  0
 17 52  1  0
 19 53  1  0
 20 54  1  0
 21 55  1  0
 23 56  1  0
 24 57  1  0
 25 58  1  0
 26 59  1  0
 31 60  1  0
 32 61  1  0
 33 62  1  0
 34 63  1  0
M  CHG  2  10   1  36  -1
M  END
>  <meeko>  (4) 
{"is_sidechain": [false], "free_energy": -7.342, "intermolecular_energy": -12.144, "internal_energy": -2.339}

$$$$
LIB_PULBQTCEWMDDKC__M_PUB_ALL__e8__s20260927
     RDKit          3D

 63 67  0  0  0  0  0  0  0  0999 V2000
   11.9680  -12.0460   -3.6600 O   0  0  0  0  0  0  0  0  0  0  0  0
   12.6060  -12.5710   -2.7510 C   0  0  0  0  0  0  0  0  0  0  0  0
   13.4850  -13.6360   -2.8410 N   0  0  0  0  0  0  0  0  0  0  0  0
   13.4500  -14.5280   -3.9340 C   0  0  0  0  0  0  0  0  0  0  0  0
   14.0760  -14.2270   -5.1430 C   0  0  0  0  0  0  0  0  0  0  0  0
   13.4590  -14.5990   -6.3260 C   0  0  0  0  0  0  0  0  0  0  0  0
   12.2350  -15.2680   -6.2550 C   0  0  0  0  0  0  0  0  0  0  0  0
   11.1940  -14.9720   -7.3020 C   0  0  0  0  0  0  0  0  0  0  0  0
    9.9110  -14.3750   -6.6640 C   0  0  0  0  0  0  0  0  0  0  0  0
    8.7150  -14.3770   -7.5680 N   0  0  0  0  0  0  0  0  0  0  0  0
    7.3970  -14.5730   -6.8830 C   0  0  0  0  0  0  0  0  0  0  0  0
    6.3110  -13.5940   -7.3910 C   0  0  2  0  0  0  0  0  0  0  0  0
    6.9090  -12.6340   -8.2660 O   0  0  0  0  0  0  0  0  0  0  0  0
    5.6480  -12.8900   -6.2300 C   0  0  0  0  0  0  0  0  0  0  0  0
    4.4320  -12.2090   -6.3650 C   0  0  0  0  0  0  0  0  0  0  0  0
    3.9000  -11.5190   -5.2820 C   0  0  0  0  0  0  0  0  0  0  0  0
    4.6110  -11.5190   -4.0940 C   0  0  0  0  0  0  0  0  0  0  0  0
    5.7890  -12.1560   -3.9230 N   0  0  0  0  0  0  0  0  0  0  0  0
    6.2650  -12.8490   -4.9830 C   0  0  0  0  0  0  0  0  0  0  0  0
   11.8470  -15.8930   -5.0650 C   0  0  0  0  0  0  0  0  0  0  0  0
   12.4740  -15.5230   -3.8810 C   0  0  0  0  0  0  0  0  0  0  0  0
   12.3830  -12.0470   -1.3990 C   0  0  0  0  0  0  0  0  0  0  0  0
   13.2370  -11.0120   -0.9840 C   0  0  0  0  0  0  0  0  0  0  0  0
   12.9620  -10.3030    0.1840 C   0  0  0  0  0  0  0  0  0  0  0  0
   11.8180  -10.6010    0.9190 C   0  0  0  0  0  0  0  0  0  0  0  0
   10.9590  -11.6190    0.4970 C   0  0  0  0  0  0  0  0  0  0  0  0
   11.2430  -12.3690   -0.6580 C   0  0  0  0  0  0  0  0  0  0  0  0
   10.2440  -13.5470   -1.0030 C   0  0  0  0  0  0  0  0  0  0  0  0
   10.3370  -14.8010   -0.4930 N   0  0  0  0  0  0  0  0  0  0  0  0
    9.8440  -15.6460   -1.4320 C   0  0  0  0  0  0  0  0  0  0  0  0
    9.9330  -17.0300   -1.5990 C   0  0  0  0  0  0  0  0  0  0  0  0
    9.3030  -17.5800   -2.7180 C   0  0  0  0  0  0  0  0  0  0  0  0
    8.6100  -16.7760   -3.6380 C   0  0  0  0  0  0  0  0  0  0  0  0
    8.5070  -15.3930   -3.4650 C   0  0  0  0  0  0  0  0  0  0  0  0
    9.1210  -14.8360   -2.3390 C   0  0  0  0  0  0  0  0  0  0  0  0
    9.1630  -13.5640   -1.8300 N   0  0  0  0  0  0  0  0  0  0  0  0
   13.7910  -14.0190   -1.9520 H   0  0  0  0  0  0  0  0  0  0  0  0
   15.0432  -13.7032   -5.1571 H   0  0  0  0  0  0  0  0  0  0  0  0
   13.9218  -14.3730   -7.2980 H   0  0  0  0  0  0  0  0  0  0  0  0
   11.6054  -14.2504   -8.0232 H   0  0  0  0  0  0  0  0  0  0  0  0
   10.9277  -15.9135   -7.8047 H   0  0  0  0  0  0  0  0  0  0  0  0
    9.6662  -14.9632   -5.7673 H   0  0  0  0  0  0  0  0  0  0  0  0
   10.1326  -13.3218   -6.4366 H   0  0  0  0  0  0  0  0  0  0  0  0
    8.6220  -13.4240   -8.0450 H   0  0  0  0  0  0  0  0  0  0  0  0
    8.8150  -15.0010   -8.3730 H   0  0  0  0  0  0  0  0  0  0  0  0
    7.0555  -15.6029   -7.0641 H   0  0  0  0  0  0  0  0  0  0  0  0
    7.5464  -14.3778   -5.8108 H   0  0  0  0  0  0  0  0  0  0  0  0
    5.5438  -14.1626   -7.9370 H   0  0  0  0  0  0  0  0  0  0  0  0
    6.8940  -11.7780   -7.7520 H   0  0  0  0  0  0  0  0  0  0  0  0
    3.8984  -12.2201   -7.3269 H   0  0  0  0  0  0  0  0  0  0  0  0
    2.9406  -10.9876   -5.3665 H   0  0  0  0  0  0  0  0  0  0  0  0
    4.1916  -10.9678   -3.2395 H   0  0  0  0  0  0  0  0  0  0  0  0
    7.1985  -13.4158   -4.8510 H   0  0  0  0  0  0  0  0  0  0  0  0
   11.0609  -16.6624   -5.0664 H   0  0  0  0  0  0  0  0  0  0  0  0
   12.2075  -16.0022   -2.9274 H   0  0  0  0  0  0  0  0  0  0  0  0
   14.1251  -10.7604   -1.5823 H   0  0  0  0  0  0  0  0  0  0  0  0
   13.6460   -9.5113    0.5236 H   0  0  0  0  0  0  0  0  0  0  0  0
   11.5899  -10.0341    1.8336 H   0  0  0  0  0  0  0  0  0  0  0  0
   10.0491  -11.8365    1.0756 H   0  0  0  0  0  0  0  0  0  0  0  0
   10.4763  -17.6603   -0.8796 H   0  0  0  0  0  0  0  0  0  0  0  0
    9.3507  -18.6666   -2.8823 H   0  0  0  0  0  0  0  0  0  0  0  0
    8.1380  -17.2452   -4.5138 H   0  0  0  0  0  0  0  0  0  0  0  0
    7.9634  -14.7663   -4.1874 H   0  0  0  0  0  0  0  0  0  0  0  0
  1  2  2  0
  2  3  1  0
  3  4  1  0
  4  5  2  0
  5  6  1  0
  6  7  2  0
  7  8  1  0
  8  9  1  0
  9 10  1  0
 10 11  1  0
 11 12  1  0
 12 13  1  0
 12 14  1  0
 14 15  2  0
 15 16  1  0
 16 17  2  0
 17 18  1  0
 18 19  2  0
  7 20  1  0
 20 21  2  0
  2 22  1  0
 22 23  2  0
 23 24  1  0
 24 25  2  0
 25 26  1  0
 26 27  2  0
 27 28  1  0
 28 29  2  0
 29 30  1  0
 30 31  2  0
 31 32  1  0
 32 33  2  0
 33 34  1  0
 34 35  2  0
 35 36  1  0
 21  4  1  0
 27 22  1  0
 36 28  1  0
 19 14  1  0
 35 30  1  0
  3 37  1  0
  5 38  1  0
  6 39  1  0
  8 40  1  0
  8 41  1  0
  9 42  1  0
  9 43  1  0
 10 44  1  0
 10 45  1  0
 11 46  1  0
 11 47  1  0
 12 48  1  6
 13 49  1  0
 15 50  1  0
 16 51  1  0
 17 52  1  0
 19 53  1  0
 20 54  1  0
 21 55  1  0
 23 56  1  0
 24 57  1  0
 25 58  1  0
 26 59  1  0
 31 60  1  0
 32 61  1  0
 33 62  1  0
 34 63  1  0
M  CHG  2  10   1  36  -1
M  END
>  <meeko>  (5) 
{"is_sidechain": [false], "free_energy": -7.265, "intermolecular_energy": -11.568, "internal_energy": -2.795}

$$$$
LIB_PULBQTCEWMDDKC__M_PUB_ALL__e8__s20260927
     RDKit          3D

 63 67  0  0  0  0  0  0  0  0999 V2000
    7.3610  -15.6600   -0.3500 O   0  0  0  0  0  0  0  0  0  0  0  0
    7.9200  -14.7100   -0.8920 C   0  0  0  0  0  0  0  0  0  0  0  0
    9.0060  -14.7460   -1.7490 N   0  0  0  0  0  0  0  0  0  0  0  0
    9.8740  -15.8580   -1.7900 C   0  0  0  0  0  0  0  0  0  0  0  0
   10.9450  -15.9820   -0.9050 C   0  0  0  0  0  0  0  0  0  0  0  0
   12.1360  -16.5160   -1.3670 C   0  0  0  0  0  0  0  0  0  0  0  0
   12.2110  -16.9150   -2.7040 C   0  0  0  0  0  0  0  0  0  0  0  0
   13.5050  -16.7030   -3.4450 C   0  0  0  0  0  0  0  0  0  0  0  0
   13.4630  -15.3980   -4.2850 C   0  0  0  0  0  0  0  0  0  0  0  0
   13.9220  -14.1760   -3.5470 N   0  0  0  0  0  0  0  0  0  0  0  0
   13.2150  -12.9070   -3.9140 C   0  0  0  0  0  0  0  0  0  0  0  0
   13.6950  -11.6960   -3.0760 C   0  0  2  0  0  0  0  0  0  0  0  0
   15.1040  -11.7980   -2.8580 O   0  0  0  0  0  0  0  0  0  0  0  0
   12.9700  -11.6480   -1.7520 C   0  0  0  0  0  0  0  0  0  0  0  0
   11.8470  -12.4410   -1.4850 C   0  0  0  0  0  0  0  0  0  0  0  0
   11.1760  -12.3070   -0.2750 C   0  0  0  0  0  0  0  0  0  0  0  0
   11.6410  -11.3700    0.6310 C   0  0  0  0  0  0  0  0  0  0  0  0
   12.7150  -10.5820    0.4120 N   0  0  0  0  0  0  0  0  0  0  0  0
   13.3710  -10.7580   -0.7580 C   0  0  0  0  0  0  0  0  0  0  0  0
   11.0390  -17.1470   -3.4320 C   0  0  0  0  0  0  0  0  0  0  0  0
    9.8440  -16.6160   -2.9600 C   0  0  0  0  0  0  0  0  0  0  0  0
    7.4190  -13.3710   -0.5620 C   0  0  0  0  0  0  0  0  0  0  0  0
    7.8700  -12.8190    0.6480 C   0  0  0  0  0  0  0  0  0  0  0  0
    7.6330  -11.4760    0.9370 C   0  0  0  0  0  0  0  0  0  0  0  0
    6.9780  -10.6750    0.0060 C   0  0  0  0  0  0  0  0  0  0  0  0
    6.5460  -11.2200   -1.2060 C   0  0  0  0  0  0  0  0  0  0  0  0
    6.7440  -12.5810   -1.4960 C   0  0  0  0  0  0  0  0  0  0  0  0
    6.1480  -13.1100   -2.8630 C   0  0  0  0  0  0  0  0  0  0  0  0
    6.7320  -14.0620   -3.6330 N   0  0  0  0  0  0  0  0  0  0  0  0
    6.3990  -13.7900   -4.9190 C   0  0  0  0  0  0  0  0  0  0  0  0
    6.9120  -14.2280   -6.1420 C   0  0  0  0  0  0  0  0  0  0  0  0
    6.3230  -13.7150   -7.3020 C   0  0  0  0  0  0  0  0  0  0  0  0
    5.2620  -12.7970   -7.2400 C   0  0  0  0  0  0  0  0  0  0  0  0
    4.7370  -12.3680   -6.0170 C   0  0  0  0  0  0  0  0  0  0  0  0
    5.3100  -12.8890   -4.8520 C   0  0  0  0  0  0  0  0  0  0  0  0
    5.0120  -12.7500   -3.5220 N   0  0  0  0  0  0  0  0  0  0  0  0
    9.4160  -13.8430   -1.9660 H   0  0  0  0  0  0  0  0  0  0  0  0
   10.8451  -15.6609    0.1423 H   0  0  0  0  0  0  0  0  0  0  0  0
   13.0023  -16.6235   -0.6976 H   0  0  0  0  0  0  0  0  0  0  0  0
   14.3279  -16.6357   -2.7182 H   0  0  0  0  0  0  0  0  0  0  0  0
   13.6590  -17.5519   -4.1273 H   0  0  0  0  0  0  0  0  0  0  0  0
   14.1099  -15.5330   -5.1644 H   0  0  0  0  0  0  0  0  0  0  0  0
   12.4095  -15.2283   -4.5523 H   0  0  0  0  0  0  0  0  0  0  0  0
   13.7270  -14.2910   -2.5020 H   0  0  0  0  0  0  0  0  0  0  0  0
   14.9380  -14.0540   -3.5550 H   0  0  0  0  0  0  0  0  0  0  0  0
   13.3997  -12.6953   -4.9775 H   0  0  0  0  0  0  0  0  0  0  0  0
   12.1437  -13.0506   -3.7100 H   0  0  0  0  0  0  0  0  0  0  0  0
   13.4742  -10.7696   -3.6265 H   0  0  0  0  0  0  0  0  0  0  0  0
   15.5120  -11.6470   -3.7560 H   0  0  0  0  0  0  0  0  0  0  0  0
   11.4965  -13.1688   -2.2316 H   0  0  0  0  0  0  0  0  0  0  0  0
   10.2988  -12.9292   -0.0438 H   0  0  0  0  0  0  0  0  0  0  0  0
   11.1043  -11.2610    1.5850 H   0  0  0  0  0  0  0  0  0  0  0  0
   14.2777  -10.1611   -0.9356 H   0  0  0  0  0  0  0  0  0  0  0  0
   11.0626  -17.7379   -4.3595 H   0  0  0  0  0  0  0  0  0  0  0  0
    8.8991  -16.7894   -3.4958 H   0  0  0  0  0  0  0  0  0  0  0  0
    8.4117  -13.4481    1.3697 H   0  0  0  0  0  0  0  0  0  0  0  0
    7.9622  -11.0511    1.8967 H   0  0  0  0  0  0  0  0  0  0  0  0
    6.8002   -9.6117    0.2246 H   0  0  0  0  0  0  0  0  0  0  0  0
    6.0444  -10.5754   -1.9428 H   0  0  0  0  0  0  0  0  0  0  0  0
    7.7440  -14.9460   -6.1907 H   0  0  0  0  0  0  0  0  0  0  0  0
    6.6989  -14.0375   -8.2842 H   0  0  0  0  0  0  0  0  0  0  0  0
    4.8341  -12.4064   -8.1751 H   0  0  0  0  0  0  0  0  0  0  0  0
    3.9058  -11.6489   -5.9727 H   0  0  0  0  0  0  0  0  0  0  0  0
  1  2  2  0
  2  3  1  0
  3  4  1  0
  4  5  2  0
  5  6  1  0
  6  7  2  0
  7  8  1  0
  8  9  1  0
  9 10  1  0
 10 11  1  0
 11 12  1  0
 12 13  1  0
 12 14  1  0
 14 15  2  0
 15 16  1  0
 16 17  2  0
 17 18  1  0
 18 19  2  0
  7 20  1  0
 20 21  2  0
  2 22  1  0
 22 23  2  0
 23 24  1  0
 24 25  2  0
 25 26  1  0
 26 27  2  0
 27 28  1  0
 28 29  2  0
 29 30  1  0
 30 31  2  0
 31 32  1  0
 32 33  2  0
 33 34  1  0
 34 35  2  0
 35 36  1  0
 21  4  1  0
 27 22  1  0
 36 28  1  0
 19 14  1  0
 35 30  1  0
  3 37  1  0
  5 38  1  0
  6 39  1  0
  8 40  1  0
  8 41  1  0
  9 42  1  0
  9 43  1  0
 10 44  1  0
 10 45  1  0
 11 46  1  0
 11 47  1  0
 12 48  1  6
 13 49  1  0
 15 50  1  0
 16 51  1  0
 17 52  1  0
 19 53  1  0
 20 54  1  0
 21 55  1  0
 23 56  1  0
 24 57  1  0
 25 58  1  0
 26 59  1  0
 31 60  1  0
 32 61  1  0
 33 62  1  0
 34 63  1  0
M  CHG  2  10   1  36  -1
M  END
>  <meeko>  (6) 
{"is_sidechain": [false], "free_energy": -7.254, "intermolecular_energy": -11.911, "internal_energy": -2.435}

$$$$
LIB_PULBQTCEWMDDKC__M_PUB_ALL__e8__s20260927
     RDKit          3D

 63 67  0  0  0  0  0  0  0  0999 V2000
    4.3940  -12.6500    1.6420 O   0  0  0  0  0  0  0  0  0  0  0  0
    3.4100  -12.9020    0.9520 C   0  0  0  0  0  0  0  0  0  0  0  0
    2.3180  -13.6820    1.2910 N   0  0  0  0  0  0  0  0  0  0  0  0
    2.3870  -14.6300    2.3340 C   0  0  0  0  0  0  0  0  0  0  0  0
    2.7250  -15.9610    2.0910 C   0  0  0  0  0  0  0  0  0  0  0  0
    2.0810  -16.9560    2.8080 C   0  0  0  0  0  0  0  0  0  0  0  0
    1.1220  -16.5800    3.7520 C   0  0  0  0  0  0  0  0  0  0  0  0
   -0.0960  -17.4490    3.9220 C   0  0  0  0  0  0  0  0  0  0  0  0
   -1.3670  -16.7460    3.3730 C   0  0  0  0  0  0  0  0  0  0  0  0
   -1.1720  -16.0670    2.0510 N   0  0  0  0  0  0  0  0  0  0  0  0
   -1.4500  -16.9170    0.8490 C   0  0  0  0  0  0  0  0  0  0  0  0
   -1.0780  -16.2110   -0.4780 C   0  0  2  0  0  0  0  0  0  0  0  0
   -1.8870  -16.7320   -1.5350 O   0  0  0  0  0  0  0  0  0  0  0  0
    0.3830  -16.4180   -0.7970 C   0  0  0  0  0  0  0  0  0  0  0  0
    1.1720  -15.4150   -1.3720 C   0  0  0  0  0  0  0  0  0  0  0  0
    2.4950  -15.6810   -1.7100 C   0  0  0  0  0  0  0  0  0  0  0  0
    2.9870  -16.9530   -1.4740 C   0  0  0  0  0  0  0  0  0  0  0  0
    2.2590  -17.9500   -0.9280 N   0  0  0  0  0  0  0  0  0  0  0  0
    0.9870  -17.6540   -0.5760 C   0  0  0  0  0  0  0  0  0  0  0  0
    1.1000  -15.2710    4.2440 C   0  0  0  0  0  0  0  0  0  0  0  0
    1.7550  -14.2770    3.5260 C   0  0  0  0  0  0  0  0  0  0  0  0
    3.4010  -12.3590   -0.4110 C   0  0  0  0  0  0  0  0  0  0  0  0
    4.5590  -12.5780   -1.1750 C   0  0  0  0  0  0  0  0  0  0  0  0
    4.5590  -12.3010   -2.5410 C   0  0  0  0  0  0  0  0  0  0  0  0
    3.3960  -11.8410   -3.1520 C   0  0  0  0  0  0  0  0  0  0  0  0
    2.2390  -11.6410   -2.3950 C   0  0  0  0  0  0  0  0  0  0  0  0
    2.2340  -11.8780   -1.0100 C   0  0  0  0  0  0  0  0  0  0  0  0
    0.8930  -11.5470   -0.2370 C   0  0  0  0  0  0  0  0  0  0  0  0
    0.3480  -10.3070   -0.1500 N   0  0  0  0  0  0  0  0  0  0  0  0
   -0.3040  -10.2440    1.0370 C   0  0  0  0  0  0  0  0  0  0  0  0
   -0.7990   -9.1770    1.7890 C   0  0  0  0  0  0  0  0  0  0  0  0
   -1.4150   -9.4830    3.0050 C   0  0  0  0  0  0  0  0  0  0  0  0
   -1.5310  -10.8090    3.4530 C   0  0  0  0  0  0  0  0  0  0  0  0
   -1.0500  -11.8810    2.6960 C   0  0  0  0  0  0  0  0  0  0  0  0
   -0.4460  -11.5830    1.4700 C   0  0  0  0  0  0  0  0  0  0  0  0
    0.0610  -12.3650    0.4640 N   0  0  0  0  0  0  0  0  0  0  0  0
    1.6850  -13.8940    0.5260 H   0  0  0  0  0  0  0  0  0  0  0  0
    3.4899  -16.2163    1.3428 H   0  0  0  0  0  0  0  0  0  0  0  0
    2.3189  -18.0165    2.6383 H   0  0  0  0  0  0  0  0  0  0  0  0
    0.0567  -18.3919    3.3764 H   0  0  0  0  0  0  0  0  0  0  0  0
   -0.2400  -17.6416    4.9954 H   0  0  0  0  0  0  0  0  0  0  0  0
   -2.1574  -17.5025    3.2588 H   0  0  0  0  0  0  0  0  0  0  0  0
   -1.6302  -15.9598    4.0960 H   0  0  0  0  0  0  0  0  0  0  0  0
   -1.8580  -15.2520    1.9590 H   0  0  0  0  0  0  0  0  0  0  0  0
   -0.2710  -15.5870    1.9690 H   0  0  0  0  0  0  0  0  0  0  0  0
   -0.8648  -17.8448    0.9306 H   0  0  0  0  0  0  0  0  0  0  0  0
   -2.5309  -17.1199    0.8270 H   0  0  0  0  0  0  0  0  0  0  0  0
   -1.2601  -15.1314   -0.3722 H   0  0  0  0  0  0  0  0  0  0  0  0
   -1.4080  -16.4740   -2.3730 H   0  0  0  0  0  0  0  0  0  0  0  0
    0.7464  -14.4176   -1.5564 H   0  0  0  0  0  0  0  0  0  0  0  0
    3.1327  -14.9017   -2.1527 H   0  0  0  0  0  0  0  0  0  0  0  0
    4.0315  -17.1636   -1.7471 H   0  0  0  0  0  0  0  0  0  0  0  0
    0.3922  -18.4381   -0.0846 H   0  0  0  0  0  0  0  0  0  0  0  0
    0.5748  -15.0327    5.1807 H   0  0  0  0  0  0  0  0  0  0  0  0
    1.7743  -13.2387    3.8888 H   0  0  0  0  0  0  0  0  0  0  0  0
    5.4679  -12.9690   -0.6943 H   0  0  0  0  0  0  0  0  0  0  0  0
    5.4743  -12.4453   -3.1338 H   0  0  0  0  0  0  0  0  0  0  0  0
    3.3879  -11.6347   -4.2324 H   0  0  0  0  0  0  0  0  0  0  0  0
    1.3200  -11.2935   -2.8896 H   0  0  0  0  0  0  0  0  0  0  0  0
   -0.7078   -8.1383    1.4386 H   0  0  0  0  0  0  0  0  0  0  0  0
   -1.8177   -8.6682    3.6246 H   0  0  0  0  0  0  0  0  0  0  0  0
   -2.0116  -11.0085    4.4221 H   0  0  0  0  0  0  0  0  0  0  0  0
   -1.1428  -12.9182    3.0504 H   0  0  0  0  0  0  0  0  0  0  0  0
  1  2  2  0
  2  3  1  0
  3  4  1  0
  4  5  2  0
  5  6  1  0
  6  7  2  0
  7  8  1  0
  8  9  1  0
  9 10  1  0
 10 11  1  0
 11 12  1  0
 12 13  1  0
 12 14  1  0
 14 15  2  0
 15 16  1  0
 16 17  2  0
 17 18  1  0
 18 19  2  0
  7 20  1  0
 20 21  2  0
  2 22  1  0
 22 23  2  0
 23 24  1  0
 24 25  2  0
 25 26  1  0
 26 27  2  0
 27 28  1  0
 28 29  2  0
 29 30  1  0
 30 31  2  0
 31 32  1  0
 32 33  2  0
 33 34  1  0
 34 35  2  0
 35 36  1  0
 21  4  1  0
 27 22  1  0
 36 28  1  0
 19 14  1  0
 35 30  1  0
  3 37  1  0
  5 38  1  0
  6 39  1  0
  8 40  1  0
  8 41  1  0
  9 42  1  0
  9 43  1  0
 10 44  1  0
 10 45  1  0
 11 46  1  0
 11 47  1  0
 12 48  1  1
 13 49  1  0
 15 50  1  0
 16 51  1  0
 17 52  1  0
 19 53  1  0
 20 54  1  0
 21 55  1  0
 23 56  1  0
 24 57  1  0
 25 58  1  0
 26 59  1  0
 31 60  1  0
 32 61  1  0
 33 62  1  0
 34 63  1  0
M  CHG  2  10   1  36  -1
M  END
>  <meeko>  (7) 
{"is_sidechain": [false], "free_energy": -7.178, "intermolecular_energy": -11.181, "internal_energy": -3.047}

$$$$
LIB_PULBQTCEWMDDKC__M_PUB_ALL__e8__s20260927
     RDKit          3D

 63 67  0  0  0  0  0  0  0  0999 V2000
   -3.3010  -18.4400    3.3840 O   0  0  0  0  0  0  0  0  0  0  0  0
   -3.2000  -17.2280    3.5560 C   0  0  0  0  0  0  0  0  0  0  0  0
   -2.9610  -16.2550    2.6000 N   0  0  0  0  0  0  0  0  0  0  0  0
   -2.3900  -16.5780    1.3510 C   0  0  0  0  0  0  0  0  0  0  0  0
   -1.1520  -17.2130    1.2540 C   0  0  0  0  0  0  0  0  0  0  0  0
   -0.2890  -16.8440    0.2360 C   0  0  0  0  0  0  0  0  0  0  0  0
   -0.7010  -15.8530   -0.6580 C   0  0  0  0  0  0  0  0  0  0  0  0
    0.3260  -14.8800   -1.1740 C   0  0  0  0  0  0  0  0  0  0  0  0
    1.1040  -14.2150   -0.0070 C   0  0  0  0  0  0  0  0  0  0  0  0
    0.2460  -13.4170    0.9280 N   0  0  0  0  0  0  0  0  0  0  0  0
    0.0770  -11.9730    0.5650 C   0  0  0  0  0  0  0  0  0  0  0  0
   -0.9330  -11.2430    1.4840 C   0  0  2  0  0  0  0  0  0  0  0  0
   -0.4690  -11.2940    2.8350 O   0  0  0  0  0  0  0  0  0  0  0  0
   -2.2980  -11.8820    1.3830 C   0  0  0  0  0  0  0  0  0  0  0  0
   -3.1240  -11.7080    0.2660 C   0  0  0  0  0  0  0  0  0  0  0  0
   -4.4000  -12.2610    0.2550 C   0  0  0  0  0  0  0  0  0  0  0  0
   -4.8180  -12.9630    1.3720 C   0  0  0  0  0  0  0  0  0  0  0  0
   -4.0570  -13.1490    2.4710 N   0  0  0  0  0  0  0  0  0  0  0  0
   -2.8070  -12.6310    2.4410 C   0  0  0  0  0  0  0  0  0  0  0  0
   -2.0590  -15.5380   -0.7760 C   0  0  0  0  0  0  0  0  0  0  0  0
   -2.9230  -15.9170    0.2440 C   0  0  0  0  0  0  0  0  0  0  0  0
   -3.2950  -16.7450    4.9380 C   0  0  0  0  0  0  0  0  0  0  0  0
   -4.5910  -16.5290    5.4340 C   0  0  0  0  0  0  0  0  0  0  0  0
   -4.7910  -16.2910    6.7920 C   0  0  0  0  0  0  0  0  0  0  0  0
   -3.7040  -16.3040    7.6630 C   0  0  0  0  0  0  0  0  0  0  0  0
   -2.4170  -16.5370    7.1720 C   0  0  0  0  0  0  0  0  0  0  0  0
   -2.1950  -16.7410    5.7990 C   0  0  0  0  0  0  0  0  0  0  0  0
   -0.6900  -16.9210    5.3420 C   0  0  0  0  0  0  0  0  0  0  0  0
    0.1410  -15.8950    5.0300 N   0  0  0  0  0  0  0  0  0  0  0  0
    1.0070  -16.3580    4.0940 C   0  0  0  0  0  0  0  0  0  0  0  0
    1.8770  -15.7160    3.2110 C   0  0  0  0  0  0  0  0  0  0  0  0
    2.6260  -16.5250    2.3510 C   0  0  0  0  0  0  0  0  0  0  0  0
    2.5070  -17.9240    2.3740 C   0  0  0  0  0  0  0  0  0  0  0  0
    1.6470  -18.5700    3.2660 C   0  0  0  0  0  0  0  0  0  0  0  0
    0.9060  -17.7680    4.1410 C   0  0  0  0  0  0  0  0  0  0  0  0
    0.0430  -18.0540    5.1670 N   0  0  0  0  0  0  0  0  0  0  0  0
   -2.7580  -15.3310    2.9660 H   0  0  0  0  0  0  0  0  0  0  0  0
   -0.8660  -17.9938    1.9741 H   0  0  0  0  0  0  0  0  0  0  0  0
    0.6974  -17.3199    0.1338 H   0  0  0  0  0  0  0  0  0  0  0  0
    1.0368  -15.4169   -1.8194 H   0  0  0  0  0  0  0  0  0  0  0  0
   -0.1931  -14.0927   -1.7404 H   0  0  0  0  0  0  0  0  0  0  0  0
    1.6007  -15.0074    0.5721 H   0  0  0  0  0  0  0  0  0  0  0  0
    1.8152  -13.5102   -0.4625 H   0  0  0  0  0  0  0  0  0  0  0  0
   -0.7510  -13.8050    0.9230 H   0  0  0  0  0  0  0  0  0  0  0  0
    0.5050  -13.5270    1.9120 H   0  0  0  0  0  0  0  0  0  0  0  0
    1.0532  -11.4725    0.6465 H   0  0  0  0  0  0  0  0  0  0  0  0
   -0.3156  -11.9310   -0.4617 H   0  0  0  0  0  0  0  0  0  0  0  0
   -1.0156  -10.1942    1.1629 H   0  0  0  0  0  0  0  0  0  0  0  0
   -1.2950  -11.4080    3.3840 H   0  0  0  0  0  0  0  0  0  0  0  0
   -2.7643  -11.1349   -0.6013 H   0  0  0  0  0  0  0  0  0  0  0  0
   -5.0591  -12.1436   -0.6178 H   0  0  0  0  0  0  0  0  0  0  0  0
   -5.8297  -13.3947    1.3636 H   0  0  0  0  0  0  0  0  0  0  0  0
   -2.1524  -12.8129    3.3061 H   0  0  0  0  0  0  0  0  0  0  0  0
   -2.4354  -15.0008   -1.6590 H   0  0  0  0  0  0  0  0  0  0  0  0
   -3.9998  -15.7014    0.1803 H   0  0  0  0  0  0  0  0  0  0  0  0
   -5.4508  -16.5478    4.7482 H   0  0  0  0  0  0  0  0  0  0  0  0
   -5.8031  -16.0936    7.1749 H   0  0  0  0  0  0  0  0  0  0  0  0
   -3.8591  -16.1307    8.7381 H   0  0  0  0  0  0  0  0  0  0  0  0
   -1.5663  -16.5611    7.8689 H   0  0  0  0  0  0  0  0  0  0  0  0
    1.9694  -14.6200    3.1926 H   0  0  0  0  0  0  0  0  0  0  0  0
    3.3232  -16.0556    1.6414 H   0  0  0  0  0  0  0  0  0  0  0  0
    3.1048  -18.5255    1.6734 H   0  0  0  0  0  0  0  0  0  0  0  0
    1.5561  -19.6661    3.2798 H   0  0  0  0  0  0  0  0  0  0  0  0
  1  2  2  0
  2  3  1  0
  3  4  1  0
  4  5  2  0
  5  6  1  0
  6  7  2  0
  7  8  1  0
  8  9  1  0
  9 10  1  0
 10 11  1  0
 11 12  1  0
 12 13  1  0
 12 14  1  0
 14 15  2  0
 15 16  1  0
 16 17  2  0
 17 18  1  0
 18 19  2  0
  7 20  1  0
 20 21  2  0
  2 22  1  0
 22 23  2  0
 23 24  1  0
 24 25  2  0
 25 26  1  0
 26 27  2  0
 27 28  1  0
 28 29  2  0
 29 30  1  0
 30 31  2  0
 31 32  1  0
 32 33  2  0
 33 34  1  0
 34 35  2  0
 35 36  1  0
 21  4  1  0
 27 22  1  0
 36 28  1  0
 19 14  1  0
 35 30  1  0
  3 37  1  0
  5 38  1  0
  6 39  1  0
  8 40  1  0
  8 41  1  0
  9 42  1  0
  9 43  1  0
 10 44  1  0
 10 45  1  0
 11 46  1  0
 11 47  1  0
 12 48  1  6
 13 49  1  0
 15 50  1  0
 16 51  1  0
 17 52  1  0
 19 53  1  0
 20 54  1  0
 21 55  1  0
 23 56  1  0
 24 57  1  0
 25 58  1  0
 26 59  1  0
 31 60  1  0
 32 61  1  0
 33 62  1  0
 34 63  1  0
M  CHG  2  10   1  36  -1
M  END
>  <meeko>  (8) 
{"is_sidechain": [false], "free_energy": -7.091, "intermolecular_energy": -10.447, "internal_energy": -3.645}

$$$$
LIB_PULBQTCEWMDDKC__M_PUB_ALL__e8__s20260927
     RDKit          3D

 63 67  0  0  0  0  0  0  0  0999 V2000
    5.2150  -16.4020   -4.2890 O   0  0  0  0  0  0  0  0  0  0  0  0
    5.6790  -15.2920   -4.0410 C   0  0  0  0  0  0  0  0  0  0  0  0
    6.1410  -14.8220   -2.8230 N   0  0  0  0  0  0  0  0  0  0  0  0
    5.7550  -15.4260   -1.6080 C   0  0  0  0  0  0  0  0  0  0  0  0
    4.4140  -15.6450   -1.2940 C   0  0  0  0  0  0  0  0  0  0  0  0
    3.9970  -15.4700    0.0150 C   0  0  0  0  0  0  0  0  0  0  0  0
    4.9430  -15.0870    0.9690 C   0  0  0  0  0  0  0  0  0  0  0  0
    4.5200  -14.1400    2.0600 C   0  0  0  0  0  0  0  0  0  0  0  0
    5.4610  -12.9080    2.1290 C   0  0  0  0  0  0  0  0  0  0  0  0
    4.9720  -11.7170    1.3610 N   0  0  0  0  0  0  0  0  0  0  0  0
    5.7050  -11.4370    0.0840 C   0  0  0  0  0  0  0  0  0  0  0  0
    7.2360  -11.6190    0.2240 C   0  0  2  0  0  0  0  0  0  0  0  0
    7.8010  -10.4470    0.8150 O   0  0  0  0  0  0  0  0  0  0  0  0
    7.8650  -11.8710   -1.1260 C   0  0  0  0  0  0  0  0  0  0  0  0
    7.2920  -11.4040   -2.3160 C   0  0  0  0  0  0  0  0  0  0  0  0
    7.8750  -11.7230   -3.5370 C   0  0  0  0  0  0  0  0  0  0  0  0
    9.0110  -12.5150   -3.5330 C   0  0  0  0  0  0  0  0  0  0  0  0
    9.5910  -12.9900   -2.4100 N   0  0  0  0  0  0  0  0  0  0  0  0
    9.0240  -12.6350   -1.2350 C   0  0  0  0  0  0  0  0  0  0  0  0
    6.3070  -15.2670    0.7120 C   0  0  0  0  0  0  0  0  0  0  0  0
    6.7200  -15.4500   -0.6020 C   0  0  0  0  0  0  0  0  0  0  0  0
    5.7100  -14.3250   -5.1440 C   0  0  0  0  0  0  0  0  0  0  0  0
    6.8080  -14.4120   -6.0160 C   0  0  0  0  0  0  0  0  0  0  0  0
    6.8120  -13.6940   -7.2110 C   0  0  0  0  0  0  0  0  0  0  0  0
    5.7070  -12.9200   -7.5550 C   0  0  0  0  0  0  0  0  0  0  0  0
    4.6070  -12.8490   -6.6960 C   0  0  0  0  0  0  0  0  0  0  0  0
    4.6040  -13.5360   -5.4690 C   0  0  0  0  0  0  0  0  0  0  0  0
    3.3410  -13.3260   -4.5400 C   0  0  0  0  0  0  0  0  0  0  0  0
    3.2230  -12.3330   -3.6240 N   0  0  0  0  0  0  0  0  0  0  0  0
    2.4470  -12.8110   -2.6200 C   0  0  0  0  0  0  0  0  0  0  0  0
    2.2160  -12.3740   -1.3140 C   0  0  0  0  0  0  0  0  0  0  0  0
    1.3480  -13.1400   -0.5290 C   0  0  0  0  0  0  0  0  0  0  0  0
    0.7360  -14.2990   -1.0320 C   0  0  0  0  0  0  0  0  0  0  0  0
    0.9550  -14.7300   -2.3440 C   0  0  0  0  0  0  0  0  0  0  0  0
    1.8100  -13.9610   -3.1400 C   0  0  0  0  0  0  0  0  0  0  0  0
    2.1870  -14.0430   -4.4560 N   0  0  0  0  0  0  0  0  0  0  0  0
    6.3400  -13.8270   -2.7920 H   0  0  0  0  0  0  0  0  0  0  0  0
    3.6999  -15.9514   -2.0725 H   0  0  0  0  0  0  0  0  0  0  0  0
    2.9457  -15.6288    0.2969 H   0  0  0  0  0  0  0  0  0  0  0  0
    3.4941  -13.7973    1.8599 H   0  0  0  0  0  0  0  0  0  0  0  0
    4.5705  -14.6714    3.0218 H   0  0  0  0  0  0  0  0  0  0  0  0
    5.5710  -12.6167    3.1840 H   0  0  0  0  0  0  0  0  0  0  0  0
    6.4130  -13.2114    1.6690 H   0  0  0  0  0  0  0  0  0  0  0  0
    3.9610  -11.8760    1.0520 H   0  0  0  0  0  0  0  0  0  0  0  0
    4.8820  -10.8720    1.9330 H   0  0  0  0  0  0  0  0  0  0  0  0
    5.3378  -12.1256   -0.6912 H   0  0  0  0  0  0  0  0  0  0  0  0
    5.5175  -10.3868   -0.1843 H   0  0  0  0  0  0  0  0  0  0  0  0
    7.4358  -12.4884    0.8676 H   0  0  0  0  0  0  0  0  0  0  0  0
    7.5700  -10.5130    1.7840 H   0  0  0  0  0  0  0  0  0  0  0  0
    6.3825  -10.7861   -2.2843 H   0  0  0  0  0  0  0  0  0  0  0  0
    7.4455  -11.3562   -4.4809 H   0  0  0  0  0  0  0  0  0  0  0  0
    9.4671  -12.7719   -4.5004 H   0  0  0  0  0  0  0  0  0  0  0  0
    9.5089  -12.9709   -0.3066 H   0  0  0  0  0  0  0  0  0  0  0  0
    7.0378  -15.2637    1.5342 H   0  0  0  0  0  0  0  0  0  0  0  0
    7.7814  -15.6098   -0.8424 H   0  0  0  0  0  0  0  0  0  0  0  0
    7.6667  -15.0482   -5.7553 H   0  0  0  0  0  0  0  0  0  0  0  0
    7.6845  -13.7388   -7.8793 H   0  0  0  0  0  0  0  0  0  0  0  0
    5.6998  -12.3638   -8.5040 H   0  0  0  0  0  0  0  0  0  0  0  0
    3.7319  -12.2477   -6.9835 H   0  0  0  0  0  0  0  0  0  0  0  0
    2.6961  -11.4663   -0.9195 H   0  0  0  0  0  0  0  0  0  0  0  0
    1.1404  -12.8275    0.5050 H   0  0  0  0  0  0  0  0  0  0  0  0
    0.0691  -14.8813   -0.3792 H   0  0  0  0  0  0  0  0  0  0  0  0
    0.4736  -15.6385   -2.7349 H   0  0  0  0  0  0  0  0  0  0  0  0
  1  2  2  0
  2  3  1  0
  3  4  1  0
  4  5  2  0
  5  6  1  0
  6  7  2  0
  7  8  1  0
  8  9  1  0
  9 10  1  0
 10 11  1  0
 11 12  1  0
 12 13  1  0
 12 14  1  0
 14 15  2  0
 15 16  1  0
 16 17  2  0
 17 18  1  0
 18 19  2  0
  7 20  1  0
 20 21  2  0
  2 22  1  0
 22 23  2  0
 23 24  1  0
 24 25  2  0
 25 26  1  0
 26 27  2  0
 27 28  1  0
 28 29  2  0
 29 30  1  0
 30 31  2  0
 31 32  1  0
 32 33  2  0
 33 34  1  0
 34 35  2  0
 35 36  1  0
 21  4  1  0
 27 22  1  0
 36 28  1  0
 19 14  1  0
 35 30  1  0
  3 37  1  0
  5 38  1  0
  6 39  1  0
  8 40  1  0
  8 41  1  0
  9 42  1  0
  9 43  1  0
 10 44  1  0
 10 45  1  0
 11 46  1  0
 11 47  1  0
 12 48  1  1
 13 49  1  0
 15 50  1  0
 16 51  1  0
 17 52  1  0
 19 53  1  0
 20 54  1  0
 21 55  1  0
 23 56  1  0
 24 57  1  0
 25 58  1  0
 26 59  1  0
 31 60  1  0
 32 61  1  0
 33 62  1  0
 34 63  1  0
M  CHG  2  10   1  36  -1
M  END
>  <meeko>  (9) 
{"is_sidechain": [false], "free_energy": -7.061, "intermolecular_energy": -10.093, "internal_energy": -3.953}

$$$$
