LIB_QLNUKHGTFPPKSK__M_PUB_ALL__e8__s20260927
     RDKit          3D

 81 86  0  0  0  0  0  0  0  0999 V2000
    2.9920  -10.3540   -3.9650 C   0  0  0  0  0  0  0  0  0  0  0  0
    3.9560  -11.2030   -4.5890 O   0  0  0  0  0  0  0  0  0  0  0  0
    4.9500  -11.6170   -3.7600 C   0  0  0  0  0  0  0  0  0  0  0  0
    6.1060  -11.8450   -4.0960 O   0  0  0  0  0  0  0  0  0  0  0  0
    4.4200  -11.8030   -2.3520 C   0  0  0  0  0  0  0  0  0  0  0  0
    5.3040  -12.7510   -1.4960 C   0  0  1  0  0  0  0  0  0  0  0  0
    5.9670  -12.0540   -0.2420 C   0  0  0  0  0  0  0  0  0  0  0  0
    6.7020  -10.7470   -0.6440 C   0  0  0  0  0  0  0  0  0  0  0  0
    4.9420  -11.6230    0.8360 C   0  0  0  0  0  0  0  0  0  0  0  0
    7.0240  -13.0590    0.3560 C   0  0  2  0  0  0  0  0  0  0  0  0
    8.1450  -13.0750   -0.5690 O   0  0  0  0  0  0  0  0  0  0  0  0
    9.3490  -12.6750   -0.0940 C   0  0  0  0  0  0  0  0  0  0  0  0
    9.6190  -12.4210    1.0660 O   0  0  0  0  0  0  0  0  0  0  0  0
   10.3260  -12.5820   -1.2090 C   0  0  0  0  0  0  0  0  0  0  0  0
    9.8370  -12.3490   -2.5000 C   0  0  0  0  0  0  0  0  0  0  0  0
   10.7190  -12.2570   -3.5780 C   0  0  0  0  0  0  0  0  0  0  0  0
   12.0900  -12.4050   -3.3730 C   0  0  0  0  0  0  0  0  0  0  0  0
   12.5830  -12.6490   -2.0910 C   0  0  0  0  0  0  0  0  0  0  0  0
   11.7060  -12.7390   -1.0100 C   0  0  0  0  0  0  0  0  0  0  0  0
    6.4940  -14.5040    0.5720 C   0  0  2  0  0  0  0  0  0  0  0  0
    6.7080  -14.8680    1.9430 O   0  0  0  0  0  0  0  0  0  0  0  0
    7.0850  -15.6230   -0.3110 C   0  0  0  0  0  0  0  0  0  0  0  0
    6.6590  -15.6320   -1.7840 C   0  0  0  0  0  0  0  0  0  0  0  0
    7.4990  -15.9810   -2.7930 C   0  0  0  0  0  0  0  0  0  0  0  0
    8.9970  -16.1560   -2.6390 C   0  0  0  0  0  0  0  0  0  0  0  0
    9.8420  -15.6940   -3.8230 C   0  0  0  0  0  0  0  0  0  0  0  0
   11.0650  -15.8180   -3.8090 O   0  0  0  0  0  0  0  0  0  0  0  0
    9.2220  -15.1940   -4.9170 O   0  0  0  0  0  0  0  0  0  0  0  0
    7.7810  -15.0230   -4.9840 C   0  0  1  0  0  0  0  0  0  0  0  0
    7.3810  -14.8310   -6.4180 C   0  0  0  0  0  0  0  0  0  0  0  0
    7.8310  -15.5490   -7.5640 C   0  0  0  0  0  0  0  0  0  0  0  0
    7.1890  -15.0010   -8.6480 C   0  0  0  0  0  0  0  0  0  0  0  0
    6.3800  -13.9850   -8.2550 O   0  0  0  0  0  0  0  0  0  0  0  0
    6.5120  -13.8760   -6.9100 C   0  0  0  0  0  0  0  0  0  0  0  0
    7.0480  -16.1840   -4.2470 C   0  0  1  0  0  0  0  0  0  0  0  0
    7.4750  -17.5810   -4.7760 C   0  0  0  0  0  0  0  0  0  0  0  0
    5.5050  -16.1570   -4.3720 C   0  0  0  0  0  0  0  0  0  0  0  0
    4.8600  -15.0850   -3.5210 C   0  0  0  0  0  0  0  0  0  0  0  0
    5.1650  -15.3180   -2.0280 C   0  0  2  0  0  0  0  0  0  0  0  0
    4.6170  -14.1390   -1.1370 C   0  0  2  0  0  0  0  0  0  0  0  0
    3.0720  -14.0950   -1.1770 C   0  0  0  0  0  0  0  0  0  0  0  0
    5.0110  -14.5600    0.2770 C   0  0  0  0  0  0  0  0  0  0  0  0
    4.2190  -14.9900    1.1180 O   0  0  0  0  0  0  0  0  0  0  0  0
    3.0846  -10.4355   -2.8719 H   0  0  0  0  0  0  0  0  0  0  0  0
    3.1681   -9.3123   -4.2712 H   0  0  0  0  0  0  0  0  0  0  0  0
    1.9808  -10.6603   -4.2712 H   0  0  0  0  0  0  0  0  0  0  0  0
    4.3792  -10.8204   -1.8593 H   0  0  0  0  0  0  0  0  0  0  0  0
    3.4233  -12.2616   -2.4314 H   0  0  0  0  0  0  0  0  0  0  0  0
    6.1375  -13.0064   -2.1668 H   0  0  0  0  0  0  0  0  0  0  0  0
    7.0072  -10.2042    0.2628 H   0  0  0  0  0  0  0  0  0  0  0  0
    7.5926  -10.9956   -1.2398 H   0  0  0  0  0  0  0  0  0  0  0  0
    6.0269  -10.1151   -1.2398 H   0  0  0  0  0  0  0  0  0  0  0  0
    5.3648  -11.8008    1.8358 H   0  0  0  0  0  0  0  0  0  0  0  0
    4.7147  -10.5531    0.7189 H   0  0  0  0  0  0  0  0  0  0  0  0
    4.0185  -12.2090    0.7189 H   0  0  0  0  0  0  0  0  0  0  0  0
    7.2998  -12.7110    1.3624 H   0  0  0  0  0  0  0  0  0  0  0  0
    8.7551  -12.2382   -2.6652 H   0  0  0  0  0  0  0  0  0  0  0  0
   10.3320  -12.0676   -4.5901 H   0  0  0  0  0  0  0  0  0  0  0  0
   12.7839  -12.3293   -4.2232 H   0  0  0  0  0  0  0  0  0  0  0  0
   13.6647  -12.7706   -1.9324 H   0  0  0  0  0  0  0  0  0  0  0  0
   12.0968  -12.9333   -0.0003 H   0  0  0  0  0  0  0  0  0  0  0  0
    7.5840  -14.5100    2.2000 H   0  0  0  0  0  0  0  0  0  0  0  0
    8.1805  -15.5284   -0.2809 H   0  0  0  0  0  0  0  0  0  0  0  0
    6.6945  -16.5614    0.1097 H   0  0  0  0  0  0  0  0  0  0  0  0
    9.3148  -15.5855   -1.7538 H   0  0  0  0  0  0  0  0  0  0  0  0
    9.1654  -17.2398   -2.5549 H   0  0  0  0  0  0  0  0  0  0  0  0
    7.4663  -14.1167   -4.4459 H   0  0  0  0  0  0  0  0  0  0  0  0
    8.5518  -16.3799   -7.5779 H   0  0  0  0  0  0  0  0  0  0  0  0
    7.3133  -15.3382   -9.6876 H   0  0  0  0  0  0  0  0  0  0  0  0
    5.9956  -13.1265   -6.2922 H   0  0  0  0  0  0  0  0  0  0  0  0
    7.6790  -18.2484   -3.9257 H   0  0  0  0  0  0  0  0  0  0  0  0
    6.6652  -18.0044   -5.3884 H   0  0  0  0  0  0  0  0  0  0  0  0
    8.3831  -17.4793   -5.3884 H   0  0  0  0  0  0  0  0  0  0  0  0
    5.2420  -15.9742   -5.4243 H   0  0  0  0  0  0  0  0  0  0  0  0
    5.1298  -17.1281   -4.0169 H   0  0  0  0  0  0  0  0  0  0  0  0
    5.2518  -14.1018   -3.8205 H   0  0  0  0  0  0  0  0  0  0  0  0
    3.7708  -15.1230   -3.6697 H   0  0  0  0  0  0  0  0  0  0  0  0
    4.6202  -16.2192   -1.7103 H   0  0  0  0  0  0  0  0  0  0  0  0
    2.6788  -14.0838   -0.1497 H   0  0  0  0  0  0  0  0  0  0  0  0
    2.7446  -13.1872   -1.7049 H   0  0  0  0  0  0  0  0  0  0  0  0
    2.6934  -14.9827   -1.7049 H   0  0  0  0  0  0  0  0  0  0  0  0
  1  2  1  0
  2  3  1  0
  3  4  2  0
  3  5  1  0
  5  6  1  0
  6  7  1  0
  7  8  1  0
  7  9  1  0
  7 10  1  0
 10 11  1  0
 11 12  1  0
 12 13  2  0
 12 14  1  0
 14 15  2  0
 15 16  1  0
 16 17  2  0
 17 18  1  0
 18 19  2  0
 10 20  1  0
 20 21  1  1
 20 22  1  0
 22 23  1  0
 23 24  2  0
 24 25  1  0
 25 26  1  0
 26 27  2  0
 26 28  1  0
 28 29  1  0
 29 30  1  0
 30 31  1  0
 31 32  2  0
 32 33  1  0
 33 34  1  0
 29 35  1  0
 35 36  1  6
 35 37  1  0
 37 38  1  0
 38 39  1  0
 39 40  1  0
 40 41  1  1
 40 42  1  0
 42 43  2  0
 40  6  1  0
 19 14  1  0
 42 20  1  0
 39 23  1  0
 35 24  1  0
 34 30  2  0
  1 44  1  0
  1 45  1  0
  1 46  1  0
  5 47  1  0
  5 48  1  0
  6 49  1  6
  8 50  1  0
  8 51  1  0
  8 52  1  0
  9 53  1  0
  9 54  1  0
  9 55  1  0
 10 56  1  1
 15 57  1  0
 16 58  1  0
 17 59  1  0
 18 60  1  0
 19 61  1  0
 21 62  1  0
 22 63  1  0
 22 64  1  0
 25 65  1  0
 25 66  1  0
 29 67  1  1
 31 68  1  0
 32 69  1  0
 34 70  1  0
 36 71  1  0
 36 72  1  0
 36 73  1  0
 37 74  1  0
 37 75  1  0
 38 76  1  0
 38 77  1  0
 39 78  1  1
 41 79  1  0
 41 80  1  0
 41 81  1  0
M  END
>  <meeko>  (1) 
{"is_sidechain": [false], "free_energy": -7.632, "intermolecular_energy": -10.978, "internal_energy": -2.803}

$$$$
LIB_QLNUKHGTFPPKSK__M_PUB_ALL__e8__s20260927
     RDKit          3D

 81 86  0  0  0  0  0  0  0  0999 V2000
    3.1720  -18.8350    0.3620 C   0  0  0  0  0  0  0  0  0  0  0  0
    3.5770  -18.5280   -0.9730 O   0  0  0  0  0  0  0  0  0  0  0  0
    3.3530  -17.2390   -1.3380 C   0  0  0  0  0  0  0  0  0  0  0  0
    4.0660  -16.5780   -2.0840 O   0  0  0  0  0  0  0  0  0  0  0  0
    2.1080  -16.7050   -0.6560 C   0  0  0  0  0  0  0  0  0  0  0  0
    2.1330  -15.1620   -0.4780 C   0  0  1  0  0  0  0  0  0  0  0  0
    0.9860  -14.4060   -1.2590 C   0  0  0  0  0  0  0  0  0  0  0  0
    0.9360  -14.8380   -2.7490 C   0  0  0  0  0  0  0  0  0  0  0  0
   -0.4310  -14.7000   -0.7080 C   0  0  0  0  0  0  0  0  0  0  0  0
    1.3060  -12.8630   -1.1960 C   0  0  2  0  0  0  0  0  0  0  0  0
    2.4320  -12.6410   -2.0870 O   0  0  0  0  0  0  0  0  0  0  0  0
    2.4170  -11.5150   -2.8400 C   0  0  0  0  0  0  0  0  0  0  0  0
    1.8630  -10.4660   -2.5590 O   0  0  0  0  0  0  0  0  0  0  0  0
    3.1860  -11.7340   -4.0920 C   0  0  0  0  0  0  0  0  0  0  0  0
    3.7730  -12.9880   -4.2970 C   0  0  0  0  0  0  0  0  0  0  0  0
    4.5060  -13.2370   -5.4580 C   0  0  0  0  0  0  0  0  0  0  0  0
    4.6630  -12.2340   -6.4130 C   0  0  0  0  0  0  0  0  0  0  0  0
    4.0910  -10.9780   -6.2100 C   0  0  0  0  0  0  0  0  0  0  0  0
    3.3540  -10.7250   -5.0520 C   0  0  0  0  0  0  0  0  0  0  0  0
    1.6400  -12.3290    0.2240 C   0  0  2  0  0  0  0  0  0  0  0  0
    0.7520  -11.2420    0.5220 O   0  0  0  0  0  0  0  0  0  0  0  0
    3.0820  -11.8470    0.4890 C   0  0  0  0  0  0  0  0  0  0  0  0
    4.1600  -12.9320    0.5870 C   0  0  0  0  0  0  0  0  0  0  0  0
    5.4230  -12.7620    0.1150 C   0  0  0  0  0  0  0  0  0  0  0  0
    5.8580  -11.6150   -0.7750 C   0  0  0  0  0  0  0  0  0  0  0  0
    6.8840  -11.9650   -1.8500 C   0  0  0  0  0  0  0  0  0  0  0  0
    7.3210  -11.1000   -2.6060 O   0  0  0  0  0  0  0  0  0  0  0  0
    7.3490  -13.2340   -1.9250 O   0  0  0  0  0  0  0  0  0  0  0  0
    6.8630  -14.2930   -1.0590 C   0  0  1  0  0  0  0  0  0  0  0  0
    7.8230  -15.4450   -1.1150 C   0  0  0  0  0  0  0  0  0  0  0  0
    9.2400  -15.4070   -1.2790 C   0  0  0  0  0  0  0  0  0  0  0  0
    9.6690  -16.7130   -1.2790 C   0  0  0  0  0  0  0  0  0  0  0  0
    8.6180  -17.5570   -1.1390 O   0  0  0  0  0  0  0  0  0  0  0  0
    7.5040  -16.7880   -1.0560 C   0  0  0  0  0  0  0  0  0  0  0  0
    6.5700  -13.7510    0.3720 C   0  0  1  0  0  0  0  0  0  0  0  0
    7.7990  -13.0340    0.9950 C   0  0  0  0  0  0  0  0  0  0  0  0
    6.1660  -14.8330    1.4040 C   0  0  0  0  0  0  0  0  0  0  0  0
    4.7550  -15.3430    1.2060 C   0  0  0  0  0  0  0  0  0  0  0  0
    3.7360  -14.1990    1.3650 C   0  0  2  0  0  0  0  0  0  0  0  0
    2.2720  -14.6810    1.0300 C   0  0  2  0  0  0  0  0  0  0  0  0
    1.7900  -15.7250    2.0620 C   0  0  0  0  0  0  0  0  0  0  0  0
    1.4340  -13.4230    1.2510 C   0  0  0  0  0  0  0  0  0  0  0  0
    0.6920  -13.2460    2.2190 O   0  0  0  0  0  0  0  0  0  0  0  0
    3.8404  -18.3283    1.0736 H   0  0  0  0  0  0  0  0  0  0  0  0
    2.1393  -18.4908    0.5202 H   0  0  0  0  0  0  0  0  0  0  0  0
    3.2244  -19.9223    0.5202 H   0  0  0  0  0  0  0  0  0  0  0  0
    1.2316  -16.9744   -1.2637 H   0  0  0  0  0  0  0  0  0  0  0  0
    2.0625  -17.1531    0.3476 H   0  0  0  0  0  0  0  0  0  0  0  0
    3.0710  -14.8579   -0.9656 H   0  0  0  0  0  0  0  0  0  0  0  0
    0.8097  -15.9290   -2.8104 H   0  0  0  0  0  0  0  0  0  0  0  0
    0.0892  -14.3423   -3.2463 H   0  0  0  0  0  0  0  0  0  0  0  0
    1.8736  -14.5488   -3.2463 H   0  0  0  0  0  0  0  0  0  0  0  0
   -0.4052  -14.6946    0.3917 H   0  0  0  0  0  0  0  0  0  0  0  0
   -1.1296  -13.9277   -1.0621 H   0  0  0  0  0  0  0  0  0  0  0  0
   -0.7647  -15.6865   -1.0621 H   0  0  0  0  0  0  0  0  0  0  0  0
    0.4032  -12.3103   -1.4953 H   0  0  0  0  0  0  0  0  0  0  0  0
    3.6563  -13.7788   -3.5414 H   0  0  0  0  0  0  0  0  0  0  0  0
    4.9603  -14.2257   -5.6196 H   0  0  0  0  0  0  0  0  0  0  0  0
    5.2391  -12.4332   -7.3286 H   0  0  0  0  0  0  0  0  0  0  0  0
    4.2208  -10.1866   -6.9629 H   0  0  0  0  0  0  0  0  0  0  0  0
    2.9046   -9.7338   -4.8920 H   0  0  0  0  0  0  0  0  0  0  0  0
    0.1160  -11.5680    1.1930 H   0  0  0  0  0  0  0  0  0  0  0  0
    3.3636  -11.1696   -0.3306 H   0  0  0  0  0  0  0  0  0  0  0  0
    3.0528  -11.3759    1.4826 H   0  0  0  0  0  0  0  0  0  0  0  0
    4.9633  -11.2188   -1.2776 H   0  0  0  0  0  0  0  0  0  0  0  0
    6.3534  -10.8911   -0.1113 H   0  0  0  0  0  0  0  0  0  0  0  0
    5.8930  -14.6749   -1.4101 H   0  0  0  0  0  0  0  0  0  0  0  0
    9.8662  -14.5088   -1.3847 H   0  0  0  0  0  0  0  0  0  0  0  0
   10.7180  -17.0286   -1.3786 H   0  0  0  0  0  0  0  0  0  0  0  0
    6.4817  -17.1814   -0.9551 H   0  0  0  0  0  0  0  0  0  0  0  0
    7.7298  -13.0744    2.0921 H   0  0  0  0  0  0  0  0  0  0  0  0
    8.7214  -13.5357    0.6671 H   0  0  0  0  0  0  0  0  0  0  0  0
    7.8162  -11.9842    0.6671 H   0  0  0  0  0  0  0  0  0  0  0  0
    6.8609  -15.6808    1.3130 H   0  0  0  0  0  0  0  0  0  0  0  0
    6.2110  -14.3696    2.4006 H   0  0  0  0  0  0  0  0  0  0  0  0
    4.6637  -15.7703    0.1965 H   0  0  0  0  0  0  0  0  0  0  0  0
    4.5464  -16.1109    1.9655 H   0  0  0  0  0  0  0  0  0  0  0  0
    3.7261  -13.9030    2.4244 H   0  0  0  0  0  0  0  0  0  0  0  0
    1.9660  -15.3438    3.0787 H   0  0  0  0  0  0  0  0  0  0  0  0
    0.7150  -15.9107    1.9210 H   0  0  0  0  0  0  0  0  0  0  0  0
    2.3459  -16.6637    1.9210 H   0  0  0  0  0  0  0  0  0  0  0  0
  1  2  1  0
  2  3  1  0
  3  4  2  0
  3  5  1  0
  5  6  1  0
  6  7  1  0
  7  8  1  0
  7  9  1  0
  7 10  1  0
 10 11  1  0
 11 12  1  0
 12 13  2  0
 12 14  1  0
 14 15  2  0
 15 16  1  0
 16 17  2  0
 17 18  1  0
 18 19  2  0
 10 20  1  0
 20 21  1  1
 20 22  1  0
 22 23  1  0
 23 24  2  0
 24 25  1  0
 25 26  1  0
 26 27  2  0
 26 28  1  0
 28 29  1  0
 29 30  1  0
 30 31  1  0
 31 32  2  0
 32 33  1  0
 33 34  1  0
 29 35  1  0
 35 36  1  1
 35 37  1  0
 37 38  1  0
 38 39  1  0
 39 40  1  0
 40 41  1  1
 40 42  1  0
 42 43  2  0
 40  6  1  0
 19 14  1  0
 42 20  1  0
 39 23  1  0
 35 24  1  0
 34 30  2  0
  1 44  1  0
  1 45  1  0
  1 46  1  0
  5 47  1  0
  5 48  1  0
  6 49  1  6
  8 50  1  0
  8 51  1  0
  8 52  1  0
  9 53  1  0
  9 54  1  0
  9 55  1  0
 10 56  1  6
 15 57  1  0
 16 58  1  0
 17 59  1  0
 18 60  1  0
 19 61  1  0
 21 62  1  0
 22 63  1  0
 22 64  1  0
 25 65  1  0
 25 66  1  0
 29 67  1  6
 31 68  1  0
 32 69  1  0
 34 70  1  0
 36 71  1  0
 36 72  1  0
 36 73  1  0
 37 74  1  0
 37 75  1  0
 38 76  1  0
 38 77  1  0
 39 78  1  1
 41 79  1  0
 41 80  1  0
 41 81  1  0
M  END
>  <meeko>  (2) 
{"is_sidechain": [false], "free_energy": -7.624, "intermolecular_energy": -11.219, "internal_energy": -2.551}

$$$$
LIB_QLNUKHGTFPPKSK__M_PUB_ALL__e8__s20260927
     RDKit          3D

 81 86  0  0  0  0  0  0  0  0999 V2000
    7.2100   -9.7780    0.9650 C   0  0  0  0  0  0  0  0  0  0  0  0
    6.6110  -10.8520    1.6920 O   0  0  0  0  0  0  0  0  0  0  0  0
    6.7380  -12.0650    1.0930 C   0  0  0  0  0  0  0  0  0  0  0  0
    7.6640  -12.8490    1.2670 O   0  0  0  0  0  0  0  0  0  0  0  0
    5.5870  -12.3050    0.1360 C   0  0  0  0  0  0  0  0  0  0  0  0
    5.8020  -13.5520   -0.7650 C   0  0  1  0  0  0  0  0  0  0  0  0
    4.9190  -14.7980   -0.3610 C   0  0  0  0  0  0  0  0  0  0  0  0
    5.0530  -15.1200    1.1520 C   0  0  0  0  0  0  0  0  0  0  0  0
    3.4030  -14.5790   -0.5920 C   0  0  0  0  0  0  0  0  0  0  0  0
    5.4410  -16.0370   -1.1840 C   0  0  2  0  0  0  0  0  0  0  0  0
    6.7180  -16.4090   -0.6000 O   0  0  0  0  0  0  0  0  0  0  0  0
    7.0050  -17.7310   -0.5220 C   0  0  0  0  0  0  0  0  0  0  0  0
    8.0240  -18.2730   -0.9150 O   0  0  0  0  0  0  0  0  0  0  0  0
    5.8800  -18.4560    0.1220 C   0  0  0  0  0  0  0  0  0  0  0  0
    5.8840  -18.5790    1.5170 C   0  0  0  0  0  0  0  0  0  0  0  0
    4.8480  -19.2550    2.1640 C   0  0  0  0  0  0  0  0  0  0  0  0
    3.8100  -19.8150    1.4220 C   0  0  0  0  0  0  0  0  0  0  0  0
    3.8050  -19.7060    0.0320 C   0  0  0  0  0  0  0  0  0  0  0  0
    4.8370  -19.0290   -0.6200 C   0  0  0  0  0  0  0  0  0  0  0  0
    5.6100  -15.7780   -2.7070 C   0  0  2  0  0  0  0  0  0  0  0  0
    4.8490  -16.7620   -3.4230 O   0  0  0  0  0  0  0  0  0  0  0  0
    7.0430  -15.7790   -3.2800 C   0  0  0  0  0  0  0  0  0  0  0  0
    7.9240  -14.5770   -2.9250 C   0  0  0  0  0  0  0  0  0  0  0  0
    9.2590  -14.6830   -2.6910 C   0  0  0  0  0  0  0  0  0  0  0  0
    9.9930  -15.9950   -2.5000 C   0  0  0  0  0  0  0  0  0  0  0  0
   11.1210  -15.9780   -1.4720 C   0  0  0  0  0  0  0  0  0  0  0  0
   11.7960  -16.9840   -1.2620 O   0  0  0  0  0  0  0  0  0  0  0  0
   11.4060  -14.8210   -0.8300 O   0  0  0  0  0  0  0  0  0  0  0  0
   10.6380  -13.6060   -1.0380 C   0  0  1  0  0  0  0  0  0  0  0  0
   11.4200  -12.4400   -0.5070 C   0  0  0  0  0  0  0  0  0  0  0  0
   12.6620  -11.9210   -0.9780 C   0  0  0  0  0  0  0  0  0  0  0  0
   12.9790  -10.8610   -0.1630 C   0  0  0  0  0  0  0  0  0  0  0  0
   12.0260  -10.6940    0.7870 O   0  0  0  0  0  0  0  0  0  0  0  0
   11.0960  -11.6590    0.5860 C   0  0  0  0  0  0  0  0  0  0  0  0
   10.1940  -13.4760   -2.5260 C   0  0  1  0  0  0  0  0  0  0  0  0
   11.3940  -13.5600   -3.5090 C   0  0  0  0  0  0  0  0  0  0  0  0
    9.4770  -12.1490   -2.8740 C   0  0  0  0  0  0  0  0  0  0  0  0
    8.0590  -12.0870   -2.3470 C   0  0  0  0  0  0  0  0  0  0  0  0
    7.2010  -13.2100   -2.9600 C   0  0  2  0  0  0  0  0  0  0  0  0
    5.7590  -13.2460   -2.3240 C   0  0  2  0  0  0  0  0  0  0  0  0
    4.9700  -11.9670   -2.6840 C   0  0  0  0  0  0  0  0  0  0  0  0
    5.0850  -14.4030   -3.0590 C   0  0  0  0  0  0  0  0  0  0  0  0
    4.2270  -14.2620   -3.9330 O   0  0  0  0  0  0  0  0  0  0  0  0
    7.6208   -9.0414    1.6712 H   0  0  0  0  0  0  0  0  0  0  0  0
    8.0196  -10.1703    0.3320 H   0  0  0  0  0  0  0  0  0  0  0  0
    6.4508   -9.2953    0.3320 H   0  0  0  0  0  0  0  0  0  0  0  0
    4.6673  -12.4493    0.7219 H   0  0  0  0  0  0  0  0  0  0  0  0
    5.5174  -11.4279   -0.5242 H   0  0  0  0  0  0  0  0  0  0  0  0
    6.8407  -13.8481   -0.5569 H   0  0  0  0  0  0  0  0  0  0  0  0
    4.6964  -14.2630    1.7422 H   0  0  0  0  0  0  0  0  0  0  0  0
    4.4496  -16.0076    1.3928 H   0  0  0  0  0  0  0  0  0  0  0  0
    6.1080  -15.3175    1.3928 H   0  0  0  0  0  0  0  0  0  0  0  0
    2.8911  -14.5051    0.3788 H   0  0  0  0  0  0  0  0  0  0  0  0
    3.2491  -13.6493   -1.1594 H   0  0  0  0  0  0  0  0  0  0  0  0
    2.9923  -15.4271   -1.1594 H   0  0  0  0  0  0  0  0  0  0  0  0
    4.6877  -16.8360   -1.1199 H   0  0  0  0  0  0  0  0  0  0  0  0
    6.7052  -18.1421    2.1042 H   0  0  0  0  0  0  0  0  0  0  0  0
    4.8511  -19.3456    3.2603 H   0  0  0  0  0  0  0  0  0  0  0  0
    2.9928  -20.3442    1.9340 H   0  0  0  0  0  0  0  0  0  0  0  0
    2.9870  -20.1539   -0.5514 H   0  0  0  0  0  0  0  0  0  0  0  0
    4.8322  -18.9449   -1.7168 H   0  0  0  0  0  0  0  0  0  0  0  0
    4.4970  -17.3900   -2.7580 H   0  0  0  0  0  0  0  0  0  0  0  0
    7.5489  -16.6839   -2.9123 H   0  0  0  0  0  0  0  0  0  0  0  0
    6.9189  -15.7355   -4.3721 H   0  0  0  0  0  0  0  0  0  0  0  0
    9.2586  -16.7503   -2.1836 H   0  0  0  0  0  0  0  0  0  0  0  0
   10.4707  -16.2151   -3.4661 H   0  0  0  0  0  0  0  0  0  0  0  0
    9.6946  -13.6352   -0.4731 H   0  0  0  0  0  0  0  0  0  0  0  0
   13.2512  -12.2960   -1.8278 H   0  0  0  0  0  0  0  0  0  0  0  0
   13.8785  -10.2364   -0.2666 H   0  0  0  0  0  0  0  0  0  0  0  0
   10.2016  -11.8017    1.2103 H   0  0  0  0  0  0  0  0  0  0  0  0
   12.3319  -13.6257   -2.9379 H   0  0  0  0  0  0  0  0  0  0  0  0
   11.2872  -14.4529   -4.1425 H   0  0  0  0  0  0  0  0  0  0  0  0
   11.4126  -12.6610   -4.1425 H   0  0  0  0  0  0  0  0  0  0  0  0
   10.0495  -11.3166   -2.4387 H   0  0  0  0  0  0  0  0  0  0  0  0
    9.4237  -12.0815   -3.9706 H   0  0  0  0  0  0  0  0  0  0  0  0
    8.0750  -12.2010   -1.2530 H   0  0  0  0  0  0  0  0  0  0  0  0
    7.6211  -11.1164   -2.6231 H   0  0  0  0  0  0  0  0  0  0  0  0
    7.0591  -12.9802   -4.0263 H   0  0  0  0  0  0  0  0  0  0  0  0
    4.6559  -11.4579   -1.7609 H   0  0  0  0  0  0  0  0  0  0  0  0
    5.6106  -11.2948   -3.2737 H   0  0  0  0  0  0  0  0  0  0  0  0
    4.0818  -12.2379   -3.2737 H   0  0  0  0  0  0  0  0  0  0  0  0
  1  2  1  0
  2  3  1  0
  3  4  2  0
  3  5  1  0
  5  6  1  0
  6  7  1  0
  7  8  1  0
  7  9  1  0
  7 10  1  0
 10 11  1  0
 11 12  1  0
 12 13  2  0
 12 14  1  0
 14 15  2  0
 15 16  1  0
 16 17  2  0
 17 18  1  0
 18 19  2  0
 10 20  1  0
 20 21  1  6
 20 22  1  0
 22 23  1  0
 23 24  2  0
 24 25  1  0
 25 26  1  0
 26 27  2  0
 26 28  1  0
 28 29  1  0
 29 30  1  0
 30 31  1  0
 31 32  2  0
 32 33  1  0
 33 34  1  0
 29 35  1  0
 35 36  1  6
 35 37  1  0
 37 38  1  0
 38 39  1  0
 39 40  1  0
 40 41  1  1
 40 42  1  0
 42 43  2  0
 40  6  1  0
 19 14  1  0
 42 20  1  0
 39 23  1  0
 35 24  1  0
 34 30  2  0
  1 44  1  0
  1 45  1  0
  1 46  1  0
  5 47  1  0
  5 48  1  0
  6 49  1  1
  8 50  1  0
  8 51  1  0
  8 52  1  0
  9 53  1  0
  9 54  1  0
  9 55  1  0
 10 56  1  6
 15 57  1  0
 16 58  1  0
 17 59  1  0
 18 60  1  0
 19 61  1  0
 21 62  1  0
 22 63  1  0
 22 64  1  0
 25 65  1  0
 25 66  1  0
 29 67  1  1
 31 68  1  0
 32 69  1  0
 34 70  1  0
 36 71  1  0
 36 72  1  0
 36 73  1  0
 37 74  1  0
 37 75  1  0
 38 76  1  0
 38 77  1  0
 39 78  1  6
 41 79  1  0
 41 80  1  0
 41 81  1  0
M  END
>  <meeko>  (3) 
{"is_sidechain": [false], "free_energy": -7.418, "intermolecular_energy": -11.593, "internal_energy": -1.882}

$$$$
LIB_QLNUKHGTFPPKSK__M_PUB_ALL__e8__s20260927
     RDKit          3D

 81 86  0  0  0  0  0  0  0  0999 V2000
   12.8120  -14.9830   -3.2630 C   0  0  0  0  0  0  0  0  0  0  0  0
   12.4940  -14.5630   -4.5910 O   0  0  0  0  0  0  0  0  0  0  0  0
   11.1620  -14.4570   -4.8350 C   0  0  0  0  0  0  0  0  0  0  0  0
   10.4550  -13.5070   -4.5190 O   0  0  0  0  0  0  0  0  0  0  0  0
   10.6500  -15.7070   -5.5230 C   0  0  0  0  0  0  0  0  0  0  0  0
    9.1100  -15.8770   -5.3960 C   0  0  1  0  0  0  0  0  0  0  0  0
    8.3350  -15.7530   -6.7660 C   0  0  0  0  0  0  0  0  0  0  0  0
    8.7350  -14.4610   -7.5280 C   0  0  0  0  0  0  0  0  0  0  0  0
    8.6350  -16.9100   -7.7520 C   0  0  0  0  0  0  0  0  0  0  0  0
    6.7950  -15.6810   -6.4350 C   0  0  2  0  0  0  0  0  0  0  0  0
    6.5580  -14.3640   -5.8690 O   0  0  0  0  0  0  0  0  0  0  0  0
    5.7590  -13.5220   -6.5670 C   0  0  0  0  0  0  0  0  0  0  0  0
    5.9470  -13.1230   -7.7030 O   0  0  0  0  0  0  0  0  0  0  0  0
    4.5880  -13.1330   -5.7390 C   0  0  0  0  0  0  0  0  0  0  0  0
    4.4190  -11.7780   -5.4270 C   0  0  0  0  0  0  0  0  0  0  0  0
    3.3340  -11.3680   -4.6500 C   0  0  0  0  0  0  0  0  0  0  0  0
    2.4210  -12.3080   -4.1750 C   0  0  0  0  0  0  0  0  0  0  0  0
    2.5900  -13.6610   -4.4710 C   0  0  0  0  0  0  0  0  0  0  0  0
    3.6710  -14.0760   -5.2510 C   0  0  0  0  0  0  0  0  0  0  0  0
    6.2910  -16.7780   -5.4560 C   0  0  2  0  0  0  0  0  0  0  0  0
    5.2070  -17.4820   -6.0800 O   0  0  0  0  0  0  0  0  0  0  0  0
    5.8200  -16.3290   -4.0570 C   0  0  0  0  0  0  0  0  0  0  0  0
    6.9100  -15.8810   -3.0770 C   0  0  0  0  0  0  0  0  0  0  0  0
    6.7350  -14.8660   -2.1910 C   0  0  0  0  0  0  0  0  0  0  0  0
    5.5710  -13.8950   -2.2190 C   0  0  0  0  0  0  0  0  0  0  0  0
    5.9020  -12.4550   -1.8370 C   0  0  0  0  0  0  0  0  0  0  0  0
    5.0230  -11.5970   -1.8030 O   0  0  0  0  0  0  0  0  0  0  0  0
    7.1700  -12.1460   -1.4810 O   0  0  0  0  0  0  0  0  0  0  0  0
    8.2460  -13.1210   -1.5070 C   0  0  1  0  0  0  0  0  0  0  0  0
    9.4000  -12.5940   -0.7060 C   0  0  0  0  0  0  0  0  0  0  0  0
   10.7860  -12.5990   -1.0440 C   0  0  0  0  0  0  0  0  0  0  0  0
   11.4490  -12.0170    0.0100 C   0  0  0  0  0  0  0  0  0  0  0  0
   10.5730  -11.6620    0.9820 O   0  0  0  0  0  0  0  0  0  0  0  0
    9.3400  -12.0260    0.5530 C   0  0  0  0  0  0  0  0  0  0  0  0
    7.7330  -14.5280   -1.0740 C   0  0  1  0  0  0  0  0  0  0  0  0
    7.0330  -14.4990    0.3120 C   0  0  0  0  0  0  0  0  0  0  0  0
    8.8350  -15.6080   -0.9500 C   0  0  0  0  0  0  0  0  0  0  0  0
    9.3360  -16.1000   -2.2900 C   0  0  0  0  0  0  0  0  0  0  0  0
    8.1920  -16.7460   -3.0950 C   0  0  2  0  0  0  0  0  0  0  0  0
    8.6610  -17.1440   -4.5460 C   0  0  2  0  0  0  0  0  0  0  0  0
    9.7260  -18.2630   -4.4900 C   0  0  0  0  0  0  0  0  0  0  0  0
    7.4050  -17.7590   -5.1610 C   0  0  0  0  0  0  0  0  0  0  0  0
    7.2460  -18.9670   -5.3480 O   0  0  0  0  0  0  0  0  0  0  0  0
   12.3117  -14.3222   -2.5398 H   0  0  0  0  0  0  0  0  0  0  0  0
   12.4685  -16.0172   -3.1134 H   0  0  0  0  0  0  0  0  0  0  0  0
   13.9006  -14.9329   -3.1134 H   0  0  0  0  0  0  0  0  0  0  0  0
   10.9107  -15.6525   -6.5903 H   0  0  0  0  0  0  0  0  0  0  0  0
   11.1202  -16.5716   -5.0316 H   0  0  0  0  0  0  0  0  0  0  0  0
    8.7986  -15.0052   -4.8018 H   0  0  0  0  0  0  0  0  0  0  0  0
    8.9800  -13.6695   -6.8044 H   0  0  0  0  0  0  0  0  0  0  0  0
    9.6122  -14.6646   -8.1598 H   0  0  0  0  0  0  0  0  0  0  0  0
    7.8962  -14.1334   -8.1598 H   0  0  0  0  0  0  0  0  0  0  0  0
    8.8716  -17.8226   -7.1853 H   0  0  0  0  0  0  0  0  0  0  0  0
    7.7538  -17.0898   -8.3853 H   0  0  0  0  0  0  0  0  0  0  0  0
    9.4926  -16.6390   -8.3853 H   0  0  0  0  0  0  0  0  0  0  0  0
    6.2335  -15.8589   -7.3640 H   0  0  0  0  0  0  0  0  0  0  0  0
    5.1425  -11.0356   -5.7949 H   0  0  0  0  0  0  0  0  0  0  0  0
    3.1995  -10.3024   -4.4125 H   0  0  0  0  0  0  0  0  0  0  0  0
    1.5652  -11.9824   -3.5654 H   0  0  0  0  0  0  0  0  0  0  0  0
    1.8711  -14.4011   -4.0896 H   0  0  0  0  0  0  0  0  0  0  0  0
    3.8038  -15.1430   -5.4831 H   0  0  0  0  0  0  0  0  0  0  0  0
    5.5890  -18.2860   -6.4910 H   0  0  0  0  0  0  0  0  0  0  0  0
    5.1265  -15.4861   -4.1930 H   0  0  0  0  0  0  0  0  0  0  0  0
    5.3702  -17.2235   -3.6014 H   0  0  0  0  0  0  0  0  0  0  0  0
    5.1608  -13.8883   -3.2396 H   0  0  0  0  0  0  0  0  0  0  0  0
    4.8633  -14.2527   -1.4566 H   0  0  0  0  0  0  0  0  0  0  0  0
    8.6176  -13.2693   -2.5317 H   0  0  0  0  0  0  0  0  0  0  0  0
   11.2361  -12.9919   -1.9676 H   0  0  0  0  0  0  0  0  0  0  0  0
   12.5369  -11.8612    0.0581 H   0  0  0  0  0  0  0  0  0  0  0  0
    8.4139  -11.8878    1.1303 H   0  0  0  0  0  0  0  0  0  0  0  0
    7.7925  -14.5305    1.1071 H   0  0  0  0  0  0  0  0  0  0  0  0
    6.4425  -13.5756    0.4053 H   0  0  0  0  0  0  0  0  0  0  0  0
    6.3682  -15.3704    0.4053 H   0  0  0  0  0  0  0  0  0  0  0  0
    9.6829  -15.1810   -0.3943 H   0  0  0  0  0  0  0  0  0  0  0  0
    8.3931  -16.4696   -0.4281 H   0  0  0  0  0  0  0  0  0  0  0  0
    9.7421  -15.2500   -2.8580 H   0  0  0  0  0  0  0  0  0  0  0  0
   10.1187  -16.8540   -2.1200 H   0  0  0  0  0  0  0  0  0  0  0  0
    7.9185  -17.6864   -2.5942 H   0  0  0  0  0  0  0  0  0  0  0  0
    9.9527  -18.5012   -3.4403 H   0  0  0  0  0  0  0  0  0  0  0  0
    9.3410  -19.1612   -4.9949 H   0  0  0  0  0  0  0  0  0  0  0  0
   10.6422  -17.9228   -4.9949 H   0  0  0  0  0  0  0  0  0  0  0  0
  1  2  1  0
  2  3  1  0
  3  4  2  0
  3  5  1  0
  5  6  1  0
  6  7  1  0
  7  8  1  0
  7  9  1  0
  7 10  1  0
 10 11  1  0
 11 12  1  0
 12 13  2  0
 12 14  1  0
 14 15  2  0
 15 16  1  0
 16 17  2  0
 17 18  1  0
 18 19  2  0
 10 20  1  0
 20 21  1  6
 20 22  1  0
 22 23  1  0
 23 24  2  0
 24 25  1  0
 25 26  1  0
 26 27  2  0
 26 28  1  0
 28 29  1  0
 29 30  1  0
 30 31  1  0
 31 32  2  0
 32 33  1  0
 33 34  1  0
 29 35  1  0
 35 36  1  1
 35 37  1  0
 37 38  1  0
 38 39  1  0
 39 40  1  0
 40 41  1  1
 40 42  1  0
 42 43  2  0
 40  6  1  0
 19 14  1  0
 42 20  1  0
 39 23  1  0
 35 24  1  0
 34 30  2  0
  1 44  1  0
  1 45  1  0
  1 46  1  0
  5 47  1  0
  5 48  1  0
  6 49  1  1
  8 50  1  0
  8 51  1  0
  8 52  1  0
  9 53  1  0
  9 54  1  0
  9 55  1  0
 10 56  1  6
 15 57  1  0
 16 58  1  0
 17 59  1  0
 18 60  1  0
 19 61  1  0
 21 62  1  0
 22 63  1  0
 22 64  1  0
 25 65  1  0
 25 66  1  0
 29 67  1  6
 31 68  1  0
 32 69  1  0
 34 70  1  0
 36 71  1  0
 36 72  1  0
 36 73  1  0
 37 74  1  0
 37 75  1  0
 38 76  1  0
 38 77  1  0
 39 78  1  1
 41 79  1  0
 41 80  1  0
 41 81  1  0
M  END
>  <meeko>  (4) 
{"is_sidechain": [false], "free_energy": -7.375, "intermolecular_energy": -11.031, "internal_energy": -2.38}

$$$$
LIB_QLNUKHGTFPPKSK__M_PUB_ALL__e8__s20260927
     RDKit          3D

 81 86  0  0  0  0  0  0  0  0999 V2000
    7.3480  -11.8280    1.2740 C   0  0  0  0  0  0  0  0  0  0  0  0
    6.5010  -12.9400    0.9810 O   0  0  0  0  0  0  0  0  0  0  0  0
    7.0520  -13.8510    0.1370 C   0  0  0  0  0  0  0  0  0  0  0  0
    8.2080  -14.2550    0.1850 O   0  0  0  0  0  0  0  0  0  0  0  0
    6.0450  -14.2750   -0.9140 C   0  0  0  0  0  0  0  0  0  0  0  0
    6.6810  -15.1180   -2.0530 C   0  0  1  0  0  0  0  0  0  0  0  0
    6.2100  -16.6270   -2.0750 C   0  0  0  0  0  0  0  0  0  0  0  0
    6.3660  -17.2890   -0.6800 C   0  0  0  0  0  0  0  0  0  0  0  0
    4.7150  -16.8000   -2.4390 C   0  0  0  0  0  0  0  0  0  0  0  0
    7.1320  -17.3950   -3.0980 C   0  0  2  0  0  0  0  0  0  0  0  0
    8.4310  -17.5270   -2.4620 O   0  0  0  0  0  0  0  0  0  0  0  0
    9.0920  -18.6970   -2.6310 C   0  0  0  0  0  0  0  0  0  0  0  0
    9.2090  -19.3160   -3.6740 O   0  0  0  0  0  0  0  0  0  0  0  0
    9.6700  -19.1430   -1.3370 C   0  0  0  0  0  0  0  0  0  0  0  0
   10.9020  -18.6080   -0.9430 C   0  0  0  0  0  0  0  0  0  0  0  0
   11.4840  -19.0000    0.2630 C   0  0  0  0  0  0  0  0  0  0  0  0
   10.8420  -19.9320    1.0770 C   0  0  0  0  0  0  0  0  0  0  0  0
    9.6200  -20.4790    0.6860 C   0  0  0  0  0  0  0  0  0  0  0  0
    9.0320  -20.0880   -0.5190 C   0  0  0  0  0  0  0  0  0  0  0  0
    7.2850  -16.7020   -4.4800 C   0  0  2  0  0  0  0  0  0  0  0  0
    6.9040  -17.6340   -5.5030 O   0  0  0  0  0  0  0  0  0  0  0  0
    8.6730  -16.1370   -4.8490 C   0  0  0  0  0  0  0  0  0  0  0  0
    9.1180  -14.8720   -4.1060 C   0  0  0  0  0  0  0  0  0  0  0  0
   10.4070  -14.6480   -3.7360 C   0  0  0  0  0  0  0  0  0  0  0  0
   11.5030  -15.6940   -3.7730 C   0  0  0  0  0  0  0  0  0  0  0  0
   12.5180  -15.6290   -2.6350 C   0  0  0  0  0  0  0  0  0  0  0  0
   13.4610  -16.4160   -2.5890 O   0  0  0  0  0  0  0  0  0  0  0  0
   12.3980  -14.6550   -1.7040 O   0  0  0  0  0  0  0  0  0  0  0  0
   11.3010  -13.7030   -1.7110 C   0  0  1  0  0  0  0  0  0  0  0  0
   11.6550  -12.5480   -0.8200 C   0  0  0  0  0  0  0  0  0  0  0  0
   12.7560  -11.6490   -0.9350 C   0  0  0  0  0  0  0  0  0  0  0  0
   12.6580  -10.7730    0.1200 C   0  0  0  0  0  0  0  0  0  0  0  0
   11.5810  -11.0730    0.8860 O   0  0  0  0  0  0  0  0  0  0  0  0
   10.9870  -12.1540    0.3240 C   0  0  0  0  0  0  0  0  0  0  0  0
   10.9110  -13.3140   -3.1690 C   0  0  1  0  0  0  0  0  0  0  0  0
   12.1230  -12.7820   -3.9810 C   0  0  0  0  0  0  0  0  0  0  0  0
    9.8340  -12.2070   -3.2760 C   0  0  0  0  0  0  0  0  0  0  0  0
    8.4430  -12.6980   -2.9360 C   0  0  0  0  0  0  0  0  0  0  0  0
    8.0090  -13.8150   -3.9050 C   0  0  2  0  0  0  0  0  0  0  0  0
    6.6200  -14.4330   -3.4860 C   0  0  2  0  0  0  0  0  0  0  0  0
    5.4910  -13.3870   -3.6260 C   0  0  0  0  0  0  0  0  0  0  0  0
    6.3750  -15.4940   -4.5560 C   0  0  0  0  0  0  0  0  0  0  0  0
    5.5600  -15.3780   -5.4730 O   0  0  0  0  0  0  0  0  0  0  0  0
    7.4365  -11.7118    2.3643 H   0  0  0  0  0  0  0  0  0  0  0  0
    8.3444  -12.0021    0.8417 H   0  0  0  0  0  0  0  0  0  0  0  0
    6.9154  -10.9137    0.8417 H   0  0  0  0  0  0  0  0  0  0  0  0
    5.2617  -14.8753   -0.4281 H   0  0  0  0  0  0  0  0  0  0  0  0
    5.6361  -13.3604   -1.3682 H   0  0  0  0  0  0  0  0  0  0  0  0
    7.7493  -15.1455   -1.7921 H   0  0  0  0  0  0  0  0  0  0  0  0
    6.1890  -16.5381    0.1041 H   0  0  0  0  0  0  0  0  0  0  0  0
    5.6356  -18.1051   -0.5777 H   0  0  0  0  0  0  0  0  0  0  0  0
    7.3840  -17.6931   -0.5777 H   0  0  0  0  0  0  0  0  0  0  0  0
    4.1188  -16.8690   -1.5172 H   0  0  0  0  0  0  0  0  0  0  0  0
    4.3788  -15.9348   -3.0292 H   0  0  0  0  0  0  0  0  0  0  0  0
    4.5853  -17.7191   -3.0292 H   0  0  0  0  0  0  0  0  0  0  0  0
    6.6626  -18.3636   -3.3247 H   0  0  0  0  0  0  0  0  0  0  0  0
   11.4129  -17.8763   -1.5861 H   0  0  0  0  0  0  0  0  0  0  0  0
   12.4498  -18.5734    0.5716 H   0  0  0  0  0  0  0  0  0  0  0  0
   11.3001  -20.2366    2.0296 H   0  0  0  0  0  0  0  0  0  0  0  0
    9.1189  -21.2190    1.3273 H   0  0  0  0  0  0  0  0  0  0  0  0
    8.0687  -20.5208   -0.8269 H   0  0  0  0  0  0  0  0  0  0  0  0
    7.7320  -17.9700   -5.9050 H   0  0  0  0  0  0  0  0  0  0  0  0
    9.4172  -16.9217   -4.6477 H   0  0  0  0  0  0  0  0  0  0  0  0
    8.5944  -15.8408   -5.9054 H   0  0  0  0  0  0  0  0  0  0  0  0
   11.0259  -16.6847   -3.7442 H   0  0  0  0  0  0  0  0  0  0  0  0
   12.0721  -15.4998   -4.6941 H   0  0  0  0  0  0  0  0  0  0  0  0
   10.3868  -14.1517   -1.2951 H   0  0  0  0  0  0  0  0  0  0  0  0
   13.5316  -11.6552   -1.7150 H   0  0  0  0  0  0  0  0  0  0  0  0
   13.3556   -9.9451    0.3150 H   0  0  0  0  0  0  0  0  0  0  0  0
   10.0919  -12.6517    0.7253 H   0  0  0  0  0  0  0  0  0  0  0  0
   12.9058  -12.4384   -3.2887 H   0  0  0  0  0  0  0  0  0  0  0  0
   12.5219  -13.5878   -4.6147 H   0  0  0  0  0  0  0  0  0  0  0  0
   11.7999  -11.9430   -4.6147 H   0  0  0  0  0  0  0  0  0  0  0  0
   10.0974  -11.3940   -2.5835 H   0  0  0  0  0  0  0  0  0  0  0  0
    9.8156  -11.8668   -4.3219 H   0  0  0  0  0  0  0  0  0  0  0  0
    8.4393  -13.0897   -1.9081 H   0  0  0  0  0  0  0  0  0  0  0  0
    7.7389  -11.8577   -3.0260 H   0  0  0  0  0  0  0  0  0  0  0  0
    7.8555  -13.3603   -4.8948 H   0  0  0  0  0  0  0  0  0  0  0  0
    5.1542  -13.0750   -2.6264 H   0  0  0  0  0  0  0  0  0  0  0  0
    5.8680  -12.5119   -4.1756 H   0  0  0  0  0  0  0  0  0  0  0  0
    4.6472  -13.8296   -4.1756 H   0  0  0  0  0  0  0  0  0  0  0  0
  1  2  1  0
  2  3  1  0
  3  4  2  0
  3  5  1  0
  5  6  1  0
  6  7  1  0
  7  8  1  0
  7  9  1  0
  7 10  1  0
 10 11  1  0
 11 12  1  0
 12 13  2  0
 12 14  1  0
 14 15  2  0
 15 16  1  0
 16 17  2  0
 17 18  1  0
 18 19  2  0
 10 20  1  0
 20 21  1  6
 20 22  1  0
 22 23  1  0
 23 24  2  0
 24 25  1  0
 25 26  1  0
 26 27  2  0
 26 28  1  0
 28 29  1  0
 29 30  1  0
 30 31  1  0
 31 32  2  0
 32 33  1  0
 33 34  1  0
 29 35  1  0
 35 36  1  6
 35 37  1  0
 37 38  1  0
 38 39  1  0
 39 40  1  0
 40 41  1  1
 40 42  1  0
 42 43  2  0
 40  6  1  0
 19 14  1  0
 42 20  1  0
 39 23  1  0
 35 24  1  0
 34 30  2  0
  1 44  1  0
  1 45  1  0
  1 46  1  0
  5 47  1  0
  5 48  1  0
  6 49  1  1
  8 50  1  0
  8 51  1  0
  8 52  1  0
  9 53  1  0
  9 54  1  0
  9 55  1  0
 10 56  1  6
 15 57  1  0
 16 58  1  0
 17 59  1  0
 18 60  1  0
 19 61  1  0
 21 62  1  0
 22 63  1  0
 22 64  1  0
 25 65  1  0
 25 66  1  0
 29 67  1  1
 31 68  1  0
 32 69  1  0
 34 70  1  0
 36 71  1  0
 36 72  1  0
 36 73  1  0
 37 74  1  0
 37 75  1  0
 38 76  1  0
 38 77  1  0
 39 78  1  6
 41 79  1  0
 41 80  1  0
 41 81  1  0
M  END
>  <meeko>  (5) 
{"is_sidechain": [false], "free_energy": -7.322, "intermolecular_energy": -10.998, "internal_energy": -2.337}

$$$$
LIB_QLNUKHGTFPPKSK__M_PUB_ALL__e8__s20260927
     RDKit          3D

 81 86  0  0  0  0  0  0  0  0999 V2000
    5.8850  -16.8680   -3.8920 C   0  0  0  0  0  0  0  0  0  0  0  0
    6.2290  -15.7310   -3.0990 O   0  0  0  0  0  0  0  0  0  0  0  0
    7.4600  -15.8050   -2.5280 C   0  0  0  0  0  0  0  0  0  0  0  0
    8.4750  -16.2180   -3.0770 O   0  0  0  0  0  0  0  0  0  0  0  0
    7.4010  -15.3420   -1.0850 C   0  0  0  0  0  0  0  0  0  0  0  0
    5.9730  -14.9140   -0.6480 C   0  0  1  0  0  0  0  0  0  0  0  0
    5.2650  -15.9390    0.3240 C   0  0  0  0  0  0  0  0  0  0  0  0
    5.3110  -17.3830   -0.2440 C   0  0  0  0  0  0  0  0  0  0  0  0
    5.9370  -16.0320    1.7160 C   0  0  0  0  0  0  0  0  0  0  0  0
    3.7550  -15.5020    0.4550 C   0  0  2  0  0  0  0  0  0  0  0  0
    3.1190  -15.8410   -0.8060 O   0  0  0  0  0  0  0  0  0  0  0  0
    2.1510  -16.7890   -0.7800 C   0  0  0  0  0  0  0  0  0  0  0  0
    2.2980  -17.9770   -1.0080 O   0  0  0  0  0  0  0  0  0  0  0  0
    0.8470  -16.1700   -0.4280 C   0  0  0  0  0  0  0  0  0  0  0  0
    0.3580  -16.3510    0.8720 C   0  0  0  0  0  0  0  0  0  0  0  0
   -0.8640  -15.7900    1.2450 C   0  0  0  0  0  0  0  0  0  0  0  0
   -1.6050  -15.0540    0.3210 C   0  0  0  0  0  0  0  0  0  0  0  0
   -1.1310  -14.8800   -0.9780 C   0  0  0  0  0  0  0  0  0  0  0  0
    0.0920  -15.4370   -1.3560 C   0  0  0  0  0  0  0  0  0  0  0  0
    3.5420  -13.9960    0.7690 C   0  0  2  0  0  0  0  0  0  0  0  0
    2.7410  -13.8860    1.9560 O   0  0  0  0  0  0  0  0  0  0  0  0
    2.8900  -13.1210   -0.3220 C   0  0  0  0  0  0  0  0  0  0  0  0
    3.7540  -12.7970   -1.5470 C   0  0  0  0  0  0  0  0  0  0  0  0
    3.2470  -12.7110   -2.8050 C   0  0  0  0  0  0  0  0  0  0  0  0
    1.8550  -13.1620   -3.2010 C   0  0  0  0  0  0  0  0  0  0  0  0
    1.7350  -13.8010   -4.5820 C   0  0  0  0  0  0  0  0  0  0  0  0
    0.6440  -14.1760   -5.0080 O   0  0  0  0  0  0  0  0  0  0  0  0
    2.8400  -13.9010   -5.3570 O   0  0  0  0  0  0  0  0  0  0  0  0
    4.1520  -13.4770   -4.9010 C   0  0  1  0  0  0  0  0  0  0  0  0
    5.0620  -13.3500   -6.0870 C   0  0  0  0  0  0  0  0  0  0  0  0
    4.9240  -12.4900   -7.2170 C   0  0  0  0  0  0  0  0  0  0  0  0
    5.9970  -12.7470   -8.0370 C   0  0  0  0  0  0  0  0  0  0  0  0
    6.7830  -13.7120   -7.5000 O   0  0  0  0  0  0  0  0  0  0  0  0
    6.2060  -14.0850   -6.3310 C   0  0  0  0  0  0  0  0  0  0  0  0
    4.0470  -12.2010   -4.0130 C   0  0  1  0  0  0  0  0  0  0  0  0
    3.2990  -11.0440   -4.7310 C   0  0  0  0  0  0  0  0  0  0  0  0
    5.4060  -11.5990   -3.5820 C   0  0  0  0  0  0  0  0  0  0  0  0
    6.0960  -12.4060   -2.5030 C   0  0  0  0  0  0  0  0  0  0  0  0
    5.2300  -12.4640   -1.2290 C   0  0  2  0  0  0  0  0  0  0  0  0
    5.8670  -13.4110   -0.1420 C   0  0  2  0  0  0  0  0  0  0  0  0
    7.2060  -12.8330    0.3710 C   0  0  0  0  0  0  0  0  0  0  0  0
    4.8760  -13.3240    1.0170 C   0  0  0  0  0  0  0  0  0  0  0  0
    5.0830  -12.7020    2.0600 O   0  0  0  0  0  0  0  0  0  0  0  0
    5.6299  -17.7110   -3.2330 H   0  0  0  0  0  0  0  0  0  0  0  0
    5.0204  -16.6242   -4.5269 H   0  0  0  0  0  0  0  0  0  0  0  0
    6.7397  -17.1444   -4.5269 H   0  0  0  0  0  0  0  0  0  0  0  0
    7.7344  -16.1664   -0.4375 H   0  0  0  0  0  0  0  0  0  0  0  0
    8.0535  -14.4612   -0.9929 H   0  0  0  0  0  0  0  0  0  0  0  0
    5.3935  -14.9447   -1.5825 H   0  0  0  0  0  0  0  0  0  0  0  0
    5.3339  -18.1033    0.5870 H   0  0  0  0  0  0  0  0  0  0  0  0
    4.4181  -17.5630   -0.8607 H   0  0  0  0  0  0  0  0  0  0  0  0
    6.2135  -17.5058   -0.8607 H   0  0  0  0  0  0  0  0  0  0  0  0
    5.1727  -15.9262    2.5000 H   0  0  0  0  0  0  0  0  0  0  0  0
    6.4347  -17.0076    1.8184 H   0  0  0  0  0  0  0  0  0  0  0  0
    6.6810  -15.2283    1.8184 H   0  0  0  0  0  0  0  0  0  0  0  0
    3.3162  -16.0292    1.3149 H   0  0  0  0  0  0  0  0  0  0  0  0
    0.9384  -16.9365    1.6003 H   0  0  0  0  0  0  0  0  0  0  0  0
   -1.2429  -15.9284    2.2683 H   0  0  0  0  0  0  0  0  0  0  0  0
   -2.5663  -14.6095    0.6182 H   0  0  0  0  0  0  0  0  0  0  0  0
   -1.7209  -14.3035   -1.7058 H   0  0  0  0  0  0  0  0  0  0  0  0
    0.4640  -15.3011   -2.3822 H   0  0  0  0  0  0  0  0  0  0  0  0
    2.5490  -12.9340    2.0830 H   0  0  0  0  0  0  0  0  0  0  0  0
    1.9902  -13.6448   -0.6769 H   0  0  0  0  0  0  0  0  0  0  0  0
    2.6945  -12.1520    0.1606 H   0  0  0  0  0  0  0  0  0  0  0  0
    1.5134  -13.8972   -2.4574 H   0  0  0  0  0  0  0  0  0  0  0  0
    1.2429  -12.2488   -3.2385 H   0  0  0  0  0  0  0  0  0  0  0  0
    4.6021  -14.2327   -4.2405 H   0  0  0  0  0  0  0  0  0  0  0  0
    4.1175  -11.7639   -7.3968 H   0  0  0  0  0  0  0  0  0  0  0  0
    6.1905  -12.2408   -8.9942 H   0  0  0  0  0  0  0  0  0  0  0  0
    6.5969  -14.8687   -5.6654 H   0  0  0  0  0  0  0  0  0  0  0  0
    2.8622  -10.3684   -3.9808 H   0  0  0  0  0  0  0  0  0  0  0  0
    4.0068  -10.4846   -5.3603 H   0  0  0  0  0  0  0  0  0  0  0  0
    2.4983  -11.4598   -5.3603 H   0  0  0  0  0  0  0  0  0  0  0  0
    6.0646  -11.5552   -4.4619 H   0  0  0  0  0  0  0  0  0  0  0  0
    5.2062  -10.5997   -3.1678 H   0  0  0  0  0  0  0  0  0  0  0  0
    6.2669  -13.4286   -2.8704 H   0  0  0  0  0  0  0  0  0  0  0  0
    7.0538  -11.9236   -2.2582 H   0  0  0  0  0  0  0  0  0  0  0  0
    5.2154  -11.4572   -0.7862 H   0  0  0  0  0  0  0  0  0  0  0  0
    7.2076  -12.8323    1.4710 H   0  0  0  0  0  0  0  0  0  0  0  0
    8.0375  -13.4523    0.0035 H   0  0  0  0  0  0  0  0  0  0  0  0
    7.3256  -11.8031    0.0035 H   0  0  0  0  0  0  0  0  0  0  0  0
  1  2  1  0
  2  3  1  0
  3  4  2  0
  3  5  1  0
  5  6  1  0
  6  7  1  0
  7  8  1  0
  7  9  1  0
  7 10  1  0
 10 11  1  0
 11 12  1  0
 12 13  2  0
 12 14  1  0
 14 15  2  0
 15 16  1  0
 16 17  2  0
 17 18  1  0
 18 19  2  0
 10 20  1  0
 20 21  1  1
 20 22  1  0
 22 23  1  0
 23 24  2  0
 24 25  1  0
 25 26  1  0
 26 27  2  0
 26 28  1  0
 28 29  1  0
 29 30  1  0
 30 31  1  0
 31 32  2  0
 32 33  1  0
 33 34  1  0
 29 35  1  0
 35 36  1  6
 35 37  1  0
 37 38  1  0
 38 39  1  0
 39 40  1  0
 40 41  1  1
 40 42  1  0
 42 43  2  0
 40  6  1  0
 19 14  1  0
 42 20  1  0
 39 23  1  0
 35 24  1  0
 34 30  2  0
  1 44  1  0
  1 45  1  0
  1 46  1  0
  5 47  1  0
  5 48  1  0
  6 49  1  6
  8 50  1  0
  8 51  1  0
  8 52  1  0
  9 53  1  0
  9 54  1  0
  9 55  1  0
 10 56  1  1
 15 57  1  0
 16 58  1  0
 17 59  1  0
 18 60  1  0
 19 61  1  0
 21 62  1  0
 22 63  1  0
 22 64  1  0
 25 65  1  0
 25 66  1  0
 29 67  1  1
 31 68  1  0
 32 69  1  0
 34 70  1  0
 36 71  1  0
 36 72  1  0
 36 73  1  0
 37 74  1  0
 37 75  1  0
 38 76  1  0
 38 77  1  0
 39 78  1  1
 41 79  1  0
 41 80  1  0
 41 81  1  0
M  END
>  <meeko>  (6) 
{"is_sidechain": [false], "free_energy": -7.253, "intermolecular_energy": -11.025, "internal_energy": -2.21}

$$$$
LIB_QLNUKHGTFPPKSK__M_PUB_ALL__e8__s20260927
     RDKit          3D

 81 86  0  0  0  0  0  0  0  0999 V2000
    7.1200  -16.5050   -2.8320 C   0  0  0  0  0  0  0  0  0  0  0  0
    5.7600  -16.2560   -3.1910 O   0  0  0  0  0  0  0  0  0  0  0  0
    5.4740  -16.5180   -4.4940 C   0  0  0  0  0  0  0  0  0  0  0  0
    5.9180  -17.4570   -5.1440 O   0  0  0  0  0  0  0  0  0  0  0  0
    4.5530  -15.4530   -5.0560 C   0  0  0  0  0  0  0  0  0  0  0  0
    4.4880  -14.1820   -4.1660 C   0  0  1  0  0  0  0  0  0  0  0  0
    5.3690  -12.9810   -4.6940 C   0  0  0  0  0  0  0  0  0  0  0  0
    6.8250  -13.4340   -4.9880 C   0  0  0  0  0  0  0  0  0  0  0  0
    4.8580  -12.3810   -6.0270 C   0  0  0  0  0  0  0  0  0  0  0  0
    5.4060  -11.8860   -3.5600 C   0  0  2  0  0  0  0  0  0  0  0  0
    6.2630  -12.4100   -2.5100 O   0  0  0  0  0  0  0  0  0  0  0  0
    7.2020  -11.5770   -2.0000 C   0  0  0  0  0  0  0  0  0  0  0  0
    7.0250  -10.4300   -1.6290 O   0  0  0  0  0  0  0  0  0  0  0  0
    8.5170  -12.2660   -1.9530 C   0  0  0  0  0  0  0  0  0  0  0  0
    9.4380  -12.0030   -2.9750 C   0  0  0  0  0  0  0  0  0  0  0  0
   10.6850  -12.6300   -2.9730 C   0  0  0  0  0  0  0  0  0  0  0  0
   11.0140  -13.5260   -1.9570 C   0  0  0  0  0  0  0  0  0  0  0  0
   10.0970  -13.8020   -0.9430 C   0  0  0  0  0  0  0  0  0  0  0  0
    8.8500  -13.1760   -0.9390 C   0  0  0  0  0  0  0  0  0  0  0  0
    4.0160  -11.5130   -2.9740 C   0  0  2  0  0  0  0  0  0  0  0  0
    3.8360  -10.0940   -3.0940 O   0  0  0  0  0  0  0  0  0  0  0  0
    3.7280  -11.9040   -1.5090 C   0  0  0  0  0  0  0  0  0  0  0  0
    3.5050  -13.3940   -1.2280 C   0  0  0  0  0  0  0  0  0  0  0  0
    3.9350  -14.0030   -0.0910 C   0  0  0  0  0  0  0  0  0  0  0  0
    4.8890  -13.3780    0.9080 C   0  0  0  0  0  0  0  0  0  0  0  0
    5.8910  -14.3330    1.5510 C   0  0  0  0  0  0  0  0  0  0  0  0
    6.6900  -13.9300    2.3940 O   0  0  0  0  0  0  0  0  0  0  0  0
    5.8530  -15.6440    1.2210 O   0  0  0  0  0  0  0  0  0  0  0  0
    4.9320  -16.1710    0.2290 C   0  0  1  0  0  0  0  0  0  0  0  0
    4.8640  -17.6630    0.3730 C   0  0  0  0  0  0  0  0  0  0  0  0
    5.0090  -18.4430    1.5580 C   0  0  0  0  0  0  0  0  0  0  0  0
    4.8780  -19.7580    1.1810 C   0  0  0  0  0  0  0  0  0  0  0  0
    4.6740  -19.8480   -0.1570 O   0  0  0  0  0  0  0  0  0  0  0  0
    4.6810  -18.5820   -0.6420 C   0  0  0  0  0  0  0  0  0  0  0  0
    3.5580  -15.4390    0.3010 C   0  0  1  0  0  0  0  0  0  0  0  0
    2.9400  -15.4870    1.7250 C   0  0  0  0  0  0  0  0  0  0  0  0
    2.4680  -16.0170   -0.6340 C   0  0  0  0  0  0  0  0  0  0  0  0
    2.6870  -15.6610   -2.0890 C   0  0  0  0  0  0  0  0  0  0  0  0
    2.6550  -14.1330   -2.2870 C   0  0  2  0  0  0  0  0  0  0  0  0
    3.0140  -13.7360   -3.7690 C   0  0  2  0  0  0  0  0  0  0  0  0
    1.9300  -14.2390   -4.7490 C   0  0  0  0  0  0  0  0  0  0  0  0
    2.9220  -12.2120   -3.7520 C   0  0  0  0  0  0  0  0  0  0  0  0
    2.0010  -11.5680   -4.2590 O   0  0  0  0  0  0  0  0  0  0  0  0
    7.2127  -16.5220   -1.7360 H   0  0  0  0  0  0  0  0  0  0  0  0
    7.4355  -17.4758   -3.2418 H   0  0  0  0  0  0  0  0  0  0  0  0
    7.7590  -15.7089   -3.2418 H   0  0  0  0  0  0  0  0  0  0  0  0
    4.9163  -15.1652   -6.0536 H   0  0  0  0  0  0  0  0  0  0  0  0
    3.5401  -15.8799   -5.0977 H   0  0  0  0  0  0  0  0  0  0  0  0
    4.9574  -14.5002   -3.2235 H   0  0  0  0  0  0  0  0  0  0  0  0
    7.3563  -13.5993   -4.0391 H   0  0  0  0  0  0  0  0  0  0  0  0
    6.8082  -14.3694   -5.5666 H   0  0  0  0  0  0  0  0  0  0  0  0
    7.3419  -12.6542   -5.5666 H   0  0  0  0  0  0  0  0  0  0  0  0
    4.1582  -11.5593   -5.8148 H   0  0  0  0  0  0  0  0  0  0  0  0
    5.7102  -11.9964   -6.6065 H   0  0  0  0  0  0  0  0  0  0  0  0
    4.3427  -13.1611   -6.6065 H   0  0  0  0  0  0  0  0  0  0  0  0
    5.7831  -10.9497   -3.9972 H   0  0  0  0  0  0  0  0  0  0  0  0
    9.1780  -11.3009   -3.7809 H   0  0  0  0  0  0  0  0  0  0  0  0
   11.4086  -12.4170   -3.7736 H   0  0  0  0  0  0  0  0  0  0  0  0
   11.9987  -14.0163   -1.9550 H   0  0  0  0  0  0  0  0  0  0  0  0
   10.3571  -14.5138   -0.1457 H   0  0  0  0  0  0  0  0  0  0  0  0
    8.1272  -13.3964   -0.1396 H   0  0  0  0  0  0  0  0  0  0  0  0
    4.6560   -9.6740   -2.7590 H   0  0  0  0  0  0  0  0  0  0  0  0
    4.5833  -11.5740   -0.9011 H   0  0  0  0  0  0  0  0  0  0  0  0
    2.7741  -11.4159   -1.2605 H   0  0  0  0  0  0  0  0  0  0  0  0
    5.4565  -12.5923    0.3878 H   0  0  0  0  0  0  0  0  0  0  0  0
    4.2608  -13.0037    1.7297 H   0  0  0  0  0  0  0  0  0  0  0  0
    5.2939  -15.9710   -0.7903 H   0  0  0  0  0  0  0  0  0  0  0  0
    5.1903  -18.0657    2.5752 H   0  0  0  0  0  0  0  0  0  0  0  0
    4.9311  -20.6161    1.8671 H   0  0  0  0  0  0  0  0  0  0  0  0
    4.5573  -18.3211   -1.7034 H   0  0  0  0  0  0  0  0  0  0  0  0
    3.7421  -15.4247    2.4751 H   0  0  0  0  0  0  0  0  0  0  0  0
    2.2505  -14.6397    1.8542 H   0  0  0  0  0  0  0  0  0  0  0  0
    2.3896  -16.4306    1.8542 H   0  0  0  0  0  0  0  0  0  0  0  0
    2.4684  -17.1127   -0.5374 H   0  0  0  0  0  0  0  0  0  0  0  0
    1.5065  -15.5781   -0.3291 H   0  0  0  0  0  0  0  0  0  0  0  0
    3.6654  -16.0465   -2.4117 H   0  0  0  0  0  0  0  0  0  0  0  0
    1.8824  -16.1121   -2.6883 H   0  0  0  0  0  0  0  0  0  0  0  0
    1.6214  -13.7944   -2.1225 H   0  0  0  0  0  0  0  0  0  0  0  0
    1.0763  -14.6351   -4.1796 H   0  0  0  0  0  0  0  0  0  0  0  0
    1.5930  -13.4052   -5.3825 H   0  0  0  0  0  0  0  0  0  0  0  0
    2.3491  -15.0346   -5.3825 H   0  0  0  0  0  0  0  0  0  0  0  0
  1  2  1  0
  2  3  1  0
  3  4  2  0
  3  5  1  0
  5  6  1  0
  6  7  1  0
  7  8  1  0
  7  9  1  0
  7 10  1  0
 10 11  1  0
 11 12  1  0
 12 13  2  0
 12 14  1  0
 14 15  2  0
 15 16  1  0
 16 17  2  0
 17 18  1  0
 18 19  2  0
 10 20  1  0
 20 21  1  1
 20 22  1  0
 22 23  1  0
 23 24  2  0
 24 25  1  0
 25 26  1  0
 26 27  2  0
 26 28  1  0
 28 29  1  0
 29 30  1  0
 30 31  1  0
 31 32  2  0
 32 33  1  0
 33 34  1  0
 29 35  1  0
 35 36  1  1
 35 37  1  0
 37 38  1  0
 38 39  1  0
 39 40  1  0
 40 41  1  6
 40 42  1  0
 42 43  2  0
 40  6  1  0
 19 14  1  0
 42 20  1  0
 39 23  1  0
 35 24  1  0
 34 30  2  0
  1 44  1  0
  1 45  1  0
  1 46  1  0
  5 47  1  0
  5 48  1  0
  6 49  1  1
  8 50  1  0
  8 51  1  0
  8 52  1  0
  9 53  1  0
  9 54  1  0
  9 55  1  0
 10 56  1  6
 15 57  1  0
 16 58  1  0
 17 59  1  0
 18 60  1  0
 19 61  1  0
 21 62  1  0
 22 63  1  0
 22 64  1  0
 25 65  1  0
 25 66  1  0
 29 67  1  6
 31 68  1  0
 32 69  1  0
 34 70  1  0
 36 71  1  0
 36 72  1  0
 36 73  1  0
 37 74  1  0
 37 75  1  0
 38 76  1  0
 38 77  1  0
 39 78  1  1
 41 79  1  0
 41 80  1  0
 41 81  1  0
M  END
>  <meeko>  (7) 
{"is_sidechain": [false], "free_energy": -7.23, "intermolecular_energy": -10.74, "internal_energy": -2.463}

$$$$
LIB_QLNUKHGTFPPKSK__M_PUB_ALL__e8__s20260927
     RDKit          3D

 81 86  0  0  0  0  0  0  0  0999 V2000
    4.2450  -13.5780    2.2970 C   0  0  0  0  0  0  0  0  0  0  0  0
    4.7020  -14.2240    1.1080 O   0  0  0  0  0  0  0  0  0  0  0  0
    6.0370  -14.4730    1.0900 C   0  0  0  0  0  0  0  0  0  0  0  0
    6.7590  -14.5490    2.0780 O   0  0  0  0  0  0  0  0  0  0  0  0
    6.5310  -14.6040   -0.3380 C   0  0  0  0  0  0  0  0  0  0  0  0
    5.4260  -14.2990   -1.3870 C   0  0  1  0  0  0  0  0  0  0  0  0
    5.5820  -12.8960   -2.0960 C   0  0  0  0  0  0  0  0  0  0  0  0
    5.7560  -11.7540   -1.0590 C   0  0  0  0  0  0  0  0  0  0  0  0
    6.8300  -12.8030   -3.0090 C   0  0  0  0  0  0  0  0  0  0  0  0
    4.2620  -12.6300   -2.9160 C   0  0  2  0  0  0  0  0  0  0  0  0
    3.2280  -12.3280   -1.9420 O   0  0  0  0  0  0  0  0  0  0  0  0
    2.4600  -11.2340   -2.1680 C   0  0  0  0  0  0  0  0  0  0  0  0
    2.4750  -10.5360   -3.1670 O   0  0  0  0  0  0  0  0  0  0  0  0
    1.5730  -10.9900   -1.0020 C   0  0  0  0  0  0  0  0  0  0  0  0
    0.4800  -10.1300   -1.1720 C   0  0  0  0  0  0  0  0  0  0  0  0
   -0.3780   -9.8690   -0.1030 C   0  0  0  0  0  0  0  0  0  0  0  0
   -0.1460  -10.4590    1.1390 C   0  0  0  0  0  0  0  0  0  0  0  0
    0.9470  -11.3070    1.3180 C   0  0  0  0  0  0  0  0  0  0  0  0
    1.8070  -11.5730    0.2510 C   0  0  0  0  0  0  0  0  0  0  0  0
    3.8120  -13.8110   -3.8200 C   0  0  2  0  0  0  0  0  0  0  0  0
    3.6760  -13.3300   -5.1650 O   0  0  0  0  0  0  0  0  0  0  0  0
    2.5060  -14.5420   -3.4450 C   0  0  0  0  0  0  0  0  0  0  0  0
    2.5550  -15.4420   -2.2050 C   0  0  0  0  0  0  0  0  0  0  0  0
    1.5120  -15.5690   -1.3430 C   0  0  0  0  0  0  0  0  0  0  0  0
    0.2880  -14.6750   -1.3420 C   0  0  0  0  0  0  0  0  0  0  0  0
   -0.2880  -14.3450    0.0330 C   0  0  0  0  0  0  0  0  0  0  0  0
   -1.2960  -13.6490    0.1410 O   0  0  0  0  0  0  0  0  0  0  0  0
    0.2940  -14.8760    1.1330 O   0  0  0  0  0  0  0  0  0  0  0  0
    1.4880  -15.7010    1.0600 C   0  0  1  0  0  0  0  0  0  0  0  0
    1.6490  -16.4370    2.3580 C   0  0  0  0  0  0  0  0  0  0  0  0
    1.7530  -17.8440    2.5680 C   0  0  0  0  0  0  0  0  0  0  0  0
    1.8740  -18.0300    3.9250 C   0  0  0  0  0  0  0  0  0  0  0  0
    1.8420  -16.8380    4.5700 O   0  0  0  0  0  0  0  0  0  0  0  0
    1.6900  -15.8810    3.6220 C   0  0  0  0  0  0  0  0  0  0  0  0
    1.4640  -16.6040   -0.2090 C   0  0  1  0  0  0  0  0  0  0  0  0
    0.1760  -17.4680   -0.2940 C   0  0  0  0  0  0  0  0  0  0  0  0
    2.6350  -17.6110   -0.3090 C   0  0  0  0  0  0  0  0  0  0  0  0
    3.9480  -16.9570   -0.6840 C   0  0  0  0  0  0  0  0  0  0  0  0
    3.8450  -16.2830   -2.0650 C   0  0  2  0  0  0  0  0  0  0  0  0
    5.1580  -15.4830   -2.4140 C   0  0  2  0  0  0  0  0  0  0  0  0
    6.3570  -16.4430   -2.5820 C   0  0  0  0  0  0  0  0  0  0  0  0
    4.8560  -14.9070   -3.7970 C   0  0  0  0  0  0  0  0  0  0  0  0
    5.3490  -15.3280   -4.8450 O   0  0  0  0  0  0  0  0  0  0  0  0
    4.6263  -14.1170    3.1768 H   0  0  0  0  0  0  0  0  0  0  0  0
    4.6116  -12.5410    2.3150 H   0  0  0  0  0  0  0  0  0  0  0  0
    3.1451  -13.5784    2.3150 H   0  0  0  0  0  0  0  0  0  0  0  0
    7.3625  -13.8998   -0.4884 H   0  0  0  0  0  0  0  0  0  0  0  0
    6.8485  -15.6469   -0.4846 H   0  0  0  0  0  0  0  0  0  0  0  0
    4.5077  -14.2235   -0.7862 H   0  0  0  0  0  0  0  0  0  0  0  0
    5.6927  -12.1692   -0.0423 H   0  0  0  0  0  0  0  0  0  0  0  0
    6.7372  -11.2771   -1.1999 H   0  0  0  0  0  0  0  0  0  0  0  0
    4.9614  -11.0065   -1.1999 H   0  0  0  0  0  0  0  0  0  0  0  0
    7.7349  -12.7356   -2.3873 H   0  0  0  0  0  0  0  0  0  0  0  0
    6.8874  -13.6994   -3.6440 H   0  0  0  0  0  0  0  0  0  0  0  0
    6.7539  -11.9080   -3.6440 H   0  0  0  0  0  0  0  0  0  0  0  0
    4.4507  -11.8022   -3.6154 H   0  0  0  0  0  0  0  0  0  0  0  0
    0.2980   -9.6599   -2.1497 H   0  0  0  0  0  0  0  0  0  0  0  0
   -1.2382   -9.1972   -0.2401 H   0  0  0  0  0  0  0  0  0  0  0  0
   -0.8262  -10.2553    1.9792 H   0  0  0  0  0  0  0  0  0  0  0  0
    1.1314  -11.7663    2.3004 H   0  0  0  0  0  0  0  0  0  0  0  0
    2.6693  -12.2409    0.3937 H   0  0  0  0  0  0  0  0  0  0  0  0
    4.4910  -12.8280   -5.3720 H   0  0  0  0  0  0  0  0  0  0  0  0
    1.7336  -13.7780   -3.2726 H   0  0  0  0  0  0  0  0  0  0  0  0
    2.3006  -15.2193   -4.2871 H   0  0  0  0  0  0  0  0  0  0  0  0
    0.5605  -13.7280   -1.8307 H   0  0  0  0  0  0  0  0  0  0  0  0
   -0.4961  -15.2385   -1.8689 H   0  0  0  0  0  0  0  0  0  0  0  0
    2.3883  -15.0813    0.9361 H   0  0  0  0  0  0  0  0  0  0  0  0
    1.7391  -18.6270    1.7955 H   0  0  0  0  0  0  0  0  0  0  0  0
    1.9815  -19.0077    4.4176 H   0  0  0  0  0  0  0  0  0  0  0  0
    1.6099  -14.8041    3.8315 H   0  0  0  0  0  0  0  0  0  0  0  0
   -0.1752  -17.7036    0.7215 H   0  0  0  0  0  0  0  0  0  0  0  0
   -0.6048  -16.9103   -0.8318 H   0  0  0  0  0  0  0  0  0  0  0  0
    0.3959  -18.4020   -0.8318 H   0  0  0  0  0  0  0  0  0  0  0  0
    2.7559  -18.1058    0.6659 H   0  0  0  0  0  0  0  0  0  0  0  0
    2.3853  -18.3276   -1.1054 H   0  0  0  0  0  0  0  0  0  0  0  0
    4.2018  -16.1978    0.0704 H   0  0  0  0  0  0  0  0  0  0  0  0
    4.7294  -17.7301   -0.7249 H   0  0  0  0  0  0  0  0  0  0  0  0
    3.7604  -17.0770   -2.8216 H   0  0  0  0  0  0  0  0  0  0  0  0
    6.7295  -16.7413   -1.5909 H   0  0  0  0  0  0  0  0  0  0  0  0
    6.0362  -17.3367   -3.1373 H   0  0  0  0  0  0  0  0  0  0  0  0
    7.1589  -15.9345   -3.1373 H   0  0  0  0  0  0  0  0  0  0  0  0
  1  2  1  0
  2  3  1  0
  3  4  2  0
  3  5  1  0
  5  6  1  0
  6  7  1  0
  7  8  1  0
  7  9  1  0
  7 10  1  0
 10 11  1  0
 11 12  1  0
 12 13  2  0
 12 14  1  0
 14 15  2  0
 15 16  1  0
 16 17  2  0
 17 18  1  0
 18 19  2  0
 10 20  1  0
 20 21  1  6
 20 22  1  0
 22 23  1  0
 23 24  2  0
 24 25  1  0
 25 26  1  0
 26 27  2  0
 26 28  1  0
 28 29  1  0
 29 30  1  0
 30 31  1  0
 31 32  2  0
 32 33  1  0
 33 34  1  0
 29 35  1  0
 35 36  1  6
 35 37  1  0
 37 38  1  0
 38 39  1  0
 39 40  1  0
 40 41  1  6
 40 42  1  0
 42 43  2  0
 40  6  1  0
 19 14  1  0
 42 20  1  0
 39 23  1  0
 35 24  1  0
 34 30  2  0
  1 44  1  0
  1 45  1  0
  1 46  1  0
  5 47  1  0
  5 48  1  0
  6 49  1  1
  8 50  1  0
  8 51  1  0
  8 52  1  0
  9 53  1  0
  9 54  1  0
  9 55  1  0
 10 56  1  6
 15 57  1  0
 16 58  1  0
 17 59  1  0
 18 60  1  0
 19 61  1  0
 21 62  1  0
 22 63  1  0
 22 64  1  0
 25 65  1  0
 25 66  1  0
 29 67  1  6
 31 68  1  0
 32 69  1  0
 34 70  1  0
 36 71  1  0
 36 72  1  0
 36 73  1  0
 37 74  1  0
 37 75  1  0
 38 76  1  0
 38 77  1  0
 39 78  1  6
 41 79  1  0
 41 80  1  0
 41 81  1  0
M  END
>  <meeko>  (8) 
{"is_sidechain": [false], "free_energy": -7.216, "intermolecular_energy": -10.864, "internal_energy": -2.319}

$$$$
LIB_QLNUKHGTFPPKSK__M_PUB_ALL__e8__s20260927
     RDKit          3D

 81 86  0  0  0  0  0  0  0  0999 V2000
   10.9730  -15.7650   -6.4220 C   0  0  0  0  0  0  0  0  0  0  0  0
   10.9010  -16.2640   -5.0860 O   0  0  0  0  0  0  0  0  0  0  0  0
   11.5360  -17.4510   -4.9020 C   0  0  0  0  0  0  0  0  0  0  0  0
   12.7090  -17.6780   -5.1740 O   0  0  0  0  0  0  0  0  0  0  0  0
   10.5750  -18.4830   -4.3450 C   0  0  0  0  0  0  0  0  0  0  0  0
    9.3290  -17.8450   -3.6720 C   0  0  1  0  0  0  0  0  0  0  0  0
    7.9580  -18.2390   -4.3520 C   0  0  0  0  0  0  0  0  0  0  0  0
    7.9990  -18.0030   -5.8860 C   0  0  0  0  0  0  0  0  0  0  0  0
    7.5960  -19.7360   -4.1850 C   0  0  0  0  0  0  0  0  0  0  0  0
    6.8390  -17.3160   -3.7340 C   0  0  2  0  0  0  0  0  0  0  0  0
    7.0470  -15.9900   -4.2910 O   0  0  0  0  0  0  0  0  0  0  0  0
    5.9450  -15.2560   -4.5760 C   0  0  0  0  0  0  0  0  0  0  0  0
    4.9320  -15.1810   -3.9010 O   0  0  0  0  0  0  0  0  0  0  0  0
    6.1370  -14.5330   -5.8590 C   0  0  0  0  0  0  0  0  0  0  0  0
    5.2630  -13.4810   -6.1630 C   0  0  0  0  0  0  0  0  0  0  0  0
    5.4050  -12.7750   -7.3590 C   0  0  0  0  0  0  0  0  0  0  0  0
    6.4130  -13.1220   -8.2580 C   0  0  0  0  0  0  0  0  0  0  0  0
    7.2790  -14.1750   -7.9670 C   0  0  0  0  0  0  0  0  0  0  0  0
    7.1430  -14.8820   -6.7710 C   0  0  0  0  0  0  0  0  0  0  0  0
    6.8420  -17.2460   -2.1820 C   0  0  2  0  0  0  0  0  0  0  0  0
    5.5390  -17.6140   -1.7070 O   0  0  0  0  0  0  0  0  0  0  0  0
    7.2220  -15.9020   -1.5260 C   0  0  0  0  0  0  0  0  0  0  0  0
    8.6980  -15.4950   -1.5990 C   0  0  0  0  0  0  0  0  0  0  0  0
    9.1020  -14.2080   -1.7600 C   0  0  0  0  0  0  0  0  0  0  0  0
    8.1840  -13.0620   -2.1360 C   0  0  0  0  0  0  0  0  0  0  0  0
    8.7840  -12.0130   -3.0690 C   0  0  0  0  0  0  0  0  0  0  0  0
    8.1300  -11.0300   -3.4120 O   0  0  0  0  0  0  0  0  0  0  0  0
   10.0690  -12.1500   -3.4700 O   0  0  0  0  0  0  0  0  0  0  0  0
   10.8830  -13.2930   -3.0970 C   0  0  1  0  0  0  0  0  0  0  0  0
   12.3250  -12.9680   -3.3560 C   0  0  0  0  0  0  0  0  0  0  0  0
   13.0820  -11.8610   -2.8700 C   0  0  0  0  0  0  0  0  0  0  0  0
   14.3470  -11.9930   -3.3900 C   0  0  0  0  0  0  0  0  0  0  0  0
   14.4240  -13.0970   -4.1730 O   0  0  0  0  0  0  0  0  0  0  0  0
   13.1980  -13.6740   -4.1620 C   0  0  0  0  0  0  0  0  0  0  0  0
   10.5640  -13.7520   -1.6420 C   0  0  1  0  0  0  0  0  0  0  0  0
   10.7090  -12.5970   -0.6140 C   0  0  0  0  0  0  0  0  0  0  0  0
   11.4720  -14.8870   -1.1080 C   0  0  0  0  0  0  0  0  0  0  0  0
   11.1450  -16.2380   -1.7060 C   0  0  0  0  0  0  0  0  0  0  0  0
    9.7000  -16.6500   -1.3640 C   0  0  2  0  0  0  0  0  0  0  0  0
    9.2950  -17.9900   -2.0890 C   0  0  2  0  0  0  0  0  0  0  0  0
   10.1320  -19.1750   -1.5570 C   0  0  0  0  0  0  0  0  0  0  0  0
    7.8590  -18.2170   -1.6220 C   0  0  0  0  0  0  0  0  0  0  0  0
    7.5270  -19.0690   -0.7950 O   0  0  0  0  0  0  0  0  0  0  0  0
   11.1301  -14.6765   -6.3989 H   0  0  0  0  0  0  0  0  0  0  0  0
   11.8111  -16.2453   -6.9481 H   0  0  0  0  0  0  0  0  0  0  0  0
   10.0333  -15.9888   -6.9481 H   0  0  0  0  0  0  0  0  0  0  0  0
   10.2372  -19.1291   -5.1687 H   0  0  0  0  0  0  0  0  0  0  0  0
   11.1126  -19.0529   -3.5729 H   0  0  0  0  0  0  0  0  0  0  0  0
    9.4533  -16.7685   -3.8611 H   0  0  0  0  0  0  0  0  0  0  0  0
    8.1841  -16.9377   -6.0883 H   0  0  0  0  0  0  0  0  0  0  0  0
    8.8059  -18.6058   -6.3283 H   0  0  0  0  0  0  0  0  0  0  0  0
    7.0361  -18.2983   -6.3283 H   0  0  0  0  0  0  0  0  0  0  0  0
    7.5366  -19.9816   -3.1144 H   0  0  0  0  0  0  0  0  0  0  0  0
    6.6242  -19.9336   -4.6610 H   0  0  0  0  0  0  0  0  0  0  0  0
    8.3702  -20.3558   -4.6610 H   0  0  0  0  0  0  0  0  0  0  0  0
    5.8583  -17.7430   -3.9907 H   0  0  0  0  0  0  0  0  0  0  0  0
    4.4632  -13.2108   -5.4578 H   0  0  0  0  0  0  0  0  0  0  0  0
    4.7218  -11.9450   -7.5922 H   0  0  0  0  0  0  0  0  0  0  0  0
    6.5251  -12.5635   -9.1990 H   0  0  0  0  0  0  0  0  0  0  0  0
    8.0702  -14.4490   -8.6804 H   0  0  0  0  0  0  0  0  0  0  0  0
    7.8259  -15.7139   -6.5439 H   0  0  0  0  0  0  0  0  0  0  0  0
    4.9620  -17.6990   -2.4940 H   0  0  0  0  0  0  0  0  0  0  0  0
    6.6337  -15.1129   -2.0171 H   0  0  0  0  0  0  0  0  0  0  0  0
    7.0101  -16.0324   -0.4545 H   0  0  0  0  0  0  0  0  0  0  0  0
    7.2978  -13.4868   -2.6302 H   0  0  0  0  0  0  0  0  0  0  0  0
    7.9607  -12.5355   -1.1964 H   0  0  0  0  0  0  0  0  0  0  0  0
   10.6417  -14.1678   -3.7186 H   0  0  0  0  0  0  0  0  0  0  0  0
   12.7233  -11.0587   -2.2084 H   0  0  0  0  0  0  0  0  0  0  0  0
   15.1798  -11.3005   -3.1980 H   0  0  0  0  0  0  0  0  0  0  0  0
   12.9327  -14.5838   -4.7205 H   0  0  0  0  0  0  0  0  0  0  0  0
   10.6577  -13.0055    0.4061 H   0  0  0  0  0  0  0  0  0  0  0  0
   11.6771  -12.0956   -0.7600 H   0  0  0  0  0  0  0  0  0  0  0  0
    9.8948  -11.8719   -0.7600 H   0  0  0  0  0  0  0  0  0  0  0  0
   12.5172  -14.6415   -1.3476 H   0  0  0  0  0  0  0  0  0  0  0  0
   11.3047  -14.9587   -0.0232 H   0  0  0  0  0  0  0  0  0  0  0  0
   11.2564  -16.1855   -2.7991 H   0  0  0  0  0  0  0  0  0  0  0  0
   11.8344  -16.9861   -1.2875 H   0  0  0  0  0  0  0  0  0  0  0  0
    9.6572  -16.8621   -0.2855 H   0  0  0  0  0  0  0  0  0  0  0  0
   10.1246  -19.1645   -0.4571 H   0  0  0  0  0  0  0  0  0  0  0  0
    9.7000  -20.1202   -1.9176 H   0  0  0  0  0  0  0  0  0  0  0  0
   11.1672  -19.0838   -1.9176 H   0  0  0  0  0  0  0  0  0  0  0  0
  1  2  1  0
  2  3  1  0
  3  4  2  0
  3  5  1  0
  5  6  1  0
  6  7  1  0
  7  8  1  0
  7  9  1  0
  7 10  1  0
 10 11  1  0
 11 12  1  0
 12 13  2  0
 12 14  1  0
 14 15  2  0
 15 16  1  0
 16 17  2  0
 17 18  1  0
 18 19  2  0
 10 20  1  0
 20 21  1  1
 20 22  1  0
 22 23  1  0
 23 24  2  0
 24 25  1  0
 25 26  1  0
 26 27  2  0
 26 28  1  0
 28 29  1  0
 29 30  1  0
 30 31  1  0
 31 32  2  0
 32 33  1  0
 33 34  1  0
 29 35  1  0
 35 36  1  1
 35 37  1  0
 37 38  1  0
 38 39  1  0
 39 40  1  0
 40 41  1  6
 40 42  1  0
 42 43  2  0
 40  6  1  0
 19 14  1  0
 42 20  1  0
 39 23  1  0
 35 24  1  0
 34 30  2  0
  1 44  1  0
  1 45  1  0
  1 46  1  0
  5 47  1  0
  5 48  1  0
  6 49  1  1
  8 50  1  0
  8 51  1  0
  8 52  1  0
  9 53  1  0
  9 54  1  0
  9 55  1  0
 10 56  1  6
 15 57  1  0
 16 58  1  0
 17 59  1  0
 18 60  1  0
 19 61  1  0
 21 62  1  0
 22 63  1  0
 22 64  1  0
 25 65  1  0
 25 66  1  0
 29 67  1  6
 31 68  1  0
 32 69  1  0
 34 70  1  0
 36 71  1  0
 36 72  1  0
 36 73  1  0
 37 74  1  0
 37 75  1  0
 38 76  1  0
 38 77  1  0
 39 78  1  1
 41 79  1  0
 41 80  1  0
 41 81  1  0
M  END
>  <meeko>  (9) 
{"is_sidechain": [false], "free_energy": -7.145, "intermolecular_energy": -10.844, "internal_energy": -2.238}

$$$$
