LIB_UYSJVSDAZQUFEH__M_PUB_ALL__e8__s20260927
     RDKit          3D

 44 48  0  0  0  0  0  0  0  0999 V2000
   -3.3780  -11.0520    0.1470 C   0  0  0  0  0  0  0  0  0  0  0  0
   -2.8250  -11.4670    1.4770 N   0  0  0  0  0  0  0  0  0  0  0  0
   -1.6840  -12.4970    1.4410 C   0  0  0  0  0  0  0  0  0  0  0  0
   -0.6160  -11.8580    2.3850 C   0  0  2  0  0  0  0  0  0  0  0  0
   -1.5330  -11.2140    3.4330 C   0  0  0  0  0  0  0  0  0  0  0  0
   -2.2850  -10.3610    2.4050 C   0  0  1  0  0  0  0  0  0  0  0  0
   -1.1070   -9.5740    1.7540 C   0  0  0  0  0  0  0  0  0  0  0  0
    0.0290  -10.5950    1.8080 N   0  0  0  0  0  0  0  0  0  0  0  0
    0.7220  -10.7920    0.5460 C   0  0  0  0  0  0  0  0  0  0  0  0
    0.3820  -10.0100   -0.5470 C   0  0  0  0  0  0  0  0  0  0  0  0
    1.0590  -10.2280   -1.7490 C   0  0  0  0  0  0  0  0  0  0  0  0
    2.0490  -11.2140   -1.8360 C   0  0  0  0  0  0  0  0  0  0  0  0
    2.7770  -11.4750   -3.0850 C   0  0  0  0  0  0  0  0  0  0  0  0
    2.9350  -10.4600   -4.0500 C   0  0  0  0  0  0  0  0  0  0  0  0
    3.6280  -10.6730   -5.2510 C   0  0  0  0  0  0  0  0  0  0  0  0
    4.1550  -11.9450   -5.4450 C   0  0  0  0  0  0  0  0  0  0  0  0
    4.8570  -12.3490   -6.5380 O   0  0  0  0  0  0  0  0  0  0  0  0
    5.1870  -13.6520   -6.3360 C   0  0  0  0  0  0  0  0  0  0  0  0
    4.7060  -14.0900   -5.1230 C   0  0  0  0  0  0  0  0  0  0  0  0
    4.0310  -12.9860   -4.5360 C   0  0  0  0  0  0  0  0  0  0  0  0
    3.3310  -12.7510   -3.3370 C   0  0  0  0  0  0  0  0  0  0  0  0
    2.3020  -11.9340   -0.6700 C   0  0  0  0  0  0  0  0  0  0  0  0
    1.6680  -11.7400    0.5210 N   0  0  0  0  0  0  0  0  0  0  0  0
   -4.2493  -10.3982    0.3000 H   0  0  0  0  0  0  0  0  0  0  0  0
   -2.6062  -10.5083   -0.4175 H   0  0  0  0  0  0  0  0  0  0  0  0
   -3.6844  -11.9450   -0.4175 H   0  0  0  0  0  0  0  0  0  0  0  0
   -3.6250  -11.9110    1.9610 H   0  0  0  0  0  0  0  0  0  0  0  0
   -2.0182  -13.4729    1.8230 H   0  0  0  0  0  0  0  0  0  0  0  0
   -1.3073  -12.6965    0.4269 H   0  0  0  0  0  0  0  0  0  0  0  0
    0.1497  -12.6019    2.6504 H   0  0  0  0  0  0  0  0  0  0  0  0
   -2.1785  -11.9401    3.9489 H   0  0  0  0  0  0  0  0  0  0  0  0
   -1.0679  -10.7064    4.2909 H   0  0  0  0  0  0  0  0  0  0  0  0
   -3.0853   -9.6738    2.7168 H   0  0  0  0  0  0  0  0  0  0  0  0
   -1.3406   -9.2912    0.7170 H   0  0  0  0  0  0  0  0  0  0  0  0
   -0.8744   -8.6260    2.2612 H   0  0  0  0  0  0  0  0  0  0  0  0
    0.7380  -10.2470    2.4690 H   0  0  0  0  0  0  0  0  0  0  0  0
   -0.3991   -9.2394   -0.4698 H   0  0  0  0  0  0  0  0  0  0  0  0
    0.8128   -9.6212   -2.6328 H   0  0  0  0  0  0  0  0  0  0  0  0
    2.5007   -9.4683   -3.8551 H   0  0  0  0  0  0  0  0  0  0  0  0
    3.7481   -9.8760   -5.9996 H   0  0  0  0  0  0  0  0  0  0  0  0
    5.7589  -14.2704   -7.0435 H   0  0  0  0  0  0  0  0  0  0  0  0
    4.8214  -15.0959   -4.6930 H   0  0  0  0  0  0  0  0  0  0  0  0
    3.2156  -13.5580   -2.5985 H   0  0  0  0  0  0  0  0  0  0  0  0
    3.0718  -12.7185   -0.7141 H   0  0  0  0  0  0  0  0  0  0  0  0
  1  2  1  0
  2  3  1  0
  3  4  1  0
  4  5  1  0
  5  6  1  0
  6  7  1  0
  7  8  1  0
  8  9  1  0
  9 10  2  0
 10 11  1  0
 11 12  2  0
 12 13  1  0
 13 14  2  0
 14 15  1  0
 15 16  2  0
 16 17  1  0
 17 18  1  0
 18 19  2  0
 19 20  1  0
 20 21  2  0
 12 22  1  0
 22 23  2  0
  6  2  1  0
 23  9  1  0
  8  4  1  0
 21 13  1  0
 20 16  1  0
  1 24  1  0
  1 25  1  0
  1 26  1  0
  2 27  1  0
  3 28  1  0
  3 29  1  0
  4 30  1  1
  5 31  1  0
  5 32  1  0
  6 33  1  1
  7 34  1  0
  7 35  1  0
  8 36  1  0
 10 37  1  0
 11 38  1  0
 14 39  1  0
 15 40  1  0
 18 41  1  0
 19 42  1  0
 21 43  1  0
 22 44  1  0
M  CHG  2   2   1   8   1
M  END
>  <meeko>  (1) 
{"is_sidechain": [false], "free_energy": -8.041, "intermolecular_energy": -8.982, "internal_energy": -0.633}

$$$$
LIB_UYSJVSDAZQUFEH__M_PUB_ALL__e8__s20260927
     RDKit          3D

 44 48  0  0  0  0  0  0  0  0999 V2000
   14.4420  -16.6310   13.4240 C   0  0  0  0  0  0  0  0  0  0  0  0
   13.0310  -16.5910   13.9320 N   0  0  0  0  0  0  0  0  0  0  0  0
   12.6240  -15.3170   14.6900 C   0  0  0  0  0  0  0  0  0  0  0  0
   11.2690  -14.9340   14.0130 C   0  0  2  0  0  0  0  0  0  0  0  0
   10.6950  -16.3320   13.7490 C   0  0  0  0  0  0  0  0  0  0  0  0
   11.8960  -16.7820   12.9080 C   0  0  1  0  0  0  0  0  0  0  0  0
   11.9130  -15.6820   11.8030 C   0  0  0  0  0  0  0  0  0  0  0  0
   11.4260  -14.4520   12.5670 N   0  0  0  0  0  0  0  0  0  0  0  0
   12.2630  -13.2750   12.4100 C   0  0  0  0  0  0  0  0  0  0  0  0
   13.3910  -13.3440   11.6060 C   0  0  0  0  0  0  0  0  0  0  0  0
   14.1810  -12.2000   11.4810 C   0  0  0  0  0  0  0  0  0  0  0  0
   13.8360  -11.0220   12.1550 C   0  0  0  0  0  0  0  0  0  0  0  0
   14.6470   -9.8010   12.0510 C   0  0  0  0  0  0  0  0  0  0  0  0
   14.1040   -8.6220   11.5040 C   0  0  0  0  0  0  0  0  0  0  0  0
   14.8470   -7.4390   11.3940 C   0  0  0  0  0  0  0  0  0  0  0  0
   16.1580   -7.4850   11.8540 C   0  0  0  0  0  0  0  0  0  0  0  0
   17.0380   -6.4480   11.8360 O   0  0  0  0  0  0  0  0  0  0  0  0
   18.2010   -6.9050   12.3700 C   0  0  0  0  0  0  0  0  0  0  0  0
   18.0780   -8.2280   12.7330 C   0  0  0  0  0  0  0  0  0  0  0  0
   16.7520   -8.6140   12.4000 C   0  0  0  0  0  0  0  0  0  0  0  0
   15.9870   -9.7930   12.5010 C   0  0  0  0  0  0  0  0  0  0  0  0
   12.6800  -11.0760   12.9320 C   0  0  0  0  0  0  0  0  0  0  0  0
   11.8810  -12.1730   13.0670 N   0  0  0  0  0  0  0  0  0  0  0  0
   15.1379  -16.6507   14.2757 H   0  0  0  0  0  0  0  0  0  0  0  0
   14.5859  -17.5336   12.8119 H   0  0  0  0  0  0  0  0  0  0  0  0
   14.6368  -15.7380   12.8119 H   0  0  0  0  0  0  0  0  0  0  0  0
   12.9760  -17.3780   14.6020 H   0  0  0  0  0  0  0  0  0  0  0  0
   12.4884  -15.5197   15.7626 H   0  0  0  0  0  0  0  0  0  0  0  0
   13.3788  -14.5185   14.6393 H   0  0  0  0  0  0  0  0  0  0  0  0
   10.7392  -14.1851   14.6201 H   0  0  0  0  0  0  0  0  0  0  0  0
   10.5609  -16.9255   14.6654 H   0  0  0  0  0  0  0  0  0  0  0  0
    9.6910  -16.4079   13.3060 H   0  0  0  0  0  0  0  0  0  0  0  0
   11.9276  -17.7850   12.4575 H   0  0  0  0  0  0  0  0  0  0  0  0
   12.9279  -15.5298   11.4069 H   0  0  0  0  0  0  0  0  0  0  0  0
   11.2990  -15.9285   10.9242 H   0  0  0  0  0  0  0  0  0  0  0  0
   10.5010  -14.1930   12.1970 H   0  0  0  0  0  0  0  0  0  0  0  0
   13.6556  -14.2740   11.0816 H   0  0  0  0  0  0  0  0  0  0  0  0
   15.0808  -12.2240   10.8487 H   0  0  0  0  0  0  0  0  0  0  0  0
   13.0621   -8.6302   11.1515 H   0  0  0  0  0  0  0  0  0  0  0  0
   14.4155   -6.5221   10.9661 H   0  0  0  0  0  0  0  0  0  0  0  0
   19.1130   -6.3027   12.4949 H   0  0  0  0  0  0  0  0  0  0  0  0
   18.8531   -8.8605   13.1903 H   0  0  0  0  0  0  0  0  0  0  0  0
   16.4310  -10.7041   12.9286 H   0  0  0  0  0  0  0  0  0  0  0  0
   12.3905  -10.1655   13.4772 H   0  0  0  0  0  0  0  0  0  0  0  0
  1  2  1  0
  2  3  1  0
  3  4  1  0
  4  5  1  0
  5  6  1  0
  6  7  1  0
  7  8  1  0
  8  9  1  0
  9 10  2  0
 10 11  1  0
 11 12  2  0
 12 13  1  0
 13 14  2  0
 14 15  1  0
 15 16  2  0
 16 17  1  0
 17 18  1  0
 18 19  2  0
 19 20  1  0
 20 21  2  0
 12 22  1  0
 22 23  2  0
  6  2  1  0
 23  9  1  0
  8  4  1  0
 21 13  1  0
 20 16  1  0
  1 24  1  0
  1 25  1  0
  1 26  1  0
  2 27  1  0
  3 28  1  0
  3 29  1  0
  4 30  1  1
  5 31  1  0
  5 32  1  0
  6 33  1  6
  7 34  1  0
  7 35  1  0
  8 36  1  0
 10 37  1  0
 11 38  1  0
 14 39  1  0
 15 40  1  0
 18 41  1  0
 19 42  1  0
 21 43  1  0
 22 44  1  0
M  CHG  2   2   1   8   1
M  END
>  <meeko>  (2) 
{"is_sidechain": [false], "free_energy": -7.698, "intermolecular_energy": -8.609, "internal_energy": -0.623}

$$$$
LIB_UYSJVSDAZQUFEH__M_PUB_ALL__e8__s20260927
     RDKit          3D

 44 48  0  0  0  0  0  0  0  0999 V2000
   -2.2900   -9.9900    2.8150 C   0  0  0  0  0  0  0  0  0  0  0  0
   -1.3580  -10.9770    2.1780 N   0  0  0  0  0  0  0  0  0  0  0  0
   -1.1760  -12.3110    2.9220 C   0  0  0  0  0  0  0  0  0  0  0  0
   -1.3710  -13.3650    1.7860 C   0  0  2  0  0  0  0  0  0  0  0  0
   -0.7210  -12.6210    0.6130 C   0  0  0  0  0  0  0  0  0  0  0  0
   -1.6520  -11.4080    0.7280 C   0  0  1  0  0  0  0  0  0  0  0  0
   -3.0470  -12.0910    0.5920 C   0  0  0  0  0  0  0  0  0  0  0  0
   -2.8100  -13.4420    1.2670 N   0  0  0  0  0  0  0  0  0  0  0  0
   -3.7970  -13.7950    2.2720 C   0  0  0  0  0  0  0  0  0  0  0  0
   -4.9050  -12.9800    2.4540 C   0  0  0  0  0  0  0  0  0  0  0  0
   -5.8320  -13.3400    3.4340 C   0  0  0  0  0  0  0  0  0  0  0  0
   -5.6380  -14.4920    4.2060 C   0  0  0  0  0  0  0  0  0  0  0  0
   -6.5900  -14.8970    5.2490 C   0  0  0  0  0  0  0  0  0  0  0  0
   -6.4230  -14.4680    6.5810 C   0  0  0  0  0  0  0  0  0  0  0  0
   -7.3150  -14.8330    7.5990 C   0  0  0  0  0  0  0  0  0  0  0  0
   -8.3810  -15.6450    7.2300 C   0  0  0  0  0  0  0  0  0  0  0  0
   -9.3500  -16.1050    8.0660 O   0  0  0  0  0  0  0  0  0  0  0  0
  -10.1950  -16.8590    7.3160 C   0  0  0  0  0  0  0  0  0  0  0  0
   -9.7800  -16.8890    6.0030 C   0  0  0  0  0  0  0  0  0  0  0  0
   -8.5990  -16.1030    5.9380 C   0  0  0  0  0  0  0  0  0  0  0  0
   -7.6900  -15.7250    4.9300 C   0  0  0  0  0  0  0  0  0  0  0  0
   -4.4880  -15.2290    3.9290 C   0  0  0  0  0  0  0  0  0  0  0  0
   -3.5690  -14.9120    2.9730 N   0  0  0  0  0  0  0  0  0  0  0  0
   -2.2154  -10.0690    3.9096 H   0  0  0  0  0  0  0  0  0  0  0  0
   -2.0161   -8.9719    2.5013 H   0  0  0  0  0  0  0  0  0  0  0  0
   -3.3221  -10.2051    2.5013 H   0  0  0  0  0  0  0  0  0  0  0  0
   -0.4400  -10.4990    2.1760 H   0  0  0  0  0  0  0  0  0  0  0  0
   -0.1715  -12.3851    3.3641 H   0  0  0  0  0  0  0  0  0  0  0  0
   -1.8727  -12.4410    3.7633 H   0  0  0  0  0  0  0  0  0  0  0  0
   -1.0230  -14.3532    2.1212 H   0  0  0  0  0  0  0  0  0  0  0  0
    0.3363  -12.3739    0.7891 H   0  0  0  0  0  0  0  0  0  0  0  0
   -0.6533  -13.1356   -0.3569 H   0  0  0  0  0  0  0  0  0  0  0  0
   -1.5656  -10.5601    0.0326 H   0  0  0  0  0  0  0  0  0  0  0  0
   -3.8258  -11.5154    1.1136 H   0  0  0  0  0  0  0  0  0  0  0  0
   -3.4008  -12.1714   -0.4464 H   0  0  0  0  0  0  0  0  0  0  0  0
   -2.8680  -14.1730    0.5440 H   0  0  0  0  0  0  0  0  0  0  0  0
   -5.0490  -12.0762    1.8437 H   0  0  0  0  0  0  0  0  0  0  0  0
   -6.7211  -12.7142    3.6008 H   0  0  0  0  0  0  0  0  0  0  0  0
   -5.5651  -13.8261    6.8299 H   0  0  0  0  0  0  0  0  0  0  0  0
   -7.1783  -14.4942    8.6365 H   0  0  0  0  0  0  0  0  0  0  0  0
  -11.0865  -17.3739    7.7033 H   0  0  0  0  0  0  0  0  0  0  0  0
  -10.2668  -17.4171    5.1699 H   0  0  0  0  0  0  0  0  0  0  0  0
   -7.8362  -16.0736    3.8970 H   0  0  0  0  0  0  0  0  0  0  0  0
   -4.3082  -16.1348    4.5267 H   0  0  0  0  0  0  0  0  0  0  0  0
  1  2  1  0
  2  3  1  0
  3  4  1  0
  4  5  1  0
  5  6  1  0
  6  7  1  0
  7  8  1  0
  8  9  1  0
  9 10  2  0
 10 11  1  0
 11 12  2  0
 12 13  1  0
 13 14  2  0
 14 15  1  0
 15 16  2  0
 16 17  1  0
 17 18  1  0
 18 19  2  0
 19 20  1  0
 20 21  2  0
 12 22  1  0
 22 23  2  0
  6  2  1  0
 23  9  1  0
  8  4  1  0
 21 13  1  0
 20 16  1  0
  1 24  1  0
  1 25  1  0
  1 26  1  0
  2 27  1  0
  3 28  1  0
  3 29  1  0
  4 30  1  1
  5 31  1  0
  5 32  1  0
  6 33  1  6
  7 34  1  0
  7 35  1  0
  8 36  1  0
 10 37  1  0
 11 38  1  0
 14 39  1  0
 15 40  1  0
 18 41  1  0
 19 42  1  0
 21 43  1  0
 22 44  1  0
M  CHG  2   2   1   8   1
M  END
>  <meeko>  (3) 
{"is_sidechain": [false], "free_energy": -7.697, "intermolecular_energy": -8.637, "internal_energy": -0.593}

$$$$
LIB_UYSJVSDAZQUFEH__M_PUB_ALL__e8__s20260927
     RDKit          3D

 44 48  0  0  0  0  0  0  0  0999 V2000
   15.0770   -4.7860   14.9580 C   0  0  0  0  0  0  0  0  0  0  0  0
   16.4330   -4.6790   14.3290 N   0  0  0  0  0  0  0  0  0  0  0  0
   17.2160   -5.9950   14.1850 C   0  0  0  0  0  0  0  0  0  0  0  0
   17.6890   -5.9510   12.6980 C   0  0  2  0  0  0  0  0  0  0  0  0
   17.9550   -4.4480   12.5420 C   0  0  0  0  0  0  0  0  0  0  0  0
   16.5250   -4.0490   12.9260 C   0  0  1  0  0  0  0  0  0  0  0  0
   15.7010   -4.8470   11.8700 C   0  0  0  0  0  0  0  0  0  0  0  0
   16.5450   -6.1080   11.6900 N   0  0  0  0  0  0  0  0  0  0  0  0
   15.8030   -7.3510   11.8060 C   0  0  0  0  0  0  0  0  0  0  0  0
   14.4730   -7.3890   11.4180 C   0  0  0  0  0  0  0  0  0  0  0  0
   13.7820   -8.5960   11.5500 C   0  0  0  0  0  0  0  0  0  0  0  0
   14.4260   -9.7280   12.0630 C   0  0  0  0  0  0  0  0  0  0  0  0
   13.7290  -11.0130   12.2200 C   0  0  0  0  0  0  0  0  0  0  0  0
   14.1550  -12.1530   11.5090 C   0  0  0  0  0  0  0  0  0  0  0  0
   13.5170  -13.3940   11.6380 C   0  0  0  0  0  0  0  0  0  0  0  0
   12.4340  -13.4470   12.5090 C   0  0  0  0  0  0  0  0  0  0  0  0
   11.6870  -14.5530   12.7720 O   0  0  0  0  0  0  0  0  0  0  0  0
   10.7350  -14.1830   13.6680 C   0  0  0  0  0  0  0  0  0  0  0  0
   10.8620  -12.8490   13.9860 C   0  0  0  0  0  0  0  0  0  0  0  0
   11.9650  -12.3610   13.2350 C   0  0  0  0  0  0  0  0  0  0  0  0
   12.6210  -11.1230   13.0890 C   0  0  0  0  0  0  0  0  0  0  0  0
   15.7640   -9.5660   12.4160 C   0  0  0  0  0  0  0  0  0  0  0  0
   16.4700   -8.4060   12.2920 N   0  0  0  0  0  0  0  0  0  0  0  0
   15.1792   -4.7779   16.0532 H   0  0  0  0  0  0  0  0  0  0  0  0
   14.4576   -3.9339   14.6412 H   0  0  0  0  0  0  0  0  0  0  0  0
   14.5989   -5.7247   14.6412 H   0  0  0  0  0  0  0  0  0  0  0  0
   16.9690   -4.0720   14.9740 H   0  0  0  0  0  0  0  0  0  0  0  0
   18.0735   -6.0239   14.8734 H   0  0  0  0  0  0  0  0  0  0  0  0
   16.6196   -6.8869   14.4274 H   0  0  0  0  0  0  0  0  0  0  0  0
   18.4692   -6.7071   12.5259 H   0  0  0  0  0  0  0  0  0  0  0  0
   18.7140   -4.0671   13.2412 H   0  0  0  0  0  0  0  0  0  0  0  0
   18.3581   -4.0863   11.5846 H   0  0  0  0  0  0  0  0  0  0  0  0
   16.2171   -2.9931   12.9413 H   0  0  0  0  0  0  0  0  0  0  0  0
   14.6967   -5.0895   12.2477 H   0  0  0  0  0  0  0  0  0  0  0  0
   15.5272   -4.2941   10.9351 H   0  0  0  0  0  0  0  0  0  0  0  0
   16.9330   -6.0970   10.7360 H   0  0  0  0  0  0  0  0  0  0  0  0
   13.9753   -6.4936   11.0172 H   0  0  0  0  0  0  0  0  0  0  0  0
   12.7257   -8.6571   11.2491 H   0  0  0  0  0  0  0  0  0  0  0  0
   15.0165  -12.0657   10.8306 H   0  0  0  0  0  0  0  0  0  0  0  0
   13.8549  -14.2796   11.0798 H   0  0  0  0  0  0  0  0  0  0  0  0
    9.9692  -14.8555   14.0819 H   0  0  0  0  0  0  0  0  0  0  0  0
   10.2339  -12.2751   14.6832 H   0  0  0  0  0  0  0  0  0  0  0  0
   12.2712  -10.2441   13.6504 H   0  0  0  0  0  0  0  0  0  0  0  0
   16.2909  -10.4403   12.8259 H   0  0  0  0  0  0  0  0  0  0  0  0
  1  2  1  0
  2  3  1  0
  3  4  1  0
  4  5  1  0
  5  6  1  0
  6  7  1  0
  7  8  1  0
  8  9  1  0
  9 10  2  0
 10 11  1  0
 11 12  2  0
 12 13  1  0
 13 14  2  0
 14 15  1  0
 15 16  2  0
 16 17  1  0
 17 18  1  0
 18 19  2  0
 19 20  1  0
 20 21  2  0
 12 22  1  0
 22 23  2  0
  6  2  1  0
 23  9  1  0
  8  4  1  0
 21 13  1  0
 20 16  1  0
  1 24  1  0
  1 25  1  0
  1 26  1  0
  2 27  1  0
  3 28  1  0
  3 29  1  0
  4 30  1  1
  5 31  1  0
  5 32  1  0
  6 33  1  1
  7 34  1  0
  7 35  1  0
  8 36  1  0
 10 37  1  0
 11 38  1  0
 14 39  1  0
 15 40  1  0
 18 41  1  0
 19 42  1  0
 21 43  1  0
 22 44  1  0
M  CHG  2   2   1   8   1
M  END
>  <meeko>  (4) 
{"is_sidechain": [false], "free_energy": -7.35, "intermolecular_energy": -8.531, "internal_energy": -0.312}

$$$$
LIB_UYSJVSDAZQUFEH__M_PUB_ALL__e8__s20260927
     RDKit          3D

 44 48  0  0  0  0  0  0  0  0999 V2000
    5.1480  -15.3940   -4.0000 C   0  0  0  0  0  0  0  0  0  0  0  0
    5.1540  -14.4750   -5.1850 N   0  0  0  0  0  0  0  0  0  0  0  0
    3.8430  -13.7200   -5.4590 C   0  0  0  0  0  0  0  0  0  0  0  0
    4.3290  -12.2480   -5.6500 C   0  0  2  0  0  0  0  0  0  0  0  0
    5.6670  -12.4950   -6.3580 C   0  0  0  0  0  0  0  0  0  0  0  0
    6.2250  -13.3680   -5.2270 C   0  0  1  0  0  0  0  0  0  0  0  0
    6.1080  -12.3930   -4.0160 C   0  0  0  0  0  0  0  0  0  0  0  0
    4.8440  -11.6050   -4.3590 N   0  0  0  0  0  0  0  0  0  0  0  0
    3.8680  -11.5350   -3.2860 C   0  0  0  0  0  0  0  0  0  0  0  0
    2.7670  -10.7040   -3.4200 C   0  0  0  0  0  0  0  0  0  0  0  0
    1.8500  -10.6500   -2.3680 C   0  0  0  0  0  0  0  0  0  0  0  0
    2.0480  -11.4180   -1.2150 C   0  0  0  0  0  0  0  0  0  0  0  0
    1.1070  -11.3830   -0.0870 C   0  0  0  0  0  0  0  0  0  0  0  0
    0.8430  -12.5460    0.6650 C   0  0  0  0  0  0  0  0  0  0  0  0
   -0.0450  -12.5480    1.7490 C   0  0  0  0  0  0  0  0  0  0  0  0
   -0.6580  -11.3370    2.0500 C   0  0  0  0  0  0  0  0  0  0  0  0
   -1.5470  -11.1320    3.0600 O   0  0  0  0  0  0  0  0  0  0  0  0
   -1.9060   -9.8220    3.0110 C   0  0  0  0  0  0  0  0  0  0  0  0
   -1.2560   -9.1810    1.9800 C   0  0  0  0  0  0  0  0  0  0  0  0
   -0.4430  -10.1590    1.3480 C   0  0  0  0  0  0  0  0  0  0  0  0
    0.4530  -10.1800    0.2610 C   0  0  0  0  0  0  0  0  0  0  0  0
    3.1910  -12.2160   -1.1980 C   0  0  0  0  0  0  0  0  0  0  0  0
    4.1000  -12.2990   -2.2110 N   0  0  0  0  0  0  0  0  0  0  0  0
    5.1519  -14.7992   -3.0747 H   0  0  0  0  0  0  0  0  0  0  0  0
    4.2457  -16.0226   -4.0280 H   0  0  0  0  0  0  0  0  0  0  0  0
    6.0420  -16.0343   -4.0280 H   0  0  0  0  0  0  0  0  0  0  0  0
    5.3250  -15.0980   -5.9930 H   0  0  0  0  0  0  0  0  0  0  0  0
    3.3508  -14.0965   -6.3679 H   0  0  0  0  0  0  0  0  0  0  0  0
    3.0979  -13.8335   -4.6578 H   0  0  0  0  0  0  0  0  0  0  0  0
    3.5300  -11.6393   -6.0984 H   0  0  0  0  0  0  0  0  0  0  0  0
    5.5602  -13.0354   -7.3102 H   0  0  0  0  0  0  0  0  0  0  0  0
    6.2543  -11.6229   -6.6813 H   0  0  0  0  0  0  0  0  0  0  0  0
    7.2377  -13.7932   -5.2865 H   0  0  0  0  0  0  0  0  0  0  0  0
    5.9912  -12.9431   -3.0706 H   0  0  0  0  0  0  0  0  0  0  0  0
    6.9966  -11.7615   -3.8693 H   0  0  0  0  0  0  0  0  0  0  0  0
    5.1200  -10.6320   -4.5550 H   0  0  0  0  0  0  0  0  0  0  0  0
    2.6195  -10.1036   -4.3298 H   0  0  0  0  0  0  0  0  0  0  0  0
    0.9664   -9.9996   -2.4462 H   0  0  0  0  0  0  0  0  0  0  0  0
    1.3509  -13.4827    0.3918 H   0  0  0  0  0  0  0  0  0  0  0  0
   -0.2464  -13.4595    2.3310 H   0  0  0  0  0  0  0  0  0  0  0  0
   -2.6167   -9.3409    3.6990 H   0  0  0  0  0  0  0  0  0  0  0  0
   -1.3483   -8.1210    1.7011 H   0  0  0  0  0  0  0  0  0  0  0  0
    0.6428   -9.2624   -0.3151 H   0  0  0  0  0  0  0  0  0  0  0  0
    3.3733  -12.8244   -0.2999 H   0  0  0  0  0  0  0  0  0  0  0  0
  1  2  1  0
  2  3  1  0
  3  4  1  0
  4  5  1  0
  5  6  1  0
  6  7  1  0
  7  8  1  0
  8  9  1  0
  9 10  2  0
 10 11  1  0
 11 12  2  0
 12 13  1  0
 13 14  2  0
 14 15  1  0
 15 16  2  0
 16 17  1  0
 17 18  1  0
 18 19  2  0
 19 20  1  0
 20 21  2  0
 12 22  1  0
 22 23  2  0
  6  2  1  0
 23  9  1  0
  8  4  1  0
 21 13  1  0
 20 16  1  0
  1 24  1  0
  1 25  1  0
  1 26  1  0
  2 27  1  0
  3 28  1  0
  3 29  1  0
  4 30  1  6
  5 31  1  0
  5 32  1  0
  6 33  1  6
  7 34  1  0
  7 35  1  0
  8 36  1  0
 10 37  1  0
 11 38  1  0
 14 39  1  0
 15 40  1  0
 18 41  1  0
 19 42  1  0
 21 43  1  0
 22 44  1  0
M  CHG  2   2   1   8   1
M  END
>  <meeko>  (5) 
{"is_sidechain": [false], "free_energy": -7.185, "intermolecular_energy": -8.02, "internal_energy": -0.639}

$$$$
LIB_UYSJVSDAZQUFEH__M_PUB_ALL__e8__s20260927
     RDKit          3D

 44 48  0  0  0  0  0  0  0  0999 V2000
  -10.1830  -19.7860    6.6730 C   0  0  0  0  0  0  0  0  0  0  0  0
  -10.2510  -19.3240    8.0980 N   0  0  0  0  0  0  0  0  0  0  0  0
   -8.9500  -18.7500    8.6840 C   0  0  0  0  0  0  0  0  0  0  0  0
   -9.4300  -17.4150    9.3380 C   0  0  2  0  0  0  0  0  0  0  0  0
  -10.8120  -17.8450    9.8460 C   0  0  0  0  0  0  0  0  0  0  0  0
  -11.3090  -18.2630    8.4570 C   0  0  1  0  0  0  0  0  0  0  0  0
  -11.1060  -16.9390    7.6590 C   0  0  0  0  0  0  0  0  0  0  0  0
   -9.8570  -16.3560    8.3180 N   0  0  0  0  0  0  0  0  0  0  0  0
   -8.8150  -15.9570    7.3880 C   0  0  0  0  0  0  0  0  0  0  0  0
   -7.7530  -15.1910    7.8420 C   0  0  0  0  0  0  0  0  0  0  0  0
   -6.7710  -14.8150    6.9220 C   0  0  0  0  0  0  0  0  0  0  0  0
   -6.8690  -15.2060    5.5820 C   0  0  0  0  0  0  0  0  0  0  0  0
   -5.8570  -14.8240    4.5860 C   0  0  0  0  0  0  0  0  0  0  0  0
   -6.0160  -13.6580    3.8120 C   0  0  0  0  0  0  0  0  0  0  0  0
   -5.0690  -13.2620    2.8570 C   0  0  0  0  0  0  0  0  0  0  0  0
   -3.9570  -14.0830    2.7080 C   0  0  0  0  0  0  0  0  0  0  0  0
   -2.9320  -13.8730    1.8400 O   0  0  0  0  0  0  0  0  0  0  0  0
   -2.0560  -14.8990    2.0060 C   0  0  0  0  0  0  0  0  0  0  0  0
   -2.5070  -15.7670    2.9750 C   0  0  0  0  0  0  0  0  0  0  0  0
   -3.7450  -15.2450    3.4360 C   0  0  0  0  0  0  0  0  0  0  0  0
   -4.7090  -15.6250    4.3900 C   0  0  0  0  0  0  0  0  0  0  0  0
   -7.9810  -15.9760    5.2460 C   0  0  0  0  0  0  0  0  0  0  0  0
   -8.9510  -16.3680    6.1200 N   0  0  0  0  0  0  0  0  0  0  0  0
  -10.0229  -20.8740    6.6475 H   0  0  0  0  0  0  0  0  0  0  0  0
  -11.1267  -19.5422    6.1631 H   0  0  0  0  0  0  0  0  0  0  0  0
   -9.3496  -19.2807    6.1631 H   0  0  0  0  0  0  0  0  0  0  0  0
  -10.4790  -20.1790    8.6350 H   0  0  0  0  0  0  0  0  0  0  0  0
   -8.5201  -19.4282    9.4358 H   0  0  0  0  0  0  0  0  0  0  0  0
   -8.1574  -18.6094    7.9343 H   0  0  0  0  0  0  0  0  0  0  0  0
   -8.6530  -17.0203   10.0091 H   0  0  0  0  0  0  0  0  0  0  0  0
  -10.7705  -18.6800   10.5609 H   0  0  0  0  0  0  0  0  0  0  0  0
  -11.4079  -17.1165   10.4153 H   0  0  0  0  0  0  0  0  0  0  0  0
  -12.3285  -18.6501    8.3131 H   0  0  0  0  0  0  0  0  0  0  0  0
  -10.9373  -17.1387    6.5905 H   0  0  0  0  0  0  0  0  0  0  0  0
  -11.9763  -16.2669    7.6882 H   0  0  0  0  0  0  0  0  0  0  0  0
  -10.1330  -15.4990    8.8180 H   0  0  0  0  0  0  0  0  0  0  0  0
   -7.6851  -14.8875    8.8971 H   0  0  0  0  0  0  0  0  0  0  0  0
   -5.9156  -14.2079    7.2531 H   0  0  0  0  0  0  0  0  0  0  0  0
   -6.9122  -13.0380    3.9617 H   0  0  0  0  0  0  0  0  0  0  0  0
   -5.1991  -12.3493    2.2569 H   0  0  0  0  0  0  0  0  0  0  0  0
   -1.1177  -15.0191    1.4446 H   0  0  0  0  0  0  0  0  0  0  0  0
   -2.0076  -16.6832    3.3232 H   0  0  0  0  0  0  0  0  0  0  0  0
   -4.5689  -16.5423    4.9807 H   0  0  0  0  0  0  0  0  0  0  0  0
   -8.0837  -16.2910    4.1971 H   0  0  0  0  0  0  0  0  0  0  0  0
  1  2  1  0
  2  3  1  0
  3  4  1  0
  4  5  1  0
  5  6  1  0
  6  7  1  0
  7  8  1  0
  8  9  1  0
  9 10  2  0
 10 11  1  0
 11 12  2  0
 12 13  1  0
 13 14  2  0
 14 15  1  0
 15 16  2  0
 16 17  1  0
 17 18  1  0
 18 19  2  0
 19 20  1  0
 20 21  2  0
 12 22  1  0
 22 23  2  0
  6  2  1  0
 23  9  1  0
  8  4  1  0
 21 13  1  0
 20 16  1  0
  1 24  1  0
  1 25  1  0
  1 26  1  0
  2 27  1  0
  3 28  1  0
  3 29  1  0
  4 30  1  1
  5 31  1  0
  5 32  1  0
  6 33  1  1
  7 34  1  0
  7 35  1  0
  8 36  1  0
 10 37  1  0
 11 38  1  0
 14 39  1  0
 15 40  1  0
 18 41  1  0
 19 42  1  0
 21 43  1  0
 22 44  1  0
M  CHG  2   2   1   8   1
M  END
>  <meeko>  (6) 
{"is_sidechain": [false], "free_energy": -7.0, "intermolecular_energy": -7.848, "internal_energy": -0.603}

$$$$
LIB_UYSJVSDAZQUFEH__M_PUB_ALL__e8__s20260927
     RDKit          3D

 44 48  0  0  0  0  0  0  0  0999 V2000
   -1.3540  -17.4550    1.5800 C   0  0  0  0  0  0  0  0  0  0  0  0
   -1.5320  -16.3900    0.5400 N   0  0  0  0  0  0  0  0  0  0  0  0
   -2.9830  -15.9800    0.2350 C   0  0  0  0  0  0  0  0  0  0  0  0
   -2.9200  -14.4210    0.3000 C   0  0  2  0  0  0  0  0  0  0  0  0
   -1.5240  -14.1830   -0.2910 C   0  0  0  0  0  0  0  0  0  0  0  0
   -0.8160  -15.0440    0.7620 C   0  0  1  0  0  0  0  0  0  0  0  0
   -1.2780  -14.3440    2.0770 C   0  0  0  0  0  0  0  0  0  0  0  0
   -2.6880  -13.8800    1.7140 N   0  0  0  0  0  0  0  0  0  0  0  0
   -3.7100  -14.2480    2.6780 C   0  0  0  0  0  0  0  0  0  0  0  0
   -3.5140  -15.3550    3.4890 C   0  0  0  0  0  0  0  0  0  0  0  0
   -4.5190  -15.6910    4.4000 C   0  0  0  0  0  0  0  0  0  0  0  0
   -5.6870  -14.9250    4.4810 C   0  0  0  0  0  0  0  0  0  0  0  0
   -6.7660  -15.2510    5.4230 C   0  0  0  0  0  0  0  0  0  0  0  0
   -6.7050  -14.8210    6.7630 C   0  0  0  0  0  0  0  0  0  0  0  0
   -7.7180  -15.1110    7.6880 C   0  0  0  0  0  0  0  0  0  0  0  0
   -8.7960  -15.8500    7.2140 C   0  0  0  0  0  0  0  0  0  0  0  0
   -9.8750  -16.2310    7.9490 O   0  0  0  0  0  0  0  0  0  0  0  0
  -10.6920  -16.9320    7.1200 C   0  0  0  0  0  0  0  0  0  0  0  0
  -10.1500  -17.0050    5.8560 C   0  0  0  0  0  0  0  0  0  0  0  0
   -8.9150  -16.3050    5.9080 C   0  0  0  0  0  0  0  0  0  0  0  0
   -7.8850  -16.0030    4.9970 C   0  0  0  0  0  0  0  0  0  0  0  0
   -5.7680  -13.8350    3.6150 C   0  0  0  0  0  0  0  0  0  0  0  0
   -4.8030  -13.4750    2.7220 N   0  0  0  0  0  0  0  0  0  0  0  0
   -1.4291  -17.0059    2.5813 H   0  0  0  0  0  0  0  0  0  0  0  0
   -2.1370  -18.2183    1.4609 H   0  0  0  0  0  0  0  0  0  0  0  0
   -0.3653  -17.9222    1.4609 H   0  0  0  0  0  0  0  0  0  0  0  0
   -1.1430  -16.8060   -0.3240 H   0  0  0  0  0  0  0  0  0  0  0  0
   -3.2906  -16.3233   -0.7638 H   0  0  0  0  0  0  0  0  0  0  0  0
   -3.7153  -16.4167    0.9300 H   0  0  0  0  0  0  0  0  0  0  0  0
   -3.8282  -13.9851   -0.1417 H   0  0  0  0  0  0  0  0  0  0  0  0
   -1.4143  -14.5721   -1.3140 H   0  0  0  0  0  0  0  0  0  0  0  0
   -1.1862  -13.1452   -0.4285 H   0  0  0  0  0  0  0  0  0  0  0  0
    0.2771  -15.1662    0.7510 H   0  0  0  0  0  0  0  0  0  0  0  0
   -1.2947  -15.0498    2.9205 H   0  0  0  0  0  0  0  0  0  0  0  0
   -0.6138  -13.5295    2.4018 H   0  0  0  0  0  0  0  0  0  0  0  0
   -2.6850  -12.8500    1.6840 H   0  0  0  0  0  0  0  0  0  0  0  0
   -2.5931  -15.9523    3.4175 H   0  0  0  0  0  0  0  0  0  0  0  0
   -4.3910  -16.5634    5.0577 H   0  0  0  0  0  0  0  0  0  0  0  0
   -5.8332  -14.2380    7.0949 H   0  0  0  0  0  0  0  0  0  0  0  0
   -7.6628  -14.7719    8.7330 H   0  0  0  0  0  0  0  0  0  0  0  0
  -11.6523  -17.3788    7.4170 H   0  0  0  0  0  0  0  0  0  0  0  0
  -10.5869  -17.5061    4.9797 H   0  0  0  0  0  0  0  0  0  0  0  0
   -7.9507  -16.3514    3.9557 H   0  0  0  0  0  0  0  0  0  0  0  0
   -6.6788  -13.2196    3.6555 H   0  0  0  0  0  0  0  0  0  0  0  0
  1  2  1  0
  2  3  1  0
  3  4  1  0
  4  5  1  0
  5  6  1  0
  6  7  1  0
  7  8  1  0
  8  9  1  0
  9 10  2  0
 10 11  1  0
 11 12  2  0
 12 13  1  0
 13 14  2  0
 14 15  1  0
 15 16  2  0
 16 17  1  0
 17 18  1  0
 18 19  2  0
 19 20  1  0
 20 21  2  0
 12 22  1  0
 22 23  2  0
  6  2  1  0
 23  9  1  0
  8  4  1  0
 21 13  1  0
 20 16  1  0
  1 24  1  0
  1 25  1  0
  1 26  1  0
  2 27  1  0
  3 28  1  0
  3 29  1  0
  4 30  1  6
  5 31  1  0
  5 32  1  0
  6 33  1  6
  7 34  1  0
  7 35  1  0
  8 36  1  0
 10 37  1  0
 11 38  1  0
 14 39  1  0
 15 40  1  0
 18 41  1  0
 19 42  1  0
 21 43  1  0
 22 44  1  0
M  CHG  2   2   1   8   1
M  END
>  <meeko>  (7) 
{"is_sidechain": [false], "free_energy": -6.971, "intermolecular_energy": -8.019, "internal_energy": -0.401}

$$$$
LIB_UYSJVSDAZQUFEH__M_PUB_ALL__e8__s20260927
     RDKit          3D

 44 48  0  0  0  0  0  0  0  0999 V2000
   -1.8750  -17.3460    8.5630 C   0  0  0  0  0  0  0  0  0  0  0  0
   -1.0340  -18.4590    8.0120 N   0  0  0  0  0  0  0  0  0  0  0  0
   -1.0530  -18.6250    6.4830 C   0  0  0  0  0  0  0  0  0  0  0  0
    0.4650  -18.7250    6.1310 C   0  0  2  0  0  0  0  0  0  0  0  0
    0.9760  -19.5010    7.3520 C   0  0  0  0  0  0  0  0  0  0  0  0
    0.4670  -18.4600    8.3570 C   0  0  1  0  0  0  0  0  0  0  0  0
    1.1880  -17.1750    7.8430 C   0  0  0  0  0  0  0  0  0  0  0  0
    1.2250  -17.4100    6.3340 N   0  0  0  0  0  0  0  0  0  0  0  0
    0.7330  -16.2980    5.5390 C   0  0  0  0  0  0  0  0  0  0  0  0
    0.4170  -15.1020    6.1640 C   0  0  0  0  0  0  0  0  0  0  0  0
   -0.0620  -14.0540    5.3760 C   0  0  0  0  0  0  0  0  0  0  0  0
   -0.2180  -14.2190    3.9940 C   0  0  0  0  0  0  0  0  0  0  0  0
   -0.7240  -13.1400    3.1350 C   0  0  0  0  0  0  0  0  0  0  0  0
   -0.9380  -13.3580    1.7590 C   0  0  0  0  0  0  0  0  0  0  0  0
   -1.4250  -12.3530    0.9110 C   0  0  0  0  0  0  0  0  0  0  0  0
   -1.6870  -11.1200    1.4980 C   0  0  0  0  0  0  0  0  0  0  0  0
   -2.1620  -10.0230    0.8490 O   0  0  0  0  0  0  0  0  0  0  0  0
   -2.2770   -9.0350    1.7750 C   0  0  0  0  0  0  0  0  0  0  0  0
   -1.8820   -9.4850    3.0150 C   0  0  0  0  0  0  0  0  0  0  0  0
   -1.4950  -10.8410    2.8440 C   0  0  0  0  0  0  0  0  0  0  0  0
   -1.0050  -11.8660    3.6780 C   0  0  0  0  0  0  0  0  0  0  0  0
    0.1340  -15.4670    3.4820 C   0  0  0  0  0  0  0  0  0  0  0  0
    0.6140  -16.5070    4.2220 N   0  0  0  0  0  0  0  0  0  0  0  0
   -1.8509  -17.3779    9.6623 H   0  0  0  0  0  0  0  0  0  0  0  0
   -1.4789  -16.3805    8.2154 H   0  0  0  0  0  0  0  0  0  0  0  0
   -2.9120  -17.4634    8.2154 H   0  0  0  0  0  0  0  0  0  0  0  0
   -1.4440  -19.3170    8.4200 H   0  0  0  0  0  0  0  0  0  0  0  0
   -1.5895  -19.5394    6.1897 H   0  0  0  0  0  0  0  0  0  0  0  0
   -1.5696  -17.8061    5.9609 H   0  0  0  0  0  0  0  0  0  0  0  0
    0.5925  -19.0960    5.1033 H   0  0  0  0  0  0  0  0  0  0  0  0
    0.5007  -20.4860    7.4698 H   0  0  0  0  0  0  0  0  0  0  0  0
    2.0392  -19.7811    7.3845 H   0  0  0  0  0  0  0  0  0  0  0  0
    0.6285  -18.5900    9.4373 H   0  0  0  0  0  0  0  0  0  0  0  0
    0.6155  -16.2694    8.0920 H   0  0  0  0  0  0  0  0  0  0  0  0
    2.1802  -17.0156    8.2903 H   0  0  0  0  0  0  0  0  0  0  0  0
    2.2080  -17.5430    6.0570 H   0  0  0  0  0  0  0  0  0  0  0  0
    0.5402  -14.9820    7.2505 H   0  0  0  0  0  0  0  0  0  0  0  0
   -0.3187  -13.0920    5.8437 H   0  0  0  0  0  0  0  0  0  0  0  0
   -0.7157  -14.3490    1.3365 H   0  0  0  0  0  0  0  0  0  0  0  0
   -1.5910  -12.5306   -0.1618 H   0  0  0  0  0  0  0  0  0  0  0  0
   -2.6359   -8.0170    1.5633 H   0  0  0  0  0  0  0  0  0  0  0  0
   -1.8688   -8.9088    3.9519 H   0  0  0  0  0  0  0  0  0  0  0  0
   -0.8417  -11.6748    4.7489 H   0  0  0  0  0  0  0  0  0  0  0  0
    0.0157  -15.6246    2.3998 H   0  0  0  0  0  0  0  0  0  0  0  0
  1  2  1  0
  2  3  1  0
  3  4  1  0
  4  5  1  0
  5  6  1  0
  6  7  1  0
  7  8  1  0
  8  9  1  0
  9 10  2  0
 10 11  1  0
 11 12  2  0
 12 13  1  0
 13 14  2  0
 14 15  1  0
 15 16  2  0
 16 17  1  0
 17 18  1  0
 18 19  2  0
 19 20  1  0
 20 21  2  0
 12 22  1  0
 22 23  2  0
  6  2  1  0
 23  9  1  0
  8  4  1  0
 21 13  1  0
 20 16  1  0
  1 24  1  0
  1 25  1  0
  1 26  1  0
  2 27  1  0
  3 28  1  0
  3 29  1  0
  4 30  1  6
  5 31  1  0
  5 32  1  0
  6 33  1  1
  7 34  1  0
  7 35  1  0
  8 36  1  0
 10 37  1  0
 11 38  1  0
 14 39  1  0
 15 40  1  0
 18 41  1  0
 19 42  1  0
 21 43  1  0
 22 44  1  0
M  CHG  2   2   1   8   1
M  END
>  <meeko>  (8) 
{"is_sidechain": [false], "free_energy": -6.573, "intermolecular_energy": -7.351, "internal_energy": -0.624}

$$$$
LIB_UYSJVSDAZQUFEH__M_PUB_ALL__e8__s20260927
     RDKit          3D

 44 48  0  0  0  0  0  0  0  0999 V2000
   15.9110   -8.4120   15.6960 C   0  0  0  0  0  0  0  0  0  0  0  0
   16.1780   -7.6120   14.4560 N   0  0  0  0  0  0  0  0  0  0  0  0
   16.4710   -8.4200   13.1810 C   0  0  0  0  0  0  0  0  0  0  0  0
   15.5260   -7.7570   12.1300 C   0  0  2  0  0  0  0  0  0  0  0  0
   15.5960   -6.2940   12.5890 C   0  0  0  0  0  0  0  0  0  0  0  0
   15.1010   -6.6060   14.0070 C   0  0  1  0  0  0  0  0  0  0  0  0
   13.7410   -7.3030   13.6990 C   0  0  0  0  0  0  0  0  0  0  0  0
   14.0410   -8.0290   12.3890 N   0  0  0  0  0  0  0  0  0  0  0  0
   13.6740   -9.4340   12.3810 C   0  0  0  0  0  0  0  0  0  0  0  0
   14.2080  -10.2730   11.4150 C   0  0  0  0  0  0  0  0  0  0  0  0
   13.8290  -11.6160   11.4260 C   0  0  0  0  0  0  0  0  0  0  0  0
   12.9320  -12.0920   12.3900 C   0  0  0  0  0  0  0  0  0  0  0  0
   12.5070  -13.4980   12.4290 C   0  0  0  0  0  0  0  0  0  0  0  0
   11.1410  -13.8380   12.3570 C   0  0  0  0  0  0  0  0  0  0  0  0
   10.7010  -15.1690   12.3870 C   0  0  0  0  0  0  0  0  0  0  0  0
   11.6850  -16.1450   12.4930 C   0  0  0  0  0  0  0  0  0  0  0  0
   11.4640  -17.4860   12.5370 O   0  0  0  0  0  0  0  0  0  0  0  0
   12.6790  -18.0850   12.6430 C   0  0  0  0  0  0  0  0  0  0  0  0
   13.6820  -17.1410   12.6670 C   0  0  0  0  0  0  0  0  0  0  0  0
   13.0440  -15.8760   12.5710 C   0  0  0  0  0  0  0  0  0  0  0  0
   13.4640  -14.5320   12.5400 C   0  0  0  0  0  0  0  0  0  0  0  0
   12.4640  -11.1540   13.3090 C   0  0  0  0  0  0  0  0  0  0  0  0
   12.8210   -9.8380   13.3310 N   0  0  0  0  0  0  0  0  0  0  0  0
   16.1172   -7.7942   16.5824 H   0  0  0  0  0  0  0  0  0  0  0  0
   14.8580   -8.7300   15.7076 H   0  0  0  0  0  0  0  0  0  0  0  0
   16.5619   -9.2987   15.7076 H   0  0  0  0  0  0  0  0  0  0  0  0
   17.0310   -7.0700   14.6790 H   0  0  0  0  0  0  0  0  0  0  0  0
   17.5255   -8.3228   12.8834 H   0  0  0  0  0  0  0  0  0  0  0  0
   16.3017   -9.5003   13.3002 H   0  0  0  0  0  0  0  0  0  0  0  0
   15.8095   -8.0693   11.1141 H   0  0  0  0  0  0  0  0  0  0  0  0
   16.6152   -5.8809   12.5667 H   0  0  0  0  0  0  0  0  0  0  0  0
   15.0548   -5.5369   12.0025 H   0  0  0  0  0  0  0  0  0  0  0  0
   14.9676   -5.8049   14.7490 H   0  0  0  0  0  0  0  0  0  0  0  0
   13.4668   -8.0118   14.4943 H   0  0  0  0  0  0  0  0  0  0  0  0
   12.8922   -6.6064   13.6339 H   0  0  0  0  0  0  0  0  0  0  0  0
   13.4830   -7.5860   11.6450 H   0  0  0  0  0  0  0  0  0  0  0  0
   14.9112   -9.8905   10.6605 H   0  0  0  0  0  0  0  0  0  0  0  0
   14.2377  -12.3052   10.6724 H   0  0  0  0  0  0  0  0  0  0  0  0
   10.3959  -13.0330   12.2746 H   0  0  0  0  0  0  0  0  0  0  0  0
    9.6333  -15.4272   12.3297 H   0  0  0  0  0  0  0  0  0  0  0  0
   12.8393  -19.1717   12.7015 H   0  0  0  0  0  0  0  0  0  0  0  0
   14.7629  -17.3297   12.7451 H   0  0  0  0  0  0  0  0  0  0  0  0
   14.5347  -14.2876   12.6021 H   0  0  0  0  0  0  0  0  0  0  0  0
   11.7536  -11.5014   14.0736 H   0  0  0  0  0  0  0  0  0  0  0  0
  1  2  1  0
  2  3  1  0
  3  4  1  0
  4  5  1  0
  5  6  1  0
  6  7  1  0
  7  8  1  0
  8  9  1  0
  9 10  2  0
 10 11  1  0
 11 12  2  0
 12 13  1  0
 13 14  2  0
 14 15  1  0
 15 16  2  0
 16 17  1  0
 17 18  1  0
 18 19  2  0
 19 20  1  0
 20 21  2  0
 12 22  1  0
 22 23  2  0
  6  2  1  0
 23  9  1  0
  8  4  1  0
 21 13  1  0
 20 16  1  0
  1 24  1  0
  1 25  1  0
  1 26  1  0
  2 27  1  0
  3 28  1  0
  3 29  1  0
  4 30  1  6
  5 31  1  0
  5 32  1  0
  6 33  1  1
  7 34  1  0
  7 35  1  0
  8 36  1  0
 10 37  1  0
 11 38  1  0
 14 39  1  0
 15 40  1  0
 18 41  1  0
 19 42  1  0
 21 43  1  0
 22 44  1  0
M  CHG  2   2   1   8   1
M  END
>  <meeko>  (9) 
{"is_sidechain": [false], "free_energy": -6.319, "intermolecular_energy": -7.22, "internal_energy": -0.471}

$$$$
